data_PCOD9471483
_publ_section_title
;
Structure prediction by ZEFSAII (Michael W. Deem and Ramdas Pophale) SiO2 
 PCOD9471483
Probable space group: C M C M
;
_chemical_formula_sum "Si O2"
_cell_formula_units_Z 88
_cell_length_a 28.338763
_cell_length_b 19.896726
_cell_length_c 8.822192
_cell_angle_alpha 90.000000
_cell_angle_beta 90.000000
_cell_angle_gamma 90.000000
_cell_volume 4974.380631
_symmetry_space_group_name_H-M "C M C M"
_symmetry_group_IT_number 63
_symmetry_cell_setting 'orthorhombic'
loop_
_space_group_symop_operation_xyz
x,y,z
-x,-y,1/2+z
x,-y,-z
-x,y,1/2-z
-x,-y,-z
x,y,1/2-z
-x,y,z
x,-y,1/2+z
1/2+x,1/2+y,z
1/2-x,1/2-y,1/2+z
1/2+x,1/2-y,-z
1/2-x,1/2+y,1/2-z
1/2-x,1/2-y,-z
1/2+x,1/2+y,1/2-z
1/2-x,1/2+y,z
1/2+x,1/2-y,1/2+z
loop_
_atom_site_type_symbol
_atom_site_label
_atom_site_fract_x
_atom_site_fract_y
_atom_site_fract_z
Si Si1 0.418318 0.334346 0.067419
Si Si2 0.000000 0.074360 0.430726
Si Si3 0.445098 0.819825 0.931052
Si Si4 0.125551 0.427521 0.430842
Si Si5 0.710493 0.838107 0.067313
Si Si6 0.814198 0.806132 0.067283
O O1 0.422574 0.342612 0.250000
O O2 0.432634 0.257353 0.031657
O O3 0.363311 0.340609 0.022643
O O4 0.454121 0.384866 0.988195
O O5 0.000000 0.070888 0.250000
O O6 0.000000 0.000000 0.500000
O O7 0.438069 0.827348 0.750000
O O8 0.500000 0.831586 0.965142
O O9 0.412093 0.872376 0.015413
O O10 0.115892 0.500000 0.500000
O O11 0.124674 0.432261 0.250000
O O12 0.176827 0.398941 0.479441
O O13 0.708680 0.832897 0.250000
O O14 0.765491 0.842804 0.022889
O O15 0.690110 0.768846 0.999566
O O16 0.815165 0.800218 0.250000
#
# Coordination Sequence:
#
# PCOD9471483 Si02
#       6
#    16   8  16  16  16  16
#     4  10  19  36  61  88 117 149 186 229 280 338
#     4  12  26  42  62  86 117 152 187 230 284 342
#     4  10  20  36  58  83 111 145 187 231 279 334
#     4  11  23  37  54  77 112 152 192 236 282 335
#     4   9  18  32  51  81 114 144 184 231 276 328
#     4   9  17  31  56  84 112 145 180 227 279 329
#
# _framework density 17.690645
#
# number of rings (size 3 to 8) (size 9 to 14) (size 15 to 20)
#    0.000    2.000    2.727    1.364    0.000    2.909 
#    0.000    0.909    0.000    2.182    0.000    0.000 
#    0.000    0.000    0.000    0.000    0.000    0.000 
#
# Total GULP energy -245547.105050 kJ/mol
# GULP energy per Si atom -5580.616024 kJ/mol
# Density = 1.765038 g / cm^3
# Si number density = 17.690645 Si / 1000 Ang^3
#
#
#
# Elastic Constant Matrix: (Units=GPa)
#
#
# Indices 1 2 3 4 5 6 
#
# 1 149.1510 77.0167 54.1661 0.0000 0.0000 0.0000
# 2 77.0167 122.4354 50.0883 0.0000 0.0000 0.0000
# 3 54.1661 50.0883 38.7207 0.0000 0.0000 0.0000
# 4 0.0000 0.0000 0.0000 24.0094 0.0000 0.0000
# 5 0.0000 0.0000 0.0000 0.0000 24.3981 0.0000
# 6 0.0000 0.0000 0.0000 0.0000 0.0000 21.9084
#
#
#
# Elastic Compliance Matrix: (Units=1/GPa)
#
#
# Indices 1 2 3 4 5 6 
#
# 1 0.013785 -0.001662 -0.017135 0.000000 0.000000 0.000000
# 2 -0.001662 0.017549 -0.020376 0.000000 0.000000 0.000000
# 3 -0.017135 -0.020376 0.076153 0.000000 0.000000 0.000000
# 4 0.000000 0.000000 0.000000 0.041650 0.000000 0.000000
# 5 0.000000 0.000000 0.000000 0.000000 0.040987 0.000000
# 6 0.000000 0.000000 0.000000 0.000000 0.000000 0.045645
#
#
# Mechanical properties :
#
#
# Convention : Reuss Voigt Hill
#
# Bulk Modulus (GPa) = 34.31393 74.76105 54.53749
# Shear Modulus (GPa) = 15.44031 22.66559 19.05295
#
# Velocity S-wave (km/s) = 2.95752 3.58330 3.28534
# Velocity P-wave (km/s) = 5.57685 7.71181 6.72953
#
# Compressibility (1/GPa) = 0.02914269
#
# Stress axis : x y z
#
# Youngs Moduli (GPa) = 72.54080 56.98432 13.13142
#
# Poissons Ratio (x) = 0.09470 0.22500
# Poissons Ratio (y) = 0.12055 0.26756
# Poissons Ratio (z) = 1.24295 1.16111
#
# Static dielectric constant tensor:
#      x y z
#    x 1.632410 0.000000 0.000000 
#    y 0.000000 1.561000 0.000000 
#    z 0.000000 0.000000 1.594430 
# 
# From -- ./inp_files/14211.got.cif
#   From: 2010.05.17/outbox.cif.g08.bks.cpg/sg63_8_cif.got.tgz:14211.got - 2010.06.03 15:47:04.
