data_PCOD9471245
_publ_section_title
;
Structure prediction by ZEFSAII (Michael W. Deem and Ramdas Pophale) SiO2 
 PCOD9471245
Probable space group: C M C M
;
_chemical_formula_sum "Si O2"
_cell_formula_units_Z 116
_cell_length_a 24.230851
_cell_length_b 29.756767
_cell_length_c 7.469953
_cell_angle_alpha 90.000000
_cell_angle_beta 90.000000
_cell_angle_gamma 90.000000
_cell_volume 5386.073564
_symmetry_space_group_name_H-M "C M C M"
_symmetry_group_IT_number 63
_symmetry_cell_setting 'orthorhombic'
loop_
_space_group_symop_operation_xyz
x,y,z
-x,-y,1/2+z
x,-y,-z
-x,y,1/2-z
-x,-y,-z
x,y,1/2-z
-x,y,z
x,-y,1/2+z
1/2+x,1/2+y,z
1/2-x,1/2-y,1/2+z
1/2+x,1/2-y,-z
1/2-x,1/2+y,1/2-z
1/2-x,1/2-y,-z
1/2+x,1/2+y,1/2-z
1/2-x,1/2+y,z
1/2+x,1/2-y,1/2+z
loop_
_atom_site_type_symbol
_atom_site_label
_atom_site_fract_x
_atom_site_fract_y
_atom_site_fract_z
Si Si1 0.587325 0.088679 0.542144
Si Si2 0.884067 0.684413 0.467185
Si Si3 0.740689 0.802981 0.962532
Si Si4 0.800479 0.449376 0.462218
Si Si5 0.936667 0.779005 0.469140
Si Si6 0.853322 0.854178 0.459621
Si Si7 0.500000 0.940846 0.750000
Si Si8 0.823995 0.050641 0.534917
O O1 0.581718 0.073930 0.750000
O O2 0.580189 0.142270 0.531462
O O3 0.650432 0.082047 0.476645
O O4 0.547552 0.063257 0.408076
O O5 0.883940 0.683136 0.250000
O O6 0.820181 0.683483 0.530097
O O7 0.910950 0.731376 0.523138
O O8 0.740170 0.808642 0.750000
O O9 0.750000 0.750000 0.000000
O O10 0.791877 0.832746 0.029820
O O11 0.819123 0.500000 0.500000
O O12 0.795850 0.442512 0.250000
O O13 0.738917 0.445504 0.536681
O O14 0.935716 0.779110 0.250000
O O15 0.896980 0.818791 0.534837
O O16 0.000000 0.783844 0.524274
O O17 0.866694 0.857902 0.250000
O O18 0.854457 0.904871 0.533189
O O19 0.821693 0.054160 0.750000
O O20 0.844379 0.000000 0.500000
#
# Coordination Sequence:
#
# PCOD9471245 Si02
#       8
#    16  16  16  16  16  16   4  16
#     4  11  24  41  62  86 112 153 199 249 306 353
#     4  10  20  35  56  82 112 152 196 244 294 352
#     4  11  21  33  52  82 118 153 189 231 294 355
#     4   9  19  35  58  84 110 142 185 233 295 366
#     4   9  18  32  54  79 107 151 200 239 283 340
#     4  10  19  35  55  80 117 151 186 241 292 344
#     4  12  26  44  62  82 118 152 202 258 292 350
#     4   9  18  33  56  86 115 145 181 231 292 354
#
# _framework density 21.537026000000001
#
# number of rings (size 3 to 8) (size 9 to 14) (size 15 to 20)
#    0.000    2.069    2.069    1.448    1.931    2.759 
#    0.000    0.345    0.000    1.655    0.000    0.000 
#    0.000    0.000    0.000    0.000    0.000    0.000 
#
# Total GULP energy -323389.570809 kJ/mol
# GULP energy per Si atom -5575.682255 kJ/mol
# Density = 2.148801 g / cm^3
# Si number density = 21.537026 Si / 1000 Ang^3
#
#
#
# Elastic Constant Matrix: (Units=GPa)
#
#
# Indices 1 2 3 4 5 6 
#
# 1 74.8559 19.4972 5.2471 0.0000 0.0000 0.0000
# 2 19.4972 96.9495 -11.9512 0.0000 0.0000 0.0000
# 3 5.2471 -11.9512 80.1882 0.0000 0.0000 0.0000
# 4 0.0000 0.0000 0.0000 16.4580 0.0000 0.0000
# 5 0.0000 0.0000 0.0000 0.0000 1.0308 0.0000
# 6 0.0000 0.0000 0.0000 0.0000 0.0000 -14.7339
#
#
#
# Elastic Compliance Matrix: (Units=1/GPa)
#
#
# Indices 1 2 3 4 5 6 
#
# 1 0.014247 -0.003036 -0.001385 0.000000 0.000000 0.000000
# 2 -0.003036 0.011155 0.001861 0.000000 0.000000 0.000000
# 3 -0.001385 0.001861 0.012839 0.000000 0.000000 0.000000
# 4 0.000000 0.000000 0.000000 0.060761 0.000000 0.000000
# 5 0.000000 0.000000 0.000000 0.000000 0.970155 0.000000
# 6 0.000000 0.000000 0.000000 0.000000 0.000000 -0.067871
#
#
# Mechanical properties :
#
#
# Convention : Reuss Voigt Hill
#
# Bulk Modulus (GPa) = 30.19209 30.84219 30.51714
# Shear Modulus (GPa) = 4.91427 16.49767 10.70597
#
# Velocity S-wave (km/s) = 1.51219 2.77070 2.23198
# Velocity P-wave (km/s) = 4.13498 4.95856 4.56538
#
# Compressibility (1/GPa) = 0.03312126
#
# Stress axis : x y z
#
# Youngs Moduli (GPa) = 70.19131 89.64911 77.88984
#
# Poissons Ratio (x) = 0.27216 0.10785
# Poissons Ratio (y) = 0.21309 -0.14496
# Poissons Ratio (z) = 0.09719 -0.16685
#
# Static dielectric constant tensor:
#      x y z
#    x 1.742210 0.000000 0.000000 
#    y 0.000000 1.777880 0.000000 
#    z 0.000000 0.000000 1.831900 
# 
# From -- ./inp_files/11186.got.cif
#   From: 2010.05.17/outbox.cif.g08.bks.cpg/sg63_6_cif.got.tgz:11186.got - 2010.06.03 15:47:04.
