data_PCOD9471554
_publ_section_title
;
Structure prediction by ZEFSAII (Michael W. Deem and Ramdas Pophale) SiO2 
 PCOD9471554
Probable space group: C M C M
;
_chemical_formula_sum "Si O2"
_cell_formula_units_Z 84
_cell_length_a 7.301439
_cell_length_b 19.129204
_cell_length_c 23.562567
_cell_angle_alpha 90.000000
_cell_angle_beta 90.000000
_cell_angle_gamma 90.000000
_cell_volume 3291.000607
_symmetry_space_group_name_H-M "C M C M"
_symmetry_group_IT_number 63
_symmetry_cell_setting 'orthorhombic'
loop_
_space_group_symop_operation_xyz
x,y,z
-x,-y,1/2+z
x,-y,-z
-x,y,1/2-z
-x,-y,-z
x,y,1/2-z
-x,y,z
x,-y,1/2+z
1/2+x,1/2+y,z
1/2-x,1/2-y,1/2+z
1/2+x,1/2-y,-z
1/2-x,1/2+y,1/2-z
1/2-x,1/2-y,-z
1/2+x,1/2+y,1/2-z
1/2-x,1/2+y,z
1/2+x,1/2-y,1/2+z
loop_
_atom_site_type_symbol
_atom_site_label
_atom_site_fract_x
_atom_site_fract_y
_atom_site_fract_z
Si Si1 0.279092 0.660649 0.423046
Si Si2 0.793162 0.423796 0.340930
Si Si3 0.709359 0.421924 0.812208
Si Si4 0.000000 0.707934 0.250000
Si Si5 0.278763 0.230868 0.838205
Si Si6 0.720883 0.425128 0.027710
O O1 0.500000 0.653697 0.425262
O O2 0.217285 0.608694 0.371771
O O3 0.240713 0.738947 0.401347
O O4 0.213864 0.633924 0.483671
O O5 0.702243 0.494467 0.320133
O O6 0.717790 0.347892 0.325240
O O7 0.795103 0.422007 0.409154
O O8 0.000000 0.427558 0.319473
O O9 0.800900 0.409627 0.750000
O O10 0.500000 0.396214 0.808531
O O11 0.161475 0.719584 0.201422
O O12 0.500000 0.233999 0.829795
O O13 0.500000 0.421516 0.033175
O O14 0.764477 0.500000 0.000000
#
# Coordination Sequence:
#
# PCOD9471554 Si02
#       6
#    16  16  16   4  16  16
#     4   9  19  41  65  91 125 167 210 267 330 376
#     4  11  24  40  59  91 131 169 206 269 333 376
#     4  10  21  37  64  90 119 163 216 265 317 387
#     4  12  26  44  72  98 124 184 214 262 330 382
#     4  10  25  45  65  96 135 169 217 267 325 392
#     4  10  19  37  67  93 121 166 218 267 315 387
#
# _framework density 25.524152000000001
#
# number of rings (size 3 to 8) (size 9 to 14) (size 15 to 20)
#    0.000    1.905    1.905    0.857    5.333    1.524 
#    3.429    0.000    0.000    0.000    0.000    0.000 
#    0.000    0.000    0.000    0.000    0.000    0.000 
#
# Total GULP energy -234337.114414 kJ/mol
# GULP energy per Si atom -5579.455105 kJ/mol
# Density = 2.546606 g / cm^3
# Si number density = 25.524152 Si / 1000 Ang^3
#
#
#
# Elastic Constant Matrix: (Units=GPa)
#
#
# Indices 1 2 3 4 5 6 
#
# 1 103.3469 -19.6092 -11.9262 0.0000 0.0000 0.0000
# 2 -19.6092 98.4023 -1.8709 0.0000 0.0000 0.0000
# 3 -11.9262 -1.8709 116.3522 0.0000 0.0000 0.0000
# 4 0.0000 0.0000 0.0000 22.6520 0.0000 0.0000
# 5 0.0000 0.0000 0.0000 0.0000 -13.0151 0.0000
# 6 0.0000 0.0000 0.0000 0.0000 0.0000 18.2878
#
#
#
# Elastic Compliance Matrix: (Units=1/GPa)
#
#
# Indices 1 2 3 4 5 6 
#
# 1 0.010190 0.002051 0.001077 0.000000 0.000000 0.000000
# 2 0.002051 0.010578 0.000380 0.000000 0.000000 0.000000
# 3 0.001077 0.000380 0.008711 0.000000 0.000000 0.000000
# 4 0.000000 0.000000 0.000000 0.044146 0.000000 0.000000
# 5 0.000000 0.000000 0.000000 0.000000 -0.076834 0.000000
# 6 0.000000 0.000000 0.000000 0.000000 0.000000 0.054681
#
#
# Mechanical properties :
#
#
# Convention : Reuss Voigt Hill
#
# Bulk Modulus (GPa) = 27.39974 27.92098 27.66036
# Shear Modulus (GPa) = 88.30724 29.01880 58.66302
#
# Velocity S-wave (km/s) = 5.88835 3.37548 4.79929
# Velocity P-wave (km/s) = 7.54906 5.11415 6.44759
#
# Compressibility (1/GPa) = 0.03649669
#
# Stress axis : x y z
#
# Youngs Moduli (GPa) = 98.13880 94.53304 114.79547
#
# Poissons Ratio (x) = -0.19389 -0.12368
# Poissons Ratio (y) = -0.20129 -0.04366
# Poissons Ratio (z) = -0.10574 -0.03595
#
# Static dielectric constant tensor:
#      x y z
#    x 2.038550 0.000000 0.000000 
#    y 0.000000 2.070980 0.000000 
#    z 0.000000 0.000000 2.002720 
# 
# From -- ./inp_files/59501.got.cif
#   From: 2010.05.17/outbox.cif.g08.bks.cpg/sg63_30_cif.got.tgz:59501.got - 2010.06.03 15:47:04.
