data_PCOD9471693
_publ_section_title
;
Structure prediction by ZEFSAII (Michael W. Deem and Ramdas Pophale) SiO2 
 PCOD9471693
Probable space group: C M C M
;
_chemical_formula_sum "Si O2"
_cell_formula_units_Z 88
_cell_length_a 19.881573
_cell_length_b 27.600401
_cell_length_c 8.785214
_cell_angle_alpha 90.000000
_cell_angle_beta 90.000000
_cell_angle_gamma 90.000000
_cell_volume 4820.792948
_symmetry_space_group_name_H-M "C M C M"
_symmetry_group_IT_number 63
_symmetry_cell_setting 'orthorhombic'
loop_
_space_group_symop_operation_xyz
x,y,z
-x,-y,1/2+z
x,-y,-z
-x,y,1/2-z
-x,-y,-z
x,y,1/2-z
-x,y,z
x,-y,1/2+z
1/2+x,1/2+y,z
1/2-x,1/2-y,1/2+z
1/2+x,1/2-y,-z
1/2-x,1/2+y,1/2-z
1/2-x,1/2-y,-z
1/2+x,1/2+y,1/2-z
1/2-x,1/2+y,z
1/2+x,1/2-y,1/2+z
loop_
_atom_site_type_symbol
_atom_site_label
_atom_site_fract_x
_atom_site_fract_y
_atom_site_fract_z
Si Si1 0.854815 0.084503 0.425655
Si Si2 0.313883 0.696634 0.075645
Si Si3 0.176254 0.653075 0.065772
Si Si4 0.576322 0.766927 0.566986
Si Si5 0.000000 0.053223 0.433790
Si Si6 0.719937 0.051198 0.930151
O O1 0.848894 0.066893 0.250000
O O2 0.839696 0.141355 0.423466
O O3 0.798325 0.058286 0.524364
O O4 0.930310 0.077272 0.482295
O O5 0.309301 0.714233 0.250000
O O6 0.237840 0.688697 0.014452
O O7 0.368891 0.728313 0.989800
O O8 0.182746 0.649194 0.250000
O O9 0.107393 0.680476 0.027498
O O10 0.185099 0.599641 0.997654
O O11 0.574667 0.764185 0.750000
O O12 0.500000 0.759561 0.510036
O O13 0.000000 0.053203 0.250000
O O14 0.000000 0.000000 0.500000
O O15 0.712212 0.050292 0.750000
O O16 0.696694 0.000000 0.000000
#
# Coordination Sequence:
#
# PCOD9471693 Si02
#       6
#    16  16  16  16   8  16
#     4   9  19  34  50  71 101 137 178 220 261 307
#     4   9  18  32  53  76 101 139 180 218 258 305
#     4   9  19  37  56  76 106 141 177 217 262 311
#     4  10  21  35  53  79 110 141 173 216 268 317
#     4  10  20  32  46  64  94 136 178 218 261 308
#     4  11  21  34  55  80 104 131 169 216 264 314
#
# _framework density 18.254259000000001
#
# number of rings (size 3 to 8) (size 9 to 14) (size 15 to 20)
#    0.000    2.364    0.000    3.818    1.273    6.182 
#    0.000    0.000    0.000    0.545    0.000    0.000 
#    0.000    0.000    0.000    0.000    0.000    0.000 
#
# Total GULP energy -245336.068895 kJ/mol
# GULP energy per Si atom -5575.819748 kJ/mol
# Density = 1.821271 g / cm^3
# Si number density = 18.254259 Si / 1000 Ang^3
#
#
#
# Elastic Constant Matrix: (Units=GPa)
#
#
# Indices 1 2 3 4 5 6 
#
# 1 74.1344 38.9939 19.3142 0.0000 0.0000 0.0000
# 2 38.9939 85.7186 31.8622 0.0000 0.0000 0.0000
# 3 19.3142 31.8622 44.5683 0.0000 0.0000 0.0000
# 4 0.0000 0.0000 0.0000 29.0566 0.0000 0.0000
# 5 0.0000 0.0000 0.0000 0.0000 17.3967 0.0000
# 6 0.0000 0.0000 0.0000 0.0000 0.0000 11.0442
#
#
#
# Elastic Compliance Matrix: (Units=1/GPa)
#
#
# Indices 1 2 3 4 5 6 
#
# 1 0.017958 -0.007186 -0.002645 0.000000 0.000000 0.000000
# 2 -0.007186 0.018764 -0.010300 0.000000 0.000000 0.000000
# 3 -0.002645 -0.010300 0.030947 0.000000 0.000000 0.000000
# 4 0.000000 0.000000 0.000000 0.034416 0.000000 0.000000
# 5 0.000000 0.000000 0.000000 0.000000 0.057482 0.000000
# 6 0.000000 0.000000 0.000000 0.000000 0.000000 0.090545
#
#
# Mechanical properties :
#
#
# Convention : Reuss Voigt Hill
#
# Bulk Modulus (GPa) = 36.48742 42.75133 39.61937
# Shear Modulus (GPa) = 16.69397 19.11624 17.90510
#
# Velocity S-wave (km/s) = 3.02739 3.23959 3.13529
# Velocity P-wave (km/s) = 5.67908 6.12079 5.90407
#
# Compressibility (1/GPa) = 0.02740671
#
# Stress axis : x y z
#
# Youngs Moduli (GPa) = 55.68597 53.29452 32.31297
#
# Poissons Ratio (x) = 0.38297 0.08547
# Poissons Ratio (y) = 0.40016 0.33283
# Poissons Ratio (z) = 0.14729 0.54894
#
# Static dielectric constant tensor:
#      x y z
#    x 1.813530 0.000000 0.000000 
#    y 0.000000 1.626090 0.000000 
#    z 0.000000 0.000000 1.631120 
# 
# From -- ./inp_files/8213.got.cif
#   From: 2010.05.17/outbox.cif.g08.bks.cpg/sg63_5_cif.got.tgz:8213.got - 2010.06.03 15:47:04.
