data_PCOD9471276
_publ_section_title
;
Structure prediction by ZEFSAII (Michael W. Deem and Ramdas Pophale) SiO2 
 PCOD9471276
Probable space group: C M C M
;
_chemical_formula_sum "Si O2"
_cell_formula_units_Z 80
_cell_length_a 28.747014
_cell_length_b 8.012259
_cell_length_c 14.338327
_cell_angle_alpha 90.000000
_cell_angle_beta 90.000000
_cell_angle_gamma 90.000000
_cell_volume 3302.525661
_symmetry_space_group_name_H-M "C M C M"
_symmetry_group_IT_number 63
_symmetry_cell_setting 'orthorhombic'
loop_
_space_group_symop_operation_xyz
x,y,z
-x,-y,1/2+z
x,-y,-z
-x,y,1/2-z
-x,-y,-z
x,y,1/2-z
-x,y,z
x,-y,1/2+z
1/2+x,1/2+y,z
1/2-x,1/2-y,1/2+z
1/2+x,1/2-y,-z
1/2-x,1/2+y,1/2-z
1/2-x,1/2-y,-z
1/2+x,1/2+y,1/2-z
1/2-x,1/2+y,z
1/2+x,1/2-y,1/2+z
loop_
_atom_site_type_symbol
_atom_site_label
_atom_site_fract_x
_atom_site_fract_y
_atom_site_fract_z
Si Si1 0.052369 0.889420 0.364355
Si Si2 0.812424 0.939567 0.899742
Si Si3 0.717130 0.804571 0.644200
Si Si4 0.406910 0.729654 0.356210
Si Si5 0.881605 0.413307 0.635092
O O1 0.055126 0.894946 0.250000
O O2 0.089769 0.750608 0.392964
O O3 0.000000 0.841613 0.389267
O O4 0.064222 0.076357 0.397953
O O5 0.765461 0.832719 0.907631
O O6 0.853859 0.837617 0.853988
O O7 0.797933 0.112143 0.851858
O O8 0.829262 0.000000 0.000000
O O9 0.725494 0.863700 0.750000
O O10 0.672081 0.899397 0.604915
O O11 0.424040 0.750648 0.250000
O O12 0.404817 0.914536 0.397408
O O13 0.880376 0.415385 0.750000
#
# Coordination Sequence:
#
# PCOD9471276 Si02
#       5
#    16  16  16  16  16
#     4   9  17  31  54  85 117 147 188 249 306 347
#     4  12  24  37  55  85 122 154 197 247 297 349
#     4  11  21  37  58  81 114 158 200 241 288 355
#     4  10  19  35  57  82 115 156 197 238 292 361
#     4   9  18  32  54  83 112 146 192 239 288 347
#
# _framework density 24.223884999999999
#
# number of rings (size 3 to 8) (size 9 to 14) (size 15 to 20)
#    0.000    1.800    2.000    3.600    0.000    2.400 
#    0.000    4.000    0.000    0.600    0.000    1.400 
#    0.000    0.000    0.000    0.000    0.000    0.000 
#
# Total GULP energy -223791.415752 kJ/mol
# GULP energy per Si atom -5594.785394 kJ/mol
# Density = 2.416875 g / cm^3
# Si number density = 24.223885 Si / 1000 Ang^3
#
#
#
# Elastic Constant Matrix: (Units=GPa)
#
#
# Indices 1 2 3 4 5 6 
#
# 1 75.0972 2.3387 -7.0013 0.0000 0.0000 0.0000
# 2 2.3387 108.7989 3.3603 0.0000 0.0000 0.0000
# 3 -7.0013 3.3603 56.1910 0.0000 0.0000 0.0000
# 4 0.0000 0.0000 0.0000 18.0765 0.0000 0.0000
# 5 0.0000 0.0000 0.0000 0.0000 7.3513 0.0000
# 6 0.0000 0.0000 0.0000 0.0000 0.0000 30.9080
#
#
#
# Elastic Compliance Matrix: (Units=1/GPa)
#
#
# Indices 1 2 3 4 5 6 
#
# 1 0.013485 -0.000342 0.001701 0.000000 0.000000 0.000000
# 2 -0.000342 0.009217 -0.000594 0.000000 0.000000 0.000000
# 3 0.001701 -0.000594 0.018044 0.000000 0.000000 0.000000
# 4 0.000000 0.000000 0.000000 0.055321 0.000000 0.000000
# 5 0.000000 0.000000 0.000000 0.000000 0.136031 0.000000
# 6 0.000000 0.000000 0.000000 0.000000 0.000000 0.032354
#
#
# Mechanical properties :
#
#
# Convention : Reuss Voigt Hill
#
# Bulk Modulus (GPa) = 23.65460 26.38694 25.02077
# Shear Modulus (GPa) = 18.04963 27.35978 22.70470
#
# Velocity S-wave (km/s) = 2.73264 3.36438 3.06483
# Velocity P-wave (km/s) = 4.44327 5.09987 4.78285
#
# Compressibility (1/GPa) = 0.04227507
#
# Stress axis : x y z
#
# Youngs Moduli (GPa) = 74.15480 108.49552 55.42050
#
# Poissons Ratio (x) = 0.03715 -0.09425
# Poissons Ratio (y) = 0.02539 0.03291
# Poissons Ratio (z) = -0.12612 0.06443
#
# Static dielectric constant tensor:
#      x y z
#    x 1.859830 0.000000 0.000000 
#    y 0.000000 1.900830 0.000000 
#    z 0.000000 0.000000 2.025530 
# 
# From -- ./inp_files/48741.got.cif
#   From: 2010.05.17/outbox.cif.g08.bks.cpg/sg63_25_cif.got.tgz:48741.got - 2010.06.03 15:47:04.
