data_PCOD9471041
_publ_section_title
;
Structure prediction by ZEFSAII (Michael W. Deem and Ramdas Pophale) SiO2 
 PCOD9471041
Probable space group: C M C M
;
_chemical_formula_sum "Si O2"
_cell_formula_units_Z 84
_cell_length_a 21.507604
_cell_length_b 13.907300
_cell_length_c 11.134508
_cell_angle_alpha 90.000000
_cell_angle_beta 90.000000
_cell_angle_gamma 90.000000
_cell_volume 3330.472763
_symmetry_space_group_name_H-M "C M C M"
_symmetry_group_IT_number 63
_symmetry_cell_setting 'orthorhombic'
loop_
_space_group_symop_operation_xyz
x,y,z
-x,-y,1/2+z
x,-y,-z
-x,y,1/2-z
-x,-y,-z
x,y,1/2-z
-x,y,z
x,-y,1/2+z
1/2+x,1/2+y,z
1/2-x,1/2-y,1/2+z
1/2+x,1/2-y,-z
1/2-x,1/2+y,1/2-z
1/2-x,1/2-y,-z
1/2+x,1/2+y,1/2-z
1/2-x,1/2+y,z
1/2+x,1/2-y,1/2+z
loop_
_atom_site_type_symbol
_atom_site_label
_atom_site_fract_x
_atom_site_fract_y
_atom_site_fract_z
Si Si1 0.075113 0.569572 0.888552
Si Si2 0.748082 0.662328 0.378667
Si Si3 0.242002 0.112213 0.877678
Si Si4 0.398303 0.563461 0.615338
Si Si5 0.500000 0.344014 0.750000
Si Si6 0.605845 0.711810 0.435697
O O1 0.089312 0.538988 0.750000
O O2 0.103197 0.674872 0.914058
O O3 0.000000 0.582762 0.891069
O O4 0.090506 0.500000 0.000000
O O5 0.762688 0.619558 0.250000
O O6 0.772164 0.772133 0.379005
O O7 0.772253 0.603556 0.492037
O O8 0.673542 0.673240 0.395054
O O9 0.274286 0.096211 0.750000
O O10 0.176815 0.056173 0.876402
O O11 0.418262 0.500000 0.500000
O O12 0.423636 0.544085 0.750000
O O13 0.408260 0.672673 0.569514
O O14 0.445970 0.333909 0.852351
#
# Coordination Sequence:
#
# PCOD9471041 Si02
#       6
#    16  16  16  16   4  16
#     4  10  19  34  55  80 108 145 187 237 296 359
#     4   9  15  27  52  80 106 144 181 227 290 349
#     4   8  16  30  48  78 110 136 181 234 288 354
#     4  10  23  39  61  86 118 162 210 259 311 370
#     4  12  20  36  62  92 114 162 212 260 302 374
#     4  11  20  36  61  85 121 158 208 254 304 362
#
# _framework density 25.221644999999999
#
# number of rings (size 3 to 8) (size 9 to 14) (size 15 to 20)
#    0.000    2.286    2.857    0.000    1.333    1.524 
#    0.000    1.905    0.000    0.000    0.000    0.000 
#    0.000    0.000    0.000    0.000    0.000    0.000 
#
# Total GULP energy -234077.997620 kJ/mol
# GULP energy per Si atom -5573.285658 kJ/mol
# Density = 2.516424 g / cm^3
# Si number density = 25.221645 Si / 1000 Ang^3
#
#
#
# Elastic Constant Matrix: (Units=GPa)
#
#
# Indices 1 2 3 4 5 6 
#
# 1 103.1626 10.2901 24.8427 0.0000 0.0000 0.0000
# 2 10.2901 132.2063 73.7501 0.0000 0.0000 0.0000
# 3 24.8427 73.7501 303.5679 0.0000 0.0000 0.0000
# 4 0.0000 0.0000 0.0000 19.2420 0.0000 0.0000
# 5 0.0000 0.0000 0.0000 0.0000 45.4082 0.0000
# 6 0.0000 0.0000 0.0000 0.0000 0.0000 -73.5536
#
#
#
# Elastic Compliance Matrix: (Units=1/GPa)
#
#
# Indices 1 2 3 4 5 6 
#
# 1 0.009904 -0.000369 -0.000721 0.000000 0.000000 0.000000
# 2 -0.000369 0.008763 -0.002099 0.000000 0.000000 0.000000
# 3 -0.000721 -0.002099 0.003863 0.000000 0.000000 0.000000
# 4 0.000000 0.000000 0.000000 0.051970 0.000000 0.000000
# 5 0.000000 0.000000 0.000000 0.000000 0.022022 0.000000
# 6 0.000000 0.000000 0.000000 0.000000 0.000000 -0.013596
#
#
# Mechanical properties :
#
#
# Convention : Reuss Voigt Hill
#
# Bulk Modulus (GPa) = 61.90647 84.07806 72.99227
# Shear Modulus (GPa) = 52.80476 26.88957 39.84717
#
# Velocity S-wave (km/s) = 4.58058 3.26871 3.97908
# Velocity P-wave (km/s) = 7.25079 6.90319 7.07912
#
# Compressibility (1/GPa) = 0.01615340
#
# Stress axis : x y z
#
# Youngs Moduli (GPa) = 100.97118 114.11016 258.86218
#
# Poissons Ratio (x) = 0.04207 0.18662
# Poissons Ratio (y) = 0.03723 0.54332
# Poissons Ratio (z) = 0.07279 0.23950
#
# Static dielectric constant tensor:
#      x y z
#    x 1.949150 0.000000 0.000000 
#    y 0.000000 2.061150 0.000000 
#    z 0.000000 0.000000 2.075670 
# 
# From -- ./inp_files/25728.got.cif
#   From: 2010.05.17/outbox.cif.g08.bks.cpg/sg63_13_cif.got.tgz:25728.got - 2010.06.03 15:47:04.
