data_PCOD9471269
_publ_section_title
;
Structure prediction by ZEFSAII (Michael W. Deem and Ramdas Pophale) SiO2 
 PCOD9471269
Probable space group: C M C M
;
_chemical_formula_sum "Si O2"
_cell_formula_units_Z 112
_cell_length_a 32.419386
_cell_length_b 11.448871
_cell_length_c 15.868190
_cell_angle_alpha 90.000000
_cell_angle_beta 90.000000
_cell_angle_gamma 90.000000
_cell_volume 5889.722584
_symmetry_space_group_name_H-M "C M C M"
_symmetry_group_IT_number 63
_symmetry_cell_setting 'orthorhombic'
loop_
_space_group_symop_operation_xyz
x,y,z
-x,-y,1/2+z
x,-y,-z
-x,y,1/2-z
-x,-y,-z
x,y,1/2-z
-x,y,z
x,-y,1/2+z
1/2+x,1/2+y,z
1/2-x,1/2-y,1/2+z
1/2+x,1/2-y,-z
1/2-x,1/2+y,1/2-z
1/2-x,1/2-y,-z
1/2+x,1/2+y,1/2-z
1/2-x,1/2+y,z
1/2+x,1/2-y,1/2+z
loop_
_atom_site_type_symbol
_atom_site_label
_atom_site_fract_x
_atom_site_fract_y
_atom_site_fract_z
Si Si1 0.838468 0.845802 0.154449
Si Si2 0.723442 0.534464 0.095988
Si Si3 0.596963 0.367989 0.497713
Si Si4 0.617948 0.064759 0.843885
Si Si5 0.157163 0.190616 0.346823
Si Si6 0.548281 0.133476 0.537070
Si Si7 0.813202 0.411631 0.851165
O O1 0.855291 0.838465 0.250000
O O2 0.873139 0.864066 0.083672
O O3 0.815199 0.725574 0.134581
O O4 0.804110 0.945459 0.149416
O O5 0.702597 0.657116 0.121435
O O6 0.771728 0.534339 0.112894
O O7 0.715498 0.500000 0.000000
O O8 0.577972 0.500000 0.500000
O O9 0.625190 0.357167 0.582745
O O10 0.567939 0.251391 0.494734
O O11 0.608141 0.024742 0.750000
O O12 0.650031 0.171487 0.843977
O O13 0.576584 0.115700 0.881694
O O14 0.643903 0.962716 0.887716
O O15 0.149933 0.149025 0.250000
O O16 0.500000 0.155275 0.550410
O O17 0.551464 0.000000 0.500000
O O18 0.812744 0.432176 0.750000
#
# Coordination Sequence:
#
# PCOD9471269 Si02
#       7
#    16  16  16  16  16  16  16
#     4  11  22  38  58  80 115 161 204 250 301 357
#     4  12  23  36  53  80 115 155 208 250 293 348
#     4  11  21  38  62  91 121 152 204 244 302 375
#     4   9  20  38  60  85 114 151 197 247 301 356
#     4  10  19  35  57  79 114 155 193 244 294 351
#     4  10  22  40  64  90 119 155 195 247 310 373
#     4  10  23  37  53  80 114 157 203 255 303 349
#
# _framework density 19.016176000000002
#
# number of rings (size 3 to 8) (size 9 to 14) (size 15 to 20)
#    0.000    1.571    2.857    2.143    2.000    4.000 
#    0.000    0.000    0.000    1.286    0.000    2.000 
#    0.000    0.000    0.000    0.000    0.000    0.000 
#
# Total GULP energy -311903.238006 kJ/mol
# GULP energy per Si atom -5569.700679 kJ/mol
# Density = 1.897289 g / cm^3
# Si number density = 19.016176 Si / 1000 Ang^3
#
#
#
# Elastic Constant Matrix: (Units=GPa)
#
#
# Indices 1 2 3 4 5 6 
#
# 1 101.6755 38.0685 31.4169 0.0000 0.0000 0.0000
# 2 38.0685 77.4079 16.5349 0.0000 0.0000 0.0000
# 3 31.4169 16.5349 76.8182 0.0000 0.0000 0.0000
# 4 0.0000 0.0000 0.0000 17.7304 0.0000 0.0000
# 5 0.0000 0.0000 0.0000 0.0000 11.3958 0.0000
# 6 0.0000 0.0000 0.0000 0.0000 0.0000 28.5437
#
#
#
# Elastic Compliance Matrix: (Units=1/GPa)
#
#
# Indices 1 2 3 4 5 6 
#
# 1 0.013235 -0.005611 -0.004205 0.000000 0.000000 0.000000
# 2 -0.005611 0.015920 -0.001132 0.000000 0.000000 0.000000
# 3 -0.004205 -0.001132 0.014981 0.000000 0.000000 0.000000
# 4 0.000000 0.000000 0.000000 0.056400 0.000000 0.000000
# 5 0.000000 0.000000 0.000000 0.000000 0.087751 0.000000
# 6 0.000000 0.000000 0.000000 0.000000 0.000000 0.035034
#
#
# Mechanical properties :
#
#
# Convention : Reuss Voigt Hill
#
# Bulk Modulus (GPa) = 44.96341 47.54910 46.25626
# Shear Modulus (GPa) = 19.79169 22.85941 21.32555
#
# Velocity S-wave (km/s) = 3.22961 3.47090 3.35243
# Velocity P-wave (km/s) = 6.13216 6.41262 6.27396
#
# Compressibility (1/GPa) = 0.02224031
#
# Stress axis : x y z
#
# Youngs Moduli (GPa) = 75.55543 62.81533 66.75002
#
# Poissons Ratio (x) = 0.35244 0.28070
# Poissons Ratio (y) = 0.42392 0.07556
# Poissons Ratio (z) = 0.31773 0.07111
#
# Static dielectric constant tensor:
#      x y z
#    x 1.627320 0.000000 0.000000 
#    y 0.000000 1.726410 0.000000 
#    z 0.000000 0.000000 1.689140 
# 
# From -- ./inp_files/38547.got.cif
#   From: 2010.05.17/outbox.cif.g08.bks.cpg/sg63_20_cif.got.tgz:38547.got - 2010.06.03 15:47:04.
