data_PCOD9471162
_publ_section_title
;
Structure prediction by ZEFSAII (Michael W. Deem and Ramdas Pophale) SiO2 
 PCOD9471162
Probable space group: C M C M
;
_chemical_formula_sum "Si O2"
_cell_formula_units_Z 96
_cell_length_a 12.905193
_cell_length_b 14.646854
_cell_length_c 21.592781
_cell_angle_alpha 90.000000
_cell_angle_beta 90.000000
_cell_angle_gamma 90.000000
_cell_volume 4081.477780
_symmetry_space_group_name_H-M "C M C M"
_symmetry_group_IT_number 63
_symmetry_cell_setting 'orthorhombic'
loop_
_space_group_symop_operation_xyz
x,y,z
-x,-y,1/2+z
x,-y,-z
-x,y,1/2-z
-x,-y,-z
x,y,1/2-z
-x,y,z
x,-y,1/2+z
1/2+x,1/2+y,z
1/2-x,1/2-y,1/2+z
1/2+x,1/2-y,-z
1/2-x,1/2+y,1/2-z
1/2-x,1/2-y,-z
1/2+x,1/2+y,1/2-z
1/2-x,1/2+y,z
1/2+x,1/2-y,1/2+z
loop_
_atom_site_type_symbol
_atom_site_label
_atom_site_fract_x
_atom_site_fract_y
_atom_site_fract_z
Si Si1 0.884683 0.452625 0.178391
Si Si2 0.114430 0.181173 0.437793
Si Si3 0.113705 0.617928 0.525241
Si Si4 0.827533 0.843842 0.176979
Si Si5 0.661825 0.427081 0.449216
Si Si6 0.826582 0.643513 0.383979
O O1 0.886848 0.475951 0.250000
O O2 0.792236 0.378166 0.174502
O O3 0.864523 0.551186 0.147595
O O4 0.000000 0.417829 0.162085
O O5 0.119025 0.289405 0.435739
O O6 0.138641 0.162115 0.510074
O O7 0.202895 0.136867 0.396534
O O8 0.000000 0.149211 0.421630
O O9 0.213142 0.562006 0.548395
O O10 0.126594 0.642920 0.453135
O O11 0.000000 0.577752 0.533759
O O12 0.860252 0.852925 0.250000
O O13 0.873546 0.908437 0.120980
O O14 0.843112 0.738931 0.153278
O O15 0.620211 0.500000 0.500000
#
# Coordination Sequence:
#
# PCOD9471162 Si02
#       6
#    16  16  16  16  16  16
#     4  10  23  41  61  91 128 166 212 263 319 387
#     4  10  20  36  58  82 116 155 201 256 308 372
#     4  10  19  34  58  86 117 150 196 257 312 372
#     4  11  22  37  59  90 129 169 211 265 324 388
#     4  11  21  37  58  86 121 162 210 263 322 386
#     4  11  19  38  63  90 123 169 211 258 326 388
#
# _framework density 23.520893000000001
#
# number of rings (size 3 to 8) (size 9 to 14) (size 15 to 20)
#    0.000    1.500    3.333    4.000    0.000    2.000 
#    0.000    0.000    0.000    4.000    0.000    7.000 
#    0.000    0.000    0.000    0.000    0.000    0.000 
#
# Total GULP energy -267710.200603 kJ/mol
# GULP energy per Si atom -5577.295846 kJ/mol
# Density = 2.346736 g / cm^3
# Si number density = 23.520893 Si / 1000 Ang^3
#
#
#
# Elastic Constant Matrix: (Units=GPa)
#
#
# Indices 1 2 3 4 5 6 
#
# 1 90.0726 -6.5627 0.6413 0.0000 0.0000 0.0000
# 2 -6.5627 84.7773 47.8584 0.0000 0.0000 0.0000
# 3 0.6413 47.8584 203.3267 0.0000 0.0000 0.0000
# 4 0.0000 0.0000 0.0000 43.6797 0.0000 0.0000
# 5 0.0000 0.0000 0.0000 0.0000 -2.1698 0.0000
# 6 0.0000 0.0000 0.0000 0.0000 0.0000 3.7484
#
#
#
# Elastic Compliance Matrix: (Units=1/GPa)
#
#
# Indices 1 2 3 4 5 6 
#
# 1 0.011179 0.001021 -0.000276 0.000000 0.000000 0.000000
# 2 0.001021 0.013696 -0.003227 0.000000 0.000000 0.000000
# 3 -0.000276 -0.003227 0.005679 0.000000 0.000000 0.000000
# 4 0.000000 0.000000 0.000000 0.022894 0.000000 0.000000
# 5 0.000000 0.000000 0.000000 0.000000 -0.460870 0.000000
# 6 0.000000 0.000000 0.000000 0.000000 0.000000 0.266778
#
#
# Mechanical properties :
#
#
# Convention : Reuss Voigt Hill
#
# Bulk Modulus (GPa) = 39.07758 51.33896 45.20827
# Shear Modulus (GPa) = -39.32320 31.46764 -3.92778
#
# Velocity S-wave (km/s) = -4.09325 3.66164 -1.29365
# Velocity P-wave (km/s) = 2.38528 6.30485 4.12684
#
# Compressibility (1/GPa) = 0.02559012
#
# Stress axis : x y z
#
# Youngs Moduli (GPa) = 89.45740 73.01213 176.09881
#
# Poissons Ratio (x) = -0.07454 0.04852
# Poissons Ratio (y) = -0.09133 0.56828
# Poissons Ratio (z) = 0.02465 0.23561
#
# Static dielectric constant tensor:
#      x y z
#    x 1.931790 0.000000 0.000000 
#    y 0.000000 1.967740 0.000000 
#    z 0.000000 0.000000 1.918080 
# 
# From -- ./inp_files/54171.got.cif
#   From: 2010.05.17/outbox.cif.g08.bks.cpg/sg63_28_cif.got.tgz:54171.got - 2010.06.03 15:47:04.
