data_PCOD9471051
_publ_section_title
;
Structure prediction by ZEFSAII (Michael W. Deem and Ramdas Pophale) SiO2 
 PCOD9471051
Probable space group: C M C M
;
_chemical_formula_sum "Si O2"
_cell_formula_units_Z 96
_cell_length_a 23.387944
_cell_length_b 9.150398
_cell_length_c 23.772095
_cell_angle_alpha 90.000000
_cell_angle_beta 90.000000
_cell_angle_gamma 90.000000
_cell_volume 5087.442184
_symmetry_space_group_name_H-M "C M C M"
_symmetry_group_IT_number 63
_symmetry_cell_setting 'orthorhombic'
loop_
_space_group_symop_operation_xyz
x,y,z
-x,-y,1/2+z
x,-y,-z
-x,y,1/2-z
-x,-y,-z
x,y,1/2-z
-x,y,z
x,-y,1/2+z
1/2+x,1/2+y,z
1/2-x,1/2-y,1/2+z
1/2+x,1/2-y,-z
1/2-x,1/2+y,1/2-z
1/2-x,1/2-y,-z
1/2+x,1/2+y,1/2-z
1/2-x,1/2+y,z
1/2+x,1/2-y,1/2+z
loop_
_atom_site_type_symbol
_atom_site_label
_atom_site_fract_x
_atom_site_fract_y
_atom_site_fract_z
Si Si1 0.822850 0.771154 0.536725
Si Si2 0.562200 0.437374 0.688374
Si Si3 0.659141 0.679289 0.813272
Si Si4 0.065683 0.568802 0.185311
Si Si5 0.563338 0.811973 0.404154
Si Si6 0.715963 0.594937 0.925891
O O1 0.885370 0.720044 0.554059
O O2 0.779335 0.641793 0.554235
O O3 0.821226 0.813025 0.471026
O O4 0.800451 0.923500 0.566229
O O5 0.564706 0.364487 0.750000
O O6 0.500000 0.514041 0.686009
O O7 0.614965 0.544820 0.684751
O O8 0.563605 0.323641 0.638686
O O9 0.684160 0.687780 0.750000
O O10 0.616825 0.816162 0.821453
O O11 0.703438 0.651931 0.863305
O O12 0.069905 0.512334 0.250000
O O13 0.072276 0.449361 0.136811
O O14 0.000000 0.626606 0.180510
O O15 0.500000 0.823313 0.430238
#
# Coordination Sequence:
#
# PCOD9471051 Si02
#       6
#    16  16  16  16  16  16
#     4  10  22  41  63  83 110 153 195 231 278 344
#     4   9  16  28  50  78 110 149 186 223 275 340
#     4  10  19  34  55  83 115 145 187 239 286 330
#     4   9  18  32  52  81 119 160 193 227 281 346
#     4  10  19  34  56  85 116 145 187 239 286 329
#     4  10  22  41  61  84 109 151 195 231 280 344
#
# _framework density 18.869993000000001
#
# number of rings (size 3 to 8) (size 9 to 14) (size 15 to 20)
#    0.000    2.333    1.667    1.000    2.333    4.000 
#    0.000    5.833    0.000    2.000    0.000    0.000 
#    0.000    0.000    0.000    0.000    0.000    0.000 
#
# Total GULP energy -267408.416270 kJ/mol
# GULP energy per Si atom -5571.008672 kJ/mol
# Density = 1.882704 g / cm^3
# Si number density = 18.869993 Si / 1000 Ang^3
#
#
#
# Elastic Constant Matrix: (Units=GPa)
#
#
# Indices 1 2 3 4 5 6 
#
# 1 39.7156 7.5915 30.1397 0.0000 0.0000 0.0000
# 2 7.5915 47.4182 12.1845 0.0000 0.0000 0.0000
# 3 30.1397 12.1845 83.1527 0.0000 0.0000 0.0000
# 4 0.0000 0.0000 0.0000 15.6277 0.0000 0.0000
# 5 0.0000 0.0000 0.0000 0.0000 29.4048 0.0000
# 6 0.0000 0.0000 0.0000 0.0000 0.0000 16.8592
#
#
#
# Elastic Compliance Matrix: (Units=1/GPa)
#
#
# Indices 1 2 3 4 5 6 
#
# 1 0.035002 -0.002435 -0.012330 0.000000 0.000000 0.000000
# 2 -0.002435 0.022084 -0.002353 0.000000 0.000000 0.000000
# 3 -0.012330 -0.002353 0.016840 0.000000 0.000000 0.000000
# 4 0.000000 0.000000 0.000000 0.063989 0.000000 0.000000
# 5 0.000000 0.000000 0.000000 0.000000 0.034008 0.000000
# 6 0.000000 0.000000 0.000000 0.000000 0.000000 0.059315
#
#
# Mechanical properties :
#
#
# Convention : Reuss Voigt Hill
#
# Bulk Modulus (GPa) = 25.19641 30.01309 27.60475
# Shear Modulus (GPa) = 17.94022 20.40305 19.17163
#
# Velocity S-wave (km/s) = 3.08673 3.29179 3.19091
# Velocity P-wave (km/s) = 5.10740 5.51249 5.31381
#
# Compressibility (1/GPa) = 0.03968819
#
# Stress axis : x y z
#
# Youngs Moduli (GPa) = 28.57012 45.28264 59.38239
#
# Poissons Ratio (x) = 0.11028 0.73218
# Poissons Ratio (y) = 0.06958 0.13974
# Poissons Ratio (z) = 0.35227 0.10656
#
# Static dielectric constant tensor:
#      x y z
#    x 1.657500 0.000000 0.000000 
#    y 0.000000 1.665000 0.000000 
#    z 0.000000 0.000000 1.643890 
# 
# From -- ./inp_files/58106.got.cif
#   From: 2010.05.17/outbox.cif.g08.bks.cpg/sg63_30_cif.got.tgz:58106.got - 2010.06.03 15:47:04.
