data_PCOD9471271
_publ_section_title
;
Structure prediction by ZEFSAII (Michael W. Deem and Ramdas Pophale) SiO2 
 PCOD9471271
Probable space group: C M C M
;
_chemical_formula_sum "Si O2"
_cell_formula_units_Z 96
_cell_length_a 7.618783
_cell_length_b 20.730371
_cell_length_c 29.389934
_cell_angle_alpha 90.000000
_cell_angle_beta 90.000000
_cell_angle_gamma 90.000000
_cell_volume 4641.852000
_symmetry_space_group_name_H-M "C M C M"
_symmetry_group_IT_number 63
_symmetry_cell_setting 'orthorhombic'
loop_
_space_group_symop_operation_xyz
x,y,z
-x,-y,1/2+z
x,-y,-z
-x,y,1/2-z
-x,-y,-z
x,y,1/2-z
-x,y,z
x,-y,1/2+z
1/2+x,1/2+y,z
1/2-x,1/2-y,1/2+z
1/2+x,1/2-y,-z
1/2-x,1/2+y,1/2-z
1/2-x,1/2-y,-z
1/2+x,1/2+y,1/2-z
1/2-x,1/2+y,z
1/2+x,1/2-y,1/2+z
loop_
_atom_site_type_symbol
_atom_site_label
_atom_site_fract_x
_atom_site_fract_y
_atom_site_fract_z
Si Si1 0.791961 0.756622 0.053311
Si Si2 0.706713 0.110705 0.603935
Si Si3 0.714555 0.686365 0.300474
Si Si4 0.714023 0.836358 0.199183
Si Si5 0.702908 0.514037 0.450694
Si Si6 0.295716 0.370311 0.891981
O O1 0.729091 0.823958 0.074737
O O2 0.711981 0.696407 0.080373
O O3 0.000000 0.753728 0.059190
O O4 0.750000 0.750000 0.000000
O O5 0.500000 0.096421 0.606683
O O6 0.773620 0.124228 0.655140
O O7 0.793337 0.050797 0.578699
O O8 0.768492 0.665588 0.250000
O O9 0.500000 0.686230 0.301548
O O10 0.765855 0.761325 0.306692
O O11 0.780575 0.643935 0.342230
O O12 0.769181 0.857288 0.250000
O O13 0.500000 0.837360 0.198639
O O14 0.784055 0.500000 0.500000
O O15 0.500000 0.533525 0.459717
O O16 0.783985 0.572602 0.422053
O O17 0.500000 0.387520 0.884392
#
# Coordination Sequence:
#
# PCOD9471271 Si02
#       6
#    16  16  16  16  16  16
#     4  12  24  37  56  82 112 141 180 232 280 329
#     4  11  21  36  59  84 111 145 189 231 272 328
#     4   8  13  25  50  81 108 137 179 227 273 327
#     4   8  14  27  51  82 111 140 178 223 271 327
#     4  10  22  38  54  75 111 155 189 227 282 334
#     4  10  19  35  57  80 108 144 188 230 275 331
#
# _framework density 20.6814
#
# number of rings (size 3 to 8) (size 9 to 14) (size 15 to 20)
#    0.000    2.167    1.667    4.000    0.000    2.333 
#    0.000    0.833    0.000    4.500    0.000    0.000 
#    0.000    0.000    0.000    0.000    0.000    0.000 
#
# Total GULP energy -267984.836124 kJ/mol
# GULP energy per Si atom -5583.017419 kJ/mol
# Density = 2.063433 g / cm^3
# Si number density = 20.681400 Si / 1000 Ang^3
#
#
#
# Elastic Constant Matrix: (Units=GPa)
#
#
# Indices 1 2 3 4 5 6 
#
# 1 50.5890 -18.8051 -11.1184 0.0000 0.0000 0.0000
# 2 -18.8051 77.1295 37.4030 0.0000 0.0000 0.0000
# 3 -11.1184 37.4030 170.0000 0.0000 0.0000 0.0000
# 4 0.0000 0.0000 0.0000 32.1462 0.0000 0.0000
# 5 0.0000 0.0000 0.0000 0.0000 -0.5343 0.0000
# 6 0.0000 0.0000 0.0000 0.0000 0.0000 14.0030
#
#
#
# Elastic Compliance Matrix: (Units=1/GPa)
#
#
# Indices 1 2 3 4 5 6 
#
# 1 0.021750 0.005164 0.000286 0.000000 0.000000 0.000000
# 2 0.005164 0.015740 -0.003125 0.000000 0.000000 0.000000
# 3 0.000286 -0.003125 0.006589 0.000000 0.000000 0.000000
# 4 0.000000 0.000000 0.000000 0.031108 0.000000 0.000000
# 5 0.000000 0.000000 0.000000 0.000000 -1.871572 0.000000
# 6 0.000000 0.000000 0.000000 0.000000 0.000000 0.071413
#
#
# Mechanical properties :
#
#
# Convention : Reuss Voigt Hill
#
# Bulk Modulus (GPa) = 20.52202 34.74193 27.63198
# Shear Modulus (GPa) = -2.91821 28.47225 12.77702
#
# Velocity S-wave (km/s) = -1.18916 3.71443 2.48826
# Velocity P-wave (km/s) = 2.83884 5.93558 4.65242
#
# Compressibility (1/GPa) = 0.04872815
#
# Stress axis : x y z
#
# Youngs Moduli (GPa) = 45.97776 63.53310 151.77501
#
# Poissons Ratio (x) = -0.32808 -0.04346
# Poissons Ratio (y) = -0.23743 0.47434
# Poissons Ratio (z) = -0.01316 0.19856
#
# Static dielectric constant tensor:
#      x y z
#    x 1.758940 0.000000 0.000000 
#    y 0.000000 1.700140 0.000000 
#    z 0.000000 0.000000 1.748760 
# 
# From -- ./inp_files/66985.got.cif
#   From: 2010.05.17/outbox.cif.g08.bks.cpg/sg63_34_cif.got.tgz:66985.got - 2010.06.03 15:47:04.
