data_PCOD9471966
_publ_section_title
;
Structure prediction by ZEFSAII (Michael W. Deem and Ramdas Pophale) SiO2 
 PCOD9471966
Probable space group: C M C M
;
_chemical_formula_sum "Si O2"
_cell_formula_units_Z 64
_cell_length_a 7.554271
_cell_length_b 41.867695
_cell_length_c 9.672424
_cell_angle_alpha 90.000000
_cell_angle_beta 90.000000
_cell_angle_gamma 90.000000
_cell_volume 3059.193433
_symmetry_space_group_name_H-M "C M C M"
_symmetry_group_IT_number 63
_symmetry_cell_setting 'orthorhombic'
loop_
_space_group_symop_operation_xyz
x,y,z
-x,-y,1/2+z
x,-y,-z
-x,y,1/2-z
-x,-y,-z
x,y,1/2-z
-x,y,z
x,-y,1/2+z
1/2+x,1/2+y,z
1/2-x,1/2-y,1/2+z
1/2+x,1/2-y,-z
1/2-x,1/2+y,1/2-z
1/2-x,1/2-y,-z
1/2+x,1/2+y,1/2-z
1/2-x,1/2+y,z
1/2+x,1/2-y,1/2+z
loop_
_atom_site_type_symbol
_atom_site_label
_atom_site_fract_x
_atom_site_fract_y
_atom_site_fract_z
Si Si1 0.213369 0.588428 0.093413
Si Si2 0.216038 0.339089 0.591808
Si Si3 0.289813 0.528551 0.905533
Si Si4 0.787474 0.719246 0.593349
O O1 0.273794 0.580459 0.250000
O O2 0.272109 0.624593 0.060580
O O3 0.000000 0.588968 0.096409
O O4 0.266853 0.561928 0.984147
O O5 0.268394 0.331511 0.750000
O O6 0.278601 0.312417 0.485170
O O7 0.000000 0.338914 0.589853
O O8 0.216773 0.528915 0.750000
O O9 0.500000 0.523014 0.893999
O O10 0.215584 0.500000 0.000000
O O11 0.719790 0.722525 0.750000
O O12 0.750000 0.750000 0.500000
O O13 0.000000 0.716366 0.601444
#
# Coordination Sequence:
#
# PCOD9471966 Si02
#       4
#    16  16  16  16
#     4   9  18  33  54  79 103 128 162 203 247 296
#     4   8  15  30  51  73  99 131 164 200 245 295
#     4  10  21  36  53  73  99 133 170 205 245 294
#     4  10  20  33  51  75 101 131 168 207 248 295
#
# _framework density 20.920546000000002
#
# number of rings (size 3 to 8) (size 9 to 14) (size 15 to 20)
#    0.000    2.750    0.000    3.000    0.000    5.000 
#    0.000    3.750    0.000    1.500    0.000    0.000 
#    0.000    0.000    0.000    0.000    0.000    0.000 
#
# Total GULP energy -178657.215313 kJ/mol
# GULP energy per Si atom -5583.037979 kJ/mol
# Density = 2.087293 g / cm^3
# Si number density = 20.920546 Si / 1000 Ang^3
#
#
#
# Elastic Constant Matrix: (Units=GPa)
#
#
# Indices 1 2 3 4 5 6 
#
# 1 49.2415 -0.1845 8.2780 0.0000 0.0000 0.0000
# 2 -0.1845 163.7954 152.7131 0.0000 0.0000 0.0000
# 3 8.2780 152.7131 226.0653 0.0000 0.0000 0.0000
# 4 0.0000 0.0000 0.0000 39.1474 0.0000 0.0000
# 5 0.0000 0.0000 0.0000 0.0000 16.5173 0.0000
# 6 0.0000 0.0000 0.0000 0.0000 0.0000 47.4986
#
#
#
# Elastic Compliance Matrix: (Units=1/GPa)
#
#
# Indices 1 2 3 4 5 6 
#
# 1 0.020666 0.001969 -0.002087 0.000000 0.000000 0.000000
# 2 0.001969 0.016680 -0.011340 0.000000 0.000000 0.000000
# 3 -0.002087 -0.011340 0.012160 0.000000 0.000000 0.000000
# 4 0.000000 0.000000 0.000000 0.025544 0.000000 0.000000
# 5 0.000000 0.000000 0.000000 0.000000 0.060542 0.000000
# 6 0.000000 0.000000 0.000000 0.000000 0.000000 0.021053
#
#
# Mechanical properties :
#
#
# Convention : Reuss Voigt Hill
#
# Bulk Modulus (GPa) = 37.60675 84.52394 61.06534
# Shear Modulus (GPa) = 26.53560 39.18571 32.86066
#
# Velocity S-wave (km/s) = 3.56532 4.33260 3.96755
# Velocity P-wave (km/s) = 5.91301 8.09436 7.08810
#
# Compressibility (1/GPa) = 0.02659097
#
# Stress axis : x y z
#
# Youngs Moduli (GPa) = 48.38808 59.95184 82.23463
#
# Poissons Ratio (x) = -0.11804 0.17160
# Poissons Ratio (y) = -0.09527 0.93253
# Poissons Ratio (z) = 0.10097 0.67985
#
# Static dielectric constant tensor:
#      x y z
#    x 1.819510 0.000000 0.000000 
#    y 0.000000 1.715330 0.000000 
#    z 0.000000 0.000000 1.735890 
# 
# From -- ./inp_files/3114.got.cif
#   From: 2010.05.17/outbox.cif.g08.bks.cpg/sg63_2_cif.got.tgz:3114.got - 2010.06.03 15:47:04.
