data_PCOD9471548
_publ_section_title
;
Structure prediction by ZEFSAII (Michael W. Deem and Ramdas Pophale) SiO2 
 PCOD9471548
Probable space group: C M C M
;
_chemical_formula_sum "Si O2"
_cell_formula_units_Z 96
_cell_length_a 15.152170
_cell_length_b 23.133688
_cell_length_c 14.483559
_cell_angle_alpha 90.000000
_cell_angle_beta 90.000000
_cell_angle_gamma 90.000000
_cell_volume 5076.857822
_symmetry_space_group_name_H-M "C M C M"
_symmetry_group_IT_number 63
_symmetry_cell_setting 'orthorhombic'
loop_
_space_group_symop_operation_xyz
x,y,z
-x,-y,1/2+z
x,-y,-z
-x,y,1/2-z
-x,-y,-z
x,y,1/2-z
-x,y,z
x,-y,1/2+z
1/2+x,1/2+y,z
1/2-x,1/2-y,1/2+z
1/2+x,1/2-y,-z
1/2-x,1/2+y,1/2-z
1/2-x,1/2-y,-z
1/2+x,1/2+y,1/2-z
1/2-x,1/2+y,z
1/2+x,1/2-y,1/2+z
loop_
_atom_site_type_symbol
_atom_site_label
_atom_site_fract_x
_atom_site_fract_y
_atom_site_fract_z
Si Si1 0.400708 0.872192 0.639262
Si Si2 0.855374 1.000000 0.641088
Si Si3 0.643962 0.000000 0.359079
Si Si4 0.233173 0.682168 0.500000
Si Si5 0.599292 0.872192 0.360738
Si Si6 0.598539 0.599119 0.500000
O O1 0.387676 0.870787 0.750000
O O2 0.500000 0.851650 0.619391
O O3 0.325950 0.836643 0.587492
O O4 0.392589 0.939052 0.607245
O O5 0.875024 1.000000 0.750000
O O6 0.749339 1.000000 0.628510
O O7 0.890543 0.056369 0.587971
O O8 0.890543 0.943631 0.587971
O O9 0.624292 0.000000 0.250000
O O10 0.607412 0.939052 0.392755
O O11 0.250000 0.750000 0.500000
O O12 0.174050 0.663357 0.587492
O O13 0.323815 0.645838 0.500000
O O14 0.612324 0.870787 0.250000
O O15 0.500000 0.851650 0.380609
O O16 0.500000 0.624067 0.500000
#
# Coordination Sequence:
#
# PCOD9471548 Si02
#       6
#    16  16  16  16  16  16
#     4  10  21  39  64  94 123 150 186 237 300 365
#     4  10  19  37  63  89 120 153 189 238 302 360
#     4   9  16  31  61  94 122 149 177 224 299 369
#     4  12  26  42  60  81 117 163 209 249 286 331
#     4  10  21  39  64  94 123 150 186 237 300 365
#     4  11  24  39  58  87 119 155 200 245 293 347
#
# _framework density 18.909334999999999
#
# number of rings (size 3 to 8) (size 9 to 14) (size 15 to 20)
#    0.000    1.667    3.333    2.000    0.000    6.000 
#    0.000    1.667    0.000    0.000    0.000    0.000 
#    0.000    0.000    0.000    0.000    0.000    0.000 
#
# Total GULP energy -268150.087493 kJ/mol
# GULP energy per Si atom -5586.460156 kJ/mol
# Density = 1.886630 g / cm^3
# Si number density = 18.909335 Si / 1000 Ang^3
#
#
#
# Elastic Constant Matrix: (Units=GPa)
#
#
# Indices 1 2 3 4 5 6 
#
# 1 162.2202 86.0242 67.5405 0.0000 0.0000 0.0000
# 2 86.0242 135.0664 35.9447 0.0000 0.0000 0.0000
# 3 67.5405 35.9447 114.6118 0.0000 0.0000 0.0000
# 4 0.0000 0.0000 0.0000 18.8139 0.0000 0.0000
# 5 0.0000 0.0000 0.0000 0.0000 18.5372 0.0000
# 6 0.0000 0.0000 0.0000 0.0000 0.0000 -1.2076
#
#
#
# Elastic Compliance Matrix: (Units=1/GPa)
#
#
# Indices 1 2 3 4 5 6 
#
# 1 0.011305 -0.005922 -0.004805 0.000000 0.000000 0.000000
# 2 -0.005922 0.011180 -0.000017 0.000000 0.000000 0.000000
# 3 -0.004805 -0.000017 0.011562 0.000000 0.000000 0.000000
# 4 0.000000 0.000000 0.000000 0.053152 0.000000 0.000000
# 5 0.000000 0.000000 0.000000 0.000000 0.053946 0.000000
# 6 0.000000 0.000000 0.000000 0.000000 0.000000 -0.828084
#
#
# Mechanical properties :
#
#
# Convention : Reuss Voigt Hill
#
# Bulk Modulus (GPa) = 79.61541 87.87969 83.74755
# Shear Modulus (GPa) = -7.56125 22.05463 7.24669
#
# Velocity S-wave (km/s) = -2.00184 3.41887 1.95976
# Velocity P-wave (km/s) = 6.07059 7.88416 7.03605
#
# Compressibility (1/GPa) = 0.01256038
#
# Stress axis : x y z
#
# Youngs Moduli (GPa) = 88.45497 89.44817 86.49112
#
# Poissons Ratio (x) = 0.52967 0.41559
# Poissons Ratio (y) = 0.52379 0.00144
# Poissons Ratio (z) = 0.42503 0.00149
#
# Static dielectric constant tensor:
#      x y z
#    x 1.666860 0.000000 0.000000 
#    y 0.000000 1.614530 0.000000 
#    z 0.000000 0.000000 1.687660 
# 
# From -- ./inp_files/31919.got.cif
#   From: 2010.05.17/outbox.cif.g08.bks.cpg/sg63_16_cif.got.tgz:31919.got - 2010.06.03 15:47:04.
