data_PCOD9471936
_publ_section_title
;
Structure prediction by ZEFSAII (Michael W. Deem and Ramdas Pophale) SiO2 
 PCOD9471936
Probable space group: C M C M
;
_chemical_formula_sum "Si O2"
_cell_formula_units_Z 80
_cell_length_a 27.468550
_cell_length_b 18.313826
_cell_length_c 9.102383
_cell_angle_alpha 90.000000
_cell_angle_beta 90.000000
_cell_angle_gamma 90.000000
_cell_volume 4578.992409
_symmetry_space_group_name_H-M "C M C M"
_symmetry_group_IT_number 63
_symmetry_cell_setting 'orthorhombic'
loop_
_space_group_symop_operation_xyz
x,y,z
-x,-y,1/2+z
x,-y,-z
-x,y,1/2-z
-x,-y,-z
x,y,1/2-z
-x,y,z
x,-y,1/2+z
1/2+x,1/2+y,z
1/2-x,1/2-y,1/2+z
1/2+x,1/2-y,-z
1/2-x,1/2+y,1/2-z
1/2-x,1/2-y,-z
1/2+x,1/2+y,1/2-z
1/2-x,1/2+y,z
1/2+x,1/2-y,1/2+z
loop_
_atom_site_type_symbol
_atom_site_label
_atom_site_fract_x
_atom_site_fract_y
_atom_site_fract_z
Si Si1 0.691504 0.373053 0.077850
Si Si2 0.851404 0.283410 0.926203
Si Si3 0.418552 0.575042 0.923093
Si Si4 0.711743 0.075023 0.074842
Si Si5 0.945503 0.225385 0.424625
O O1 0.705438 0.376349 0.250000
O O2 0.680509 0.288653 0.037944
O O3 0.639963 0.414128 0.061869
O O4 0.734134 0.406287 0.981425
O O5 0.859274 0.280930 0.750000
O O6 0.822794 0.356768 0.964145
O O7 0.902760 0.273862 0.006514
O O8 0.430032 0.574636 0.750000
O O9 0.433315 0.500000 0.000000
O O10 0.440978 0.645795 0.000798
O O11 0.712043 0.067163 0.250000
O O12 0.695682 0.000000 0.000000
O O13 0.938311 0.218066 0.250000
O O14 0.000000 0.253925 0.451362
#
# Coordination Sequence:
#
# PCOD9471936 Si02
#       5
#    16  16  16  16  16
#     4   9  18  33  52  75 103 137 175 209 245 292
#     4   9  20  37  55  76 102 134 172 211 252 301
#     4  10  20  33  50  74 106 142 177 212 250 295
#     4  11  22  34  51  77 107 138 171 207 251 301
#     4  10  21  36  55  78 100 127 167 213 262 312
#
# _framework density 17.471093
#
# number of rings (size 3 to 8) (size 9 to 14) (size 15 to 20)
#    0.000    2.200    0.000    4.200    0.000    9.200 
#    0.000    0.000    0.000    0.600    0.000    0.000 
#    0.000    0.000    0.000    0.000    0.000    0.000 
#
# Total GULP energy -223390.254134 kJ/mol
# GULP energy per Si atom -5584.756353 kJ/mol
# Density = 1.743133 g / cm^3
# Si number density = 17.471093 Si / 1000 Ang^3
#
#
#
# Elastic Constant Matrix: (Units=GPa)
#
#
# Indices 1 2 3 4 5 6 
#
# 1 59.1126 16.6937 29.6255 0.0000 0.0000 0.0000
# 2 16.6937 71.1195 27.4461 0.0000 0.0000 0.0000
# 3 29.6255 27.4461 46.6023 0.0000 0.0000 0.0000
# 4 0.0000 0.0000 0.0000 29.4499 0.0000 0.0000
# 5 0.0000 0.0000 0.0000 0.0000 26.0901 0.0000
# 6 0.0000 0.0000 0.0000 0.0000 0.0000 0.1572
#
#
#
# Elastic Compliance Matrix: (Units=1/GPa)
#
#
# Indices 1 2 3 4 5 6 
#
# 1 0.024833 0.000341 -0.015987 0.000000 0.000000 0.000000
# 2 0.000341 0.018201 -0.010936 0.000000 0.000000 0.000000
# 3 -0.015987 -0.010936 0.038062 0.000000 0.000000 0.000000
# 4 0.000000 0.000000 0.000000 0.033956 0.000000 0.000000
# 5 0.000000 0.000000 0.000000 0.000000 0.038329 0.000000
# 6 0.000000 0.000000 0.000000 0.000000 0.000000 6.362567
#
#
# Mechanical properties :
#
#
# Convention : Reuss Voigt Hill
#
# Bulk Modulus (GPa) = 35.80227 36.04054 35.92141
# Shear Modulus (GPa) = 0.76006 18.01072 9.38539
#
# Velocity S-wave (km/s) = 0.66029 3.21423 2.32026
# Velocity P-wave (km/s) = 4.59544 5.86928 5.27098
#
# Compressibility (1/GPa) = 0.02793119
#
# Stress axis : x y z
#
# Youngs Moduli (GPa) = 40.26908 54.94122 26.27284
#
# Poissons Ratio (x) = -0.01872 0.42003
# Poissons Ratio (y) = -0.01372 0.28732
# Poissons Ratio (z) = 0.64379 0.60084
#
# Static dielectric constant tensor:
#      x y z
#    x 1.587690 0.000000 0.000000 
#    y 0.000000 1.581730 0.000000 
#    z 0.000000 0.000000 1.579790 
# 
# From -- ./inp_files/12000.got.cif
#   From: 2010.05.17/outbox.cif.g08.bks.cpg/sg63_6_cif.got.tgz:12000.got - 2010.06.03 15:47:04.
