data_PCOD9471053
_publ_section_title
;
Structure prediction by ZEFSAII (Michael W. Deem and Ramdas Pophale) SiO2 
 PCOD9471053
Probable space group: C M C M
;
_chemical_formula_sum "Si O2"
_cell_formula_units_Z 120
_cell_length_a 22.012284
_cell_length_b 20.283954
_cell_length_c 14.282281
_cell_angle_alpha 90.000000
_cell_angle_beta 90.000000
_cell_angle_gamma 90.000000
_cell_volume 6376.983567
_symmetry_space_group_name_H-M "C M C M"
_symmetry_group_IT_number 63
_symmetry_cell_setting 'orthorhombic'
loop_
_space_group_symop_operation_xyz
x,y,z
-x,-y,1/2+z
x,-y,-z
-x,y,1/2-z
-x,-y,-z
x,y,1/2-z
-x,y,z
x,-y,1/2+z
1/2+x,1/2+y,z
1/2-x,1/2-y,1/2+z
1/2+x,1/2-y,-z
1/2-x,1/2+y,1/2-z
1/2-x,1/2-y,-z
1/2+x,1/2+y,1/2-z
1/2-x,1/2+y,z
1/2+x,1/2-y,1/2+z
loop_
_atom_site_type_symbol
_atom_site_label
_atom_site_fract_x
_atom_site_fract_y
_atom_site_fract_z
Si Si1 0.669751 0.033212 0.361884
Si Si2 0.286174 0.178269 0.413336
Si Si3 0.749247 0.777252 0.250000
Si Si4 0.335513 0.394778 0.536641
Si Si5 0.571653 0.316567 0.644257
Si Si6 0.569439 0.937230 0.136025
Si Si7 0.349468 0.810813 0.102252
Si Si8 0.204057 0.027222 0.862102
O O1 0.671787 0.032533 0.250000
O O2 0.683315 0.107659 0.389983
O O3 0.605838 0.003074 0.391534
O O4 0.725178 0.984327 0.389546
O O5 0.281218 0.230861 0.331263
O O6 0.217475 0.156688 0.438565
O O7 0.323775 0.204766 0.500331
O O8 0.708773 0.816018 0.330727
O O9 0.399152 0.363253 0.565936
O O10 0.325502 0.418369 0.429971
O O11 0.325387 0.458025 0.604559
O O12 0.582324 0.343473 0.750000
O O13 0.500000 0.306752 0.632295
O O14 0.608133 0.248210 0.638857
O O15 0.568861 0.934004 0.250000
O O16 0.500000 0.934942 0.103799
O O17 0.609787 0.876039 0.102595
O O18 0.198440 0.038514 0.750000
#
# Coordination Sequence:
#
# PCOD9471053 Si02
#       8
#    16  16   8  16  16  16  16  16
#     4   9  18  36  58  82 115 153 194 235 282 346
#     4  11  22  37  59  86 114 149 189 239 295 347
#     4  12  22  38  57  86 117 150 186 242 296 346
#     4  10  19  34  55  85 113 145 189 232 281 350
#     4  11  22  38  59  80 107 149 192 235 286 344
#     4  10  20  36  58  86 120 160 199 243 293 346
#     4  12  22  37  58  88 119 147 190 242 298 347
#     4   9  18  32  55  84 119 150 181 235 296 342
#
# _framework density 18.817675000000001
#
# number of rings (size 3 to 8) (size 9 to 14) (size 15 to 20)
#    0.000    1.600    3.333    2.000    0.933    2.667 
#    1.200    3.333    0.000    1.200    0.000    0.000 
#    0.000    0.000    0.000    0.000    0.000    0.000 
#
# Total GULP energy -334006.923147 kJ/mol
# GULP energy per Si atom -5566.782052 kJ/mol
# Density = 1.877484 g / cm^3
# Si number density = 18.817675 Si / 1000 Ang^3
#
#
#
# Elastic Constant Matrix: (Units=GPa)
#
#
# Indices 1 2 3 4 5 6 
#
# 1 71.6559 34.6917 36.3776 0.0000 0.0000 0.0000
# 2 34.6917 48.2414 6.5587 0.0000 0.0000 0.0000
# 3 36.3776 6.5587 106.0068 0.0000 0.0000 0.0000
# 4 0.0000 0.0000 0.0000 20.2766 0.0000 0.0000
# 5 0.0000 0.0000 0.0000 0.0000 17.4169 0.0000
# 6 0.0000 0.0000 0.0000 0.0000 0.0000 19.0527
#
#
#
# Elastic Compliance Matrix: (Units=1/GPa)
#
#
# Indices 1 2 3 4 5 6 
#
# 1 0.026902 -0.018244 -0.008103 0.000000 0.000000 0.000000
# 2 -0.018244 0.033278 0.004202 0.000000 0.000000 0.000000
# 3 -0.008103 0.004202 0.011954 0.000000 0.000000 0.000000
# 4 0.000000 0.000000 0.000000 0.049318 0.000000 0.000000
# 5 0.000000 0.000000 0.000000 0.000000 0.057415 0.000000
# 6 0.000000 0.000000 0.000000 0.000000 0.000000 0.052486
#
#
# Mechanical properties :
#
#
# Convention : Reuss Voigt Hill
#
# Bulk Modulus (GPa) = 35.91571 42.35111 39.13341
# Shear Modulus (GPa) = 17.54844 21.23432 19.39138
#
# Velocity S-wave (km/s) = 3.05708 3.36285 3.21360
# Velocity P-wave (km/s) = 5.62037 6.13459 5.88310
#
# Compressibility (1/GPa) = 0.02784297
#
# Stress axis : x y z
#
# Youngs Moduli (GPa) = 37.17170 30.04996 83.65369
#
# Poissons Ratio (x) = 0.54825 0.67785
# Poissons Ratio (y) = 0.67818 -0.35150
# Poissons Ratio (z) = 0.30120 -0.12627
#
# Static dielectric constant tensor:
#      x y z
#    x 1.635230 0.000000 0.000000 
#    y 0.000000 1.688520 0.000000 
#    z 0.000000 0.000000 1.669910 
# 
# From -- ./inp_files/35861.got.cif
#   From: 2010.05.17/outbox.cif.g08.bks.cpg/sg63_18_cif.got.tgz:35861.got - 2010.06.03 15:47:04.
