data_PCOD9471308
_publ_section_title
;
Structure prediction by ZEFSAII (Michael W. Deem and Ramdas Pophale) SiO2 
 PCOD9471308
Probable space group: C M C M
;
_chemical_formula_sum "Si O2"
_cell_formula_units_Z 80
_cell_length_a 20.775287
_cell_length_b 11.307724
_cell_length_c 13.274191
_cell_angle_alpha 90.000000
_cell_angle_beta 90.000000
_cell_angle_gamma 90.000000
_cell_volume 3118.389030
_symmetry_space_group_name_H-M "C M C M"
_symmetry_group_IT_number 63
_symmetry_cell_setting 'orthorhombic'
loop_
_space_group_symop_operation_xyz
x,y,z
-x,-y,1/2+z
x,-y,-z
-x,y,1/2-z
-x,-y,-z
x,y,1/2-z
-x,y,z
x,-y,1/2+z
1/2+x,1/2+y,z
1/2-x,1/2-y,1/2+z
1/2+x,1/2-y,-z
1/2-x,1/2+y,1/2-z
1/2-x,1/2-y,-z
1/2+x,1/2+y,1/2-z
1/2-x,1/2+y,z
1/2+x,1/2-y,1/2+z
loop_
_atom_site_type_symbol
_atom_site_label
_atom_site_fract_x
_atom_site_fract_y
_atom_site_fract_z
Si Si1 0.260870 0.822863 0.865474
Si Si2 0.927457 0.365915 0.030757
Si Si3 0.203197 0.583425 0.870605
Si Si4 0.572992 0.349633 0.423783
Si Si5 0.884382 0.082503 0.356885
O O1 0.284628 0.809209 0.750000
O O2 0.253196 0.687232 0.907606
O O3 0.292365 0.945623 0.906739
O O4 0.186883 0.867458 0.861348
O O5 0.867832 0.364389 0.106648
O O6 0.000000 0.330506 0.064579
O O7 0.932721 0.500000 0.000000
O O8 0.910647 0.287609 0.931428
O O9 0.212369 0.577634 0.750000
O O10 0.500000 0.366072 0.388499
O O11 0.578502 0.380564 0.542907
O O12 0.616916 0.440195 0.365059
O O13 0.914086 0.116281 0.250000
#
# Coordination Sequence:
#
# PCOD9471308 Si02
#       5
#    16  16  16  16  16
#     4   9  19  35  58  87 122 156 196 253 308 367
#     4  10  22  41  60  83 121 162 203 254 307 364
#     4  10  20  39  63  90 120 160 208 255 313 370
#     4  10  21  36  57  87 122 158 204 261 306 361
#     4  10  19  35  58  85 119 158 199 251 315 371
#
# _framework density 25.65427
#
# number of rings (size 3 to 8) (size 9 to 14) (size 15 to 20)
#    0.000    2.200    2.000    1.200    0.000    3.600 
#    3.600    7.000    0.000    3.600    0.000    0.000 
#    0.000    0.000    0.000    0.000    0.000    0.000 
#
# Total GULP energy -223228.640655 kJ/mol
# GULP energy per Si atom -5580.716016 kJ/mol
# Density = 2.559588 g / cm^3
# Si number density = 25.654270 Si / 1000 Ang^3
#
#
#
# Elastic Constant Matrix: (Units=GPa)
#
#
# Indices 1 2 3 4 5 6 
#
# 1 71.5087 51.9675 14.1671 0.0000 0.0000 0.0000
# 2 51.9675 160.3517 11.9928 0.0000 0.0000 0.0000
# 3 14.1671 11.9928 63.1551 0.0000 0.0000 0.0000
# 4 0.0000 0.0000 0.0000 23.7140 0.0000 0.0000
# 5 0.0000 0.0000 0.0000 0.0000 -171.4591 0.0000
# 6 0.0000 0.0000 0.0000 0.0000 0.0000 51.2525
#
#
#
# Elastic Compliance Matrix: (Units=1/GPa)
#
#
# Indices 1 2 3 4 5 6 
#
# 1 0.018879 -0.005885 -0.003117 0.000000 0.000000 0.000000
# 2 -0.005885 0.008161 -0.000230 0.000000 0.000000 0.000000
# 3 -0.003117 -0.000230 0.016577 0.000000 0.000000 0.000000
# 4 0.000000 0.000000 0.000000 0.042169 0.000000 0.000000
# 5 0.000000 0.000000 0.000000 0.000000 -0.005832 0.000000
# 6 0.000000 0.000000 0.000000 0.000000 0.000000 0.019511
#
#
# Mechanical properties :
#
#
# Convention : Reuss Voigt Hill
#
# Bulk Modulus (GPa) = 39.75769 50.14116 44.94942
# Shear Modulus (GPa) = 39.58423 -4.83930 17.37246
#
# Velocity S-wave (km/s) = 3.93235 -1.37494 2.60508
# Velocity P-wave (km/s) = 6.01240 4.13120 5.15828
#
# Compressibility (1/GPa) = 0.02515237
#
# Stress axis : x y z
#
# Youngs Moduli (GPa) = 52.96928 122.53767 60.32491
#
# Poissons Ratio (x) = 0.72116 0.18806
# Poissons Ratio (y) = 0.31173 0.01384
# Poissons Ratio (z) = 0.16513 0.02812
#
# Static dielectric constant tensor:
#      x y z
#    x 2.014670 0.000000 0.000000 
#    y 0.000000 2.210520 0.000000 
#    z 0.000000 0.000000 2.071950 
# 
# From -- ./inp_files/36486.got.cif
#   From: 2010.05.17/outbox.cif.g08.bks.cpg/sg63_19_cif.got.tgz:36486.got - 2010.06.03 15:47:04.
