data_PCOD9471848
_publ_section_title
;
Structure prediction by ZEFSAII (Michael W. Deem and Ramdas Pophale) SiO2 
 PCOD9471848
Probable space group: C M C M
;
_chemical_formula_sum "Si O2"
_cell_formula_units_Z 80
_cell_length_a 18.795021
_cell_length_b 28.439642
_cell_length_c 7.880237
_cell_angle_alpha 90.000000
_cell_angle_beta 90.000000
_cell_angle_gamma 90.000000
_cell_volume 4212.173191
_symmetry_space_group_name_H-M "C M C M"
_symmetry_group_IT_number 63
_symmetry_cell_setting 'orthorhombic'
loop_
_space_group_symop_operation_xyz
x,y,z
-x,-y,1/2+z
x,-y,-z
-x,y,1/2-z
-x,-y,-z
x,y,1/2-z
-x,y,z
x,-y,1/2+z
1/2+x,1/2+y,z
1/2-x,1/2-y,1/2+z
1/2+x,1/2-y,-z
1/2-x,1/2+y,1/2-z
1/2-x,1/2-y,-z
1/2+x,1/2+y,1/2-z
1/2-x,1/2+y,z
1/2+x,1/2-y,1/2+z
loop_
_atom_site_type_symbol
_atom_site_label
_atom_site_fract_x
_atom_site_fract_y
_atom_site_fract_z
Si Si1 0.362337 0.188666 0.045549
Si Si2 0.228468 0.448581 0.450392
Si Si3 0.080599 0.210299 0.541957
Si Si4 0.787893 0.850658 0.454424
Si Si5 0.921880 0.411316 0.954602
O O1 0.366403 0.188746 0.250000
O O2 0.395372 0.237574 0.986131
O O3 0.403840 0.141907 0.986260
O O4 0.280226 0.181628 0.996186
O O5 0.254621 0.500000 0.500000
O O6 0.233736 0.445246 0.250000
O O7 0.269348 0.402845 0.522263
O O8 0.145364 0.442547 0.495901
O O9 0.081330 0.210467 0.750000
O O10 0.139516 0.172924 0.483936
O O11 0.000000 0.200348 0.488696
O O12 0.792551 0.853182 0.250000
O O13 0.923671 0.410512 0.750000
O O14 0.000000 0.426041 0.016076
#
# Coordination Sequence:
#
# PCOD9471848 Si02
#       5
#    16  16  16  16  16
#     4   9  16  27  46  70  95 125 155 178 207 254
#     4  10  20  33  48  65  85 113 151 191 231 272
#     4   9  16  27  46  71  96 121 150 183 217 258
#     4   9  18  31  47  68  92 118 150 187 224 263
#     4   9  17  29  45  67  95 123 150 180 214 256
#
# _framework density 18.992571000000002
#
# number of rings (size 3 to 8) (size 9 to 14) (size 15 to 20)
#    0.000    2.800    0.000    1.800    0.000    4.000 
#    0.000    0.000    0.000    4.200    0.000    0.000 
#    0.000    0.000    0.000    0.000    0.000    0.600 
#
# Total GULP energy -223101.914876 kJ/mol
# GULP energy per Si atom -5577.547872 kJ/mol
# Density = 1.894934 g / cm^3
# Si number density = 18.992571 Si / 1000 Ang^3
#
#
#
# Elastic Constant Matrix: (Units=GPa)
#
#
# Indices 1 2 3 4 5 6 
#
# 1 73.0504 26.1852 -1.5573 0.0000 0.0000 0.0000
# 2 26.1852 75.3107 3.8828 0.0000 0.0000 0.0000
# 3 -1.5573 3.8828 17.2131 0.0000 0.0000 0.0000
# 4 0.0000 0.0000 0.0000 7.6779 0.0000 0.0000
# 5 0.0000 0.0000 0.0000 0.0000 14.4236 0.0000
# 6 0.0000 0.0000 0.0000 0.0000 0.0000 5.1451
#
#
#
# Elastic Compliance Matrix: (Units=1/GPa)
#
#
# Indices 1 2 3 4 5 6 
#
# 1 0.015761 -0.005619 0.002693 0.000000 0.000000 0.000000
# 2 -0.005619 0.015438 -0.003991 0.000000 0.000000 0.000000
# 3 0.002693 -0.003991 0.059239 0.000000 0.000000 0.000000
# 4 0.000000 0.000000 0.000000 0.130244 0.000000 0.000000
# 5 0.000000 0.000000 0.000000 0.000000 0.069331 0.000000
# 6 0.000000 0.000000 0.000000 0.000000 0.000000 0.194361
#
#
# Mechanical properties :
#
#
# Convention : Reuss Voigt Hill
#
# Bulk Modulus (GPa) = 13.05394 24.73284 18.89339
# Shear Modulus (GPa) = 9.54672 14.58688 12.06680
#
# Velocity S-wave (km/s) = 2.24443 2.77434 2.52334
# Velocity P-wave (km/s) = 3.68846 4.82838 4.29639
#
# Compressibility (1/GPa) = 0.07660524
#
# Stress axis : x y z
#
# Youngs Moduli (GPa) = 63.44907 64.77645 16.88075
#
# Poissons Ratio (x) = 0.36396 -0.04547
# Poissons Ratio (y) = 0.35651 0.06737
# Poissons Ratio (z) = -0.17089 0.25850
#
# Static dielectric constant tensor:
#      x y z
#    x 1.650140 0.000000 0.000000 
#    y 0.000000 1.691080 0.000000 
#    z 0.000000 0.000000 1.685780 
# 
# From -- ./inp_files/6345.got.cif
#   From: 2010.05.17/outbox.cif.g08.bks.cpg/sg63_4_cif.got.tgz:6345.got - 2010.06.03 15:47:04.
