data_PCOD9471443
_publ_section_title
;
Structure prediction by ZEFSAII (Michael W. Deem and Ramdas Pophale) SiO2 
 PCOD9471443
Probable space group: C M C M
;
_chemical_formula_sum "Si O2"
_cell_formula_units_Z 96
_cell_length_a 8.595203
_cell_length_b 25.681045
_cell_length_c 24.317355
_cell_angle_alpha 90.000000
_cell_angle_beta 90.000000
_cell_angle_gamma 90.000000
_cell_volume 5367.662054
_symmetry_space_group_name_H-M "C M C M"
_symmetry_group_IT_number 63
_symmetry_cell_setting 'orthorhombic'
loop_
_space_group_symop_operation_xyz
x,y,z
-x,-y,1/2+z
x,-y,-z
-x,y,1/2-z
-x,-y,-z
x,y,1/2-z
-x,y,z
x,-y,1/2+z
1/2+x,1/2+y,z
1/2-x,1/2-y,1/2+z
1/2+x,1/2-y,-z
1/2-x,1/2+y,1/2-z
1/2-x,1/2-y,-z
1/2+x,1/2+y,1/2-z
1/2-x,1/2+y,z
1/2+x,1/2-y,1/2+z
loop_
_atom_site_type_symbol
_atom_site_label
_atom_site_fract_x
_atom_site_fract_y
_atom_site_fract_z
Si Si1 0.186850 0.604461 0.750000
Si Si2 0.311640 0.833575 0.062608
Si Si3 0.187820 0.767274 0.632044
Si Si4 0.185048 0.929871 0.133936
Si Si5 0.687614 0.141275 0.060953
Si Si6 0.688022 0.979010 0.939429
Si Si7 0.310436 0.225895 0.750000
O O1 0.248391 0.577816 0.694897
O O2 0.236869 0.665304 0.750000
O O3 0.000000 0.603601 0.750000
O O4 0.500000 0.836187 0.064277
O O5 0.262928 0.780147 0.092014
O O6 0.248625 0.882441 0.096704
O O7 0.262055 0.838004 0.999207
O O8 0.249020 0.821007 0.607745
O O9 0.240380 0.753645 0.693846
O O10 0.000000 0.768250 0.632069
O O11 0.000000 0.927830 0.135304
O O12 0.241174 0.983122 0.105914
O O13 0.500000 0.142516 0.061931
O O14 0.735707 0.081096 0.066535
O O15 0.500000 0.981713 0.936039
O O16 0.732023 0.000000 0.000000
O O17 0.500000 0.225986 0.750000
#
# Coordination Sequence:
#
# PCOD9471443 Si02
#       7
#     8  16  16  16  16  16   8
#     4  11  21  41  66  83 114 157 200 236 281 353
#     4  10  19  36  59  83 115 158 196 230 283 357
#     4  10  20  35  57  84 115 151 195 238 292 350
#     4  12  24  36  57  93 125 146 188 249 302 338
#     4  10  21  36  57  85 116 152 197 239 285 347
#     4  10  20  39  63  82 110 157 204 239 283 352
#     4   9  18  35  60  83 106 149 198 232 273 347
#
# _framework density 17.884881
#
# number of rings (size 3 to 8) (size 9 to 14) (size 15 to 20)
#    0.000    1.667    3.333    2.250    0.000    2.333 
#    0.000    1.250    0.000    4.000    0.000    0.000 
#    0.000    0.000    0.000    0.000    0.000    0.000 
#
# Total GULP energy -268142.137681 kJ/mol
# GULP energy per Si atom -5586.294535 kJ/mol
# Density = 1.784417 g / cm^3
# Si number density = 17.884881 Si / 1000 Ang^3
#
#
#
# Elastic Constant Matrix: (Units=GPa)
#
#
# Indices 1 2 3 4 5 6 
#
# 1 18.7432 29.4039 28.9246 0.0000 0.0000 0.0000
# 2 29.4039 164.6842 96.9213 0.0000 0.0000 0.0000
# 3 28.9246 96.9213 165.0800 0.0000 0.0000 0.0000
# 4 0.0000 0.0000 0.0000 35.0433 0.0000 0.0000
# 5 0.0000 0.0000 0.0000 0.0000 21.4766 0.0000
# 6 0.0000 0.0000 0.0000 0.0000 0.0000 16.2736
#
#
#
# Elastic Compliance Matrix: (Units=1/GPa)
#
#
# Indices 1 2 3 4 5 6 
#
# 1 0.081676 -0.009413 -0.008784 0.000000 0.000000 0.000000
# 2 -0.009413 0.010363 -0.004435 0.000000 0.000000 0.000000
# 3 -0.008784 -0.004435 0.010201 0.000000 0.000000 0.000000
# 4 0.000000 0.000000 0.000000 0.028536 0.000000 0.000000
# 5 0.000000 0.000000 0.000000 0.000000 0.046562 0.000000
# 6 0.000000 0.000000 0.000000 0.000000 0.000000 0.061449
#
#
# Mechanical properties :
#
#
# Convention : Reuss Voigt Hill
#
# Bulk Modulus (GPa) = 17.55164 73.22301 45.38733
# Shear Modulus (GPa) = 16.49929 27.44255 21.97092
#
# Velocity S-wave (km/s) = 3.04061 3.92139 3.50875
# Velocity P-wave (km/s) = 4.70766 7.84431 6.46898
#
# Compressibility (1/GPa) = 0.05697472
#
# Stress axis : x y z
#
# Youngs Moduli (GPa) = 12.24352 96.49688 98.03279
#
# Poissons Ratio (x) = 0.90834 0.86115
# Poissons Ratio (y) = 0.11525 0.43477
# Poissons Ratio (z) = 0.10755 0.42796
#
# Static dielectric constant tensor:
#      x y z
#    x 1.610110 0.000000 0.000000 
#    y 0.000000 1.588390 0.000000 
#    z 0.000000 0.000000 1.594710 
# 
# From -- ./inp_files/60029.got.cif
#   From: 2010.05.17/outbox.cif.g08.bks.cpg/sg63_31_cif.got.tgz:60029.got - 2010.06.03 15:47:04.
