data_PCOD9471804
_publ_section_title
;
Structure prediction by ZEFSAII (Michael W. Deem and Ramdas Pophale) SiO2 
 PCOD9471804
Probable space group: C M C M
;
_chemical_formula_sum "Si O2"
_cell_formula_units_Z 112
_cell_length_a 14.407093
_cell_length_b 28.068186
_cell_length_c 14.472762
_cell_angle_alpha 90.000000
_cell_angle_beta 90.000000
_cell_angle_gamma 90.000000
_cell_volume 5852.509479
_symmetry_space_group_name_H-M "C M C M"
_symmetry_group_IT_number 63
_symmetry_cell_setting 'orthorhombic'
loop_
_space_group_symop_operation_xyz
x,y,z
-x,-y,1/2+z
x,-y,-z
-x,y,1/2-z
-x,-y,-z
x,y,1/2-z
-x,y,z
x,-y,1/2+z
1/2+x,1/2+y,z
1/2-x,1/2-y,1/2+z
1/2+x,1/2-y,-z
1/2-x,1/2+y,1/2-z
1/2-x,1/2-y,-z
1/2+x,1/2+y,1/2-z
1/2-x,1/2+y,z
1/2+x,1/2-y,1/2+z
loop_
_atom_site_type_symbol
_atom_site_label
_atom_site_fract_x
_atom_site_fract_y
_atom_site_fract_z
Si Si1 0.396019 0.251040 0.139184
Si Si2 0.702823 0.790635 0.141047
Si Si3 0.395558 0.472208 0.857341
Si Si4 0.607220 0.845069 0.519964
Si Si5 0.786959 0.896205 0.964082
Si Si6 0.892443 0.812000 0.640278
Si Si7 0.106825 0.087072 0.644309
O O1 0.389471 0.244199 0.250000
O O2 0.500000 0.269104 0.118099
O O3 0.310782 0.284962 0.112860
O O4 0.384698 0.200315 0.088824
O O5 0.697201 0.801609 0.250000
O O6 0.658049 0.738363 0.125890
O O7 0.644962 0.826066 0.077981
O O8 0.386022 0.457717 0.750000
O O9 0.500000 0.458663 0.888603
O O10 0.322073 0.445288 0.919644
O O11 0.389987 0.529312 0.859458
O O12 0.500000 0.858993 0.516371
O O13 0.678503 0.886144 0.548000
O O14 0.840874 0.853939 0.912116
O O15 0.820566 0.895197 0.069796
O O16 0.889383 0.821800 0.750000
O O17 0.000000 0.808425 0.612406
O O18 0.125965 0.102036 0.750000
O O19 0.000000 0.100871 0.622602
#
# Coordination Sequence:
#
# PCOD9471804 Si02
#       7
#    16  16  16  16  16  16  16
#     4   9  18  34  55  76 100 132 173 222 273 323
#     4  10  20  38  58  74  99 142 188 228 271 315
#     4   9  18  34  58  87 115 140 169 207 257 323
#     4  11  24  38  53  74 104 143 187 227 267 316
#     4  12  21  31  54  80 110 140 177 217 271 317
#     4  10  20  32  50  80 111 136 173 227 274 310
#     4   9  19  36  56  81 114 147 174 203 252 325
#
# _framework density 19.137090000000001
#
# number of rings (size 3 to 8) (size 9 to 14) (size 15 to 20)
#    0.000    2.000    1.429    3.857    0.000    4.286 
#    0.000    1.429    0.000    3.429    0.000    2.000 
#    0.000    0.000    0.000    0.000    0.000    0.000 
#
# Total GULP energy -313122.988666 kJ/mol
# GULP energy per Si atom -5591.481940 kJ/mol
# Density = 1.909353 g / cm^3
# Si number density = 19.137090 Si / 1000 Ang^3
#
#
#
# Elastic Constant Matrix: (Units=GPa)
#
#
# Indices 1 2 3 4 5 6 
#
# 1 153.8622 27.7318 37.8090 0.0000 0.0000 0.0000
# 2 27.7318 31.9483 14.9243 0.0000 0.0000 0.0000
# 3 37.8090 14.9243 55.9834 0.0000 0.0000 0.0000
# 4 0.0000 0.0000 0.0000 26.7975 0.0000 0.0000
# 5 0.0000 0.0000 0.0000 0.0000 20.4240 0.0000
# 6 0.0000 0.0000 0.0000 0.0000 0.0000 27.8958
#
#
#
# Elastic Compliance Matrix: (Units=1/GPa)
#
#
# Indices 1 2 3 4 5 6 
#
# 1 0.008533 -0.005386 -0.004327 0.000000 0.000000 0.000000
# 2 -0.005386 0.039152 -0.006800 0.000000 0.000000 0.000000
# 3 -0.004327 -0.006800 0.022598 0.000000 0.000000 0.000000
# 4 0.000000 0.000000 0.000000 0.037317 0.000000 0.000000
# 5 0.000000 0.000000 0.000000 0.000000 0.048962 0.000000
# 6 0.000000 0.000000 0.000000 0.000000 0.000000 0.035848
#
#
# Mechanical properties :
#
#
# Convention : Reuss Voigt Hill
#
# Bulk Modulus (GPa) = 26.84061 44.74713 35.79387
# Shear Modulus (GPa) = 21.02118 25.77870 23.39994
#
# Velocity S-wave (km/s) = 3.31789 3.67421 3.50058
# Velocity P-wave (km/s) = 5.36038 6.43684 5.92312
#
# Compressibility (1/GPa) = 0.03725698
#
# Stress axis : x y z
#
# Youngs Moduli (GPa) = 117.18651 25.54140 44.25215
#
# Poissons Ratio (x) = 0.13756 0.19150
# Poissons Ratio (y) = 0.63113 0.30092
# Poissons Ratio (z) = 0.50711 0.17368
#
# Static dielectric constant tensor:
#      x y z
#    x 1.662110 0.000000 0.000000 
#    y 0.000000 1.663760 0.000000 
#    z 0.000000 0.000000 1.692850 
# 
# From -- ./inp_files/32754.got.cif
#   From: 2010.05.17/outbox.cif.g08.bks.cpg/sg63_17_cif.got.tgz:32754.got - 2010.06.03 15:47:04.
