data_PCOD9471594
_publ_section_title
;
Structure prediction by ZEFSAII (Michael W. Deem and Ramdas Pophale) SiO2 
 PCOD9471594
Probable space group: C M C M
;
_chemical_formula_sum "Si O2"
_cell_formula_units_Z 64
_cell_length_a 20.024433
_cell_length_b 14.936704
_cell_length_c 10.287202
_cell_angle_alpha 90.000000
_cell_angle_beta 90.000000
_cell_angle_gamma 90.000000
_cell_volume 3076.892124
_symmetry_space_group_name_H-M "C M C M"
_symmetry_group_IT_number 63
_symmetry_cell_setting 'orthorhombic'
loop_
_space_group_symop_operation_xyz
x,y,z
-x,-y,1/2+z
x,-y,-z
-x,y,1/2-z
-x,-y,-z
x,y,1/2-z
-x,y,z
x,-y,1/2+z
1/2+x,1/2+y,z
1/2-x,1/2-y,1/2+z
1/2+x,1/2-y,-z
1/2-x,1/2+y,1/2-z
1/2-x,1/2-y,-z
1/2+x,1/2+y,1/2-z
1/2-x,1/2+y,z
1/2+x,1/2-y,1/2+z
loop_
_atom_site_type_symbol
_atom_site_label
_atom_site_fract_x
_atom_site_fract_y
_atom_site_fract_z
Si Si1 0.500000 0.714932 0.750000
Si Si2 0.500000 0.342236 0.750000
Si Si3 0.724518 0.389917 0.006802
Si Si4 0.500000 0.197977 0.969722
Si Si5 0.858925 0.119231 0.750000
Si Si6 0.631858 0.913795 0.406157
Si Si7 0.650419 0.404352 0.750000
O O1 0.500000 0.775708 0.620839
O O2 0.434412 0.652547 0.750000
O O3 0.500000 0.285503 0.618443
O O4 0.571427 0.389321 0.750000
O O5 0.678658 0.351356 0.120545
O O6 0.800621 0.367003 0.041318
O O7 0.724129 0.500000 0.000000
O O8 0.689606 0.365042 0.872790
O O9 0.434053 0.143903 0.929056
O O10 0.847413 0.012240 0.750000
O O11 0.639538 0.933659 0.250000
O O12 0.624330 0.000000 0.500000
#
# Coordination Sequence:
#
# PCOD9471594 Si02
#       7
#     4   4  16   8   8  16   8
#     4  12  27  40  61  88 130 178 206 254 309 376
#     4  12  23  44  61  90 134 176 212 252 319 362
#     4   9  19  35  64  95 124 151 205 269 312 358
#     4  12  27  44  60  90 135 168 209 261 310 377
#     4  10  19  41  60  93 124 159 213 260 304 358
#     4  11  23  43  71  95 122 160 207 263 318 376
#     4  10  21  37  68  97 122 169 213 258 306 376
#
# _framework density 20.800208999999999
#
# number of rings (size 3 to 8) (size 9 to 14) (size 15 to 20)
#    0.000    1.500    2.500    2.250    7.000    0.000 
#    0.000   12.500    0.000    0.000    0.000    0.000 
#    0.000    0.000    0.000    0.000    0.000    0.000 
#
# Total GULP energy -178649.475902 kJ/mol
# GULP energy per Si atom -5582.796122 kJ/mol
# Density = 2.075287 g / cm^3
# Si number density = 20.800209 Si / 1000 Ang^3
#
#
#
# Elastic Constant Matrix: (Units=GPa)
#
#
# Indices 1 2 3 4 5 6 
#
# 1 187.2473 11.2810 81.0656 0.0000 0.0000 0.0000
# 2 11.2810 15.5744 25.9944 0.0000 0.0000 0.0000
# 3 81.0656 25.9944 206.8569 0.0000 0.0000 0.0000
# 4 0.0000 0.0000 0.0000 5.7182 0.0000 0.0000
# 5 0.0000 0.0000 0.0000 0.0000 34.8603 0.0000
# 6 0.0000 0.0000 0.0000 0.0000 0.0000 -411.6862
#
#
#
# Elastic Compliance Matrix: (Units=1/GPa)
#
#
# Indices 1 2 3 4 5 6 
#
# 1 0.006436 -0.000572 -0.002450 0.000000 0.000000 0.000000
# 2 -0.000572 0.081300 -0.009992 0.000000 0.000000 0.000000
# 3 -0.002450 -0.009992 0.007050 0.000000 0.000000 0.000000
# 4 0.000000 0.000000 0.000000 0.174879 0.000000 0.000000
# 5 0.000000 0.000000 0.000000 0.000000 0.028686 0.000000
# 6 0.000000 0.000000 0.000000 0.000000 0.000000 -0.002429
#
#
# Mechanical properties :
#
#
# Convention : Reuss Voigt Hill
#
# Bulk Modulus (GPa) = 14.54409 71.81787 43.18098
# Shear Modulus (GPa) = 14.49823 -54.79904 -20.15041
#
# Velocity S-wave (km/s) = 2.64298 -5.13835 -3.11587
# Velocity P-wave (km/s) = 4.03996 0.77528 2.80359
#
# Compressibility (1/GPa) = 0.06875643
#
# Stress axis : x y z
#
# Youngs Moduli (GPa) = 155.38101 12.30019 141.84090
#
# Poissons Ratio (x) = 0.00704 0.34755
# Poissons Ratio (y) = 0.08889 1.41731
# Poissons Ratio (z) = 0.38072 0.12291
#
# Static dielectric constant tensor:
#      x y z
#    x 1.763760 0.000000 0.000000 
#    y 0.000000 1.761040 0.000000 
#    z 0.000000 0.000000 1.767190 
# 
# From -- ./inp_files/7587.got.cif
#   From: 2010.05.17/outbox.cif.g08.bks.cpg/sg63_4_cif.got.tgz:7587.got - 2010.06.03 15:47:04.
