data_PCOD9471056
_publ_section_title
;
Structure prediction by ZEFSAII (Michael W. Deem and Ramdas Pophale) SiO2 
 PCOD9471056
Probable space group: C M C M
;
_chemical_formula_sum "Si O2"
_cell_formula_units_Z 96
_cell_length_a 24.604838
_cell_length_b 7.459566
_cell_length_c 24.570757
_cell_angle_alpha 90.000000
_cell_angle_beta 90.000000
_cell_angle_gamma 90.000000
_cell_volume 4509.751458
_symmetry_space_group_name_H-M "C M C M"
_symmetry_group_IT_number 63
_symmetry_cell_setting 'orthorhombic'
loop_
_space_group_symop_operation_xyz
x,y,z
-x,-y,1/2+z
x,-y,-z
-x,y,1/2-z
-x,-y,-z
x,y,1/2-z
-x,y,z
x,-y,1/2+z
1/2+x,1/2+y,z
1/2-x,1/2-y,1/2+z
1/2+x,1/2-y,-z
1/2-x,1/2+y,1/2-z
1/2-x,1/2-y,-z
1/2+x,1/2+y,1/2-z
1/2-x,1/2+y,z
1/2+x,1/2-y,1/2+z
loop_
_atom_site_type_symbol
_atom_site_label
_atom_site_fract_x
_atom_site_fract_y
_atom_site_fract_z
Si Si1 0.605763 0.314361 0.023241
Si Si2 0.939636 0.249437 0.186100
Si Si3 0.639783 0.419191 0.186157
Si Si4 0.408639 0.899662 0.623616
Si Si5 0.822104 0.371726 0.431890
Si Si6 0.206388 0.977051 0.090231
O O1 0.572245 0.199163 0.067671
O O2 0.658059 0.389251 0.055740
O O3 0.579886 0.500000 0.000000
O O4 0.633813 0.187339 0.977693
O O5 0.932314 0.297776 0.250000
O O6 0.937715 0.427861 0.149290
O O7 0.000000 0.168564 0.180306
O O8 0.894386 0.100496 0.172413
O O9 0.649783 0.416550 0.250000
O O10 0.601781 0.254245 0.167609
O O11 0.695147 0.405860 0.150999
O O12 0.351323 0.986574 0.606169
O O13 0.762488 0.452292 0.441528
O O14 0.805455 0.185876 0.405270
#
# Coordination Sequence:
#
# PCOD9471056 Si02
#       6
#    16  16  16  16  16  16
#     4   9  20  34  56  86 123 169 202 247 292 345
#     4  10  22  42  68  93 116 150 200 256 311 363
#     4  10  21  39  59  87 123 158 195 251 308 363
#     4  11  21  37  62  90 123 158 198 246 306 359
#     4  11  20  34  54  87 121 162 207 244 288 352
#     4  10  19  34  55  85 124 162 208 245 292 349
#
# _framework density 21.287203999999999
#
# number of rings (size 3 to 8) (size 9 to 14) (size 15 to 20)
#    0.000    1.833    1.667    3.500    0.000    3.333 
#    0.000    5.833    0.000    2.500    0.000    0.000 
#    0.000    0.000    0.000    0.000    0.000    0.000 
#
# Total GULP energy -267415.159817 kJ/mol
# GULP energy per Si atom -5571.149163 kJ/mol
# Density = 2.123875 g / cm^3
# Si number density = 21.287204 Si / 1000 Ang^3
#
#
#
# Elastic Constant Matrix: (Units=GPa)
#
#
# Indices 1 2 3 4 5 6 
#
# 1 43.3004 12.9791 26.0921 0.0000 0.0000 0.0000
# 2 12.9791 123.6529 36.1665 0.0000 0.0000 0.0000
# 3 26.0921 36.1665 90.3556 0.0000 0.0000 0.0000
# 4 0.0000 0.0000 0.0000 40.2044 0.0000 0.0000
# 5 0.0000 0.0000 0.0000 0.0000 19.6421 0.0000
# 6 0.0000 0.0000 0.0000 0.0000 0.0000 10.3357
#
#
#
# Elastic Compliance Matrix: (Units=1/GPa)
#
#
# Indices 1 2 3 4 5 6 
#
# 1 0.028006 -0.000650 -0.007827 0.000000 0.000000 0.000000
# 2 -0.000650 0.009175 -0.003484 0.000000 0.000000 0.000000
# 3 -0.007827 -0.003484 0.014722 0.000000 0.000000 0.000000
# 4 0.000000 0.000000 0.000000 0.024873 0.000000 0.000000
# 5 0.000000 0.000000 0.000000 0.000000 0.050911 0.000000
# 6 0.000000 0.000000 0.000000 0.000000 0.000000 0.096752
#
#
# Mechanical properties :
#
#
# Convention : Reuss Voigt Hill
#
# Bulk Modulus (GPa) = 35.74095 45.30935 40.52515
# Shear Modulus (GPa) = 19.40325 26.17452 22.78889
#
# Velocity S-wave (km/s) = 3.02238 3.51035 3.27547
# Velocity P-wave (km/s) = 5.38572 6.14501 5.77785
#
# Compressibility (1/GPa) = 0.02797911
#
# Stress axis : x y z
#
# Youngs Moduli (GPa) = 35.70690 108.99689 67.92412
#
# Poissons Ratio (x) = 0.07089 0.53164
# Poissons Ratio (y) = 0.02322 0.23668
# Poissons Ratio (z) = 0.27948 0.37980
#
# Static dielectric constant tensor:
#      x y z
#    x 1.765420 0.000000 0.000000 
#    y 0.000000 1.821460 0.000000 
#    z 0.000000 0.000000 1.827630 
# 
# From -- ./inp_files/58080.got.cif
#   From: 2010.05.17/outbox.cif.g08.bks.cpg/sg63_30_cif.got.tgz:58080.got - 2010.06.03 15:47:04.
