data_PCOD9471655
_publ_section_title
;
Structure prediction by ZEFSAII (Michael W. Deem and Ramdas Pophale) SiO2 
 PCOD9471655
Probable space group: C M C M
;
_chemical_formula_sum "Si O2"
_cell_formula_units_Z 84
_cell_length_a 18.691360
_cell_length_b 6.911720
_cell_length_c 26.470574
_cell_angle_alpha 90.000000
_cell_angle_beta 90.000000
_cell_angle_gamma 90.000000
_cell_volume 3419.718810
_symmetry_space_group_name_H-M "C M C M"
_symmetry_group_IT_number 63
_symmetry_cell_setting 'orthorhombic'
loop_
_space_group_symop_operation_xyz
x,y,z
-x,-y,1/2+z
x,-y,-z
-x,y,1/2-z
-x,-y,-z
x,y,1/2-z
-x,y,z
x,-y,1/2+z
1/2+x,1/2+y,z
1/2-x,1/2-y,1/2+z
1/2+x,1/2-y,-z
1/2-x,1/2+y,1/2-z
1/2-x,1/2-y,-z
1/2+x,1/2+y,1/2-z
1/2-x,1/2+y,z
1/2+x,1/2-y,1/2+z
loop_
_atom_site_type_symbol
_atom_site_label
_atom_site_fract_x
_atom_site_fract_y
_atom_site_fract_z
Si Si1 0.135938 0.159920 0.802800
Si Si2 0.352661 0.182956 0.912562
Si Si3 0.413691 0.210852 0.693713
Si Si4 0.500000 0.805006 0.750000
Si Si5 0.921179 0.231155 0.987264
Si Si6 0.809751 0.129584 0.908650
O O1 0.178483 0.176676 0.750000
O O2 0.181581 0.206734 0.851776
O O3 0.063543 0.280355 0.793396
O O4 0.107419 0.938534 0.806468
O O5 0.381519 0.123868 0.857541
O O6 0.272580 0.112319 0.923112
O O7 0.341997 0.415252 0.908951
O O8 0.404343 0.159884 0.960401
O O9 0.390974 0.141061 0.750000
O O10 0.500000 0.195732 0.693087
O O11 0.857709 0.252142 0.947055
O O12 0.000000 0.276954 0.967378
O O13 0.921854 0.000000 0.000000
#
# Coordination Sequence:
#
# PCOD9471655 Si02
#       6
#    16  16  16   4  16  16
#     4   8  14  24  44  70  94 114 150 196 235 258
#     4  10  20  32  47  71  97 125 149 189 231 280
#     4   9  14  26  47  71  91 118 157 200 230 260
#     4   8  12  24  44  68  98 110 152 204 236 250
#     4   9  18  31  51  74  90 113 158 204 231 258
#     4  10  20  31  49  69  98 125 151 184 235 280
#
# _framework density 24.563423
#
# number of rings (size 3 to 8) (size 9 to 14) (size 15 to 20)
#    0.571    2.286    0.952    1.143    1.333    3.048 
#    0.000    0.000    0.000    3.429    0.000    0.000 
#    0.000    0.000    0.000    0.000    0.000    0.000 
#
# Total GULP energy -234213.248704 kJ/mol
# GULP energy per Si atom -5576.505922 kJ/mol
# Density = 2.450752 g / cm^3
# Si number density = 24.563423 Si / 1000 Ang^3
#
#
#
# Elastic Constant Matrix: (Units=GPa)
#
#
# Indices 1 2 3 4 5 6 
#
# 1 117.0256 -5.0930 69.3744 0.0000 0.0000 0.0000
# 2 -5.0930 74.6635 7.6571 0.0000 0.0000 0.0000
# 3 69.3744 7.6571 153.9072 0.0000 0.0000 0.0000
# 4 0.0000 0.0000 0.0000 13.0226 0.0000 0.0000
# 5 0.0000 0.0000 0.0000 0.0000 84.3708 0.0000
# 6 0.0000 0.0000 0.0000 0.0000 0.0000 6.6064
#
#
#
# Elastic Compliance Matrix: (Units=1/GPa)
#
#
# Indices 1 2 3 4 5 6 
#
# 1 0.011796 0.001357 -0.005385 0.000000 0.000000 0.000000
# 2 0.001357 0.013618 -0.001289 0.000000 0.000000 0.000000
# 3 -0.005385 -0.001289 0.008989 0.000000 0.000000 0.000000
# 4 0.000000 0.000000 0.000000 0.076790 0.000000 0.000000
# 5 0.000000 0.000000 0.000000 0.000000 0.011852 0.000000
# 6 0.000000 0.000000 0.000000 0.000000 0.000000 0.151368
#
#
# Mechanical properties :
#
#
# Convention : Reuss Voigt Hill
#
# Bulk Modulus (GPa) = 42.07112 54.38592 48.22852
# Shear Modulus (GPa) = 17.06654 39.04381 28.05518
#
# Velocity S-wave (km/s) = 2.63876 3.99119 3.38324
# Velocity P-wave (km/s) = 5.14284 6.59004 5.91089
#
# Compressibility (1/GPa) = 0.02376928
#
# Stress axis : x y z
#
# Youngs Moduli (GPa) = 84.77188 73.43115 111.24986
#
# Poissons Ratio (x) = -0.09964 0.59906
# Poissons Ratio (y) = -0.11503 0.14342
# Poissons Ratio (z) = 0.45648 0.09466
#
# Static dielectric constant tensor:
#      x y z
#    x 1.853590 0.000000 0.000000 
#    y 0.000000 2.106450 0.000000 
#    z 0.000000 0.000000 1.941100 
# 
# From -- ./inp_files/73297.got.cif
#   From: 2010.05.17/outbox.cif.g08.bks.cpg/sg63_37_cif.got.tgz:73297.got - 2010.06.03 15:47:04.
