data_PCOD9471350
_publ_section_title
;
Structure prediction by ZEFSAII (Michael W. Deem and Ramdas Pophale) SiO2 
 PCOD9471350
Probable space group: C M C M
;
_chemical_formula_sum "Si O2"
_cell_formula_units_Z 112
_cell_length_a 14.422907
_cell_length_b 26.151236
_cell_length_c 15.391648
_cell_angle_alpha 90.000000
_cell_angle_beta 90.000000
_cell_angle_gamma 90.000000
_cell_volume 5805.373228
_symmetry_space_group_name_H-M "C M C M"
_symmetry_group_IT_number 63
_symmetry_cell_setting 'orthorhombic'
loop_
_space_group_symop_operation_xyz
x,y,z
-x,-y,1/2+z
x,-y,-z
-x,y,1/2-z
-x,-y,-z
x,y,1/2-z
-x,y,z
x,-y,1/2+z
1/2+x,1/2+y,z
1/2-x,1/2-y,1/2+z
1/2+x,1/2-y,-z
1/2-x,1/2+y,1/2-z
1/2-x,1/2-y,-z
1/2+x,1/2+y,1/2-z
1/2-x,1/2+y,z
1/2+x,1/2-y,1/2+z
loop_
_atom_site_type_symbol
_atom_site_label
_atom_site_fract_x
_atom_site_fract_y
_atom_site_fract_z
Si Si1 0.147845 0.626254 0.348237
Si Si2 0.245614 0.945517 0.148041
Si Si3 0.606342 0.886839 0.458251
Si Si4 0.734530 0.305074 0.458134
Si Si5 0.828669 0.940491 0.845300
Si Si6 0.894030 0.106605 0.514662
Si Si7 0.397341 0.244450 0.351473
O O1 0.107907 0.617669 0.250000
O O2 0.107422 0.602651 0.437436
O O3 0.250254 0.603232 0.343556
O O4 0.141164 0.687021 0.365975
O O5 0.249732 0.930624 0.250000
O O6 0.338793 0.929751 0.096515
O O7 0.162864 0.918073 0.094551
O O8 0.224231 0.005682 0.144691
O O9 0.500000 0.880238 0.431391
O O10 0.671186 0.836537 0.443799
O O11 0.750000 0.250000 0.500000
O O12 0.664132 0.342464 0.508384
O O13 0.673648 0.288761 0.375768
O O14 0.875507 0.940951 0.750000
O O15 0.888756 0.929817 0.930350
O O16 0.000000 0.117092 0.537171
O O17 0.409446 0.247571 0.250000
O O18 0.500000 0.248665 0.393868
#
# Coordination Sequence:
#
# PCOD9471350 Si02
#       7
#    16  16  16  16  16  16  16
#     4  10  19  35  60  90 121 152 194 251 305 355
#     4  10  23  42  62  85 122 164 203 247 296 359
#     4  11  23  39  61  88 119 157 200 252 306 357
#     4  11  21  37  57  83 120 158 195 240 295 360
#     4  10  20  39  64  88 122 161 196 239 303 369
#     4  11  23  38  62  94 124 154 199 252 300 353
#     4  10  20  35  58  87 117 150 195 249 301 354
#
# _framework density 19.292473000000001
#
# number of rings (size 3 to 8) (size 9 to 14) (size 15 to 20)
#    0.000    1.571    4.286    1.286    0.000    5.714 
#    0.000    3.571    0.000    5.143    0.000    4.000 
#    0.000    0.000    0.000    0.000    0.000    0.000 
#
# Total GULP energy -311833.021956 kJ/mol
# GULP energy per Si atom -5568.446821 kJ/mol
# Density = 1.924856 g / cm^3
# Si number density = 19.292473 Si / 1000 Ang^3
#
#
#
# Elastic Constant Matrix: (Units=GPa)
#
#
# Indices 1 2 3 4 5 6 
#
# 1 144.1453 42.2829 39.6403 0.0000 0.0000 0.0000
# 2 42.2829 63.6240 46.1252 0.0000 0.0000 0.0000
# 3 39.6403 46.1252 122.7508 0.0000 0.0000 0.0000
# 4 0.0000 0.0000 0.0000 30.0175 0.0000 0.0000
# 5 0.0000 0.0000 0.0000 0.0000 10.5856 0.0000
# 6 0.0000 0.0000 0.0000 0.0000 0.0000 -1.4881
#
#
#
# Elastic Compliance Matrix: (Units=1/GPa)
#
#
# Indices 1 2 3 4 5 6 
#
# 1 0.008685 -0.005138 -0.000874 0.000000 0.000000 0.000000
# 2 -0.005138 0.024642 -0.007600 0.000000 0.000000 0.000000
# 3 -0.000874 -0.007600 0.011285 0.000000 0.000000 0.000000
# 4 0.000000 0.000000 0.000000 0.033314 0.000000 0.000000
# 5 0.000000 0.000000 0.000000 0.000000 0.094468 0.000000
# 6 0.000000 0.000000 0.000000 0.000000 0.000000 -0.671983
#
#
# Mechanical properties :
#
#
# Convention : Reuss Voigt Hill
#
# Bulk Modulus (GPa) = 57.51464 65.17963 61.34714
# Shear Modulus (GPa) = -10.71653 21.32109 5.30228
#
# Velocity S-wave (km/s) = -2.35941 3.32799 1.65962
# Velocity P-wave (km/s) = 4.73859 6.97321 5.96154
#
# Compressibility (1/GPa) = 0.01738688
#
# Stress axis : x y z
#
# Youngs Moduli (GPa) = 115.14089 40.58104 88.61564
#
# Poissons Ratio (x) = 0.20852 0.07744
# Poissons Ratio (y) = 0.59163 0.67350
# Poissons Ratio (z) = 0.10062 0.30843
#
# Static dielectric constant tensor:
#      x y z
#    x 1.723590 0.000000 0.000000 
#    y 0.000000 1.690350 0.000000 
#    z 0.000000 0.000000 1.745180 
# 
# From -- ./inp_files/32595.got.cif
#   From: 2010.05.17/outbox.cif.g08.bks.cpg/sg63_17_cif.got.tgz:32595.got - 2010.06.03 15:47:04.
