data_PCOD9471363
_publ_section_title
;
Structure prediction by ZEFSAII (Michael W. Deem and Ramdas Pophale) SiO2 
 PCOD9471363
Probable space group: C M C M
;
_chemical_formula_sum "Si O2"
_cell_formula_units_Z 96
_cell_length_a 18.676910
_cell_length_b 12.037783
_cell_length_c 23.956893
_cell_angle_alpha 90.000000
_cell_angle_beta 90.000000
_cell_angle_gamma 90.000000
_cell_volume 5386.194467
_symmetry_space_group_name_H-M "C M C M"
_symmetry_group_IT_number 63
_symmetry_cell_setting 'orthorhombic'
loop_
_space_group_symop_operation_xyz
x,y,z
-x,-y,1/2+z
x,-y,-z
-x,y,1/2-z
-x,-y,-z
x,y,1/2-z
-x,y,z
x,-y,1/2+z
1/2+x,1/2+y,z
1/2-x,1/2-y,1/2+z
1/2+x,1/2-y,-z
1/2-x,1/2+y,1/2-z
1/2-x,1/2-y,-z
1/2+x,1/2+y,1/2-z
1/2-x,1/2+y,z
1/2+x,1/2-y,1/2+z
loop_
_atom_site_type_symbol
_atom_site_label
_atom_site_fract_x
_atom_site_fract_y
_atom_site_fract_z
Si Si1 0.417639 0.953925 0.059628
Si Si2 0.664517 0.893969 0.642748
Si Si3 0.308176 0.319722 0.431974
Si Si4 0.649273 0.728693 0.446808
Si Si5 0.585829 0.466924 0.250000
Si Si6 0.914845 0.700699 0.250000
Si Si7 0.673003 0.539507 0.358191
O O1 0.500000 0.989432 0.065564
O O2 0.411116 0.821522 0.057557
O O3 0.372141 0.005318 0.109713
O O4 0.390286 0.000000 0.000000
O O5 0.665780 0.790265 0.600061
O O6 0.620357 0.855380 0.696101
O O7 0.745873 0.926144 0.658139
O O8 0.345371 0.326756 0.492297
O O9 0.223609 0.298336 0.441000
O O10 0.321731 0.427331 0.394701
O O11 0.645639 0.637459 0.398601
O O12 0.500000 0.484557 0.250000
O O13 0.598931 0.333540 0.250000
O O14 0.623368 0.517890 0.304839
O O15 0.000000 0.684780 0.250000
#
# Coordination Sequence:
#
# PCOD9471363 Si02
#       7
#    16  16  16  16   8   8  16
#     4  11  22  37  58  88 129 165 195 242 307 367
#     4  11  21  38  63  90 118 152 208 256 293 362
#     4  10  19  35  61  91 124 150 200 251 294 354
#     4  10  21  35  60  93 124 160 193 246 304 362
#     4  11  25  44  63  83 121 164 205 258 314 368
#     4  11  23  40  61  83 115 160 203 254 304 352
#     4  11  22  39  64  92 118 160 203 256 307 351
#
# _framework density 17.823343999999999
#
# number of rings (size 3 to 8) (size 9 to 14) (size 15 to 20)
#    0.000    1.333    5.000    1.500    0.000    0.667 
#    0.000    1.667    0.000    3.000    0.000    0.000 
#    0.000    0.000    0.000    0.000    0.000    0.000 
#
# Total GULP energy -268066.380233 kJ/mol
# GULP energy per Si atom -5584.716255 kJ/mol
# Density = 1.778278 g / cm^3
# Si number density = 17.823344 Si / 1000 Ang^3
#
#
#
# Elastic Constant Matrix: (Units=GPa)
#
#
# Indices 1 2 3 4 5 6 
#
# 1 74.0063 40.8640 74.2694 0.0000 0.0000 0.0000
# 2 40.8640 96.8238 54.6824 0.0000 0.0000 0.0000
# 3 74.2694 54.6824 149.1911 0.0000 0.0000 0.0000
# 4 0.0000 0.0000 0.0000 32.0053 0.0000 0.0000
# 5 0.0000 0.0000 0.0000 0.0000 14.7835 0.0000
# 6 0.0000 0.0000 0.0000 0.0000 0.0000 25.2762
#
#
#
# Elastic Compliance Matrix: (Units=1/GPa)
#
#
# Indices 1 2 3 4 5 6 
#
# 1 0.028893 -0.005134 -0.012502 0.000000 0.000000 0.000000
# 2 -0.005134 0.013936 -0.002552 0.000000 0.000000 0.000000
# 3 -0.012502 -0.002552 0.013862 0.000000 0.000000 0.000000
# 4 0.000000 0.000000 0.000000 0.031245 0.000000 0.000000
# 5 0.000000 0.000000 0.000000 0.000000 0.067643 0.000000
# 6 0.000000 0.000000 0.000000 0.000000 0.000000 0.039563
#
#
# Mechanical properties :
#
#
# Convention : Reuss Voigt Hill
#
# Bulk Modulus (GPa) = 61.29103 73.29475 67.29289
# Shear Modulus (GPa) = 20.75063 24.42670 22.58866
#
# Velocity S-wave (km/s) = 3.41580 3.70603 3.56387
# Velocity P-wave (km/s) = 7.07245 7.71525 7.40083
#
# Compressibility (1/GPa) = 0.01631560
#
# Stress axis : x y z
#
# Youngs Moduli (GPa) = 34.60999 71.75584 72.14008
#
# Poissons Ratio (x) = 0.36837 0.90189
# Poissons Ratio (y) = 0.17768 0.18412
# Poissons Ratio (z) = 0.43269 0.18314
#
# Static dielectric constant tensor:
#      x y z
#    x 1.609860 0.000000 0.000000 
#    y 0.000000 1.590240 0.000000 
#    z 0.000000 0.000000 1.584280 
# 
# From -- ./inp_files/56602.got.cif
#   From: 2010.05.17/outbox.cif.g08.bks.cpg/sg63_29_cif.got.tgz:56602.got - 2010.06.03 15:47:04.
