data_PCOD9471593
_publ_section_title
;
Structure prediction by ZEFSAII (Michael W. Deem and Ramdas Pophale) SiO2 
 PCOD9471593
Probable space group: C M C M
;
_chemical_formula_sum "Si O2"
_cell_formula_units_Z 64
_cell_length_a 25.166997
_cell_length_b 7.869719
_cell_length_c 14.373496
_cell_angle_alpha 90.000000
_cell_angle_beta 90.000000
_cell_angle_gamma 90.000000
_cell_volume 2846.774292
_symmetry_space_group_name_H-M "C M C M"
_symmetry_group_IT_number 63
_symmetry_cell_setting 'orthorhombic'
loop_
_space_group_symop_operation_xyz
x,y,z
-x,-y,1/2+z
x,-y,-z
-x,y,1/2-z
-x,-y,-z
x,y,1/2-z
-x,y,z
x,-y,1/2+z
1/2+x,1/2+y,z
1/2-x,1/2-y,1/2+z
1/2+x,1/2-y,-z
1/2-x,1/2+y,1/2-z
1/2-x,1/2-y,-z
1/2+x,1/2+y,1/2-z
1/2-x,1/2+y,z
1/2+x,1/2-y,1/2+z
loop_
_atom_site_type_symbol
_atom_site_label
_atom_site_fract_x
_atom_site_fract_y
_atom_site_fract_z
Si Si1 0.940446 0.976932 0.359567
Si Si2 0.333430 0.127564 0.250000
Si Si3 0.607848 0.143412 0.057979
Si Si4 0.779136 0.006994 0.250000
Si Si5 0.664536 0.355179 0.575473
O O1 0.937423 0.931921 0.250000
O O2 0.926484 0.811355 0.420454
O O3 0.000000 0.037353 0.378674
O O4 0.893748 0.108402 0.380970
O O5 0.368068 0.098757 0.341990
O O6 0.309865 0.323912 0.250000
O O7 0.284057 0.999650 0.250000
O O8 0.656522 0.191205 0.987976
O O9 0.577685 0.000000 0.000000
O O10 0.795711 0.115019 0.159326
O O11 0.676727 0.500000 0.500000
#
# Coordination Sequence:
#
# PCOD9471593 Si02
#       5
#    16   8  16   8  16
#     4  10  19  40  71  93 122 165 207 256 314 371
#     4  12  26  44  60  92 125 168 210 261 319 357
#     4  11  24  41  62  92 131 165 203 255 313 377
#     4  12  24  42  64  90 125 164 212 265 303 367
#     4  10  20  40  64  89 124 161 209 254 303 366
#
# _framework density 22.481587000000001
#
# number of rings (size 3 to 8) (size 9 to 14) (size 15 to 20)
#    0.000    1.250    7.500    0.000    3.500    7.000 
#    0.000    0.000    0.000    3.000    0.000    0.000 
#    0.000    0.000    0.000    0.000    0.000    0.000 
#
# Total GULP energy -178735.738523 kJ/mol
# GULP energy per Si atom -5585.491829 kJ/mol
# Density = 2.243042 g / cm^3
# Si number density = 22.481587 Si / 1000 Ang^3
#
#
#
# Elastic Constant Matrix: (Units=GPa)
#
#
# Indices 1 2 3 4 5 6 
#
# 1 65.6622 -10.2040 6.4361 0.0000 0.0000 0.0000
# 2 -10.2040 55.6420 23.7732 0.0000 0.0000 0.0000
# 3 6.4361 23.7732 124.1374 0.0000 0.0000 0.0000
# 4 0.0000 0.0000 0.0000 27.0292 0.0000 0.0000
# 5 0.0000 0.0000 0.0000 0.0000 -2.6648 0.0000
# 6 0.0000 0.0000 0.0000 0.0000 0.0000 16.9592
#
#
#
# Elastic Compliance Matrix: (Units=1/GPa)
#
#
# Indices 1 2 3 4 5 6 
#
# 1 0.015932 0.003566 -0.001509 0.000000 0.000000 0.000000
# 2 0.003566 0.020372 -0.004086 0.000000 0.000000 0.000000
# 3 -0.001509 -0.004086 0.008916 0.000000 0.000000 0.000000
# 4 0.000000 0.000000 0.000000 0.036997 0.000000 0.000000
# 5 0.000000 0.000000 0.000000 0.000000 -0.375266 0.000000
# 6 0.000000 0.000000 0.000000 0.000000 0.000000 0.058965
#
#
# Mechanical properties :
#
#
# Convention : Reuss Voigt Hill
#
# Bulk Modulus (GPa) = 24.29420 31.71692 28.00556
# Shear Modulus (GPa) = -23.11545 23.29381 0.08918
#
# Velocity S-wave (km/s) = -3.21003 3.22239 0.19938
# Velocity P-wave (km/s) = 1.70567 5.28995 3.54079
#
# Compressibility (1/GPa) = 0.04116208
#
# Stress axis : x y z
#
# Youngs Moduli (GPa) = 62.76844 49.08712 112.15322
#
# Poissons Ratio (x) = -0.17506 0.16924
# Poissons Ratio (y) = -0.22385 0.45829
# Poissons Ratio (z) = 0.09472 0.20058
#
# Static dielectric constant tensor:
#      x y z
#    x 1.803990 0.000000 0.000000 
#    y 0.000000 1.971970 0.000000 
#    z 0.000000 0.000000 1.841970 
# 
# From -- ./inp_files/36237.got.cif
#   From: 2010.05.17/outbox.cif.g08.bks.cpg/sg63_19_cif.got.tgz:36237.got - 2010.06.03 15:47:04.
