data_PCOD9471009
_publ_section_title
;
Structure prediction by ZEFSAII (Michael W. Deem and Ramdas Pophale) SiO2 
 PCOD9471009
Probable space group: C M C M
;
_chemical_formula_sum "Si O2"
_cell_formula_units_Z 96
_cell_length_a 24.314622
_cell_length_b 26.189841
_cell_length_c 8.392735
_cell_angle_alpha 90.000000
_cell_angle_beta 90.000000
_cell_angle_gamma 90.000000
_cell_volume 5344.460783
_symmetry_space_group_name_H-M "C M C M"
_symmetry_group_IT_number 63
_symmetry_cell_setting 'orthorhombic'
loop_
_space_group_symop_operation_xyz
x,y,z
-x,-y,1/2+z
x,-y,-z
-x,y,1/2-z
-x,-y,-z
x,y,1/2-z
-x,y,z
x,-y,1/2+z
1/2+x,1/2+y,z
1/2-x,1/2-y,1/2+z
1/2+x,1/2-y,-z
1/2-x,1/2+y,1/2-z
1/2-x,1/2-y,-z
1/2+x,1/2+y,1/2-z
1/2-x,1/2+y,z
1/2+x,1/2-y,1/2+z
loop_
_atom_site_type_symbol
_atom_site_label
_atom_site_fract_x
_atom_site_fract_y
_atom_site_fract_z
Si Si1 0.749244 0.308539 0.059095
Si Si2 0.937103 0.250631 0.944465
Si Si3 0.364806 0.152168 0.057084
Si Si4 0.063096 0.443153 0.557595
Si Si5 0.368852 0.348359 0.057564
Si Si6 0.937302 0.943171 0.559515
O O1 0.748557 0.307110 0.250000
O O2 0.693170 0.336087 0.004141
O O3 0.750000 0.250000 0.000000
O O4 0.803417 0.337924 0.002108
O O5 0.937497 0.250766 0.750000
O O6 0.902116 0.299754 0.994258
O O7 0.907218 0.198801 0.995643
O O8 0.000000 0.253069 0.998296
O O9 0.363873 0.151983 0.250000
O O10 0.394419 0.100145 0.003173
O O11 0.076846 0.500000 0.500000
O O12 0.063235 0.442905 0.750000
O O13 0.000000 0.431667 0.506570
O O14 0.368927 0.348645 0.250000
O O15 0.394977 0.400909 0.999931
O O16 0.937525 0.943318 0.750000
O O17 0.000000 0.931183 0.503700
O O18 0.923952 0.000000 0.500000
#
# Coordination Sequence:
#
# PCOD9471009 Si02
#       6
#    16  16  16  16  16  16
#     4  11  22  37  56  79 108 146 186 224 269 321
#     4   9  16  28  50  78 106 136 174 220 268 322
#     4  10  19  34  54  79 108 142 185 225 269 322
#     4   9  18  33  55  81 110 144 182 225 272 325
#     4  10  20  35  55  79 107 143 185 224 267 320
#     4  10  21  37  58  84 113 144 178 220 271 325
#
# _framework density 17.962522
#
# number of rings (size 3 to 8) (size 9 to 14) (size 15 to 20)
#    0.000    2.167    1.667    2.000    0.000    5.667 
#    0.000    0.833    0.000    3.500    0.000    0.000 
#    0.000    0.000    0.000    0.000    0.000    0.000 
#
# Total GULP energy -267924.999576 kJ/mol
# GULP energy per Si atom -5581.770824 kJ/mol
# Density = 1.792164 g / cm^3
# Si number density = 17.962522 Si / 1000 Ang^3
#
#
#
# Elastic Constant Matrix: (Units=GPa)
#
#
# Indices 1 2 3 4 5 6 
#
# 1 184.7428 118.2719 26.9722 0.0000 0.0000 0.0000
# 2 118.2719 162.1434 25.0520 0.0000 0.0000 0.0000
# 3 26.9722 25.0520 15.2493 0.0000 0.0000 0.0000
# 4 0.0000 0.0000 0.0000 26.1083 0.0000 0.0000
# 5 0.0000 0.0000 0.0000 0.0000 25.2314 0.0000
# 6 0.0000 0.0000 0.0000 0.0000 0.0000 24.7447
#
#
#
# Elastic Compliance Matrix: (Units=1/GPa)
#
#
# Indices 1 2 3 4 5 6 
#
# 1 0.010891 -0.006658 -0.008326 0.000000 0.000000 0.000000
# 2 -0.006658 0.012335 -0.008489 0.000000 0.000000 0.000000
# 3 -0.008326 -0.008489 0.094249 0.000000 0.000000 0.000000
# 4 0.000000 0.000000 0.000000 0.038302 0.000000 0.000000
# 5 0.000000 0.000000 0.000000 0.000000 0.039633 0.000000
# 6 0.000000 0.000000 0.000000 0.000000 0.000000 0.040413
#
#
# Mechanical properties :
#
#
# Convention : Reuss Voigt Hill
#
# Bulk Modulus (GPa) = 14.17830 78.08086 46.12958
# Shear Modulus (GPa) = 16.32510 28.00620 22.16565
#
# Velocity S-wave (km/s) = 3.01797 3.95289 3.51664
# Velocity P-wave (km/s) = 4.47824 8.02477 6.49813
#
# Compressibility (1/GPa) = 0.07053034
#
# Stress axis : x y z
#
# Youngs Moduli (GPa) = 91.82218 81.06879 10.61020
#
# Poissons Ratio (x) = 0.53972 0.08834
# Poissons Ratio (y) = 0.61131 0.09007
# Poissons Ratio (z) = 0.76447 0.68820
#
# Static dielectric constant tensor:
#      x y z
#    x 1.608300 0.000000 0.000000 
#    y 0.000000 1.583950 0.000000 
#    z 0.000000 0.000000 1.627510 
# 
# From -- ./inp_files/8603.got.cif
#   From: 2010.05.17/outbox.cif.g08.bks.cpg/sg63_5_cif.got.tgz:8603.got - 2010.06.03 15:47:04.
