data_PCOD9471973
_publ_section_title
;
Structure prediction by ZEFSAII (Michael W. Deem and Ramdas Pophale) SiO2 
 PCOD9471973
Probable space group: C M C M
;
_chemical_formula_sum "Si O2"
_cell_formula_units_Z 96
_cell_length_a 9.468606
_cell_length_b 31.697899
_cell_length_c 14.974680
_cell_angle_alpha 90.000000
_cell_angle_beta 90.000000
_cell_angle_gamma 90.000000
_cell_volume 4494.424334
_symmetry_space_group_name_H-M "C M C M"
_symmetry_group_IT_number 63
_symmetry_cell_setting 'orthorhombic'
loop_
_space_group_symop_operation_xyz
x,y,z
-x,-y,1/2+z
x,-y,-z
-x,y,1/2-z
-x,-y,-z
x,y,1/2-z
-x,y,z
x,-y,1/2+z
1/2+x,1/2+y,z
1/2-x,1/2-y,1/2+z
1/2+x,1/2-y,-z
1/2-x,1/2+y,1/2-z
1/2-x,1/2-y,-z
1/2+x,1/2+y,1/2-z
1/2-x,1/2+y,z
1/2+x,1/2-y,1/2+z
loop_
_atom_site_type_symbol
_atom_site_label
_atom_site_fract_x
_atom_site_fract_y
_atom_site_fract_z
Si Si1 0.662634 0.497890 0.390641
Si Si2 0.341203 0.662052 0.356766
Si Si3 0.340655 0.917658 0.101604
Si Si4 0.838122 0.836117 0.357648
Si Si5 0.839908 0.421471 0.610954
Si Si6 0.162639 0.258990 0.640873
O O1 0.661048 0.500000 0.500000
O O2 0.500000 0.498668 0.361848
O O3 0.741898 0.455136 0.362739
O O4 0.749977 0.538356 0.357991
O O5 0.351770 0.666955 0.250000
O O6 0.500000 0.656422 0.392411
O O7 0.244443 0.621426 0.371824
O O8 0.265624 0.704291 0.391503
O O9 0.500000 0.918401 0.138131
O O10 0.266648 0.872635 0.113167
O O11 0.350396 0.925592 0.995857
O O12 0.838801 0.836066 0.250000
O O13 0.798271 0.788628 0.386109
O O14 0.000000 0.844560 0.386540
O O15 0.000000 0.420283 0.646021
O O16 0.164246 0.259669 0.750000
O O17 0.000000 0.267067 0.614365
#
# Coordination Sequence:
#
# PCOD9471973 Si02
#       6
#    16  16  16  16  16  16
#     4   9  17  31  52  74  97 129 166 202 244 294
#     4  10  20  33  51  76 102 128 163 206 249 294
#     4  10  20  33  51  76 103 131 165 204 245 291
#     4   9  18  33  53  76 101 131 167 205 246 293
#     4  10  20  34  52  74 101 132 166 203 244 293
#     4   8  15  30  51  72  96 129 166 201 242 294
#
# _framework density 21.359798000000001
#
# number of rings (size 3 to 8) (size 9 to 14) (size 15 to 20)
#    0.000    2.667    0.000    3.000    0.000    6.000 
#    0.000    3.333    0.000    5.000    0.000    0.000 
#    0.000    0.000    0.000    0.000    0.000    0.000 
#
# Total GULP energy -268087.321850 kJ/mol
# GULP energy per Si atom -5585.152539 kJ/mol
# Density = 2.131118 g / cm^3
# Si number density = 21.359798 Si / 1000 Ang^3
#
#
#
# Elastic Constant Matrix: (Units=GPa)
#
#
# Indices 1 2 3 4 5 6 
#
# 1 226.3482 150.8757 6.5685 0.0000 0.0000 0.0000
# 2 150.8757 194.3370 -1.6092 0.0000 0.0000 0.0000
# 3 6.5685 -1.6092 52.7005 0.0000 0.0000 0.0000
# 4 0.0000 0.0000 0.0000 24.6074 0.0000 0.0000
# 5 0.0000 0.0000 0.0000 0.0000 12.4540 0.0000
# 6 0.0000 0.0000 0.0000 0.0000 0.0000 41.6642
#
#
#
# Elastic Compliance Matrix: (Units=1/GPa)
#
#
# Indices 1 2 3 4 5 6 
#
# 1 0.009255 -0.007196 -0.001373 0.000000 0.000000 0.000000
# 2 -0.007196 0.010743 0.001225 0.000000 0.000000 0.000000
# 3 -0.001373 0.001225 0.019184 0.000000 0.000000 0.000000
# 4 0.000000 0.000000 0.000000 0.040638 0.000000 0.000000
# 5 0.000000 0.000000 0.000000 0.000000 0.080295 0.000000
# 6 0.000000 0.000000 0.000000 0.000000 0.000000 0.024001
#
#
# Mechanical properties :
#
#
# Convention : Reuss Voigt Hill
#
# Bulk Modulus (GPa) = 40.82968 87.22840 64.02904
# Shear Modulus (GPa) = 24.15818 36.91517 30.53667
#
# Velocity S-wave (km/s) = 3.36670 4.16174 3.78515
# Velocity P-wave (km/s) = 5.85402 8.00123 7.01033
#
# Compressibility (1/GPa) = 0.02449199
#
# Stress axis : x y z
#
# Youngs Moduli (GPa) = 108.05419 93.08588 52.12759
#
# Poissons Ratio (x) = 0.66987 0.07158
# Poissons Ratio (y) = 0.77759 -0.06385
# Poissons Ratio (z) = 0.14838 -0.11403
#
# Static dielectric constant tensor:
#      x y z
#    x 1.752090 0.000000 0.000000 
#    y 0.000000 1.729220 0.000000 
#    z 0.000000 0.000000 1.832790 
# 
# From -- ./inp_files/51250.got.cif
#   From: 2010.05.17/outbox.cif.g08.bks.cpg/sg63_26_cif.got.tgz:51250.got - 2010.06.03 15:47:04.
