data_PCOD9471887
_publ_section_title
;
Structure prediction by ZEFSAII (Michael W. Deem and Ramdas Pophale) SiO2 
 PCOD9471887
Probable space group: C M C M
;
_chemical_formula_sum "Si O2"
_cell_formula_units_Z 96
_cell_length_a 25.973562
_cell_length_b 24.365944
_cell_length_c 8.478206
_cell_angle_alpha 90.000000
_cell_angle_beta 90.000000
_cell_angle_gamma 90.000000
_cell_volume 5365.605259
_symmetry_space_group_name_H-M "C M C M"
_symmetry_group_IT_number 63
_symmetry_cell_setting 'orthorhombic'
loop_
_space_group_symop_operation_xyz
x,y,z
-x,-y,1/2+z
x,-y,-z
-x,y,1/2-z
-x,-y,-z
x,y,1/2-z
-x,y,z
x,-y,1/2+z
1/2+x,1/2+y,z
1/2-x,1/2-y,1/2+z
1/2+x,1/2-y,-z
1/2-x,1/2+y,1/2-z
1/2-x,1/2-y,-z
1/2+x,1/2+y,1/2-z
1/2-x,1/2+y,z
1/2+x,1/2-y,1/2+z
loop_
_atom_site_type_symbol
_atom_site_label
_atom_site_fract_x
_atom_site_fract_y
_atom_site_fract_z
Si Si1 0.749002 0.438149 0.440366
Si Si2 0.941210 0.439374 0.440689
Si Si3 0.808705 0.751972 0.939443
Si Si4 0.440528 0.560350 0.061067
Si Si5 0.152893 0.366151 0.442375
Si Si6 0.349347 0.633043 0.939074
O O1 0.750373 0.500000 0.500000
O O2 0.749145 0.438843 0.250000
O O3 0.798941 0.403746 0.492355
O O4 0.697549 0.406481 0.492261
O O5 0.926568 0.500000 0.500000
O O6 0.940721 0.440290 0.250000
O O7 0.899997 0.394451 0.494779
O O8 0.000000 0.428456 0.492218
O O9 0.807369 0.752401 0.750000
O O10 0.837133 0.696192 0.992587
O O11 0.750000 0.750000 0.000000
O O12 0.837013 0.806391 0.998806
O O13 0.438802 0.559881 0.250000
O O14 0.500000 0.569091 0.011034
O O15 0.424621 0.500000 0.000000
O O16 0.402199 0.606405 0.997778
O O17 0.152637 0.366048 0.250000
O O18 0.349181 0.634331 0.750000
#
# Coordination Sequence:
#
# PCOD9471887 Si02
#       6
#    16  16  16  16  16  16
#     4  10  20  33  49  74 106 138 172 218 273 327
#     4   9  17  31  53  78 104 137 173 211 260 314
#     4  11  21  37  57  77 106 146 188 231 281 334
#     4  10  21  38  60  86 115 149 187 228 279 336
#     4   9  18  34  52  73 106 140 176 222 268 321
#     4  11  22  37  56  80 111 146 187 231 279 333
#
# _framework density 17.891738
#
# number of rings (size 3 to 8) (size 9 to 14) (size 15 to 20)
#    0.000    2.000    1.667    2.500    0.000    3.667 
#    0.000    2.500    0.000    3.000    0.000    0.000 
#    0.000    0.000    0.000    0.000    0.000    0.000 
#
# Total GULP energy -267999.185115 kJ/mol
# GULP energy per Si atom -5583.316357 kJ/mol
# Density = 1.785102 g / cm^3
# Si number density = 17.891738 Si / 1000 Ang^3
#
#
#
# Elastic Constant Matrix: (Units=GPa)
#
#
# Indices 1 2 3 4 5 6 
#
# 1 121.4285 103.8006 24.7350 0.0000 0.0000 0.0000
# 2 103.8006 196.3441 29.7552 0.0000 0.0000 0.0000
# 3 24.7350 29.7552 26.4339 0.0000 0.0000 0.0000
# 4 0.0000 0.0000 0.0000 31.6444 0.0000 0.0000
# 5 0.0000 0.0000 0.0000 0.0000 18.9147 0.0000
# 6 0.0000 0.0000 0.0000 0.0000 0.0000 27.4351
#
#
#
# Elastic Compliance Matrix: (Units=1/GPa)
#
#
# Indices 1 2 3 4 5 6 
#
# 1 0.015910 -0.007421 -0.006534 0.000000 0.000000 0.000000
# 2 -0.007421 0.009602 -0.003864 0.000000 0.000000 0.000000
# 3 -0.006534 -0.003864 0.048294 0.000000 0.000000 0.000000
# 4 0.000000 0.000000 0.000000 0.031601 0.000000 0.000000
# 5 0.000000 0.000000 0.000000 0.000000 0.052869 0.000000
# 6 0.000000 0.000000 0.000000 0.000000 0.000000 0.036450
#
#
# Mechanical properties :
#
#
# Convention : Reuss Voigt Hill
#
# Bulk Modulus (GPa) = 26.20044 73.42094 49.81069
# Shear Modulus (GPa) = 20.56878 27.99321 24.28099
#
# Velocity S-wave (km/s) = 3.39429 3.95978 3.68789
# Velocity P-wave (km/s) = 5.48063 7.87603 6.78487
#
# Compressibility (1/GPa) = 0.03816730
#
# Stress axis : x y z
#
# Youngs Moduli (GPa) = 62.85447 104.14661 20.70637
#
# Poissons Ratio (x) = 0.77285 0.13530
# Poissons Ratio (y) = 0.46643 0.08002
# Poissons Ratio (z) = 0.41070 0.40247
#
# Static dielectric constant tensor:
#      x y z
#    x 1.610300 0.000000 0.000000 
#    y 0.000000 1.582020 0.000000 
#    z 0.000000 0.000000 1.619990 
# 
# From -- ./inp_files/10446.got.cif
#   From: 2010.05.17/outbox.cif.g08.bks.cpg/sg63_6_cif.got.tgz:10446.got - 2010.06.03 15:47:04.
