data_PCOD9471801
_publ_section_title
;
Structure prediction by ZEFSAII (Michael W. Deem and Ramdas Pophale) SiO2 
 PCOD9471801
Probable space group: C M C M
;
_chemical_formula_sum "Si O2"
_cell_formula_units_Z 96
_cell_length_a 7.554944
_cell_length_b 25.217777
_cell_length_c 23.758720
_cell_angle_alpha 90.000000
_cell_angle_beta 90.000000
_cell_angle_gamma 90.000000
_cell_volume 4526.485034
_symmetry_space_group_name_H-M "C M C M"
_symmetry_group_IT_number 63
_symmetry_cell_setting 'orthorhombic'
loop_
_space_group_symop_operation_xyz
x,y,z
-x,-y,1/2+z
x,-y,-z
-x,y,1/2-z
-x,-y,-z
x,y,1/2-z
-x,y,z
x,-y,1/2+z
1/2+x,1/2+y,z
1/2-x,1/2-y,1/2+z
1/2+x,1/2-y,-z
1/2-x,1/2+y,1/2-z
1/2-x,1/2-y,-z
1/2+x,1/2+y,1/2-z
1/2-x,1/2+y,z
1/2+x,1/2-y,1/2+z
loop_
_atom_site_type_symbol
_atom_site_label
_atom_site_fract_x
_atom_site_fract_y
_atom_site_fract_z
Si Si1 0.784235 0.419564 0.626278
Si Si2 0.285034 0.556212 0.750000
Si Si3 0.713477 0.386751 0.135857
Si Si4 0.792870 0.568331 0.250000
Si Si5 0.704065 0.828135 0.955423
Si Si6 0.291193 0.214276 0.926371
Si Si7 0.207944 0.022810 0.942212
O O1 0.720172 0.411756 0.690234
O O2 0.719523 0.375427 0.581964
O O3 0.726414 0.476909 0.604077
O O4 0.000000 0.418758 0.626950
O O5 0.500000 0.554499 0.750000
O O6 0.226367 0.587414 0.694208
O O7 0.222486 0.495605 0.750000
O O8 0.500000 0.389898 0.135859
O O9 0.762816 0.326343 0.124115
O O10 0.782022 0.423498 0.084543
O O11 0.000000 0.582369 0.250000
O O12 0.500000 0.842852 0.965649
O O13 0.710718 0.772593 0.921879
O O14 0.782304 0.813792 0.016593
O O15 0.500000 0.222507 0.934587
O O16 0.000000 0.032814 0.953013
O O17 0.286638 0.000000 0.000000
#
# Coordination Sequence:
#
# PCOD9471801 Si02
#       7
#    16   8  16   8  16  16  16
#     4  10  20  34  53  77 105 138 175 215 263 315
#     4  10  20  36  55  74 101 145 186 212 258 319
#     4  10  20  34  52  75 105 139 176 215 260 317
#     4  10  20  34  53  78 105 137 178 220 260 305
#     4   9  19  36  55  76 106 142 176 214 265 323
#     4  10  20  34  55  80 104 136 177 220 268 315
#     4  10  20  32  50  78 108 137 171 215 264 314
#
# _framework density 21.208507999999998
#
# number of rings (size 3 to 8) (size 9 to 14) (size 15 to 20)
#    0.000    2.167    1.667    1.500    0.000    3.000 
#    0.000    0.833    0.000    3.000    0.000    0.000 
#    0.000    0.000    0.000    0.000    0.000    0.000 
#
# Total GULP energy -268017.938698 kJ/mol
# GULP energy per Si atom -5583.707056 kJ/mol
# Density = 2.116024 g / cm^3
# Si number density = 21.208508 Si / 1000 Ang^3
#
#
#
# Elastic Constant Matrix: (Units=GPa)
#
#
# Indices 1 2 3 4 5 6 
#
# 1 51.6148 -18.0671 -1.4654 0.0000 0.0000 0.0000
# 2 -18.0671 66.3398 -13.0215 0.0000 0.0000 0.0000
# 3 -1.4654 -13.0215 41.3917 0.0000 0.0000 0.0000
# 4 0.0000 0.0000 0.0000 31.7988 0.0000 0.0000
# 5 0.0000 0.0000 0.0000 0.0000 6.0329 0.0000
# 6 0.0000 0.0000 0.0000 0.0000 0.0000 15.3631
#
#
#
# Elastic Compliance Matrix: (Units=1/GPa)
#
#
# Indices 1 2 3 4 5 6 
#
# 1 0.021717 0.006464 0.002803 0.000000 0.000000 0.000000
# 2 0.006464 0.017990 0.005888 0.000000 0.000000 0.000000
# 3 0.002803 0.005888 0.026111 0.000000 0.000000 0.000000
# 4 0.000000 0.000000 0.000000 0.031448 0.000000 0.000000
# 5 0.000000 0.000000 0.000000 0.000000 0.165758 0.000000
# 6 0.000000 0.000000 0.000000 0.000000 0.000000 0.065091
#
#
# Mechanical properties :
#
#
# Convention : Reuss Voigt Hill
#
# Bulk Modulus (GPa) = 10.40269 10.47090 10.43680
# Shear Modulus (GPa) = 15.15855 23.43232 19.29543
#
# Velocity S-wave (km/s) = 2.67636 3.32754 3.01956
# Velocity P-wave (km/s) = 3.80344 4.43973 4.13385
#
# Compressibility (1/GPa) = 0.09612899
#
# Stress axis : x y z
#
# Youngs Moduli (GPa) = 46.04759 55.58556 38.29785
#
# Poissons Ratio (x) = -0.35933 -0.10733
# Poissons Ratio (y) = -0.29767 -0.22552
# Poissons Ratio (z) = -0.12905 -0.32731
#
# Static dielectric constant tensor:
#      x y z
#    x 1.794860 0.000000 0.000000 
#    y 0.000000 1.730640 0.000000 
#    z 0.000000 0.000000 1.791640 
# 
# From -- ./inp_files/60102.got.cif
#   From: 2010.05.17/outbox.cif.g08.bks.cpg/sg63_31_cif.got.tgz:60102.got - 2010.06.03 15:47:04.
