data_PCOD9471613
_publ_section_title
;
Structure prediction by ZEFSAII (Michael W. Deem and Ramdas Pophale) SiO2 
 PCOD9471613
Probable space group: C M C M
;
_chemical_formula_sum "Si O2"
_cell_formula_units_Z 100
_cell_length_a 7.435929
_cell_length_b 24.668625
_cell_length_c 21.796997
_cell_angle_alpha 90.000000
_cell_angle_beta 90.000000
_cell_angle_gamma 90.000000
_cell_volume 3998.313487
_symmetry_space_group_name_H-M "C M C M"
_symmetry_group_IT_number 63
_symmetry_cell_setting 'orthorhombic'
loop_
_space_group_symop_operation_xyz
x,y,z
-x,-y,1/2+z
x,-y,-z
-x,y,1/2-z
-x,-y,-z
x,y,1/2-z
-x,y,z
x,-y,1/2+z
1/2+x,1/2+y,z
1/2-x,1/2-y,1/2+z
1/2+x,1/2-y,-z
1/2-x,1/2+y,1/2-z
1/2-x,1/2-y,-z
1/2+x,1/2+y,1/2-z
1/2-x,1/2+y,z
1/2+x,1/2-y,1/2+z
loop_
_atom_site_type_symbol
_atom_site_label
_atom_site_fract_x
_atom_site_fract_y
_atom_site_fract_z
Si Si1 0.215438 0.891313 0.182267
Si Si2 0.704794 0.978967 0.082892
Si Si3 0.793045 0.736047 0.685116
Si Si4 0.214966 0.283341 0.439986
Si Si5 0.500000 0.105159 0.250000
Si Si6 0.716989 0.889035 0.504181
Si Si7 0.299876 0.407852 0.859051
O O1 0.253149 0.914119 0.250000
O O2 0.296717 0.930230 0.132116
O O3 0.287649 0.829878 0.182507
O O4 0.000000 0.888304 0.174714
O O5 0.500000 0.996886 0.070806
O O6 0.793584 0.029287 0.117634
O O7 0.776914 0.947229 0.022700
O O8 0.708598 0.753050 0.750000
O O9 0.709454 0.747595 0.619409
O O10 0.000000 0.754178 0.686561
O O11 0.250000 0.250000 0.500000
O O12 0.285026 0.342774 0.457758
O O13 0.000000 0.287657 0.430353
O O14 0.343047 0.102758 0.305430
O O15 0.500000 0.888575 0.500979
O O16 0.767466 0.878979 0.574705
O O17 0.500000 0.394494 0.837525
#
# Coordination Sequence:
#
# PCOD9471613 Si02
#       7
#    16  16  16  16   4  16  16
#     4  10  20  30  46  80 122 161 203 252 307 376
#     4  11  21  37  61  91 130 175 219 264 328 387
#     4   9  17  34  57  82 114 157 200 251 322 396
#     4  10  21  38  63  94 125 164 215 272 338 407
#     4  12  26  52  66  94 136 180 224 292 332 382
#     4  10  21  42  65  91 131 175 219 275 339 402
#     4  12  26  43  69  97 127 179 230 278 333 395
#
# _framework density 25.010543999999999
#
# number of rings (size 3 to 8) (size 9 to 14) (size 15 to 20)
#    0.000    1.600    3.200    1.680    1.120    5.440 
#    0.000    0.000    1.760    0.000    0.000    0.000 
#    0.000    0.000    0.000    0.000    0.000    0.000 
#
# Total GULP energy -278897.684864 kJ/mol
# GULP energy per Si atom -5577.953697 kJ/mol
# Density = 2.495362 g / cm^3
# Si number density = 25.010544 Si / 1000 Ang^3
#
#
#
# Elastic Constant Matrix: (Units=GPa)
#
#
# Indices 1 2 3 4 5 6 
#
# 1 148.3282 -13.2552 38.5974 0.0000 0.0000 0.0000
# 2 -13.2552 38.8452 3.3978 0.0000 0.0000 0.0000
# 3 38.5974 3.3978 232.0227 0.0000 0.0000 0.0000
# 4 0.0000 0.0000 0.0000 26.4397 0.0000 0.0000
# 5 0.0000 0.0000 0.0000 0.0000 7.7223 0.0000
# 6 0.0000 0.0000 0.0000 0.0000 0.0000 147.4525
#
#
#
# Elastic Compliance Matrix: (Units=1/GPa)
#
#
# Indices 1 2 3 4 5 6 
#
# 1 0.007300 0.002601 -0.001252 0.000000 0.000000 0.000000
# 2 0.002601 0.026703 -0.000824 0.000000 0.000000 0.000000
# 3 -0.001252 -0.000824 0.004530 0.000000 0.000000 0.000000
# 4 0.000000 0.000000 0.000000 0.037822 0.000000 0.000000
# 5 0.000000 0.000000 0.000000 0.000000 0.129495 0.000000
# 6 0.000000 0.000000 0.000000 0.000000 0.000000 0.006782
#
#
# Mechanical properties :
#
#
# Convention : Reuss Voigt Hill
#
# Bulk Modulus (GPa) = 25.26399 52.96401 39.11400
# Shear Modulus (GPa) = 22.24427 62.35330 42.29879
#
# Velocity S-wave (km/s) = 2.98551 4.99849 4.11693
# Velocity P-wave (km/s) = 4.69123 7.38484 6.18642
#
# Compressibility (1/GPa) = 0.03958203
#
# Stress axis : x y z
#
# Youngs Moduli (GPa) = 136.98403 37.44947 220.73421
#
# Poissons Ratio (x) = -0.09739 0.27646
# Poissons Ratio (y) = -0.35624 0.18181
# Poissons Ratio (z) = 0.17157 0.03085
#
# Static dielectric constant tensor:
#      x y z
#    x 1.989810 0.000000 0.000000 
#    y 0.000000 2.028040 0.000000 
#    z 0.000000 0.000000 2.051080 
# 
# From -- ./inp_files/51681.got.cif
#   From: 2010.05.17/outbox.cif.g08.bks.cpg/sg63_26_cif.got.tgz:51681.got - 2010.06.03 15:47:04.
