data_PCOD9471399
_publ_section_title
;
Structure prediction by ZEFSAII (Michael W. Deem and Ramdas Pophale) SiO2 
 PCOD9471399
Probable space group: C M C M
;
_chemical_formula_sum "Si O2"
_cell_formula_units_Z 72
_cell_length_a 14.770469
_cell_length_b 17.254911
_cell_length_c 15.945792
_cell_angle_alpha 90.000000
_cell_angle_beta 90.000000
_cell_angle_gamma 90.000000
_cell_volume 4063.994428
_symmetry_space_group_name_H-M "C M C M"
_symmetry_group_IT_number 63
_symmetry_cell_setting 'orthorhombic'
loop_
_space_group_symop_operation_xyz
x,y,z
-x,-y,1/2+z
x,-y,-z
-x,y,1/2-z
-x,-y,-z
x,y,1/2-z
-x,y,z
x,-y,1/2+z
1/2+x,1/2+y,z
1/2-x,1/2-y,1/2+z
1/2+x,1/2-y,-z
1/2-x,1/2+y,1/2-z
1/2-x,1/2-y,-z
1/2+x,1/2+y,1/2-z
1/2-x,1/2+y,z
1/2+x,1/2-y,1/2+z
loop_
_atom_site_type_symbol
_atom_site_label
_atom_site_fract_x
_atom_site_fract_y
_atom_site_fract_z
Si Si1 0.000000 0.702376 0.034573
Si Si2 0.186871 0.563049 0.342737
Si Si3 0.500000 0.968153 0.594951
Si Si4 0.000000 0.857563 0.350719
Si Si5 0.674678 0.548957 0.585196
Si Si6 0.305002 0.828519 0.497100
O O1 0.000000 0.625487 0.092094
O O2 0.000000 0.778860 0.092703
O O3 0.909160 0.693406 0.979836
O O4 0.178764 0.595322 0.250000
O O5 0.095812 0.513217 0.362809
O O6 0.275500 0.510401 0.352965
O O7 0.194059 0.629031 0.412812
O O8 0.500000 0.000000 0.500000
O O9 0.911693 0.907457 0.377218
O O10 0.000000 0.842657 0.250000
O O11 0.652641 0.500000 0.500000
O O12 0.751937 0.611702 0.561546
O O13 0.250000 0.750000 0.500000
#
# Coordination Sequence:
#
# PCOD9471399 Si02
#       6
#     8  16   8   8  16  16
#     4  10  20  33  56  83 110 136 190 227 282 328
#     4  10  20  34  55  84 113 142 187 236 281 330
#     4  10  19  36  58  82 112 148 184 232 283 345
#     4  12  23  35  54  85 120 146 181 241 287 326
#     4  10  21  38  58  78 109 152 196 225 280 342
#     4  10  19  36  56  80 110 151 184 228 280 343
#
# _framework density 17.716560000000001
#
# number of rings (size 3 to 8) (size 9 to 14) (size 15 to 20)
#    0.000    1.778    2.222    4.667    0.000    3.556 
#    0.000    0.000    0.000    0.000    0.000    3.111 
#    0.000    0.000    0.000    0.000    0.000    0.000 
#
# Total GULP energy -200599.612361 kJ/mol
# GULP energy per Si atom -5572.211454 kJ/mol
# Density = 1.767624 g / cm^3
# Si number density = 17.716560 Si / 1000 Ang^3
#
#
#
# Elastic Constant Matrix: (Units=GPa)
#
#
# Indices 1 2 3 4 5 6 
#
# 1 149.1534 42.6593 34.8201 0.0000 0.0000 0.0000
# 2 42.6593 79.4553 9.7143 0.0000 0.0000 0.0000
# 3 34.8201 9.7143 59.1236 0.0000 0.0000 0.0000
# 4 0.0000 0.0000 0.0000 7.8225 0.0000 0.0000
# 5 0.0000 0.0000 0.0000 0.0000 14.9560 0.0000
# 6 0.0000 0.0000 0.0000 0.0000 0.0000 35.8537
#
#
#
# Elastic Compliance Matrix: (Units=1/GPa)
#
#
# Indices 1 2 3 4 5 6 
#
# 1 0.008999 -0.004269 -0.004598 0.000000 0.000000 0.000000
# 2 -0.004269 0.014869 0.000071 0.000000 0.000000 0.000000
# 3 -0.004598 0.000071 0.019610 0.000000 0.000000 0.000000
# 4 0.000000 0.000000 0.000000 0.127837 0.000000 0.000000
# 5 0.000000 0.000000 0.000000 0.000000 0.066863 0.000000
# 6 0.000000 0.000000 0.000000 0.000000 0.000000 0.027891
#
#
# Mechanical properties :
#
#
# Convention : Reuss Voigt Hill
#
# Bulk Modulus (GPa) = 38.63167 51.34664 44.98915
# Shear Modulus (GPa) = 17.10625 25.09567 21.10096
#
# Velocity S-wave (km/s) = 3.11070 3.76774 3.45487
# Velocity P-wave (km/s) = 5.89531 6.92625 6.43147
#
# Compressibility (1/GPa) = 0.02588550
#
# Stress axis : x y z
#
# Youngs Moduli (GPa) = 111.12219 67.25321 50.99389
#
# Poissons Ratio (x) = 0.28713 0.23449
# Poissons Ratio (y) = 0.47442 -0.00364
# Poissons Ratio (z) = 0.51099 -0.00480
#
# Static dielectric constant tensor:
#      x y z
#    x 1.656200 0.000000 0.000000 
#    y 0.000000 1.610210 0.000000 
#    z 0.000000 0.000000 1.538950 
# 
# From -- ./inp_files/31515.got.cif
#   From: 2010.05.17/outbox.cif.g08.bks.cpg/sg63_16_cif.got.tgz:31515.got - 2010.06.03 15:47:04.
