data_PCOD9471423
_publ_section_title
;
Structure prediction by ZEFSAII (Michael W. Deem and Ramdas Pophale) SiO2 
 PCOD9471423
Probable space group: C M C M
;
_chemical_formula_sum "Si O2"
_cell_formula_units_Z 84
_cell_length_a 7.527102
_cell_length_b 25.271967
_cell_length_c 20.512415
_cell_angle_alpha 90.000000
_cell_angle_beta 90.000000
_cell_angle_gamma 90.000000
_cell_volume 3901.967443
_symmetry_space_group_name_H-M "C M C M"
_symmetry_group_IT_number 63
_symmetry_cell_setting 'orthorhombic'
loop_
_space_group_symop_operation_xyz
x,y,z
-x,-y,1/2+z
x,-y,-z
-x,y,1/2-z
-x,-y,-z
x,y,1/2-z
-x,y,z
x,-y,1/2+z
1/2+x,1/2+y,z
1/2-x,1/2-y,1/2+z
1/2+x,1/2-y,-z
1/2-x,1/2+y,1/2-z
1/2-x,1/2-y,-z
1/2+x,1/2+y,1/2-z
1/2-x,1/2+y,z
1/2+x,1/2-y,1/2+z
loop_
_atom_site_type_symbol
_atom_site_label
_atom_site_fract_x
_atom_site_fract_y
_atom_site_fract_z
Si Si1 0.703804 0.312970 0.656170
Si Si2 0.205757 0.332077 0.990313
Si Si3 0.214779 0.697457 0.868381
Si Si4 0.791135 0.919036 0.179269
Si Si5 0.716265 0.448350 0.039214
Si Si6 0.500000 0.853244 0.750000
O O1 0.500000 0.319307 0.677502
O O2 0.705188 0.320597 0.578219
O O3 0.764500 0.251898 0.666169
O O4 0.842987 0.349252 0.693292
O O5 0.000000 0.317215 0.983755
O O6 0.277736 0.304506 0.056194
O O7 0.220415 0.394412 0.005961
O O8 0.274832 0.643890 0.833593
O O9 0.000000 0.695929 0.870199
O O10 0.713140 0.932080 0.250000
O O11 0.719932 0.946834 0.114232
O O12 0.000000 0.931654 0.181652
O O13 0.500000 0.446664 0.039568
O O14 0.772038 0.500000 0.000000
#
# Coordination Sequence:
#
# PCOD9471423 Si02
#       6
#    16  16  16  16  16   4
#     4  11  23  39  58  82 117 157 200 240 285 345
#     4  10  19  36  58  83 112 146 192 244 291 341
#     4   9  20  33  52  82 113 149 186 231 286 346
#     4   9  18  30  50  77 109 144 183 232 295 359
#     4   9  18  34  56  81 109 145 192 246 302 357
#     4  12  26  40  56  82 114 164 198 244 288 338
#
# _framework density 21.527602000000002
#
# number of rings (size 3 to 8) (size 9 to 14) (size 15 to 20)
#    0.000    2.286    0.952    1.429    2.667    1.524 
#    0.000    0.000    2.095    0.000    0.000    0.000 
#    0.000    0.000    0.000    0.000    0.000    0.000 
#
# Total GULP energy -234067.152149 kJ/mol
# GULP energy per Si atom -5573.027432 kJ/mol
# Density = 2.147860 g / cm^3
# Si number density = 21.527602 Si / 1000 Ang^3
#
#
#
# Elastic Constant Matrix: (Units=GPa)
#
#
# Indices 1 2 3 4 5 6 
#
# 1 91.5810 -2.0393 15.0489 0.0000 0.0000 0.0000
# 2 -2.0393 40.8017 31.6771 0.0000 0.0000 0.0000
# 3 15.0489 31.6771 140.5808 0.0000 0.0000 0.0000
# 4 0.0000 0.0000 0.0000 -16.6632 0.0000 0.0000
# 5 0.0000 0.0000 0.0000 0.0000 -695.2905 0.0000
# 6 0.0000 0.0000 0.0000 0.0000 0.0000 13.2382
#
#
#
# Elastic Compliance Matrix: (Units=1/GPa)
#
#
# Indices 1 2 3 4 5 6 
#
# 1 0.011224 0.001811 -0.001609 0.000000 0.000000 0.000000
# 2 0.001811 0.029997 -0.006953 0.000000 0.000000 0.000000
# 3 -0.001609 -0.006953 0.008852 0.000000 0.000000 0.000000
# 4 0.000000 0.000000 0.000000 -0.060013 0.000000 0.000000
# 5 0.000000 0.000000 0.000000 0.000000 -0.001438 0.000000
# 6 0.000000 0.000000 0.000000 0.000000 0.000000 0.075539
#
#
# Mechanical properties :
#
#
# Convention : Reuss Voigt Hill
#
# Bulk Modulus (GPa) = 27.34500 40.25964 33.80232
# Shear Modulus (GPa) = 55.64433 -124.52465 -34.44016
#
# Velocity S-wave (km/s) = 5.08960 -7.61379 -4.00411
# Velocity P-wave (km/s) = 6.87521 7.65186 2.37513
#
# Compressibility (1/GPa) = 0.03656976
#
# Stress axis : x y z
#
# Youngs Moduli (GPa) = 89.09411 33.33613 112.96377
#
# Poissons Ratio (x) = -0.06036 0.18181
# Poissons Ratio (y) = -0.16131 0.78545
# Poissons Ratio (z) = 0.14340 0.23179
#
# Static dielectric constant tensor:
#      x y z
#    x 1.831590 0.000000 0.000000 
#    y 0.000000 1.755980 0.000000 
#    z 0.000000 0.000000 1.806380 
# 
# From -- ./inp_files/51202.got.cif
#   From: 2010.05.17/outbox.cif.g08.bks.cpg/sg63_26_cif.got.tgz:51202.got - 2010.06.03 15:47:04.
