data_PCOD9471113
_publ_section_title
;
Structure prediction by ZEFSAII (Michael W. Deem and Ramdas Pophale) SiO2 
 PCOD9471113
Probable space group: C M C M
;
_chemical_formula_sum "Si O2"
_cell_formula_units_Z 64
_cell_length_a 13.784655
_cell_length_b 18.918861
_cell_length_c 13.892096
_cell_angle_alpha 90.000000
_cell_angle_beta 90.000000
_cell_angle_gamma 90.000000
_cell_volume 3622.919325
_symmetry_space_group_name_H-M "C M C M"
_symmetry_group_IT_number 63
_symmetry_cell_setting 'orthorhombic'
loop_
_space_group_symop_operation_xyz
x,y,z
-x,-y,1/2+z
x,-y,-z
-x,y,1/2-z
-x,-y,-z
x,y,1/2-z
-x,y,z
x,-y,1/2+z
1/2+x,1/2+y,z
1/2-x,1/2-y,1/2+z
1/2+x,1/2-y,-z
1/2-x,1/2+y,1/2-z
1/2-x,1/2-y,-z
1/2+x,1/2+y,1/2-z
1/2-x,1/2+y,z
1/2+x,1/2-y,1/2+z
loop_
_atom_site_type_symbol
_atom_site_label
_atom_site_fract_x
_atom_site_fract_y
_atom_site_fract_z
Si Si1 0.500000 0.616854 0.862416
Si Si2 0.161807 0.303824 0.478317
Si Si3 0.000000 0.711859 0.365058
Si Si4 0.889364 0.823005 0.642921
Si Si5 0.305356 0.418800 0.021445
O O1 0.500000 0.598477 0.750000
O O2 0.500000 0.702334 0.871703
O O3 0.401423 0.589655 0.912604
O O4 0.250000 0.250000 0.500000
O O5 0.108151 0.256341 0.399172
O O6 0.211415 0.375660 0.441690
O O7 0.093710 0.312650 0.572365
O O8 0.000000 0.694083 0.250000
O O9 0.849013 0.821606 0.750000
O O10 0.831419 0.876723 0.576141
O O11 0.000000 0.848861 0.643736
O O12 0.286086 0.500000 0.000000
#
# Coordination Sequence:
#
# PCOD9471113 Si02
#       5
#     8  16   8  16  16
#     4  11  21  35  57  86 117 152 185 233 292 341
#     4  10  19  36  57  85 112 146 188 236 280 330
#     4  11  20  37  62  86 112 146 194 243 281 329
#     4  10  19  34  57  81 108 144 185 231 282 332
#     4  11  22  38  55  84 121 151 187 230 285 349
#
# _framework density 17.665312
#
# number of rings (size 3 to 8) (size 9 to 14) (size 15 to 20)
#    0.000    1.500    7.500    0.375    0.000    6.000 
#    0.000    0.625    0.000    0.000    0.000    0.000 
#    0.000    0.000    0.000    0.000    0.000    0.000 
#
# Total GULP energy -178187.709469 kJ/mol
# GULP energy per Si atom -5568.365921 kJ/mol
# Density = 1.762511 g / cm^3
# Si number density = 17.665312 Si / 1000 Ang^3
#
#
#
# Elastic Constant Matrix: (Units=GPa)
#
#
# Indices 1 2 3 4 5 6 
#
# 1 80.0522 27.0872 21.2738 0.0000 0.0000 0.0000
# 2 27.0872 120.9625 28.2420 0.0000 0.0000 0.0000
# 3 21.2738 28.2420 105.1992 0.0000 0.0000 0.0000
# 4 0.0000 0.0000 0.0000 6.9734 0.0000 0.0000
# 5 0.0000 0.0000 0.0000 0.0000 5.6883 0.0000
# 6 0.0000 0.0000 0.0000 0.0000 0.0000 14.6448
#
#
#
# Elastic Compliance Matrix: (Units=1/GPa)
#
#
# Indices 1 2 3 4 5 6 
#
# 1 0.013943 -0.002629 -0.002114 0.000000 0.000000 0.000000
# 2 -0.002629 0.009315 -0.001969 0.000000 0.000000 0.000000
# 3 -0.002114 -0.001969 0.010462 0.000000 0.000000 0.000000
# 4 0.000000 0.000000 0.000000 0.143402 0.000000 0.000000
# 5 0.000000 0.000000 0.000000 0.000000 0.175798 0.000000
# 6 0.000000 0.000000 0.000000 0.000000 0.000000 0.068284
#
#
# Mechanical properties :
#
#
# Convention : Reuss Voigt Hill
#
# Bulk Modulus (GPa) = 49.26914 51.04665 50.15790
# Shear Modulus (GPa) = 11.32774 20.76870 16.04822
#
# Velocity S-wave (km/s) = 2.53502 3.43253 3.01734
# Velocity P-wave (km/s) = 6.04312 6.68349 6.37136
#
# Compressibility (1/GPa) = 0.02029668
#
# Stress axis : x y z
#
# Youngs Moduli (GPa) = 71.72005 107.34847 95.58462
#
# Poissons Ratio (x) = 0.28219 0.20206
# Poissons Ratio (y) = 0.18853 0.18823
# Poissons Ratio (z) = 0.15161 0.21140
#
# Static dielectric constant tensor:
#      x y z
#    x 1.583800 0.000000 0.000000 
#    y 0.000000 1.599820 0.000000 
#    z 0.000000 0.000000 1.649870 
# 
# From -- ./inp_files/31377.got.cif
#   From: 2010.05.17/outbox.cif.g08.bks.cpg/sg63_16_cif.got.tgz:31377.got - 2010.06.03 15:47:04.
