data_PCOD9471016
_publ_section_title
;
Structure prediction by ZEFSAII (Michael W. Deem and Ramdas Pophale) SiO2 
 PCOD9471016
Probable space group: C M C M
;
_chemical_formula_sum "Si O2"
_cell_formula_units_Z 116
_cell_length_a 21.550118
_cell_length_b 17.116069
_cell_length_c 14.895497
_cell_angle_alpha 90.000000
_cell_angle_beta 90.000000
_cell_angle_gamma 90.000000
_cell_volume 5494.253323
_symmetry_space_group_name_H-M "C M C M"
_symmetry_group_IT_number 63
_symmetry_cell_setting 'orthorhombic'
loop_
_space_group_symop_operation_xyz
x,y,z
-x,-y,1/2+z
x,-y,-z
-x,y,1/2-z
-x,-y,-z
x,y,1/2-z
-x,y,z
x,-y,1/2+z
1/2+x,1/2+y,z
1/2-x,1/2-y,1/2+z
1/2+x,1/2-y,-z
1/2-x,1/2+y,1/2-z
1/2-x,1/2-y,-z
1/2+x,1/2+y,1/2-z
1/2-x,1/2+y,z
1/2+x,1/2-y,1/2+z
loop_
_atom_site_type_symbol
_atom_site_label
_atom_site_fract_x
_atom_site_fract_y
_atom_site_fract_z
Si Si1 0.500000 0.992951 0.250000
Si Si2 0.103056 0.553226 0.607240
Si Si3 0.871837 0.199359 0.479264
Si Si4 0.176007 0.923940 0.857142
Si Si5 0.690750 0.189292 0.652022
Si Si6 0.067409 0.658677 0.446523
Si Si7 0.822729 0.107958 0.853207
Si Si8 0.817047 0.410690 0.857539
O O1 0.446198 0.986557 0.171925
O O2 0.132684 0.630714 0.650853
O O3 0.073349 0.586890 0.516393
O O4 0.159482 0.492269 0.601346
O O5 0.874346 0.127737 0.409318
O O6 0.819592 0.253990 0.431749
O O7 0.926521 0.260816 0.497976
O O8 0.856661 0.160528 0.574036
O O9 0.170143 0.915302 0.750000
O O10 0.245911 0.896680 0.884955
O O11 0.172487 0.016411 0.876278
O O12 0.693552 0.229870 0.750000
O O13 0.751838 0.137295 0.643809
O O14 0.129835 0.650670 0.387010
O O15 0.000000 0.655345 0.400376
O O16 0.844163 0.118544 0.750000
O O17 0.816922 0.417671 0.750000
#
# Coordination Sequence:
#
# PCOD9471016 Si02
#       8
#     4  16  16  16  16  16  16  16
#     4  12  20  32  62  80 114 168 222 230 278 332
#     4  11  21  36  57  85 116 163 206 244 278 337
#     4  11  24  38  59  86 119 158 198 241 304 359
#     4  10  22  40  63  94 121 151 192 248 306 366
#     4  10  19  34  54  83 121 153 190 241 298 343
#     4  11  27  41  55  83 121 162 207 249 289 344
#     4  10  21  37  60  86 119 151 192 243 303 364
#     4  11  23  38  59  87 123 160 199 238 287 350
#
# _framework density 21.112969
#
# number of rings (size 3 to 8) (size 9 to 14) (size 15 to 20)
#    0.000    1.379    3.448    1.655    6.759    2.483 
#    0.000    0.000    0.000    1.655    0.000    1.931 
#    0.000    0.000    0.000    0.000    0.000    0.000 
#
# Total GULP energy -323245.295130 kJ/mol
# GULP energy per Si atom -5573.194744 kJ/mol
# Density = 2.106491 g / cm^3
# Si number density = 21.112969 Si / 1000 Ang^3
#
#
#
# Elastic Constant Matrix: (Units=GPa)
#
#
# Indices 1 2 3 4 5 6 
#
# 1 41.4052 21.6156 14.3185 0.0000 0.0000 0.0000
# 2 21.6156 116.0538 32.5001 0.0000 0.0000 0.0000
# 3 14.3185 32.5001 77.9014 0.0000 0.0000 0.0000
# 4 0.0000 0.0000 0.0000 33.0201 0.0000 0.0000
# 5 0.0000 0.0000 0.0000 0.0000 18.2733 0.0000
# 6 0.0000 0.0000 0.0000 0.0000 0.0000 10.5447
#
#
#
# Elastic Compliance Matrix: (Units=1/GPa)
#
#
# Indices 1 2 3 4 5 6 
#
# 1 0.027483 -0.004194 -0.003302 0.000000 0.000000 0.000000
# 2 -0.004194 0.010397 -0.003567 0.000000 0.000000 0.000000
# 3 -0.003302 -0.003567 0.014932 0.000000 0.000000 0.000000
# 4 0.000000 0.000000 0.000000 0.030285 0.000000 0.000000
# 5 0.000000 0.000000 0.000000 0.000000 0.054725 0.000000
# 6 0.000000 0.000000 0.000000 0.000000 0.000000 0.094834
#
#
# Mechanical properties :
#
#
# Convention : Reuss Voigt Hill
#
# Bulk Modulus (GPa) = 32.58780 41.35877 36.97328
# Shear Modulus (GPa) = 18.86732 23.49602 21.18167
#
# Velocity S-wave (km/s) = 2.99262 3.33959 3.17085
# Velocity P-wave (km/s) = 5.23541 5.87387 5.56380
#
# Compressibility (1/GPa) = 0.03068633
#
# Stress axis : x y z
#
# Youngs Moduli (GPa) = 36.38620 96.18462 66.97232
#
# Poissons Ratio (x) = 0.40342 0.22112
# Poissons Ratio (y) = 0.15261 0.23886
# Poissons Ratio (z) = 0.12013 0.34305
#
# Static dielectric constant tensor:
#      x y z
#    x 1.775430 0.000000 0.000000 
#    y 0.000000 1.804060 0.000000 
#    z 0.000000 0.000000 1.810460 
# 
# From -- ./inp_files/37113.got.cif
#   From: 2010.05.17/outbox.cif.g08.bks.cpg/sg63_19_cif.got.tgz:37113.got - 2010.06.03 15:47:04.
