data_PCOD9471672
_publ_section_title
;
Structure prediction by ZEFSAII (Michael W. Deem and Ramdas Pophale) SiO2 
 PCOD9471672
Probable space group: C M C M
;
_chemical_formula_sum "Si O2"
_cell_formula_units_Z 88
_cell_length_a 13.137987
_cell_length_b 28.653170
_cell_length_c 15.264718
_cell_angle_alpha 90.000000
_cell_angle_beta 90.000000
_cell_angle_gamma 90.000000
_cell_volume 5746.326385
_symmetry_space_group_name_H-M "C M C M"
_symmetry_group_IT_number 63
_symmetry_cell_setting 'orthorhombic'
loop_
_space_group_symop_operation_xyz
x,y,z
-x,-y,1/2+z
x,-y,-z
-x,y,1/2-z
-x,-y,-z
x,y,1/2-z
-x,y,z
x,-y,1/2+z
1/2+x,1/2+y,z
1/2-x,1/2-y,1/2+z
1/2+x,1/2-y,-z
1/2-x,1/2+y,1/2-z
1/2-x,1/2-y,-z
1/2+x,1/2+y,1/2-z
1/2-x,1/2+y,z
1/2+x,1/2-y,1/2+z
loop_
_atom_site_type_symbol
_atom_site_label
_atom_site_fract_x
_atom_site_fract_y
_atom_site_fract_z
Si Si1 0.880792 0.960537 0.351872
Si Si2 0.260269 0.000000 0.500000
Si Si3 0.623713 0.829533 0.649750
Si Si4 0.616957 0.725530 0.856572
Si Si5 0.259774 0.365352 0.352842
Si Si6 0.378112 0.903243 0.997753
O O1 0.866381 0.973740 0.250000
O O2 0.811737 0.990726 0.416515
O O3 0.842661 0.906995 0.360210
O O4 0.000000 0.964046 0.372985
O O5 0.329206 0.045759 0.487942
O O6 0.658254 0.837219 0.750000
O O7 0.500000 0.828526 0.651992
O O8 0.653670 0.777453 0.619118
O O9 0.653443 0.869930 0.583012
O O10 0.613736 0.725321 0.750000
O O11 0.500000 0.718682 0.886482
O O12 0.689119 0.683054 0.882433
O O13 0.231925 0.361834 0.250000
O O14 0.166846 0.380354 0.414055
O O15 0.500000 0.906047 0.000468
#
# Coordination Sequence:
#
# PCOD9471672 Si02
#       6
#    16   8  16  16  16  16
#     4   9  17  30  48  69  91 111 134 172 222 272
#     4  10  20  32  46  64  86 116 154 188 220 258
#     4   8  15  28  45  64  85 110 142 181 223 262
#     4   8  13  24  44  68  91 111 134 172 221 269
#     4   9  17  28  44  67  91 115 142 171 212 266
#     4  10  20  32  44  60  86 120 156 191 220 247
#
# _framework density 15.314132000000001
#
# number of rings (size 3 to 8) (size 9 to 14) (size 15 to 20)
#    0.000    3.091    0.000    2.182    0.000    4.000 
#    0.000    0.000    0.000    3.273    0.000    1.273 
#    0.000    2.909    0.000    0.000    0.000    0.000 
#
# Total GULP energy -244965.540925 kJ/mol
# GULP energy per Si atom -5567.398657 kJ/mol
# Density = 1.527928 g / cm^3
# Si number density = 15.314132 Si / 1000 Ang^3
#
#
#
# Elastic Constant Matrix: (Units=GPa)
#
#
# Indices 1 2 3 4 5 6 
#
# 1 79.5271 57.5839 48.3700 0.0000 0.0000 0.0000
# 2 57.5839 129.0223 65.4545 0.0000 0.0000 0.0000
# 3 48.3700 65.4545 73.8110 0.0000 0.0000 0.0000
# 4 0.0000 0.0000 0.0000 24.0874 0.0000 0.0000
# 5 0.0000 0.0000 0.0000 0.0000 16.0691 0.0000
# 6 0.0000 0.0000 0.0000 0.0000 0.0000 16.2225
#
#
#
# Elastic Compliance Matrix: (Units=1/GPa)
#
#
# Indices 1 2 3 4 5 6 
#
# 1 0.022327 -0.004621 -0.010534 0.000000 0.000000 0.000000
# 2 -0.004621 0.015045 -0.010314 0.000000 0.000000 0.000000
# 3 -0.010534 -0.010314 0.029597 0.000000 0.000000 0.000000
# 4 0.000000 0.000000 0.000000 0.041515 0.000000 0.000000
# 5 0.000000 0.000000 0.000000 0.000000 0.062231 0.000000
# 6 0.000000 0.000000 0.000000 0.000000 0.000000 0.061643
#
#
# Mechanical properties :
#
#
# Convention : Reuss Voigt Hill
#
# Bulk Modulus (GPa) = 62.37205 69.46414 65.91810
# Shear Modulus (GPa) = 17.32265 18.67260 17.99763
#
# Velocity S-wave (km/s) = 3.36691 3.49564 3.43188
# Velocity P-wave (km/s) = 7.47875 7.85816 7.67080
#
# Compressibility (1/GPa) = 0.01603282
#
# Stress axis : x y z
#
# Youngs Moduli (GPa) = 44.78872 66.46644 33.78721
#
# Poissons Ratio (x) = 0.30714 0.35590
# Poissons Ratio (y) = 0.20697 0.34847
# Poissons Ratio (z) = 0.47179 0.68551
#
# Static dielectric constant tensor:
#      x y z
#    x 1.482550 0.000000 0.000000 
#    y 0.000000 1.512670 0.000000 
#    z 0.000000 0.000000 1.506410 
# 
# From -- ./inp_files/32394.got.cif
#   From: 2010.05.17/outbox.cif.g08.bks.cpg/sg63_17_cif.got.tgz:32394.got - 2010.06.03 15:47:04.
