data_PCOD9471028
_publ_section_title
;
Structure prediction by ZEFSAII (Michael W. Deem and Ramdas Pophale) SiO2 
 PCOD9471028
Probable space group: C M C M
;
_chemical_formula_sum "Si O2"
_cell_formula_units_Z 96
_cell_length_a 11.138493
_cell_length_b 19.734561
_cell_length_c 24.760236
_cell_angle_alpha 90.000000
_cell_angle_beta 90.000000
_cell_angle_gamma 90.000000
_cell_volume 5442.628430
_symmetry_space_group_name_H-M "C M C M"
_symmetry_group_IT_number 63
_symmetry_cell_setting 'orthorhombic'
loop_
_space_group_symop_operation_xyz
x,y,z
-x,-y,1/2+z
x,-y,-z
-x,y,1/2-z
-x,-y,-z
x,y,1/2-z
-x,y,z
x,-y,1/2+z
1/2+x,1/2+y,z
1/2-x,1/2-y,1/2+z
1/2+x,1/2-y,-z
1/2-x,1/2+y,1/2-z
1/2-x,1/2-y,-z
1/2+x,1/2+y,1/2-z
1/2-x,1/2+y,z
1/2+x,1/2-y,1/2+z
loop_
_atom_site_type_symbol
_atom_site_label
_atom_site_fract_x
_atom_site_fract_y
_atom_site_fract_z
Si Si1 0.500000 0.175518 0.314479
Si Si2 0.861594 0.319429 0.385871
Si Si3 0.639503 0.197083 0.005659
Si Si4 0.234158 0.567863 0.685830
Si Si5 0.772185 0.678974 0.120803
Si Si6 0.860066 0.065175 0.311938
Si Si7 0.500000 0.017739 0.314870
O O1 0.500000 0.181156 0.250000
O O2 0.619934 0.204313 0.340945
O O3 0.500000 0.095783 0.331231
O O4 0.856064 0.342083 0.448697
O O5 0.775375 0.364752 0.349078
O O6 0.821338 0.240961 0.384312
O O7 0.000000 0.325372 0.367321
O O8 0.500000 0.223274 0.009119
O O9 0.670859 0.161936 0.062371
O O10 0.750000 0.250000 0.000000
O O11 0.228799 0.583105 0.750000
O O12 0.340627 0.514400 0.676396
O O13 0.117614 0.523422 0.669461
O O14 0.710997 0.614536 0.148603
O O15 0.814719 0.075468 0.250000
O O16 0.000000 0.081791 0.313574
O O17 0.500000 0.019344 0.250000
#
# Coordination Sequence:
#
# PCOD9471028 Si02
#       7
#     8  16  16  16  16  16   8
#     4  11  20  32  53  81 109 140 183 227 275 333
#     4  10  21  36  56  82 110 141 185 232 278 329
#     4   9  19  36  56  80 111 151 194 236 283 337
#     4  10  19  34  55  78 108 144 178 220 276 337
#     4  11  20  35  57  80 110 144 185 231 282 329
#     4  10  21  37  57  81 111 147 186 227 278 341
#     4   9  16  30  53  75  99 138 175 209 258 329
#
# _framework density 17.638536999999999
#
# number of rings (size 3 to 8) (size 9 to 14) (size 15 to 20)
#    0.000    2.000    3.333    1.000    0.000    2.000 
#    1.500    0.833    0.000    4.000    0.000    0.000 
#    0.000    0.000    0.000    0.000    0.000    0.000 
#
# Total GULP energy -267266.552735 kJ/mol
# GULP energy per Si atom -5568.053182 kJ/mol
# Density = 1.759839 g / cm^3
# Si number density = 17.638537 Si / 1000 Ang^3
#
#
#
# Elastic Constant Matrix: (Units=GPa)
#
#
# Indices 1 2 3 4 5 6 
#
# 1 72.7702 13.9393 29.7066 0.0000 0.0000 0.0000
# 2 13.9393 60.3901 40.6306 0.0000 0.0000 0.0000
# 3 29.7066 40.6306 104.3398 0.0000 0.0000 0.0000
# 4 0.0000 0.0000 0.0000 0.8005 0.0000 0.0000
# 5 0.0000 0.0000 0.0000 0.0000 25.3205 0.0000
# 6 0.0000 0.0000 0.0000 0.0000 0.0000 23.6444
#
#
#
# Elastic Compliance Matrix: (Units=1/GPa)
#
#
# Indices 1 2 3 4 5 6 
#
# 1 0.015580 -0.000829 -0.004113 0.000000 0.000000 0.000000
# 2 -0.000829 0.022482 -0.008518 0.000000 0.000000 0.000000
# 3 -0.004113 -0.008518 0.014072 0.000000 0.000000 0.000000
# 4 0.000000 0.000000 0.000000 1.249179 0.000000 0.000000
# 5 0.000000 0.000000 0.000000 0.000000 0.039494 0.000000
# 6 0.000000 0.000000 0.000000 0.000000 0.000000 0.042293
#
#
# Mechanical properties :
#
#
# Convention : Reuss Voigt Hill
#
# Bulk Modulus (GPa) = 39.66235 45.11702 42.38969
# Shear Modulus (GPa) = 3.52504 20.16799 11.84652
#
# Velocity S-wave (km/s) = 1.41521 3.38510 2.59439
# Velocity P-wave (km/s) = 5.02050 6.39630 5.74970
#
# Compressibility (1/GPa) = 0.02521283
#
# Stress axis : x y z
#
# Youngs Moduli (GPa) = 64.18629 44.48084 71.06212
#
# Poissons Ratio (x) = 0.03687 0.29227
# Poissons Ratio (y) = 0.05321 0.60534
# Poissons Ratio (z) = 0.26399 0.37891
#
# Static dielectric constant tensor:
#      x y z
#    x 1.628270 0.000000 0.000000 
#    y 0.000000 1.595910 0.000000 
#    z 0.000000 0.000000 1.615700 
# 
# From -- ./inp_files/61538.got.cif
#   From: 2010.05.17/outbox.cif.g08.bks.cpg/sg63_31_cif.got.tgz:61538.got - 2010.06.03 15:47:04.
