data_PCOD9471920
_publ_section_title
;
Structure prediction by ZEFSAII (Michael W. Deem and Ramdas Pophale) SiO2 
 PCOD9471920
Probable space group: C M C M
;
_chemical_formula_sum "Si O2"
_cell_formula_units_Z 80
_cell_length_a 22.731270
_cell_length_b 12.964932
_cell_length_c 14.616332
_cell_angle_alpha 90.000000
_cell_angle_beta 90.000000
_cell_angle_gamma 90.000000
_cell_volume 4307.569993
_symmetry_space_group_name_H-M "C M C M"
_symmetry_group_IT_number 63
_symmetry_cell_setting 'orthorhombic'
loop_
_space_group_symop_operation_xyz
x,y,z
-x,-y,1/2+z
x,-y,-z
-x,y,1/2-z
-x,-y,-z
x,y,1/2-z
-x,y,z
x,-y,1/2+z
1/2+x,1/2+y,z
1/2-x,1/2-y,1/2+z
1/2+x,1/2-y,-z
1/2-x,1/2+y,1/2-z
1/2-x,1/2-y,-z
1/2+x,1/2+y,1/2-z
1/2-x,1/2+y,z
1/2+x,1/2-y,1/2+z
loop_
_atom_site_type_symbol
_atom_site_label
_atom_site_fract_x
_atom_site_fract_y
_atom_site_fract_z
Si Si1 0.121028 0.100754 0.142155
Si Si2 0.933205 0.729596 0.984675
Si Si3 0.568610 0.387736 0.143510
Si Si4 0.742188 0.721923 0.357627
Si Si5 0.815022 0.380298 0.487789
O O1 0.107246 0.104786 0.250000
O O2 0.079782 0.179813 0.088237
O O3 0.187301 0.142467 0.130392
O O4 0.109189 0.983193 0.113120
O O5 0.000000 0.692914 0.977358
O O6 0.924443 0.787878 0.081236
O O7 0.883632 0.643780 0.972498
O O8 0.580120 0.365604 0.250000
O O9 0.500000 0.421080 0.134926
O O10 0.755137 0.731669 0.250000
O O11 0.794006 0.679182 0.420873
O O12 0.720307 0.828401 0.403672
O O13 0.803284 0.500000 0.500000
#
# Coordination Sequence:
#
# PCOD9471920 Si02
#       5
#    16  16  16  16  16
#     4   9  17  30  51  79 106 133 169 213 264 319
#     4  10  20  33  50  73 105 143 179 216 257 302
#     4   9  17  29  47  74 106 137 170 210 258 312
#     4   9  20  38  58  80 106 136 172 218 270 320
#     4  10  22  38  56  80 107 137 178 221 261 314
#
# _framework density 18.571954999999999
#
# number of rings (size 3 to 8) (size 9 to 14) (size 15 to 20)
#    0.000    2.600    0.000    1.200    0.000    9.600 
#    0.000    2.000    0.000    0.000    0.000    5.600 
#    0.000    0.000    0.000    0.000    0.000    0.000 
#
# Total GULP energy -223210.645846 kJ/mol
# GULP energy per Si atom -5580.266146 kJ/mol
# Density = 1.852968 g / cm^3
# Si number density = 18.571955 Si / 1000 Ang^3
#
#
#
# Elastic Constant Matrix: (Units=GPa)
#
#
# Indices 1 2 3 4 5 6 
#
# 1 64.2284 13.7328 17.6269 0.0000 0.0000 0.0000
# 2 13.7328 29.3968 -16.9046 0.0000 0.0000 0.0000
# 3 17.6269 -16.9046 57.4748 0.0000 0.0000 0.0000
# 4 0.0000 0.0000 0.0000 16.6721 0.0000 0.0000
# 5 0.0000 0.0000 0.0000 0.0000 18.3594 0.0000
# 6 0.0000 0.0000 0.0000 0.0000 0.0000 1.7155
#
#
#
# Elastic Compliance Matrix: (Units=1/GPa)
#
#
# Indices 1 2 3 4 5 6 
#
# 1 0.022639 -0.017534 -0.012101 0.000000 0.000000 0.000000
# 2 -0.017534 0.054523 0.021414 0.000000 0.000000 0.000000
# 3 -0.012101 0.021414 0.027408 0.000000 0.000000 0.000000
# 4 0.000000 0.000000 0.000000 0.059980 0.000000 0.000000
# 5 0.000000 0.000000 0.000000 0.000000 0.054468 0.000000
# 6 0.000000 0.000000 0.000000 0.000000 0.000000 0.582918
#
#
# Mechanical properties :
#
#
# Convention : Reuss Voigt Hill
#
# Bulk Modulus (GPa) = 11.34709 20.00113 15.67411
# Shear Modulus (GPa) = 5.89793 16.45905 11.17849
#
# Velocity S-wave (km/s) = 1.78399 2.98019 2.45603
# Velocity P-wave (km/s) = 3.21971 4.75762 4.06211
#
# Compressibility (1/GPa) = 0.08812834
#
# Stress axis : x y z
#
# Youngs Moduli (GPa) = 44.17078 18.34097 36.48525
#
# Poissons Ratio (x) = 0.32160 0.44149
# Poissons Ratio (y) = 0.77451 -0.78129
# Poissons Ratio (z) = 0.53449 -0.39275
#
# Static dielectric constant tensor:
#      x y z
#    x 1.660700 0.000000 0.000000 
#    y 0.000000 1.609680 0.000000 
#    z 0.000000 0.000000 1.636030 
# 
# From -- ./inp_files/36431.got.cif
#   From: 2010.05.17/outbox.cif.g08.bks.cpg/sg63_19_cif.got.tgz:36431.got - 2010.06.03 15:47:04.
