data_PCOD9471088
_publ_section_title
;
Structure prediction by ZEFSAII (Michael W. Deem and Ramdas Pophale) SiO2 
 PCOD9471088
Probable space group: C M C M
;
_chemical_formula_sum "Si O2"
_cell_formula_units_Z 112
_cell_length_a 13.891971
_cell_length_b 13.704067
_cell_length_c 23.698628
_cell_angle_alpha 90.000000
_cell_angle_beta 90.000000
_cell_angle_gamma 90.000000
_cell_volume 4511.661885
_symmetry_space_group_name_H-M "C M C M"
_symmetry_group_IT_number 63
_symmetry_cell_setting 'orthorhombic'
loop_
_space_group_symop_operation_xyz
x,y,z
-x,-y,1/2+z
x,-y,-z
-x,y,1/2-z
-x,-y,-z
x,y,1/2-z
-x,y,z
x,-y,1/2+z
1/2+x,1/2+y,z
1/2-x,1/2-y,1/2+z
1/2+x,1/2-y,-z
1/2-x,1/2+y,1/2-z
1/2-x,1/2-y,-z
1/2+x,1/2+y,1/2-z
1/2-x,1/2+y,z
1/2+x,1/2-y,1/2+z
loop_
_atom_site_type_symbol
_atom_site_label
_atom_site_fract_x
_atom_site_fract_y
_atom_site_fract_z
Si Si1 0.300196 0.373495 0.184543
Si Si2 0.178560 0.896088 0.815112
Si Si3 0.607401 0.588394 0.431579
Si Si4 0.394028 0.817520 0.818166
Si Si5 0.316255 0.050365 0.057937
Si Si6 0.108216 0.274047 0.502638
Si Si7 0.106282 0.619502 0.881771
O O1 0.285959 0.350789 0.250000
O O2 0.331264 0.486119 0.182642
O O3 0.376766 0.294862 0.163011
O O4 0.197683 0.356457 0.155763
O O5 0.156046 0.866150 0.750000
O O6 0.117065 0.861024 0.869262
O O7 0.289942 0.868475 0.828193
O O8 0.500000 0.545778 0.434764
O O9 0.703946 0.524535 0.433642
O O10 0.619323 0.661945 0.484657
O O11 0.400588 0.822448 0.750000
O O12 0.500000 0.849063 0.838552
O O13 0.380313 0.995039 0.103334
O O14 0.327285 0.166117 0.046770
O O15 0.348122 0.000000 0.000000
O O16 0.115862 0.325212 0.441357
O O17 0.000000 0.288505 0.523199
O O18 0.000000 0.637046 0.858097
#
# Coordination Sequence:
#
# PCOD9471088 Si02
#       7
#    16  16  16  16  16  16  16
#     4  10  20  35  56  85 122 162 202 247 304 362
#     4  10  21  38  59  87 124 162 202 246 297 360
#     4  11  22  37  57  83 116 152 192 240 297 359
#     4   9  19  37  60  85 118 161 206 251 297 351
#     4  10  20  37  58  80 110 147 190 246 298 355
#     4   9  19  35  58  82 106 144 188 236 300 363
#     4  10  19  34  56  82 113 149 192 242 297 355
#
# _framework density 24.824555
#
# number of rings (size 3 to 8) (size 9 to 14) (size 15 to 20)
#    0.000    2.143    1.429    1.714    0.000    3.714 
#    0.000    2.857    0.000    9.429    0.000    0.000 
#    0.000    0.000    0.000    0.000    0.000    0.000 
#
# Total GULP energy -312504.674741 kJ/mol
# GULP energy per Si atom -5580.440620 kJ/mol
# Density = 2.476805 g / cm^3
# Si number density = 24.824555 Si / 1000 Ang^3
#
#
#
# Elastic Constant Matrix: (Units=GPa)
#
#
# Indices 1 2 3 4 5 6 
#
# 1 117.7050 14.5532 3.9892 0.0000 0.0000 0.0000
# 2 14.5532 56.0789 6.3002 0.0000 0.0000 0.0000
# 3 3.9892 6.3002 67.2317 0.0000 0.0000 0.0000
# 4 0.0000 0.0000 0.0000 29.7729 0.0000 0.0000
# 5 0.0000 0.0000 0.0000 0.0000 32.1657 0.0000
# 6 0.0000 0.0000 0.0000 0.0000 0.0000 28.6126
#
#
#
# Elastic Compliance Matrix: (Units=1/GPa)
#
#
# Indices 1 2 3 4 5 6 
#
# 1 0.008784 -0.002245 -0.000311 0.000000 0.000000 0.000000
# 2 -0.002245 0.018595 -0.001609 0.000000 0.000000 0.000000
# 3 -0.000311 -0.001609 0.015043 0.000000 0.000000 0.000000
# 4 0.000000 0.000000 0.000000 0.033588 0.000000 0.000000
# 5 0.000000 0.000000 0.000000 0.000000 0.031089 0.000000
# 6 0.000000 0.000000 0.000000 0.000000 0.000000 0.034950
#
#
# Mechanical properties :
#
#
# Convention : Reuss Voigt Hill
#
# Bulk Modulus (GPa) = 29.33173 32.30008 30.81591
# Shear Modulus (GPa) = 30.91332 32.52177 31.71755
#
# Velocity S-wave (km/s) = 3.53267 3.62341 3.57833
# Velocity P-wave (km/s) = 5.33675 5.52676 5.43259
#
# Compressibility (1/GPa) = 0.03409277
#
# Stress axis : x y z
#
# Youngs Moduli (GPa) = 113.84490 53.77691 66.47523
#
# Poissons Ratio (x) = 0.12071 0.02066
# Poissons Ratio (y) = 0.25554 0.10698
# Poissons Ratio (z) = 0.03539 0.08655
#
# Static dielectric constant tensor:
#      x y z
#    x 1.906120 0.000000 0.000000 
#    y 0.000000 2.083980 0.000000 
#    z 0.000000 0.000000 2.013800 
# 
# From -- ./inp_files/72867.got.cif
#   From: 2010.05.17/outbox.cif.g08.bks.cpg/sg63_37_cif.got.tgz:72867.got - 2010.06.03 15:47:04.
