data_PCOD9471197
_publ_section_title
;
Structure prediction by ZEFSAII (Michael W. Deem and Ramdas Pophale) SiO2 
 PCOD9471197
Probable space group: C M C M
;
_chemical_formula_sum "Si O2"
_cell_formula_units_Z 88
_cell_length_a 11.072698
_cell_length_b 14.273492
_cell_length_c 24.523341
_cell_angle_alpha 90.000000
_cell_angle_beta 90.000000
_cell_angle_gamma 90.000000
_cell_volume 3875.817578
_symmetry_space_group_name_H-M "C M C M"
_symmetry_group_IT_number 63
_symmetry_cell_setting 'orthorhombic'
loop_
_space_group_symop_operation_xyz
x,y,z
-x,-y,1/2+z
x,-y,-z
-x,y,1/2-z
-x,-y,-z
x,y,1/2-z
-x,y,z
x,-y,1/2+z
1/2+x,1/2+y,z
1/2-x,1/2-y,1/2+z
1/2+x,1/2-y,-z
1/2-x,1/2+y,1/2-z
1/2-x,1/2-y,-z
1/2+x,1/2+y,1/2-z
1/2-x,1/2+y,z
1/2+x,1/2-y,1/2+z
loop_
_atom_site_type_symbol
_atom_site_label
_atom_site_fract_x
_atom_site_fract_y
_atom_site_fract_z
Si Si1 0.140543 0.212643 0.808626
Si Si2 0.745435 0.508240 0.687541
Si Si3 0.000000 0.755868 0.630037
Si Si4 0.500000 0.432384 0.687208
Si Si5 0.144723 0.391206 0.486704
Si Si6 0.754688 0.740396 0.081237
Si Si7 0.000000 0.550043 0.682585
O O1 0.159901 0.260310 0.750000
O O2 0.221527 0.119559 0.809532
O O3 0.175735 0.267439 0.862046
O O4 0.000000 0.185011 0.811077
O O5 0.749239 0.472880 0.750000
O O6 0.624945 0.467304 0.661259
O O7 0.878912 0.496465 0.664794
O O8 0.000000 0.821453 0.683116
O O9 0.883670 0.782695 0.594757
O O10 0.000000 0.650434 0.652798
O O11 0.500000 0.466749 0.750000
O O12 0.166648 0.500000 0.500000
O O13 0.179471 0.324365 0.537492
O O14 0.234158 0.347395 0.440686
O O15 0.000000 0.381671 0.474115
O O16 0.000000 0.559449 0.750000
#
# Coordination Sequence:
#
# PCOD9471197 Si02
#       7
#    16  16   8   8  16  16   8
#     4  10  19  34  62  97 137 185 224 263 332 409
#     4   9  17  32  54  82 119 173 227 264 309 385
#     4  12  23  36  58  96 130 160 209 277 341 408
#     4  10  21  36  56  85 130 179 224 272 326 389
#     4  10  23  47  75  96 127 175 226 287 357 412
#     4  11  23  41  68 102 136 168 229 288 337 412
#     4  10  19  34  60  87 124 179 225 265 323 391
#
# _framework density 22.704885999999998
#
# number of rings (size 3 to 8) (size 9 to 14) (size 15 to 20)
#    0.000    1.818    3.636    0.818    0.000    2.182 
#    0.000    0.455    2.000    1.091    0.000    2.545 
#    0.000    0.000    0.000    0.000    0.000    0.000 
#
# Total GULP energy -245571.512690 kJ/mol
# GULP energy per Si atom -5581.170743 kJ/mol
# Density = 2.265321 g / cm^3
# Si number density = 22.704886 Si / 1000 Ang^3
#
#
#
# Elastic Constant Matrix: (Units=GPa)
#
#
# Indices 1 2 3 4 5 6 
#
# 1 162.3051 33.5678 13.8463 0.0000 0.0000 0.0000
# 2 33.5678 88.2014 14.5115 0.0000 0.0000 0.0000
# 3 13.8463 14.5115 80.5923 0.0000 0.0000 0.0000
# 4 0.0000 0.0000 0.0000 18.8597 0.0000 0.0000
# 5 0.0000 0.0000 0.0000 0.0000 25.5827 0.0000
# 6 0.0000 0.0000 0.0000 0.0000 0.0000 0.9637
#
#
#
# Elastic Compliance Matrix: (Units=1/GPa)
#
#
# Indices 1 2 3 4 5 6 
#
# 1 0.006727 -0.002443 -0.000716 0.000000 0.000000 0.000000
# 2 -0.002443 0.012571 -0.001844 0.000000 0.000000 0.000000
# 3 -0.000716 -0.001844 0.012863 0.000000 0.000000 0.000000
# 4 0.000000 0.000000 0.000000 0.053023 0.000000 0.000000
# 5 0.000000 0.000000 0.000000 0.000000 0.039089 0.000000
# 6 0.000000 0.000000 0.000000 0.000000 0.000000 1.037682
#
#
# Mechanical properties :
#
#
# Convention : Reuss Voigt Hill
#
# Bulk Modulus (GPa) = 45.13356 50.55001 47.84178
# Shear Modulus (GPa) = 4.23964 27.02608 15.63286
#
# Velocity S-wave (km/s) = 1.36797 3.45384 2.62682
# Velocity P-wave (km/s) = 4.73462 6.18204 5.50610
#
# Compressibility (1/GPa) = 0.02215646
#
# Stress axis : x y z
#
# Youngs Moduli (GPa) = 148.64388 79.55043 77.74144
#
# Poissons Ratio (x) = 0.19431 0.05566
# Poissons Ratio (y) = 0.36307 0.14334
# Poissons Ratio (z) = 0.10643 0.14668
#
# Static dielectric constant tensor:
#      x y z
#    x 1.860730 0.000000 0.000000 
#    y 0.000000 1.852820 0.000000 
#    z 0.000000 0.000000 1.881610 
# 
# From -- ./inp_files/68228.got.cif
#   From: 2010.05.17/outbox.cif.g08.bks.cpg/sg63_35_cif.got.tgz:68228.got - 2010.06.03 15:47:04.
