data_PCOD9471030
_publ_section_title
;
Structure prediction by ZEFSAII (Michael W. Deem and Ramdas Pophale) SiO2 
 PCOD9471030
Probable space group: C M C M
;
_chemical_formula_sum "Si O2"
_cell_formula_units_Z 96
_cell_length_a 19.475159
_cell_length_b 30.719026
_cell_length_c 7.723731
_cell_angle_alpha 90.000000
_cell_angle_beta 90.000000
_cell_angle_gamma 90.000000
_cell_volume 4620.783209
_symmetry_space_group_name_H-M "C M C M"
_symmetry_group_IT_number 63
_symmetry_cell_setting 'orthorhombic'
loop_
_space_group_symop_operation_xyz
x,y,z
-x,-y,1/2+z
x,-y,-z
-x,y,1/2-z
-x,-y,-z
x,y,1/2-z
-x,y,z
x,-y,1/2+z
1/2+x,1/2+y,z
1/2-x,1/2-y,1/2+z
1/2+x,1/2-y,-z
1/2-x,1/2+y,1/2-z
1/2-x,1/2-y,-z
1/2+x,1/2+y,1/2-z
1/2-x,1/2+y,z
1/2+x,1/2-y,1/2+z
loop_
_atom_site_type_symbol
_atom_site_label
_atom_site_fract_x
_atom_site_fract_y
_atom_site_fract_z
Si Si1 0.668792 0.370778 0.949918
Si Si2 0.820361 0.620837 0.551235
Si Si3 0.323017 0.727250 0.041470
Si Si4 0.075603 0.449279 0.956463
Si Si5 0.078389 0.696674 0.538210
Si Si6 0.921000 0.951224 0.541453
O O1 0.646300 0.366463 0.750000
O O2 0.667326 0.321888 0.026586
O O3 0.624120 0.410574 0.024944
O O4 0.748840 0.383134 0.954867
O O5 0.803919 0.632047 0.750000
O O6 0.863993 0.577107 0.543088
O O7 0.871151 0.658042 0.480409
O O8 0.324640 0.724952 0.250000
O O9 0.384687 0.758701 0.985318
O O10 0.250000 0.750000 0.000000
O O11 0.079933 0.443790 0.750000
O O12 0.000000 0.433334 0.014329
O O13 0.079484 0.500000 0.000000
O O14 0.077076 0.695234 0.750000
O O15 0.000000 0.692346 0.478942
O O16 0.921927 0.948665 0.750000
O O17 0.000000 0.948207 0.479053
O O18 0.895014 0.000000 0.500000
#
# Coordination Sequence:
#
# PCOD9471030 Si02
#       6
#    16  16  16  16  16  16
#     4  10  21  35  55  82 112 145 184 232 282 337
#     4  11  21  34  54  79 110 147 184 227 273 327
#     4  10  19  34  55  78 108 145 182 228 280 331
#     4  10  21  37  56  78 106 141 181 226 275 325
#     4   9  18  32  52  79 107 139 182 226 272 329
#     4   9  19  37  59  83 111 144 183 230 285 341
#
# _framework density 20.775698999999999
#
# number of rings (size 3 to 8) (size 9 to 14) (size 15 to 20)
#    0.000    2.167    1.667    1.500    0.000    3.667 
#    0.000    5.000    0.000    1.500    0.000    2.333 
#    0.000    0.000    0.000    0.000    0.000    0.000 
#
# Total GULP energy -267915.462244 kJ/mol
# GULP energy per Si atom -5581.572130 kJ/mol
# Density = 2.072841 g / cm^3
# Si number density = 20.775699 Si / 1000 Ang^3
#
#
#
# Elastic Constant Matrix: (Units=GPa)
#
#
# Indices 1 2 3 4 5 6 
#
# 1 106.9379 75.1928 -1.1378 0.0000 0.0000 0.0000
# 2 75.1928 151.8613 0.9597 0.0000 0.0000 0.0000
# 3 -1.1378 0.9597 39.8164 0.0000 0.0000 0.0000
# 4 0.0000 0.0000 0.0000 13.4463 0.0000 0.0000
# 5 0.0000 0.0000 0.0000 0.0000 -10.8884 0.0000
# 6 0.0000 0.0000 0.0000 0.0000 0.0000 44.6198
#
#
#
# Elastic Compliance Matrix: (Units=1/GPa)
#
#
# Indices 1 2 3 4 5 6 
#
# 1 0.014359 -0.007114 0.000582 0.000000 0.000000 0.000000
# 2 -0.007114 0.010110 -0.000447 0.000000 0.000000 0.000000
# 3 0.000582 -0.000447 0.025143 0.000000 0.000000 0.000000
# 4 0.000000 0.000000 0.000000 0.074370 0.000000 0.000000
# 5 0.000000 0.000000 0.000000 0.000000 -0.091840 0.000000
# 6 0.000000 0.000000 0.000000 0.000000 0.000000 0.022412
#
#
# Mechanical properties :
#
#
# Convention : Reuss Voigt Hill
#
# Bulk Modulus (GPa) = 28.04692 49.84943 38.94818
# Shear Modulus (GPa) = 62.19269 24.34226 43.26748
#
# Velocity S-wave (km/s) = 5.47725 3.42668 4.56850
# Velocity P-wave (km/s) = 7.31639 6.30098 6.82759
#
# Compressibility (1/GPa) = 0.03565453
#
# Stress axis : x y z
#
# Youngs Moduli (GPa) = 69.64155 98.91212 39.77297
#
# Poissons Ratio (x) = 0.70361 -0.02314
# Poissons Ratio (y) = 0.49540 0.01778
# Poissons Ratio (z) = -0.04052 0.04421
#
# Static dielectric constant tensor:
#      x y z
#    x 1.709120 0.000000 0.000000 
#    y 0.000000 1.756670 0.000000 
#    z 0.000000 0.000000 1.790020 
# 
# From -- ./inp_files/8546.got.cif
#   From: 2010.05.17/outbox.cif.g08.bks.cpg/sg63_5_cif.got.tgz:8546.got - 2010.06.03 15:47:04.
