data_PCOD9471866
_publ_section_title
;
Structure prediction by ZEFSAII (Michael W. Deem and Ramdas Pophale) SiO2 
 PCOD9471866
Probable space group: C M C M
;
_chemical_formula_sum "Si O2"
_cell_formula_units_Z 96
_cell_length_a 21.150833
_cell_length_b 27.847254
_cell_length_c 7.452883
_cell_angle_alpha 90.000000
_cell_angle_beta 90.000000
_cell_angle_gamma 90.000000
_cell_volume 4389.693076
_symmetry_space_group_name_H-M "C M C M"
_symmetry_group_IT_number 63
_symmetry_cell_setting 'orthorhombic'
loop_
_space_group_symop_operation_xyz
x,y,z
-x,-y,1/2+z
x,-y,-z
-x,y,1/2-z
-x,-y,-z
x,y,1/2-z
-x,y,z
x,-y,1/2+z
1/2+x,1/2+y,z
1/2-x,1/2-y,1/2+z
1/2+x,1/2-y,-z
1/2-x,1/2+y,1/2-z
1/2-x,1/2-y,-z
1/2+x,1/2+y,1/2-z
1/2-x,1/2+y,z
1/2+x,1/2-y,1/2+z
loop_
_atom_site_type_symbol
_atom_site_label
_atom_site_fract_x
_atom_site_fract_y
_atom_site_fract_z
Si Si1 0.570841 0.055282 0.464510
Si Si2 0.928794 0.197254 0.532832
Si Si3 0.184554 0.621653 0.470302
Si Si4 0.930250 0.084742 0.039770
Si Si5 0.796590 0.053796 0.464635
Si Si6 0.680020 0.769177 0.535559
O O1 0.568256 0.061261 0.250000
O O2 0.500000 0.063905 0.535287
O O3 0.624658 0.090621 0.530669
O O4 0.587422 0.000000 0.500000
O O5 0.927073 0.196522 0.750000
O O6 0.919994 0.142237 0.472999
O O7 0.874105 0.232968 0.467535
O O8 0.000000 0.212212 0.479169
O O9 0.185653 0.621768 0.250000
O O10 0.248207 0.594431 0.529765
O O11 0.177674 0.676267 0.531244
O O12 0.933213 0.072094 0.250000
O O13 0.867727 0.060116 0.962255
O O14 0.000000 0.074045 0.962218
O O15 0.800112 0.059727 0.250000
O O16 0.772951 0.000000 0.500000
O O17 0.671065 0.771296 0.750000
O O18 0.750000 0.750000 0.500000
#
# Coordination Sequence:
#
# PCOD9471866 Si02
#       6
#    16  16  16  16  16  16
#     4   9  17  30  49  71  94 122 156 192 232 279
#     4   9  18  32  51  76 102 127 159 201 245 285
#     4   9  18  32  49  69  94 125 158 192 233 282
#     4   9  18  33  52  72  96 128 161 192 234 290
#     4  10  20  33  49  69  94 124 159 197 236 280
#     4  10  20  34  52  73  99 130 164 202 242 287
#
# _framework density 21.869410999999999
#
# number of rings (size 3 to 8) (size 9 to 14) (size 15 to 20)
#    0.000    2.667    0.000    1.500    0.000    3.667 
#    0.000    5.000    0.000    0.000    0.000    4.667 
#    0.000    0.000    0.000    0.000    0.000    0.000 
#
# Total GULP energy -268066.850114 kJ/mol
# GULP energy per Si atom -5584.726044 kJ/mol
# Density = 2.181964 g / cm^3
# Si number density = 21.869411 Si / 1000 Ang^3
#
#
#
# Elastic Constant Matrix: (Units=GPa)
#
#
# Indices 1 2 3 4 5 6 
#
# 1 84.3255 24.5430 -4.2157 0.0000 0.0000 0.0000
# 2 24.5430 41.2347 -13.3160 0.0000 0.0000 0.0000
# 3 -4.2157 -13.3160 67.1318 0.0000 0.0000 0.0000
# 4 0.0000 0.0000 0.0000 19.4300 0.0000 0.0000
# 5 0.0000 0.0000 0.0000 0.0000 -3.6879 0.0000
# 6 0.0000 0.0000 0.0000 0.0000 0.0000 59.8764
#
#
#
# Elastic Compliance Matrix: (Units=1/GPa)
#
#
# Indices 1 2 3 4 5 6 
#
# 1 0.014389 -0.008839 -0.000850 0.000000 0.000000 0.000000
# 2 -0.008839 0.031340 0.005662 0.000000 0.000000 0.000000
# 3 -0.000850 0.005662 0.015966 0.000000 0.000000 0.000000
# 4 0.000000 0.000000 0.000000 0.051467 0.000000 0.000000
# 5 0.000000 0.000000 0.000000 0.000000 -0.271154 0.000000
# 6 0.000000 0.000000 0.000000 0.000000 0.000000 0.016701
#
#
# Mechanical properties :
#
#
# Convention : Reuss Voigt Hill
#
# Bulk Modulus (GPa) = 18.64224 22.96828 20.80526
# Shear Modulus (GPa) = -43.34381 27.50242 -7.92069
#
# Velocity S-wave (km/s) = -4.45673 3.55008 -1.90517
# Velocity P-wave (km/s) = 4.23561 5.22775 2.16668
#
# Compressibility (1/GPa) = 0.05364164
#
# Stress axis : x y z
#
# Youngs Moduli (GPa) = 69.49841 31.90760 62.63422
#
# Poissons Ratio (x) = 0.28202 0.05322
# Poissons Ratio (y) = 0.61427 -0.35461
# Poissons Ratio (z) = 0.05905 -0.18065
#
# Static dielectric constant tensor:
#      x y z
#    x 1.805640 0.000000 0.000000 
#    y 0.000000 1.744260 0.000000 
#    z 0.000000 0.000000 1.827300 
# 
# From -- ./inp_files/8537.got.cif
#   From: 2010.05.17/outbox.cif.g08.bks.cpg/sg63_5_cif.got.tgz:8537.got - 2010.06.03 15:47:04.
