data_PCOD9471923
_publ_section_title
;
Structure prediction by ZEFSAII (Michael W. Deem and Ramdas Pophale) SiO2 
 PCOD9471923
Probable space group: C M C M
;
_chemical_formula_sum "Si O2"
_cell_formula_units_Z 96
_cell_length_a 7.950692
_cell_length_b 28.569414
_cell_length_c 23.304511
_cell_angle_alpha 90.000000
_cell_angle_beta 90.000000
_cell_angle_gamma 90.000000
_cell_volume 5293.540702
_symmetry_space_group_name_H-M "C M C M"
_symmetry_group_IT_number 63
_symmetry_cell_setting 'orthorhombic'
loop_
_space_group_symop_operation_xyz
x,y,z
-x,-y,1/2+z
x,-y,-z
-x,y,1/2-z
-x,-y,-z
x,y,1/2-z
-x,y,z
x,-y,1/2+z
1/2+x,1/2+y,z
1/2-x,1/2-y,1/2+z
1/2+x,1/2-y,-z
1/2-x,1/2+y,1/2-z
1/2-x,1/2-y,-z
1/2+x,1/2+y,1/2-z
1/2-x,1/2+y,z
1/2+x,1/2-y,1/2+z
loop_
_atom_site_type_symbol
_atom_site_label
_atom_site_fract_x
_atom_site_fract_y
_atom_site_fract_z
Si Si1 0.699961 0.199001 0.941742
Si Si2 0.294583 0.370814 0.250000
Si Si3 0.799418 0.215608 0.130393
Si Si4 0.200287 0.762228 0.250000
Si Si5 0.204185 0.891661 0.125557
Si Si6 0.199939 0.358785 0.549154
Si Si7 0.701045 0.449073 0.016407
O O1 0.500000 0.205392 0.949597
O O2 0.772137 0.246594 0.915659
O O3 0.731859 0.158817 0.895053
O O4 0.770764 0.176909 0.000286
O O5 0.500000 0.369574 0.250000
O O6 0.236411 0.316289 0.250000
O O7 0.242693 0.396478 0.308536
O O8 0.752270 0.234186 0.193051
O O9 0.741155 0.164560 0.109898
O O10 0.000000 0.216318 0.126934
O O11 0.000000 0.765519 0.250000
O O12 0.264308 0.928278 0.077272
O O13 0.000000 0.891065 0.123726
O O14 0.266037 0.409789 0.531949
O O15 0.000000 0.360898 0.542667
O O16 0.500000 0.453377 0.022424
O O17 0.769444 0.500000 0.000000
#
# Coordination Sequence:
#
# PCOD9471923 Si02
#       7
#    16   8  16   8  16  16  16
#     4   9  18  30  45  69 100 130 163 200 243 292
#     4   9  16  27  45  70  97 128 163 200 239 290
#     4  11  21  33  48  70 101 136 170 205 244 291
#     4  11  21  33  49  70  99 138 175 206 241 292
#     4   9  16  28  47  70  97 128 164 202 248 305
#     4  10  20  33  50  73  98 129 166 207 252 302
#     4   9  18  33  53  75  98 127 164 213 269 317
#
# _framework density 18.13531
#
# number of rings (size 3 to 8) (size 9 to 14) (size 15 to 20)
#    0.000    2.333    1.667    1.750    0.000    1.667 
#    0.000    0.417    0.000    1.000    0.000    3.500 
#    0.000    0.000    0.000    0.000    0.000    0.000 
#
# Total GULP energy -267575.720345 kJ/mol
# GULP energy per Si atom -5574.494174 kJ/mol
# Density = 1.809403 g / cm^3
# Si number density = 18.135310 Si / 1000 Ang^3
#
#
#
# Elastic Constant Matrix: (Units=GPa)
#
#
# Indices 1 2 3 4 5 6 
#
# 1 14.0211 0.8942 -0.8780 0.0000 0.0000 0.0000
# 2 0.8942 127.6685 69.5679 0.0000 0.0000 0.0000
# 3 -0.8780 69.5679 67.4592 0.0000 0.0000 0.0000
# 4 0.0000 0.0000 0.0000 14.1784 0.0000 0.0000
# 5 0.0000 0.0000 0.0000 0.0000 13.0639 0.0000
# 6 0.0000 0.0000 0.0000 0.0000 0.0000 14.6033
#
#
#
# Elastic Compliance Matrix: (Units=1/GPa)
#
#
# Indices 1 2 3 4 5 6 
#
# 1 0.071675 -0.002306 0.003311 0.000000 0.000000 0.000000
# 2 -0.002306 0.017955 -0.018546 0.000000 0.000000 0.000000
# 3 0.003311 -0.018546 0.033993 0.000000 0.000000 0.000000
# 4 0.000000 0.000000 0.000000 0.070530 0.000000 0.000000
# 5 0.000000 0.000000 0.000000 0.000000 0.076547 0.000000
# 6 0.000000 0.000000 0.000000 0.000000 0.000000 0.068478
#
#
# Mechanical properties :
#
#
# Convention : Reuss Voigt Hill
#
# Bulk Modulus (GPa) = 11.29422 38.70188 24.99805
# Shear Modulus (GPa) = 12.38317 17.67343 15.02830
#
# Velocity S-wave (km/s) = 2.61592 3.12514 2.88180
# Velocity P-wave (km/s) = 3.91986 5.86591 4.98870
#
# Compressibility (1/GPa) = 0.08854083
#
# Stress axis : x y z
#
# Youngs Moduli (GPa) = 13.95177 55.69482 29.41793
#
# Poissons Ratio (x) = 0.12846 -0.09742
# Poissons Ratio (y) = 0.03218 0.54559
# Poissons Ratio (z) = -0.04620 1.03293
#
# Static dielectric constant tensor:
#      x y z
#    x 1.633460 0.000000 0.000000 
#    y 0.000000 1.624300 0.000000 
#    z 0.000000 0.000000 1.651570 
# 
# From -- ./inp_files/60290.got.cif
#   From: 2010.05.17/outbox.cif.g08.bks.cpg/sg63_31_cif.got.tgz:60290.got - 2010.06.03 15:47:04.
