data_PCOD9471520
_publ_section_title
;
Structure prediction by ZEFSAII (Michael W. Deem and Ramdas Pophale) SiO2 
 PCOD9471520
Probable space group: C M C M
;
_chemical_formula_sum "Si O2"
_cell_formula_units_Z 56
_cell_length_a 18.298137
_cell_length_b 15.651351
_cell_length_c 10.552541
_cell_angle_alpha 90.000000
_cell_angle_beta 90.000000
_cell_angle_gamma 90.000000
_cell_volume 3022.148177
_symmetry_space_group_name_H-M "C M C M"
_symmetry_group_IT_number 63
_symmetry_cell_setting 'orthorhombic'
loop_
_space_group_symop_operation_xyz
x,y,z
-x,-y,1/2+z
x,-y,-z
-x,y,1/2-z
-x,-y,-z
x,y,1/2-z
-x,y,z
x,-y,1/2+z
1/2+x,1/2+y,z
1/2-x,1/2-y,1/2+z
1/2+x,1/2-y,-z
1/2-x,1/2+y,1/2-z
1/2-x,1/2-y,-z
1/2+x,1/2+y,1/2-z
1/2-x,1/2+y,z
1/2+x,1/2-y,1/2+z
loop_
_atom_site_type_symbol
_atom_site_label
_atom_site_fract_x
_atom_site_fract_y
_atom_site_fract_z
Si Si1 0.500000 0.230845 0.896721
Si Si2 0.000000 0.121103 0.893595
Si Si3 0.377939 0.500000 0.000000
Si Si4 0.662085 0.177822 0.893226
Si Si5 0.731555 0.632509 0.391098
O O1 0.500000 0.263907 0.750000
O O2 0.575027 0.178645 0.912005
O O3 0.500000 0.306072 0.999533
O O4 0.000000 0.154429 0.750000
O O5 0.070180 0.061516 0.918123
O O6 0.326996 0.558770 0.086286
O O7 0.678774 0.147995 0.750000
O O8 0.688989 0.276773 0.901369
O O9 0.707412 0.129621 0.000307
O O10 0.763226 0.628012 0.250000
#
# Coordination Sequence:
#
# PCOD9471520 Si02
#       5
#     8   8   8  16  16
#     4  10  19  37  58  78 111 147 176 218 275 326
#     4  11  23  33  52  84 113 144 180 216 261 326
#     4  11  22  36  52  79 116 150 176 217 272 328
#     4   9  19  35  55  77 105 143 183 222 267 320
#     4  10  20  35  54  77 108 146 183 222 265 319
#
# _framework density 18.529865999999998
#
# number of rings (size 3 to 8) (size 9 to 14) (size 15 to 20)
#    0.000    2.000    2.857    0.857    0.000    5.714 
#    0.000    0.000    0.000    0.857    0.000    0.000 
#    0.000    0.000    0.000    0.000    0.000    0.000 
#
# Total GULP energy -156280.019585 kJ/mol
# GULP energy per Si atom -5581.429271 kJ/mol
# Density = 1.848769 g / cm^3
# Si number density = 18.529866 Si / 1000 Ang^3
#
#
#
# Elastic Constant Matrix: (Units=GPa)
#
#
# Indices 1 2 3 4 5 6 
#
# 1 124.1176 13.4727 81.9489 0.0000 0.0000 0.0000
# 2 13.4727 19.9710 23.8790 0.0000 0.0000 0.0000
# 3 81.9489 23.8790 133.4433 0.0000 0.0000 0.0000
# 4 0.0000 0.0000 0.0000 14.9721 0.0000 0.0000
# 5 0.0000 0.0000 0.0000 0.0000 9.3623 0.0000
# 6 0.0000 0.0000 0.0000 0.0000 0.0000 21.5592
#
#
#
# Elastic Compliance Matrix: (Units=1/GPa)
#
#
# Indices 1 2 3 4 5 6 
#
# 1 0.013568 0.001030 -0.008517 0.000000 0.000000 0.000000
# 2 0.001030 0.063781 -0.012046 0.000000 0.000000 0.000000
# 3 -0.008517 -0.012046 0.014880 0.000000 0.000000 0.000000
# 4 0.000000 0.000000 0.000000 0.066791 0.000000 0.000000
# 5 0.000000 0.000000 0.000000 0.000000 0.106811 0.000000
# 6 0.000000 0.000000 0.000000 0.000000 0.000000 0.046384
#
#
# Mechanical properties :
#
#
# Convention : Reuss Voigt Hill
#
# Bulk Modulus (GPa) = 18.80994 57.34812 38.07903
# Shear Modulus (GPa) = 13.55014 19.72750 16.63882
#
# Velocity S-wave (km/s) = 2.70711 3.26641 2.99983
# Velocity P-wave (km/s) = 4.46592 6.72623 5.70905
#
# Compressibility (1/GPa) = 0.05316339
#
# Stress axis : x y z
#
# Youngs Moduli (GPa) = 73.70153 15.67877 67.20648
#
# Poissons Ratio (x) = -0.01615 0.57238
# Poissons Ratio (y) = -0.07591 0.80955
# Poissons Ratio (z) = 0.62769 0.18886
#
# Static dielectric constant tensor:
#      x y z
#    x 1.628270 0.000000 0.000000 
#    y 0.000000 1.621250 0.000000 
#    z 0.000000 0.000000 1.642290 
# 
# From -- ./inp_files/5573.got.cif
#   From: 2010.05.17/outbox.cif.g08.bks.cpg/sg63_3_cif.got.tgz:5573.got - 2010.06.03 15:47:04.
