data_PCOD9471774
_publ_section_title
;
Structure prediction by ZEFSAII (Michael W. Deem and Ramdas Pophale) SiO2 
 PCOD9471774
Probable space group: C M C M
;
_chemical_formula_sum "Si O2"
_cell_formula_units_Z 80
_cell_length_a 27.870064
_cell_length_b 18.418551
_cell_length_c 8.740721
_cell_angle_alpha 90.000000
_cell_angle_beta 90.000000
_cell_angle_gamma 90.000000
_cell_volume 4486.841054
_symmetry_space_group_name_H-M "C M C M"
_symmetry_group_IT_number 63
_symmetry_cell_setting 'orthorhombic'
loop_
_space_group_symop_operation_xyz
x,y,z
-x,-y,1/2+z
x,-y,-z
-x,y,1/2-z
-x,-y,-z
x,y,1/2-z
-x,y,z
x,-y,1/2+z
1/2+x,1/2+y,z
1/2-x,1/2-y,1/2+z
1/2+x,1/2-y,-z
1/2-x,1/2+y,1/2-z
1/2-x,1/2-y,-z
1/2+x,1/2+y,1/2-z
1/2-x,1/2+y,z
1/2+x,1/2-y,1/2+z
loop_
_atom_site_type_symbol
_atom_site_label
_atom_site_fract_x
_atom_site_fract_y
_atom_site_fract_z
Si Si1 0.947796 0.727280 0.565916
Si Si2 0.345166 0.714862 0.434433
Si Si3 0.085313 0.577247 0.430972
Si Si4 0.790138 0.078086 0.567420
Si Si5 0.808269 0.364546 0.567692
O O1 0.946970 0.725227 0.750000
O O2 0.900686 0.772031 0.518571
O O3 0.941100 0.645565 0.505695
O O4 0.000000 0.755414 0.516250
O O5 0.341812 0.714395 0.250000
O O6 0.323661 0.641679 0.502215
O O7 0.316297 0.784292 0.499047
O O8 0.071534 0.500000 0.500000
O O9 0.077064 0.577564 0.250000
O O10 0.142083 0.592232 0.458292
O O11 0.791781 0.076765 0.750000
O O12 0.736369 0.097043 0.511656
O O13 0.803713 0.000000 0.500000
O O14 0.800064 0.359709 0.750000
#
# Coordination Sequence:
#
# PCOD9471774 Si02
#       5
#    16  16  16  16  16
#     4   9  19  36  57  78 100 131 172 216 262 311
#     4  10  20  36  57  80 107 138 173 214 259 307
#     4  10  20  32  49  74 106 142 177 215 256 301
#     4  12  24  37  54  78 108 140 175 214 259 308
#     4  10  20  35  54  78 108 143 181 214 251 301
#
# _framework density 17.829915
#
# number of rings (size 3 to 8) (size 9 to 14) (size 15 to 20)
#    0.000    1.800    0.000    4.800    0.000    5.600 
#    0.000    0.000    0.000    0.600    0.000    0.000 
#    0.000    0.000    0.000    0.000    0.000    0.000 
#
# Total GULP energy -223507.202892 kJ/mol
# GULP energy per Si atom -5587.680072 kJ/mol
# Density = 1.778933 g / cm^3
# Si number density = 17.829915 Si / 1000 Ang^3
#
#
#
# Elastic Constant Matrix: (Units=GPa)
#
#
# Indices 1 2 3 4 5 6 
#
# 1 42.0297 -2.5528 9.6098 0.0000 0.0000 0.0000
# 2 -2.5528 58.5467 13.6485 0.0000 0.0000 0.0000
# 3 9.6098 13.6485 52.7799 0.0000 0.0000 0.0000
# 4 0.0000 0.0000 0.0000 27.9929 0.0000 0.0000
# 5 0.0000 0.0000 0.0000 0.0000 15.1456 0.0000
# 6 0.0000 0.0000 0.0000 0.0000 0.0000 1.9807
#
#
#
# Elastic Compliance Matrix: (Units=1/GPa)
#
#
# Indices 1 2 3 4 5 6 
#
# 1 0.025114 0.002300 -0.005167 0.000000 0.000000 0.000000
# 2 0.002300 0.018387 -0.005173 0.000000 0.000000 0.000000
# 3 -0.005167 -0.005173 0.021225 0.000000 0.000000 0.000000
# 4 0.000000 0.000000 0.000000 0.035723 0.000000 0.000000
# 5 0.000000 0.000000 0.000000 0.000000 0.066026 0.000000
# 6 0.000000 0.000000 0.000000 0.000000 0.000000 0.504879
#
#
# Mechanical properties :
#
#
# Convention : Reuss Voigt Hill
#
# Bulk Modulus (GPa) = 20.55759 21.64080 21.09919
# Shear Modulus (GPa) = 7.10580 17.86723 12.48651
#
# Velocity S-wave (km/s) = 1.99849 3.16902 2.64921
# Velocity P-wave (km/s) = 4.10855 5.05509 4.60620
#
# Compressibility (1/GPa) = 0.04864383
#
# Stress axis : x y z
#
# Youngs Moduli (GPa) = 39.81870 54.38728 47.11382
#
# Poissons Ratio (x) = -0.12507 0.24345
# Poissons Ratio (y) = -0.09157 0.24374
# Poissons Ratio (z) = 0.20575 0.28136
#
# Static dielectric constant tensor:
#      x y z
#    x 1.637710 0.000000 0.000000 
#    y 0.000000 1.570990 0.000000 
#    z 0.000000 0.000000 1.588560 
# 
# From -- ./inp_files/11989.got.cif
#   From: 2010.05.17/outbox.cif.g08.bks.cpg/sg63_6_cif.got.tgz:11989.got - 2010.06.03 15:47:04.
