data_PCOD9471695
_publ_section_title
;
Structure prediction by ZEFSAII (Michael W. Deem and Ramdas Pophale) SiO2 
 PCOD9471695
Probable space group: C M C M
;
_chemical_formula_sum "Si O2"
_cell_formula_units_Z 80
_cell_length_a 7.553379
_cell_length_b 27.181664
_cell_length_c 19.753033
_cell_angle_alpha 90.000000
_cell_angle_beta 90.000000
_cell_angle_gamma 90.000000
_cell_volume 4055.562564
_symmetry_space_group_name_H-M "C M C M"
_symmetry_group_IT_number 63
_symmetry_cell_setting 'orthorhombic'
loop_
_space_group_symop_operation_xyz
x,y,z
-x,-y,1/2+z
x,-y,-z
-x,y,1/2-z
-x,-y,-z
x,y,1/2-z
-x,y,z
x,-y,1/2+z
1/2+x,1/2+y,z
1/2-x,1/2-y,1/2+z
1/2+x,1/2-y,-z
1/2-x,1/2+y,1/2-z
1/2-x,1/2-y,-z
1/2+x,1/2+y,1/2-z
1/2-x,1/2+y,z
1/2+x,1/2-y,1/2+z
loop_
_atom_site_type_symbol
_atom_site_label
_atom_site_fract_x
_atom_site_fract_y
_atom_site_fract_z
Si Si1 0.709334 0.196645 0.068645
Si Si2 0.214191 0.889672 0.827543
Si Si3 0.704499 0.694793 0.915572
Si Si4 0.717250 0.603972 0.671227
Si Si5 0.205665 0.996786 0.832386
O O1 0.500000 0.202685 0.056803
O O2 0.736863 0.154429 0.123297
O O3 0.780498 0.250122 0.092020
O O4 0.788936 0.183912 0.995613
O O5 0.273533 0.881319 0.750000
O O6 0.280997 0.943508 0.851589
O O7 0.000000 0.892594 0.825856
O O8 0.500000 0.698068 0.893474
O O9 0.781341 0.649605 0.873295
O O10 0.764515 0.610573 0.750000
O O11 0.500000 0.602160 0.668595
O O12 0.780651 0.549872 0.647440
O O13 0.207413 0.996906 0.750000
O O14 0.000000 0.996681 0.853989
#
# Coordination Sequence:
#
# PCOD9471695 Si02
#       5
#    16  16  16  16  16
#     4  10  20  32  46  65  92 125 156 187 225 269
#     4   9  17  30  49  71  93 118 149 184 222 268
#     4   9  18  32  49  67  89 120 155 189 227 270
#     4   8  13  24  46  73  93 109 140 190 236 267
#     4   7  11  22  42  68  93 113 138 179 228 269
#
# _framework density 19.725992999999999
#
# number of rings (size 3 to 8) (size 9 to 14) (size 15 to 20)
#    0.000    3.400    0.000    3.000    0.000    2.000 
#    0.000    3.000    0.000    7.800    0.000    2.800 
#    0.000    0.000    0.000    0.000    0.000    0.000 
#
# Total GULP energy -222740.676660 kJ/mol
# GULP energy per Si atom -5568.516916 kJ/mol
# Density = 1.968110 g / cm^3
# Si number density = 19.725993 Si / 1000 Ang^3
#
#
#
# Elastic Constant Matrix: (Units=GPa)
#
#
# Indices 1 2 3 4 5 6 
#
# 1 47.4224 -0.1611 -6.6703 0.0000 0.0000 0.0000
# 2 -0.1611 219.9043 101.3201 0.0000 0.0000 0.0000
# 3 -6.6703 101.3201 63.7424 0.0000 0.0000 0.0000
# 4 0.0000 0.0000 0.0000 -67.9191 0.0000 0.0000
# 5 0.0000 0.0000 0.0000 0.0000 8.4213 0.0000
# 6 0.0000 0.0000 0.0000 0.0000 0.0000 10.4981
#
#
#
# Elastic Compliance Matrix: (Units=1/GPa)
#
#
# Indices 1 2 3 4 5 6 
#
# 1 0.022286 -0.003954 0.008617 0.000000 0.000000 0.000000
# 2 -0.003954 0.017693 -0.028537 0.000000 0.000000 0.000000
# 3 0.008617 -0.028537 0.061950 0.000000 0.000000 0.000000
# 4 0.000000 0.000000 0.000000 -0.014723 0.000000 0.000000
# 5 0.000000 0.000000 0.000000 0.000000 0.118746 0.000000
# 6 0.000000 0.000000 0.000000 0.000000 0.000000 0.095255
#
#
# Mechanical properties :
#
#
# Convention : Reuss Voigt Hill
#
# Bulk Modulus (GPa) = 18.45683 57.78296 38.11989
# Shear Modulus (GPa) = 13.62342 5.97208 9.79775
#
# Velocity S-wave (km/s) = 2.63084 1.74186 2.23108
# Velocity P-wave (km/s) = 4.31339 5.77943 5.09937
#
# Compressibility (1/GPa) = 0.05418049
#
# Stress axis : x y z
#
# Youngs Moduli (GPa) = 44.87191 56.52010 16.14206
#
# Poissons Ratio (x) = 0.22347 -0.13909
# Poissons Ratio (y) = 0.17742 0.46064
# Poissons Ratio (z) = -0.38665 1.61291
#
# Static dielectric constant tensor:
#      x y z
#    x 1.791990 0.000000 0.000000 
#    y 0.000000 1.746600 0.000000 
#    z 0.000000 0.000000 1.635830 
# 
# From -- ./inp_files/40513.got.cif
#   From: 2010.05.17/outbox.cif.g08.bks.cpg/sg63_21_cif.got.tgz:40513.got - 2010.06.03 15:47:04.
