data_PCOD9471213
_publ_section_title
;
Structure prediction by ZEFSAII (Michael W. Deem and Ramdas Pophale) SiO2 
 PCOD9471213
Probable space group: C M C M
;
_chemical_formula_sum "Si O2"
_cell_formula_units_Z 80
_cell_length_a 23.876457
_cell_length_b 25.962440
_cell_length_c 7.591301
_cell_angle_alpha 90.000000
_cell_angle_beta 90.000000
_cell_angle_gamma 90.000000
_cell_volume 4705.779793
_symmetry_space_group_name_H-M "C M C M"
_symmetry_group_IT_number 63
_symmetry_cell_setting 'orthorhombic'
loop_
_space_group_symop_operation_xyz
x,y,z
-x,-y,1/2+z
x,-y,-z
-x,y,1/2-z
-x,-y,-z
x,y,1/2-z
-x,y,z
x,-y,1/2+z
1/2+x,1/2+y,z
1/2-x,1/2-y,1/2+z
1/2+x,1/2-y,-z
1/2-x,1/2+y,1/2-z
1/2-x,1/2-y,-z
1/2+x,1/2+y,1/2-z
1/2-x,1/2+y,z
1/2+x,1/2-y,1/2+z
loop_
_atom_site_type_symbol
_atom_site_label
_atom_site_fract_x
_atom_site_fract_y
_atom_site_fract_z
Si Si1 0.741492 0.171100 0.464383
Si Si2 0.655313 0.739310 0.452571
Si Si3 0.062125 0.882772 0.250000
Si Si4 0.123070 0.943405 0.958016
Si Si5 0.935636 0.760610 0.250000
Si Si6 0.752638 0.443591 0.539964
O O1 0.739094 0.173742 0.250000
O O2 0.697377 0.212001 0.537619
O O3 0.804266 0.191399 0.510966
O O4 0.727508 0.112738 0.522675
O O5 0.638296 0.730387 0.250000
O O6 0.603141 0.750720 0.579646
O O7 0.092583 0.902029 0.424408
O O8 0.059451 0.821966 0.250000
O O9 0.000000 0.905097 0.250000
O O10 0.120721 0.933164 0.750000
O O11 0.187845 0.945296 0.017394
O O12 0.099277 0.000000 0.000000
O O13 0.000000 0.739815 0.250000
O O14 0.778266 0.500000 0.500000
O O15 0.753158 0.440314 0.750000
#
# Coordination Sequence:
#
# PCOD9471213 Si02
#       6
#    16  16   8  16   8  16
#     4   9  17  32  52  79 110 137 171 218 263 310
#     4  10  20  35  56  80 103 137 179 218 264 311
#     4  11  24  36  50  69  86 124 172 216 268 300
#     4  10  19  35  50  68  94 127 171 211 253 305
#     4  11  24  40  54  73 106 138 173 220 266 316
#     4   9  18  29  46  71 104 138 163 196 248 311
#
# _framework density 17.00037
#
# number of rings (size 3 to 8) (size 9 to 14) (size 15 to 20)
#    0.000    2.200    2.000    1.200    2.800    4.400 
#    0.000    2.000    0.000    0.000    0.000    0.000 
#    0.000    0.800    0.400    0.000    0.000    0.000 
#
# Total GULP energy -222895.965563 kJ/mol
# GULP energy per Si atom -5572.399139 kJ/mol
# Density = 1.696168 g / cm^3
# Si number density = 17.000370 Si / 1000 Ang^3
#
#
#
# Elastic Constant Matrix: (Units=GPa)
#
#
# Indices 1 2 3 4 5 6 
#
# 1 67.7016 10.4215 28.7767 0.0000 0.0000 0.0000
# 2 10.4215 95.0149 2.6477 0.0000 0.0000 0.0000
# 3 28.7767 2.6477 72.0260 0.0000 0.0000 0.0000
# 4 0.0000 0.0000 0.0000 17.4545 0.0000 0.0000
# 5 0.0000 0.0000 0.0000 0.0000 19.0894 0.0000
# 6 0.0000 0.0000 0.0000 0.0000 0.0000 15.4367
#
#
#
# Elastic Compliance Matrix: (Units=1/GPa)
#
#
# Indices 1 2 3 4 5 6 
#
# 1 0.018090 -0.001785 -0.007162 0.000000 0.000000 0.000000
# 2 -0.001785 0.010712 0.000319 0.000000 0.000000 0.000000
# 3 -0.007162 0.000319 0.016734 0.000000 0.000000 0.000000
# 4 0.000000 0.000000 0.000000 0.057292 0.000000 0.000000
# 5 0.000000 0.000000 0.000000 0.000000 0.052385 0.000000
# 6 0.000000 0.000000 0.000000 0.000000 0.000000 0.064781
#
#
# Mechanical properties :
#
#
# Convention : Reuss Voigt Hill
#
# Bulk Modulus (GPa) = 35.36021 35.38160 35.37091
# Shear Modulus (GPa) = 20.26976 23.25590 21.76283
#
# Velocity S-wave (km/s) = 3.45673 3.70261 3.58178
# Velocity P-wave (km/s) = 6.06439 6.25592 6.16090
#
# Compressibility (1/GPa) = 0.02828037
#
# Stress axis : x y z
#
# Youngs Moduli (GPa) = 55.28061 93.35752 59.76036
#
# Poissons Ratio (x) = 0.16660 0.42799
# Poissons Ratio (y) = 0.09865 -0.01908
# Poissons Ratio (z) = 0.39591 -0.02980
#
# Static dielectric constant tensor:
#      x y z
#    x 1.568650 0.000000 0.000000 
#    y 0.000000 1.632870 0.000000 
#    z 0.000000 0.000000 1.618400 
# 
# From -- ./inp_files/10380.got.cif
#   From: 2010.05.17/outbox.cif.g08.bks.cpg/sg63_6_cif.got.tgz:10380.got - 2010.06.03 15:47:04.
