data_PCOD9471080
_publ_section_title
;
Structure prediction by ZEFSAII (Michael W. Deem and Ramdas Pophale) SiO2 
 PCOD9471080
Probable space group: C M C M
;
_chemical_formula_sum "Si O2"
_cell_formula_units_Z 116
_cell_length_a 27.672374
_cell_length_b 29.299622
_cell_length_c 7.868866
_cell_angle_alpha 90.000000
_cell_angle_beta 90.000000
_cell_angle_gamma 90.000000
_cell_volume 6379.998636
_symmetry_space_group_name_H-M "C M C M"
_symmetry_group_IT_number 63
_symmetry_cell_setting 'orthorhombic'
loop_
_space_group_symop_operation_xyz
x,y,z
-x,-y,1/2+z
x,-y,-z
-x,y,1/2-z
-x,-y,-z
x,y,1/2-z
-x,y,z
x,-y,1/2+z
1/2+x,1/2+y,z
1/2-x,1/2-y,1/2+z
1/2+x,1/2-y,-z
1/2-x,1/2+y,1/2-z
1/2-x,1/2-y,-z
1/2+x,1/2+y,1/2-z
1/2-x,1/2+y,z
1/2+x,1/2-y,1/2+z
loop_
_atom_site_type_symbol
_atom_site_label
_atom_site_fract_x
_atom_site_fract_y
_atom_site_fract_z
Si Si1 0.680219 0.647364 0.446359
Si Si2 0.577790 0.692905 0.447994
Si Si3 0.315383 0.050224 0.954074
Si Si4 0.229776 0.701598 0.942243
Si Si5 0.704063 0.449602 0.047067
Si Si6 0.859558 0.355518 0.456732
Si Si7 0.000000 0.174767 0.750000
Si Si8 0.444363 0.792802 0.548201
O O1 0.691528 0.656813 0.250000
O O2 0.630983 0.673533 0.487074
O O3 0.726238 0.665834 0.548154
O O4 0.675520 0.593294 0.473756
O O5 0.565922 0.680099 0.250000
O O6 0.541668 0.676776 0.596525
O O7 0.576663 0.747923 0.458398
O O8 0.313066 0.052716 0.750000
O O9 0.259781 0.053670 0.016672
O O10 0.346055 0.093438 0.014480
O O11 0.333935 0.000000 0.000000
O O12 0.215005 0.709401 0.750000
O O13 0.182631 0.678499 0.023978
O O14 0.250000 0.750000 0.000000
O O15 0.704239 0.445536 0.250000
O O16 0.686023 0.500000 0.000000
O O17 0.858696 0.356047 0.250000
O O18 0.910632 0.335758 0.513051
O O19 0.444893 0.783100 0.750000
O O20 0.500000 0.799107 0.494735
#
# Coordination Sequence:
#
# PCOD9471080 Si02
#       8
#    16  16  16  16  16  16   4  16
#     4  11  23  36  55  84 118 152 192 232 287 349
#     4  11  23  39  60  88 120 153 196 250 293 342
#     4   9  18  34  53  78 108 145 186 231 284 343
#     4  11  22  36  51  74 115 155 189 229 277 346
#     4  10  19  34  56  81 116 152 187 235 283 341
#     4  10  21  36  53  78 110 149 189 234 292 347
#     4  12  22  40  64  86 118 152 206 240 294 350
#     4  11  22  38  57  82 112 147 197 247 293 347
#
# _framework density 18.181822
#
# number of rings (size 3 to 8) (size 9 to 14) (size 15 to 20)
#    0.000    1.517    2.759    2.690    1.931    6.345 
#    0.000    0.000    0.000    0.414    0.000    0.483 
#    0.000    0.000    0.000    0.000    0.000    0.000 
#
# Total GULP energy -323152.955152 kJ/mol
# GULP energy per Si atom -5571.602675 kJ/mol
# Density = 1.814044 g / cm^3
# Si number density = 18.181822 Si / 1000 Ang^3
#
#
#
# Elastic Constant Matrix: (Units=GPa)
#
#
# Indices 1 2 3 4 5 6 
#
# 1 84.7260 59.7424 10.2404 0.0000 0.0000 0.0000
# 2 59.7424 121.1045 4.2922 0.0000 0.0000 0.0000
# 3 10.2404 4.2922 45.1623 0.0000 0.0000 0.0000
# 4 0.0000 0.0000 0.0000 26.2998 0.0000 0.0000
# 5 0.0000 0.0000 0.0000 0.0000 24.1237 0.0000
# 6 0.0000 0.0000 0.0000 0.0000 0.0000 9.5755
#
#
#
# Elastic Compliance Matrix: (Units=1/GPa)
#
#
# Indices 1 2 3 4 5 6 
#
# 1 0.018591 -0.009052 -0.003355 0.000000 0.000000 0.000000
# 2 -0.009052 0.012693 0.000846 0.000000 0.000000 0.000000
# 3 -0.003355 0.000846 0.022823 0.000000 0.000000 0.000000
# 4 0.000000 0.000000 0.000000 0.038023 0.000000 0.000000
# 5 0.000000 0.000000 0.000000 0.000000 0.041453 0.000000
# 6 0.000000 0.000000 0.000000 0.000000 0.000000 0.104433
#
#
# Mechanical properties :
#
#
# Convention : Reuss Voigt Hill
#
# Bulk Modulus (GPa) = 32.27435 44.39365 38.33400
# Shear Modulus (GPa) = 18.41843 23.78099 21.09971
#
# Velocity S-wave (km/s) = 3.18624 3.62049 3.41028
# Velocity P-wave (km/s) = 5.59693 6.47663 6.05278
#
# Compressibility (1/GPa) = 0.03098435
#
# Stress axis : x y z
#
# Youngs Moduli (GPa) = 53.78838 78.78344 43.81605
#
# Poissons Ratio (x) = 0.71318 0.14701
# Poissons Ratio (y) = 0.48692 -0.03708
# Poissons Ratio (z) = 0.18047 -0.06667
#
# Static dielectric constant tensor:
#      x y z
#    x 1.616850 0.000000 0.000000 
#    y 0.000000 1.638330 0.000000 
#    z 0.000000 0.000000 1.698170 
# 
# From -- ./inp_files/13195.got.cif
#   From: 2010.05.17/outbox.cif.g08.bks.cpg/sg63_7_cif.got.tgz:13195.got - 2010.06.03 15:47:04.
