data_PCOD9471759
_publ_section_title
;
Structure prediction by ZEFSAII (Michael W. Deem and Ramdas Pophale) SiO2 
 PCOD9471759
Probable space group: C M C M
;
_chemical_formula_sum "Si O2"
_cell_formula_units_Z 80
_cell_length_a 18.540897
_cell_length_b 28.103210
_cell_length_c 8.809764
_cell_angle_alpha 90.000000
_cell_angle_beta 90.000000
_cell_angle_gamma 90.000000
_cell_volume 4590.404371
_symmetry_space_group_name_H-M "C M C M"
_symmetry_group_IT_number 63
_symmetry_cell_setting 'orthorhombic'
loop_
_space_group_symop_operation_xyz
x,y,z
-x,-y,1/2+z
x,-y,-z
-x,y,1/2-z
-x,-y,-z
x,y,1/2-z
-x,y,z
x,-y,1/2+z
1/2+x,1/2+y,z
1/2-x,1/2-y,1/2+z
1/2+x,1/2-y,-z
1/2-x,1/2+y,1/2-z
1/2-x,1/2-y,-z
1/2+x,1/2+y,1/2-z
1/2-x,1/2+y,z
1/2+x,1/2-y,1/2+z
loop_
_atom_site_type_symbol
_atom_site_label
_atom_site_fract_x
_atom_site_fract_y
_atom_site_fract_z
Si Si1 0.419346 0.587299 0.431560
Si Si2 0.773624 0.950702 0.431648
Si Si3 0.289122 0.849773 0.431778
Si Si4 0.868900 0.185260 0.567025
Si Si5 0.418571 0.209146 0.432940
O O1 0.411562 0.584560 0.250000
O O2 0.500000 0.571228 0.473203
O O3 0.354822 0.558635 0.509662
O O4 0.408984 0.641817 0.485816
O O5 0.774617 0.952830 0.250000
O O6 0.727732 0.904185 0.477797
O O7 0.746517 0.000000 0.500000
O O8 0.296967 0.848838 0.250000
O O9 0.216068 0.820511 0.468867
O O10 0.358695 0.826547 0.505465
O O11 0.877014 0.179492 0.750000
O O12 0.898107 0.236791 0.522637
O O13 0.417017 0.207885 0.250000
O O14 0.500000 0.198185 0.483469
#
# Coordination Sequence:
#
# PCOD9471759 Si02
#       5
#    16  16  16  16  16
#     4  10  20  32  48  74 106 138 172 207 244 289
#     4  10  21  37  56  76  97 126 166 209 256 305
#     4   9  19  34  52  75 100 129 166 206 249 297
#     4   9  18  33  51  72 102 139 175 207 243 290
#     4  10  20  32  49  75 105 137 170 204 247 297
#
# _framework density 17.427658999999998
#
# number of rings (size 3 to 8) (size 9 to 14) (size 15 to 20)
#    0.000    2.400    0.000    3.600    0.000    8.000 
#    0.000    0.000    0.000    0.600    0.000    0.000 
#    0.000    0.000    0.000    0.000    0.000    0.000 
#
# Total GULP energy -223254.637631 kJ/mol
# GULP energy per Si atom -5581.365941 kJ/mol
# Density = 1.738799 g / cm^3
# Si number density = 17.427659 Si / 1000 Ang^3
#
#
#
# Elastic Constant Matrix: (Units=GPa)
#
#
# Indices 1 2 3 4 5 6 
#
# 1 69.4766 23.5669 15.3750 0.0000 0.0000 0.0000
# 2 23.5669 65.9517 16.4777 0.0000 0.0000 0.0000
# 3 15.3750 16.4777 20.6611 0.0000 0.0000 0.0000
# 4 0.0000 0.0000 0.0000 29.8565 0.0000 0.0000
# 5 0.0000 0.0000 0.0000 0.0000 27.8430 0.0000
# 6 0.0000 0.0000 0.0000 0.0000 0.0000 3.7904
#
#
#
# Elastic Compliance Matrix: (Units=1/GPa)
#
#
# Indices 1 2 3 4 5 6 
#
# 1 0.017981 -0.003849 -0.010311 0.000000 0.000000 0.000000
# 2 -0.003849 0.019760 -0.012895 0.000000 0.000000 0.000000
# 3 -0.010311 -0.012895 0.066357 0.000000 0.000000 0.000000
# 4 0.000000 0.000000 0.000000 0.033494 0.000000 0.000000
# 5 0.000000 0.000000 0.000000 0.000000 0.035916 0.000000
# 6 0.000000 0.000000 0.000000 0.000000 0.000000 0.263828
#
#
# Mechanical properties :
#
#
# Convention : Reuss Voigt Hill
#
# Bulk Modulus (GPa) = 20.00460 29.65874 24.83167
# Shear Modulus (GPa) = 9.84048 19.00927 14.42488
#
# Velocity S-wave (km/s) = 2.37881 3.30624 2.88010
# Velocity P-wave (km/s) = 4.36446 5.62406 5.03382
#
# Compressibility (1/GPa) = 0.04998850
#
# Stress axis : x y z
#
# Youngs Moduli (GPa) = 55.61519 50.60814 15.07008
#
# Poissons Ratio (x) = 0.19480 0.15538
# Poissons Ratio (y) = 0.21407 0.19432
# Poissons Ratio (z) = 0.57343 0.65257
#
# Static dielectric constant tensor:
#      x y z
#    x 1.581760 0.000000 0.000000 
#    y 0.000000 1.589780 0.000000 
#    z 0.000000 0.000000 1.585020 
# 
# From -- ./inp_files/6376.got.cif
#   From: 2010.05.17/outbox.cif.g08.bks.cpg/sg63_4_cif.got.tgz:6376.got - 2010.06.03 15:47:04.
