data_PCOD9471720
_publ_section_title
;
Structure prediction by ZEFSAII (Michael W. Deem and Ramdas Pophale) SiO2 
 PCOD9471720
Probable space group: C M C M
;
_chemical_formula_sum "Si O2"
_cell_formula_units_Z 80
_cell_length_a 14.026510
_cell_length_b 35.118751
_cell_length_c 9.366589
_cell_angle_alpha 90.000000
_cell_angle_beta 90.000000
_cell_angle_gamma 90.000000
_cell_volume 4613.920972
_symmetry_space_group_name_H-M "C M C M"
_symmetry_group_IT_number 63
_symmetry_cell_setting 'orthorhombic'
loop_
_space_group_symop_operation_xyz
x,y,z
-x,-y,1/2+z
x,-y,-z
-x,y,1/2-z
-x,-y,-z
x,y,1/2-z
-x,y,z
x,-y,1/2+z
1/2+x,1/2+y,z
1/2-x,1/2-y,1/2+z
1/2+x,1/2-y,-z
1/2-x,1/2+y,1/2-z
1/2-x,1/2-y,-z
1/2+x,1/2+y,1/2-z
1/2-x,1/2+y,z
1/2+x,1/2-y,1/2+z
loop_
_atom_site_type_symbol
_atom_site_label
_atom_site_fract_x
_atom_site_fract_y
_atom_site_fract_z
Si Si1 0.384795 0.188141 0.914274
Si Si2 0.383715 0.737151 0.913310
Si Si3 0.612543 0.038637 0.420358
Si Si4 0.795095 0.382212 0.580303
Si Si5 0.389777 0.661109 0.417716
O O1 0.353112 0.187951 0.750000
O O2 0.500000 0.188267 0.915120
O O3 0.352692 0.226499 0.994783
O O4 0.349785 0.150881 0.996657
O O5 0.350822 0.739668 0.750000
O O6 0.500000 0.738187 0.911532
O O7 0.359943 0.697186 0.987500
O O8 0.623260 0.033590 0.250000
O O9 0.500000 0.045473 0.449125
O O10 0.671112 0.075986 0.464426
O O11 0.640678 0.000000 0.500000
O O12 0.815883 0.378562 0.750000
O O13 0.683475 0.373203 0.559421
O O14 0.383989 0.672079 0.250000
O O15 0.500000 0.651706 0.448400
#
# Coordination Sequence:
#
# PCOD9471720 Si02
#       5
#    16  16  16  16  16
#     4  10  20  32  47  70 100 131 163 202 246 291
#     4   9  17  30  48  68  93 129 169 206 245 288
#     4   9  18  33  53  76 101 127 154 186 229 286
#     4  10  20  33  51  74  98 127 162 200 243 289
#     4   9  18  33  51  70  94 126 166 209 247 283
#
# _framework density 17.338830999999999
#
# number of rings (size 3 to 8) (size 9 to 14) (size 15 to 20)
#    0.000    2.600    0.000    1.800    0.000    6.800 
#    0.000    2.000    0.000    0.600    0.000    0.000 
#    0.000    0.000    0.000    0.000    0.000    0.000 
#
# Total GULP energy -223285.459986 kJ/mol
# GULP energy per Si atom -5582.136500 kJ/mol
# Density = 1.729937 g / cm^3
# Si number density = 17.338831 Si / 1000 Ang^3
#
#
#
# Elastic Constant Matrix: (Units=GPa)
#
#
# Indices 1 2 3 4 5 6 
#
# 1 65.9604 63.0987 42.6287 0.0000 0.0000 0.0000
# 2 63.0987 173.5513 75.7240 0.0000 0.0000 0.0000
# 3 42.6287 75.7240 71.4472 0.0000 0.0000 0.0000
# 4 0.0000 0.0000 0.0000 30.9326 0.0000 0.0000
# 5 0.0000 0.0000 0.0000 0.0000 15.6518 0.0000
# 6 0.0000 0.0000 0.0000 0.0000 0.0000 31.2212
#
#
#
# Elastic Compliance Matrix: (Units=1/GPa)
#
#
# Indices 1 2 3 4 5 6 
#
# 1 0.026965 -0.005179 -0.010600 0.000000 0.000000 0.000000
# 2 -0.005179 0.011713 -0.009325 0.000000 0.000000 0.000000
# 3 -0.010600 -0.009325 0.030203 0.000000 0.000000 0.000000
# 4 0.000000 0.000000 0.000000 0.032328 0.000000 0.000000
# 5 0.000000 0.000000 0.000000 0.000000 0.063890 0.000000
# 6 0.000000 0.000000 0.000000 0.000000 0.000000 0.032030
#
#
# Mechanical properties :
#
#
# Convention : Reuss Voigt Hill
#
# Bulk Modulus (GPa) = 53.54608 74.87354 64.20981
# Shear Modulus (GPa) = 19.71904 24.19495 21.95700
#
# Velocity S-wave (km/s) = 3.37601 3.73958 3.56244
# Velocity P-wave (km/s) = 6.79307 7.86907 7.35079
#
# Compressibility (1/GPa) = 0.01867550
#
# Stress axis : x y z
#
# Youngs Moduli (GPa) = 37.08472 85.37211 33.10885
#
# Poissons Ratio (x) = 0.44214 0.35095
# Poissons Ratio (y) = 0.19206 0.30873
# Poissons Ratio (z) = 0.39309 0.79606
#
# Static dielectric constant tensor:
#      x y z
#    x 1.632400 0.000000 0.000000 
#    y 0.000000 1.540280 0.000000 
#    z 0.000000 0.000000 1.585690 
# 
# From -- ./inp_files/6664.got.cif
#   From: 2010.05.17/outbox.cif.g08.bks.cpg/sg63_4_cif.got.tgz:6664.got - 2010.06.03 15:47:04.
