data_PCOD9471746
_publ_section_title
;
Structure prediction by ZEFSAII (Michael W. Deem and Ramdas Pophale) SiO2 
 PCOD9471746
Probable space group: C M C M
;
_chemical_formula_sum "Si O2"
_cell_formula_units_Z 96
_cell_length_a 11.829438
_cell_length_b 13.829914
_cell_length_c 20.954981
_cell_angle_alpha 90.000000
_cell_angle_beta 90.000000
_cell_angle_gamma 90.000000
_cell_volume 3428.237201
_symmetry_space_group_name_H-M "C M C M"
_symmetry_group_IT_number 63
_symmetry_cell_setting 'orthorhombic'
loop_
_space_group_symop_operation_xyz
x,y,z
-x,-y,1/2+z
x,-y,-z
-x,y,1/2-z
-x,-y,-z
x,y,1/2-z
-x,y,z
x,-y,1/2+z
1/2+x,1/2+y,z
1/2-x,1/2-y,1/2+z
1/2+x,1/2-y,-z
1/2-x,1/2+y,1/2-z
1/2-x,1/2-y,-z
1/2+x,1/2+y,1/2-z
1/2-x,1/2+y,z
1/2+x,1/2-y,1/2+z
loop_
_atom_site_type_symbol
_atom_site_label
_atom_site_fract_x
_atom_site_fract_y
_atom_site_fract_z
Si Si1 0.376489 0.378939 0.462683
Si Si2 0.383735 0.223083 0.642471
Si Si3 0.877000 0.449430 0.823515
Si Si4 0.625646 0.884909 0.009462
Si Si5 0.874908 0.048307 0.127583
Si Si6 0.145674 0.217270 0.679203
O O1 0.500000 0.355983 0.492255
O O2 0.259738 0.355624 0.501139
O O3 0.376510 0.489164 0.437707
O O4 0.379280 0.326126 0.391623
O O5 0.500000 0.208282 0.677294
O O6 0.376076 0.336215 0.624642
O O7 0.277529 0.200518 0.683101
O O8 0.382507 0.156321 0.580445
O O9 0.880491 0.477170 0.750000
O O10 0.750760 0.477687 0.846471
O O11 0.876959 0.331931 0.826438
O O12 0.000000 0.479574 0.852571
O O13 0.500000 0.856179 0.980311
O O14 0.627673 0.000000 0.000000
O O15 0.000000 0.023285 0.158505
O O16 0.105772 0.185114 0.750000
#
# Coordination Sequence:
#
# PCOD9471746 Si02
#       6
#    16  16  16  16  16  16
#     4  10  20  32  48  72  99 125 154 192 238 282
#     4   8  15  30  50  70  94 124 158 195 234 280
#     4   9  17  29  45  64  87 120 161 198 229 265
#     4   9  18  34  55  74  92 120 158 197 237 282
#     4   9  18  31  46  66  94 125 153 187 234 284
#     4   9  17  29  46  68  94 125 161 197 230 269
#
# _framework density 28.002731000000001
#
# number of rings (size 3 to 8) (size 9 to 14) (size 15 to 20)
#    0.000    3.000    0.000    0.500    0.000    3.333 
#    0.000    5.833    0.000    0.000    0.000    0.000 
#    0.000    0.000    0.000    0.000    0.000    0.000 
#
# Total GULP energy -267454.168060 kJ/mol
# GULP energy per Si atom -5571.961835 kJ/mol
# Density = 2.793900 g / cm^3
# Si number density = 28.002731 Si / 1000 Ang^3
#
#
#
# Elastic Constant Matrix: (Units=GPa)
#
#
# Indices 1 2 3 4 5 6 
#
# 1 392.2166 13.5009 62.8874 0.0000 0.0000 0.0000
# 2 13.5009 143.0197 3.8240 0.0000 0.0000 0.0000
# 3 62.8874 3.8240 69.7423 0.0000 0.0000 0.0000
# 4 0.0000 0.0000 0.0000 14.9068 0.0000 0.0000
# 5 0.0000 0.0000 0.0000 0.0000 41.2127 0.0000
# 6 0.0000 0.0000 0.0000 0.0000 0.0000 -0.7762
#
#
#
# Elastic Compliance Matrix: (Units=1/GPa)
#
#
# Indices 1 2 3 4 5 6 
#
# 1 0.002987 -0.000210 -0.002682 0.000000 0.000000 0.000000
# 2 -0.000210 0.007017 -0.000195 0.000000 0.000000 0.000000
# 3 -0.002682 -0.000195 0.016767 0.000000 0.000000 0.000000
# 4 0.000000 0.000000 0.000000 0.067083 0.000000 0.000000
# 5 0.000000 0.000000 0.000000 0.000000 0.024264 0.000000
# 6 0.000000 0.000000 0.000000 0.000000 0.000000 -1.288287
#
#
# Mechanical properties :
#
#
# Convention : Reuss Voigt Hill
#
# Bulk Modulus (GPa) = 48.55079 85.04480 66.79779
# Shear Modulus (GPa) = -4.32104 46.05307 20.86601
#
# Velocity S-wave (km/s) = -1.24356 4.05976 2.73269
# Velocity P-wave (km/s) = 3.91326 7.23959 5.81916
#
# Compressibility (1/GPa) = 0.02059699
#
# Stress axis : x y z
#
# Youngs Moduli (GPa) = 334.80271 142.50884 59.63974
#
# Poissons Ratio (x) = 0.02996 0.15994
# Poissons Ratio (y) = 0.07039 0.01164
# Poissons Ratio (z) = 0.89785 0.02781
#
# Static dielectric constant tensor:
#      x y z
#    x 2.238420 0.000000 0.000000 
#    y 0.000000 2.193290 0.000000 
#    z 0.000000 0.000000 2.148920 
# 
# From -- ./inp_files/61493.got.cif
#   From: 2010.05.17/outbox.cif.g08.bks.cpg/sg63_31_cif.got.tgz:61493.got - 2010.06.03 15:47:04.
