data_PCOD9471890
_publ_section_title
;
Structure prediction by ZEFSAII (Michael W. Deem and Ramdas Pophale) SiO2 
 PCOD9471890
Probable space group: C M C M
;
_chemical_formula_sum "Si O2"
_cell_formula_units_Z 96
_cell_length_a 25.749487
_cell_length_b 24.203157
_cell_length_c 8.892491
_cell_angle_alpha 90.000000
_cell_angle_beta 90.000000
_cell_angle_gamma 90.000000
_cell_volume 5541.968251
_symmetry_space_group_name_H-M "C M C M"
_symmetry_group_IT_number 63
_symmetry_cell_setting 'orthorhombic'
loop_
_space_group_symop_operation_xyz
x,y,z
-x,-y,1/2+z
x,-y,-z
-x,y,1/2-z
-x,-y,-z
x,y,1/2-z
-x,y,z
x,-y,1/2+z
1/2+x,1/2+y,z
1/2-x,1/2-y,1/2+z
1/2+x,1/2-y,-z
1/2-x,1/2+y,1/2-z
1/2-x,1/2-y,-z
1/2+x,1/2+y,1/2-z
1/2-x,1/2+y,z
1/2+x,1/2-y,1/2+z
loop_
_atom_site_type_symbol
_atom_site_label
_atom_site_fract_x
_atom_site_fract_y
_atom_site_fract_z
Si Si1 0.149547 0.129292 0.568981
Si Si2 0.560538 0.440786 0.570508
Si Si3 0.807679 0.249486 0.569615
Si Si4 0.751377 0.560362 0.930714
Si Si5 0.940077 0.559115 0.931051
Si Si6 0.652072 0.860745 0.068483
O O1 0.144500 0.126267 0.750000
O O2 0.097983 0.105973 0.493577
O O3 0.164324 0.191972 0.529102
O O4 0.197992 0.090366 0.524105
O O5 0.575461 0.500000 0.500000
O O6 0.565192 0.444104 0.750000
O O7 0.500000 0.430855 0.532332
O O8 0.803244 0.251663 0.750000
O O9 0.750000 0.250000 0.500000
O O10 0.838800 0.302105 0.508411
O O11 0.751417 0.555661 0.750000
O O12 0.799665 0.599460 0.971911
O O13 0.755928 0.500000 0.000000
O O14 0.937931 0.554439 0.750000
O O15 0.900501 0.607340 0.975267
O O16 0.000000 0.570036 0.974522
O O17 0.924680 0.500000 0.000000
O O18 0.652528 0.853724 0.250000
#
# Coordination Sequence:
#
# PCOD9471890 Si02
#       6
#    16  16  16  16  16  16
#     4  10  21  37  55  78 109 142 182 225 270 323
#     4  10  21  37  58  84 112 144 182 222 270 325
#     4  11  22  38  58  80 108 144 185 225 271 324
#     4  10  20  33  49  75 108 139 173 219 271 322
#     4   9  18  33  55  81 110 146 184 225 274 323
#     4  10  20  36  54  76 111 146 181 225 271 322
#
# _framework density 17.322365000000001
#
# number of rings (size 3 to 8) (size 9 to 14) (size 15 to 20)
#    0.000    2.000    1.667    2.000    0.000    5.667 
#    0.000    0.833    0.000    3.000    0.000    0.000 
#    0.000    0.000    0.000    0.000    0.000    0.000 
#
# Total GULP energy -268020.768600 kJ/mol
# GULP energy per Si atom -5583.766012 kJ/mol
# Density = 1.728294 g / cm^3
# Si number density = 17.322365 Si / 1000 Ang^3
#
#
#
# Elastic Constant Matrix: (Units=GPa)
#
#
# Indices 1 2 3 4 5 6 
#
# 1 103.2518 82.4911 39.2261 0.0000 0.0000 0.0000
# 2 82.4911 163.6172 51.0902 0.0000 0.0000 0.0000
# 3 39.2261 51.0902 26.7473 0.0000 0.0000 0.0000
# 4 0.0000 0.0000 0.0000 36.1413 0.0000 0.0000
# 5 0.0000 0.0000 0.0000 0.0000 20.0769 0.0000
# 6 0.0000 0.0000 0.0000 0.0000 0.0000 26.2250
#
#
#
# Elastic Compliance Matrix: (Units=1/GPa)
#
#
# Indices 1 2 3 4 5 6 
#
# 1 0.022293 -0.002554 -0.027815 0.000000 0.000000 0.000000
# 2 -0.002554 0.015437 -0.025741 0.000000 0.000000 0.000000
# 3 -0.027815 -0.025741 0.127347 0.000000 0.000000 0.000000
# 4 0.000000 0.000000 0.000000 0.027669 0.000000 0.000000
# 5 0.000000 0.000000 0.000000 0.000000 0.049808 0.000000
# 6 0.000000 0.000000 0.000000 0.000000 0.000000 0.038132
#
#
# Mechanical properties :
#
#
# Convention : Reuss Voigt Hill
#
# Bulk Modulus (GPa) = 18.91896 71.02567 44.97231
# Shear Modulus (GPa) = 12.17952 24.54258 18.36105
#
# Velocity S-wave (km/s) = 2.65450 3.76814 3.25924
# Velocity P-wave (km/s) = 4.51005 7.74746 6.33892
#
# Compressibility (1/GPa) = 0.05285703
#
# Stress axis : x y z
#
# Youngs Moduli (GPa) = 44.85809 64.77796 7.85255
#
# Poissons Ratio (x) = 0.16544 0.21842
# Poissons Ratio (y) = 0.11457 0.20214
# Poissons Ratio (z) = 1.24771 1.66747
#
# Static dielectric constant tensor:
#      x y z
#    x 1.584560 0.000000 0.000000 
#    y 0.000000 1.556080 0.000000 
#    z 0.000000 0.000000 1.579320 
# 
# From -- ./inp_files/10463.got.cif
#   From: 2010.05.17/outbox.cif.g08.bks.cpg/sg63_6_cif.got.tgz:10463.got - 2010.06.03 15:47:04.
