data_PCOD9471416
_publ_section_title
;
Structure prediction by ZEFSAII (Michael W. Deem and Ramdas Pophale) SiO2 
 PCOD9471416
Probable space group: C M C M
;
_chemical_formula_sum "Si O2"
_cell_formula_units_Z 60
_cell_length_a 15.625222
_cell_length_b 11.438403
_cell_length_c 17.386136
_cell_angle_alpha 90.000000
_cell_angle_beta 90.000000
_cell_angle_gamma 90.000000
_cell_volume 3107.382121
_symmetry_space_group_name_H-M "C M C M"
_symmetry_group_IT_number 63
_symmetry_cell_setting 'orthorhombic'
loop_
_space_group_symop_operation_xyz
x,y,z
-x,-y,1/2+z
x,-y,-z
-x,y,1/2-z
-x,-y,-z
x,y,1/2-z
-x,y,z
x,-y,1/2+z
1/2+x,1/2+y,z
1/2-x,1/2-y,1/2+z
1/2+x,1/2-y,-z
1/2-x,1/2+y,1/2-z
1/2-x,1/2-y,-z
1/2+x,1/2+y,1/2-z
1/2-x,1/2+y,z
1/2+x,1/2-y,1/2+z
loop_
_atom_site_type_symbol
_atom_site_label
_atom_site_fract_x
_atom_site_fract_y
_atom_site_fract_z
Si Si1 0.316136 0.889541 0.457610
Si Si2 0.000000 0.340805 0.083365
Si Si3 0.500000 0.625964 0.539067
Si Si4 0.500000 0.101294 0.750000
Si Si5 0.165108 0.228033 0.893670
Si Si6 0.901806 0.631977 0.250000
O O1 0.413073 0.912980 0.431178
O O2 0.254317 0.842200 0.391049
O O3 0.327097 0.797877 0.526512
O O4 0.275433 0.000000 0.500000
O O5 0.000000 0.320147 0.174331
O O6 0.000000 0.227111 0.028036
O O7 0.500000 0.500000 0.500000
O O8 0.416424 0.645510 0.591728
O O9 0.579674 0.007651 0.750000
O O10 0.145534 0.316876 0.824719
O O11 0.000000 0.679427 0.250000
#
# Coordination Sequence:
#
# PCOD9471416 Si02
#       6
#    16   8   8   4  16   8
#     4  10  20  34  57  82 114 151 197 243 286 332
#     4  10  21  35  56  85 117 153 197 248 288 354
#     4  10  19  36  58  77 112 156 195 242 288 338
#     4  10  20  36  58  84 114 150 190 234 306 342
#     4  10  20  35  54  84 111 148 196 233 283 353
#     4  10  20  35  58  81 114 149 182 234 298 355
#
# _framework density 19.308858000000001
#
# number of rings (size 3 to 8) (size 9 to 14) (size 15 to 20)
#    0.400    1.600    1.333    2.800    0.000    1.067 
#    0.000    2.667    0.000    0.000    0.000    0.000 
#    0.000    0.000    0.000    0.000    0.000    0.000 
#
# Total GULP energy -167014.153274 kJ/mol
# GULP energy per Si atom -5567.138442 kJ/mol
# Density = 1.926491 g / cm^3
# Si number density = 19.308858 Si / 1000 Ang^3
#
#
#
# Elastic Constant Matrix: (Units=GPa)
#
#
# Indices 1 2 3 4 5 6 
#
# 1 111.0003 10.2080 23.6586 0.0000 0.0000 0.0000
# 2 10.2080 31.6236 -17.7434 0.0000 0.0000 0.0000
# 3 23.6586 -17.7434 65.2600 0.0000 0.0000 0.0000
# 4 0.0000 0.0000 0.0000 26.5994 0.0000 0.0000
# 5 0.0000 0.0000 0.0000 0.0000 39.2451 0.0000
# 6 0.0000 0.0000 0.0000 0.0000 0.0000 -0.6428
#
#
#
# Elastic Compliance Matrix: (Units=1/GPa)
#
#
# Indices 1 2 3 4 5 6 
#
# 1 0.010859 -0.006743 -0.005770 0.000000 0.000000 0.000000
# 2 -0.006743 0.041501 0.013728 0.000000 0.000000 0.000000
# 3 -0.005770 0.013728 0.021148 0.000000 0.000000 0.000000
# 4 0.000000 0.000000 0.000000 0.037595 0.000000 0.000000
# 5 0.000000 0.000000 0.000000 0.000000 0.025481 0.000000
# 6 0.000000 0.000000 0.000000 0.000000 0.000000 -1.555792
#
#
# Mechanical properties :
#
#
# Convention : Reuss Voigt Hill
#
# Bulk Modulus (GPa) = 13.16854 26.68115 19.92485
# Shear Modulus (GPa) = -3.58082 25.82439 11.12178
#
# Velocity S-wave (km/s) = -1.36328 3.66107 2.40259
# Velocity P-wave (km/s) = 2.08728 5.63199 4.24712
#
# Compressibility (1/GPa) = 0.07593854
#
# Stress axis : x y z
#
# Youngs Moduli (GPa) = 92.09078 24.09579 47.28683
#
# Poissons Ratio (x) = 0.16247 0.27284
# Poissons Ratio (y) = 0.62093 -0.64915
# Poissons Ratio (z) = 0.53135 -0.33079
#
# Static dielectric constant tensor:
#      x y z
#    x 1.743260 0.000000 0.000000 
#    y 0.000000 1.675680 0.000000 
#    z 0.000000 0.000000 1.658740 
# 
# From -- ./inp_files/43409.got.cif
#   From: 2010.05.17/outbox.cif.g08.bks.cpg/sg63_22_cif.got.tgz:43409.got - 2010.06.03 15:47:04.
