data_PCOD9471810
_publ_section_title
;
Structure prediction by ZEFSAII (Michael W. Deem and Ramdas Pophale) SiO2 
 PCOD9471810
Probable space group: C M C M
;
_chemical_formula_sum "Si O2"
_cell_formula_units_Z 80
_cell_length_a 20.784311
_cell_length_b 13.160837
_cell_length_c 16.976866
_cell_angle_alpha 90.000000
_cell_angle_beta 90.000000
_cell_angle_gamma 90.000000
_cell_volume 4643.833747
_symmetry_space_group_name_H-M "C M C M"
_symmetry_group_IT_number 63
_symmetry_cell_setting 'orthorhombic'
loop_
_space_group_symop_operation_xyz
x,y,z
-x,-y,1/2+z
x,-y,-z
-x,y,1/2-z
-x,-y,-z
x,y,1/2-z
-x,y,z
x,-y,1/2+z
1/2+x,1/2+y,z
1/2-x,1/2-y,1/2+z
1/2+x,1/2-y,-z
1/2-x,1/2+y,1/2-z
1/2-x,1/2-y,-z
1/2+x,1/2+y,1/2-z
1/2-x,1/2+y,z
1/2+x,1/2-y,1/2+z
loop_
_atom_site_type_symbol
_atom_site_label
_atom_site_fract_x
_atom_site_fract_y
_atom_site_fract_z
Si Si1 0.628773 0.381371 0.338698
Si Si2 0.926214 0.403582 0.944262
Si Si3 0.810407 0.338112 0.841023
Si Si4 0.071409 0.823756 0.500034
Si Si5 0.309299 0.563936 0.422656
O O1 0.601903 0.382627 0.250000
O O2 0.674137 0.281943 0.345218
O O3 0.579455 0.366844 0.410912
O O4 0.668537 0.482565 0.357539
O O5 0.872926 0.394065 0.876807
O O6 0.000000 0.409213 0.914209
O O7 0.914925 0.500000 0.000000
O O8 0.921674 0.297820 0.992623
O O9 0.800881 0.365334 0.750000
O O10 0.748528 0.368105 0.891453
O O11 0.128584 0.871618 0.550507
O O12 0.000000 0.848637 0.529602
O O13 0.288957 0.500000 0.500000
#
# Coordination Sequence:
#
# PCOD9471810 Si02
#       5
#    16  16  16  16  16
#     4   9  19  33  49  73 100 126 162 204 246 293
#     4   9  18  33  54  78 101 128 164 203 244 292
#     4  10  20  33  50  73 101 131 163 202 247 291
#     4   9  19  34  51  73 100 129 163 204 247 290
#     4  10  20  32  51  73  99 131 166 204 243 291
#
# _framework density 17.227146000000001
#
# number of rings (size 3 to 8) (size 9 to 14) (size 15 to 20)
#    0.000    2.600    0.000    1.200    0.000   13.200 
#    0.000    4.000    0.000    3.000    0.000    5.600 
#    0.000    0.000    0.000    0.000    0.000    0.000 
#
# Total GULP energy -222988.148653 kJ/mol
# GULP energy per Si atom -5574.703716 kJ/mol
# Density = 1.718794 g / cm^3
# Si number density = 17.227146 Si / 1000 Ang^3
#
#
#
# Elastic Constant Matrix: (Units=GPa)
#
#
# Indices 1 2 3 4 5 6 
#
# 1 122.8808 32.6603 65.3355 0.0000 0.0000 0.0000
# 2 32.6603 47.2569 28.8376 0.0000 0.0000 0.0000
# 3 65.3355 28.8376 78.1708 0.0000 0.0000 0.0000
# 4 0.0000 0.0000 0.0000 18.2277 0.0000 0.0000
# 5 0.0000 0.0000 0.0000 0.0000 5.8659 0.0000
# 6 0.0000 0.0000 0.0000 0.0000 0.0000 9.9306
#
#
#
# Elastic Compliance Matrix: (Units=1/GPa)
#
#
# Indices 1 2 3 4 5 6 
#
# 1 0.015089 -0.003526 -0.011311 0.000000 0.000000 0.000000
# 2 -0.003526 0.028133 -0.007431 0.000000 0.000000 0.000000
# 3 -0.011311 -0.007431 0.024987 0.000000 0.000000 0.000000
# 4 0.000000 0.000000 0.000000 0.054861 0.000000 0.000000
# 5 0.000000 0.000000 0.000000 0.000000 0.170478 0.000000
# 6 0.000000 0.000000 0.000000 0.000000 0.000000 0.100699
#
#
# Mechanical properties :
#
#
# Convention : Reuss Voigt Hill
#
# Bulk Modulus (GPa) = 42.24187 55.77504 49.00846
# Shear Modulus (GPa) = 11.19384 14.90317 13.04850
#
# Velocity S-wave (km/s) = 2.55184 2.94445 2.75515
# Velocity P-wave (km/s) = 5.76683 6.63372 6.21540
#
# Compressibility (1/GPa) = 0.02367319
#
# Stress axis : x y z
#
# Youngs Moduli (GPa) = 66.27312 35.54587 40.02031
#
# Poissons Ratio (x) = 0.12535 0.45266
# Poissons Ratio (y) = 0.23370 0.29739
# Poissons Ratio (z) = 0.74959 0.26414
#
# Static dielectric constant tensor:
#      x y z
#    x 1.575700 0.000000 0.000000 
#    y 0.000000 1.588320 0.000000 
#    z 0.000000 0.000000 1.573480 
# 
# From -- ./inp_files/45408.got.cif
#   From: 2010.05.17/outbox.cif.g08.bks.cpg/sg63_23_cif.got.tgz:45408.got - 2010.06.03 15:47:04.
