data_PCOD9471343
_publ_section_title
;
Structure prediction by ZEFSAII (Michael W. Deem and Ramdas Pophale) SiO2 
 PCOD9471343
Probable space group: C M C M
;
_chemical_formula_sum "Si O2"
_cell_formula_units_Z 80
_cell_length_a 25.493916
_cell_length_b 11.211655
_cell_length_c 15.229411
_cell_angle_alpha 90.000000
_cell_angle_beta 90.000000
_cell_angle_gamma 90.000000
_cell_volume 4353.007176
_symmetry_space_group_name_H-M "C M C M"
_symmetry_group_IT_number 63
_symmetry_cell_setting 'orthorhombic'
loop_
_space_group_symop_operation_xyz
x,y,z
-x,-y,1/2+z
x,-y,-z
-x,y,1/2-z
-x,-y,-z
x,y,1/2-z
-x,y,z
x,-y,1/2+z
1/2+x,1/2+y,z
1/2-x,1/2-y,1/2+z
1/2+x,1/2-y,-z
1/2-x,1/2+y,1/2-z
1/2-x,1/2-y,-z
1/2+x,1/2+y,1/2-z
1/2-x,1/2+y,z
1/2+x,1/2-y,1/2+z
loop_
_atom_site_type_symbol
_atom_site_label
_atom_site_fract_x
_atom_site_fract_y
_atom_site_fract_z
Si Si1 0.749990 0.877602 0.448139
Si Si2 0.059893 0.469080 0.397063
Si Si3 0.438937 0.238688 0.152973
Si Si4 0.633451 0.371861 0.481831
Si Si5 0.152704 0.289994 0.350032
O O1 0.750000 0.750000 0.500000
O O2 0.811741 0.893191 0.429874
O O3 0.707195 0.858059 0.372535
O O4 0.734796 0.000000 0.500000
O O5 0.067257 0.500000 0.500000
O O6 0.064579 0.595710 0.349460
O O7 0.103814 0.379033 0.364102
O O8 0.000000 0.423879 0.385910
O O9 0.423356 0.281663 0.250000
O O10 0.500000 0.268874 0.138350
O O11 0.403415 0.290357 0.076585
O O12 0.608739 0.500000 0.500000
O O13 0.645975 0.310146 0.575029
O O14 0.153469 0.246256 0.250000
#
# Coordination Sequence:
#
# PCOD9471343 Si02
#       5
#    16  16  16  16  16
#     4   9  20  38  58  80 113 155 196 241 289 346
#     4  10  19  35  60  87 119 151 184 241 306 353
#     4  10  21  37  59  87 116 151 197 242 290 352
#     4  10  22  40  60  81 117 160 196 239 292 346
#     4  11  22  36  59  90 118 149 196 248 295 351
#
# _framework density 18.3781
#
# number of rings (size 3 to 8) (size 9 to 14) (size 15 to 20)
#    0.000    2.000    2.000    1.200    2.800    3.200 
#    0.000    8.000    0.000    0.000    0.000    0.000 
#    0.000    0.000    0.000    0.000    0.000    0.000 
#
# Total GULP energy -222916.743890 kJ/mol
# GULP energy per Si atom -5572.918597 kJ/mol
# Density = 1.833627 g / cm^3
# Si number density = 18.378100 Si / 1000 Ang^3
#
#
#
# Elastic Constant Matrix: (Units=GPa)
#
#
# Indices 1 2 3 4 5 6 
#
# 1 73.1957 23.6560 51.9445 0.0000 0.0000 0.0000
# 2 23.6560 70.2432 30.0203 0.0000 0.0000 0.0000
# 3 51.9445 30.0203 128.2833 0.0000 0.0000 0.0000
# 4 0.0000 0.0000 0.0000 -4.4198 0.0000 0.0000
# 5 0.0000 0.0000 0.0000 0.0000 -1.8976 0.0000
# 6 0.0000 0.0000 0.0000 0.0000 0.0000 27.3307
#
#
#
# Elastic Compliance Matrix: (Units=1/GPa)
#
#
# Indices 1 2 3 4 5 6 
#
# 1 0.019972 -0.003633 -0.007237 0.000000 0.000000 0.000000
# 2 -0.003633 0.016479 -0.002385 0.000000 0.000000 0.000000
# 3 -0.007237 -0.002385 0.011284 0.000000 0.000000 0.000000
# 4 0.000000 0.000000 0.000000 -0.226254 0.000000 0.000000
# 5 0.000000 0.000000 0.000000 0.000000 -0.526992 0.000000
# 6 0.000000 0.000000 0.000000 0.000000 0.000000 0.036589
#
#
# Mechanical properties :
#
#
# Convention : Reuss Voigt Hill
#
# Bulk Modulus (GPa) = 47.11551 53.66265 50.38908
# Shear Modulus (GPa) = -7.86984 15.27608 3.70312
#
# Velocity S-wave (km/s) = -2.07159 2.88620 1.42103
# Velocity P-wave (km/s) = 4.46883 6.35370 5.49272
#
# Compressibility (1/GPa) = 0.02122444
#
# Stress axis : x y z
#
# Youngs Moduli (GPa) = 50.07026 60.68257 88.62282
#
# Poissons Ratio (x) = 0.22047 0.64135
# Poissons Ratio (y) = 0.18191 0.21139
# Poissons Ratio (z) = 0.36235 0.14474
#
# Static dielectric constant tensor:
#      x y z
#    x 1.638030 0.000000 0.000000 
#    y 0.000000 1.662590 0.000000 
#    z 0.000000 0.000000 1.704000 
# 
# From -- ./inp_files/36433.got.cif
#   From: 2010.05.17/outbox.cif.g08.bks.cpg/sg63_19_cif.got.tgz:36433.got - 2010.06.03 15:47:04.
