data_PCOD9471545
_publ_section_title
;
Structure prediction by ZEFSAII (Michael W. Deem and Ramdas Pophale) SiO2 
 PCOD9471545
Probable space group: C M C M
;
_chemical_formula_sum "Si O2"
_cell_formula_units_Z 104
_cell_length_a 21.759246
_cell_length_b 8.683111
_cell_length_c 25.740028
_cell_angle_alpha 90.000000
_cell_angle_beta 90.000000
_cell_angle_gamma 90.000000
_cell_volume 4863.268079
_symmetry_space_group_name_H-M "C M C M"
_symmetry_group_IT_number 63
_symmetry_cell_setting 'orthorhombic'
loop_
_space_group_symop_operation_xyz
x,y,z
-x,-y,1/2+z
x,-y,-z
-x,y,1/2-z
-x,-y,-z
x,y,1/2-z
-x,y,z
x,-y,1/2+z
1/2+x,1/2+y,z
1/2-x,1/2-y,1/2+z
1/2+x,1/2-y,-z
1/2-x,1/2+y,1/2-z
1/2-x,1/2-y,-z
1/2+x,1/2+y,1/2-z
1/2-x,1/2+y,z
1/2+x,1/2-y,1/2+z
loop_
_atom_site_type_symbol
_atom_site_label
_atom_site_fract_x
_atom_site_fract_y
_atom_site_fract_z
Si Si1 0.000000 0.466404 0.861777
Si Si2 0.402437 0.088462 0.947653
Si Si3 0.812684 0.919644 0.054864
Si Si4 0.426979 0.480589 0.806609
Si Si5 0.428604 0.580537 0.079907
Si Si6 0.207516 0.411248 0.596344
Si Si7 0.879062 0.323801 0.690724
O O1 0.947203 0.533028 0.902230
O O2 0.944486 0.396926 0.825096
O O3 0.333955 0.040155 0.931735
O O4 0.409462 0.270936 0.952577
O O5 0.418826 0.000000 0.000000
O O6 0.885039 0.940060 0.065388
O O7 0.775553 0.020162 0.097413
O O8 0.795093 0.743165 0.061834
O O9 0.798379 0.000000 0.000000
O O10 0.413374 0.409004 0.750000
O O11 0.500000 0.518110 0.806616
O O12 0.418420 0.382669 0.858801
O O13 0.390163 0.639317 0.811869
O O14 0.500000 0.544726 0.072258
O O15 0.174208 0.371825 0.650498
O O16 0.863731 0.364907 0.750000
#
# Coordination Sequence:
#
# PCOD9471545 Si02
#       7
#     8  16  16  16  16  16  16
#     4  10  20  32  60  89 129 170 212 252 314 389
#     4  11  22  40  60  91 134 180 213 261 325 374
#     4  12  24  43  65  94 129 171 220 264 320 384
#     4   9  17  34  61  87 121 163 204 257 322 379
#     4  11  23  39  61  96 132 166 211 267 320 388
#     4  11  24  42  66  91 122 172 220 269 313 387
#     4  10  19  37  62  93 123 163 210 264 327 386
#
# _framework density 21.384796999999999
#
# number of rings (size 3 to 8) (size 9 to 14) (size 15 to 20)
#    0.000    1.385    3.077    3.231    0.000    0.308 
#    0.000    5.385    0.000    0.000    0.000    0.000 
#    0.000    0.000    0.000    0.000    0.000    0.000 
#
# Total GULP energy -289577.753871 kJ/mol
# GULP energy per Si atom -5568.802959 kJ/mol
# Density = 2.133612 g / cm^3
# Si number density = 21.384797 Si / 1000 Ang^3
#
#
#
# Elastic Constant Matrix: (Units=GPa)
#
#
# Indices 1 2 3 4 5 6 
#
# 1 88.0417 39.6153 19.4030 0.0000 0.0000 0.0000
# 2 39.6153 32.4679 13.5654 0.0000 0.0000 0.0000
# 3 19.4030 13.5654 89.6792 0.0000 0.0000 0.0000
# 4 0.0000 0.0000 0.0000 30.1305 0.0000 0.0000
# 5 0.0000 0.0000 0.0000 0.0000 18.0539 0.0000
# 6 0.0000 0.0000 0.0000 0.0000 0.0000 22.5860
#
#
#
# Elastic Compliance Matrix: (Units=1/GPa)
#
#
# Indices 1 2 3 4 5 6 
#
# 1 0.025247 -0.030447 -0.000857 0.000000 0.000000 0.000000
# 2 -0.030447 0.069595 -0.003940 0.000000 0.000000 0.000000
# 3 -0.000857 -0.003940 0.011932 0.000000 0.000000 0.000000
# 4 0.000000 0.000000 0.000000 0.033189 0.000000 0.000000
# 5 0.000000 0.000000 0.000000 0.000000 0.055390 0.000000
# 6 0.000000 0.000000 0.000000 0.000000 0.000000 0.044275
#
#
# Mechanical properties :
#
#
# Convention : Reuss Voigt Hill
#
# Bulk Modulus (GPa) = 27.55797 39.48403 33.52100
# Shear Modulus (GPa) = 15.51778 23.32775 19.42276
#
# Velocity S-wave (km/s) = 2.69670 3.30640 3.01699
# Velocity P-wave (km/s) = 4.75510 5.75152 5.27688
#
# Compressibility (1/GPa) = 0.03628714
#
# Stress axis : x y z
#
# Youngs Moduli (GPa) = 39.60870 14.36882 83.80664
#
# Poissons Ratio (x) = 0.43748 0.07181
# Poissons Ratio (y) = 1.20596 0.33019
# Poissons Ratio (z) = 0.03394 0.05661
#
# Static dielectric constant tensor:
#      x y z
#    x 1.791450 0.000000 0.000000 
#    y 0.000000 1.770800 0.000000 
#    z 0.000000 0.000000 1.834440 
# 
# From -- ./inp_files/70370.got.cif
#   From: 2010.05.17/outbox.cif.g08.bks.cpg/sg63_36_cif.got.tgz:70370.got - 2010.06.03 15:47:04.
