data_PCOD9471079
_publ_section_title
;
Structure prediction by ZEFSAII (Michael W. Deem and Ramdas Pophale) SiO2 
 PCOD9471079
Probable space group: C M C M
;
_chemical_formula_sum "Si O2"
_cell_formula_units_Z 96
_cell_length_a 8.621793
_cell_length_b 25.837197
_cell_length_c 24.111192
_cell_angle_alpha 90.000000
_cell_angle_beta 90.000000
_cell_angle_gamma 90.000000
_cell_volume 5371.080601
_symmetry_space_group_name_H-M "C M C M"
_symmetry_group_IT_number 63
_symmetry_cell_setting 'orthorhombic'
loop_
_space_group_symop_operation_xyz
x,y,z
-x,-y,1/2+z
x,-y,-z
-x,y,1/2-z
-x,-y,-z
x,y,1/2-z
-x,y,z
x,-y,1/2+z
1/2+x,1/2+y,z
1/2-x,1/2-y,1/2+z
1/2+x,1/2-y,-z
1/2-x,1/2+y,1/2-z
1/2-x,1/2-y,-z
1/2+x,1/2+y,1/2-z
1/2-x,1/2+y,z
1/2+x,1/2-y,1/2+z
loop_
_atom_site_type_symbol
_atom_site_label
_atom_site_fract_x
_atom_site_fract_y
_atom_site_fract_z
Si Si1 0.315607 0.937088 0.750000
Si Si2 0.685954 0.405629 0.866687
Si Si3 0.188900 0.994149 0.062979
Si Si4 0.687365 0.445789 0.250000
Si Si5 0.185361 0.313375 0.559159
Si Si6 0.812574 0.895089 0.133395
Si Si7 0.685470 0.800516 0.432206
O O1 0.500000 0.937452 0.750000
O O2 0.254263 0.909259 0.805258
O O3 0.255064 0.996427 0.750000
O O4 0.500000 0.406364 0.863155
O O5 0.737205 0.457227 0.899825
O O6 0.739214 0.356218 0.901734
O O7 0.000000 0.994276 0.062335
O O8 0.236545 0.940568 0.091144
O O9 0.243237 0.000000 0.000000
O O10 0.500000 0.451442 0.250000
O O11 0.731256 0.414545 0.305311
O O12 0.239053 0.255723 0.575291
O O13 0.230819 0.319974 0.494238
O O14 0.000000 0.317143 0.562868
O O15 0.740789 0.841661 0.112942
O O16 0.000000 0.890929 0.131678
O O17 0.500000 0.795170 0.431268
#
# Coordination Sequence:
#
# PCOD9471079 Si02
#       7
#     8  16  16   8  16  16  16
#     4  12  24  38  57  82 117 156 194 236 286 338
#     4  11  21  37  60  84 114 150 194 239 284 342
#     4   9  17  29  51  83 113 142 179 227 283 340
#     4  10  20  38  59  80 109 154 200 234 278 336
#     4  10  21  38  59  85 116 150 190 236 288 345
#     4  10  19  34  56  81 112 148 192 238 283 338
#     4  10  21  37  58  85 117 152 189 233 289 348
#
# _framework density 17.873498000000001
#
# number of rings (size 3 to 8) (size 9 to 14) (size 15 to 20)
#    0.000    1.833    1.667    3.250    0.000    4.000 
#    0.000    0.833    0.000    4.500    0.000    0.000 
#    0.000    0.000    0.000    0.000    0.000    0.000 
#
# Total GULP energy -268111.162774 kJ/mol
# GULP energy per Si atom -5585.649224 kJ/mol
# Density = 1.783282 g / cm^3
# Si number density = 17.873498 Si / 1000 Ang^3
#
#
#
# Elastic Constant Matrix: (Units=GPa)
#
#
# Indices 1 2 3 4 5 6 
#
# 1 38.3645 15.8481 15.4625 0.0000 0.0000 0.0000
# 2 15.8481 65.0047 10.6940 0.0000 0.0000 0.0000
# 3 15.4625 10.6940 54.7495 0.0000 0.0000 0.0000
# 4 0.0000 0.0000 0.0000 22.6419 0.0000 0.0000
# 5 0.0000 0.0000 0.0000 0.0000 19.8330 0.0000
# 6 0.0000 0.0000 0.0000 0.0000 0.0000 29.3357
#
#
#
# Elastic Compliance Matrix: (Units=1/GPa)
#
#
# Indices 1 2 3 4 5 6 
#
# 1 0.031865 -0.006497 -0.007730 0.000000 0.000000 0.000000
# 2 -0.006497 0.017219 -0.001528 0.000000 0.000000 0.000000
# 3 -0.007730 -0.001528 0.020747 0.000000 0.000000 0.000000
# 4 0.000000 0.000000 0.000000 0.044166 0.000000 0.000000
# 5 0.000000 0.000000 0.000000 0.000000 0.050421 0.000000
# 6 0.000000 0.000000 0.000000 0.000000 0.000000 0.034088
#
#
# Mechanical properties :
#
#
# Convention : Reuss Voigt Hill
#
# Bulk Modulus (GPa) = 26.09651 26.90312 26.49981
# Shear Modulus (GPa) = 20.59385 22.10306 21.34846
#
# Velocity S-wave (km/s) = 3.39809 3.52040 3.45979
# Velocity P-wave (km/s) = 5.47982 5.62218 5.55146
#
# Compressibility (1/GPa) = 0.03831929
#
# Stress axis : x y z
#
# Youngs Moduli (GPa) = 31.38210 58.07570 48.20022
#
# Poissons Ratio (x) = 0.37732 0.37261
# Poissons Ratio (y) = 0.20389 0.07367
# Poissons Ratio (z) = 0.24260 0.08876
#
# Static dielectric constant tensor:
#      x y z
#    x 1.601980 0.000000 0.000000 
#    y 0.000000 1.574330 0.000000 
#    z 0.000000 0.000000 1.603520 
# 
# From -- ./inp_files/60070.got.cif
#   From: 2010.05.17/outbox.cif.g08.bks.cpg/sg63_31_cif.got.tgz:60070.got - 2010.06.03 15:47:04.
