data_PCOD9471256
_publ_section_title
;
Structure prediction by ZEFSAII (Michael W. Deem and Ramdas Pophale) SiO2 
 PCOD9471256
Probable space group: C M C M
;
_chemical_formula_sum "Si O2"
_cell_formula_units_Z 96
_cell_length_a 17.052259
_cell_length_b 18.110533
_cell_length_c 17.930700
_cell_angle_alpha 90.000000
_cell_angle_beta 90.000000
_cell_angle_gamma 90.000000
_cell_volume 5537.457381
_symmetry_space_group_name_H-M "C M C M"
_symmetry_group_IT_number 63
_symmetry_cell_setting 'orthorhombic'
loop_
_space_group_symop_operation_xyz
x,y,z
-x,-y,1/2+z
x,-y,-z
-x,y,1/2-z
-x,-y,-z
x,y,1/2-z
-x,y,z
x,-y,1/2+z
1/2+x,1/2+y,z
1/2-x,1/2-y,1/2+z
1/2+x,1/2-y,-z
1/2-x,1/2+y,1/2-z
1/2-x,1/2-y,-z
1/2+x,1/2+y,1/2-z
1/2-x,1/2+y,z
1/2+x,1/2-y,1/2+z
loop_
_atom_site_type_symbol
_atom_site_label
_atom_site_fract_x
_atom_site_fract_y
_atom_site_fract_z
Si Si1 0.190127 0.844829 0.574082
Si Si2 0.090433 0.275793 0.516115
Si Si3 0.908945 0.035528 0.339359
Si Si4 0.781974 0.087621 0.835324
Si Si5 0.178193 0.739288 0.335720
Si Si6 0.823508 0.579861 0.526504
O O1 0.146772 0.784838 0.522358
O O2 0.128325 0.896764 0.615680
O O3 0.244726 0.802577 0.633826
O O4 0.249221 0.893703 0.523988
O O5 0.111271 0.278043 0.603905
O O6 0.113769 0.355148 0.482397
O O7 0.000000 0.258012 0.503676
O O8 0.904274 0.048832 0.250000
O O9 0.000000 0.024020 0.358381
O O10 0.855632 0.964012 0.355977
O O11 0.760919 0.070243 0.750000
O O12 0.805814 0.173186 0.839298
O O13 0.710608 0.073946 0.890660
O O14 0.161098 0.719445 0.250000
O O15 0.851293 0.500000 0.500000
#
# Coordination Sequence:
#
# PCOD9471256 Si02
#       6
#    16  16  16  16  16  16
#     4  11  19  36  58  80 110 142 183 226 271 328
#     4  11  23  37  55  83 116 144 182 233 279 328
#     4  10  21  34  51  82 116 143 174 218 281 340
#     4  10  19  35  56  80 110 145 182 225 268 326
#     4  10  20  36  59  81 107 145 187 228 272 326
#     4  11  20  38  59  79 105 146 191 229 266 326
#
# _framework density 17.336476000000001
#
# number of rings (size 3 to 8) (size 9 to 14) (size 15 to 20)
#    0.000    1.500    5.000    2.000    0.000    1.333 
#    0.000    2.500    0.000    1.500    0.000    0.000 
#    0.000    0.000    0.000    0.000    0.000    0.000 
#
# Total GULP energy -267952.361726 kJ/mol
# GULP energy per Si atom -5582.340869 kJ/mol
# Density = 1.729702 g / cm^3
# Si number density = 17.336476 Si / 1000 Ang^3
#
#
#
# Elastic Constant Matrix: (Units=GPa)
#
#
# Indices 1 2 3 4 5 6 
#
# 1 27.5604 -0.7752 16.5668 0.0000 0.0000 0.0000
# 2 -0.7752 68.2789 33.0232 0.0000 0.0000 0.0000
# 3 16.5668 33.0232 63.5997 0.0000 0.0000 0.0000
# 4 0.0000 0.0000 0.0000 -2.4795 0.0000 0.0000
# 5 0.0000 0.0000 0.0000 0.0000 13.7299 0.0000
# 6 0.0000 0.0000 0.0000 0.0000 0.0000 12.9900
#
#
#
# Elastic Compliance Matrix: (Units=1/GPa)
#
#
# Indices 1 2 3 4 5 6 
#
# 1 0.046457 0.008520 -0.016525 0.000000 0.000000 0.000000
# 2 0.008520 0.021120 -0.013185 0.000000 0.000000 0.000000
# 3 -0.016525 -0.013185 0.026874 0.000000 0.000000 0.000000
# 4 0.000000 0.000000 0.000000 -0.403311 0.000000 0.000000
# 5 0.000000 0.000000 0.000000 0.000000 0.072834 0.000000
# 6 0.000000 0.000000 0.000000 0.000000 0.000000 0.076982
#
#
# Mechanical properties :
#
#
# Convention : Reuss Voigt Hill
#
# Bulk Modulus (GPa) = 19.20510 28.56317 23.88414
# Shear Modulus (GPa) = -50.34923 12.22302 -19.06310
#
# Velocity S-wave (km/s) = -5.39494 2.65815 -3.31961
# Velocity P-wave (km/s) = 5.26358 5.09240 0.94147
#
# Compressibility (1/GPa) = 0.05206949
#
# Stress axis : x y z
#
# Youngs Moduli (GPa) = 21.52528 47.34926 37.21036
#
# Poissons Ratio (x) = -0.40341 0.61491
# Poissons Ratio (y) = -0.18339 0.49063
# Poissons Ratio (z) = 0.35571 0.62432
#
# Static dielectric constant tensor:
#      x y z
#    x 1.553920 0.000000 0.000000 
#    y 0.000000 1.580460 0.000000 
#    z 0.000000 0.000000 1.601270 
# 
# From -- ./inp_files/45711.got.cif
#   From: 2010.05.17/outbox.cif.g08.bks.cpg/sg63_23_cif.got.tgz:45711.got - 2010.06.03 15:47:04.
