data_PCOD9471004
_publ_section_title
;
Structure prediction by ZEFSAII (Michael W. Deem and Ramdas Pophale) SiO2 
 PCOD9471004
Probable space group: C M C M
;
_chemical_formula_sum "Si O2"
_cell_formula_units_Z 96
_cell_length_a 11.427335
_cell_length_b 20.000594
_cell_length_c 23.761415
_cell_angle_alpha 90.000000
_cell_angle_beta 90.000000
_cell_angle_gamma 90.000000
_cell_volume 5430.754274
_symmetry_space_group_name_H-M "C M C M"
_symmetry_group_IT_number 63
_symmetry_cell_setting 'orthorhombic'
loop_
_space_group_symop_operation_xyz
x,y,z
-x,-y,1/2+z
x,-y,-z
-x,y,1/2-z
-x,-y,-z
x,y,1/2-z
-x,y,z
x,-y,1/2+z
1/2+x,1/2+y,z
1/2-x,1/2-y,1/2+z
1/2+x,1/2-y,-z
1/2-x,1/2+y,1/2-z
1/2-x,1/2-y,-z
1/2+x,1/2+y,1/2-z
1/2-x,1/2+y,z
1/2+x,1/2-y,1/2+z
loop_
_atom_site_type_symbol
_atom_site_label
_atom_site_fract_x
_atom_site_fract_y
_atom_site_fract_z
Si Si1 0.500000 0.535600 0.682485
Si Si2 0.633272 0.921063 0.014552
Si Si3 0.748070 0.554635 0.627445
Si Si4 0.636858 0.088826 0.109731
Si Si5 0.630912 0.826572 0.317152
Si Si6 0.740945 0.692657 0.181992
Si Si7 0.500000 0.624233 0.316554
O O1 0.500000 0.550878 0.750000
O O2 0.617344 0.560020 0.651440
O O3 0.500000 0.455044 0.676523
O O4 0.500000 0.901225 0.031164
O O5 0.724658 0.915843 0.065278
O O6 0.665671 0.889595 0.954484
O O7 0.628457 0.000000 0.000000
O O8 0.789304 0.477213 0.626207
O O9 0.830008 0.599653 0.666710
O O10 0.500000 0.069703 0.109710
O O11 0.660562 0.149562 0.151729
O O12 0.625768 0.820891 0.250000
O O13 0.500000 0.812152 0.338828
O O14 0.723696 0.769867 0.334981
O O15 0.752960 0.688078 0.250000
O O16 0.619555 0.657124 0.163114
O O17 0.500000 0.638612 0.250000
#
# Coordination Sequence:
#
# PCOD9471004 Si02
#       7
#     8  16  16  16  16  16   8
#     4  11  22  34  52  80 112 143 174 217 272 321
#     4   8  16  33  55  78 105 137 175 223 276 318
#     4  11  20  35  56  78 106 141 180 219 268 321
#     4  10  20  35  57  83 108 138 179 229 273 314
#     4  10  20  34  54  79 106 138 179 222 265 319
#     4  10  19  34  54  77 107 141 178 220 267 327
#     4   9  16  32  53  71 101 140 174 211 263 319
#
# _framework density 17.677102000000001
#
# number of rings (size 3 to 8) (size 9 to 14) (size 15 to 20)
#    0.000    2.167    2.500    3.000    0.000    1.000 
#    1.500    5.417    0.000    0.000    0.000    0.000 
#    0.000    0.000    0.000    0.000    0.000    0.000 
#
# Total GULP energy -267292.687433 kJ/mol
# GULP energy per Si atom -5568.597655 kJ/mol
# Density = 1.763687 g / cm^3
# Si number density = 17.677102 Si / 1000 Ang^3
#
#
#
# Elastic Constant Matrix: (Units=GPa)
#
#
# Indices 1 2 3 4 5 6 
#
# 1 80.3520 17.5187 43.1588 0.0000 0.0000 0.0000
# 2 17.5187 44.6322 25.3433 0.0000 0.0000 0.0000
# 3 43.1588 25.3433 66.6629 0.0000 0.0000 0.0000
# 4 0.0000 0.0000 0.0000 13.9823 0.0000 0.0000
# 5 0.0000 0.0000 0.0000 0.0000 27.5705 0.0000
# 6 0.0000 0.0000 0.0000 0.0000 0.0000 16.9484
#
#
#
# Elastic Compliance Matrix: (Units=1/GPa)
#
#
# Indices 1 2 3 4 5 6 
#
# 1 0.019093 -0.000606 -0.012131 0.000000 0.000000 0.000000
# 2 -0.000606 0.028593 -0.010478 0.000000 0.000000 0.000000
# 3 -0.012131 -0.010478 0.026838 0.000000 0.000000 0.000000
# 4 0.000000 0.000000 0.000000 0.071519 0.000000 0.000000
# 5 0.000000 0.000000 0.000000 0.000000 0.036271 0.000000
# 6 0.000000 0.000000 0.000000 0.000000 0.000000 0.059003
#
#
# Mechanical properties :
#
#
# Convention : Reuss Voigt Hill
#
# Bulk Modulus (GPa) = 35.59421 40.40986 38.00204
# Shear Modulus (GPa) = 16.82877 18.74199 17.78538
#
# Velocity S-wave (km/s) = 3.08881 3.25967 3.17539
# Velocity P-wave (km/s) = 5.73590 6.08908 5.91512
#
# Compressibility (1/GPa) = 0.02809446
#
# Stress axis : x y z
#
# Youngs Moduli (GPa) = 52.37492 34.97386 37.26074
#
# Poissons Ratio (x) = 0.02120 0.45200
# Poissons Ratio (y) = 0.03175 0.39041
# Poissons Ratio (z) = 0.63535 0.36645
#
# Static dielectric constant tensor:
#      x y z
#    x 1.622080 0.000000 0.000000 
#    y 0.000000 1.593820 0.000000 
#    z 0.000000 0.000000 1.638880 
# 
# From -- ./inp_files/61553.got.cif
#   From: 2010.05.17/outbox.cif.g08.bks.cpg/sg63_31_cif.got.tgz:61553.got - 2010.06.03 15:47:04.
