data_PCOD9471817
_publ_section_title
;
Structure prediction by ZEFSAII (Michael W. Deem and Ramdas Pophale) SiO2 
 PCOD9471817
Probable space group: C M C M
;
_chemical_formula_sum "Si O2"
_cell_formula_units_Z 96
_cell_length_a 9.768633
_cell_length_b 20.825935
_cell_length_c 23.060694
_cell_angle_alpha 90.000000
_cell_angle_beta 90.000000
_cell_angle_gamma 90.000000
_cell_volume 4691.488709
_symmetry_space_group_name_H-M "C M C M"
_symmetry_group_IT_number 63
_symmetry_cell_setting 'orthorhombic'
loop_
_space_group_symop_operation_xyz
x,y,z
-x,-y,1/2+z
x,-y,-z
-x,y,1/2-z
-x,-y,-z
x,y,1/2-z
-x,y,z
x,-y,1/2+z
1/2+x,1/2+y,z
1/2-x,1/2-y,1/2+z
1/2+x,1/2-y,-z
1/2-x,1/2+y,1/2-z
1/2-x,1/2-y,-z
1/2+x,1/2+y,1/2-z
1/2-x,1/2+y,z
1/2+x,1/2-y,1/2+z
loop_
_atom_site_type_symbol
_atom_site_label
_atom_site_fract_x
_atom_site_fract_y
_atom_site_fract_z
Si Si1 0.659633 0.403798 0.316209
Si Si2 0.160388 0.671361 0.316140
Si Si3 0.654450 0.407694 0.975656
Si Si4 0.153017 0.772376 0.589711
Si Si5 0.341271 0.128697 0.575211
Si Si6 0.158011 0.051199 0.151540
O O1 0.689228 0.384447 0.250000
O O2 0.500000 0.387607 0.328885
O O3 0.761617 0.376873 0.364181
O O4 0.671932 0.481136 0.321617
O O5 0.174322 0.693663 0.250000
O O6 0.233143 0.718157 0.361441
O O7 0.238661 0.603458 0.323155
O O8 0.000000 0.663978 0.329270
O O9 0.500000 0.419980 0.997267
O O10 0.659196 0.334601 0.951188
O O11 0.679018 0.449736 0.918127
O O12 0.763633 0.411868 0.026367
O O13 0.166108 0.704197 0.558709
O O14 0.000000 0.772811 0.616486
O O15 0.500000 0.110565 0.580653
O O16 0.000000 0.072549 0.160497
#
# Coordination Sequence:
#
# PCOD9471817 Si02
#       6
#    16  16  16  16  16  16
#     4  10  22  40  60  80 106 146 190 226 265 317
#     4  10  20  32  51  82 113 140 176 227 282 328
#     4   9  18  35  59  84 108 136 177 227 274 323
#     4   9  20  37  55  77 107 147 188 223 267 323
#     4  11  23  37  55  81 113 147 182 222 270 323
#     4   9  19  37  60  83 107 140 183 227 271 323
#
# _framework density 20.462589000000001
#
# number of rings (size 3 to 8) (size 9 to 14) (size 15 to 20)
#    0.000    2.333    0.000    3.000    0.000    8.333 
#    0.000    6.667    0.000    0.000    0.000    0.000 
#    0.000    0.000    0.000    0.000    0.000    0.000 
#
# Total GULP energy -268080.134485 kJ/mol
# GULP energy per Si atom -5585.002802 kJ/mol
# Density = 2.041601 g / cm^3
# Si number density = 20.462589 Si / 1000 Ang^3
#
#
#
# Elastic Constant Matrix: (Units=GPa)
#
#
# Indices 1 2 3 4 5 6 
#
# 1 130.6704 6.2611 74.2398 0.0000 0.0000 0.0000
# 2 6.2611 23.2831 0.7286 0.0000 0.0000 0.0000
# 3 74.2398 0.7286 84.5926 0.0000 0.0000 0.0000
# 4 0.0000 0.0000 0.0000 11.9764 0.0000 0.0000
# 5 0.0000 0.0000 0.0000 0.0000 34.0510 0.0000
# 6 0.0000 0.0000 0.0000 0.0000 0.0000 19.0868
#
#
#
# Elastic Compliance Matrix: (Units=1/GPa)
#
#
# Indices 1 2 3 4 5 6 
#
# 1 0.015586 -0.003764 -0.013646 0.000000 0.000000 0.000000
# 2 -0.003764 0.043870 0.002926 0.000000 0.000000 0.000000
# 3 -0.013646 0.002926 0.023772 0.000000 0.000000 0.000000
# 4 0.000000 0.000000 0.000000 0.083497 0.000000 0.000000
# 5 0.000000 0.000000 0.000000 0.000000 0.029368 0.000000
# 6 0.000000 0.000000 0.000000 0.000000 0.000000 0.052392
#
#
# Mechanical properties :
#
#
# Convention : Reuss Voigt Hill
#
# Bulk Modulus (GPa) = 18.43006 44.55611 31.49308
# Shear Modulus (GPa) = 16.91802 23.51062 20.21432
#
# Velocity S-wave (km/s) = 2.87849 3.39330 3.14645
# Velocity P-wave (km/s) = 4.48039 6.09708 5.35015
#
# Compressibility (1/GPa) = 0.05425919
#
# Stress axis : x y z
#
# Youngs Moduli (GPa) = 64.15862 22.79450 42.06543
#
# Poissons Ratio (x) = 0.08581 0.57404
# Poissons Ratio (y) = 0.24151 -0.12307
# Poissons Ratio (z) = 0.87554 -0.06669
#
# Static dielectric constant tensor:
#      x y z
#    x 1.697600 0.000000 0.000000 
#    y 0.000000 1.748580 0.000000 
#    z 0.000000 0.000000 1.720600 
# 
# From -- ./inp_files/59864.got.cif
#   From: 2010.05.17/outbox.cif.g08.bks.cpg/sg63_30_cif.got.tgz:59864.got - 2010.06.03 15:47:04.
