data_PCOD9472741
_publ_section_title
;
Structure prediction by ZEFSAII (Michael W. Deem and Ramdas Pophale) SiO2 
 PCOD9472741
Probable space group: C M C M
;
_chemical_formula_sum "Si O2"
_cell_formula_units_Z 72
_cell_length_a 15.277228
_cell_length_b 24.881516
_cell_length_c 10.343706
_cell_angle_alpha 90.000000
_cell_angle_beta 90.000000
_cell_angle_gamma 90.000000
_cell_volume 3931.855658
_symmetry_space_group_name_H-M "C M C M"
_symmetry_group_IT_number 63
_symmetry_cell_setting 'orthorhombic'
loop_
_space_group_symop_operation_xyz
x,y,z
-x,-y,1/2+z
x,-y,-z
-x,y,1/2-z
-x,-y,-z
x,y,1/2-z
-x,y,z
x,-y,1/2+z
1/2+x,1/2+y,z
1/2-x,1/2-y,1/2+z
1/2+x,1/2-y,-z
1/2-x,1/2+y,1/2-z
1/2-x,1/2-y,-z
1/2+x,1/2+y,1/2-z
1/2-x,1/2+y,z
1/2+x,1/2-y,1/2+z
loop_
_atom_site_type_symbol
_atom_site_label
_atom_site_fract_x
_atom_site_fract_y
_atom_site_fract_z
Si Si1 0.154068 0.436786 0.497584
Si Si2 0.282806 0.319273 0.750000
Si Si3 0.407205 0.120678 0.750000
Si Si4 0.736629 0.305727 0.250000
Si Si5 0.500000 0.554438 0.908754
Si Si6 0.165560 0.870900 0.015512
Si Si7 0.903777 0.621363 0.250000
O O1 0.163256 0.500000 0.500000
O O2 0.101738 0.416565 0.374185
O O3 0.249553 0.409515 0.488322
O O4 0.106549 0.415224 0.624314
O O5 0.266308 0.255730 0.750000
O O6 0.333189 0.341542 0.623602
O O7 0.182813 0.341815 0.750000
O O8 0.500000 0.149730 0.750000
O O9 0.326440 0.160809 0.750000
O O10 0.682887 0.325677 0.124683
O O11 0.500000 0.543953 0.750000
O O12 0.583796 0.591427 0.946677
O O13 0.500000 0.500000 0.000000
O O14 0.000000 0.647959 0.250000
#
# Coordination Sequence:
#
# PCOD9472741 Si02
#       7
#    16   8   8   8   8  16   8
#     4  10  20  35  56  81 115 157 190 230 298 361
#     4  10  22  40  66  87 121 167 209 260 318 375
#     4  10  21  34  53  81 115 146 191 245 287 356
#     4  10  20  42  64  83 121 165 207 256 316 367
#     4  12  26  44  68  98 136 170 212 276 335 396
#     4  10  22  41  62  91 126 159 211 262 310 386
#     4  10  21  36  53  85 119 144 195 247 283 358
#
# _framework density 18.311964
#
# number of rings (size 3 to 8) (size 9 to 14) (size 15 to 20)
#    0.000    1.778    1.111    2.667    1.556    2.667 
#    8.000    0.000    0.000    0.000    0.000    0.000 
#    0.000    0.000    0.000    0.000    0.000    0.000 
#
# Total GULP energy -200792.367444 kJ/mol
# GULP energy per Si atom -5577.565762 kJ/mol
# Density = 1.827029 g / cm^3
# Si number density = 18.311964 Si / 1000 Ang^3
#
#
#
# Elastic Constant Matrix: (Units=GPa)
#
#
# Indices 1 2 3 4 5 6 
#
# 1 96.6941 22.1474 48.6052 0.0000 0.0000 0.0000
# 2 22.1474 128.6530 69.9637 0.0000 0.0000 0.0000
# 3 48.6052 69.9637 195.9630 0.0000 0.0000 0.0000
# 4 0.0000 0.0000 0.0000 21.7454 0.0000 0.0000
# 5 0.0000 0.0000 0.0000 0.0000 26.1285 0.0000
# 6 0.0000 0.0000 0.0000 0.0000 0.0000 24.2398
#
#
#
# Elastic Compliance Matrix: (Units=1/GPa)
#
#
# Indices 1 2 3 4 5 6 
#
# 1 0.011846 -0.000548 -0.002743 0.000000 0.000000 0.000000
# 2 -0.000548 0.009671 -0.003317 0.000000 0.000000 0.000000
# 3 -0.002743 -0.003317 0.006967 0.000000 0.000000 0.000000
# 4 0.000000 0.000000 0.000000 0.045987 0.000000 0.000000
# 5 0.000000 0.000000 0.000000 0.000000 0.038272 0.000000
# 6 0.000000 0.000000 0.000000 0.000000 0.000000 0.041254
#
#
# Mechanical properties :
#
#
# Convention : Reuss Voigt Hill
#
# Bulk Modulus (GPa) = 65.48874 78.08253 71.78563
# Shear Modulus (GPa) = 29.01873 33.12899 31.07386
#
# Velocity S-wave (km/s) = 3.98513 4.25802 4.12383
# Velocity P-wave (km/s) = 7.55086 8.17967 7.87155
#
# Compressibility (1/GPa) = 0.01526980
#
# Stress axis : x y z
#
# Youngs Moduli (GPa) = 84.41676 103.40259 143.52392
#
# Poissons Ratio (x) = 0.05664 0.39363
# Poissons Ratio (y) = 0.04624 0.47605
# Poissons Ratio (z) = 0.23152 0.34298
#
# Static dielectric constant tensor:
#      x y z
#    x 1.630830 0.000000 0.000000 
#    y 0.000000 1.584270 0.000000 
#    z 0.000000 0.000000 1.642810 
# 
# From -- ./inp_files/4784.got.cif
#   From: 2010.05.17/outbox.cif.g08.bks.cpg/sg63_3_cif.got.tgz:4784.got - 2010.06.03 15:47:04.
