data_PCOD9472155
_publ_section_title
;
Structure prediction by ZEFSAII (Michael W. Deem and Ramdas Pophale) SiO2 
 PCOD9472155
Probable space group: C M C M
;
_chemical_formula_sum "Si O2"
_cell_formula_units_Z 44
_cell_length_a 16.459973
_cell_length_b 20.329919
_cell_length_c 5.665459
_cell_angle_alpha 90.000000
_cell_angle_beta 90.000000
_cell_angle_gamma 90.000000
_cell_volume 1895.832080
_symmetry_space_group_name_H-M "C M C M"
_symmetry_group_IT_number 63
_symmetry_cell_setting 'orthorhombic'
loop_
_space_group_symop_operation_xyz
x,y,z
-x,-y,1/2+z
x,-y,-z
-x,y,1/2-z
-x,-y,-z
x,y,1/2-z
-x,y,z
x,-y,1/2+z
1/2+x,1/2+y,z
1/2-x,1/2-y,1/2+z
1/2+x,1/2-y,-z
1/2-x,1/2+y,1/2-z
1/2-x,1/2-y,-z
1/2+x,1/2+y,1/2-z
1/2-x,1/2+y,z
1/2+x,1/2-y,1/2+z
loop_
_atom_site_type_symbol
_atom_site_label
_atom_site_fract_x
_atom_site_fract_y
_atom_site_fract_z
Si Si1 0.244014 0.571304 0.250000
Si Si2 0.819409 0.419973 0.250000
Si Si3 0.500000 0.038794 0.750000
Si Si4 0.906919 0.864726 0.750000
Si Si5 0.652339 0.241752 0.999800
O O1 0.213576 0.604209 0.495237
O O2 0.211680 0.496917 0.250000
O O3 0.341122 0.577698 0.250000
O O4 0.915744 0.423430 0.250000
O O5 0.500000 0.000000 0.500000
O O6 0.885973 0.814670 0.534986
O O7 0.000000 0.884640 0.750000
O O8 0.624439 0.214588 0.250000
O O9 0.630593 0.208351 0.750000
O O10 0.750000 0.250000 0.000000
#
# Coordination Sequence:
#
# PCOD9472155 Si02
#       5
#     8   8   4   8  16
#     4  10  20  34  50  78 113 141 182 219 273 318
#     4  10  20  36  53  79 105 151 177 216 282 323
#     4  12  16  32  60  86  96 128 200 224 256 330
#     4  10  22  34  55  86 104 142 193 229 249 318
#     4   8  16  32  52  75  96 130 170 214 274 313
#
# _framework density 23.208807
#
# number of rings (size 3 to 8) (size 9 to 14) (size 15 to 20)
#    1.091    1.455    3.636    0.000    2.545    0.727 
#    0.000    3.636    0.000    0.000   18.909    0.000 
#    0.000    0.000    0.000    0.000    0.000    0.000 
#
# Total GULP energy -122607.643351 kJ/mol
# GULP energy per Si atom -5573.074698 kJ/mol
# Density = 2.315598 g / cm^3
# Si number density = 23.208807 Si / 1000 Ang^3
#
#
#
# Elastic Constant Matrix: (Units=GPa)
#
#
# Indices 1 2 3 4 5 6 
#
# 1 197.0455 34.6422 24.7598 0.0000 0.0000 0.0000
# 2 34.6422 69.4803 24.9313 0.0000 0.0000 0.0000
# 3 24.7598 24.9313 253.1556 0.0000 0.0000 0.0000
# 4 0.0000 0.0000 0.0000 26.6484 0.0000 0.0000
# 5 0.0000 0.0000 0.0000 0.0000 19.1546 0.0000
# 6 0.0000 0.0000 0.0000 0.0000 0.0000 19.4946
#
#
#
# Elastic Compliance Matrix: (Units=1/GPa)
#
#
# Indices 1 2 3 4 5 6 
#
# 1 0.005582 -0.002682 -0.000282 0.000000 0.000000 0.000000
# 2 -0.002682 0.016208 -0.001334 0.000000 0.000000 0.000000
# 3 -0.000282 -0.001334 0.004109 0.000000 0.000000 0.000000
# 4 0.000000 0.000000 0.000000 0.037526 0.000000 0.000000
# 5 0.000000 0.000000 0.000000 0.000000 0.052207 0.000000
# 6 0.000000 0.000000 0.000000 0.000000 0.000000 0.051296
#
#
# Mechanical properties :
#
#
# Convention : Reuss Voigt Hill
#
# Bulk Modulus (GPa) = 57.79017 76.48311 67.13664
# Shear Modulus (GPa) = 27.57989 42.08273 34.83131
#
# Velocity S-wave (km/s) = 3.45097 4.26281 3.87819
# Velocity P-wave (km/s) = 6.39007 7.56668 7.00313
#
# Compressibility (1/GPa) = 0.01730398
#
# Stress axis : x y z
#
# Youngs Moduli (GPa) = 179.15080 61.69636 243.36404
#
# Poissons Ratio (x) = 0.16547 0.06858
# Poissons Ratio (y) = 0.48047 0.32463
# Poissons Ratio (z) = 0.05049 0.08230
#
# Static dielectric constant tensor:
#      x y z
#    x 1.787960 0.000000 0.000000 
#    y 0.000000 2.003790 0.000000 
#    z 0.000000 0.000000 1.861430 
# 
# From -- ./inp_files/529.got.cif
#   From: 2010.05.17/outbox.cif.g08.bks.cpg/sg63_1_cif.got.tgz:529.got - 2010.06.03 15:47:04.
