data_PCOD9472305
_publ_section_title
;
Structure prediction by ZEFSAII (Michael W. Deem and Ramdas Pophale) SiO2 
 PCOD9472305
Probable space group: C M C M
;
_chemical_formula_sum "Si O2"
_cell_formula_units_Z 72
_cell_length_a 26.414034
_cell_length_b 17.712694
_cell_length_c 8.474009
_cell_angle_alpha 90.000000
_cell_angle_beta 90.000000
_cell_angle_gamma 90.000000
_cell_volume 3964.681218
_symmetry_space_group_name_H-M "C M C M"
_symmetry_group_IT_number 63
_symmetry_cell_setting 'orthorhombic'
loop_
_space_group_symop_operation_xyz
x,y,z
-x,-y,1/2+z
x,-y,-z
-x,y,1/2-z
-x,-y,-z
x,y,1/2-z
-x,y,z
x,-y,1/2+z
1/2+x,1/2+y,z
1/2-x,1/2-y,1/2+z
1/2+x,1/2-y,-z
1/2-x,1/2+y,1/2-z
1/2-x,1/2-y,-z
1/2+x,1/2+y,1/2-z
1/2-x,1/2+y,z
1/2+x,1/2-y,1/2+z
loop_
_atom_site_type_symbol
_atom_site_label
_atom_site_fract_x
_atom_site_fract_y
_atom_site_fract_z
Si Si1 0.806517 0.238935 0.562812
Si Si2 0.089872 0.699669 0.940278
Si Si3 0.500000 0.913461 0.441444
Si Si4 0.159796 0.922600 0.561009
Si Si5 0.445577 0.367783 0.558281
O O1 0.806979 0.245222 0.750000
O O2 0.750000 0.250000 0.500000
O O3 0.851963 0.293268 0.499286
O O4 0.818433 0.153944 0.508431
O O5 0.091968 0.696779 0.750000
O O6 0.065109 0.780493 0.985021
O O7 0.050884 0.633406 0.991283
O O8 0.500000 0.913730 0.250000
O O9 0.500000 0.000000 0.500000
O O10 0.162479 0.919691 0.750000
O O11 0.101323 0.917574 0.506755
O O12 0.183220 0.000000 0.500000
O O13 0.446222 0.369208 0.750000
O O14 0.500000 0.392085 0.497925
#
# Coordination Sequence:
#
# PCOD9472305 Si02
#       5
#    16  16   8  16  16
#     4  11  22  38  60  84 109 142 189 239 288 344
#     4   9  17  33  56  80 109 147 188 229 279 336
#     4  10  20  34  56  84 119 156 191 236 292 348
#     4  10  20  34  53  78 111 145 180 221 270 322
#     4   8  13  25  48  74 101 138 179 213 252 307
#
# _framework density 18.160349
#
# number of rings (size 3 to 8) (size 9 to 14) (size 15 to 20)
#    0.000    2.444    1.111    4.000    0.000    1.333 
#    0.000    1.111    0.000    4.000    0.000    0.000 
#    0.000    0.000    0.000    0.000    0.000    0.000 
#
# Total GULP energy -200496.195050 kJ/mol
# GULP energy per Si atom -5569.338751 kJ/mol
# Density = 1.811902 g / cm^3
# Si number density = 18.160349 Si / 1000 Ang^3
#
#
#
# Elastic Constant Matrix: (Units=GPa)
#
#
# Indices 1 2 3 4 5 6 
#
# 1 153.5181 63.5251 34.7485 0.0000 0.0000 0.0000
# 2 63.5251 121.3991 25.2681 0.0000 0.0000 0.0000
# 3 34.7485 25.2681 52.3556 0.0000 0.0000 0.0000
# 4 0.0000 0.0000 0.0000 24.3406 0.0000 0.0000
# 5 0.0000 0.0000 0.0000 0.0000 21.8960 0.0000
# 6 0.0000 0.0000 0.0000 0.0000 0.0000 12.4309
#
#
#
# Elastic Compliance Matrix: (Units=1/GPa)
#
#
# Indices 1 2 3 4 5 6 
#
# 1 0.009055 -0.003877 -0.004139 0.000000 0.000000 0.000000
# 2 -0.003877 0.010817 -0.002648 0.000000 0.000000 0.000000
# 3 -0.004139 -0.002648 0.023125 0.000000 0.000000 0.000000
# 4 0.000000 0.000000 0.000000 0.041084 0.000000 0.000000
# 5 0.000000 0.000000 0.000000 0.000000 0.045671 0.000000
# 6 0.000000 0.000000 0.000000 0.000000 0.000000 0.080445
#
#
# Mechanical properties :
#
#
# Convention : Reuss Voigt Hill
#
# Bulk Modulus (GPa) = 46.14542 63.81735 54.98139
# Shear Modulus (GPa) = 20.94286 25.31559 23.12922
#
# Velocity S-wave (km/s) = 3.39959 3.73769 3.57264
# Velocity P-wave (km/s) = 6.39334 7.33787 6.88183
#
# Compressibility (1/GPa) = 0.02167062
#
# Stress axis : x y z
#
# Youngs Moduli (GPa) = 110.43802 92.44756 43.24370
#
# Poissons Ratio (x) = 0.35840 0.17897
# Poissons Ratio (y) = 0.42814 0.11449
# Poissons Ratio (z) = 0.45707 0.24476
#
# Static dielectric constant tensor:
#      x y z
#    x 1.652450 0.000000 0.000000 
#    y 0.000000 1.606900 0.000000 
#    z 0.000000 0.000000 1.625040 
# 
# From -- ./inp_files/9889.got.cif
#   From: 2010.05.17/outbox.cif.g08.bks.cpg/sg63_5_cif.got.tgz:9889.got - 2010.06.03 15:47:04.
