data_PCOD9472247
_publ_section_title
;
Structure prediction by ZEFSAII (Michael W. Deem and Ramdas Pophale) SiO2 
 PCOD9472247
Probable space group: C M C M
;
_chemical_formula_sum "Si O2"
_cell_formula_units_Z 96
_cell_length_a 9.216430
_cell_length_b 32.896542
_cell_length_c 18.791198
_cell_angle_alpha 90.000000
_cell_angle_beta 90.000000
_cell_angle_gamma 90.000000
_cell_volume 5697.278453
_symmetry_space_group_name_H-M "C M C M"
_symmetry_group_IT_number 63
_symmetry_cell_setting 'orthorhombic'
loop_
_space_group_symop_operation_xyz
x,y,z
-x,-y,1/2+z
x,-y,-z
-x,y,1/2-z
-x,-y,-z
x,y,1/2-z
-x,y,z
x,-y,1/2+z
1/2+x,1/2+y,z
1/2-x,1/2-y,1/2+z
1/2+x,1/2-y,-z
1/2-x,1/2+y,1/2-z
1/2-x,1/2-y,-z
1/2+x,1/2+y,1/2-z
1/2-x,1/2+y,z
1/2+x,1/2-y,1/2+z
loop_
_atom_site_type_symbol
_atom_site_label
_atom_site_fract_x
_atom_site_fract_y
_atom_site_fract_z
Si Si1 0.173880 0.081661 0.168300
Si Si2 0.171816 0.832116 0.333994
Si Si3 0.672439 0.874847 0.043450
Si Si4 0.171413 0.248123 0.334226
Si Si5 0.173606 0.541676 0.037598
Si Si6 0.326591 0.664937 0.087007
O O1 0.220543 0.076344 0.250000
O O2 0.249362 0.051850 0.112031
O O3 0.203879 0.127719 0.141331
O O4 0.000000 0.076240 0.165076
O O5 0.198617 0.838426 0.250000
O O6 0.251898 0.864922 0.382376
O O7 0.236472 0.787814 0.352706
O O8 0.000000 0.832904 0.346465
O O9 0.500000 0.869528 0.048411
O O10 0.702808 0.920076 0.014193
O O11 0.739676 0.844737 0.984421
O O12 0.191032 0.239754 0.250000
O O13 0.210595 0.208082 0.378375
O O14 0.000000 0.256585 0.345303
O O15 0.000000 0.539829 0.049106
O O16 0.220175 0.500000 0.000000
O O17 0.500000 0.664375 0.072942
#
# Coordination Sequence:
#
# PCOD9472247 Si02
#       6
#    16  16  16  16  16  16
#     4   9  17  30  50  77 106 133 162 197 240 292
#     4  10  21  36  52  70  95 128 165 206 248 286
#     4  10  20  34  53  74  95 124 162 201 243 292
#     4   9  17  30  49  72  98 131 169 204 239 281
#     4   9  19  36  55  75 100 129 162 201 245 293
#     4   9  17  30  49  73 102 133 162 197 241 287
#
# _framework density 16.850151
#
# number of rings (size 3 to 8) (size 9 to 14) (size 15 to 20)
#    0.000    2.667    0.000    1.500    0.000    5.667 
#    0.000    0.833    0.000    8.000    0.000    0.000 
#    0.000    0.000    0.000    0.000    0.000    0.000 
#
# Total GULP energy -267719.207997 kJ/mol
# GULP energy per Si atom -5577.483500 kJ/mol
# Density = 1.681180 g / cm^3
# Si number density = 16.850151 Si / 1000 Ang^3
#
#
#
# Elastic Constant Matrix: (Units=GPa)
#
#
# Indices 1 2 3 4 5 6 
#
# 1 48.0152 47.1778 60.5930 0.0000 0.0000 0.0000
# 2 47.1778 71.6126 67.9104 0.0000 0.0000 0.0000
# 3 60.5930 67.9104 107.6503 0.0000 0.0000 0.0000
# 4 0.0000 0.0000 0.0000 24.2023 0.0000 0.0000
# 5 0.0000 0.0000 0.0000 0.0000 28.1176 0.0000
# 6 0.0000 0.0000 0.0000 0.0000 0.0000 22.6404
#
#
#
# Elastic Compliance Matrix: (Units=1/GPa)
#
#
# Indices 1 2 3 4 5 6 
#
# 1 0.089902 -0.027975 -0.032955 0.000000 0.000000 0.000000
# 2 -0.027975 0.043462 -0.011671 0.000000 0.000000 0.000000
# 3 -0.032955 -0.011671 0.035201 0.000000 0.000000 0.000000
# 4 0.000000 0.000000 0.000000 0.041318 0.000000 0.000000
# 5 0.000000 0.000000 0.000000 0.000000 0.035565 0.000000
# 6 0.000000 0.000000 0.000000 0.000000 0.000000 0.044169
#
#
# Mechanical properties :
#
#
# Convention : Reuss Voigt Hill
#
# Bulk Modulus (GPa) = 42.80436 64.29340 53.54888
# Shear Modulus (GPa) = 11.29672 18.43184 14.86428
#
# Velocity S-wave (km/s) = 2.59206 3.31096 2.97332
# Velocity P-wave (km/s) = 5.86656 7.27017 6.60575
#
# Compressibility (1/GPa) = 0.02336211
#
# Stress axis : x y z
#
# Youngs Moduli (GPa) = 11.12326 23.00881 28.40820
#
# Poissons Ratio (x) = 0.64368 0.93619
# Poissons Ratio (y) = 0.31118 0.33155
# Poissons Ratio (z) = 0.36656 0.26853
#
# Static dielectric constant tensor:
#      x y z
#    x 1.559080 0.000000 0.000000 
#    y 0.000000 1.549240 0.000000 
#    z 0.000000 0.000000 1.559450 
# 
# From -- ./inp_files/51362.got.cif
#   From: 2010.05.17/outbox.cif.g08.bks.cpg/sg63_26_cif.got.tgz:51362.got - 2010.06.03 15:47:04.
