data_PCOD9472609
_publ_section_title
;
Structure prediction by ZEFSAII (Michael W. Deem and Ramdas Pophale) SiO2 
 PCOD9472609
Probable space group: C M C M
;
_chemical_formula_sum "Si O2"
_cell_formula_units_Z 72
_cell_length_a 13.629213
_cell_length_b 10.012261
_cell_length_c 27.552822
_cell_angle_alpha 90.000000
_cell_angle_beta 90.000000
_cell_angle_gamma 90.000000
_cell_volume 3759.837089
_symmetry_space_group_name_H-M "C M C M"
_symmetry_group_IT_number 63
_symmetry_cell_setting 'orthorhombic'
loop_
_space_group_symop_operation_xyz
x,y,z
-x,-y,1/2+z
x,-y,-z
-x,y,1/2-z
-x,-y,-z
x,y,1/2-z
-x,y,z
x,-y,1/2+z
1/2+x,1/2+y,z
1/2-x,1/2-y,1/2+z
1/2+x,1/2-y,-z
1/2-x,1/2+y,1/2-z
1/2-x,1/2-y,-z
1/2+x,1/2+y,1/2-z
1/2-x,1/2+y,z
1/2+x,1/2-y,1/2+z
loop_
_atom_site_type_symbol
_atom_site_label
_atom_site_fract_x
_atom_site_fract_y
_atom_site_fract_z
Si Si1 0.500000 0.530377 0.943833
Si Si2 0.833072 0.500000 0.000000
Si Si3 0.713365 0.851596 0.091264
Si Si4 0.832570 0.078923 0.375965
Si Si5 0.000000 0.809133 0.807238
Si Si6 0.000000 0.581607 0.875965
Si Si7 0.000000 0.652245 0.439903
O O1 0.592440 0.463396 0.917969
O O2 0.500000 0.689477 0.935381
O O3 0.500000 0.500000 0.000000
O O4 0.770540 0.589761 0.962530
O O5 0.905557 0.402040 0.969778
O O6 0.734886 0.699454 0.104203
O O7 0.596184 0.861847 0.097786
O O8 0.764655 0.949578 0.129765
O O9 0.902591 0.125045 0.331801
O O10 0.000000 0.653087 0.823940
O O11 0.000000 0.824442 0.750000
O O12 0.000000 0.424886 0.888039
#
# Coordination Sequence:
#
# PCOD9472609 Si02
#       7
#     8   8  16  16   8   8   8
#     4  11  22  35  53  77 124 169 212 234 283 338
#     4   9  18  30  52  75 118 164 196 225 286 317
#     4  10  20  35  53  82 121 153 197 235 277 338
#     4  10  23  36  56  88 114 149 196 243 286 346
#     4   9  19  44  67  81 108 150 184 237 312 372
#     4   8  18  35  58  82 111 148 189 239 296 346
#     4   9  17  32  52  80 112 162 205 249 267 329
#
# _framework density 19.149764999999999
#
# number of rings (size 3 to 8) (size 9 to 14) (size 15 to 20)
#    0.000    2.444    0.000    2.667    7.778    2.667 
#    0.000    4.444    0.000    2.667    0.000    0.000 
#    0.000    0.000    0.000    0.000    0.000    0.000 
#
# Total GULP energy -200761.105245 kJ/mol
# GULP energy per Si atom -5576.697368 kJ/mol
# Density = 1.910618 g / cm^3
# Si number density = 19.149765 Si / 1000 Ang^3
#
#
#
# Elastic Constant Matrix: (Units=GPa)
#
#
# Indices 1 2 3 4 5 6 
#
# 1 54.3007 21.4700 22.8717 0.0000 0.0000 0.0000
# 2 21.4700 164.2731 49.3609 0.0000 0.0000 0.0000
# 3 22.8717 49.3609 124.2404 0.0000 0.0000 0.0000
# 4 0.0000 0.0000 0.0000 20.0549 0.0000 0.0000
# 5 0.0000 0.0000 0.0000 0.0000 9.9745 0.0000
# 6 0.0000 0.0000 0.0000 0.0000 0.0000 20.6638
#
#
#
# Elastic Compliance Matrix: (Units=1/GPa)
#
#
# Indices 1 2 3 4 5 6 
#
# 1 0.020396 -0.001746 -0.003061 0.000000 0.000000 0.000000
# 2 -0.001746 0.007062 -0.002484 0.000000 0.000000 0.000000
# 3 -0.003061 -0.002484 0.009599 0.000000 0.000000 0.000000
# 4 0.000000 0.000000 0.000000 0.049863 0.000000 0.000000
# 5 0.000000 0.000000 0.000000 0.000000 0.100255 0.000000
# 6 0.000000 0.000000 0.000000 0.000000 0.000000 0.048394
#
#
# Mechanical properties :
#
#
# Convention : Reuss Voigt Hill
#
# Bulk Modulus (GPa) = 44.49467 58.91329 51.70398
# Shear Modulus (GPa) = 19.40665 26.74608 23.07636
#
# Velocity S-wave (km/s) = 3.18687 3.74127 3.47514
# Velocity P-wave (km/s) = 6.06853 7.03520 6.56967
#
# Compressibility (1/GPa) = 0.02247460
#
# Stress axis : x y z
#
# Youngs Moduli (GPa) = 49.03018 141.60068 104.17231
#
# Poissons Ratio (x) = 0.24722 0.31888
# Poissons Ratio (y) = 0.08560 0.25880
# Poissons Ratio (z) = 0.15008 0.35179
#
# Static dielectric constant tensor:
#      x y z
#    x 1.731310 0.000000 0.000000 
#    y 0.000000 1.732690 0.000000 
#    z 0.000000 0.000000 1.637910 
# 
# From -- ./inp_files/69125.got.cif
#   From: 2010.05.17/outbox.cif.g08.bks.cpg/sg63_35_cif.got.tgz:69125.got - 2010.06.03 15:47:04.
