data_PCOD9472072
_publ_section_title
;
Structure prediction by ZEFSAII (Michael W. Deem and Ramdas Pophale) SiO2 
 PCOD9472072
Probable space group: C M C M
;
_chemical_formula_sum "Si O2"
_cell_formula_units_Z 112
_cell_length_a 7.423155
_cell_length_b 21.514703
_cell_length_c 30.170000
_cell_angle_alpha 90.000000
_cell_angle_beta 90.000000
_cell_angle_gamma 90.000000
_cell_volume 4818.359440
_symmetry_space_group_name_H-M "C M C M"
_symmetry_group_IT_number 63
_symmetry_cell_setting 'orthorhombic'
loop_
_space_group_symop_operation_xyz
x,y,z
-x,-y,1/2+z
x,-y,-z
-x,y,1/2-z
-x,-y,-z
x,y,1/2-z
-x,y,z
x,-y,1/2+z
1/2+x,1/2+y,z
1/2-x,1/2-y,1/2+z
1/2+x,1/2-y,-z
1/2-x,1/2+y,1/2-z
1/2-x,1/2-y,-z
1/2+x,1/2+y,1/2-z
1/2-x,1/2+y,z
1/2+x,1/2-y,1/2+z
loop_
_atom_site_type_symbol
_atom_site_label
_atom_site_fract_x
_atom_site_fract_y
_atom_site_fract_z
Si Si1 0.717471 0.860356 0.801434
Si Si2 0.718844 0.590736 0.487412
Si Si3 0.283302 0.470972 0.071471
Si Si4 0.279703 0.128382 0.798873
Si Si5 0.715431 0.718451 0.453158
Si Si6 0.793725 0.502964 0.328690
Si Si7 0.212467 0.738109 0.860123
O O1 0.774722 0.853915 0.750000
O O2 0.500000 0.860523 0.802219
O O3 0.781409 0.927776 0.820231
O O4 0.771121 0.801231 0.831209
O O5 0.500000 0.593136 0.489429
O O6 0.777438 0.584799 0.538828
O O7 0.761522 0.530596 0.458542
O O8 0.786438 0.649255 0.460477
O O9 0.500000 0.467287 0.076524
O O10 0.207699 0.482743 0.119854
O O11 0.233095 0.151445 0.750000
O O12 0.500000 0.126116 0.801518
O O13 0.213719 0.177893 0.834806
O O14 0.213762 0.057799 0.805117
O O15 0.500000 0.714220 0.447258
O O16 0.750000 0.750000 0.500000
O O17 0.788272 0.750746 0.409201
O O18 0.000000 0.507399 0.312873
O O19 0.000000 0.725929 0.864817
#
# Coordination Sequence:
#
# PCOD9472072 Si02
#       7
#    16  16  16  16  16  16  16
#     4  10  21  37  57  82 112 145 180 221 275 335
#     4   8  16  32  51  71 101 139 177 212 261 320
#     4   9  17  32  54  75  98 137 180 217 258 316
#     4   9  18  34  55  78 107 143 179 217 268 326
#     4  10  21  35  52  77 109 142 178 223 270 321
#     4  10  20  33  53  80 110 139 174 219 270 323
#     4  10  21  37  59  84 108 141 188 234 271 317
#
# _framework density 23.244425
#
# number of rings (size 3 to 8) (size 9 to 14) (size 15 to 20)
#    0.000    2.571    0.000    2.571    2.000    4.857 
#    0.000    2.857    0.000    2.143    0.000    0.000 
#    0.000    0.000    0.000    0.000    0.000    0.000 
#
# Total GULP energy -312606.346120 kJ/mol
# GULP energy per Si atom -5582.256181 kJ/mol
# Density = 2.319152 g / cm^3
# Si number density = 23.244425 Si / 1000 Ang^3
#
#
#
# Elastic Constant Matrix: (Units=GPa)
#
#
# Indices 1 2 3 4 5 6 
#
# 1 73.3501 -7.5512 -11.7959 0.0000 0.0000 0.0000
# 2 -7.5512 76.4835 14.0072 0.0000 0.0000 0.0000
# 3 -11.7959 14.0072 117.5739 0.0000 0.0000 0.0000
# 4 0.0000 0.0000 0.0000 31.8629 0.0000 0.0000
# 5 0.0000 0.0000 0.0000 0.0000 14.0470 0.0000
# 6 0.0000 0.0000 0.0000 0.0000 0.0000 -14.6551
#
#
#
# Elastic Compliance Matrix: (Units=1/GPa)
#
#
# Indices 1 2 3 4 5 6 
#
# 1 0.013954 0.001146 0.001263 0.000000 0.000000 0.000000
# 2 0.001146 0.013461 -0.001489 0.000000 0.000000 0.000000
# 3 0.001263 -0.001489 0.008809 0.000000 0.000000 0.000000
# 4 0.000000 0.000000 0.000000 0.031384 0.000000 0.000000
# 5 0.000000 0.000000 0.000000 0.000000 0.071190 0.000000
# 6 0.000000 0.000000 0.000000 0.000000 0.000000 -0.068236
#
#
# Mechanical properties :
#
#
# Convention : Reuss Voigt Hill
#
# Bulk Modulus (GPa) = 26.26968 28.52529 27.39748
# Shear Modulus (GPa) = 61.41778 24.43410 42.92594
#
# Velocity S-wave (km/s) = 5.14587 3.24571 4.30201
# Velocity P-wave (km/s) = 6.82881 5.13271 6.04058
#
# Compressibility (1/GPa) = 0.03806670
#
# Stress axis : x y z
#
# Youngs Moduli (GPa) = 71.66176 74.29129 113.51517
#
# Poissons Ratio (x) = -0.08516 -0.14342
# Poissons Ratio (y) = -0.08215 0.16898
# Poissons Ratio (z) = -0.09054 0.11059
#
# Static dielectric constant tensor:
#      x y z
#    x 1.896370 0.000000 0.000000 
#    y 0.000000 1.964100 0.000000 
#    z 0.000000 0.000000 1.867120 
# 
# From -- ./inp_files/61797.got.cif
#   From: 2010.05.17/outbox.cif.g08.bks.cpg/sg63_31_cif.got.tgz:61797.got - 2010.06.03 15:47:04.
