data_PCOD9472460
_publ_section_title
;
Structure prediction by ZEFSAII (Michael W. Deem and Ramdas Pophale) SiO2 
 PCOD9472460
Probable space group: C M C M
;
_chemical_formula_sum "Si O2"
_cell_formula_units_Z 96
_cell_length_a 9.009220
_cell_length_b 30.032778
_cell_length_c 18.990138
_cell_angle_alpha 90.000000
_cell_angle_beta 90.000000
_cell_angle_gamma 90.000000
_cell_volume 5138.197800
_symmetry_space_group_name_H-M "C M C M"
_symmetry_group_IT_number 63
_symmetry_cell_setting 'orthorhombic'
loop_
_space_group_symop_operation_xyz
x,y,z
-x,-y,1/2+z
x,-y,-z
-x,y,1/2-z
-x,-y,-z
x,y,1/2-z
-x,y,z
x,-y,1/2+z
1/2+x,1/2+y,z
1/2-x,1/2-y,1/2+z
1/2+x,1/2-y,-z
1/2-x,1/2+y,1/2-z
1/2-x,1/2-y,-z
1/2+x,1/2+y,1/2-z
1/2-x,1/2+y,z
1/2+x,1/2-y,1/2+z
loop_
_atom_site_type_symbol
_atom_site_label
_atom_site_fract_x
_atom_site_fract_y
_atom_site_fract_z
Si Si1 0.824226 0.812845 0.943175
Si Si2 0.177866 0.591500 0.421783
Si Si3 0.674848 0.725008 0.600815
Si Si4 0.821908 0.559551 0.577150
Si Si5 0.677669 0.518243 0.168353
Si Si6 0.825075 0.644731 0.829882
O O1 0.740959 0.858741 0.927843
O O2 0.761121 0.771579 0.898424
O O3 0.000000 0.818120 0.932719
O O4 0.798810 0.797976 0.024357
O O5 0.214079 0.565733 0.495009
O O6 0.251047 0.564111 0.358719
O O7 0.000000 0.592593 0.415406
O O8 0.500000 0.732902 0.607992
O O9 0.734309 0.689306 0.656039
O O10 0.740359 0.520149 0.617569
O O11 0.783686 0.605732 0.616328
O O12 0.000000 0.552750 0.583052
O O13 0.716704 0.509401 0.250000
O O14 0.500000 0.520293 0.162769
O O15 0.804278 0.628867 0.750000
O O16 0.000000 0.654336 0.840406
#
# Coordination Sequence:
#
# PCOD9472460 Si02
#       6
#    16  16  16  16  16  16
#     4  10  20  35  58  85 115 150 189 235 287 340
#     4  11  22  38  63  91 117 149 194 245 292 345
#     4  10  20  34  55  83 116 152 191 236 284 338
#     4  10  21  38  61  88 117 151 195 242 291 348
#     4  11  25  42  59  83 118 157 195 239 293 350
#     4  10  20  35  56  83 119 159 195 238 292 348
#
# _framework density 18.683595
#
# number of rings (size 3 to 8) (size 9 to 14) (size 15 to 20)
#    0.000    1.667    1.667    3.000    0.000    7.667 
#    0.000    0.833    0.000    5.000    0.000    0.000 
#    0.000    0.000    0.000    0.000    0.000    0.000 
#
# Total GULP energy -268198.995574 kJ/mol
# GULP energy per Si atom -5587.479074 kJ/mol
# Density = 1.864107 g / cm^3
# Si number density = 18.683595 Si / 1000 Ang^3
#
#
#
# Elastic Constant Matrix: (Units=GPa)
#
#
# Indices 1 2 3 4 5 6 
#
# 1 34.8596 44.8182 20.8960 0.0000 0.0000 0.0000
# 2 44.8182 105.7832 24.7396 0.0000 0.0000 0.0000
# 3 20.8960 24.7396 42.2053 0.0000 0.0000 0.0000
# 4 0.0000 0.0000 0.0000 19.0906 0.0000 0.0000
# 5 0.0000 0.0000 0.0000 0.0000 24.1711 0.0000
# 6 0.0000 0.0000 0.0000 0.0000 0.0000 41.2330
#
#
#
# Elastic Compliance Matrix: (Units=1/GPa)
#
#
# Indices 1 2 3 4 5 6 
#
# 1 0.077562 -0.027674 -0.022179 0.000000 0.000000 0.000000
# 2 -0.027674 0.020829 0.001492 0.000000 0.000000 0.000000
# 3 -0.022179 0.001492 0.033800 0.000000 0.000000 0.000000
# 4 0.000000 0.000000 0.000000 0.052382 0.000000 0.000000
# 5 0.000000 0.000000 0.000000 0.000000 0.041372 0.000000
# 6 0.000000 0.000000 0.000000 0.000000 0.000000 0.024252
#
#
# Mechanical properties :
#
#
# Convention : Reuss Voigt Hill
#
# Bulk Modulus (GPa) = 28.19414 40.41729 34.30571
# Shear Modulus (GPa) = 13.93758 23.05857 18.49808
#
# Velocity S-wave (km/s) = 2.73423 3.51687 3.14995
# Velocity P-wave (km/s) = 5.00910 6.17824 5.62413
#
# Compressibility (1/GPa) = 0.03546836
#
# Stress axis : x y z
#
# Youngs Moduli (GPa) = 12.89299 48.00911 29.58570
#
# Poissons Ratio (x) = 1.32862 0.65618
# Poissons Ratio (y) = 0.35680 -0.04414
# Poissons Ratio (z) = 0.28595 -0.07163
#
# Static dielectric constant tensor:
#      x y z
#    x 1.618590 0.000000 0.000000 
#    y 0.000000 1.624500 0.000000 
#    z 0.000000 0.000000 1.640170 
# 
# From -- ./inp_files/51366.got.cif
#   From: 2010.05.17/outbox.cif.g08.bks.cpg/sg63_26_cif.got.tgz:51366.got - 2010.06.03 15:47:04.
