data_PCOD9472160
_publ_section_title
;
Structure prediction by ZEFSAII (Michael W. Deem and Ramdas Pophale) SiO2 
 PCOD9472160
Probable space group: C M C M
;
_chemical_formula_sum "Si O2"
_cell_formula_units_Z 96
_cell_length_a 29.253420
_cell_length_b 20.410199
_cell_length_c 9.802443
_cell_angle_alpha 90.000000
_cell_angle_beta 90.000000
_cell_angle_gamma 90.000000
_cell_volume 5852.726249
_symmetry_space_group_name_H-M "C M C M"
_symmetry_group_IT_number 63
_symmetry_cell_setting 'orthorhombic'
loop_
_space_group_symop_operation_xyz
x,y,z
-x,-y,1/2+z
x,-y,-z
-x,y,1/2-z
-x,-y,-z
x,y,1/2-z
-x,y,z
x,-y,1/2+z
1/2+x,1/2+y,z
1/2-x,1/2-y,1/2+z
1/2+x,1/2-y,-z
1/2-x,1/2+y,1/2-z
1/2-x,1/2-y,-z
1/2+x,1/2+y,1/2-z
1/2-x,1/2+y,z
1/2+x,1/2-y,1/2+z
loop_
_atom_site_type_symbol
_atom_site_label
_atom_site_fract_x
_atom_site_fract_y
_atom_site_fract_z
Si Si1 0.865436 0.433339 0.414577
Si Si2 0.447856 0.164121 0.915909
Si Si3 0.091681 0.195967 0.083782
Si Si4 0.195930 0.191593 0.408482
Si Si5 0.223379 0.654990 0.907091
Si Si6 0.945335 0.057443 0.404543
O O1 0.864801 0.500000 0.500000
O O2 0.866885 0.444736 0.250000
O O3 0.909971 0.389915 0.452541
O O4 0.819652 0.390817 0.442637
O O5 0.448467 0.165652 0.750000
O O6 0.500000 0.151161 0.960986
O O7 0.430773 0.235966 0.962600
O O8 0.091612 0.199521 0.250000
O O9 0.144071 0.187085 0.040740
O O10 0.065193 0.130413 0.044448
O O11 0.197896 0.171529 0.250000
O O12 0.207421 0.269139 0.413638
O O13 0.232918 0.151901 0.495250
O O14 0.235968 0.641244 0.750000
O O15 0.927351 0.051463 0.250000
O O16 0.000000 0.050775 0.398210
O O17 0.927017 0.000000 0.500000
#
# Coordination Sequence:
#
# PCOD9472160 Si02
#       6
#    16  16  16  16  16  16
#     4  10  20  34  51  72 100 133 167 205 249 295
#     4   9  16  28  49  75  99 125 164 210 249 287
#     4   9  15  27  48  74  98 123 158 202 242 281
#     4   9  16  28  50  74  95 118 153 198 240 281
#     4   9  17  31  48  69  96 124 155 194 238 285
#     4   9  17  29  46  68  94 125 158 190 230 283
#
# _framework density 16.402612999999999
#
# number of rings (size 3 to 8) (size 9 to 14) (size 15 to 20)
#    0.000    2.833    1.667    0.500    0.000    3.000 
#    0.000    1.667    0.000    5.000    0.000    0.000 
#    0.000    0.000    0.000    0.000    0.000    0.000 
#
# Total GULP energy -267210.889218 kJ/mol
# GULP energy per Si atom -5566.893525 kJ/mol
# Density = 1.636528 g / cm^3
# Si number density = 16.402613 Si / 1000 Ang^3
#
#
#
# Elastic Constant Matrix: (Units=GPa)
#
#
# Indices 1 2 3 4 5 6 
#
# 1 100.4272 56.4840 38.3700 0.0000 0.0000 0.0000
# 2 56.4840 107.5510 45.5627 0.0000 0.0000 0.0000
# 3 38.3700 45.5627 34.6963 0.0000 0.0000 0.0000
# 4 0.0000 0.0000 0.0000 24.4773 0.0000 0.0000
# 5 0.0000 0.0000 0.0000 0.0000 15.6585 0.0000
# 6 0.0000 0.0000 0.0000 0.0000 0.0000 22.7816
#
#
#
# Elastic Compliance Matrix: (Units=1/GPa)
#
#
# Indices 1 2 3 4 5 6 
#
# 1 0.017478 -0.002233 -0.016396 0.000000 0.000000 0.000000
# 2 -0.002233 0.021241 -0.025424 0.000000 0.000000 0.000000
# 3 -0.016396 -0.025424 0.080341 0.000000 0.000000 0.000000
# 4 0.000000 0.000000 0.000000 0.040854 0.000000 0.000000
# 5 0.000000 0.000000 0.000000 0.000000 0.063863 0.000000
# 6 0.000000 0.000000 0.000000 0.000000 0.000000 0.043895
#
#
# Mechanical properties :
#
#
# Convention : Reuss Voigt Hill
#
# Bulk Modulus (GPa) = 32.30718 58.16752 45.23735
# Shear Modulus (GPa) = 13.65759 19.40065 16.52912
#
# Velocity S-wave (km/s) = 2.88869 3.44289 3.17789
# Velocity P-wave (km/s) = 5.55564 7.16547 6.41128
#
# Compressibility (1/GPa) = 0.03095288
#
# Stress axis : x y z
#
# Youngs Moduli (GPa) = 57.21538 47.07773 12.44701
#
# Poissons Ratio (x) = 0.10513 0.20408
# Poissons Ratio (y) = 0.12777 0.31646
# Poissons Ratio (z) = 0.93810 1.19692
#
# Static dielectric constant tensor:
#      x y z
#    x 1.557890 0.000000 0.000000 
#    y 0.000000 1.538130 0.000000 
#    z 0.000000 0.000000 1.555640 
# 
# From -- ./inp_files/23925.got.cif
#   From: 2010.05.17/outbox.cif.g08.bks.cpg/sg63_12_cif.got.tgz:23925.got - 2010.06.03 15:47:04.
