data_PCOD9472496
_publ_section_title
;
Structure prediction by ZEFSAII (Michael W. Deem and Ramdas Pophale) SiO2 
 PCOD9472496
Probable space group: C M C M
;
_chemical_formula_sum "Si O2"
_cell_formula_units_Z 104
_cell_length_a 21.954392
_cell_length_b 29.224224
_cell_length_c 8.850098
_cell_angle_alpha 90.000000
_cell_angle_beta 90.000000
_cell_angle_gamma 90.000000
_cell_volume 5678.223493
_symmetry_space_group_name_H-M "C M C M"
_symmetry_group_IT_number 63
_symmetry_cell_setting 'orthorhombic'
loop_
_space_group_symop_operation_xyz
x,y,z
-x,-y,1/2+z
x,-y,-z
-x,y,1/2-z
-x,-y,-z
x,y,1/2-z
-x,y,z
x,-y,1/2+z
1/2+x,1/2+y,z
1/2-x,1/2-y,1/2+z
1/2+x,1/2-y,-z
1/2-x,1/2+y,1/2-z
1/2-x,1/2-y,-z
1/2+x,1/2+y,1/2-z
1/2-x,1/2+y,z
1/2+x,1/2-y,1/2+z
loop_
_atom_site_type_symbol
_atom_site_label
_atom_site_fract_x
_atom_site_fract_y
_atom_site_fract_z
Si Si1 0.373581 0.601479 0.068286
Si Si2 0.688053 0.795496 0.928222
Si Si3 0.500000 0.551363 0.432293
Si Si4 0.178784 0.192879 0.930148
Si Si5 0.427576 0.954551 0.920119
Si Si6 0.758098 0.950149 0.431122
Si Si7 0.645692 0.117798 0.927274
O O1 0.369307 0.601408 0.250000
O O2 0.439115 0.579898 0.025368
O O3 0.359479 0.652811 0.008923
O O4 0.320392 0.569967 0.999081
O O5 0.701568 0.795507 0.750000
O O6 0.661223 0.745504 0.965599
O O7 0.750788 0.806658 0.016091
O O8 0.645002 0.836489 0.975621
O O9 0.500000 0.500000 0.500000
O O10 0.500000 0.547010 0.250000
O O11 0.176615 0.185527 0.750000
O O12 0.402809 0.949248 0.750000
O O13 0.500000 0.958939 0.908862
O O14 0.411015 0.912804 0.026400
O O15 0.403050 0.000000 0.000000
O O16 0.762682 0.953582 0.250000
O O17 0.704364 0.913920 0.465580
O O18 0.746157 0.000000 0.500000
O O19 0.648039 0.128117 0.750000
#
# Coordination Sequence:
#
# PCOD9472496 Si02
#       7
#    16  16   8  16  16  16  16
#     4  11  22  38  60  83 112 150 191 238 289 343
#     4  10  20  34  56  84 116 149 184 227 279 334
#     4  10  24  42  60  86 114 150 200 244 291 350
#     4  10  20  35  56  85 115 145 185 228 277 338
#     4  10  21  37  57  80 109 147 190 231 272 327
#     4  11  23  36  52  80 115 147 184 229 278 337
#     4  11  22  35  55  83 115 147 185 232 279 335
#
# _framework density 18.315588000000002
#
# number of rings (size 3 to 8) (size 9 to 14) (size 15 to 20)
#    0.000    1.538    1.538    3.692    0.000    8.308 
#    0.000    0.000    1.692    0.000    0.000    0.000 
#    0.000    0.000    0.000    0.000    0.000    0.000 
#
# Total GULP energy -290307.600951 kJ/mol
# GULP energy per Si atom -5582.838480 kJ/mol
# Density = 1.827390 g / cm^3
# Si number density = 18.315588 Si / 1000 Ang^3
#
#
#
# Elastic Constant Matrix: (Units=GPa)
#
#
# Indices 1 2 3 4 5 6 
#
# 1 54.2938 31.1544 28.5655 0.0000 0.0000 0.0000
# 2 31.1544 143.7240 39.6557 0.0000 0.0000 0.0000
# 3 28.5655 39.6557 54.6105 0.0000 0.0000 0.0000
# 4 0.0000 0.0000 0.0000 34.6439 0.0000 0.0000
# 5 0.0000 0.0000 0.0000 0.0000 22.4241 0.0000
# 6 0.0000 0.0000 0.0000 0.0000 0.0000 16.6355
#
#
#
# Elastic Compliance Matrix: (Units=1/GPa)
#
#
# Indices 1 2 3 4 5 6 
#
# 1 0.026036 -0.002359 -0.011906 0.000000 0.000000 0.000000
# 2 -0.002359 0.008915 -0.005240 0.000000 0.000000 0.000000
# 3 -0.011906 -0.005240 0.028344 0.000000 0.000000 0.000000
# 4 0.000000 0.000000 0.000000 0.028865 0.000000 0.000000
# 5 0.000000 0.000000 0.000000 0.000000 0.044595 0.000000
# 6 0.000000 0.000000 0.000000 0.000000 0.000000 0.060112
#
#
# Mechanical properties :
#
#
# Convention : Reuss Voigt Hill
#
# Bulk Modulus (GPa) = 41.17610 50.15327 45.66468
# Shear Modulus (GPa) = 20.49423 24.95756 22.72589
#
# Velocity S-wave (km/s) = 3.34870 3.69540 3.52631
# Velocity P-wave (km/s) = 6.12225 6.75650 6.44718
#
# Compressibility (1/GPa) = 0.02428593
#
# Stress axis : x y z
#
# Youngs Moduli (GPa) = 38.40870 112.17322 35.28069
#
# Poissons Ratio (x) = 0.26457 0.42005
# Poissons Ratio (y) = 0.09059 0.18486
# Poissons Ratio (z) = 0.45729 0.58776
#
# Static dielectric constant tensor:
#      x y z
#    x 1.632650 0.000000 0.000000 
#    y 0.000000 1.134640 0.000000 
#    z 0.000000 0.000000 1.635700 
# 
# From -- ./inp_files/10822.got.cif
#   From: 2010.05.17/outbox.cif.g08.bks.cpg/sg63_6_cif.got.tgz:10822.got - 2010.06.03 15:47:04.
