data_PCOD9472749
_publ_section_title
;
Structure prediction by ZEFSAII (Michael W. Deem and Ramdas Pophale) SiO2 
 PCOD9472749
Probable space group: C M C M
;
_chemical_formula_sum "Si O2"
_cell_formula_units_Z 96
_cell_length_a 8.298925
_cell_length_b 29.746331
_cell_length_c 20.959840
_cell_angle_alpha 90.000000
_cell_angle_beta 90.000000
_cell_angle_gamma 90.000000
_cell_volume 5174.199969
_symmetry_space_group_name_H-M "C M C M"
_symmetry_group_IT_number 63
_symmetry_cell_setting 'orthorhombic'
loop_
_space_group_symop_operation_xyz
x,y,z
-x,-y,1/2+z
x,-y,-z
-x,y,1/2-z
-x,-y,-z
x,y,1/2-z
-x,y,z
x,-y,1/2+z
1/2+x,1/2+y,z
1/2-x,1/2-y,1/2+z
1/2+x,1/2-y,-z
1/2-x,1/2+y,1/2-z
1/2-x,1/2-y,-z
1/2+x,1/2+y,1/2-z
1/2-x,1/2+y,z
1/2+x,1/2-y,1/2+z
loop_
_atom_site_type_symbol
_atom_site_label
_atom_site_fract_x
_atom_site_fract_y
_atom_site_fract_z
Si Si1 0.196852 0.218812 0.322095
Si Si2 0.191351 0.375939 0.015390
Si Si3 0.690992 0.530677 0.559517
Si Si4 0.191043 0.879332 0.871121
Si Si5 0.194612 0.278871 0.060661
Si Si6 0.191054 0.473838 0.822114
O O1 0.249191 0.228396 0.250000
O O2 0.245594 0.168567 0.343103
O O3 0.252144 0.254554 0.374904
O O4 0.000000 0.219106 0.322698
O O5 0.275821 0.379645 0.946678
O O6 0.000000 0.372680 0.004028
O O7 0.227893 0.420795 0.054700
O O8 0.245971 0.330333 0.050348
O O9 0.748729 0.500000 0.500000
O O10 0.500000 0.536810 0.551889
O O11 0.726677 0.504513 0.624518
O O12 0.275239 0.921955 0.839346
O O13 0.000000 0.883654 0.859966
O O14 0.000000 0.278303 0.062050
O O15 0.250000 0.250000 0.000000
O O16 0.247468 0.482847 0.750000
O O17 0.000000 0.481738 0.825141
#
# Coordination Sequence:
#
# PCOD9472749 Si02
#       6
#    16  16  16  16  16  16
#     4   9  18  33  54  81 113 149 188 230 276 330
#     4  11  22  35  56  86 117 149 189 241 292 339
#     4  11  23  39  61  86 112 150 196 239 284 340
#     4  11  20  33  57  86 116 150 189 235 284 341
#     4  10  20  35  56  82 113 149 190 233 281 336
#     4  11  24  40  59  86 120 154 187 232 291 347
#
# _framework density 18.553592999999999
#
# number of rings (size 3 to 8) (size 9 to 14) (size 15 to 20)
#    0.000    1.500    3.333    2.500    0.000    3.333 
#    0.000    0.833    0.000    4.500    0.000    0.000 
#    0.000    0.000    0.000    0.000    0.000    0.000 
#
# Total GULP energy -268190.151041 kJ/mol
# GULP energy per Si atom -5587.294813 kJ/mol
# Density = 1.851136 g / cm^3
# Si number density = 18.553593 Si / 1000 Ang^3
#
#
#
# Elastic Constant Matrix: (Units=GPa)
#
#
# Indices 1 2 3 4 5 6 
#
# 1 8.9063 -0.6676 -7.6298 0.0000 0.0000 0.0000
# 2 -0.6676 129.0936 57.6496 0.0000 0.0000 0.0000
# 3 -7.6298 57.6496 135.0321 0.0000 0.0000 0.0000
# 4 0.0000 0.0000 0.0000 17.3103 0.0000 0.0000
# 5 0.0000 0.0000 0.0000 0.0000 18.6209 0.0000
# 6 0.0000 0.0000 0.0000 0.0000 0.0000 19.1300
#
#
#
# Elastic Compliance Matrix: (Units=1/GPa)
#
#
# Indices 1 2 3 4 5 6 
#
# 1 0.118892 -0.002947 0.007976 0.000000 0.000000 0.000000
# 2 -0.002947 0.009644 -0.004284 0.000000 0.000000 0.000000
# 3 0.007976 -0.004284 0.009685 0.000000 0.000000 0.000000
# 4 0.000000 0.000000 0.000000 0.057769 0.000000 0.000000
# 5 0.000000 0.000000 0.000000 0.000000 0.053703 0.000000
# 6 0.000000 0.000000 0.000000 0.000000 0.000000 0.052274
#
#
# Mechanical properties :
#
#
# Convention : Reuss Voigt Hill
#
# Bulk Modulus (GPa) = 7.15758 41.30405 24.23082
# Shear Modulus (GPa) = 14.40721 25.92423 20.16572
#
# Velocity S-wave (km/s) = 2.78963 3.74205 3.30038
# Velocity P-wave (km/s) = 3.77389 6.40164 5.25467
#
# Compressibility (1/GPa) = 0.13971199
#
# Stress axis : x y z
#
# Youngs Moduli (GPa) = 8.41096 103.68969 103.24961
#
# Poissons Ratio (x) = 0.30558 -0.82352
# Poissons Ratio (y) = 0.02479 0.44231
# Poissons Ratio (z) = -0.06709 0.44420
#
# Static dielectric constant tensor:
#      x y z
#    x 1.639320 0.000000 0.000000 
#    y 0.000000 1.622810 0.000000 
#    z 0.000000 0.000000 1.625150 
# 
# From -- ./inp_files/51282.got.cif
#   From: 2010.05.17/outbox.cif.g08.bks.cpg/sg63_26_cif.got.tgz:51282.got - 2010.06.03 15:47:04.
