data_PCOD9472915
_publ_section_title
;
Structure prediction by ZEFSAII (Michael W. Deem and Ramdas Pophale) SiO2 
 PCOD9472915
Probable space group: C M C M
;
_chemical_formula_sum "Si O2"
_cell_formula_units_Z 100
_cell_length_a 23.843066
_cell_length_b 26.980266
_cell_length_c 8.370306
_cell_angle_alpha 90.000000
_cell_angle_beta 90.000000
_cell_angle_gamma 90.000000
_cell_volume 5384.553088
_symmetry_space_group_name_H-M "C M C M"
_symmetry_group_IT_number 63
_symmetry_cell_setting 'orthorhombic'
loop_
_space_group_symop_operation_xyz
x,y,z
-x,-y,1/2+z
x,-y,-z
-x,y,1/2-z
-x,-y,-z
x,y,1/2-z
-x,y,z
x,-y,1/2+z
1/2+x,1/2+y,z
1/2-x,1/2-y,1/2+z
1/2+x,1/2-y,-z
1/2-x,1/2+y,1/2-z
1/2-x,1/2-y,-z
1/2+x,1/2+y,1/2-z
1/2-x,1/2+y,z
1/2+x,1/2-y,1/2+z
loop_
_atom_site_type_symbol
_atom_site_label
_atom_site_fract_x
_atom_site_fract_y
_atom_site_fract_z
Si Si1 0.392554 0.444513 0.561597
Si Si2 0.500000 0.607684 0.924572
Si Si3 0.842041 0.553269 0.439860
Si Si4 0.273761 0.405284 0.440217
Si Si5 0.500000 0.213212 0.937597
Si Si6 0.393185 0.157173 0.441432
Si Si7 0.722647 0.199243 0.557958
Si Si8 0.500000 0.288234 0.250000
O O1 0.402627 0.500000 0.500000
O O2 0.388326 0.446219 0.750000
O O3 0.443996 0.409706 0.511490
O O4 0.333833 0.424094 0.495425
O O5 0.500000 0.581940 0.750000
O O6 0.500000 0.665826 0.885425
O O7 0.861551 0.500000 0.500000
O O8 0.843285 0.553299 0.250000
O O9 0.777961 0.562969 0.492843
O O10 0.877683 0.601091 0.493635
O O11 0.271416 0.408504 0.250000
O O12 0.261322 0.348132 0.485685
O O13 0.500000 0.232512 0.750000
O O14 0.555326 0.179923 0.962885
O O15 0.500000 0.247985 0.099498
O O16 0.403838 0.157636 0.250000
O O17 0.337435 0.189240 0.477690
O O18 0.716254 0.199808 0.750000
O O19 0.750000 0.250000 0.500000
#
# Coordination Sequence:
#
# PCOD9472915 Si02
#       8
#    16   8  16  16   8  16  16   4
#     4  12  24  40  64  90 122 165 214 262 322 387
#     4  10  24  45  64  86 119 155 201 258 322 371
#     4  10  20  35  59  90 127 168 209 260 319 376
#     4  10  21  37  57  84 123 165 213 262 315 377
#     4  12  24  44  73 100 126 173 218 261 329 384
#     4  10  21  40  64  90 127 167 212 265 317 383
#     4  10  21  37  58  88 122 163 211 263 323 384
#     4  10  26  48  70  90 136 154 210 272 310 372
#
# _framework density 18.571643000000002
#
# number of rings (size 3 to 8) (size 9 to 14) (size 15 to 20)
#    0.240    1.280    0.800    4.320    0.000    5.760 
#    2.880    0.400    0.000    0.000    0.000    0.000 
#    0.000    0.000    0.000    0.000    0.000    0.000 
#
# Total GULP energy -278557.753718 kJ/mol
# GULP energy per Si atom -5571.155074 kJ/mol
# Density = 1.852937 g / cm^3
# Si number density = 18.571643 Si / 1000 Ang^3
#
#
#
# Elastic Constant Matrix: (Units=GPa)
#
#
# Indices 1 2 3 4 5 6 
#
# 1 88.5366 59.0346 20.0824 0.0000 0.0000 0.0000
# 2 59.0346 138.5563 36.8915 0.0000 0.0000 0.0000
# 3 20.0824 36.8915 60.6428 0.0000 0.0000 0.0000
# 4 0.0000 0.0000 0.0000 33.2613 0.0000 0.0000
# 5 0.0000 0.0000 0.0000 0.0000 34.4076 0.0000
# 6 0.0000 0.0000 0.0000 0.0000 0.0000 -0.8260
#
#
#
# Elastic Compliance Matrix: (Units=1/GPa)
#
#
# Indices 1 2 3 4 5 6 
#
# 1 0.015871 -0.006399 -0.001363 0.000000 0.000000 0.000000
# 2 -0.006399 0.011192 -0.004690 0.000000 0.000000 0.000000
# 3 -0.001363 -0.004690 0.019794 0.000000 0.000000 0.000000
# 4 0.000000 0.000000 0.000000 0.030065 0.000000 0.000000
# 5 0.000000 0.000000 0.000000 0.000000 0.029063 0.000000
# 6 0.000000 0.000000 0.000000 0.000000 0.000000 -1.210699
#
#
# Mechanical properties :
#
#
# Convention : Reuss Voigt Hill
#
# Bulk Modulus (GPa) = 45.54975 57.75029 51.65002
# Shear Modulus (GPa) = -4.66204 24.81707 10.07752
#
# Velocity S-wave (km/s) = -1.58611 3.65949 2.33197
# Velocity P-wave (km/s) = 4.60711 7.00138 5.92641
#
# Compressibility (1/GPa) = 0.02195402
#
# Stress axis : x y z
#
# Youngs Moduli (GPa) = 63.00903 89.34620 50.51977
#
# Poissons Ratio (x) = 0.57174 0.06885
# Poissons Ratio (y) = 0.40320 0.23692
# Poissons Ratio (z) = 0.08587 0.41900
#
# Static dielectric constant tensor:
#      x y z
#    x 1.601130 0.000000 0.000000 
#    y 0.000000 1.645800 0.000000 
#    z 0.000000 0.000000 1.653440 
# 
# From -- ./inp_files/8849.got.cif
#   From: 2010.05.17/outbox.cif.g08.bks.cpg/sg63_5_cif.got.tgz:8849.got - 2010.06.03 15:47:04.
