data_PCOD9472217
_publ_section_title
;
Structure prediction by ZEFSAII (Michael W. Deem and Ramdas Pophale) SiO2 
 PCOD9472217
Probable space group: C M C M
;
_chemical_formula_sum "Si O2"
_cell_formula_units_Z 80
_cell_length_a 16.380499
_cell_length_b 29.319835
_cell_length_c 7.343430
_cell_angle_alpha 90.000000
_cell_angle_beta 90.000000
_cell_angle_gamma 90.000000
_cell_volume 3526.855033
_symmetry_space_group_name_H-M "C M C M"
_symmetry_group_IT_number 63
_symmetry_cell_setting 'orthorhombic'
loop_
_space_group_symop_operation_xyz
x,y,z
-x,-y,1/2+z
x,-y,-z
-x,y,1/2-z
-x,-y,-z
x,y,1/2-z
-x,y,z
x,-y,1/2+z
1/2+x,1/2+y,z
1/2-x,1/2-y,1/2+z
1/2+x,1/2-y,-z
1/2-x,1/2+y,1/2-z
1/2-x,1/2-y,-z
1/2+x,1/2+y,1/2-z
1/2-x,1/2+y,z
1/2+x,1/2-y,1/2+z
loop_
_atom_site_type_symbol
_atom_site_label
_atom_site_fract_x
_atom_site_fract_y
_atom_site_fract_z
Si Si1 0.595705 0.694543 0.030226
Si Si2 0.336257 0.401758 0.458279
Si Si3 0.340658 0.892003 0.473460
Si Si4 0.500000 0.946278 0.033204
Si Si5 0.595245 0.204468 0.528961
Si Si6 0.000000 0.053565 0.967539
O O1 0.598954 0.693015 0.250000
O O2 0.500000 0.688844 0.978871
O O3 0.622480 0.745109 0.970350
O O4 0.647220 0.652439 0.958744
O O5 0.332393 0.418278 0.250000
O O6 0.246907 0.409847 0.537713
O O7 0.416774 0.424392 0.541764
O O8 0.339174 0.892123 0.250000
O O9 0.417695 0.921913 0.533713
O O10 0.355073 0.839613 0.530504
O O11 0.500000 0.938942 0.250000
O O12 0.500000 0.000000 0.000000
O O13 0.596421 0.204776 0.750000
O O14 0.500000 0.198823 0.477076
O O15 0.000000 0.062933 0.750000
O O16 0.000000 0.000000 0.000000
#
# Coordination Sequence:
#
# PCOD9472217 Si02
#       6
#    16  16  16   8  16   8
#     4   9  17  29  49  76 104 135 171 207 241 283
#     4  10  20  34  52  76 104 133 166 205 251 302
#     4   9  17  31  53  77 101 133 171 206 245 298
#     4  10  20  36  57  78 100 128 167 214 261 304
#     4   8  13  25  47  75 102 131 171 208 234 279
#     4  10  22  38  53  70  96 128 165 208 253 300
#
# _framework density 22.683098999999999
#
# number of rings (size 3 to 8) (size 9 to 14) (size 15 to 20)
#    0.000    2.800    2.000    1.200    0.000    2.400 
#    0.000    1.000    0.000    1.200    0.000    0.000 
#    0.000    0.000    0.000    0.000    0.000    0.000 
#
# Total GULP energy -223408.459243 kJ/mol
# GULP energy per Si atom -5585.211481 kJ/mol
# Density = 2.263147 g / cm^3
# Si number density = 22.683099 Si / 1000 Ang^3
#
#
#
# Elastic Constant Matrix: (Units=GPa)
#
#
# Indices 1 2 3 4 5 6 
#
# 1 199.8151 90.6559 8.3753 0.0000 0.0000 0.0000
# 2 90.6559 122.1074 -9.8731 0.0000 0.0000 0.0000
# 3 8.3753 -9.8731 87.0140 0.0000 0.0000 0.0000
# 4 0.0000 0.0000 0.0000 18.9586 0.0000 0.0000
# 5 0.0000 0.0000 0.0000 0.0000 -10.1903 0.0000
# 6 0.0000 0.0000 0.0000 0.0000 0.0000 -1.8297
#
#
#
# Elastic Compliance Matrix: (Units=1/GPa)
#
#
# Indices 1 2 3 4 5 6 
#
# 1 0.007713 -0.005840 -0.001405 0.000000 0.000000 0.000000
# 2 -0.005840 0.012687 0.002002 0.000000 0.000000 0.000000
# 3 -0.001405 0.002002 0.011855 0.000000 0.000000 0.000000
# 4 0.000000 0.000000 0.000000 0.052747 0.000000 0.000000
# 5 0.000000 0.000000 0.000000 0.000000 -0.098132 0.000000
# 6 0.000000 0.000000 0.000000 0.000000 0.000000 -0.546550
#
#
# Mechanical properties :
#
#
# Convention : Reuss Voigt Hill
#
# Bulk Modulus (GPa) = 45.93853 65.25031 55.59442
# Shear Modulus (GPa) = -9.22615 22.70627 6.74006
#
# Velocity S-wave (km/s) = -2.01897 3.16732 1.72565
# Velocity P-wave (km/s) = 3.85503 6.49649 5.34162
#
# Compressibility (1/GPa) = 0.02176822
#
# Stress axis : x y z
#
# Youngs Moduli (GPa) = 129.64872 78.81972 84.35423
#
# Poissons Ratio (x) = 0.46031 0.11852
# Poissons Ratio (y) = 0.75716 -0.16885
# Poissons Ratio (z) = 0.18216 -0.15777
#
# Static dielectric constant tensor:
#      x y z
#    x 1.838110 0.000000 0.000000 
#    y 0.000000 1.791290 0.000000 
#    z 0.000000 0.000000 1.865540 
# 
# From -- ./inp_files/19436.got.cif
#   From: 2010.05.17/outbox.cif.g08.bks.cpg/sg63_10_cif.got.tgz:19436.got - 2010.06.03 15:47:04.
