data_PCOD9472979
_publ_section_title
;
Structure prediction by ZEFSAII (Michael W. Deem and Ramdas Pophale) SiO2 
 PCOD9472979
Probable space group: C M C M
;
_chemical_formula_sum "Si O2"
_cell_formula_units_Z 80
_cell_length_a 18.570141
_cell_length_b 23.960219
_cell_length_c 7.591498
_cell_angle_alpha 90.000000
_cell_angle_beta 90.000000
_cell_angle_gamma 90.000000
_cell_volume 3377.796384
_symmetry_space_group_name_H-M "C M C M"
_symmetry_group_IT_number 63
_symmetry_cell_setting 'orthorhombic'
loop_
_space_group_symop_operation_xyz
x,y,z
-x,-y,1/2+z
x,-y,-z
-x,y,1/2-z
-x,-y,-z
x,y,1/2-z
-x,y,z
x,-y,1/2+z
1/2+x,1/2+y,z
1/2-x,1/2-y,1/2+z
1/2+x,1/2-y,-z
1/2-x,1/2+y,1/2-z
1/2-x,1/2-y,-z
1/2+x,1/2+y,1/2-z
1/2-x,1/2+y,z
1/2+x,1/2-y,1/2+z
loop_
_atom_site_type_symbol
_atom_site_label
_atom_site_fract_x
_atom_site_fract_y
_atom_site_fract_z
Si Si1 0.731000 0.333485 0.552964
Si Si2 0.000000 0.933452 0.460908
Si Si3 0.155525 0.064810 0.960444
Si Si4 0.500000 0.933260 0.038611
Si Si5 0.105775 0.337554 0.045262
Si Si6 0.578290 0.714587 0.033894
O O1 0.738072 0.310304 0.750000
O O2 0.715211 0.399212 0.553206
O O3 0.808200 0.329836 0.464955
O O4 0.656385 0.309023 0.474209
O O5 0.077281 0.914585 0.528901
O O6 0.000000 0.927339 0.250000
O O7 0.000000 0.000000 0.500000
O O8 0.159212 0.072802 0.750000
O O9 0.161780 0.000000 0.000000
O O10 0.500000 0.933331 0.250000
O O11 0.568760 0.894816 0.976713
O O12 0.500000 0.000000 0.000000
O O13 0.086360 0.337047 0.250000
O O14 0.077176 0.278977 0.973270
O O15 0.579822 0.711971 0.250000
O O16 0.500000 0.689917 0.978434
#
# Coordination Sequence:
#
# PCOD9472979 Si02
#       6
#    16   8  16   8  16  16
#     4  11  23  35  56  91 125 158 199 250 308 369
#     4   8  16  30  49  70  96 134 181 228 273 324
#     4  10  20  36  55  78 112 154 198 244 294 349
#     4  10  22  40  67  96 120 158 206 254 309 370
#     4  10  20  40  65  86 116 159 204 250 306 369
#     4   9  18  36  62  89 118 156 205 253 302 366
#
# _framework density 23.684079000000001
#
# number of rings (size 3 to 8) (size 9 to 14) (size 15 to 20)
#    0.000    2.200    1.000    1.800    1.400    2.400 
#    0.000    3.000    0.000    2.400    0.000    0.000 
#    0.000    0.000    0.000    0.000    0.000    0.000 
#
# Total GULP energy -223035.731757 kJ/mol
# GULP energy per Si atom -5575.893294 kJ/mol
# Density = 2.363017 g / cm^3
# Si number density = 23.684079 Si / 1000 Ang^3
#
#
#
# Elastic Constant Matrix: (Units=GPa)
#
#
# Indices 1 2 3 4 5 6 
#
# 1 185.2578 65.6352 8.2750 0.0000 0.0000 0.0000
# 2 65.6352 129.7902 2.3447 0.0000 0.0000 0.0000
# 3 8.2750 2.3447 70.4993 0.0000 0.0000 0.0000
# 4 0.0000 0.0000 0.0000 10.8970 0.0000 0.0000
# 5 0.0000 0.0000 0.0000 0.0000 18.4833 0.0000
# 6 0.0000 0.0000 0.0000 0.0000 0.0000 39.6503
#
#
#
# Elastic Compliance Matrix: (Units=1/GPa)
#
#
# Indices 1 2 3 4 5 6 
#
# 1 0.006607 -0.003329 -0.000665 0.000000 0.000000 0.000000
# 2 -0.003329 0.009387 0.000079 0.000000 0.000000 0.000000
# 3 -0.000665 0.000079 0.014260 0.000000 0.000000 0.000000
# 4 0.000000 0.000000 0.000000 0.091769 0.000000 0.000000
# 5 0.000000 0.000000 0.000000 0.000000 0.054103 0.000000
# 6 0.000000 0.000000 0.000000 0.000000 0.000000 0.025220
#
#
# Mechanical properties :
#
#
# Convention : Reuss Voigt Hill
#
# Bulk Modulus (GPa) = 44.59686 59.78413 52.19049
# Shear Modulus (GPa) = 23.07858 34.42561 28.75209
#
# Velocity S-wave (km/s) = 3.12498 3.81666 3.48801
# Velocity P-wave (km/s) = 5.64725 6.68728 6.18915
#
# Compressibility (1/GPa) = 0.02242310
#
# Stress axis : x y z
#
# Youngs Moduli (GPa) = 151.35260 106.53132 70.12644
#
# Poissons Ratio (x) = 0.35467 0.04662
# Poissons Ratio (y) = 0.50388 -0.00551
# Poissons Ratio (z) = 0.10062 -0.00837
#
# Static dielectric constant tensor:
#      x y z
#    x 1.932110 0.000000 0.000000 
#    y 0.000000 1.925240 0.000000 
#    z 0.000000 0.000000 1.893850 
# 
# From -- ./inp_files/6504.got.cif
#   From: 2010.05.17/outbox.cif.g08.bks.cpg/sg63_4_cif.got.tgz:6504.got - 2010.06.03 15:47:04.
