data_PCOD9472403
_publ_section_title
;
Structure prediction by ZEFSAII (Michael W. Deem and Ramdas Pophale) SiO2 
 PCOD9472403
Probable space group: C M C M
;
_chemical_formula_sum "Si O2"
_cell_formula_units_Z 72
_cell_length_a 25.484010
_cell_length_b 17.166288
_cell_length_c 9.444158
_cell_angle_alpha 90.000000
_cell_angle_beta 90.000000
_cell_angle_gamma 90.000000
_cell_volume 4131.496655
_symmetry_space_group_name_H-M "C M C M"
_symmetry_group_IT_number 63
_symmetry_cell_setting 'orthorhombic'
loop_
_space_group_symop_operation_xyz
x,y,z
-x,-y,1/2+z
x,-y,-z
-x,y,1/2-z
-x,-y,-z
x,y,1/2-z
-x,y,z
x,-y,1/2+z
1/2+x,1/2+y,z
1/2-x,1/2-y,1/2+z
1/2+x,1/2-y,-z
1/2-x,1/2+y,1/2-z
1/2-x,1/2-y,-z
1/2+x,1/2+y,1/2-z
1/2-x,1/2+y,z
1/2+x,1/2-y,1/2+z
loop_
_atom_site_type_symbol
_atom_site_label
_atom_site_fract_x
_atom_site_fract_y
_atom_site_fract_z
Si Si1 0.195875 0.245187 0.915551
Si Si2 0.404264 0.801524 0.416439
Si Si3 0.344014 0.431230 0.412218
Si Si4 0.500000 0.082876 0.578796
Si Si5 0.940056 0.876264 0.586462
O O1 0.200853 0.267312 0.750000
O O2 0.181595 0.153593 0.921635
O O3 0.250000 0.250000 0.000000
O O4 0.148531 0.293281 0.990299
O O5 0.390569 0.812759 0.250000
O O6 0.447559 0.866546 0.456493
O O7 0.432098 0.716968 0.427483
O O8 0.316940 0.500000 0.500000
O O9 0.347213 0.454294 0.250000
O O10 0.400785 0.417365 0.480760
O O11 0.500000 0.072917 0.750000
O O12 0.500000 0.000000 0.500000
O O13 0.927359 0.895292 0.750000
O O14 0.000000 0.896174 0.558705
#
# Coordination Sequence:
#
# PCOD9472403 Si02
#       5
#    16  16  16   8  16
#     4  10  21  37  58  83 106 136 181 227 273 327
#     4   9  17  33  55  78 107 142 181 223 268 323
#     4  10  21  35  51  75 105 135 169 210 258 308
#     4  10  20  34  54  82 115 150 187 230 283 336
#     4   9  16  29  51  75 100 136 175 208 249 302
#
# _framework density 17.427098000000001
#
# number of rings (size 3 to 8) (size 9 to 14) (size 15 to 20)
#    0.000    2.444    1.111    1.333    0.000    4.444 
#    0.000    1.111    0.000    0.000    0.000    0.000 
#    0.000    0.000    0.000    0.000    0.000    0.000 
#
# Total GULP energy -200683.513308 kJ/mol
# GULP energy per Si atom -5574.542036 kJ/mol
# Density = 1.738743 g / cm^3
# Si number density = 17.427098 Si / 1000 Ang^3
#
#
#
# Elastic Constant Matrix: (Units=GPa)
#
#
# Indices 1 2 3 4 5 6 
#
# 1 120.7770 39.5879 78.1955 0.0000 0.0000 0.0000
# 2 39.5879 80.0733 41.6274 0.0000 0.0000 0.0000
# 3 78.1955 41.6274 117.2623 0.0000 0.0000 0.0000
# 4 0.0000 0.0000 0.0000 31.5918 0.0000 0.0000
# 5 0.0000 0.0000 0.0000 0.0000 22.2793 0.0000
# 6 0.0000 0.0000 0.0000 0.0000 0.0000 10.2563
#
#
#
# Elastic Compliance Matrix: (Units=1/GPa)
#
#
# Indices 1 2 3 4 5 6 
#
# 1 0.015040 -0.002725 -0.009062 0.000000 0.000000 0.000000
# 2 -0.002725 0.015808 -0.003795 0.000000 0.000000 0.000000
# 3 -0.009062 -0.003795 0.015918 0.000000 0.000000 0.000000
# 4 0.000000 0.000000 0.000000 0.031654 0.000000 0.000000
# 5 0.000000 0.000000 0.000000 0.000000 0.044885 0.000000
# 6 0.000000 0.000000 0.000000 0.000000 0.000000 0.097501
#
#
# Mechanical properties :
#
#
# Convention : Reuss Voigt Hill
#
# Bulk Modulus (GPa) = 64.08983 70.77047 67.43015
# Shear Modulus (GPa) = 19.44236 23.40560 21.42398
#
# Velocity S-wave (km/s) = 3.34374 3.66875 3.51001
# Velocity P-wave (km/s) = 7.19467 7.65793 7.42991
#
# Compressibility (1/GPa) = 0.01560310
#
# Stress axis : x y z
#
# Youngs Moduli (GPa) = 66.48992 63.25714 62.82184
#
# Poissons Ratio (x) = 0.17235 0.56929
# Poissons Ratio (y) = 0.18116 0.23841
# Poissons Ratio (z) = 0.60253 0.24006
#
# Static dielectric constant tensor:
#      x y z
#    x 1.575340 0.000000 0.000000 
#    y 0.000000 1.613090 0.000000 
#    z 0.000000 0.000000 1.591020 
# 
# From -- ./inp_files/9837.got.cif
#   From: 2010.05.17/outbox.cif.g08.bks.cpg/sg63_5_cif.got.tgz:9837.got - 2010.06.03 15:47:04.
