data_PCOD9472895
_publ_section_title
;
Structure prediction by ZEFSAII (Michael W. Deem and Ramdas Pophale) SiO2 
 PCOD9472895
Probable space group: C M C M
;
_chemical_formula_sum "Si O2"
_cell_formula_units_Z 116
_cell_length_a 28.988193
_cell_length_b 12.206454
_cell_length_c 16.022172
_cell_angle_alpha 90.000000
_cell_angle_beta 90.000000
_cell_angle_gamma 90.000000
_cell_volume 5669.334118
_symmetry_space_group_name_H-M "C M C M"
_symmetry_group_IT_number 63
_symmetry_cell_setting 'orthorhombic'
loop_
_space_group_symop_operation_xyz
x,y,z
-x,-y,1/2+z
x,-y,-z
-x,y,1/2-z
-x,-y,-z
x,y,1/2-z
-x,y,z
x,-y,1/2+z
1/2+x,1/2+y,z
1/2-x,1/2-y,1/2+z
1/2+x,1/2-y,-z
1/2-x,1/2+y,1/2-z
1/2-x,1/2-y,-z
1/2+x,1/2+y,1/2-z
1/2-x,1/2+y,z
1/2+x,1/2-y,1/2+z
loop_
_atom_site_type_symbol
_atom_site_label
_atom_site_fract_x
_atom_site_fract_y
_atom_site_fract_z
Si Si1 0.000000 0.000000 0.000000
Si Si2 0.070169 0.175232 0.985913
Si Si3 0.684505 0.811241 0.348965
Si Si4 0.347817 0.046727 0.149270
Si Si5 0.551022 0.082865 0.422205
Si Si6 0.717673 0.244177 0.150033
Si Si7 0.604128 0.366148 0.655590
Si Si8 0.839928 0.934615 0.078764
O O1 0.960433 0.075707 0.954237
O O2 0.054854 0.292827 0.955276
O O3 0.122205 0.148132 0.959946
O O4 0.066215 0.161360 0.086031
O O5 0.693817 0.827999 0.250000
O O6 0.730089 0.751695 0.383663
O O7 0.641081 0.731582 0.353565
O O8 0.671423 0.930428 0.383713
O O9 0.345167 0.045238 0.250000
O O10 0.401741 0.061366 0.127607
O O11 0.315315 0.146390 0.118410
O O12 0.500000 0.069908 0.381208
O O13 0.551912 0.000000 0.500000
O O14 0.719488 0.228773 0.250000
O O15 0.695259 0.361645 0.129946
O O16 0.586971 0.370365 0.750000
O O17 0.632026 0.476910 0.633408
O O18 0.819161 0.000000 0.000000
#
# Coordination Sequence:
#
# PCOD9472895 Si02
#       8
#     4  16  16  16  16  16  16  16
#     4  12  20  40  64  80 116 160 186 234 308 364
#     4  11  21  39  62  82 118 155 188 240 303 353
#     4   9  20  36  58  87 120 157 196 241 297 350
#     4  10  21  39  61  87 122 155 198 257 297 342
#     4  11  23  39  64  88 113 158 206 239 300 368
#     4  10  20  35  59  85 113 157 199 235 290 357
#     4  10  20  36  59  84 112 152 199 238 283 345
#     4  10  20  36  56  82 116 154 186 236 295 347
#
# _framework density 20.460957000000001
#
# number of rings (size 3 to 8) (size 9 to 14) (size 15 to 20)
#    0.000    1.793    4.138    1.241    1.931    0.276 
#    0.000    5.172    0.000    0.828    0.000    0.000 
#    0.000    0.000    0.000    0.000    0.000    0.000 
#
# Total GULP energy -322966.285251 kJ/mol
# GULP energy per Si atom -5568.384228 kJ/mol
# Density = 2.041439 g / cm^3
# Si number density = 20.460957 Si / 1000 Ang^3
#
#
#
# Elastic Constant Matrix: (Units=GPa)
#
#
# Indices 1 2 3 4 5 6 
#
# 1 77.3144 22.5568 11.1759 0.0000 0.0000 0.0000
# 2 22.5568 107.5096 1.7615 0.0000 0.0000 0.0000
# 3 11.1759 1.7615 29.0347 0.0000 0.0000 0.0000
# 4 0.0000 0.0000 0.0000 22.3054 0.0000 0.0000
# 5 0.0000 0.0000 0.0000 0.0000 5.1938 0.0000
# 6 0.0000 0.0000 0.0000 0.0000 0.0000 9.4445
#
#
#
# Elastic Compliance Matrix: (Units=1/GPa)
#
#
# Indices 1 2 3 4 5 6 
#
# 1 0.014587 -0.002971 -0.005434 0.000000 0.000000 0.000000
# 2 -0.002971 0.009916 0.000542 0.000000 0.000000 0.000000
# 3 -0.005434 0.000542 0.036500 0.000000 0.000000 0.000000
# 4 0.000000 0.000000 0.000000 0.044832 0.000000 0.000000
# 5 0.000000 0.000000 0.000000 0.000000 0.192536 0.000000
# 6 0.000000 0.000000 0.000000 0.000000 0.000000 0.105882
#
#
# Mechanical properties :
#
#
# Convention : Reuss Voigt Hill
#
# Bulk Modulus (GPa) = 22.08684 31.64970 26.86827
# Shear Modulus (GPa) = 11.49235 19.27970 15.38602
#
# Velocity S-wave (km/s) = 2.37253 3.07297 2.74518
# Velocity P-wave (km/s) = 4.28057 5.30026 4.81747
#
# Compressibility (1/GPa) = 0.04527582
#
# Stress axis : x y z
#
# Youngs Moduli (GPa) = 68.55571 100.84658 27.39699
#
# Poissons Ratio (x) = 0.29966 0.14888
# Poissons Ratio (y) = 0.20371 -0.01485
# Poissons Ratio (z) = 0.37256 -0.05467
#
# Static dielectric constant tensor:
#      x y z
#    x 1.920910 0.000000 0.000000 
#    y 0.000000 1.731580 0.000000 
#    z 0.000000 0.000000 1.760760 
# 
# From -- ./inp_files/49107.got.cif
#   From: 2010.05.17/outbox.cif.g08.bks.cpg/sg63_25_cif.got.tgz:49107.got - 2010.06.03 15:47:04.
