data_PCOD9472325
_publ_section_title
;
Structure prediction by ZEFSAII (Michael W. Deem and Ramdas Pophale) SiO2 
 PCOD9472325
Probable space group: C M C M
;
_chemical_formula_sum "Si O2"
_cell_formula_units_Z 96
_cell_length_a 13.669046
_cell_length_b 28.500378
_cell_length_c 14.012899
_cell_angle_alpha 90.000000
_cell_angle_beta 90.000000
_cell_angle_gamma 90.000000
_cell_volume 5459.046792
_symmetry_space_group_name_H-M "C M C M"
_symmetry_group_IT_number 63
_symmetry_cell_setting 'orthorhombic'
loop_
_space_group_symop_operation_xyz
x,y,z
-x,-y,1/2+z
x,-y,-z
-x,y,1/2-z
-x,-y,-z
x,y,1/2-z
-x,y,z
x,-y,1/2+z
1/2+x,1/2+y,z
1/2-x,1/2-y,1/2+z
1/2+x,1/2-y,-z
1/2-x,1/2+y,1/2-z
1/2-x,1/2-y,-z
1/2+x,1/2+y,1/2-z
1/2-x,1/2+y,z
1/2+x,1/2-y,1/2+z
loop_
_atom_site_type_symbol
_atom_site_label
_atom_site_fract_x
_atom_site_fract_y
_atom_site_fract_z
Si Si1 0.386121 0.618908 0.543837
Si Si2 0.883906 0.996250 0.750000
Si Si3 0.111565 0.381094 0.635847
Si Si4 0.264024 0.542591 0.432114
Si Si5 0.390214 0.721112 0.460110
Si Si6 0.189177 0.723515 0.362041
Si Si7 0.614123 0.609712 0.750000
O O1 0.500000 0.605968 0.555620
O O2 0.333287 0.576474 0.493153
O O3 0.381905 0.665828 0.482203
O O4 0.343473 0.627237 0.649897
O O5 0.826511 0.976528 0.657767
O O6 0.000000 0.983288 0.750000
O O7 0.880095 0.053017 0.750000
O O8 0.107939 0.385348 0.750000
O O9 0.173884 0.424740 0.598594
O O10 0.163559 0.331075 0.617371
O O11 0.000000 0.380127 0.599409
O O12 0.233148 0.500000 0.500000
O O13 0.500000 0.731491 0.425968
O O14 0.302480 0.733251 0.388420
O O15 0.372213 0.746521 0.561753
O O16 0.168782 0.732659 0.250000
O O17 0.500000 0.624442 0.750000
#
# Coordination Sequence:
#
# PCOD9472325 Si02
#       7
#    16   8  16  16  16  16   8
#     4  10  20  34  53  81 114 147 179 219 271 330
#     4  11  22  34  51  78 113 151 184 220 273 334
#     4  10  21  39  59  78 105 142 187 234 277 321
#     4  12  22  35  55  80 110 144 188 230 273 327
#     4  10  21  36  57  86 115 144 184 229 276 335
#     4  10  21  38  59  84 113 147 185 228 280 332
#     4   9  18  32  50  76 111 151 183 212 266 326
#
# _framework density 17.585488000000002
#
# number of rings (size 3 to 8) (size 9 to 14) (size 15 to 20)
#    0.000    1.667    4.167    1.000    1.167    2.333 
#    0.000    0.000    0.000    0.000    0.000    0.000 
#    0.000    0.000    0.000    0.000    0.000    0.000 
#
# Total GULP energy -267711.215319 kJ/mol
# GULP energy per Si atom -5577.316986 kJ/mol
# Density = 1.754546 g / cm^3
# Si number density = 17.585488 Si / 1000 Ang^3
#
#
#
# Elastic Constant Matrix: (Units=GPa)
#
#
# Indices 1 2 3 4 5 6 
#
# 1 81.0476 6.1697 0.7147 0.0000 0.0000 0.0000
# 2 6.1697 50.8896 -5.9230 0.0000 0.0000 0.0000
# 3 0.7147 -5.9230 38.9359 0.0000 0.0000 0.0000
# 4 0.0000 0.0000 0.0000 21.1599 0.0000 0.0000
# 5 0.0000 0.0000 0.0000 0.0000 12.8700 0.0000
# 6 0.0000 0.0000 0.0000 0.0000 0.0000 2.8576
#
#
#
# Elastic Compliance Matrix: (Units=1/GPa)
#
#
# Indices 1 2 3 4 5 6 
#
# 1 0.012462 -0.001565 -0.000467 0.000000 0.000000 0.000000
# 2 -0.001565 0.020201 0.003102 0.000000 0.000000 0.000000
# 3 -0.000467 0.003102 0.026164 0.000000 0.000000 0.000000
# 4 0.000000 0.000000 0.000000 0.047259 0.000000 0.000000
# 5 0.000000 0.000000 0.000000 0.000000 0.077700 0.000000
# 6 0.000000 0.000000 0.000000 0.000000 0.000000 0.349944
#
#
# Mechanical properties :
#
#
# Convention : Reuss Voigt Hill
#
# Bulk Modulus (GPa) = 16.40258 19.19956 17.80107
# Shear Modulus (GPa) = 9.05942 18.70495 13.88219
#
# Velocity S-wave (km/s) = 2.27219 3.26492 2.81269
# Velocity P-wave (km/s) = 4.02882 5.01542 4.54895
#
# Compressibility (1/GPa) = 0.06096602
#
# Stress axis : x y z
#
# Youngs Moduli (GPa) = 80.24594 49.50212 38.22093
#
# Poissons Ratio (x) = 0.07748 0.01784
# Poissons Ratio (y) = 0.12560 -0.11855
# Poissons Ratio (z) = 0.03746 -0.15354
#
# Static dielectric constant tensor:
#      x y z
#    x 1.598110 0.000000 0.000000 
#    y 0.000000 1.583670 0.000000 
#    z 0.000000 0.000000 1.612310 
# 
# From -- ./inp_files/32174.got.cif
#   From: 2010.05.17/outbox.cif.g08.bks.cpg/sg63_17_cif.got.tgz:32174.got - 2010.06.03 15:47:04.
