data_PCOD9472326
_publ_section_title
;
Structure prediction by ZEFSAII (Michael W. Deem and Ramdas Pophale) SiO2 
 PCOD9472326
Probable space group: C M C M
;
_chemical_formula_sum "Si O2"
_cell_formula_units_Z 88
_cell_length_a 22.715690
_cell_length_b 23.892836
_cell_length_c 8.135011
_cell_angle_alpha 90.000000
_cell_angle_beta 90.000000
_cell_angle_gamma 90.000000
_cell_volume 4415.214221
_symmetry_space_group_name_H-M "C M C M"
_symmetry_group_IT_number 63
_symmetry_cell_setting 'orthorhombic'
loop_
_space_group_symop_operation_xyz
x,y,z
-x,-y,1/2+z
x,-y,-z
-x,y,1/2-z
-x,-y,-z
x,y,1/2-z
-x,y,z
x,-y,1/2+z
1/2+x,1/2+y,z
1/2-x,1/2-y,1/2+z
1/2+x,1/2-y,-z
1/2-x,1/2+y,1/2-z
1/2-x,1/2-y,-z
1/2+x,1/2+y,1/2-z
1/2-x,1/2+y,z
1/2+x,1/2-y,1/2+z
loop_
_atom_site_type_symbol
_atom_site_label
_atom_site_fract_x
_atom_site_fract_y
_atom_site_fract_z
Si Si1 0.932054 0.939810 0.945966
Si Si2 0.500000 0.065666 0.550503
Si Si3 0.258415 0.061717 0.551454
Si Si4 0.816886 0.733960 0.052977
Si Si5 0.339664 0.353235 0.443922
Si Si6 0.875704 0.382899 0.052613
O O1 0.928617 0.935379 0.750000
O O2 0.000000 0.937479 0.997452
O O3 0.895752 0.891035 0.027297
O O4 0.908089 0.000000 0.000000
O O5 0.500000 0.066859 0.750000
O O6 0.559672 0.097842 0.492876
O O7 0.500000 0.000000 0.500000
O O8 0.257279 0.063755 0.750000
O O9 0.215471 0.110990 0.487708
O O10 0.324668 0.074592 0.494070
O O11 0.239319 0.000000 0.500000
O O12 0.817235 0.728373 0.250000
O O13 0.849202 0.790629 0.994130
O O14 0.750000 0.750000 0.000000
O O15 0.849052 0.678532 0.987144
O O16 0.328037 0.347344 0.250000
O O17 0.878138 0.386245 0.250000
#
# Coordination Sequence:
#
# PCOD9472326 Si02
#       6
#    16   8  16  16  16  16
#     4  10  21  37  57  82 112 148 188 231 282 340
#     4  10  22  40  66  92 124 166 207 258 311 362
#     4  10  20  34  53  81 116 146 184 236 287 345
#     4  11  22  39  62  87 116 153 193 240 294 354
#     4  10  21  37  56  81 113 150 190 236 288 343
#     4  10  21  40  60  85 121 159 199 246 299 357
#
# _framework density 19.931082
#
# number of rings (size 3 to 8) (size 9 to 14) (size 15 to 20)
#    0.000    1.818    1.818    2.182    0.000    6.182 
#    1.636    0.000    0.000    0.000    0.000    0.000 
#    0.000    0.000    0.000    0.000    0.000    0.000 
#
# Total GULP energy -245429.158410 kJ/mol
# GULP energy per Si atom -5577.935418 kJ/mol
# Density = 1.988572 g / cm^3
# Si number density = 19.931082 Si / 1000 Ang^3
#
#
#
# Elastic Constant Matrix: (Units=GPa)
#
#
# Indices 1 2 3 4 5 6 
#
# 1 104.0136 50.5939 4.5448 0.0000 0.0000 0.0000
# 2 50.5939 133.2848 -5.6038 0.0000 0.0000 0.0000
# 3 4.5448 -5.6038 4.2382 0.0000 0.0000 0.0000
# 4 0.0000 0.0000 0.0000 31.2766 0.0000 0.0000
# 5 0.0000 0.0000 0.0000 0.0000 -52.4267 0.0000
# 6 0.0000 0.0000 0.0000 0.0000 0.0000 16.9827
#
#
#
# Elastic Compliance Matrix: (Units=1/GPa)
#
#
# Indices 1 2 3 4 5 6 
#
# 1 0.013571 -0.006103 -0.022622 0.000000 0.000000 0.000000
# 2 -0.006103 0.010689 0.020677 0.000000 0.000000 0.000000
# 3 -0.022622 0.020677 0.287549 0.000000 0.000000 0.000000
# 4 0.000000 0.000000 0.000000 0.031973 0.000000 0.000000
# 5 0.000000 0.000000 0.000000 0.000000 -0.019074 0.000000
# 6 0.000000 0.000000 0.000000 0.000000 0.000000 0.058883
#
#
# Mechanical properties :
#
#
# Convention : Reuss Voigt Hill
#
# Bulk Modulus (GPa) = 3.38165 37.84513 20.61339
# Shear Modulus (GPa) = 10.03498 11.96663 11.00080
#
# Velocity S-wave (km/s) = 2.24628 2.45297 2.35189
# Velocity P-wave (km/s) = 2.90311 5.20115 4.21189
#
# Compressibility (1/GPa) = 0.29571380
#
# Stress axis : x y z
#
# Youngs Moduli (GPa) = 73.68677 93.55808 3.47766
#
# Poissons Ratio (x) = 0.57094 0.07867
# Poissons Ratio (y) = 0.44968 -0.07191
# Poissons Ratio (z) = 1.66693 -1.93448
#
# Static dielectric constant tensor:
#      x y z
#    x 1.734440 0.000000 0.000000 
#    y 0.000000 1.711960 0.000000 
#    z 0.000000 0.000000 1.719790 
# 
# From -- ./inp_files/8201.got.cif
#   From: 2010.05.17/outbox.cif.g08.bks.cpg/sg63_5_cif.got.tgz:8201.got - 2010.06.03 15:47:04.
