data_PCOD9472605
_publ_section_title
;
Structure prediction by ZEFSAII (Michael W. Deem and Ramdas Pophale) SiO2 
 PCOD9472605
Probable space group: C M C M
;
_chemical_formula_sum "Si O2"
_cell_formula_units_Z 88
_cell_length_a 18.282203
_cell_length_b 9.634165
_cell_length_c 24.338466
_cell_angle_alpha 90.000000
_cell_angle_beta 90.000000
_cell_angle_gamma 90.000000
_cell_volume 4286.825536
_symmetry_space_group_name_H-M "C M C M"
_symmetry_group_IT_number 63
_symmetry_cell_setting 'orthorhombic'
loop_
_space_group_symop_operation_xyz
x,y,z
-x,-y,1/2+z
x,-y,-z
-x,y,1/2-z
-x,-y,-z
x,y,1/2-z
-x,y,z
x,-y,1/2+z
1/2+x,1/2+y,z
1/2-x,1/2-y,1/2+z
1/2+x,1/2-y,-z
1/2-x,1/2+y,1/2-z
1/2-x,1/2-y,-z
1/2+x,1/2+y,1/2-z
1/2-x,1/2+y,z
1/2+x,1/2-y,1/2+z
loop_
_atom_site_type_symbol
_atom_site_label
_atom_site_fract_x
_atom_site_fract_y
_atom_site_fract_z
Si Si1 0.580675 0.704645 0.421065
Si Si2 0.347284 0.800907 0.311813
Si Si3 0.081981 0.333380 0.537524
Si Si4 0.274369 0.491059 0.811421
Si Si5 0.710150 0.000000 0.500000
Si Si6 0.835812 0.073525 0.575540
O O1 0.500000 0.642015 0.416455
O O2 0.601144 0.774350 0.363476
O O3 0.579755 0.809635 0.471693
O O4 0.635631 0.581553 0.436479
O O5 0.379193 0.788455 0.250000
O O6 0.287936 0.674009 0.316382
O O7 0.307201 0.948681 0.315773
O O8 0.155731 0.423311 0.542597
O O9 0.102495 0.185845 0.563494
O O10 0.000000 0.379974 0.554295
O O11 0.300104 0.529692 0.750000
O O12 0.316560 0.566442 0.860404
O O13 0.763768 0.906146 0.462232
#
# Coordination Sequence:
#
# PCOD9472605 Si02
#       6
#    16  16  16  16   8  16
#     4  10  20  35  53  77 110 145 179 227 282 332
#     4   9  18  33  52  79 107 140 181 229 281 333
#     4  11  23  38  53  79 117 150 178 227 288 332
#     4   9  19  33  53  81 110 137 178 235 284 324
#     4  12  23  34  57  86 108 146 192 232 265 336
#     4  11  21  34  59  81 108 141 193 227 275 329
#
# _framework density 20.528010999999999
#
# number of rings (size 3 to 8) (size 9 to 14) (size 15 to 20)
#    0.000    1.818    1.818    2.455    5.091    1.818 
#    0.000    0.000    0.000    1.636    0.000    0.000 
#    0.000    0.000    0.000    0.000    0.000    0.000 
#
# Total GULP energy -245263.629589 kJ/mol
# GULP energy per Si atom -5574.173400 kJ/mol
# Density = 2.048129 g / cm^3
# Si number density = 20.528011 Si / 1000 Ang^3
#
#
#
# Elastic Constant Matrix: (Units=GPa)
#
#
# Indices 1 2 3 4 5 6 
#
# 1 89.2464 10.1583 18.5873 0.0000 0.0000 0.0000
# 2 10.1583 15.5412 2.4400 0.0000 0.0000 0.0000
# 3 18.5873 2.4400 50.9584 0.0000 0.0000 0.0000
# 4 0.0000 0.0000 0.0000 17.7555 0.0000 0.0000
# 5 0.0000 0.0000 0.0000 0.0000 22.5097 0.0000
# 6 0.0000 0.0000 0.0000 0.0000 0.0000 28.6757
#
#
#
# Elastic Compliance Matrix: (Units=1/GPa)
#
#
# Indices 1 2 3 4 5 6 
#
# 1 0.013004 -0.007814 -0.004369 0.000000 0.000000 0.000000
# 2 -0.007814 0.069528 -0.000479 0.000000 0.000000 0.000000
# 3 -0.004369 -0.000479 0.021240 0.000000 0.000000 0.000000
# 4 0.000000 0.000000 0.000000 0.056320 0.000000 0.000000
# 5 0.000000 0.000000 0.000000 0.000000 0.044425 0.000000
# 6 0.000000 0.000000 0.000000 0.000000 0.000000 0.034873
#
#
# Mechanical properties :
#
#
# Convention : Reuss Voigt Hill
#
# Bulk Modulus (GPa) = 12.74728 24.23523 18.49125
# Shear Modulus (GPa) = 17.19010 22.09221 19.64115
#
# Velocity S-wave (km/s) = 2.89692 3.28411 3.09657
# Velocity P-wave (km/s) = 4.17285 5.11977 4.67037
#
# Compressibility (1/GPa) = 0.07844813
#
# Stress axis : x y z
#
# Youngs Moduli (GPa) = 76.89739 14.38272 47.07990
#
# Poissons Ratio (x) = 0.11239 0.20570
# Poissons Ratio (y) = 0.60089 0.02255
# Poissons Ratio (z) = 0.33598 0.00689
#
# Static dielectric constant tensor:
#      x y z
#    x 1.755280 0.000000 0.000000 
#    y 0.000000 1.782930 0.000000 
#    z 0.000000 0.000000 1.745060 
# 
# From -- ./inp_files/69220.got.cif
#   From: 2010.05.17/outbox.cif.g08.bks.cpg/sg63_35_cif.got.tgz:69220.got - 2010.06.03 15:47:04.
