data_PCOD9472033
_publ_section_title
;
Structure prediction by ZEFSAII (Michael W. Deem and Ramdas Pophale) SiO2 
 PCOD9472033
Probable space group: C M C M
;
_chemical_formula_sum "Si O2"
_cell_formula_units_Z 96
_cell_length_a 7.465697
_cell_length_b 19.834613
_cell_length_c 24.628517
_cell_angle_alpha 90.000000
_cell_angle_beta 90.000000
_cell_angle_gamma 90.000000
_cell_volume 3646.971360
_symmetry_space_group_name_H-M "C M C M"
_symmetry_group_IT_number 63
_symmetry_cell_setting 'orthorhombic'
loop_
_space_group_symop_operation_xyz
x,y,z
-x,-y,1/2+z
x,-y,-z
-x,y,1/2-z
-x,-y,-z
x,y,1/2-z
-x,y,z
x,-y,1/2+z
1/2+x,1/2+y,z
1/2-x,1/2-y,1/2+z
1/2+x,1/2-y,-z
1/2-x,1/2+y,1/2-z
1/2-x,1/2-y,-z
1/2+x,1/2+y,1/2-z
1/2-x,1/2+y,z
1/2+x,1/2-y,1/2+z
loop_
_atom_site_type_symbol
_atom_site_label
_atom_site_fract_x
_atom_site_fract_y
_atom_site_fract_z
Si Si1 0.716202 0.706471 0.344112
Si Si2 0.785461 0.474177 0.576584
Si Si3 0.713697 0.623646 0.929827
Si Si4 0.295037 0.674198 0.461075
Si Si5 0.707534 0.648085 0.690918
Si Si6 0.789326 0.555735 0.307763
O O1 0.500000 0.708188 0.345219
O O2 0.784441 0.707544 0.406771
O O3 0.784543 0.770688 0.312085
O O4 0.770935 0.635721 0.317878
O O5 0.746212 0.546571 0.551792
O O6 0.703962 0.405244 0.554965
O O7 0.717108 0.479267 0.638762
O O8 0.000000 0.464185 0.575409
O O9 0.500000 0.634552 0.926943
O O10 0.788191 0.630115 0.868484
O O11 0.784205 0.672334 0.978064
O O12 0.500000 0.696134 0.465715
O O13 0.784643 0.626908 0.750000
O O14 0.500000 0.626630 0.690557
O O15 0.708651 0.537684 0.250000
O O16 0.000000 0.539970 0.306188
#
# Coordination Sequence:
#
# PCOD9472033 Si02
#       6
#    16  16  16  16  16  16
#     4  10  20  34  54  80 105 130 168 218 264 304
#     4  10  20  33  52  80 109 136 171 216 261 303
#     4  10  21  37  55  74 102 142 178 207 249 308
#     4   9  19  36  56  78 105 136 170 210 258 310
#     4  10  22  39  56  75 103 140 177 211 253 307
#     4   9  18  33  52  74 103 139 174 210 258 312
#
# _framework density 26.323211000000001
#
# number of rings (size 3 to 8) (size 9 to 14) (size 15 to 20)
#    0.000    2.333    0.000    2.000    0.000    8.667 
#    0.000    0.000    0.000    0.000    0.000    0.000 
#    0.000    0.000    0.000    0.000    0.000    0.000 
#
# Total GULP energy -268344.652855 kJ/mol
# GULP energy per Si atom -5590.513601 kJ/mol
# Density = 2.626330 g / cm^3
# Si number density = 26.323211 Si / 1000 Ang^3
#
#
#
# Elastic Constant Matrix: (Units=GPa)
#
#
# Indices 1 2 3 4 5 6 
#
# 1 107.9099 0.4374 15.8834 0.0000 0.0000 0.0000
# 2 0.4374 70.7681 20.8307 0.0000 0.0000 0.0000
# 3 15.8834 20.8307 186.2730 0.0000 0.0000 0.0000
# 4 0.0000 0.0000 0.0000-1389.3054 0.0000 0.0000
# 5 0.0000 0.0000 0.0000 0.0000 -7.3693 0.0000
# 6 0.0000 0.0000 0.0000 0.0000 0.0000 18.3737
#
#
#
# Elastic Compliance Matrix: (Units=1/GPa)
#
#
# Indices 1 2 3 4 5 6 
#
# 1 0.009387 0.000184 -0.000821 0.000000 0.000000 0.000000
# 2 0.000184 0.014615 -0.001650 0.000000 0.000000 0.000000
# 3 -0.000821 -0.001650 0.005623 0.000000 0.000000 0.000000
# 4 0.000000 0.000000 0.000000 -0.000720 0.000000 0.000000
# 5 0.000000 0.000000 0.000000 0.000000 -0.135697 0.000000
# 6 0.000000 0.000000 0.000000 0.000000 0.000000 0.054426
#
#
# Mechanical properties :
#
#
# Convention : Reuss Voigt Hill
#
# Bulk Modulus (GPa) = 39.91936 48.80601 44.36268
# Shear Modulus (GPa) = -126.77153 -253.80693 -190.28923
#
# Velocity S-wave (km/s) = -6.94724 -9.82999 -8.51155
# Velocity P-wave (km/s) = 7.01101 10.50034 8.92780
#
# Compressibility (1/GPa) = 0.02505050
#
# Stress axis : x y z
#
# Youngs Moduli (GPa) = 106.52936 68.42175 177.84121
#
# Poissons Ratio (x) = -0.01256 0.14600
# Poissons Ratio (y) = -0.01956 0.29345
# Poissons Ratio (z) = 0.08746 0.11290
#
# Static dielectric constant tensor:
#      x y z
#    x 1.968500 0.000000 0.000000 
#    y 0.000000 1.999980 0.000000 
#    z 0.000000 0.000000 2.142900 
# 
# From -- ./inp_files/59916.got.cif
#   From: 2010.05.17/outbox.cif.g08.bks.cpg/sg63_30_cif.got.tgz:59916.got - 2010.06.03 15:47:04.
