data_PCOD9472241
_publ_section_title
;
Structure prediction by ZEFSAII (Michael W. Deem and Ramdas Pophale) SiO2 
 PCOD9472241
Probable space group: C M C M
;
_chemical_formula_sum "Si O2"
_cell_formula_units_Z 96
_cell_length_a 10.575719
_cell_length_b 25.553352
_cell_length_c 18.096946
_cell_angle_alpha 90.000000
_cell_angle_beta 90.000000
_cell_angle_gamma 90.000000
_cell_volume 4890.610443
_symmetry_space_group_name_H-M "C M C M"
_symmetry_group_IT_number 63
_symmetry_cell_setting 'orthorhombic'
loop_
_space_group_symop_operation_xyz
x,y,z
-x,-y,1/2+z
x,-y,-z
-x,y,1/2-z
-x,-y,-z
x,y,1/2-z
-x,y,z
x,-y,1/2+z
1/2+x,1/2+y,z
1/2-x,1/2-y,1/2+z
1/2+x,1/2-y,-z
1/2-x,1/2+y,1/2-z
1/2-x,1/2-y,-z
1/2+x,1/2+y,1/2-z
1/2-x,1/2+y,z
1/2+x,1/2-y,1/2+z
loop_
_atom_site_type_symbol
_atom_site_label
_atom_site_fract_x
_atom_site_fract_y
_atom_site_fract_z
Si Si1 0.857455 0.615279 0.591832
Si Si2 0.775123 0.490601 0.333786
Si Si3 0.146010 0.832105 0.663121
Si Si4 0.229860 0.414954 0.935329
Si Si5 0.150419 0.731555 0.937523
Si Si6 0.000000 0.937743 0.491850
Si Si7 0.500000 0.539714 0.830304
O O1 0.794610 0.568510 0.637810
O O2 0.853764 0.599448 0.505548
O O3 0.807859 0.674607 0.592454
O O4 0.000000 0.617587 0.619744
O O5 0.823363 0.497586 0.250000
O O6 0.817958 0.533070 0.393649
O O7 0.623485 0.496257 0.332279
O O8 0.167414 0.829741 0.750000
O O9 0.247185 0.869831 0.624413
O O10 0.153717 0.775535 0.625352
O O11 0.000000 0.850801 0.651621
O O12 0.369694 0.420409 0.971695
O O13 0.000000 0.727554 0.961521
O O14 0.250000 0.750000 0.000000
O O15 0.000000 0.925677 0.404155
O O16 0.000000 0.000000 0.500000
O O17 0.500000 0.567261 0.750000
#
# Coordination Sequence:
#
# PCOD9472241 Si02
#       7
#    16  16  16  16  16   8   8
#     4  11  24  40  61  84 116 158 209 255 295 347
#     4  11  23  37  55  84 123 163 199 244 303 363
#     4  10  21  36  60  94 124 152 194 250 312 368
#     4  12  20  35  59  87 122 155 197 246 301 362
#     4  10  21  41  65  92 119 158 205 256 307 363
#     4  12  18  32  54  86 114 156 196 232 294 357
#     4  10  20  34  52  82 124 154 190 244 301 356
#
# _framework density 19.629451
#
# number of rings (size 3 to 8) (size 9 to 14) (size 15 to 20)
#    0.000    1.167    5.833    1.000    0.000    2.333 
#    1.500    1.667    0.000    3.000    0.000    0.000 
#    0.000    0.000    0.000    0.000    0.000    0.000 
#
# Total GULP energy -267708.617391 kJ/mol
# GULP energy per Si atom -5577.262862 kJ/mol
# Density = 1.958477 g / cm^3
# Si number density = 19.629451 Si / 1000 Ang^3
#
#
#
# Elastic Constant Matrix: (Units=GPa)
#
#
# Indices 1 2 3 4 5 6 
#
# 1 25.3850 3.7992 -3.4017 0.0000 0.0000 0.0000
# 2 3.7992 82.0208 16.3314 0.0000 0.0000 0.0000
# 3 -3.4017 16.3314 103.9272 0.0000 0.0000 0.0000
# 4 0.0000 0.0000 0.0000 22.8184 0.0000 0.0000
# 5 0.0000 0.0000 0.0000 0.0000 14.4938 0.0000
# 6 0.0000 0.0000 0.0000 0.0000 0.0000 18.1625
#
#
#
# Elastic Compliance Matrix: (Units=1/GPa)
#
#
# Indices 1 2 3 4 5 6 
#
# 1 0.039940 -0.002179 0.001650 0.000000 0.000000 0.000000
# 2 -0.002179 0.012705 -0.002068 0.000000 0.000000 0.000000
# 3 0.001650 -0.002068 0.010001 0.000000 0.000000 0.000000
# 4 0.000000 0.000000 0.000000 0.043824 0.000000 0.000000
# 5 0.000000 0.000000 0.000000 0.000000 0.068995 0.000000
# 6 0.000000 0.000000 0.000000 0.000000 0.000000 0.055059
#
#
# Mechanical properties :
#
#
# Convention : Reuss Voigt Hill
#
# Bulk Modulus (GPa) = 17.40555 27.19897 22.30226
# Shear Modulus (GPa) = 19.61797 24.06853 21.84325
#
# Velocity S-wave (km/s) = 3.16478 3.50543 3.33945
# Velocity P-wave (km/s) = 4.71601 5.50185 5.12402
#
# Compressibility (1/GPa) = 0.05745295
#
# Stress axis : x y z
#
# Youngs Moduli (GPa) = 25.03726 78.71127 99.98955
#
# Poissons Ratio (x) = 0.17147 -0.16495
# Poissons Ratio (y) = 0.05454 0.20675
# Poissons Ratio (z) = -0.04130 0.16276
#
# Static dielectric constant tensor:
#      x y z
#    x 1.736420 0.000000 0.000000 
#    y 0.000000 1.703010 0.000000 
#    z 0.000000 0.000000 1.715740 
# 
# From -- ./inp_files/42527.got.cif
#   From: 2010.05.17/outbox.cif.g08.bks.cpg/sg63_22_cif.got.tgz:42527.got - 2010.06.03 15:47:04.
