data_PCOD9472601
_publ_section_title
;
Structure prediction by ZEFSAII (Michael W. Deem and Ramdas Pophale) SiO2 
 PCOD9472601
Probable space group: C M C M
;
_chemical_formula_sum "Si O2"
_cell_formula_units_Z 96
_cell_length_a 23.287863
_cell_length_b 10.529391
_cell_length_c 18.822639
_cell_angle_alpha 90.000000
_cell_angle_beta 90.000000
_cell_angle_gamma 90.000000
_cell_volume 4615.443125
_symmetry_space_group_name_H-M "C M C M"
_symmetry_group_IT_number 63
_symmetry_cell_setting 'orthorhombic'
loop_
_space_group_symop_operation_xyz
x,y,z
-x,-y,1/2+z
x,-y,-z
-x,y,1/2-z
-x,-y,-z
x,y,1/2-z
-x,y,z
x,-y,1/2+z
1/2+x,1/2+y,z
1/2-x,1/2-y,1/2+z
1/2+x,1/2-y,-z
1/2-x,1/2+y,1/2-z
1/2-x,1/2-y,-z
1/2+x,1/2+y,1/2-z
1/2-x,1/2+y,z
1/2+x,1/2-y,1/2+z
loop_
_atom_site_type_symbol
_atom_site_label
_atom_site_fract_x
_atom_site_fract_y
_atom_site_fract_z
Si Si1 0.154979 0.102157 0.835230
Si Si2 0.134656 0.630830 0.526917
Si Si3 0.162940 0.487848 0.328870
Si Si4 0.853478 0.108200 0.440198
Si Si5 0.773554 0.692739 0.403878
Si Si6 0.063465 0.688244 0.166400
O O1 0.162193 0.104557 0.750000
O O2 0.209785 0.167614 0.874567
O O3 0.103367 0.196665 0.858545
O O4 0.139229 0.965030 0.865926
O O5 0.104079 0.500000 0.500000
O O6 0.162353 0.602063 0.603618
O O7 0.107584 0.770123 0.539514
O O8 0.181608 0.652724 0.465294
O O9 0.167531 0.431860 0.250000
O O10 0.211194 0.595873 0.339826
O O11 0.102164 0.562441 0.336198
O O12 0.788459 0.161618 0.434472
O O13 0.857112 0.000000 0.500000
O O14 0.056997 0.713338 0.250000
O O15 0.000000 0.678407 0.134423
#
# Coordination Sequence:
#
# PCOD9472601 Si02
#       6
#    16  16  16  16  16  16
#     4  10  22  36  55  87 115 141 189 239 283 331
#     4  10  21  35  55  77 107 153 195 223 268 332
#     4   9  18  32  52  82 112 140 183 238 280 323
#     4  12  23  36  55  81 113 156 197 225 273 340
#     4  10  20  35  53  76 110 156 193 220 265 337
#     4   8  15  33  60  84 110 147 188 231 283 344
#
# _framework density 20.799737
#
# number of rings (size 3 to 8) (size 9 to 14) (size 15 to 20)
#    0.000    2.167    1.667    3.500    4.667    2.000 
#    0.000    0.000    0.000   14.000    0.000    4.667 
#    0.000    0.000    0.000    0.000    0.000    0.000 
#
# Total GULP energy -267379.334220 kJ/mol
# GULP energy per Si atom -5570.402796 kJ/mol
# Density = 2.075240 g / cm^3
# Si number density = 20.799737 Si / 1000 Ang^3
#
#
#
# Elastic Constant Matrix: (Units=GPa)
#
#
# Indices 1 2 3 4 5 6 
#
# 1 42.7577 4.1988 -7.8307 0.0000 0.0000 0.0000
# 2 4.1988 127.3039 36.4739 0.0000 0.0000 0.0000
# 3 -7.8307 36.4739 124.1577 0.0000 0.0000 0.0000
# 4 0.0000 0.0000 0.0000 40.2920 0.0000 0.0000
# 5 0.0000 0.0000 0.0000 0.0000 11.2881 0.0000
# 6 0.0000 0.0000 0.0000 0.0000 0.0000 -0.8121
#
#
#
# Elastic Compliance Matrix: (Units=1/GPa)
#
#
# Indices 1 2 3 4 5 6 
#
# 1 0.023866 -0.001330 0.001896 0.000000 0.000000 0.000000
# 2 -0.001330 0.008651 -0.002625 0.000000 0.000000 0.000000
# 3 0.001896 -0.002625 0.008945 0.000000 0.000000 0.000000
# 4 0.000000 0.000000 0.000000 0.024819 0.000000 0.000000
# 5 0.000000 0.000000 0.000000 0.000000 0.088589 0.000000
# 6 0.000000 0.000000 0.000000 0.000000 0.000000 -1.231323
#
#
# Mechanical properties :
#
#
# Convention : Reuss Voigt Hill
#
# Bulk Modulus (GPa) = 26.77918 39.98924 33.38421
# Shear Modulus (GPa) = -4.71749 27.57876 11.43064
#
# Velocity S-wave (km/s) = -1.50764 3.64527 2.34681
# Velocity P-wave (km/s) = 3.14199 6.08152 4.84030
#
# Compressibility (1/GPa) = 0.03734244
#
# Stress axis : x y z
#
# Youngs Moduli (GPa) = 41.90147 115.58950 111.79278
#
# Poissons Ratio (x) = 0.15378 -0.21196
# Poissons Ratio (y) = 0.05574 0.29350
# Poissons Ratio (z) = -0.07945 0.30347
#
# Static dielectric constant tensor:
#      x y z
#    x 1.785980 0.000000 0.000000 
#    y 0.000000 1.865250 0.000000 
#    z 0.000000 0.000000 1.785090 
# 
# From -- ./inp_files/58272.got.cif
#   From: 2010.05.17/outbox.cif.g08.bks.cpg/sg63_30_cif.got.tgz:58272.got - 2010.06.03 15:47:04.
