data_PCOD9472614
_publ_section_title
;
Structure prediction by ZEFSAII (Michael W. Deem and Ramdas Pophale) SiO2 
 PCOD9472614
Probable space group: C M C M
;
_chemical_formula_sum "Si O2"
_cell_formula_units_Z 96
_cell_length_a 30.832377
_cell_length_b 19.680975
_cell_length_c 7.422766
_cell_angle_alpha 90.000000
_cell_angle_beta 90.000000
_cell_angle_gamma 90.000000
_cell_volume 4504.217848
_symmetry_space_group_name_H-M "C M C M"
_symmetry_group_IT_number 63
_symmetry_cell_setting 'orthorhombic'
loop_
_space_group_symop_operation_xyz
x,y,z
-x,-y,1/2+z
x,-y,-z
-x,y,1/2-z
-x,-y,-z
x,y,1/2-z
-x,y,z
x,-y,1/2+z
1/2+x,1/2+y,z
1/2-x,1/2-y,1/2+z
1/2+x,1/2-y,-z
1/2-x,1/2+y,1/2-z
1/2-x,1/2-y,-z
1/2+x,1/2+y,1/2-z
1/2-x,1/2+y,z
1/2+x,1/2-y,1/2+z
loop_
_atom_site_type_symbol
_atom_site_label
_atom_site_fract_x
_atom_site_fract_y
_atom_site_fract_z
Si Si1 0.450769 0.920137 0.034678
Si Si2 0.075135 0.927241 0.535452
Si Si3 0.325835 0.576042 0.034158
Si Si4 0.620658 0.813693 0.468765
Si Si5 0.798722 0.226471 0.034681
Si Si6 0.045438 0.214243 0.030928
O O1 0.452381 0.908149 0.250000
O O2 0.500000 0.903000 0.967678
O O3 0.408159 0.878710 0.969573
O O4 0.444892 0.000000 0.000000
O O5 0.078259 0.919537 0.750000
O O6 0.124507 0.926405 0.465027
O O7 0.049429 0.862747 0.468987
O O8 0.055153 0.000000 0.500000
O O9 0.326746 0.580896 0.250000
O O10 0.306215 0.648299 0.968972
O O11 0.306595 0.500000 0.000000
O O12 0.623865 0.820169 0.250000
O O13 0.667237 0.784559 0.531348
O O14 0.588077 0.753368 0.520102
O O15 0.805561 0.223381 0.250000
O O16 0.750000 0.250000 0.000000
O O17 0.045060 0.216138 0.250000
O O18 0.000000 0.244703 0.970409
#
# Coordination Sequence:
#
# PCOD9472614 Si02
#       6
#    16  16  16  16  16  16
#     4   9  17  30  51  78 104 132 166 202 246 305
#     4   9  16  27  43  65  93 125 158 192 229 269
#     4   9  17  31  51  72  96 128 164 201 241 289
#     4   9  16  30  50  71  97 128 162 202 245 291
#     4  10  20  35  54  76 101 129 166 213 261 304
#     4   9  15  24  43  70  95 122 160 199 231 271
#
# _framework density 21.313358000000001
#
# number of rings (size 3 to 8) (size 9 to 14) (size 15 to 20)
#    0.000    2.833    1.667    0.500    0.000    3.000 
#    0.000    1.667    0.000    5.000    0.000    0.000 
#    0.000    0.000    0.000    0.000    0.000    0.000 
#
# Total GULP energy -267260.834043 kJ/mol
# GULP energy per Si atom -5567.934043 kJ/mol
# Density = 2.126485 g / cm^3
# Si number density = 21.313358 Si / 1000 Ang^3
#
#
#
# Elastic Constant Matrix: (Units=GPa)
#
#
# Indices 1 2 3 4 5 6 
#
# 1 162.0591 83.7272 -0.9092 0.0000 0.0000 0.0000
# 2 83.7272 169.1606 -1.5937 0.0000 0.0000 0.0000
# 3 -0.9092 -1.5937 66.2013 0.0000 0.0000 0.0000
# 4 0.0000 0.0000 0.0000 16.9085 0.0000 0.0000
# 5 0.0000 0.0000 0.0000 0.0000 0.0044 0.0000
# 6 0.0000 0.0000 0.0000 0.0000 0.0000 36.6387
#
#
#
# Elastic Compliance Matrix: (Units=1/GPa)
#
#
# Indices 1 2 3 4 5 6 
#
# 1 0.008291 -0.004103 0.000015 0.000000 0.000000 0.000000
# 2 -0.004103 0.007944 0.000135 0.000000 0.000000 0.000000
# 3 0.000015 0.000135 0.015109 0.000000 0.000000 0.000000
# 4 0.000000 0.000000 0.000000 0.059142 0.000000 0.000000
# 5 0.000000 0.000000 0.000000 0.000000227.665241 0.000000
# 6 0.000000 0.000000 0.000000 0.000000 0.000000 0.027294
#
#
# Mechanical properties :
#
#
# Convention : Reuss Voigt Hill
#
# Bulk Modulus (GPa) = 42.66844 62.20775 52.43809
# Shear Modulus (GPa) = 0.02195 31.79009 15.90602
#
# Velocity S-wave (km/s) = 0.10159 3.86626 2.73480
# Velocity P-wave (km/s) = 4.48071 7.01293 5.88464
#
# Compressibility (1/GPa) = 0.02343653
#
# Stress axis : x y z
#
# Youngs Moduli (GPa) = 120.61748 125.88414 66.18618
#
# Poissons Ratio (x) = 0.51655 -0.00100
# Poissons Ratio (y) = 0.49494 -0.00893
# Poissons Ratio (z) = -0.00182 -0.01698
#
# Static dielectric constant tensor:
#      x y z
#    x 1.739930 0.000000 0.000000 
#    y 0.000000 1.809640 0.000000 
#    z 0.000000 0.000000 1.845600 
# 
# From -- ./inp_files/12321.got.cif
#   From: 2010.05.17/outbox.cif.g08.bks.cpg/sg63_7_cif.got.tgz:12321.got - 2010.06.03 15:47:04.
