data_PCOD9472329
_publ_section_title
;
Structure prediction by ZEFSAII (Michael W. Deem and Ramdas Pophale) SiO2 
 PCOD9472329
Probable space group: C M C M
;
_chemical_formula_sum "Si O2"
_cell_formula_units_Z 64
_cell_length_a 17.330986
_cell_length_b 19.213804
_cell_length_c 8.636303
_cell_angle_alpha 90.000000
_cell_angle_beta 90.000000
_cell_angle_gamma 90.000000
_cell_volume 2875.838533
_symmetry_space_group_name_H-M "C M C M"
_symmetry_group_IT_number 63
_symmetry_cell_setting 'orthorhombic'
loop_
_space_group_symop_operation_xyz
x,y,z
-x,-y,1/2+z
x,-y,-z
-x,y,1/2-z
-x,-y,-z
x,y,1/2-z
-x,y,z
x,-y,1/2+z
1/2+x,1/2+y,z
1/2-x,1/2-y,1/2+z
1/2+x,1/2-y,-z
1/2-x,1/2+y,1/2-z
1/2-x,1/2-y,-z
1/2+x,1/2+y,1/2-z
1/2-x,1/2+y,z
1/2+x,1/2-y,1/2+z
loop_
_atom_site_type_symbol
_atom_site_label
_atom_site_fract_x
_atom_site_fract_y
_atom_site_fract_z
Si Si1 0.411546 0.805949 0.435540
Si Si2 0.909122 0.069459 0.424799
Si Si3 0.679996 0.679144 0.929003
Si Si4 0.686891 0.078319 0.065143
O O1 0.408108 0.807695 0.250000
O O2 0.500000 0.786913 0.479360
O O3 0.346588 0.750977 0.492844
O O4 0.388489 0.880691 0.504327
O O5 0.879516 0.083081 0.250000
O O6 0.894714 0.131451 0.542427
O O7 0.000000 0.059573 0.409292
O O8 0.874896 0.000000 0.500000
O O9 0.698339 0.690657 0.750000
O O10 0.744050 0.628815 0.005365
O O11 0.687616 0.076029 0.250000
O O12 0.691844 0.000000 0.000000
#
# Coordination Sequence:
#
# PCOD9472329 Si02
#       4
#    16  16  16  16
#     4  11  25  46  71 100 135 175 221 273 330 393
#     4  10  20  34  53  81 120 166 215 266 322 386
#     4  12  24  40  64  95 132 171 216 269 328 391
#     4  12  26  46  71  99 134 175 223 275 331 394
#
# _framework density 22.254379
#
# number of rings (size 3 to 8) (size 9 to 14) (size 15 to 20)
#    0.000    0.750    0.000    8.250    0.000    7.000 
#    0.000    0.000    0.000    0.000    0.000    0.000 
#    0.000    0.000    0.000    0.000    0.000    0.000 
#
# Total GULP energy -178824.930277 kJ/mol
# GULP energy per Si atom -5588.279071 kJ/mol
# Density = 2.220373 g / cm^3
# Si number density = 22.254379 Si / 1000 Ang^3
#
#
#
# Elastic Constant Matrix: (Units=GPa)
#
#
# Indices 1 2 3 4 5 6 
#
# 1 66.5769 50.3042 37.3790 0.0000 0.0000 0.0000
# 2 50.3042 178.7507 59.7749 0.0000 0.0000 0.0000
# 3 37.3790 59.7749 152.1599 0.0000 0.0000 0.0000
# 4 0.0000 0.0000 0.0000 41.3923 0.0000 0.0000
# 5 0.0000 0.0000 0.0000 0.0000 9.6483 0.0000
# 6 0.0000 0.0000 0.0000 0.0000 0.0000 23.3593
#
#
#
# Elastic Compliance Matrix: (Units=1/GPa)
#
#
# Indices 1 2 3 4 5 6 
#
# 1 0.020316 -0.004661 -0.003160 0.000000 0.000000 0.000000
# 2 -0.004661 0.007510 -0.001805 0.000000 0.000000 0.000000
# 3 -0.003160 -0.001805 0.008057 0.000000 0.000000 0.000000
# 4 0.000000 0.000000 0.000000 0.024159 0.000000 0.000000
# 5 0.000000 0.000000 0.000000 0.000000 0.103646 0.000000
# 6 0.000000 0.000000 0.000000 0.000000 0.000000 0.042810
#
#
# Mechanical properties :
#
#
# Convention : Reuss Voigt Hill
#
# Bulk Modulus (GPa) = 60.12666 76.93377 68.53021
# Shear Modulus (GPa) = 21.61767 31.54858 26.58313
#
# Velocity S-wave (km/s) = 3.12009 3.76923 3.45992
# Velocity P-wave (km/s) = 6.32902 7.32039 6.84268
#
# Compressibility (1/GPa) = 0.01663156
#
# Stress axis : x y z
#
# Youngs Moduli (GPa) = 49.22294 133.16204 124.10923
#
# Poissons Ratio (x) = 0.62062 0.39216
# Poissons Ratio (y) = 0.22941 0.22404
# Poissons Ratio (z) = 0.15553 0.24038
#
# Static dielectric constant tensor:
#      x y z
#    x 1.935520 0.000000 0.000000 
#    y 0.000000 1.871400 0.000000 
#    z 0.000000 0.000000 1.796670 
# 
# From -- ./inp_files/7472.got.cif
#   From: 2010.05.17/outbox.cif.g08.bks.cpg/sg63_4_cif.got.tgz:7472.got - 2010.06.03 15:47:04.
