data_PCOD9472535
_publ_section_title
;
Structure prediction by ZEFSAII (Michael W. Deem and Ramdas Pophale) SiO2 
 PCOD9472535
Probable space group: C M C M
;
_chemical_formula_sum "Si O2"
_cell_formula_units_Z 100
_cell_length_a 28.893468
_cell_length_b 19.874804
_cell_length_c 7.637668
_cell_angle_alpha 90.000000
_cell_angle_beta 90.000000
_cell_angle_gamma 90.000000
_cell_volume 4385.946227
_symmetry_space_group_name_H-M "C M C M"
_symmetry_group_IT_number 63
_symmetry_cell_setting 'orthorhombic'
loop_
_space_group_symop_operation_xyz
x,y,z
-x,-y,1/2+z
x,-y,-z
-x,y,1/2-z
-x,-y,-z
x,y,1/2-z
-x,y,z
x,-y,1/2+z
1/2+x,1/2+y,z
1/2-x,1/2-y,1/2+z
1/2+x,1/2-y,-z
1/2-x,1/2+y,1/2-z
1/2-x,1/2-y,-z
1/2+x,1/2+y,1/2-z
1/2-x,1/2+y,z
1/2+x,1/2-y,1/2+z
loop_
_atom_site_type_symbol
_atom_site_label
_atom_site_fract_x
_atom_site_fract_y
_atom_site_fract_z
Si Si1 0.000000 0.274266 0.250000
Si Si2 0.319500 0.425612 0.540806
Si Si3 0.361159 0.826941 0.543511
Si Si4 0.926167 0.075285 0.946660
Si Si5 0.931041 0.223316 0.964403
Si Si6 0.448041 0.078771 0.541552
Si Si7 0.259638 0.827350 0.960527
O O1 0.961036 0.268463 0.406717
O O2 0.301207 0.500000 0.500000
O O3 0.326522 0.418778 0.750000
O O4 0.370412 0.421906 0.457555
O O5 0.282590 0.372367 0.472799
O O6 0.354273 0.825751 0.750000
O O7 0.379509 0.751770 0.500206
O O8 0.403234 0.878888 0.514117
O O9 0.310972 0.844267 0.467848
O O10 0.942237 0.081061 0.750000
O O11 0.940734 0.146760 0.026621
O O12 0.940194 0.000000 0.000000
O O13 0.938936 0.229321 0.750000
O O14 0.451782 0.087234 0.750000
O O15 0.500000 0.095417 0.469491
O O16 0.440643 0.000000 0.500000
O O17 0.259245 0.837402 0.750000
O O18 0.250000 0.750000 0.000000
#
# Coordination Sequence:
#
# PCOD9472535 Si02
#       7
#     4  16  16  16  16  16  16
#     4  12  26  40  70  86 128 152 208 256 310 370
#     4  10  20  34  57  87 118 156 203 245 294 357
#     4  10  22  40  61  86 122 161 200 252 308 364
#     4  10  20  37  63  88 121 158 204 247 299 359
#     4  10  24  42  63  92 123 161 205 253 313 366
#     4  10  22  39  61  89 119 154 203 251 305 364
#     4  10  22  39  58  86 122 158 197 247 304 359
#
# _framework density 22.800097999999998
#
# number of rings (size 3 to 8) (size 9 to 14) (size 15 to 20)
#    0.000    1.920    0.000    3.600    4.480    4.800 
#    0.000    2.000    0.000    0.000    0.000    0.000 
#    0.000    0.000    0.000    0.000    0.000    0.000 
#
# Total GULP energy -278452.179466 kJ/mol
# GULP energy per Si atom -5569.043589 kJ/mol
# Density = 2.274820 g / cm^3
# Si number density = 22.800098 Si / 1000 Ang^3
#
#
#
# Elastic Constant Matrix: (Units=GPa)
#
#
# Indices 1 2 3 4 5 6 
#
# 1 105.5875 24.8844 -3.9833 0.0000 0.0000 0.0000
# 2 24.8844 106.1866 -17.4477 0.0000 0.0000 0.0000
# 3 -3.9833 -17.4477 55.0181 0.0000 0.0000 0.0000
# 4 0.0000 0.0000 0.0000 27.1543 0.0000 0.0000
# 5 0.0000 0.0000 0.0000 0.0000 20.3728 0.0000
# 6 0.0000 0.0000 0.0000 0.0000 0.0000 15.1716
#
#
#
# Elastic Compliance Matrix: (Units=1/GPa)
#
#
# Indices 1 2 3 4 5 6 
#
# 1 0.010024 -0.002353 -0.000020 0.000000 0.000000 0.000000
# 2 -0.002353 0.010487 0.003155 0.000000 0.000000 0.000000
# 3 -0.000020 0.003155 0.019175 0.000000 0.000000 0.000000
# 4 0.000000 0.000000 0.000000 0.036827 0.000000 0.000000
# 5 0.000000 0.000000 0.000000 0.000000 0.049085 0.000000
# 6 0.000000 0.000000 0.000000 0.000000 0.000000 0.065913
#
#
# Mechanical properties :
#
#
# Convention : Reuss Voigt Hill
#
# Bulk Modulus (GPa) = 24.24130 30.41102 27.32616
# Shear Modulus (GPa) = 24.54631 30.09564 27.32098
#
# Velocity S-wave (km/s) = 3.28470 3.63709 3.46538
# Velocity P-wave (km/s) = 5.00408 5.56821 5.29367
#
# Compressibility (1/GPa) = 0.04125192
#
# Stress axis : x y z
#
# Youngs Moduli (GPa) = 99.75568 95.35463 52.15113
#
# Poissons Ratio (x) = 0.22433 0.00106
# Poissons Ratio (y) = 0.23468 -0.16456
# Poissons Ratio (z) = 0.00202 -0.30089
#
# Static dielectric constant tensor:
#      x y z
#    x 1.889220 0.000000 0.000000 
#    y 0.000000 1.941190 0.000000 
#    z 0.000000 0.000000 1.825320 
# 
# From -- ./inp_files/12557.got.cif
#   From: 2010.05.17/outbox.cif.g08.bks.cpg/sg63_7_cif.got.tgz:12557.got - 2010.06.03 15:47:04.
