data_PCOD9472771
_publ_section_title
;
Structure prediction by ZEFSAII (Michael W. Deem and Ramdas Pophale) SiO2 
 PCOD9472771
Probable space group: C M C M
;
_chemical_formula_sum "Si O2"
_cell_formula_units_Z 92
_cell_length_a 22.568633
_cell_length_b 28.515631
_cell_length_c 7.892311
_cell_angle_alpha 90.000000
_cell_angle_beta 90.000000
_cell_angle_gamma 90.000000
_cell_volume 5079.166282
_symmetry_space_group_name_H-M "C M C M"
_symmetry_group_IT_number 63
_symmetry_cell_setting 'orthorhombic'
loop_
_space_group_symop_operation_xyz
x,y,z
-x,-y,1/2+z
x,-y,-z
-x,y,1/2-z
-x,-y,-z
x,y,1/2-z
-x,y,z
x,-y,1/2+z
1/2+x,1/2+y,z
1/2-x,1/2-y,1/2+z
1/2+x,1/2-y,-z
1/2-x,1/2+y,1/2-z
1/2-x,1/2-y,-z
1/2+x,1/2+y,1/2-z
1/2-x,1/2+y,z
1/2+x,1/2-y,1/2+z
loop_
_atom_site_type_symbol
_atom_site_label
_atom_site_fract_x
_atom_site_fract_y
_atom_site_fract_z
Si Si1 0.203469 0.849610 0.456917
Si Si2 0.500000 0.054344 0.950531
Si Si3 0.899810 0.784934 0.949431
Si Si4 0.626491 0.908124 0.942181
Si Si5 0.746375 0.947266 0.058131
Si Si6 0.827862 0.309642 0.452625
Si Si7 0.500000 0.713022 0.750000
O O1 0.199558 0.849047 0.250000
O O2 0.143426 0.829538 0.532085
O O3 0.220939 0.901883 0.520150
O O4 0.259541 0.816605 0.505336
O O5 0.500000 0.058648 0.750000
O O6 0.559871 0.077668 0.017568
O O7 0.500000 0.000000 0.000000
O O8 0.919707 0.781243 0.750000
O O9 0.858534 0.739533 0.987689
O O10 0.948760 0.786776 0.096744
O O11 0.640062 0.921157 0.750000
O O12 0.676438 0.935052 0.048691
O O13 0.636081 0.852895 0.968548
O O14 0.766102 0.946374 0.250000
O O15 0.756666 0.000000 0.000000
O O16 0.829195 0.316783 0.250000
#
# Coordination Sequence:
#
# PCOD9472771 Si02
#       7
#    16   8  16  16  16  16   4
#     4   9  18  36  60  88 123 155 193 246 301 351
#     4  12  24  39  54  68  98 143 199 249 292 344
#     4  11  23  40  63  89 120 162 205 241 296 359
#     4  11  22  35  53  77 107 149 198 240 296 350
#     4  10  20  35  56  84 120 151 186 239 300 349
#     4   9  20  37  58  86 118 153 195 248 298 346
#     4  12  26  42  60  82 130 154 204 240 294 346
#
# _framework density 18.113209999999999
#
# number of rings (size 3 to 8) (size 9 to 14) (size 15 to 20)
#    0.000    1.739    0.870    5.217    1.217    4.174 
#    0.000    0.870    0.000    0.000    0.000    0.609 
#    0.000    0.000    0.000    0.000    0.000    0.000 
#
# Total GULP energy -256073.099108 kJ/mol
# GULP energy per Si atom -5566.806502 kJ/mol
# Density = 1.807198 g / cm^3
# Si number density = 18.113210 Si / 1000 Ang^3
#
#
#
# Elastic Constant Matrix: (Units=GPa)
#
#
# Indices 1 2 3 4 5 6 
#
# 1 89.3621 50.0890 43.5693 0.0000 0.0000 0.0000
# 2 50.0890 91.0564 30.9973 0.0000 0.0000 0.0000
# 3 43.5693 30.9973 69.2667 0.0000 0.0000 0.0000
# 4 0.0000 0.0000 0.0000 19.9942 0.0000 0.0000
# 5 0.0000 0.0000 0.0000 0.0000 28.9408 0.0000
# 6 0.0000 0.0000 0.0000 0.0000 0.0000 5.8471
#
#
#
# Elastic Compliance Matrix: (Units=1/GPa)
#
#
# Indices 1 2 3 4 5 6 
#
# 1 0.020067 -0.007954 -0.009063 0.000000 0.000000 0.000000
# 2 -0.007954 0.016108 -0.002206 0.000000 0.000000 0.000000
# 3 -0.009063 -0.002206 0.021125 0.000000 0.000000 0.000000
# 4 0.000000 0.000000 0.000000 0.050014 0.000000 0.000000
# 5 0.000000 0.000000 0.000000 0.000000 0.034553 0.000000
# 6 0.000000 0.000000 0.000000 0.000000 0.000000 0.171025
#
#
# Mechanical properties :
#
#
# Convention : Reuss Voigt Hill
#
# Bulk Modulus (GPa) = 53.03503 55.44406 54.23954
# Shear Modulus (GPa) = 13.98120 19.29174 16.63647
#
# Velocity S-wave (km/s) = 2.78128 3.26707 3.03392
# Velocity P-wave (km/s) = 6.29741 6.70133 6.50251
#
# Compressibility (1/GPa) = 0.01885546
#
# Stress axis : x y z
#
# Youngs Moduli (GPa) = 49.83205 62.08021 47.33745
#
# Poissons Ratio (x) = 0.49376 0.42903
# Poissons Ratio (y) = 0.39634 0.10441
# Poissons Ratio (z) = 0.45164 0.13693
#
# Static dielectric constant tensor:
#      x y z
#    x 1.578010 0.000000 0.000000 
#    y 0.000000 1.648680 0.000000 
#    z 0.000000 0.000000 1.644920 
# 
# From -- ./inp_files/9018.got.cif
#   From: 2010.05.17/outbox.cif.g08.bks.cpg/sg63_5_cif.got.tgz:9018.got - 2010.06.03 15:47:04.
