data_PCOD9472728
_publ_section_title
;
Structure prediction by ZEFSAII (Michael W. Deem and Ramdas Pophale) SiO2 
 PCOD9472728
Probable space group: C M C M
;
_chemical_formula_sum "Si O2"
_cell_formula_units_Z 96
_cell_length_a 8.651236
_cell_length_b 26.169827
_cell_length_c 24.005615
_cell_angle_alpha 90.000000
_cell_angle_beta 90.000000
_cell_angle_gamma 90.000000
_cell_volume 5434.903631
_symmetry_space_group_name_H-M "C M C M"
_symmetry_group_IT_number 63
_symmetry_cell_setting 'orthorhombic'
loop_
_space_group_symop_operation_xyz
x,y,z
-x,-y,1/2+z
x,-y,-z
-x,y,1/2-z
-x,-y,-z
x,y,1/2-z
-x,y,z
x,-y,1/2+z
1/2+x,1/2+y,z
1/2-x,1/2-y,1/2+z
1/2+x,1/2-y,-z
1/2-x,1/2+y,1/2-z
1/2-x,1/2-y,-z
1/2+x,1/2+y,1/2-z
1/2-x,1/2+y,z
1/2+x,1/2-y,1/2+z
loop_
_atom_site_type_symbol
_atom_site_label
_atom_site_fract_x
_atom_site_fract_y
_atom_site_fract_z
Si Si1 0.184166 0.938058 0.750000
Si Si2 0.814317 0.407131 0.867473
Si Si3 0.184956 0.996617 0.065002
Si Si4 0.186690 0.446559 0.250000
Si Si5 0.186209 0.309872 0.560311
Si Si6 0.686933 0.901162 0.131365
Si Si7 0.686417 0.800978 0.432116
O O1 0.246557 0.911299 0.805678
O O2 0.000000 0.938065 0.750000
O O3 0.242851 0.996796 0.750000
O O4 0.760524 0.456994 0.901210
O O5 0.762413 0.356845 0.901325
O O6 0.000000 0.407036 0.864263
O O7 0.000000 0.999886 0.070465
O O8 0.243972 0.943840 0.090843
O O9 0.226056 0.000000 0.000000
O O10 0.231341 0.416311 0.194149
O O11 0.000000 0.452111 0.250000
O O12 0.247326 0.254951 0.579807
O O13 0.234053 0.315820 0.495441
O O14 0.000000 0.309105 0.561126
O O15 0.500000 0.903594 0.127896
O O16 0.735039 0.845210 0.110412
O O17 0.500000 0.797962 0.431417
#
# Coordination Sequence:
#
# PCOD9472728 Si02
#       7
#     8  16  16   8  16  16  16
#     4  12  24  38  57  82 113 147 188 234 284 333
#     4  11  22  38  59  81 110 149 193 231 274 336
#     4  11  23  35  51  81 116 145 179 230 287 335
#     4  10  20  36  57  80 107 147 188 224 274 333
#     4   9  19  35  56  81 109 145 187 230 278 331
#     4  10  20  35  56  80 109 145 187 228 274 338
#     4   9  18  34  56  82 111 146 186 229 278 331
#
# _framework density 17.663608
#
# number of rings (size 3 to 8) (size 9 to 14) (size 15 to 20)
#    0.000    1.833    1.667    2.750    0.000    4.667 
#    0.000    4.167    0.000    1.000    0.000    0.000 
#    0.000    0.000    0.000    0.000    0.000    0.000 
#
# Total GULP energy -268067.388221 kJ/mol
# GULP energy per Si atom -5584.737255 kJ/mol
# Density = 1.762340 g / cm^3
# Si number density = 17.663608 Si / 1000 Ang^3
#
#
#
# Elastic Constant Matrix: (Units=GPa)
#
#
# Indices 1 2 3 4 5 6 
#
# 1 15.5451 5.0254 13.0161 0.0000 0.0000 0.0000
# 2 5.0254 71.4483 3.4926 0.0000 0.0000 0.0000
# 3 13.0161 3.4926 52.3732 0.0000 0.0000 0.0000
# 4 0.0000 0.0000 0.0000 15.4378 0.0000 0.0000
# 5 0.0000 0.0000 0.0000 0.0000 23.4968 0.0000
# 6 0.0000 0.0000 0.0000 0.0000 0.0000 29.9641
#
#
#
# Elastic Compliance Matrix: (Units=1/GPa)
#
#
# Indices 1 2 3 4 5 6 
#
# 1 0.082867 -0.004838 -0.020272 0.000000 0.000000 0.000000
# 2 -0.004838 0.014324 0.000247 0.000000 0.000000 0.000000
# 3 -0.020272 0.000247 0.024115 0.000000 0.000000 0.000000
# 4 0.000000 0.000000 0.000000 0.064776 0.000000 0.000000
# 5 0.000000 0.000000 0.000000 0.000000 0.042559 0.000000
# 6 0.000000 0.000000 0.000000 0.000000 0.000000 0.033373
#
#
# Mechanical properties :
#
#
# Convention : Reuss Voigt Hill
#
# Bulk Modulus (GPa) = 13.97011 20.27052 17.12032
# Shear Modulus (GPa) = 14.89871 21.63525 18.26698
#
# Velocity S-wave (km/s) = 2.90740 3.50358 3.21932
# Velocity P-wave (km/s) = 4.38142 5.27897 4.85100
#
# Compressibility (1/GPa) = 0.07158138
#
# Stress axis : x y z
#
# Youngs Moduli (GPa) = 12.06760 69.81135 41.46738
#
# Poissons Ratio (x) = 0.33772 0.84062
# Poissons Ratio (y) = 0.05838 -0.01024
# Poissons Ratio (z) = 0.24463 -0.01725
#
# Static dielectric constant tensor:
#      x y z
#    x 1.596670 0.000000 0.000000 
#    y 0.000000 1.570100 0.000000 
#    z 0.000000 0.000000 1.596200 
# 
# From -- ./inp_files/60071.got.cif
#   From: 2010.05.17/outbox.cif.g08.bks.cpg/sg63_31_cif.got.tgz:60071.got - 2010.06.03 15:47:04.
