data_PCOD9472710
_publ_section_title
;
Structure prediction by ZEFSAII (Michael W. Deem and Ramdas Pophale) SiO2 
 PCOD9472710
Probable space group: C M C M
;
_chemical_formula_sum "Si O2"
_cell_formula_units_Z 96
_cell_length_a 21.683617
_cell_length_b 9.942922
_cell_length_c 25.866494
_cell_angle_alpha 90.000000
_cell_angle_beta 90.000000
_cell_angle_gamma 90.000000
_cell_volume 5576.777630
_symmetry_space_group_name_H-M "C M C M"
_symmetry_group_IT_number 63
_symmetry_cell_setting 'orthorhombic'
loop_
_space_group_symop_operation_xyz
x,y,z
-x,-y,1/2+z
x,-y,-z
-x,y,1/2-z
-x,-y,-z
x,y,1/2-z
-x,y,z
x,-y,1/2+z
1/2+x,1/2+y,z
1/2-x,1/2-y,1/2+z
1/2+x,1/2-y,-z
1/2-x,1/2+y,1/2-z
1/2-x,1/2-y,-z
1/2+x,1/2+y,1/2-z
1/2-x,1/2+y,z
1/2+x,1/2-y,1/2+z
loop_
_atom_site_type_symbol
_atom_site_label
_atom_site_fract_x
_atom_site_fract_y
_atom_site_fract_z
Si Si1 0.627707 0.228225 0.422861
Si Si2 0.308256 0.089192 0.811201
Si Si3 0.428693 0.983630 0.130657
Si Si4 0.755269 0.153541 0.371375
Si Si5 0.137702 0.970270 0.558413
Si Si6 0.928710 0.293673 0.467923
O O1 0.698278 0.202387 0.406816
O O2 0.614809 0.387190 0.419915
O O3 0.613228 0.185035 0.481750
O O4 0.586643 0.136542 0.385323
O O5 0.301543 0.100183 0.750000
O O6 0.379351 0.065837 0.827593
O O7 0.282372 0.221214 0.839727
O O8 0.271217 0.961093 0.833554
O O9 0.500000 0.967364 0.145290
O O10 0.417079 0.896667 0.078517
O O11 0.808167 0.089568 0.406863
O O12 0.085795 0.856161 0.552480
O O13 0.160580 0.000000 0.500000
O O14 0.000000 0.306479 0.483862
#
# Coordination Sequence:
#
# PCOD9472710 Si02
#       6
#    16  16  16  16  16  16
#     4  10  21  33  55  81 117 151 182 227 274 335
#     4  11  23  39  62  83 107 146 191 245 293 331
#     4  10  21  37  58  84 113 147 189 232 281 336
#     4  11  21  39  56  84 115 144 190 234 289 340
#     4  10  21  34  53  83 116 153 185 222 274 339
#     4  10  20  35  55  82 116 154 191 221 268 341
#
# _framework density 17.214243
#
# number of rings (size 3 to 8) (size 9 to 14) (size 15 to 20)
#    0.000    1.667    3.333    1.500    0.000   10.667 
#    0.000    0.000    0.000    0.000    0.000    0.000 
#    0.000    0.000    0.000    0.000    0.000    0.000 
#
# Total GULP energy -267947.764689 kJ/mol
# GULP energy per Si atom -5582.245098 kJ/mol
# Density = 1.717506 g / cm^3
# Si number density = 17.214243 Si / 1000 Ang^3
#
#
#
# Elastic Constant Matrix: (Units=GPa)
#
#
# Indices 1 2 3 4 5 6 
#
# 1 71.4316 34.6491 49.1672 0.0000 0.0000 0.0000
# 2 34.6491 118.3698 46.6819 0.0000 0.0000 0.0000
# 3 49.1672 46.6819 88.2118 0.0000 0.0000 0.0000
# 4 0.0000 0.0000 0.0000 12.7906 0.0000 0.0000
# 5 0.0000 0.0000 0.0000 0.0000 12.9708 0.0000
# 6 0.0000 0.0000 0.0000 0.0000 0.0000 17.3040
#
#
#
# Elastic Compliance Matrix: (Units=1/GPa)
#
#
# Indices 1 2 3 4 5 6 
#
# 1 0.023131 -0.002131 -0.011765 0.000000 0.000000 0.000000
# 2 -0.002131 0.010873 -0.004566 0.000000 0.000000 0.000000
# 3 -0.011765 -0.004566 0.020310 0.000000 0.000000 0.000000
# 4 0.000000 0.000000 0.000000 0.078182 0.000000 0.000000
# 5 0.000000 0.000000 0.000000 0.000000 0.077096 0.000000
# 6 0.000000 0.000000 0.000000 0.000000 0.000000 0.057790
#
#
# Mechanical properties :
#
#
# Convention : Reuss Voigt Hill
#
# Bulk Modulus (GPa) = 57.50493 59.88995 58.69744
# Shear Modulus (GPa) = 16.12368 18.44742 17.28555
#
# Velocity S-wave (km/s) = 3.06379 3.27714 3.17226
# Velocity P-wave (km/s) = 6.78187 7.01327 6.89854
#
# Compressibility (1/GPa) = 0.01738981
#
# Stress axis : x y z
#
# Youngs Moduli (GPa) = 43.23187 91.97406 49.23642
#
# Poissons Ratio (x) = 0.19601 0.57926
# Poissons Ratio (y) = 0.09213 0.22481
# Poissons Ratio (z) = 0.50862 0.41995
#
# Static dielectric constant tensor:
#      x y z
#    x 1.569050 0.000000 0.000000 
#    y 0.000000 1.598200 0.000000 
#    z 0.000000 0.000000 1.550670 
# 
# From -- ./inp_files/64972.got.cif
#   From: 2010.05.17/outbox.cif.g08.bks.cpg/sg63_33_cif.got.tgz:64972.got - 2010.06.03 15:47:04.
