data_PCOD9472740
_publ_section_title
;
Structure prediction by ZEFSAII (Michael W. Deem and Ramdas Pophale) SiO2 
 PCOD9472740
Probable space group: C M C M
;
_chemical_formula_sum "Si O2"
_cell_formula_units_Z 96
_cell_length_a 23.585107
_cell_length_b 14.644701
_cell_length_c 15.709697
_cell_angle_alpha 90.000000
_cell_angle_beta 90.000000
_cell_angle_gamma 90.000000
_cell_volume 5426.079702
_symmetry_space_group_name_H-M "C M C M"
_symmetry_group_IT_number 63
_symmetry_cell_setting 'orthorhombic'
loop_
_space_group_symop_operation_xyz
x,y,z
-x,-y,1/2+z
x,-y,-z
-x,y,1/2-z
-x,-y,-z
x,y,1/2-z
-x,y,z
x,-y,1/2+z
1/2+x,1/2+y,z
1/2-x,1/2-y,1/2+z
1/2+x,1/2-y,-z
1/2-x,1/2+y,1/2-z
1/2-x,1/2-y,-z
1/2+x,1/2+y,1/2-z
1/2-x,1/2+y,z
1/2+x,1/2-y,1/2+z
loop_
_atom_site_type_symbol
_atom_site_label
_atom_site_fract_x
_atom_site_fract_y
_atom_site_fract_z
Si Si1 0.276455 0.166571 0.095622
Si Si2 0.066320 0.897213 0.008093
Si Si3 0.935070 0.231611 0.349843
Si Si4 0.646878 0.328163 0.151128
Si Si5 0.245997 0.032352 0.653836
Si Si6 0.180694 0.691517 0.597242
O O1 0.321643 0.229884 0.146119
O O2 0.216577 0.216496 0.115900
O O3 0.265635 0.059964 0.109519
O O4 0.300151 0.174833 0.999813
O O5 0.098703 0.839132 0.079949
O O6 0.000000 0.901619 0.031949
O O7 0.069915 0.852796 0.914715
O O8 0.088804 0.000000 0.000000
O O9 0.926085 0.209718 0.250000
O O10 0.885050 0.296539 0.382738
O O11 0.000000 0.266486 0.357951
O O12 0.629966 0.343354 0.250000
O O13 0.692418 0.406828 0.124484
O O14 0.233083 0.005291 0.750000
O O15 0.295763 0.106633 0.649761
#
# Coordination Sequence:
#
# PCOD9472740 Si02
#       6
#    16  16  16  16  16  16
#     4  10  20  35  56  81 115 150 182 230 283 339
#     4  10  22  38  56  79 113 151 190 235 279 332
#     4  10  21  38  60  83 109 146 192 240 287 332
#     4  10  21  36  56  84 115 150 190 229 279 338
#     4  10  21  34  53  83 115 146 186 231 278 336
#     4  10  20  35  57  82 109 148 188 227 283 340
#
# _framework density 17.692332
#
# number of rings (size 3 to 8) (size 9 to 14) (size 15 to 20)
#    0.000    2.000    1.667    1.500    2.333    3.000 
#    0.000    1.667    0.000    3.000    0.000    0.000 
#    0.000    0.000    0.000    0.000    0.000    0.000 
#
# Total GULP energy -267291.742976 kJ/mol
# GULP energy per Si atom -5568.577979 kJ/mol
# Density = 1.765206 g / cm^3
# Si number density = 17.692332 Si / 1000 Ang^3
#
#
#
# Elastic Constant Matrix: (Units=GPa)
#
#
# Indices 1 2 3 4 5 6 
#
# 1 82.2968 28.5215 34.6613 0.0000 0.0000 0.0000
# 2 28.5215 79.2280 20.1013 0.0000 0.0000 0.0000
# 3 34.6613 20.1013 78.9132 0.0000 0.0000 0.0000
# 4 0.0000 0.0000 0.0000 12.1053 0.0000 0.0000
# 5 0.0000 0.0000 0.0000 0.0000 24.8059 0.0000
# 6 0.0000 0.0000 0.0000 0.0000 0.0000 8.5180
#
#
#
# Elastic Compliance Matrix: (Units=1/GPa)
#
#
# Indices 1 2 3 4 5 6 
#
# 1 0.016171 -0.004297 -0.006008 0.000000 0.000000 0.000000
# 2 -0.004297 0.014636 -0.001841 0.000000 0.000000 0.000000
# 3 -0.006008 -0.001841 0.015780 0.000000 0.000000 0.000000
# 4 0.000000 0.000000 0.000000 0.082609 0.000000 0.000000
# 5 0.000000 0.000000 0.000000 0.000000 0.040313 0.000000
# 6 0.000000 0.000000 0.000000 0.000000 0.000000 0.117398
#
#
# Mechanical properties :
#
#
# Convention : Reuss Voigt Hill
#
# Bulk Modulus (GPa) = 44.85370 45.22294 45.03832
# Shear Modulus (GPa) = 15.69221 19.56278 17.62749
#
# Velocity S-wave (km/s) = 2.98140 3.32885 3.15990
# Velocity P-wave (km/s) = 6.10400 6.35541 6.23097
#
# Compressibility (1/GPa) = 0.02229470
#
# Stress axis : x y z
#
# Youngs Moduli (GPa) = 61.83966 68.32602 63.37121
#
# Poissons Ratio (x) = 0.29360 0.38075
# Poissons Ratio (y) = 0.26573 0.11665
# Poissons Ratio (z) = 0.37155 0.12577
#
# Static dielectric constant tensor:
#      x y z
#    x 1.617340 0.000000 0.000000 
#    y 0.000000 1.617200 0.000000 
#    z 0.000000 0.000000 1.647160 
# 
# From -- ./inp_files/35349.got.cif
#   From: 2010.05.17/outbox.cif.g08.bks.cpg/sg63_18_cif.got.tgz:35349.got - 2010.06.03 15:47:04.
