data_PCOD9472075
_publ_section_title
;
Structure prediction by ZEFSAII (Michael W. Deem and Ramdas Pophale) SiO2 
 PCOD9472075
Probable space group: C M C M
;
_chemical_formula_sum "Si O2"
_cell_formula_units_Z 116
_cell_length_a 7.443715
_cell_length_b 27.523034
_cell_length_c 26.808851
_cell_angle_alpha 90.000000
_cell_angle_beta 90.000000
_cell_angle_gamma 90.000000
_cell_volume 5492.426380
_symmetry_space_group_name_H-M "C M C M"
_symmetry_group_IT_number 63
_symmetry_cell_setting 'orthorhombic'
loop_
_space_group_symop_operation_xyz
x,y,z
-x,-y,1/2+z
x,-y,-z
-x,y,1/2-z
-x,-y,-z
x,y,1/2-z
-x,y,z
x,-y,1/2+z
1/2+x,1/2+y,z
1/2-x,1/2-y,1/2+z
1/2+x,1/2-y,-z
1/2-x,1/2+y,1/2-z
1/2-x,1/2-y,-z
1/2+x,1/2+y,1/2-z
1/2-x,1/2+y,z
1/2+x,1/2-y,1/2+z
loop_
_atom_site_type_symbol
_atom_site_label
_atom_site_fract_x
_atom_site_fract_y
_atom_site_fract_z
Si Si1 0.294081 0.988966 0.103702
Si Si2 0.708125 0.395939 0.455267
Si Si3 0.781376 0.257179 0.694831
Si Si4 0.290093 0.671098 0.629523
Si Si5 0.000000 0.092062 0.250000
Si Si6 0.218033 0.576179 0.806914
Si Si7 0.215464 0.368791 0.673937
Si Si8 0.714658 0.908728 0.933227
O O1 0.500000 0.001727 0.116455
O O2 0.213756 0.037540 0.080483
O O3 0.294613 0.946247 0.062795
O O4 0.217411 0.964955 0.154139
O O5 0.500000 0.401340 0.440862
O O6 0.784124 0.352322 0.421351
O O7 0.717685 0.389550 0.514085
O O8 0.723386 0.241175 0.750000
O O9 0.713344 0.220133 0.653076
O O10 0.734712 0.313455 0.687851
O O11 0.000000 0.255514 0.694115
O O12 0.500000 0.681221 0.620341
O O13 0.274446 0.628062 0.670402
O O14 0.159143 0.096664 0.206624
O O15 0.277255 0.569393 0.750000
O O16 0.000000 0.575642 0.807675
O O17 0.248605 0.376669 0.615398
O O18 0.000000 0.375797 0.683041
O O19 0.500000 0.912090 0.939983
#
# Coordination Sequence:
#
# PCOD9472075 Si02
#       8
#    16  16  16  16   4  16  16  16
#     4   9  18  34  54  75 101 141 189 226 275 336
#     4  10  20  33  53  80 111 140 178 234 281 330
#     4   9  16  32  56  78 104 142 182 222 265 327
#     4   9  18  32  52  76 104 143 181 215 273 331
#     4  12  22  40  64  86 118 152 182 244 276 326
#     4   9  17  30  46  72 106 135 168 223 275 325
#     4  10  22  40  61  87 116 149 190 231 282 333
#     4  10  21  37  57  78 104 144 189 229 274 335
#
# _framework density 21.119993000000001
#
# number of rings (size 3 to 8) (size 9 to 14) (size 15 to 20)
#    0.000    2.483    0.690    1.448    0.966    3.586 
#    2.483    0.690    0.000    0.000    0.000    0.000 
#    0.000    0.000    0.000    0.000    0.000    0.000 
#
# Total GULP energy -323130.658866 kJ/mol
# GULP energy per Si atom -5571.218256 kJ/mol
# Density = 2.107192 g / cm^3
# Si number density = 21.119993 Si / 1000 Ang^3
#
#
#
# Elastic Constant Matrix: (Units=GPa)
#
#
# Indices 1 2 3 4 5 6 
#
# 1 73.7661 -0.8085 5.9953 0.0000 0.0000 0.0000
# 2 -0.8085 25.5197 8.4863 0.0000 0.0000 0.0000
# 3 5.9953 8.4863 137.2079 0.0000 0.0000 0.0000
# 4 0.0000 0.0000 0.0000 -13.2298 0.0000 0.0000
# 5 0.0000 0.0000 0.0000 0.0000 31.9700 0.0000
# 6 0.0000 0.0000 0.0000 0.0000 0.0000 7.1109
#
#
#
# Elastic Compliance Matrix: (Units=1/GPa)
#
#
# Indices 1 2 3 4 5 6 
#
# 1 0.013615 0.000642 -0.000635 0.000000 0.000000 0.000000
# 2 0.000642 0.040039 -0.002504 0.000000 0.000000 0.000000
# 3 -0.000635 -0.002504 0.007471 0.000000 0.000000 0.000000
# 4 0.000000 0.000000 0.000000 -0.075587 0.000000 0.000000
# 5 0.000000 0.000000 0.000000 0.000000 0.031279 0.000000
# 6 0.000000 0.000000 0.000000 0.000000 0.000000 0.140630
#
#
# Mechanical properties :
#
#
# Convention : Reuss Voigt Hill
#
# Bulk Modulus (GPa) = 17.81546 29.31553 23.56549
# Shear Modulus (GPa) = 27.60131 20.02491 23.81311
#
# Velocity S-wave (km/s) = 3.61900 3.08254 3.36149
# Velocity P-wave (km/s) = 5.09083 5.15558 5.12331
#
# Compressibility (1/GPa) = 0.05613103
#
# Stress axis : x y z
#
# Youngs Moduli (GPa) = 73.44854 24.97590 133.85373
#
# Poissons Ratio (x) = -0.01604 0.08495
# Poissons Ratio (y) = -0.04718 0.33523
# Poissons Ratio (z) = 0.04661 0.06255
#
# Static dielectric constant tensor:
#      x y z
#    x -23.499740 0.000000 0.000000 
#    y 0.000000 1.760190 0.000000 
#    z 0.000000 0.000000 1.761250 
# 
# From -- ./inp_files/60592.got.cif
#   From: 2010.05.17/outbox.cif.g08.bks.cpg/sg63_31_cif.got.tgz:60592.got - 2010.06.03 15:47:04.
