data_PCOD9472739
_publ_section_title
;
Structure prediction by ZEFSAII (Michael W. Deem and Ramdas Pophale) SiO2 
 PCOD9472739
Probable space group: C M C M
;
_chemical_formula_sum "Si O2"
_cell_formula_units_Z 96
_cell_length_a 30.525092
_cell_length_b 8.036622
_cell_length_c 20.764439
_cell_angle_alpha 90.000000
_cell_angle_beta 90.000000
_cell_angle_gamma 90.000000
_cell_volume 5093.903643
_symmetry_space_group_name_H-M "C M C M"
_symmetry_group_IT_number 63
_symmetry_cell_setting 'orthorhombic'
loop_
_space_group_symop_operation_xyz
x,y,z
-x,-y,1/2+z
x,-y,-z
-x,y,1/2-z
-x,-y,-z
x,y,1/2-z
-x,y,z
x,-y,1/2+z
1/2+x,1/2+y,z
1/2-x,1/2-y,1/2+z
1/2+x,1/2-y,-z
1/2-x,1/2+y,1/2-z
1/2-x,1/2-y,-z
1/2+x,1/2+y,1/2-z
1/2-x,1/2+y,z
1/2+x,1/2-y,1/2+z
loop_
_atom_site_type_symbol
_atom_site_label
_atom_site_fract_x
_atom_site_fract_y
_atom_site_fract_z
Si Si1 0.951430 0.586138 0.430518
Si Si2 0.363083 0.260326 0.035616
Si Si3 0.100444 0.383001 0.323821
Si Si4 0.850295 0.883471 0.602816
Si Si5 0.313017 0.079756 0.360973
Si Si6 0.275126 0.439539 0.174918
O O1 0.955156 0.500000 0.500000
O O2 0.912423 0.712987 0.445434
O O3 0.933674 0.464871 0.374065
O O4 0.000000 0.650741 0.413581
O O5 0.358244 0.438296 0.069855
O O6 0.330354 0.131674 0.069158
O O7 0.352024 0.266442 0.960219
O O8 0.085197 0.379682 0.250000
O O9 0.114879 0.200621 0.349180
O O10 0.145039 0.494612 0.327507
O O11 0.806465 0.922278 0.642627
O O12 0.296505 0.256125 0.331477
O O13 0.271993 0.956684 0.358510
O O14 0.269264 0.476840 0.250000
#
# Coordination Sequence:
#
# PCOD9472739 Si02
#       6
#    16  16  16  16  16  16
#     4  10  20  38  63  87 112 148 187 232 283 343
#     4   9  20  39  57  82 113 146 191 234 287 344
#     4  11  21  36  59  85 114 149 188 237 292 343
#     4  10  20  35  56  81 115 148 188 236 284 338
#     4  10  22  35  55  78 109 153 194 239 281 337
#     4  11  20  33  50  76 112 150 195 237 283 340
#
# _framework density 18.846057999999999
#
# number of rings (size 3 to 8) (size 9 to 14) (size 15 to 20)
#    0.000    1.833    1.667    3.000    0.000    1.000 
#    0.000    6.667    0.000    0.000    0.000    0.000 
#    0.000    0.000    0.000    0.000    0.000    0.000 
#
# Total GULP energy -267485.546920 kJ/mol
# GULP energy per Si atom -5572.615561 kJ/mol
# Density = 1.880316 g / cm^3
# Si number density = 18.846058 Si / 1000 Ang^3
#
#
#
# Elastic Constant Matrix: (Units=GPa)
#
#
# Indices 1 2 3 4 5 6 
#
# 1 76.4304 8.1013 -0.6450 0.0000 0.0000 0.0000
# 2 8.1013 56.2326 18.4000 0.0000 0.0000 0.0000
# 3 -0.6450 18.4000 66.4810 0.0000 0.0000 0.0000
# 4 0.0000 0.0000 0.0000 24.3489 0.0000 0.0000
# 5 0.0000 0.0000 0.0000 0.0000 10.9073 0.0000
# 6 0.0000 0.0000 0.0000 0.0000 0.0000 14.7904
#
#
#
# Elastic Compliance Matrix: (Units=1/GPa)
#
#
# Indices 1 2 3 4 5 6 
#
# 1 0.013318 -0.002156 0.000726 0.000000 0.000000 0.000000
# 2 -0.002156 0.019903 -0.005530 0.000000 0.000000 0.000000
# 3 0.000726 -0.005530 0.016579 0.000000 0.000000 0.000000
# 4 0.000000 0.000000 0.000000 0.041070 0.000000 0.000000
# 5 0.000000 0.000000 0.000000 0.000000 0.091681 0.000000
# 6 0.000000 0.000000 0.000000 0.000000 0.000000 0.067611
#
#
# Mechanical properties :
#
#
# Convention : Reuss Voigt Hill
#
# Bulk Modulus (GPa) = 27.86961 27.87296 27.87129
# Shear Modulus (GPa) = 18.11307 21.56184 19.83746
#
# Velocity S-wave (km/s) = 3.10353 3.38613 3.24791
# Velocity P-wave (km/s) = 5.25953 5.48724 5.37459
#
# Compressibility (1/GPa) = 0.03588138
#
# Stress axis : x y z
#
# Youngs Moduli (GPa) = 75.08360 50.24299 60.31594
#
# Poissons Ratio (x) = 0.10834 -0.04379
# Poissons Ratio (y) = 0.16190 0.33352
# Poissons Ratio (z) = -0.05451 0.27782
#
# Static dielectric constant tensor:
#      x y z
#    x 1.658130 0.000000 0.000000 
#    y 0.000000 1.703090 0.000000 
#    z 0.000000 0.000000 1.655210 
# 
# From -- ./inp_files/58050.got.cif
#   From: 2010.05.17/outbox.cif.g08.bks.cpg/sg63_30_cif.got.tgz:58050.got - 2010.06.03 15:47:04.
