data_PCOD9472404
_publ_section_title
;
Structure prediction by ZEFSAII (Michael W. Deem and Ramdas Pophale) SiO2 
 PCOD9472404
Probable space group: C M C M
;
_chemical_formula_sum "Si O2"
_cell_formula_units_Z 88
_cell_length_a 22.805923
_cell_length_b 23.840944
_cell_length_c 8.294268
_cell_angle_alpha 90.000000
_cell_angle_beta 90.000000
_cell_angle_gamma 90.000000
_cell_volume 4509.715712
_symmetry_space_group_name_H-M "C M C M"
_symmetry_group_IT_number 63
_symmetry_cell_setting 'orthorhombic'
loop_
_space_group_symop_operation_xyz
x,y,z
-x,-y,1/2+z
x,-y,-z
-x,y,1/2-z
-x,-y,-z
x,y,1/2-z
-x,y,z
x,-y,1/2+z
1/2+x,1/2+y,z
1/2-x,1/2-y,1/2+z
1/2+x,1/2-y,-z
1/2-x,1/2+y,1/2-z
1/2-x,1/2-y,-z
1/2+x,1/2+y,1/2-z
1/2-x,1/2+y,z
1/2+x,1/2-y,1/2+z
loop_
_atom_site_type_symbol
_atom_site_label
_atom_site_fract_x
_atom_site_fract_y
_atom_site_fract_z
Si Si1 0.260562 0.438611 0.555562
Si Si2 0.660119 0.145963 0.053459
Si Si3 0.184159 0.232798 0.556589
Si Si4 0.066344 0.559048 0.055774
Si Si5 0.622696 0.382319 0.557065
Si Si6 0.000000 0.065247 0.941235
O O1 0.241164 0.500000 0.500000
O O2 0.259359 0.438032 0.750000
O O3 0.218525 0.387529 0.500125
O O4 0.326811 0.425851 0.500972
O O5 0.662425 0.145795 0.250000
O O6 0.651772 0.209970 0.006378
O O7 0.606017 0.109147 0.997927
O O8 0.185751 0.227145 0.750000
O O9 0.250000 0.250000 0.500000
O O10 0.150658 0.178287 0.489778
O O11 0.065420 0.559803 0.250000
O O12 0.000000 0.562893 0.995447
O O13 0.091678 0.500000 0.000000
O O14 0.619792 0.383998 0.750000
O O15 0.559019 0.401390 0.494597
O O16 0.000000 0.063107 0.750000
O O17 0.000000 0.000000 0.000000
#
# Coordination Sequence:
#
# PCOD9472404 Si02
#       6
#    16  16  16  16  16   8
#     4  10  20  34  54  82 115 150 190 243 303 362
#     4   9  18  34  53  78 113 151 192 240 293 354
#     4  11  21  38  61  86 119 158 202 250 306 373
#     4   9  17  31  52  76 106 144 183 226 279 336
#     4  11  23  42  64  89 124 163 205 258 316 373
#     4  12  26  46  70  98 128 168 213 260 321 386
#
# _framework density 19.513424000000001
#
# number of rings (size 3 to 8) (size 9 to 14) (size 15 to 20)
#    0.000    1.818    1.818    3.000    0.000    2.909 
#    1.636    1.818    0.000    0.000    0.000    0.000 
#    0.000    0.000    0.000    0.000    0.000    0.000 
#
# Total GULP energy -245340.249346 kJ/mol
# GULP energy per Si atom -5575.914758 kJ/mol
# Density = 1.946901 g / cm^3
# Si number density = 19.513424 Si / 1000 Ang^3
#
#
#
# Elastic Constant Matrix: (Units=GPa)
#
#
# Indices 1 2 3 4 5 6 
#
# 1 115.6506 64.9165 24.7717 0.0000 0.0000 0.0000
# 2 64.9165 142.7465 19.5766 0.0000 0.0000 0.0000
# 3 24.7717 19.5766 43.4275 0.0000 0.0000 0.0000
# 4 0.0000 0.0000 0.0000 32.1165 0.0000 0.0000
# 5 0.0000 0.0000 0.0000 0.0000 15.5261 0.0000
# 6 0.0000 0.0000 0.0000 0.0000 0.0000 17.2928
#
#
#
# Elastic Compliance Matrix: (Units=1/GPa)
#
#
# Indices 1 2 3 4 5 6 
#
# 1 0.012508 -0.005020 -0.004872 0.000000 0.000000 0.000000
# 2 -0.005020 0.009482 -0.001411 0.000000 0.000000 0.000000
# 3 -0.004872 -0.001411 0.026442 0.000000 0.000000 0.000000
# 4 0.000000 0.000000 0.000000 0.031137 0.000000 0.000000
# 5 0.000000 0.000000 0.000000 0.000000 0.064408 0.000000
# 6 0.000000 0.000000 0.000000 0.000000 0.000000 0.057828
#
#
# Mechanical properties :
#
#
# Convention : Reuss Voigt Hill
#
# Bulk Modulus (GPa) = 38.72005 57.81710 48.26858
# Shear Modulus (GPa) = 21.45757 25.82439 23.64098
#
# Velocity S-wave (km/s) = 3.31967 3.64183 3.48447
# Velocity P-wave (km/s) = 5.88043 6.88314 6.40145
#
# Compressibility (1/GPa) = 0.02582641
#
# Stress axis : x y z
#
# Youngs Moduli (GPa) = 79.94788 105.46401 37.81891
#
# Poissons Ratio (x) = 0.52945 0.18425
# Poissons Ratio (y) = 0.40135 0.05335
# Poissons Ratio (z) = 0.38949 0.14878
#
# Static dielectric constant tensor:
#      x y z
#    x 1.720910 0.000000 0.000000 
#    y 0.000000 1.698270 0.000000 
#    z 0.000000 0.000000 1.687830 
# 
# From -- ./inp_files/8148.got.cif
#   From: 2010.05.17/outbox.cif.g08.bks.cpg/sg63_5_cif.got.tgz:8148.got - 2010.06.03 15:47:04.
