data_PCOD9472034
_publ_section_title
;
Structure prediction by ZEFSAII (Michael W. Deem and Ramdas Pophale) SiO2 
 PCOD9472034
Probable space group: C M C M
;
_chemical_formula_sum "Si O2"
_cell_formula_units_Z 48
_cell_length_a 7.592785
_cell_length_b 20.247576
_cell_length_c 12.332625
_cell_angle_alpha 90.000000
_cell_angle_beta 90.000000
_cell_angle_gamma 90.000000
_cell_volume 1895.962164
_symmetry_space_group_name_H-M "C M C M"
_symmetry_group_IT_number 63
_symmetry_cell_setting 'orthorhombic'
loop_
_space_group_symop_operation_xyz
x,y,z
-x,-y,1/2+z
x,-y,-z
-x,y,1/2-z
-x,-y,-z
x,y,1/2-z
-x,y,z
x,-y,1/2+z
1/2+x,1/2+y,z
1/2-x,1/2-y,1/2+z
1/2+x,1/2-y,-z
1/2-x,1/2+y,1/2-z
1/2-x,1/2-y,-z
1/2+x,1/2+y,1/2-z
1/2-x,1/2+y,z
1/2+x,1/2-y,1/2+z
loop_
_atom_site_type_symbol
_atom_site_label
_atom_site_fract_x
_atom_site_fract_y
_atom_site_fract_z
Si Si1 0.287891 0.698880 0.137375
Si Si2 0.209235 0.849568 0.086664
Si Si3 0.299320 0.007873 0.872322
O O1 0.222650 0.671702 0.250000
O O2 0.500000 0.695975 0.133322
O O3 0.240506 0.776038 0.130934
O O4 0.223563 0.658353 0.035997
O O5 0.297376 0.912670 0.136611
O O6 0.000000 0.861208 0.091018
O O7 0.225895 0.986126 0.750000
O O8 0.500000 0.983422 0.877333
O O9 0.224916 0.000000 0.000000
#
# Coordination Sequence:
#
# PCOD9472034 Si02
#       3
#    16  16  16
#     4   9  18  33  52  75 107 145 178 211 259 319
#     4  10  20  33  52  80 109 137 175 222 268 314
#     4  10  22  40  59  78 104 141 182 222 267 320
#
# _framework density 25.316962
#
# number of rings (size 3 to 8) (size 9 to 14) (size 15 to 20)
#    0.000    2.333    0.000    2.000    0.000    8.667 
#    0.000    0.000    0.000    0.000    0.000    0.000 
#    0.000    0.000    0.000    0.000    0.000    0.000 
#
# Total GULP energy -133701.852287 kJ/mol
# GULP energy per Si atom -5570.910512 kJ/mol
# Density = 2.525934 g / cm^3
# Si number density = 25.316962 Si / 1000 Ang^3
#
#
#
# Elastic Constant Matrix: (Units=GPa)
#
#
# Indices 1 2 3 4 5 6 
#
# 1 59.7741 -0.6357 15.7463 0.0000 0.0000 0.0000
# 2 -0.6357 92.4382 31.5580 0.0000 0.0000 0.0000
# 3 15.7463 31.5580 259.7003 0.0000 0.0000 0.0000
# 4 0.0000 0.0000 0.0000 -41.2739 0.0000 0.0000
# 5 0.0000 0.0000 0.0000 0.0000 12.6727 0.0000
# 6 0.0000 0.0000 0.0000 0.0000 0.0000 17.9580
#
#
#
# Elastic Compliance Matrix: (Units=1/GPa)
#
#
# Indices 1 2 3 4 5 6 
#
# 1 0.017022 0.000490 -0.001092 0.000000 0.000000 0.000000
# 2 0.000490 0.011300 -0.001403 0.000000 0.000000 0.000000
# 3 -0.001092 -0.001403 0.004087 0.000000 0.000000 0.000000
# 4 0.000000 0.000000 0.000000 -0.024228 0.000000 0.000000
# 5 0.000000 0.000000 0.000000 0.000000 0.078909 0.000000
# 6 0.000000 0.000000 0.000000 0.000000 0.000000 0.055686
#
#
# Mechanical properties :
#
#
# Convention : Reuss Voigt Hill
#
# Bulk Modulus (GPa) = 35.21063 56.13884 45.67473
# Shear Modulus (GPa) = 31.99937 22.22097 27.11017
#
# Velocity S-wave (km/s) = 3.55906 2.96583 3.27590
# Velocity P-wave (km/s) = 5.55224 5.82673 5.69114
#
# Compressibility (1/GPa) = 0.02840052
#
# Stress axis : x y z
#
# Youngs Moduli (GPa) = 58.74601 88.49287 244.66311
#
# Poissons Ratio (x) = -0.04334 0.26708
# Poissons Ratio (y) = -0.02877 0.34323
# Poissons Ratio (z) = 0.06413 0.12414
#
# Static dielectric constant tensor:
#      x y z
#    x 1.927870 0.000000 0.000000 
#    y 0.000000 1.907750 0.000000 
#    z 0.000000 0.000000 2.212640 
# 
# From -- ./inp_files/15672.got.cif
#   From: 2010.05.17/outbox.cif.g08.bks.cpg/sg63_8_cif.got.tgz:15672.got - 2010.06.03 15:47:04.
