data_PCOD9472765
_publ_section_title
;
Structure prediction by ZEFSAII (Michael W. Deem and Ramdas Pophale) SiO2 
 PCOD9472765
Probable space group: C M C M
;
_chemical_formula_sum "Si O2"
_cell_formula_units_Z 80
_cell_length_a 20.577317
_cell_length_b 8.516786
_cell_length_c 21.114318
_cell_angle_alpha 90.000000
_cell_angle_beta 90.000000
_cell_angle_gamma 90.000000
_cell_volume 3700.339240
_symmetry_space_group_name_H-M "C M C M"
_symmetry_group_IT_number 63
_symmetry_cell_setting 'orthorhombic'
loop_
_space_group_symop_operation_xyz
x,y,z
-x,-y,1/2+z
x,-y,-z
-x,y,1/2-z
-x,-y,-z
x,y,1/2-z
-x,y,z
x,-y,1/2+z
1/2+x,1/2+y,z
1/2-x,1/2-y,1/2+z
1/2+x,1/2-y,-z
1/2-x,1/2+y,1/2-z
1/2-x,1/2-y,-z
1/2+x,1/2+y,1/2-z
1/2-x,1/2+y,z
1/2+x,1/2-y,1/2+z
loop_
_atom_site_type_symbol
_atom_site_label
_atom_site_fract_x
_atom_site_fract_y
_atom_site_fract_z
Si Si1 0.807413 0.894942 0.377335
Si Si2 0.075174 0.714119 0.619789
Si Si3 0.570701 0.438051 0.427693
Si Si4 0.296797 0.278960 0.940718
Si Si5 0.226408 0.058390 0.250000
Si Si6 0.147415 0.624737 0.750000
O O1 0.874920 0.822494 0.400566
O O2 0.746808 0.783533 0.383317
O O3 0.804936 0.973606 0.310150
O O4 0.802124 0.036759 0.428068
O O5 0.133166 0.693848 0.566956
O O6 0.103348 0.648154 0.686426
O O7 0.000000 0.662662 0.607807
O O8 0.071530 0.906013 0.616948
O O9 0.579113 0.500000 0.500000
O O10 0.500000 0.364377 0.425670
O O11 0.250000 0.250000 0.000000
O O12 0.304756 0.028243 0.250000
O O13 0.199848 0.234173 0.250000
#
# Coordination Sequence:
#
# PCOD9472765 Si02
#       6
#    16  16  16  16   8   8
#     4  11  20  35  54  81 113 146 189 229 289 335
#     4  10  20  35  56  84 114 148 196 240 283 336
#     4   9  17  30  50  78 111 143 180 231 287 338
#     4  11  21  35  57  85 113 147 188 234 285 340
#     4  12  20  36  56  86 118 145 187 245 287 334
#     4  12  21  38  58  90 111 149 193 245 292 334
#
# _framework density 21.619638999999999
#
# number of rings (size 3 to 8) (size 9 to 14) (size 15 to 20)
#    0.000    1.400    6.000    3.300    0.000    0.000 
#    0.000    0.500    0.000    3.600    0.000    2.800 
#    0.000    0.000    0.000    0.000    0.000    0.000 
#
# Total GULP energy -222731.521758 kJ/mol
# GULP energy per Si atom -5568.288044 kJ/mol
# Density = 2.157043 g / cm^3
# Si number density = 21.619639 Si / 1000 Ang^3
#
#
#
# Elastic Constant Matrix: (Units=GPa)
#
#
# Indices 1 2 3 4 5 6 
#
# 1 197.5997 8.9149 45.3190 0.0000 0.0000 0.0000
# 2 8.9149 5.5810 -5.3186 0.0000 0.0000 0.0000
# 3 45.3190 -5.3186 110.5228 0.0000 0.0000 0.0000
# 4 0.0000 0.0000 0.0000 21.6231 0.0000 0.0000
# 5 0.0000 0.0000 0.0000 0.0000 33.7076 0.0000
# 6 0.0000 0.0000 0.0000 0.0000 0.0000 23.7116
#
#
#
# Elastic Compliance Matrix: (Units=1/GPa)
#
#
# Indices 1 2 3 4 5 6 
#
# 1 0.006414 -0.013366 -0.003273 0.000000 0.000000 0.000000
# 2 -0.013366 0.215642 0.015858 0.000000 0.000000 0.000000
# 3 -0.003273 0.015858 0.011153 0.000000 0.000000 0.000000
# 4 0.000000 0.000000 0.000000 0.046247 0.000000 0.000000
# 5 0.000000 0.000000 0.000000 0.000000 0.029667 0.000000
# 6 0.000000 0.000000 0.000000 0.000000 0.000000 0.042173
#
#
# Mechanical properties :
#
#
# Convention : Reuss Voigt Hill
#
# Bulk Modulus (GPa) = 4.31692 45.72598 25.02145
# Shear Modulus (GPa) = 11.62588 33.46102 22.54345
#
# Velocity S-wave (km/s) = 2.32145 3.93837 3.23264
# Velocity P-wave (km/s) = 3.03094 6.47125 5.05291
#
# Compressibility (1/GPa) = 0.23164646
#
# Stress axis : x y z
#
# Youngs Moduli (GPa) = 155.89707 4.63732 89.65998
#
# Poissons Ratio (x) = 0.06198 0.29349
# Poissons Ratio (y) = 2.08368 -1.42180
# Poissons Ratio (z) = 0.51031 -0.07354
#
# Static dielectric constant tensor:
#      x y z
#    x 1.973910 0.000000 0.000000 
#    y 0.000000 1.819990 0.000000 
#    z 0.000000 0.000000 1.854800 
# 
# From -- ./inp_files/55304.got.cif
#   From: 2010.05.17/outbox.cif.g08.bks.cpg/sg63_28_cif.got.tgz:55304.got - 2010.06.03 15:47:04.
