data_PCOD9472014
_publ_section_title
;
Structure prediction by ZEFSAII (Michael W. Deem and Ramdas Pophale) SiO2 
 PCOD9472014
Probable space group: C M C M
;
_chemical_formula_sum "Si O2"
_cell_formula_units_Z 72
_cell_length_a 29.768119
_cell_length_b 14.159680
_cell_length_c 9.070871
_cell_angle_alpha 90.000000
_cell_angle_beta 90.000000
_cell_angle_gamma 90.000000
_cell_volume 3823.435979
_symmetry_space_group_name_H-M "C M C M"
_symmetry_group_IT_number 63
_symmetry_cell_setting 'orthorhombic'
loop_
_space_group_symop_operation_xyz
x,y,z
-x,-y,1/2+z
x,-y,-z
-x,y,1/2-z
-x,-y,-z
x,y,1/2-z
-x,y,z
x,-y,1/2+z
1/2+x,1/2+y,z
1/2-x,1/2-y,1/2+z
1/2+x,1/2-y,-z
1/2-x,1/2+y,1/2-z
1/2-x,1/2-y,-z
1/2+x,1/2+y,1/2-z
1/2-x,1/2+y,z
1/2+x,1/2-y,1/2+z
loop_
_atom_site_type_symbol
_atom_site_label
_atom_site_fract_x
_atom_site_fract_y
_atom_site_fract_z
Si Si1 0.811804 0.803477 0.574071
Si Si2 0.052963 0.598591 0.425103
Si Si3 0.087938 0.218987 0.073234
Si Si4 0.000000 0.101019 0.072957
Si Si5 0.771821 0.400719 0.425889
O O1 0.804311 0.815811 0.750000
O O2 0.863565 0.824531 0.539185
O O3 0.802125 0.692275 0.541142
O O4 0.776874 0.868246 0.486790
O O5 0.064890 0.500000 0.500000
O O6 0.057811 0.592665 0.250000
O O7 0.081884 0.682011 0.492536
O O8 0.000000 0.616930 0.458501
O O9 0.086242 0.233979 0.250000
O O10 0.045207 0.156268 0.030150
O O11 0.000000 0.093062 0.250000
O O12 0.000000 0.000000 0.000000
O O13 0.785284 0.500000 0.500000
O O14 0.770831 0.412893 0.250000
#
# Coordination Sequence:
#
# PCOD9472014 Si02
#       5
#    16  16  16   8  16
#     4   9  20  37  57  83 112 143 184 229 277 331
#     4  10  20  33  52  78 108 144 184 226 271 325
#     4  10  20  37  58  81 111 146 185 231 279 325
#     4  10  22  38  57  78 107 146 185 228 272 318
#     4  10  20  36  58  82 111 145 180 225 278 334
#
# _framework density 18.831229
#
# number of rings (size 3 to 8) (size 9 to 14) (size 15 to 20)
#    0.000    2.222    1.111    1.333    0.000    5.333 
#    0.000    4.444    0.000    0.000    0.000    0.000 
#    0.000    0.000    0.000    0.000    0.000    0.000 
#
# Total GULP energy -200969.084824 kJ/mol
# GULP energy per Si atom -5582.474578 kJ/mol
# Density = 1.878837 g / cm^3
# Si number density = 18.831229 Si / 1000 Ang^3
#
#
#
# Elastic Constant Matrix: (Units=GPa)
#
#
# Indices 1 2 3 4 5 6 
#
# 1 89.0362 8.1785 19.0274 0.0000 0.0000 0.0000
# 2 8.1785 51.3347 14.3153 0.0000 0.0000 0.0000
# 3 19.0274 14.3153 16.8808 0.0000 0.0000 0.0000
# 4 0.0000 0.0000 0.0000 40.0017 0.0000 0.0000
# 5 0.0000 0.0000 0.0000 0.0000 21.1627 0.0000
# 6 0.0000 0.0000 0.0000 0.0000 0.0000 8.6058
#
#
#
# Elastic Compliance Matrix: (Units=1/GPa)
#
#
# Indices 1 2 3 4 5 6 
#
# 1 0.015158 0.003077 -0.019694 0.000000 0.000000 0.000000
# 2 0.003077 0.026138 -0.025634 0.000000 0.000000 0.000000
# 3 -0.019694 -0.025634 0.103176 0.000000 0.000000 0.000000
# 4 0.000000 0.000000 0.000000 0.024999 0.000000 0.000000
# 5 0.000000 0.000000 0.000000 0.000000 0.047253 0.000000
# 6 0.000000 0.000000 0.000000 0.000000 0.000000 0.116201
#
#
# Mechanical properties :
#
#
# Convention : Reuss Voigt Hill
#
# Bulk Modulus (GPa) = 16.67536 26.69935 21.68736
# Shear Modulus (GPa) = 11.43076 21.66941 16.55008
#
# Velocity S-wave (km/s) = 2.46643 3.39590 2.96778
# Velocity P-wave (km/s) = 4.12134 5.43923 4.82549
#
# Compressibility (1/GPa) = 0.05996873
#
# Stress axis : x y z
#
# Youngs Moduli (GPa) = 65.97387 38.25833 9.69219
#
# Poissons Ratio (x) = -0.11773 0.19088
# Poissons Ratio (y) = -0.20301 0.24845
# Poissons Ratio (z) = 1.29932 0.98072
#
# Static dielectric constant tensor:
#      x y z
#    x 1.677270 0.000000 0.000000 
#    y 0.000000 1.650580 0.000000 
#    z 0.000000 0.000000 1.616260 
# 
# From -- ./inp_files/11704.got.cif
#   From: 2010.05.17/outbox.cif.g08.bks.cpg/sg63_6_cif.got.tgz:11704.got - 2010.06.03 15:47:04.
