data_PCOD9472602
_publ_section_title
;
Structure prediction by ZEFSAII (Michael W. Deem and Ramdas Pophale) SiO2 
 PCOD9472602
Probable space group: C M C M
;
_chemical_formula_sum "Si O2"
_cell_formula_units_Z 96
_cell_length_a 18.364578
_cell_length_b 16.609127
_cell_length_c 18.704069
_cell_angle_alpha 90.000000
_cell_angle_beta 90.000000
_cell_angle_gamma 90.000000
_cell_volume 5705.107800
_symmetry_space_group_name_H-M "C M C M"
_symmetry_group_IT_number 63
_symmetry_cell_setting 'orthorhombic'
loop_
_space_group_symop_operation_xyz
x,y,z
-x,-y,1/2+z
x,-y,-z
-x,y,1/2-z
-x,-y,-z
x,y,1/2-z
-x,y,z
x,-y,1/2+z
1/2+x,1/2+y,z
1/2-x,1/2-y,1/2+z
1/2+x,1/2-y,-z
1/2-x,1/2+y,1/2-z
1/2-x,1/2-y,-z
1/2+x,1/2+y,1/2-z
1/2-x,1/2+y,z
1/2+x,1/2-y,1/2+z
loop_
_atom_site_type_symbol
_atom_site_label
_atom_site_fract_x
_atom_site_fract_y
_atom_site_fract_z
Si Si1 0.586871 0.823124 0.603478
Si Si2 0.915103 0.503679 0.335587
Si Si3 0.331856 0.840372 0.166630
Si Si4 0.912447 0.915773 0.034242
Si Si5 0.342017 0.665451 0.832294
Si Si6 0.913887 0.246848 0.451897
O O1 0.500000 0.812555 0.616753
O O2 0.606252 0.913357 0.626184
O O3 0.629100 0.754500 0.647247
O O4 0.599183 0.805336 0.519831
O O5 0.911056 0.516660 0.250000
O O6 0.865396 0.427380 0.353421
O O7 0.000000 0.485975 0.353203
O O8 0.350627 0.826344 0.250000
O O9 0.244983 0.838737 0.160129
O O10 0.367797 0.775175 0.115089
O O11 0.877599 0.894635 0.110384
O O12 0.000000 0.916525 0.042919
O O13 0.895213 0.841825 0.981106
O O14 0.889348 0.000000 0.000000
O O15 0.361032 0.647481 0.750000
O O16 0.000000 0.249170 0.435371
#
# Coordination Sequence:
#
# PCOD9472602 Si02
#       6
#    16  16  16  16  16  16
#     4   9  18  32  54  81 101 127 172 222 268 310
#     4   9  17  31  51  74 104 139 173 213 258 308
#     4  10  21  35  48  73 110 144 175 207 256 320
#     4   9  19  37  57  78 104 134 175 224 267 309
#     4  10  20  35  53  77 107 137 173 217 265 317
#     4   9  18  34  55  76 101 135 174 218 259 305
#
# _framework density 16.827026
#
# number of rings (size 3 to 8) (size 9 to 14) (size 15 to 20)
#    0.000    2.667    0.000    2.500    0.000    6.333 
#    6.000    3.333    0.000    3.000    0.000    0.000 
#    0.000    0.000    0.000    0.000    0.000    0.000 
#
# Total GULP energy -267698.834166 kJ/mol
# GULP energy per Si atom -5577.059045 kJ/mol
# Density = 1.678873 g / cm^3
# Si number density = 16.827026 Si / 1000 Ang^3
#
#
#
# Elastic Constant Matrix: (Units=GPa)
#
#
# Indices 1 2 3 4 5 6 
#
# 1 51.2547 55.5973 57.7022 0.0000 0.0000 0.0000
# 2 55.5973 100.6212 84.1516 0.0000 0.0000 0.0000
# 3 57.7022 84.1516 113.8472 0.0000 0.0000 0.0000
# 4 0.0000 0.0000 0.0000 20.9734 0.0000 0.0000
# 5 0.0000 0.0000 0.0000 0.0000 2.0088 0.0000
# 6 0.0000 0.0000 0.0000 0.0000 0.0000 -31.2409
#
#
#
# Elastic Compliance Matrix: (Units=1/GPa)
#
#
# Indices 1 2 3 4 5 6 
#
# 1 0.056668 -0.019095 -0.014607 0.000000 0.000000 0.000000
# 2 -0.019095 0.032463 -0.014317 0.000000 0.000000 0.000000
# 3 -0.014607 -0.014317 0.026770 0.000000 0.000000 0.000000
# 4 0.000000 0.000000 0.000000 0.047680 0.000000 0.000000
# 5 0.000000 0.000000 0.000000 0.000000 0.497820 0.000000
# 6 0.000000 0.000000 0.000000 0.000000 0.000000 -0.032009
#
#
# Mechanical properties :
#
#
# Convention : Reuss Voigt Hill
#
# Bulk Modulus (GPa) = 50.34771 73.40282 61.87527
# Shear Modulus (GPa) = 6.83013 2.89972 4.86492
#
# Velocity S-wave (km/s) = 2.01689 1.31415 1.70218
# Velocity P-wave (km/s) = 5.95059 6.78376 6.38078
#
# Compressibility (1/GPa) = 0.01986188
#
# Stress axis : x y z
#
# Youngs Moduli (GPa) = 17.64658 30.80448 37.35543
#
# Poissons Ratio (x) = 0.58822 0.54566
# Poissons Ratio (y) = 0.33696 0.53482
# Poissons Ratio (z) = 0.25777 0.44103
#
# Static dielectric constant tensor:
#      x y z
#    x 1.555490 0.000000 0.000000 
#    y 0.000000 1.554150 0.000000 
#    z 0.000000 0.000000 1.557760 
# 
# From -- ./inp_files/47252.got.cif
#   From: 2010.05.17/outbox.cif.g08.bks.cpg/sg63_24_cif.got.tgz:47252.got - 2010.06.03 15:47:04.
