data_PCOD9472815
_publ_section_title
;
Structure prediction by ZEFSAII (Michael W. Deem and Ramdas Pophale) SiO2 
 PCOD9472815
Probable space group: C M C M
;
_chemical_formula_sum "Si O2"
_cell_formula_units_Z 64
_cell_length_a 10.709457
_cell_length_b 10.005746
_cell_length_c 29.460883
_cell_angle_alpha 90.000000
_cell_angle_beta 90.000000
_cell_angle_gamma 90.000000
_cell_volume 3156.913518
_symmetry_space_group_name_H-M "C M C M"
_symmetry_group_IT_number 63
_symmetry_cell_setting 'orthorhombic'
loop_
_space_group_symop_operation_xyz
x,y,z
-x,-y,1/2+z
x,-y,-z
-x,y,1/2-z
-x,-y,-z
x,y,1/2-z
-x,y,z
x,-y,1/2+z
1/2+x,1/2+y,z
1/2-x,1/2-y,1/2+z
1/2+x,1/2-y,-z
1/2-x,1/2+y,1/2-z
1/2-x,1/2-y,-z
1/2+x,1/2+y,1/2-z
1/2-x,1/2+y,z
1/2+x,1/2-y,1/2+z
loop_
_atom_site_type_symbol
_atom_site_label
_atom_site_fract_x
_atom_site_fract_y
_atom_site_fract_z
Si Si1 0.864572 0.154518 0.039458
Si Si2 0.217228 0.111800 0.937997
Si Si3 0.856850 0.122307 0.195711
Si Si4 0.358429 0.320599 0.161280
O O1 0.841517 0.300862 0.058172
O O2 0.000000 0.103358 0.052787
O O3 0.767560 0.047372 0.059255
O O4 0.852089 0.151136 0.985015
O O5 0.149148 0.154322 0.892595
O O6 0.852788 0.137152 0.250000
O O7 0.749618 0.216588 0.174968
O O8 0.000000 0.155026 0.180469
O O9 0.835543 0.966578 0.183424
O O10 0.500000 0.277704 0.173792
#
# Coordination Sequence:
#
# PCOD9472815 Si02
#       4
#    16  16  16  16
#     4  10  20  37  56  77 116 156 188 231 278 326
#     4  10  20  35  57  85 112 149 193 231 278 332
#     4  10  23  42  62  86 116 149 187 236 293 350
#     4  11  22  38  62  89 117 149 191 239 286 341
#
# _framework density 20.272966
#
# number of rings (size 3 to 8) (size 9 to 14) (size 15 to 20)
#    0.000    1.750    0.000    5.250    0.000    5.500 
#    0.000   15.000    0.000    0.000    0.000    0.000 
#    0.000    0.000    0.000    0.000    0.000    0.000 
#
# Total GULP energy -178517.377784 kJ/mol
# GULP energy per Si atom -5578.668056 kJ/mol
# Density = 2.022682 g / cm^3
# Si number density = 20.272966 Si / 1000 Ang^3
#
#
#
# Elastic Constant Matrix: (Units=GPa)
#
#
# Indices 1 2 3 4 5 6 
#
# 1 107.5282 62.7156 20.1633 0.0000 0.0000 0.0000
# 2 62.7156 91.7764 15.5438 0.0000 0.0000 0.0000
# 3 20.1633 15.5438 54.7122 0.0000 0.0000 0.0000
# 4 0.0000 0.0000 0.0000 27.0507 0.0000 0.0000
# 5 0.0000 0.0000 0.0000 0.0000 16.5122 0.0000
# 6 0.0000 0.0000 0.0000 0.0000 0.0000 32.1827
#
#
#
# Elastic Compliance Matrix: (Units=1/GPa)
#
#
# Indices 1 2 3 4 5 6 
#
# 1 0.015892 -0.010367 -0.002912 0.000000 0.000000 0.000000
# 2 -0.010367 0.018209 -0.001353 0.000000 0.000000 0.000000
# 3 -0.002912 -0.001353 0.019735 0.000000 0.000000 0.000000
# 4 0.000000 0.000000 0.000000 0.036968 0.000000 0.000000
# 5 0.000000 0.000000 0.000000 0.000000 0.060561 0.000000
# 6 0.000000 0.000000 0.000000 0.000000 0.000000 0.031073
#
#
# Mechanical properties :
#
#
# Convention : Reuss Voigt Hill
#
# Bulk Modulus (GPa) = 40.69346 50.09581 45.39463
# Shear Modulus (GPa) = 22.73844 25.52206 24.13025
#
# Velocity S-wave (km/s) = 3.35268 3.55198 3.45377
# Velocity P-wave (km/s) = 5.92483 6.44875 6.19233
#
# Compressibility (1/GPa) = 0.02457397
#
# Stress axis : x y z
#
# Youngs Moduli (GPa) = 62.92332 54.91661 50.67191
#
# Poissons Ratio (x) = 0.56932 0.14754
# Poissons Ratio (y) = 0.65232 0.06855
# Poissons Ratio (z) = 0.18321 0.07429
#
# Static dielectric constant tensor:
#      x y z
#    x 1.712250 0.000000 0.000000 
#    y 0.000000 1.716240 0.000000 
#    z 0.000000 0.000000 1.723200 
# 
# From -- ./inp_files/72356.got.cif
#   From: 2010.05.17/outbox.cif.g08.bks.cpg/sg63_37_cif.got.tgz:72356.got - 2010.06.03 15:47:04.
