data_PCOD9472252
_publ_section_title
;
Structure prediction by ZEFSAII (Michael W. Deem and Ramdas Pophale) SiO2 
 PCOD9472252
Probable space group: C M C M
;
_chemical_formula_sum "Si O2"
_cell_formula_units_Z 112
_cell_length_a 14.848178
_cell_length_b 16.775931
_cell_length_c 24.270324
_cell_angle_alpha 90.000000
_cell_angle_beta 90.000000
_cell_angle_gamma 90.000000
_cell_volume 6045.543779
_symmetry_space_group_name_H-M "C M C M"
_symmetry_group_IT_number 63
_symmetry_cell_setting 'orthorhombic'
loop_
_space_group_symop_operation_xyz
x,y,z
-x,-y,1/2+z
x,-y,-z
-x,y,1/2-z
-x,-y,-z
x,y,1/2-z
-x,y,z
x,-y,1/2+z
1/2+x,1/2+y,z
1/2-x,1/2-y,1/2+z
1/2+x,1/2-y,-z
1/2-x,1/2+y,1/2-z
1/2-x,1/2-y,-z
1/2+x,1/2+y,1/2-z
1/2-x,1/2+y,z
1/2+x,1/2-y,1/2+z
loop_
_atom_site_type_symbol
_atom_site_label
_atom_site_fract_x
_atom_site_fract_y
_atom_site_fract_z
Si Si1 0.603612 0.876784 0.311029
Si Si2 0.395494 0.420980 0.315215
Si Si3 0.397035 0.684736 0.186888
Si Si4 0.733136 0.025136 0.614370
Si Si5 0.899290 0.784124 0.400215
Si Si6 0.250995 0.147240 0.095724
Si Si7 0.159187 0.085904 0.985432
O O1 0.635607 0.900958 0.250000
O O2 0.500000 0.901558 0.317114
O O3 0.604951 0.781165 0.313088
O O4 0.665108 0.916100 0.356303
O O5 0.377640 0.419937 0.250000
O O6 0.500000 0.445130 0.323542
O O7 0.324889 0.474025 0.349039
O O8 0.385631 0.333765 0.343463
O O9 0.379301 0.657904 0.250000
O O10 0.500000 0.660367 0.172845
O O11 0.322297 0.660018 0.143525
O O12 0.759603 0.058616 0.554723
O O13 0.698735 0.935505 0.609275
O O14 0.820436 0.720115 0.408009
O O15 0.894528 0.851147 0.448253
O O16 0.000000 0.749179 0.399873
O O17 0.196654 0.129441 0.039441
O O18 0.114403 0.000000 0.000000
#
# Coordination Sequence:
#
# PCOD9472252 Si02
#       7
#    16  16  16  16  16  16  16
#     4   9  18  34  55  77 103 139 182 221 258 308
#     4   9  18  34  55  77 103 138 177 214 258 314
#     4   9  19  35  55  80 106 133 171 220 272 320
#     4  10  20  34  53  75 104 140 177 218 261 309
#     4  10  21  36  55  80 110 142 176 216 263 320
#     4  11  22  35  54  79 110 142 172 215 273 323
#     4   9  20  38  56  76 102 137 182 225 264 314
#
# _framework density 18.526042
#
# number of rings (size 3 to 8) (size 9 to 14) (size 15 to 20)
#    0.000    2.429    0.000    3.429    0.000    4.857 
#    0.000    6.429    0.000    4.286    0.000    0.000 
#    0.000    0.000    0.000    0.000    0.000    0.000 
#
# Total GULP energy -312287.753856 kJ/mol
# GULP energy per Si atom -5576.567033 kJ/mol
# Density = 1.848388 g / cm^3
# Si number density = 18.526042 Si / 1000 Ang^3
#
#
#
# Elastic Constant Matrix: (Units=GPa)
#
#
# Indices 1 2 3 4 5 6 
#
# 1 63.7934 35.5246 35.8215 0.0000 0.0000 0.0000
# 2 35.5246 65.7778 27.0081 0.0000 0.0000 0.0000
# 3 35.8215 27.0081 102.8125 0.0000 0.0000 0.0000
# 4 0.0000 0.0000 0.0000 10.9834 0.0000 0.0000
# 5 0.0000 0.0000 0.0000 0.0000 4.6940 0.0000
# 6 0.0000 0.0000 0.0000 0.0000 0.0000 1.9445
#
#
#
# Elastic Compliance Matrix: (Units=1/GPa)
#
#
# Indices 1 2 3 4 5 6 
#
# 1 0.025194 -0.011212 -0.005833 0.000000 0.000000 0.000000
# 2 -0.011212 0.022030 -0.001881 0.000000 0.000000 0.000000
# 3 -0.005833 -0.001881 0.012253 0.000000 0.000000 0.000000
# 4 0.000000 0.000000 0.000000 0.091047 0.000000 0.000000
# 5 0.000000 0.000000 0.000000 0.000000 0.213039 0.000000
# 6 0.000000 0.000000 0.000000 0.000000 0.000000 0.514271
#
#
# Mechanical properties :
#
#
# Convention : Reuss Voigt Hill
#
# Bulk Modulus (GPa) = 46.23980 47.67690 46.95835
# Shear Modulus (GPa) = 5.41774 12.45966 8.93870
#
# Velocity S-wave (km/s) = 1.71194 2.59617 2.19896
# Velocity P-wave (km/s) = 5.37784 5.89726 5.64353
#
# Compressibility (1/GPa) = 0.02162639
#
# Stress axis : x y z
#
# Youngs Moduli (GPa) = 39.69140 45.39247 81.61415
#
# Poissons Ratio (x) = 0.50893 0.47604
# Poissons Ratio (y) = 0.44501 0.15350
# Poissons Ratio (z) = 0.23151 0.08537
#
# Static dielectric constant tensor:
#      x y z
#    x 1.623590 0.000000 0.000000 
#    y 0.000000 1.648110 0.000000 
#    z 0.000000 0.000000 1.638750 
# 
# From -- ./inp_files/63002.got.cif
#   From: 2010.05.17/outbox.cif.g08.bks.cpg/sg63_32_cif.got.tgz:63002.got - 2010.06.03 15:47:04.
