data_PCOD9472695
_publ_section_title
;
Structure prediction by ZEFSAII (Michael W. Deem and Ramdas Pophale) SiO2 
 PCOD9472695
Probable space group: C M C M
;
_chemical_formula_sum "Si O2"
_cell_formula_units_Z 104
_cell_length_a 29.581771
_cell_length_b 12.858334
_cell_length_c 14.749408
_cell_angle_alpha 90.000000
_cell_angle_beta 90.000000
_cell_angle_gamma 90.000000
_cell_volume 5610.266124
_symmetry_space_group_name_H-M "C M C M"
_symmetry_group_IT_number 63
_symmetry_cell_setting 'orthorhombic'
loop_
_space_group_symop_operation_xyz
x,y,z
-x,-y,1/2+z
x,-y,-z
-x,y,1/2-z
-x,-y,-z
x,y,1/2-z
-x,y,z
x,-y,1/2+z
1/2+x,1/2+y,z
1/2-x,1/2-y,1/2+z
1/2+x,1/2-y,-z
1/2-x,1/2+y,1/2-z
1/2-x,1/2-y,-z
1/2+x,1/2+y,1/2-z
1/2-x,1/2+y,z
1/2+x,1/2-y,1/2+z
loop_
_atom_site_type_symbol
_atom_site_label
_atom_site_fract_x
_atom_site_fract_y
_atom_site_fract_z
Si Si1 0.903614 0.809705 0.556800
Si Si2 0.156881 0.000000 0.500000
Si Si3 0.725419 0.579508 0.140172
Si Si4 0.583001 0.898818 0.941498
Si Si5 0.176895 0.721001 0.853687
Si Si6 0.500000 0.210578 0.145928
Si Si7 0.673851 0.011678 0.140808
Si Si8 0.500000 0.622374 0.480077
O O1 0.875591 0.899122 0.503694
O O2 0.908623 0.702862 0.502079
O O3 0.871414 0.778232 0.639754
O O4 0.954063 0.849859 0.572863
O O5 0.190259 0.005984 0.413195
O O6 0.719619 0.571245 0.250000
O O7 0.712153 0.695849 0.108479
O O8 0.777246 0.557383 0.117978
O O9 0.543696 0.861283 0.873850
O O10 0.630171 0.929892 0.895706
O O11 0.568472 0.000000 0.000000
O O12 0.190245 0.704783 0.750000
O O13 0.173880 0.607034 0.894987
O O14 0.500000 0.247158 0.250000
O O15 0.500000 0.305854 0.072257
O O16 0.670148 0.011071 0.250000
O O17 0.500000 0.500000 0.500000
#
# Coordination Sequence:
#
# PCOD9472695 Si02
#       8
#    16   8  16  16  16   8  16   8
#     4  10  20  36  58  84 109 148 189 232 292 345
#     4  10  20  35  58  80 112 151 190 238 292 346
#     4   9  20  35  53  80 112 150 195 240 291 349
#     4  11  21  36  59  85 114 150 195 237 290 353
#     4   9  18  35  54  76 112 149 188 237 284 338
#     4  10  23  41  60  87 122 156 191 243 303 355
#     4  10  20  35  55  80 115 152 188 238 290 340
#     4  10  20  39  64  83 116 147 187 238 288 353
#
# _framework density 18.537445000000002
#
# number of rings (size 3 to 8) (size 9 to 14) (size 15 to 20)
#    0.000    2.154    2.308    0.692    1.077    1.231 
#    0.000    9.615    0.000    0.000    0.000    0.000 
#    0.000    0.000    0.000    0.000    0.000    0.000 
#
# Total GULP energy -289695.115904 kJ/mol
# GULP energy per Si atom -5571.059921 kJ/mol
# Density = 1.849525 g / cm^3
# Si number density = 18.537445 Si / 1000 Ang^3
#
#
#
# Elastic Constant Matrix: (Units=GPa)
#
#
# Indices 1 2 3 4 5 6 
#
# 1 133.5955 49.0034 10.4212 0.0000 0.0000 0.0000
# 2 49.0034 111.4037 4.9156 0.0000 0.0000 0.0000
# 3 10.4212 4.9156 30.1920 0.0000 0.0000 0.0000
# 4 0.0000 0.0000 0.0000 15.7387 0.0000 0.0000
# 5 0.0000 0.0000 0.0000 0.0000 366.3949 0.0000
# 6 0.0000 0.0000 0.0000 0.0000 0.0000 29.9896
#
#
#
# Elastic Compliance Matrix: (Units=1/GPa)
#
#
# Indices 1 2 3 4 5 6 
#
# 1 0.009110 -0.003897 -0.002510 0.000000 0.000000 0.000000
# 2 -0.003897 0.010708 -0.000398 0.000000 0.000000 0.000000
# 3 -0.002510 -0.000398 0.034053 0.000000 0.000000 0.000000
# 4 0.000000 0.000000 0.000000 0.063538 0.000000 0.000000
# 5 0.000000 0.000000 0.000000 0.000000 0.002729 0.000000
# 6 0.000000 0.000000 0.000000 0.000000 0.000000 0.033345
#
#
# Mechanical properties :
#
#
# Convention : Reuss Voigt Hill
#
# Bulk Modulus (GPa) = 24.83817 44.87463 34.85640
# Shear Modulus (GPa) = 27.69877 96.48138 62.09007
#
# Velocity S-wave (km/s) = 3.86969 7.22217 5.79371
# Velocity P-wave (km/s) = 5.77876 9.68537 7.97497
#
# Compressibility (1/GPa) = 0.04026061
#
# Stress axis : x y z
#
# Youngs Moduli (GPa) = 109.76464 93.38834 29.36626
#
# Poissons Ratio (x) = 0.36390 0.07371
# Poissons Ratio (y) = 0.42772 0.01170
# Poissons Ratio (z) = 0.27553 0.03721
#
# Static dielectric constant tensor:
#      x y z
#    x 1.640290 0.000000 0.000000 
#    y 0.000000 1.654760 0.000000 
#    z 0.000000 0.000000 1.650960 
# 
# From -- ./inp_files/49057.got.cif
#   From: 2010.05.17/outbox.cif.g08.bks.cpg/sg63_25_cif.got.tgz:49057.got - 2010.06.03 15:47:04.
