data_PCOD9472236
_publ_section_title
;
Structure prediction by ZEFSAII (Michael W. Deem and Ramdas Pophale) SiO2 
 PCOD9472236
Probable space group: C M C M
;
_chemical_formula_sum "Si O2"
_cell_formula_units_Z 112
_cell_length_a 25.241348
_cell_length_b 16.630236
_cell_length_c 14.866824
_cell_angle_alpha 90.000000
_cell_angle_beta 90.000000
_cell_angle_gamma 90.000000
_cell_volume 6240.640380
_symmetry_space_group_name_H-M "C M C M"
_symmetry_group_IT_number 63
_symmetry_cell_setting 'orthorhombic'
loop_
_space_group_symop_operation_xyz
x,y,z
-x,-y,1/2+z
x,-y,-z
-x,y,1/2-z
-x,-y,-z
x,y,1/2-z
-x,y,z
x,-y,1/2+z
1/2+x,1/2+y,z
1/2-x,1/2-y,1/2+z
1/2+x,1/2-y,-z
1/2-x,1/2+y,1/2-z
1/2-x,1/2-y,-z
1/2+x,1/2+y,1/2-z
1/2-x,1/2+y,z
1/2+x,1/2-y,1/2+z
loop_
_atom_site_type_symbol
_atom_site_label
_atom_site_fract_x
_atom_site_fract_y
_atom_site_fract_z
Si Si1 0.099852 0.802903 0.008997
Si Si2 0.699165 0.202414 0.533497
Si Si3 0.358862 0.441314 0.141787
Si Si4 0.851876 0.441738 0.576893
Si Si5 0.561128 0.830409 0.648848
Si Si6 0.238424 0.560864 0.854956
Si Si7 0.440174 0.587256 0.145735
O O1 0.118753 0.869402 0.081119
O O2 0.072430 0.733993 0.069809
O O3 0.150535 0.763479 0.959194
O O4 0.066343 0.845069 0.930431
O O5 0.750000 0.250000 0.500000
O O6 0.678457 0.135000 0.464120
O O7 0.717620 0.148578 0.616863
O O8 0.359809 0.422926 0.250000
O O9 0.298035 0.454952 0.110497
O O10 0.395975 0.519138 0.129179
O O11 0.875703 0.500000 0.500000
O O12 0.898290 0.404319 0.636426
O O13 0.805620 0.496310 0.617836
O O14 0.569250 0.796033 0.750000
O O15 0.500000 0.855942 0.642511
O O16 0.243517 0.556932 0.750000
O O17 0.433709 0.615485 0.250000
O O18 0.500000 0.553316 0.139060
#
# Coordination Sequence:
#
# PCOD9472236 Si02
#       7
#    16  16  16  16  16  16  16
#     4  11  21  35  59  80 112 148 185 227 283 337
#     4  10  20  34  52  80 111 144 177 222 272 328
#     4  10  21  35  54  82 111 146 185 228 274 330
#     4   9  20  35  56  80 110 148 183 226 275 323
#     4  10  21  37  57  84 113 144 186 233 281 331
#     4  10  20  36  56  81 112 144 184 224 270 330
#     4  10  23  40  56  79 110 145 192 238 276 326
#
# _framework density 17.946876
#
# number of rings (size 3 to 8) (size 9 to 14) (size 15 to 20)
#    0.000    2.000    1.429    1.714    2.000    3.714 
#    0.000    2.143    0.000    0.000    0.000   14.000 
#    0.000    0.000    0.000    0.000    0.000    0.000 
#
# Total GULP energy -312036.234676 kJ/mol
# GULP energy per Si atom -5572.075619 kJ/mol
# Density = 1.790603 g / cm^3
# Si number density = 17.946876 Si / 1000 Ang^3
#
#
#
# Elastic Constant Matrix: (Units=GPa)
#
#
# Indices 1 2 3 4 5 6 
#
# 1 99.0551 29.6509 28.9357 0.0000 0.0000 0.0000
# 2 29.6509 69.8817 25.7613 0.0000 0.0000 0.0000
# 3 28.9357 25.7613 56.5528 0.0000 0.0000 0.0000
# 4 0.0000 0.0000 0.0000 24.4083 0.0000 0.0000
# 5 0.0000 0.0000 0.0000 0.0000 246.5003 0.0000
# 6 0.0000 0.0000 0.0000 0.0000 0.0000 27.3359
#
#
#
# Elastic Compliance Matrix: (Units=1/GPa)
#
#
# Indices 1 2 3 4 5 6 
#
# 1 0.012565 -0.003559 -0.004808 0.000000 0.000000 0.000000
# 2 -0.003559 0.018206 -0.006472 0.000000 0.000000 0.000000
# 3 -0.004808 -0.006472 0.023091 0.000000 0.000000 0.000000
# 4 0.000000 0.000000 0.000000 0.040970 0.000000 0.000000
# 5 0.000000 0.000000 0.000000 0.000000 0.004057 0.000000
# 6 0.000000 0.000000 0.000000 0.000000 0.000000 0.036582
#
#
# Mechanical properties :
#
#
# Convention : Reuss Voigt Hill
#
# Bulk Modulus (GPa) = 41.35024 43.79839 42.57431
# Shear Modulus (GPa) = 28.86668 69.05833 48.96251
#
# Velocity S-wave (km/s) = 4.01490 6.20990 5.22888
# Velocity P-wave (km/s) = 6.67705 8.71060 7.76072
#
# Compressibility (1/GPa) = 0.02418366
#
# Stress axis : x y z
#
# Youngs Moduli (GPa) = 79.58482 54.92709 43.30714
#
# Poissons Ratio (x) = 0.19549 0.20821
# Poissons Ratio (y) = 0.28325 0.28030
# Poissons Ratio (z) = 0.38263 0.35550
#
# Static dielectric constant tensor:
#      x y z
#    x 1.643780 0.000000 0.000000 
#    y 0.000000 1.598380 0.000000 
#    z 0.000000 0.000000 1.642530 
# 
# From -- ./inp_files/36876.got.cif
#   From: 2010.05.17/outbox.cif.g08.bks.cpg/sg63_19_cif.got.tgz:36876.got - 2010.06.03 15:47:04.
