data_PCOD9472283
_publ_section_title
;
Structure prediction by ZEFSAII (Michael W. Deem and Ramdas Pophale) SiO2 
 PCOD9472283
Probable space group: C M C M
;
_chemical_formula_sum "Si O2"
_cell_formula_units_Z 112
_cell_length_a 14.935760
_cell_length_b 25.717737
_cell_length_c 15.264459
_cell_angle_alpha 90.000000
_cell_angle_beta 90.000000
_cell_angle_gamma 90.000000
_cell_volume 5863.291604
_symmetry_space_group_name_H-M "C M C M"
_symmetry_group_IT_number 63
_symmetry_cell_setting 'orthorhombic'
loop_
_space_group_symop_operation_xyz
x,y,z
-x,-y,1/2+z
x,-y,-z
-x,y,1/2-z
-x,-y,-z
x,y,1/2-z
-x,y,z
x,-y,1/2+z
1/2+x,1/2+y,z
1/2-x,1/2-y,1/2+z
1/2+x,1/2-y,-z
1/2-x,1/2+y,1/2-z
1/2-x,1/2-y,-z
1/2+x,1/2+y,1/2-z
1/2-x,1/2+y,z
1/2+x,1/2-y,1/2+z
loop_
_atom_site_type_symbol
_atom_site_label
_atom_site_fract_x
_atom_site_fract_y
_atom_site_fract_z
Si Si1 0.393970 0.234261 0.981367
Si Si2 0.601297 0.338571 0.063571
Si Si3 0.401870 0.543493 0.925925
Si Si4 0.212591 0.337910 0.147643
Si Si5 0.710093 0.954031 0.147176
Si Si6 0.102913 0.553317 0.143026
Si Si7 0.391077 0.169095 0.150224
O O1 0.500000 0.224166 0.968506
O O2 0.337544 0.205279 0.908302
O O3 0.380779 0.296042 0.988911
O O4 0.367360 0.210542 0.076263
O O5 0.500000 0.327652 0.097076
O O6 0.680523 0.333482 0.133523
O O7 0.602922 0.398407 0.033937
O O8 0.500000 0.539563 0.882493
O O9 0.396605 0.500000 0.000000
O O10 0.315990 0.538356 0.865033
O O11 0.191389 0.333934 0.250000
O O12 0.186790 0.396157 0.113827
O O13 0.689322 0.952294 0.250000
O O14 0.658955 0.004100 0.110335
O O15 0.102673 0.552719 0.250000
O O16 0.138091 0.611008 0.121423
O O17 0.000000 0.548580 0.114151
O O18 0.360554 0.180138 0.250000
O O19 0.500000 0.167117 0.153657
#
# Coordination Sequence:
#
# PCOD9472283 Si02
#       7
#    16  16  16  16  16  16  16
#     4  10  20  34  53  77 107 140 170 204 250 305
#     4   9  19  36  56  75  96 127 169 218 266 304
#     4   9  18  33  53  74  94 120 157 206 264 314
#     4  10  21  35  51  75 107 139 172 210 250 299
#     4   9  18  31  48  72  99 131 171 208 245 292
#     4   8  14  26  44  67  99 135 166 201 245 289
#     4   8  15  29  49  74 103 134 171 214 254 293
#
# _framework density 19.101897999999998
#
# number of rings (size 3 to 8) (size 9 to 14) (size 15 to 20)
#    0.000    3.000    0.000    1.286    0.000    4.286 
#    0.000    5.714    0.000    3.857    0.000    4.000 
#    0.000    0.000    0.000    0.000    0.000    0.000 
#
# Total GULP energy -311970.702072 kJ/mol
# GULP energy per Si atom -5570.905394 kJ/mol
# Density = 1.905842 g / cm^3
# Si number density = 19.101898 Si / 1000 Ang^3
#
#
#
# Elastic Constant Matrix: (Units=GPa)
#
#
# Indices 1 2 3 4 5 6 
#
# 1 44.5907 35.2057 10.1309 0.0000 0.0000 0.0000
# 2 35.2057 97.1701 27.1706 0.0000 0.0000 0.0000
# 3 10.1309 27.1706 50.6760 0.0000 0.0000 0.0000
# 4 0.0000 0.0000 0.0000 16.9372 0.0000 0.0000
# 5 0.0000 0.0000 0.0000 0.0000 11.9174 0.0000
# 6 0.0000 0.0000 0.0000 0.0000 0.0000 9.6732
#
#
#
# Elastic Compliance Matrix: (Units=1/GPa)
#
#
# Indices 1 2 3 4 5 6 
#
# 1 0.031414 -0.011323 -0.000209 0.000000 0.000000 0.000000
# 2 -0.011323 0.016188 -0.006416 0.000000 0.000000 0.000000
# 3 -0.000209 -0.006416 0.023215 0.000000 0.000000 0.000000
# 4 0.000000 0.000000 0.000000 0.059042 0.000000 0.000000
# 5 0.000000 0.000000 0.000000 0.000000 0.083911 0.000000
# 6 0.000000 0.000000 0.000000 0.000000 0.000000 0.103378
#
#
# Mechanical properties :
#
#
# Convention : Reuss Voigt Hill
#
# Bulk Modulus (GPa) = 28.63635 37.49459 33.06547
# Shear Modulus (GPa) = 13.71057 15.70086 14.70571
#
# Velocity S-wave (km/s) = 2.68201 2.87008 2.77764
# Velocity P-wave (km/s) = 4.96133 5.53665 5.25687
#
# Compressibility (1/GPa) = 0.03492065
#
# Stress axis : x y z
#
# Youngs Moduli (GPa) = 31.83344 61.77579 43.07598
#
# Poissons Ratio (x) = 0.69949 0.00901
# Poissons Ratio (y) = 0.36045 0.27636
# Poissons Ratio (z) = 0.00666 0.39633
#
# Static dielectric constant tensor:
#      x y z
#    x 1.683090 0.000000 0.000000 
#    y 0.000000 1.711340 0.000000 
#    z 0.000000 0.000000 1.638310 
# 
# From -- ./inp_files/32544.got.cif
#   From: 2010.05.17/outbox.cif.g08.bks.cpg/sg63_17_cif.got.tgz:32544.got - 2010.06.03 15:47:04.
