data_PCOD9472262
_publ_section_title
;
Structure prediction by ZEFSAII (Michael W. Deem and Ramdas Pophale) SiO2 
 PCOD9472262
Probable space group: C M C M
;
_chemical_formula_sum "Si O2"
_cell_formula_units_Z 64
_cell_length_a 27.730374
_cell_length_b 11.589098
_cell_length_c 8.708915
_cell_angle_alpha 90.000000
_cell_angle_beta 90.000000
_cell_angle_gamma 90.000000
_cell_volume 2798.784204
_symmetry_space_group_name_H-M "C M C M"
_symmetry_group_IT_number 63
_symmetry_cell_setting 'orthorhombic'
loop_
_space_group_symop_operation_xyz
x,y,z
-x,-y,1/2+z
x,-y,-z
-x,y,1/2-z
-x,-y,-z
x,y,1/2-z
-x,y,z
x,-y,1/2+z
1/2+x,1/2+y,z
1/2-x,1/2-y,1/2+z
1/2+x,1/2-y,-z
1/2-x,1/2+y,1/2-z
1/2-x,1/2-y,-z
1/2+x,1/2+y,1/2-z
1/2-x,1/2+y,z
1/2+x,1/2-y,1/2+z
loop_
_atom_site_type_symbol
_atom_site_label
_atom_site_fract_x
_atom_site_fract_y
_atom_site_fract_z
Si Si1 0.086822 0.619567 0.572270
Si Si2 0.317705 0.151317 0.421190
Si Si3 0.941938 0.124190 0.071098
Si Si4 0.295078 0.385552 0.573774
O O1 0.066946 0.500000 0.500000
O O2 0.073119 0.620491 0.750000
O O3 0.144635 0.611240 0.548635
O O4 0.074240 0.748664 0.508470
O O5 0.337851 0.133087 0.250000
O O6 0.309774 0.284645 0.460503
O O7 0.263204 0.105664 0.424545
O O8 0.927373 0.121802 0.250000
O O9 0.000000 0.126445 0.062151
O O10 0.927030 0.000000 0.000000
O O11 0.315344 0.500000 0.500000
O O12 0.309831 0.364343 0.750000
#
# Coordination Sequence:
#
# PCOD9472262 Si02
#       4
#    16  16  16  16
#     4  11  23  38  58  86 120 155 193 238 287 344
#     4  10  21  36  54  77 108 146 188 235 287 341
#     4   9  20  40  64  89 117 150 189 234 285 342
#     4  10  20  34  53  76 104 142 189 239 288 340
#
# _framework density 22.867072
#
# number of rings (size 3 to 8) (size 9 to 14) (size 15 to 20)
#    0.000    2.000    0.000    3.000    0.000    8.500 
#    0.000    2.500    0.000    0.000    0.000    0.000 
#    0.000    0.000    0.000    0.000    0.000    0.000 
#
# Total GULP energy -178465.904513 kJ/mol
# GULP energy per Si atom -5577.059516 kJ/mol
# Density = 2.281503 g / cm^3
# Si number density = 22.867072 Si / 1000 Ang^3
#
#
#
# Elastic Constant Matrix: (Units=GPa)
#
#
# Indices 1 2 3 4 5 6 
#
# 1 69.6645 20.8048 -6.4823 0.0000 0.0000 0.0000
# 2 20.8048 191.3146 58.6288 0.0000 0.0000 0.0000
# 3 -6.4823 58.6288 67.4252 0.0000 0.0000 0.0000
# 4 0.0000 0.0000 0.0000 37.0630 0.0000 0.0000
# 5 0.0000 0.0000 0.0000 0.0000 20.2614 0.0000
# 6 0.0000 0.0000 0.0000 0.0000 0.0000 -87.9784
#
#
#
# Elastic Compliance Matrix: (Units=1/GPa)
#
#
# Indices 1 2 3 4 5 6 
#
# 1 0.015611 -0.002941 0.004058 0.000000 0.000000 0.000000
# 2 -0.002941 0.007680 -0.006961 0.000000 0.000000 0.000000
# 3 0.004058 -0.006961 0.021274 0.000000 0.000000 0.000000
# 4 0.000000 0.000000 0.000000 0.026981 0.000000 0.000000
# 5 0.000000 0.000000 0.000000 0.000000 0.049355 0.000000
# 6 0.000000 0.000000 0.000000 0.000000 0.000000 -0.011366
#
#
# Mechanical properties :
#
#
# Convention : Reuss Voigt Hill
#
# Bulk Modulus (GPa) = 30.41623 52.70076 41.55850
# Shear Modulus (GPa) = 37.82694 10.89941 24.36318
#
# Velocity S-wave (km/s) = 4.07161 2.18558 3.26763
# Velocity P-wave (km/s) = 5.95266 5.42823 5.69648
#
# Compressibility (1/GPa) = 0.03287718
#
# Stress axis : x y z
#
# Youngs Moduli (GPa) = 64.05930 130.20809 47.00540
#
# Poissons Ratio (x) = 0.38298 -0.19077
# Poissons Ratio (y) = 0.18842 0.32720
# Poissons Ratio (z) = -0.25998 0.90636
#
# Static dielectric constant tensor:
#      x y z
#    x 1.867920 0.000000 0.000000 
#    y 0.000000 1.816070 0.000000 
#    z 0.000000 0.000000 1.800820 
# 
# From -- ./inp_files/13706.got.cif
#   From: 2010.05.17/outbox.cif.g08.bks.cpg/sg63_7_cif.got.tgz:13706.got - 2010.06.03 15:47:04.
