data_PCOD9472198
_publ_section_title
;
Structure prediction by ZEFSAII (Michael W. Deem and Ramdas Pophale) SiO2 
 PCOD9472198
Probable space group: C M C M
;
_chemical_formula_sum "Si O2"
_cell_formula_units_Z 64
_cell_length_a 7.547536
_cell_length_b 18.727990
_cell_length_c 21.502093
_cell_angle_alpha 90.000000
_cell_angle_beta 90.000000
_cell_angle_gamma 90.000000
_cell_volume 3039.324689
_symmetry_space_group_name_H-M "C M C M"
_symmetry_group_IT_number 63
_symmetry_cell_setting 'orthorhombic'
loop_
_space_group_symop_operation_xyz
x,y,z
-x,-y,1/2+z
x,-y,-z
-x,y,1/2-z
-x,-y,-z
x,y,1/2-z
-x,y,z
x,-y,1/2+z
1/2+x,1/2+y,z
1/2-x,1/2-y,1/2+z
1/2+x,1/2-y,-z
1/2-x,1/2+y,1/2-z
1/2-x,1/2-y,-z
1/2+x,1/2+y,1/2-z
1/2-x,1/2+y,z
1/2+x,1/2-y,1/2+z
loop_
_atom_site_type_symbol
_atom_site_label
_atom_site_fract_x
_atom_site_fract_y
_atom_site_fract_z
Si Si1 0.716230 0.458360 0.319257
Si Si2 0.715937 0.292894 0.180000
Si Si3 0.708291 0.460955 0.560551
Si Si4 0.210727 0.295734 0.561466
O O1 0.775649 0.479286 0.250000
O O2 0.500000 0.460075 0.318047
O O3 0.766237 0.375666 0.330265
O O4 0.781134 0.508296 0.374755
O O5 0.771931 0.271907 0.250000
O O6 0.500000 0.291355 0.179618
O O7 0.779306 0.243617 0.123654
O O8 0.785314 0.500000 0.500000
O O9 0.500000 0.479520 0.561865
O O10 0.722631 0.376226 0.555577
O O11 0.250000 0.250000 0.500000
O O12 0.000000 0.300036 0.567484
#
# Coordination Sequence:
#
# PCOD9472198 Si02
#       4
#    16  16  16  16
#     4   8  14  27  49  74  98 127 165 207 250 299
#     4   8  15  30  52  76 101 132 171 211 252 301
#     4  10  20  34  52  74 101 134 172 212 255 304
#     4  11  22  35  53  77 105 137 173 214 259 306
#
# _framework density 21.057307000000002
#
# number of rings (size 3 to 8) (size 9 to 14) (size 15 to 20)
#    0.000    2.750    0.000    3.750    0.000    5.500 
#    0.000    0.000    0.000    2.250    0.000    7.000 
#    0.000    0.000    0.000    0.000    0.000    0.000 
#
# Total GULP energy -178635.219651 kJ/mol
# GULP energy per Si atom -5582.350614 kJ/mol
# Density = 2.100938 g / cm^3
# Si number density = 21.057307 Si / 1000 Ang^3
#
#
#
# Elastic Constant Matrix: (Units=GPa)
#
#
# Indices 1 2 3 4 5 6 
#
# 1 47.5685 -17.9251 -2.0894 0.0000 0.0000 0.0000
# 2 -17.9251 125.8028 130.4634 0.0000 0.0000 0.0000
# 3 -2.0894 130.4634 228.1851 0.0000 0.0000 0.0000
# 4 0.0000 0.0000 0.0000 48.2001 0.0000 0.0000
# 5 0.0000 0.0000 0.0000 0.0000 -3.8434 0.0000
# 6 0.0000 0.0000 0.0000 0.0000 0.0000 11.6059
#
#
#
# Elastic Compliance Matrix: (Units=1/GPa)
#
#
# Indices 1 2 3 4 5 6 
#
# 1 0.023762 0.007763 -0.004221 0.000000 0.000000 0.000000
# 2 0.007763 0.022063 -0.012543 0.000000 0.000000 0.000000
# 3 -0.004221 -0.012543 0.011515 0.000000 0.000000 0.000000
# 4 0.000000 0.000000 0.000000 0.020747 0.000000 0.000000
# 5 0.000000 0.000000 0.000000 0.000000 -0.260189 0.000000
# 6 0.000000 0.000000 0.000000 0.000000 0.000000 0.086163
#
#
# Mechanical properties :
#
#
# Convention : Reuss Voigt Hill
#
# Bulk Modulus (GPa) = 25.42053 69.16157 47.29105
# Shear Modulus (GPa) = -77.13334 30.59970 -23.26682
#
# Velocity S-wave (km/s) = -6.05885 3.81617 -3.32765
# Velocity P-wave (km/s) = 6.07026 7.23418 2.78256
#
# Compressibility (1/GPa) = 0.03933828
#
# Stress axis : x y z
#
# Youngs Moduli (GPa) = 42.08359 45.32446 86.84054
#
# Poissons Ratio (x) = -0.35186 0.36654
# Poissons Ratio (y) = -0.32670 1.08927
# Poissons Ratio (z) = 0.17763 0.56852
#
# Static dielectric constant tensor:
#      x y z
#    x 1.797520 0.000000 0.000000 
#    y 0.000000 1.661490 0.000000 
#    z 0.000000 0.000000 1.791320 
# 
# From -- ./inp_files/50310.got.cif
#   From: 2010.05.17/outbox.cif.g08.bks.cpg/sg63_26_cif.got.tgz:50310.got - 2010.06.03 15:47:04.
