data_PCOD9472056
_publ_section_title
;
Structure prediction by ZEFSAII (Michael W. Deem and Ramdas Pophale) SiO2 
 PCOD9472056
Probable space group: C M C M
;
_chemical_formula_sum "Si O2"
_cell_formula_units_Z 112
_cell_length_a 27.277228
_cell_length_b 15.254293
_cell_length_c 13.852800
_cell_angle_alpha 90.000000
_cell_angle_beta 90.000000
_cell_angle_gamma 90.000000
_cell_volume 5764.078435
_symmetry_space_group_name_H-M "C M C M"
_symmetry_group_IT_number 63
_symmetry_cell_setting 'orthorhombic'
loop_
_space_group_symop_operation_xyz
x,y,z
-x,-y,1/2+z
x,-y,-z
-x,y,1/2-z
-x,-y,-z
x,y,1/2-z
-x,y,z
x,-y,1/2+z
1/2+x,1/2+y,z
1/2-x,1/2-y,1/2+z
1/2+x,1/2-y,-z
1/2-x,1/2+y,1/2-z
1/2-x,1/2-y,-z
1/2+x,1/2+y,1/2-z
1/2-x,1/2+y,z
1/2+x,1/2-y,1/2+z
loop_
_atom_site_type_symbol
_atom_site_label
_atom_site_fract_x
_atom_site_fract_y
_atom_site_fract_z
Si Si1 0.749871 0.960878 0.866440
Si Si2 0.313477 0.191055 0.855419
Si Si3 0.648228 0.620300 0.143288
Si Si4 0.945629 0.105290 0.489384
Si Si5 0.212131 0.847576 0.364021
Si Si6 0.390719 0.732973 0.867779
Si Si7 0.146190 0.408345 0.962492
O O1 0.747619 0.951649 0.750000
O O2 0.799862 0.912314 0.898575
O O3 0.697030 0.931193 0.905789
O O4 0.763433 0.060909 0.894298
O O5 0.312444 0.145638 0.750000
O O6 0.344910 0.277004 0.847108
O O7 0.257244 0.218652 0.876482
O O8 0.336095 0.135515 0.939058
O O9 0.643257 0.578539 0.250000
O O10 0.599402 0.609299 0.083961
O O11 0.930028 0.168698 0.579662
O O12 0.000000 0.134705 0.456956
O O13 0.949223 0.000000 0.500000
O O14 0.202595 0.858025 0.250000
O O15 0.161239 0.811045 0.401343
O O16 0.395200 0.732235 0.750000
O O17 0.385560 0.834262 0.905372
O O18 0.122593 0.500000 0.000000
#
# Coordination Sequence:
#
# PCOD9472056 Si02
#       7
#    16  16  16  16  16  16  16
#     4  10  20  33  52  85 125 166 210 251 299 366
#     4  10  20  35  52  79 118 158 201 246 295 354
#     4  10  21  38  59  83 117 161 203 248 302 364
#     4  11  25  43  66  96 124 152 199 260 322 387
#     4   9  18  33  52  81 123 164 202 248 293 353
#     4  11  24  42  64  91 127 171 217 261 318 384
#     4  12  23  35  58  91 126 173 216 260 307 361
#
# _framework density 19.430688
#
# number of rings (size 3 to 8) (size 9 to 14) (size 15 to 20)
#    0.000    1.571    2.857    2.143    2.000    6.857 
#    0.000    1.429    0.000    0.429    0.000    0.000 
#    0.000    0.000    0.000    0.000    0.000    0.000 
#
# Total GULP energy -311946.240552 kJ/mol
# GULP energy per Si atom -5570.468581 kJ/mol
# Density = 1.938646 g / cm^3
# Si number density = 19.430688 Si / 1000 Ang^3
#
#
#
# Elastic Constant Matrix: (Units=GPa)
#
#
# Indices 1 2 3 4 5 6 
#
# 1 64.5681 40.9339 25.3482 0.0000 0.0000 0.0000
# 2 40.9339 92.8605 26.3076 0.0000 0.0000 0.0000
# 3 25.3482 26.3076 85.3585 0.0000 0.0000 0.0000
# 4 0.0000 0.0000 0.0000 26.8883 0.0000 0.0000
# 5 0.0000 0.0000 0.0000 0.0000 -9.8950 0.0000
# 6 0.0000 0.0000 0.0000 0.0000 0.0000 -6.1135
#
#
#
# Elastic Compliance Matrix: (Units=1/GPa)
#
#
# Indices 1 2 3 4 5 6 
#
# 1 0.022677 -0.008862 -0.004003 0.000000 0.000000 0.000000
# 2 -0.008862 0.015263 -0.002072 0.000000 0.000000 0.000000
# 3 -0.004003 -0.002072 0.013543 0.000000 0.000000 0.000000
# 4 0.000000 0.000000 0.000000 0.037191 0.000000 0.000000
# 5 0.000000 0.000000 0.000000 0.000000 -0.101062 0.000000
# 6 0.000000 0.000000 0.000000 0.000000 0.000000 -0.163572
#
#
# Mechanical properties :
#
#
# Convention : Reuss Voigt Hill
#
# Bulk Modulus (GPa) = 46.27988 47.55185 46.91587
# Shear Modulus (GPa) = -36.00160 12.18912 -11.90624
#
# Velocity S-wave (km/s) = -4.30911 2.50734 -2.47807
# Velocity P-wave (km/s) = 0.94248 5.73655 4.00123
#
# Compressibility (1/GPa) = 0.02160766
#
# Stress axis : x y z
#
# Youngs Moduli (GPa) = 44.09664 65.51987 73.84084
#
# Poissons Ratio (x) = 0.58067 0.29558
# Poissons Ratio (y) = 0.39080 0.15301
# Poissons Ratio (z) = 0.17652 0.13577
#
# Static dielectric constant tensor:
#      x y z
#    x 1.664000 0.000000 0.000000 
#    y 0.000000 1.779300 0.000000 
#    z 0.000000 0.000000 1.805650 
# 
# From -- ./inp_files/36897.got.cif
#   From: 2010.05.17/outbox.cif.g08.bks.cpg/sg63_19_cif.got.tgz:36897.got - 2010.06.03 15:47:04.
