data_PCOD9472282
_publ_section_title
;
Structure prediction by ZEFSAII (Michael W. Deem and Ramdas Pophale) SiO2 
 PCOD9472282
Probable space group: C M C M
;
_chemical_formula_sum "Si O2"
_cell_formula_units_Z 112
_cell_length_a 13.835364
_cell_length_b 35.144488
_cell_length_c 11.485361
_cell_angle_alpha 90.000000
_cell_angle_beta 90.000000
_cell_angle_gamma 90.000000
_cell_volume 5584.604997
_symmetry_space_group_name_H-M "C M C M"
_symmetry_group_IT_number 63
_symmetry_cell_setting 'orthorhombic'
loop_
_space_group_symop_operation_xyz
x,y,z
-x,-y,1/2+z
x,-y,-z
-x,y,1/2-z
-x,-y,-z
x,y,1/2-z
-x,y,z
x,-y,1/2+z
1/2+x,1/2+y,z
1/2-x,1/2-y,1/2+z
1/2+x,1/2-y,-z
1/2-x,1/2+y,1/2-z
1/2-x,1/2-y,-z
1/2+x,1/2+y,1/2-z
1/2-x,1/2+y,z
1/2+x,1/2-y,1/2+z
loop_
_atom_site_type_symbol
_atom_site_label
_atom_site_fract_x
_atom_site_fract_y
_atom_site_fract_z
Si Si1 0.384512 0.976178 0.616437
Si Si2 0.613615 0.258607 0.117461
Si Si3 0.610216 0.332969 0.542319
Si Si4 0.388451 0.103615 0.501894
Si Si5 0.884178 0.982092 0.122418
Si Si6 0.318532 0.820791 0.619574
Si Si7 0.810641 0.103719 0.622692
O O1 0.350969 0.985336 0.750000
O O2 0.500000 0.981836 0.620651
O O3 0.367895 0.931606 0.586152
O O4 0.353242 0.000000 0.500000
O O5 0.648744 0.265281 0.250000
O O6 0.500000 0.249250 0.121861
O O7 0.620582 0.296836 0.043472
O O8 0.664581 0.221043 0.066540
O O9 0.500000 0.333212 0.588678
O O10 0.704148 0.329272 0.622776
O O11 0.632006 0.371159 0.469994
O O12 0.500000 0.099437 0.541079
O O13 0.372032 0.144692 0.443657
O O14 0.303764 0.102065 0.596995
O O15 0.856504 0.999009 0.250000
O O16 0.848609 0.938980 0.121051
O O17 0.000000 0.982639 0.120701
O O18 0.852190 0.000000 0.000000
O O19 0.357529 0.818569 0.750000
O O20 0.827913 0.120596 0.750000
#
# Coordination Sequence:
#
# PCOD9472282 Si02
#       7
#    16  16  16  16  16  16  16
#     4   9  18  33  53  76 102 136 179 224 270 322
#     4   9  17  30  52  80 105 134 175 219 263 316
#     4  10  20  34  53  78 108 140 176 221 271 321
#     4  10  21  36  54  77 107 143 181 224 274 327
#     4   9  18  35  59  84 110 143 184 230 281 336
#     4  10  20  34  53  77 106 141 181 223 265 316
#     4  10  21  36  55  80 108 140 179 223 273 330
#
# _framework density 20.055133000000001
#
# number of rings (size 3 to 8) (size 9 to 14) (size 15 to 20)
#    0.000    2.429    0.000    2.143    0.000    4.571 
#    0.000    6.429    0.000    3.429    0.000    4.000 
#    0.000    0.000    0.000    0.000    0.000    0.143 
#
# Total GULP energy -311962.544096 kJ/mol
# GULP energy per Si atom -5570.759716 kJ/mol
# Density = 2.000949 g / cm^3
# Si number density = 20.055133 Si / 1000 Ang^3
#
#
#
# Elastic Constant Matrix: (Units=GPa)
#
#
# Indices 1 2 3 4 5 6 
#
# 1 85.9218 15.9112 2.2468 0.0000 0.0000 0.0000
# 2 15.9112 76.4509 40.9970 0.0000 0.0000 0.0000
# 3 2.2468 40.9970 86.0540 0.0000 0.0000 0.0000
# 4 0.0000 0.0000 0.0000 -17.7867 0.0000 0.0000
# 5 0.0000 0.0000 0.0000 0.0000 -82.1258 0.0000
# 6 0.0000 0.0000 0.0000 0.0000 0.0000 22.3866
#
#
#
# Elastic Compliance Matrix: (Units=1/GPa)
#
#
# Indices 1 2 3 4 5 6 
#
# 1 0.012196 -0.003180 0.001197 0.000000 0.000000 0.000000
# 2 -0.003180 0.018398 -0.008682 0.000000 0.000000 0.000000
# 3 0.001197 -0.008682 0.015726 0.000000 0.000000 0.000000
# 4 0.000000 0.000000 0.000000 -0.056222 0.000000 0.000000
# 5 0.000000 0.000000 0.000000 0.000000 -0.012176 0.000000
# 6 0.000000 0.000000 0.000000 0.000000 0.000000 0.044670
#
#
# Mechanical properties :
#
#
# Convention : Reuss Voigt Hill
#
# Bulk Modulus (GPa) = 40.01789 40.74851 40.38320
# Shear Modulus (GPa) = 95.69229 -2.88707 46.40261
#
# Velocity S-wave (km/s) = 6.91507 -1.20112 4.81537
# Velocity P-wave (km/s) = 9.15177 4.29404 7.14820
#
# Compressibility (1/GPa) = 0.02498882
#
# Stress axis : x y z
#
# Youngs Moduli (GPa) = 81.99362 54.35441 63.59098
#
# Poissons Ratio (x) = 0.17284 -0.07609
# Poissons Ratio (y) = 0.26073 0.55209
# Poissons Ratio (z) = -0.09811 0.47190
#
# Static dielectric constant tensor:
#      x y z
#    x 1.704770 0.000000 0.000000 
#    y 0.000000 1.695410 0.000000 
#    z 0.000000 0.000000 1.751770 
# 
# From -- ./inp_files/20060.got.cif
#   From: 2010.05.17/outbox.cif.g08.bks.cpg/sg63_11_cif.got.tgz:20060.got - 2010.06.03 15:47:04.
