data_PCOD9472454
_publ_section_title
;
Structure prediction by ZEFSAII (Michael W. Deem and Ramdas Pophale) SiO2 
 PCOD9472454
Probable space group: C M C M
;
_chemical_formula_sum "Si O2"
_cell_formula_units_Z 112
_cell_length_a 13.658405
_cell_length_b 19.770502
_cell_length_c 22.408086
_cell_angle_alpha 90.000000
_cell_angle_beta 90.000000
_cell_angle_gamma 90.000000
_cell_volume 6050.934415
_symmetry_space_group_name_H-M "C M C M"
_symmetry_group_IT_number 63
_symmetry_cell_setting 'orthorhombic'
loop_
_space_group_symop_operation_xyz
x,y,z
-x,-y,1/2+z
x,-y,-z
-x,y,1/2-z
-x,-y,-z
x,y,1/2-z
-x,y,z
x,-y,1/2+z
1/2+x,1/2+y,z
1/2-x,1/2-y,1/2+z
1/2+x,1/2-y,-z
1/2-x,1/2+y,1/2-z
1/2-x,1/2-y,-z
1/2+x,1/2+y,1/2-z
1/2-x,1/2+y,z
1/2+x,1/2-y,1/2+z
loop_
_atom_site_type_symbol
_atom_site_label
_atom_site_fract_x
_atom_site_fract_y
_atom_site_fract_z
Si Si1 0.115635 0.229909 0.178969
Si Si2 0.718812 0.868352 0.182176
Si Si3 0.724950 0.684030 0.075784
Si Si4 0.884585 0.507780 0.182230
Si Si5 0.731858 0.967572 0.560049
Si Si6 0.886470 0.921527 0.096800
Si Si7 0.110177 0.776635 0.464677
O O1 0.127469 0.220823 0.250000
O O2 0.167099 0.300340 0.159956
O O3 0.172432 0.175626 0.139182
O O4 0.000000 0.230791 0.166584
O O5 0.747398 0.854842 0.250000
O O6 0.814399 0.895716 0.148997
O O7 0.638559 0.927721 0.181369
O O8 0.746477 0.610739 0.048916
O O9 0.822195 0.729504 0.076361
O O10 0.652676 0.723847 0.031275
O O11 0.853021 0.530900 0.250000
O O12 0.829104 0.532051 0.122328
O O13 0.000000 0.521097 0.177361
O O14 0.684379 0.000000 0.500000
O O15 0.829277 0.013601 0.570350
O O16 0.888673 0.855021 0.055125
O O17 0.000000 0.936923 0.112243
O O18 0.000000 0.751760 0.462682
#
# Coordination Sequence:
#
# PCOD9472454 Si02
#       7
#    16  16  16  16  16  16  16
#     4  10  20  34  55  83 112 145 190 240 291 345
#     4   9  17  33  56  84 114 144 186 239 289 340
#     4  11  22  38  58  82 118 150 192 242 296 349
#     4   9  19  36  59  84 113 152 191 231 287 350
#     4  11  23  38  57  86 120 153 195 240 294 347
#     4  10  20  36  57  82 115 151 192 235 279 342
#     4  10  21  37  59  83 111 151 193 236 286 342
#
# _framework density 18.509537999999999
#
# number of rings (size 3 to 8) (size 9 to 14) (size 15 to 20)
#    0.000    2.000    2.857    0.857    0.000    4.857 
#    0.000    1.429    0.000    0.429    0.000    0.000 
#    0.000    0.000    0.000    0.000    0.000    0.000 
#
# Total GULP energy -311801.916118 kJ/mol
# GULP energy per Si atom -5567.891359 kJ/mol
# Density = 1.846741 g / cm^3
# Si number density = 18.509538 Si / 1000 Ang^3
#
#
#
# Elastic Constant Matrix: (Units=GPa)
#
#
# Indices 1 2 3 4 5 6 
#
# 1 121.0123 19.9539 49.1163 0.0000 0.0000 0.0000
# 2 19.9539 38.3265 11.0118 0.0000 0.0000 0.0000
# 3 49.1163 11.0118 89.3118 0.0000 0.0000 0.0000
# 4 0.0000 0.0000 0.0000 26.6731 0.0000 0.0000
# 5 0.0000 0.0000 0.0000 0.0000 22.5547 0.0000
# 6 0.0000 0.0000 0.0000 0.0000 0.0000 13.2604
#
#
#
# Elastic Compliance Matrix: (Units=1/GPa)
#
#
# Indices 1 2 3 4 5 6 
#
# 1 0.011264 -0.004235 -0.005673 0.000000 0.000000 0.000000
# 2 -0.004235 0.028642 -0.001203 0.000000 0.000000 0.000000
# 3 -0.005673 -0.001203 0.014465 0.000000 0.000000 0.000000
# 4 0.000000 0.000000 0.000000 0.037491 0.000000 0.000000
# 5 0.000000 0.000000 0.000000 0.000000 0.044337 0.000000
# 6 0.000000 0.000000 0.000000 0.000000 0.000000 0.075412
#
#
# Mechanical properties :
#
#
# Convention : Reuss Voigt Hill
#
# Bulk Modulus (GPa) = 31.10324 45.42385 38.26355
# Shear Modulus (GPa) = 20.44594 23.73556 22.09075
#
# Velocity S-wave (km/s) = 3.32718 3.58486 3.45842
# Velocity P-wave (km/s) = 5.62144 6.45980 6.05515
#
# Compressibility (1/GPa) = 0.03215099
#
# Stress axis : x y z
#
# Youngs Moduli (GPa) = 88.77632 34.91393 69.13429
#
# Poissons Ratio (x) = 0.14785 0.39217
# Poissons Ratio (y) = 0.37594 0.08314
# Poissons Ratio (z) = 0.50359 0.04199
#
# Static dielectric constant tensor:
#      x y z
#    x 1.624220 0.000000 0.000000 
#    y 0.000000 1.626450 0.000000 
#    z 0.000000 0.000000 1.692480 
# 
# From -- ./inp_files/61801.got.cif
#   From: 2010.05.17/outbox.cif.g08.bks.cpg/sg63_31_cif.got.tgz:61801.got - 2010.06.03 15:47:04.
