data_PCOD9472764
_publ_section_title
;
Structure prediction by ZEFSAII (Michael W. Deem and Ramdas Pophale) SiO2 
 PCOD9472764
Probable space group: C M C M
;
_chemical_formula_sum "Si O2"
_cell_formula_units_Z 64
_cell_length_a 10.458602
_cell_length_b 12.020354
_cell_length_c 22.334595
_cell_angle_alpha 90.000000
_cell_angle_beta 90.000000
_cell_angle_gamma 90.000000
_cell_volume 2807.818142
_symmetry_space_group_name_H-M "C M C M"
_symmetry_group_IT_number 63
_symmetry_cell_setting 'orthorhombic'
loop_
_space_group_symop_operation_xyz
x,y,z
-x,-y,1/2+z
x,-y,-z
-x,y,1/2-z
-x,-y,-z
x,y,1/2-z
-x,y,z
x,-y,1/2+z
1/2+x,1/2+y,z
1/2-x,1/2-y,1/2+z
1/2+x,1/2-y,-z
1/2-x,1/2+y,1/2-z
1/2-x,1/2-y,-z
1/2+x,1/2+y,1/2-z
1/2-x,1/2+y,z
1/2+x,1/2-y,1/2+z
loop_
_atom_site_type_symbol
_atom_site_label
_atom_site_fract_x
_atom_site_fract_y
_atom_site_fract_z
Si Si1 0.637708 0.235047 0.411604
Si Si2 0.500000 0.869462 0.177627
Si Si3 0.783959 0.925452 0.178427
Si Si4 0.500000 0.391023 0.677913
Si Si5 0.855628 0.887412 0.529610
O O1 0.500000 0.179191 0.403646
O O2 0.660043 0.321407 0.358203
O O3 0.757049 0.156606 0.422338
O O4 0.633549 0.303335 0.473985
O O5 0.500000 0.869813 0.250000
O O6 0.633695 0.928365 0.159961
O O7 0.500000 0.739070 0.156745
O O8 0.788454 0.905206 0.250000
O O9 0.875432 0.030839 0.166583
O O10 0.500000 0.376857 0.750000
O O11 0.000000 0.907393 0.552584
O O12 0.806488 0.000000 0.500000
#
# Coordination Sequence:
#
# PCOD9472764 Si02
#       5
#    16   8  16   8  16
#     4  10  20  35  56  84 114 145 190 241 291 354
#     4   9  20  36  57  84 115 160 207 240 287 351
#     4  10  20  36  58  87 122 158 197 245 297 356
#     4   9  18  36  59  80 115 160 197 240 289 343
#     4   9  20  38  59  81 108 148 193 240 295 349
#
# _framework density 22.793500000000002
#
# number of rings (size 3 to 8) (size 9 to 14) (size 15 to 20)
#    0.000    2.500    1.250    0.000    1.750    2.500 
#    0.000    1.250    5.500    7.500    0.000    0.000 
#    0.000    0.000    0.000    0.000    0.000    0.000 
#
# Total GULP energy -178748.474977 kJ/mol
# GULP energy per Si atom -5585.889843 kJ/mol
# Density = 2.274162 g / cm^3
# Si number density = 22.793500 Si / 1000 Ang^3
#
#
#
# Elastic Constant Matrix: (Units=GPa)
#
#
# Indices 1 2 3 4 5 6 
#
# 1 189.0436 68.2785 59.8813 0.0000 0.0000 0.0000
# 2 68.2785 71.1722 32.6008 0.0000 0.0000 0.0000
# 3 59.8813 32.6008 83.3603 0.0000 0.0000 0.0000
# 4 0.0000 0.0000 0.0000 43.0120 0.0000 0.0000
# 5 0.0000 0.0000 0.0000 0.0000 45.8852 0.0000
# 6 0.0000 0.0000 0.0000 0.0000 0.0000 52.6376
#
#
#
# Elastic Compliance Matrix: (Units=1/GPa)
#
#
# Indices 1 2 3 4 5 6 
#
# 1 0.008962 -0.006881 -0.003747 0.000000 0.000000 0.000000
# 2 -0.006881 0.022401 -0.003817 0.000000 0.000000 0.000000
# 3 -0.003747 -0.003817 0.016180 0.000000 0.000000 0.000000
# 4 0.000000 0.000000 0.000000 0.023249 0.000000 0.000000
# 5 0.000000 0.000000 0.000000 0.000000 0.021794 0.000000
# 6 0.000000 0.000000 0.000000 0.000000 0.000000 0.018998
#
#
# Mechanical properties :
#
#
# Convention : Reuss Voigt Hill
#
# Bulk Modulus (GPa) = 53.61254 73.89970 63.75612
# Shear Modulus (GPa) = 34.08514 40.49468 37.28991
#
# Velocity S-wave (km/s) = 3.87122 4.21953 4.04912
# Velocity P-wave (km/s) = 6.59953 7.49874 7.06346
#
# Compressibility (1/GPa) = 0.01865235
#
# Stress axis : x y z
#
# Youngs Moduli (GPa) = 111.58251 44.64161 61.80362
#
# Poissons Ratio (x) = 0.30720 0.23155
# Poissons Ratio (y) = 0.76785 0.23592
# Poissons Ratio (z) = 0.41805 0.17041
#
# Static dielectric constant tensor:
#      x y z
#    x 1.887800 0.000000 0.000000 
#    y 0.000000 1.806000 0.000000 
#    z 0.000000 0.000000 1.896410 
# 
# From -- ./inp_files/60884.got.cif
#   From: 2010.05.17/outbox.cif.g08.bks.cpg/sg63_31_cif.got.tgz:60884.got - 2010.06.03 15:47:04.
