data_PCOD9472408
_publ_section_title
;
Structure prediction by ZEFSAII (Michael W. Deem and Ramdas Pophale) SiO2 
 PCOD9472408
Probable space group: C M C M
;
_chemical_formula_sum "Si O2"
_cell_formula_units_Z 112
_cell_length_a 15.645105
_cell_length_b 20.003565
_cell_length_c 15.958659
_cell_angle_alpha 90.000000
_cell_angle_beta 90.000000
_cell_angle_gamma 90.000000
_cell_volume 4994.388005
_symmetry_space_group_name_H-M "C M C M"
_symmetry_group_IT_number 63
_symmetry_cell_setting 'orthorhombic'
loop_
_space_group_symop_operation_xyz
x,y,z
-x,-y,1/2+z
x,-y,-z
-x,y,1/2-z
-x,-y,-z
x,y,1/2-z
-x,y,z
x,-y,1/2+z
1/2+x,1/2+y,z
1/2-x,1/2-y,1/2+z
1/2+x,1/2-y,-z
1/2-x,1/2+y,1/2-z
1/2-x,1/2-y,-z
1/2+x,1/2+y,1/2-z
1/2-x,1/2+y,z
1/2+x,1/2-y,1/2+z
loop_
_atom_site_type_symbol
_atom_site_label
_atom_site_fract_x
_atom_site_fract_y
_atom_site_fract_z
Si Si1 0.404055 0.492143 0.344943
Si Si2 0.624414 0.145014 0.844521
Si Si3 0.182967 0.861612 0.378193
Si Si4 0.903807 0.803369 0.650883
Si Si5 0.406087 0.099620 0.031030
Si Si6 0.097557 0.276507 0.655784
Si Si7 0.784118 0.908657 0.934682
O O1 0.394111 0.517887 0.250000
O O2 0.500000 0.505859 0.373080
O O3 0.385475 0.413587 0.343624
O O4 0.337537 0.528031 0.404687
O O5 0.590310 0.131426 0.750000
O O6 0.724217 0.128545 0.839899
O O7 0.611092 0.224202 0.862745
O O8 0.594375 0.109072 0.930266
O O9 0.156816 0.785826 0.363237
O O10 0.193450 0.880269 0.474687
O O11 0.908890 0.812518 0.750000
O O12 0.823645 0.848012 0.621192
O O13 0.000000 0.820817 0.616024
O O14 0.500000 0.070676 0.054270
O O15 0.399381 0.169902 0.081411
O O16 0.315692 0.069692 0.061832
O O17 0.116451 0.303937 0.750000
O O18 0.000000 0.251908 0.657749
#
# Coordination Sequence:
#
# PCOD9472408 Si02
#       7
#    16  16  16  16  16  16  16
#     4  11  24  41  61  85 115 153 195 239 290 350
#     4  10  20  35  58  85 116 155 194 239 296 350
#     4  11  22  36  56  84 117 151 192 240 289 348
#     4  10  20  34  55  86 123 160 197 239 289 346
#     4  10  22  39  59  87 119 152 197 247 295 352
#     4  10  20  34  54  82 118 157 192 232 286 345
#     4  11  23  37  57  84 115 154 195 240 295 349
#
# _framework density 22.425170000000001
#
# number of rings (size 3 to 8) (size 9 to 14) (size 15 to 20)
#    0.000    1.571    0.000    5.143    0.000   11.714 
#    0.000    0.000    0.000    7.714    0.000    0.000 
#    0.000    0.000    0.000    0.000    0.000    0.000 
#
# Total GULP energy -312540.232357 kJ/mol
# GULP energy per Si atom -5581.075578 kJ/mol
# Density = 2.237413 g / cm^3
# Si number density = 22.425170 Si / 1000 Ang^3
#
#
#
# Elastic Constant Matrix: (Units=GPa)
#
#
# Indices 1 2 3 4 5 6 
#
# 1 160.7036 23.1706 53.4404 0.0000 0.0000 0.0000
# 2 23.1706 31.7476 9.7238 0.0000 0.0000 0.0000
# 3 53.4404 9.7238 94.9516 0.0000 0.0000 0.0000
# 4 0.0000 0.0000 0.0000 22.7271 0.0000 0.0000
# 5 0.0000 0.0000 0.0000 0.0000 12.3784 0.0000
# 6 0.0000 0.0000 0.0000 0.0000 0.0000 14.6595
#
#
#
# Elastic Compliance Matrix: (Units=1/GPa)
#
#
# Indices 1 2 3 4 5 6 
#
# 1 0.008303 -0.004778 -0.004184 0.000000 0.000000 0.000000
# 2 -0.004778 0.035268 -0.000922 0.000000 0.000000 0.000000
# 3 -0.004184 -0.000922 0.012981 0.000000 0.000000 0.000000
# 4 0.000000 0.000000 0.000000 0.044000 0.000000 0.000000
# 5 0.000000 0.000000 0.000000 0.000000 0.080786 0.000000
# 6 0.000000 0.000000 0.000000 0.000000 0.000000 0.068215
#
#
# Mechanical properties :
#
#
# Convention : Reuss Voigt Hill
#
# Bulk Modulus (GPa) = 27.18634 51.11916 39.15275
# Shear Modulus (GPa) = 17.75674 23.35754 20.55714
#
# Velocity S-wave (km/s) = 2.81699 3.23085 3.03099
# Velocity P-wave (km/s) = 4.76760 6.06323 5.45402
#
# Compressibility (1/GPa) = 0.03678318
#
# Stress axis : x y z
#
# Youngs Moduli (GPa) = 120.44109 28.35400 77.03713
#
# Poissons Ratio (x) = 0.13549 0.32229
# Poissons Ratio (y) = 0.57551 0.07106
# Poissons Ratio (z) = 0.50388 0.02615
#
# Static dielectric constant tensor:
#      x y z
#    x 1.849080 0.000000 0.000000 
#    y 0.000000 1.823180 0.000000 
#    z 0.000000 0.000000 1.852720 
# 
# From -- ./inp_files/32274.got.cif
#   From: 2010.05.17/outbox.cif.g08.bks.cpg/sg63_17_cif.got.tgz:32274.got - 2010.06.03 15:47:04.
