data_PCOD9472094
_publ_section_title
;
Structure prediction by ZEFSAII (Michael W. Deem and Ramdas Pophale) SiO2 
 PCOD9472094
Probable space group: C M C M
;
_chemical_formula_sum "Si O2"
_cell_formula_units_Z 72
_cell_length_a 12.958976
_cell_length_b 30.655945
_cell_length_c 10.594034
_cell_angle_alpha 90.000000
_cell_angle_beta 90.000000
_cell_angle_gamma 90.000000
_cell_volume 4208.688238
_symmetry_space_group_name_H-M "C M C M"
_symmetry_group_IT_number 63
_symmetry_cell_setting 'orthorhombic'
loop_
_space_group_symop_operation_xyz
x,y,z
-x,-y,1/2+z
x,-y,-z
-x,y,1/2-z
-x,-y,-z
x,y,1/2-z
-x,y,z
x,-y,1/2+z
1/2+x,1/2+y,z
1/2-x,1/2-y,1/2+z
1/2+x,1/2-y,-z
1/2-x,1/2+y,1/2-z
1/2-x,1/2-y,-z
1/2+x,1/2+y,1/2-z
1/2-x,1/2+y,z
1/2+x,1/2-y,1/2+z
loop_
_atom_site_type_symbol
_atom_site_label
_atom_site_fract_x
_atom_site_fract_y
_atom_site_fract_z
Si Si1 0.120064 0.902752 0.979358
Si Si2 0.699007 0.564112 0.750000
Si Si3 0.113144 0.750994 0.102182
Si Si4 0.230526 0.324971 0.008752
Si Si5 0.379958 0.469839 0.750000
Si Si6 0.876231 0.369086 0.250000
O O1 0.143482 0.919053 0.121969
O O2 0.201272 0.864161 0.953289
O O3 0.000000 0.888595 0.972069
O O4 0.134192 0.940531 0.875127
O O5 0.691873 0.512044 0.750000
O O6 0.813243 0.585195 0.750000
O O7 0.106784 0.758648 0.250000
O O8 0.188501 0.788034 0.051374
O O9 0.000000 0.755360 0.043326
O O10 0.154800 0.702296 0.079900
O O11 0.165777 0.343350 0.127221
O O12 0.500000 0.485009 0.750000
O O13 0.000000 0.373036 0.250000
#
# Coordination Sequence:
#
# PCOD9472094 Si02
#       6
#    16   8  16  16   8   8
#     4  10  20  33  54  81 110 140 173 214 261 315
#     4  10  20  34  56  80 102 140 174 216 260 316
#     4  10  20  34  53  75 104 138 175 215 253 303
#     4  10  20  34  53  77 104 139 173 213 260 306
#     4  10  20  34  53  81 112 138 166 210 267 318
#     4  10  20  36  55  77 102 134 176 218 259 308
#
# _framework density 17.107468000000001
#
# number of rings (size 3 to 8) (size 9 to 14) (size 15 to 20)
#    0.000    2.000    1.111    3.000    1.556    1.778 
#    0.000    0.000    0.000   12.000    0.000    0.000 
#    0.000    0.000    0.000    0.000    0.000    0.000 
#
# Total GULP energy -200682.949976 kJ/mol
# GULP energy per Si atom -5574.526388 kJ/mol
# Density = 1.706853 g / cm^3
# Si number density = 17.107468 Si / 1000 Ang^3
#
#
#
# Elastic Constant Matrix: (Units=GPa)
#
#
# Indices 1 2 3 4 5 6 
#
# 1 117.6509 42.2150 7.9491 0.0000 0.0000 0.0000
# 2 42.2150 85.3450 4.9576 0.0000 0.0000 0.0000
# 3 7.9491 4.9576 31.3288 0.0000 0.0000 0.0000
# 4 0.0000 0.0000 0.0000 18.7084 0.0000 0.0000
# 5 0.0000 0.0000 0.0000 0.0000 26.2310 0.0000
# 6 0.0000 0.0000 0.0000 0.0000 0.0000 18.8449
#
#
#
# Elastic Compliance Matrix: (Units=1/GPa)
#
#
# Indices 1 2 3 4 5 6 
#
# 1 0.010439 -0.005056 -0.001849 0.000000 0.000000 0.000000
# 2 -0.005056 0.014275 -0.000976 0.000000 0.000000 0.000000
# 3 -0.001849 -0.000976 0.032543 0.000000 0.000000 0.000000
# 4 0.000000 0.000000 0.000000 0.053452 0.000000 0.000000
# 5 0.000000 0.000000 0.000000 0.000000 0.038123 0.000000
# 6 0.000000 0.000000 0.000000 0.000000 0.000000 0.053065
#
#
# Mechanical properties :
#
#
# Convention : Reuss Voigt Hill
#
# Bulk Modulus (GPa) = 24.09909 38.28533 31.19221
# Shear Modulus (GPa) = 21.59927 24.70372 23.15150
#
# Velocity S-wave (km/s) = 3.55711 3.80416 3.68271
# Velocity P-wave (km/s) = 5.56670 6.45937 6.02958
#
# Compressibility (1/GPa) = 0.04149534
#
# Stress axis : x y z
#
# Youngs Moduli (GPa) = 95.79632 70.05371 30.72854
#
# Poissons Ratio (x) = 0.35420 0.05680
# Poissons Ratio (y) = 0.48435 0.02999
# Poissons Ratio (z) = 0.17709 0.06837
#
# Static dielectric constant tensor:
#      x y z
#    x 1.605010 0.000000 0.000000 
#    y 0.000000 1.569970 0.000000 
#    z 0.000000 0.000000 1.575480 
# 
# From -- ./inp_files/17616.got.cif
#   From: 2010.05.17/outbox.cif.g08.bks.cpg/sg63_9_cif.got.tgz:17616.got - 2010.06.03 15:47:04.
