data_PCOD9472501
_publ_section_title
;
Structure prediction by ZEFSAII (Michael W. Deem and Ramdas Pophale) SiO2 
 PCOD9472501
Probable space group: C M C M
;
_chemical_formula_sum "Si O2"
_cell_formula_units_Z 104
_cell_length_a 20.642573
_cell_length_b 29.701659
_cell_length_c 8.742221
_cell_angle_alpha 90.000000
_cell_angle_beta 90.000000
_cell_angle_gamma 90.000000
_cell_volume 5360.018861
_symmetry_space_group_name_H-M "C M C M"
_symmetry_group_IT_number 63
_symmetry_cell_setting 'orthorhombic'
loop_
_space_group_symop_operation_xyz
x,y,z
-x,-y,1/2+z
x,-y,-z
-x,y,1/2-z
-x,-y,-z
x,y,1/2-z
-x,y,z
x,-y,1/2+z
1/2+x,1/2+y,z
1/2-x,1/2-y,1/2+z
1/2+x,1/2-y,-z
1/2-x,1/2+y,1/2-z
1/2-x,1/2-y,-z
1/2+x,1/2+y,1/2-z
1/2-x,1/2+y,z
1/2+x,1/2-y,1/2+z
loop_
_atom_site_type_symbol
_atom_site_label
_atom_site_fract_x
_atom_site_fract_y
_atom_site_fract_z
Si Si1 0.322659 0.704576 0.067478
Si Si2 0.117354 0.951316 0.932192
Si Si3 0.741240 0.952564 0.431561
Si Si4 0.072242 0.861229 0.431205
Si Si5 0.617310 0.109251 0.930894
Si Si6 0.326512 0.802572 0.567029
Si Si7 0.500000 0.949122 0.932741
O O1 0.323125 0.710089 0.250000
O O2 0.249346 0.690466 0.022635
O O3 0.373726 0.667727 0.015361
O O4 0.340153 0.752126 0.990192
O O5 0.112028 0.951557 0.750000
O O6 0.191906 0.942292 0.982342
O O7 0.076307 0.911717 0.006050
O O8 0.100292 0.000000 0.000000
O O9 0.754397 0.957334 0.250000
O O10 0.686017 0.915814 0.453690
O O11 0.717479 0.000000 0.500000
O O12 0.084816 0.861245 0.250000
O O13 0.000000 0.843019 0.458043
O O14 0.603509 0.110696 0.750000
O O15 0.627856 0.159391 0.995071
O O16 0.562268 0.079441 0.011399
O O17 0.331363 0.804830 0.750000
O O18 0.500000 0.952463 0.750000
O O19 0.500000 0.000000 0.000000
#
# Coordination Sequence:
#
# PCOD9472501 Si02
#       7
#    16  16  16  16  16  16   8
#     4  10  21  39  64  93 123 156 196 246 300 357
#     4  11  22  37  59  86 118 154 195 244 293 346
#     4  10  20  34  56  85 117 152 192 242 295 349
#     4  11  24  41  60  84 117 157 198 240 289 349
#     4  11  23  39  60  88 120 157 201 249 302 360
#     4  10  21  38  63  93 123 155 195 245 302 358
#     4  12  26  44  64  86 120 164 208 256 309 372
#
# _framework density 19.402916999999999
#
# number of rings (size 3 to 8) (size 9 to 14) (size 15 to 20)
#    0.000    1.385    0.000    6.692    0.000    9.538 
#    1.385    0.000    0.000    0.000    0.000    0.000 
#    0.000    0.000    0.000    0.000    0.000    0.000 
#
# Total GULP energy -290758.250640 kJ/mol
# GULP energy per Si atom -5591.504820 kJ/mol
# Density = 1.935875 g / cm^3
# Si number density = 19.402917 Si / 1000 Ang^3
#
#
#
# Elastic Constant Matrix: (Units=GPa)
#
#
# Indices 1 2 3 4 5 6 
#
# 1 39.9828 52.4552 15.7386 0.0000 0.0000 0.0000
# 2 52.4552 107.4749 29.8196 0.0000 0.0000 0.0000
# 3 15.7386 29.8196 58.1505 0.0000 0.0000 0.0000
# 4 0.0000 0.0000 0.0000 37.4309 0.0000 0.0000
# 5 0.0000 0.0000 0.0000 0.0000 17.8194 0.0000
# 6 0.0000 0.0000 0.0000 0.0000 0.0000 23.0808
#
#
#
# Elastic Compliance Matrix: (Units=1/GPa)
#
#
# Indices 1 2 3 4 5 6 
#
# 1 0.069672 -0.033546 -0.001655 0.000000 0.000000 0.000000
# 2 -0.033546 0.027000 -0.004766 0.000000 0.000000 0.000000
# 3 -0.001655 -0.004766 0.020089 0.000000 0.000000 0.000000
# 4 0.000000 0.000000 0.000000 0.026716 0.000000 0.000000
# 5 0.000000 0.000000 0.000000 0.000000 0.056118 0.000000
# 6 0.000000 0.000000 0.000000 0.000000 0.000000 0.043326
#
#
# Mechanical properties :
#
#
# Convention : Reuss Voigt Hill
#
# Bulk Modulus (GPa) = 27.15374 44.62611 35.88992
# Shear Modulus (GPa) = 14.91957 22.83921 18.87939
#
# Velocity S-wave (km/s) = 2.77597 3.43461 3.12271
# Velocity P-wave (km/s) = 4.92948 6.22723 5.61597
#
# Compressibility (1/GPa) = 0.03682734
#
# Stress axis : x y z
#
# Youngs Moduli (GPa) = 14.35287 37.03759 49.77923
#
# Poissons Ratio (x) = 1.24246 0.08237
# Poissons Ratio (y) = 0.48148 0.23725
# Poissons Ratio (z) = 0.02375 0.17653
#
# Static dielectric constant tensor:
#      x y z
#    x 1.687510 0.000000 0.000000 
#    y 0.000000 1.667130 0.000000 
#    z 0.000000 0.000000 1.645120 
# 
# From -- ./inp_files/8723.got.cif
#   From: 2010.05.17/outbox.cif.g08.bks.cpg/sg63_5_cif.got.tgz:8723.got - 2010.06.03 15:47:04.
