data_PCOD9472849
_publ_section_title
;
Structure prediction by ZEFSAII (Michael W. Deem and Ramdas Pophale) SiO2 
 PCOD9472849
Probable space group: C M C M
;
_chemical_formula_sum "Si O2"
_cell_formula_units_Z 80
_cell_length_a 7.834962
_cell_length_b 30.310337
_cell_length_c 18.056286
_cell_angle_alpha 90.000000
_cell_angle_beta 90.000000
_cell_angle_gamma 90.000000
_cell_volume 4288.012913
_symmetry_space_group_name_H-M "C M C M"
_symmetry_group_IT_number 63
_symmetry_cell_setting 'orthorhombic'
loop_
_space_group_symop_operation_xyz
x,y,z
-x,-y,1/2+z
x,-y,-z
-x,y,1/2-z
-x,-y,-z
x,y,1/2-z
-x,y,z
x,-y,1/2+z
1/2+x,1/2+y,z
1/2-x,1/2-y,1/2+z
1/2+x,1/2-y,-z
1/2-x,1/2+y,1/2-z
1/2-x,1/2-y,-z
1/2+x,1/2+y,1/2-z
1/2-x,1/2+y,z
1/2+x,1/2-y,1/2+z
loop_
_atom_site_type_symbol
_atom_site_label
_atom_site_fract_x
_atom_site_fract_y
_atom_site_fract_z
Si Si1 0.804291 0.016908 0.340283
Si Si2 0.800053 0.698367 0.066069
Si Si3 0.500000 0.147393 0.838373
Si Si4 0.500000 0.046369 0.659475
Si Si5 0.193340 0.204756 0.599454
Si Si6 0.793668 0.884187 0.665040
O O1 0.807126 0.017157 0.250000
O O2 0.668541 0.980426 0.364166
O O3 0.000000 0.009023 0.364521
O O4 0.747685 0.066478 0.361379
O O5 0.757426 0.743671 0.109036
O O6 0.770521 0.655190 0.114366
O O7 0.000000 0.701955 0.046405
O O8 0.699336 0.697321 0.989193
O O9 0.500000 0.146443 0.750000
O O10 0.500000 0.096855 0.865795
O O11 0.667665 0.173052 0.865196
O O12 0.500000 0.046418 0.750000
O O13 0.000000 0.197717 0.626484
O O14 0.734451 0.878704 0.750000
O O15 0.000000 0.883108 0.665780
#
# Coordination Sequence:
#
# PCOD9472849 Si02
#       6
#    16  16   8   8  16  16
#     4   8  15  29  48  74 109 145 182 222 272 338
#     4  10  20  35  58  83 110 150 195 228 271 340
#     4  11  24  40  59  87 116 144 189 242 286 322
#     4   9  18  32  53  77 105 146 185 225 279 328
#     4  10  22  40  59  80 110 151 195 231 274 338
#     4   9  18  30  49  83 119 148 181 228 286 337
#
# _framework density 18.656661
#
# number of rings (size 3 to 8) (size 9 to 14) (size 15 to 20)
#    0.000    2.600    1.000    1.800    4.200    2.400 
#    0.000    4.000    0.000    2.400    0.000    4.200 
#    0.000    0.000    0.000    0.000    0.000    0.000 
#
# Total GULP energy -223126.192320 kJ/mol
# GULP energy per Si atom -5578.154808 kJ/mol
# Density = 1.861420 g / cm^3
# Si number density = 18.656661 Si / 1000 Ang^3
#
#
#
# Elastic Constant Matrix: (Units=GPa)
#
#
# Indices 1 2 3 4 5 6 
#
# 1 97.8781 90.9202 21.2573 0.0000 0.0000 0.0000
# 2 90.9202 175.1647 36.7664 0.0000 0.0000 0.0000
# 3 21.2573 36.7664 17.6225 0.0000 0.0000 0.0000
# 4 0.0000 0.0000 0.0000 -260.1033 0.0000 0.0000
# 5 0.0000 0.0000 0.0000 0.0000 20.9697 0.0000
# 6 0.0000 0.0000 0.0000 0.0000 0.0000 6.2994
#
#
#
# Elastic Compliance Matrix: (Units=1/GPa)
#
#
# Indices 1 2 3 4 5 6 
#
# 1 0.019917 -0.009421 -0.004370 0.000000 0.000000 0.000000
# 2 -0.009421 0.014613 -0.019123 0.000000 0.000000 0.000000
# 3 -0.004370 -0.019123 0.101915 0.000000 0.000000 0.000000
# 4 0.000000 0.000000 0.000000 -0.003845 0.000000 0.000000
# 5 0.000000 0.000000 0.000000 0.000000 0.047688 0.000000
# 6 0.000000 0.000000 0.000000 0.000000 0.000000 0.158746
#
#
# Mechanical properties :
#
#
# Convention : Reuss Voigt Hill
#
# Bulk Modulus (GPa) = 14.16108 65.39477 39.77792
# Shear Modulus (GPa) = 11.67132 -37.11876 -12.72372
#
# Velocity S-wave (km/s) = 2.50388 -4.46530 -2.61433
# Velocity P-wave (km/s) = 3.99576 2.92277 3.50062
#
# Compressibility (1/GPa) = 0.07061609
#
# Stress axis : x y z
#
# Youngs Moduli (GPa) = 50.20852 68.43398 9.81214
#
# Poissons Ratio (x) = 0.64469 0.04288
# Poissons Ratio (y) = 0.47300 0.18764
# Poissons Ratio (z) = 0.21943 1.30867
#
# Static dielectric constant tensor:
#      x y z
#    x 1.616410 0.000000 0.000000 
#    y 0.000000 1.645240 0.000000 
#    z 0.000000 0.000000 1.623920 
# 
# From -- ./inp_files/40580.got.cif
#   From: 2010.05.17/outbox.cif.g08.bks.cpg/sg63_21_cif.got.tgz:40580.got - 2010.06.03 15:47:04.
