data_PCOD9472887
_publ_section_title
;
Structure prediction by ZEFSAII (Michael W. Deem and Ramdas Pophale) SiO2 
 PCOD9472887
Probable space group: C M C M
;
_chemical_formula_sum "Si O2"
_cell_formula_units_Z 112
_cell_length_a 22.791818
_cell_length_b 14.987648
_cell_length_c 16.197252
_cell_angle_alpha 90.000000
_cell_angle_beta 90.000000
_cell_angle_gamma 90.000000
_cell_volume 5532.912371
_symmetry_space_group_name_H-M "C M C M"
_symmetry_group_IT_number 63
_symmetry_cell_setting 'orthorhombic'
loop_
_space_group_symop_operation_xyz
x,y,z
-x,-y,1/2+z
x,-y,-z
-x,y,1/2-z
-x,-y,-z
x,y,1/2-z
-x,y,z
x,-y,1/2+z
1/2+x,1/2+y,z
1/2-x,1/2-y,1/2+z
1/2+x,1/2-y,-z
1/2-x,1/2+y,1/2-z
1/2-x,1/2-y,-z
1/2+x,1/2+y,1/2-z
1/2-x,1/2+y,z
1/2+x,1/2-y,1/2+z
loop_
_atom_site_type_symbol
_atom_site_label
_atom_site_fract_x
_atom_site_fract_y
_atom_site_fract_z
Si Si1 0.716281 0.094966 0.540317
Si Si2 0.933410 0.206448 0.063141
Si Si3 0.324988 0.392414 0.157471
Si Si4 0.347384 0.218620 0.073102
Si Si5 0.934218 0.577795 0.150950
Si Si6 0.932702 0.989957 0.599483
Si Si7 0.895618 0.620068 0.652211
O O1 0.778122 0.086409 0.586048
O O2 0.707982 0.171952 0.471411
O O3 0.667374 0.117937 0.608341
O O4 0.702428 0.000000 0.500000
O O5 0.920733 0.115367 0.112567
O O6 0.929605 0.294100 0.119175
O O7 0.000000 0.196693 0.029821
O O8 0.885634 0.223668 0.992064
O O9 0.303921 0.413064 0.250000
O O10 0.333821 0.286403 0.146358
O O11 0.384787 0.446746 0.140829
O O12 0.387887 0.137918 0.103719
O O13 0.926555 0.586600 0.250000
O O14 0.926390 0.473548 0.130631
O O15 0.000000 0.606716 0.129498
O O16 0.000000 0.010071 0.624451
O O17 0.929108 0.000000 0.500000
O O18 0.889789 0.624353 0.750000
#
# Coordination Sequence:
#
# PCOD9472887 Si02
#       7
#    16  16  16  16  16  16  16
#     4  11  23  43  68  89 119 166 213 263 309 371
#     4  10  21  36  63  94 124 165 210 256 303 363
#     4  12  26  43  65  94 126 162 207 263 322 377
#     4  11  22  40  63  92 123 165 209 259 307 375
#     4  10  20  35  58  91 132 171 204 249 313 377
#     4  10  21  42  67  93 127 167 209 256 310 372
#     4  10  21  39  60  91 131 168 206 257 313 363
#
# _framework density 20.242504
#
# number of rings (size 3 to 8) (size 9 to 14) (size 15 to 20)
#    0.000    1.429    2.857    2.571    0.000    2.286 
#    0.000    3.571    0.000    0.000    0.000    0.000 
#    0.000    0.000    0.000    0.000    0.000    0.000 
#
# Total GULP energy -312842.762414 kJ/mol
# GULP energy per Si atom -5586.477900 kJ/mol
# Density = 2.019643 g / cm^3
# Si number density = 20.242504 Si / 1000 Ang^3
#
#
#
# Elastic Constant Matrix: (Units=GPa)
#
#
# Indices 1 2 3 4 5 6 
#
# 1 78.7128 25.2306 18.0200 0.0000 0.0000 0.0000
# 2 25.2306 90.2418 17.4968 0.0000 0.0000 0.0000
# 3 18.0200 17.4968 43.8564 0.0000 0.0000 0.0000
# 4 0.0000 0.0000 0.0000 27.0219 0.0000 0.0000
# 5 0.0000 0.0000 0.0000 0.0000 21.5344 0.0000
# 6 0.0000 0.0000 0.0000 0.0000 0.0000 10.7744
#
#
#
# Elastic Compliance Matrix: (Units=1/GPa)
#
#
# Indices 1 2 3 4 5 6 
#
# 1 0.014837 -0.003215 -0.004814 0.000000 0.000000 0.000000
# 2 -0.003215 0.012707 -0.003749 0.000000 0.000000 0.000000
# 3 -0.004814 -0.003749 0.026275 0.000000 0.000000 0.000000
# 4 0.000000 0.000000 0.000000 0.037007 0.000000 0.000000
# 5 0.000000 0.000000 0.000000 0.000000 0.046437 0.000000
# 6 0.000000 0.000000 0.000000 0.000000 0.000000 0.092813
#
#
# Mechanical properties :
#
#
# Convention : Reuss Voigt Hill
#
# Bulk Modulus (GPa) = 33.04184 37.14508 35.09346
# Shear Modulus (GPa) = 18.95961 22.00372 20.48167
#
# Velocity S-wave (km/s) = 3.06375 3.30055 3.18435
# Velocity P-wave (km/s) = 5.37344 5.73714 5.55826
#
# Compressibility (1/GPa) = 0.03026466
#
# Stress axis : x y z
#
# Youngs Moduli (GPa) = 67.39930 78.69682 38.05892
#
# Poissons Ratio (x) = 0.25300 0.18320
# Poissons Ratio (y) = 0.21668 0.14267
# Poissons Ratio (z) = 0.32444 0.29500
#
# Static dielectric constant tensor:
#      x y z
#    x 1.715070 0.000000 0.000000 
#    y 0.000000 1.725770 0.000000 
#    z 0.000000 0.000000 1.701640 
# 
# From -- ./inp_files/36904.got.cif
#   From: 2010.05.17/outbox.cif.g08.bks.cpg/sg63_19_cif.got.tgz:36904.got - 2010.06.03 15:47:04.
