data_PCOD9472480
_publ_section_title
;
Structure prediction by ZEFSAII (Michael W. Deem and Ramdas Pophale) SiO2 
 PCOD9472480
Probable space group: C M C M
;
_chemical_formula_sum "Si O2"
_cell_formula_units_Z 80
_cell_length_a 7.590015
_cell_length_b 23.775730
_cell_length_c 23.116970
_cell_angle_alpha 90.000000
_cell_angle_beta 90.000000
_cell_angle_gamma 90.000000
_cell_volume 4171.645578
_symmetry_space_group_name_H-M "C M C M"
_symmetry_group_IT_number 63
_symmetry_cell_setting 'orthorhombic'
loop_
_space_group_symop_operation_xyz
x,y,z
-x,-y,1/2+z
x,-y,-z
-x,y,1/2-z
-x,-y,-z
x,y,1/2-z
-x,y,z
x,-y,1/2+z
1/2+x,1/2+y,z
1/2-x,1/2-y,1/2+z
1/2+x,1/2-y,-z
1/2-x,1/2+y,1/2-z
1/2-x,1/2-y,-z
1/2+x,1/2+y,1/2-z
1/2-x,1/2+y,z
1/2+x,1/2-y,1/2+z
loop_
_atom_site_type_symbol
_atom_site_label
_atom_site_fract_x
_atom_site_fract_y
_atom_site_fract_z
Si Si1 0.500000 0.323598 0.181662
Si Si2 0.286474 0.064778 0.009610
Si Si3 0.299581 0.113170 0.611322
Si Si4 0.712700 0.491422 0.315268
Si Si5 0.702767 0.389057 0.635313
Si Si6 0.000000 0.310677 0.818353
O O1 0.500000 0.338848 0.250000
O O2 0.330974 0.349640 0.149447
O O3 0.500000 0.256456 0.176458
O O4 0.500000 0.063800 0.012499
O O5 0.237888 0.102578 0.954295
O O6 0.217827 0.091126 0.068862
O O7 0.227902 0.000000 0.000000
O O8 0.500000 0.134618 0.611401
O O9 0.296913 0.051227 0.639923
O O10 0.761542 0.476248 0.250000
O O11 0.500000 0.486663 0.320968
O O12 0.758532 0.555649 0.328607
O O13 0.500000 0.375984 0.649003
O O14 0.830905 0.338610 0.651462
O O15 0.000000 0.324466 0.750000
#
# Coordination Sequence:
#
# PCOD9472480 Si02
#       6
#     8  16  16  16  16   8
#     4  11  26  48  67  88 126 172 219 268 318 381
#     4  10  20  37  62  95 135 174 208 252 320 395
#     4  11  23  38  63  95 127 167 211 259 317 382
#     4  10  20  34  55  91 133 161 197 256 316 379
#     4  11  23  39  65  97 128 168 213 261 321 385
#     4  11  26  48  69  88 126 174 217 270 320 379
#
# _framework density 19.177085000000002
#
# number of rings (size 3 to 8) (size 9 to 14) (size 15 to 20)
#    0.000    1.400    4.000    1.200    2.800    4.000 
#    0.000    3.000    0.000    0.000    0.000    0.000 
#    0.000    0.000    0.000    0.000    0.000    0.000 
#
# Total GULP energy -223633.844433 kJ/mol
# GULP energy per Si atom -5590.846111 kJ/mol
# Density = 1.913344 g / cm^3
# Si number density = 19.177085 Si / 1000 Ang^3
#
#
#
# Elastic Constant Matrix: (Units=GPa)
#
#
# Indices 1 2 3 4 5 6 
#
# 1 85.4230 45.0393 26.0322 0.0000 0.0000 0.0000
# 2 45.0393 80.7847 27.6696 0.0000 0.0000 0.0000
# 3 26.0322 27.6696 90.9547 0.0000 0.0000 0.0000
# 4 0.0000 0.0000 0.0000 19.3333 0.0000 0.0000
# 5 0.0000 0.0000 0.0000 0.0000 11.6788 0.0000
# 6 0.0000 0.0000 0.0000 0.0000 0.0000 8.9044
#
#
#
# Elastic Compliance Matrix: (Units=1/GPa)
#
#
# Indices 1 2 3 4 5 6 
#
# 1 0.016969 -0.008704 -0.002209 0.000000 0.000000 0.000000
# 2 -0.008704 0.018283 -0.003071 0.000000 0.000000 0.000000
# 3 -0.002209 -0.003071 0.012561 0.000000 0.000000 0.000000
# 4 0.000000 0.000000 0.000000 0.051724 0.000000 0.000000
# 5 0.000000 0.000000 0.000000 0.000000 0.085625 0.000000
# 6 0.000000 0.000000 0.000000 0.000000 0.000000 0.112304
#
#
# Mechanical properties :
#
#
# Convention : Reuss Voigt Hill
#
# Bulk Modulus (GPa) = 50.38901 50.51606 50.45254
# Shear Modulus (GPa) = 15.05807 18.54472 16.80140
#
# Velocity S-wave (km/s) = 2.80520 3.11308 2.96314
# Velocity P-wave (km/s) = 6.06835 6.27062 6.17032
#
# Compressibility (1/GPa) = 0.01984560
#
# Stress axis : x y z
#
# Youngs Moduli (GPa) = 58.93204 54.69572 79.61252
#
# Poissons Ratio (x) = 0.47607 0.17585
# Poissons Ratio (y) = 0.51294 0.24447
# Poissons Ratio (z) = 0.13017 0.16796
#
# Static dielectric constant tensor:
#      x y z
#    x 1.659230 0.000000 0.000000 
#    y 0.000000 1.625820 0.000000 
#    z 0.000000 0.000000 1.671310 
# 
# From -- ./inp_files/50946.got.cif
#   From: 2010.05.17/outbox.cif.g08.bks.cpg/sg63_26_cif.got.tgz:50946.got - 2010.06.03 15:47:04.
