data_PCOD9472307
_publ_section_title
;
Structure prediction by ZEFSAII (Michael W. Deem and Ramdas Pophale) SiO2 
 PCOD9472307
Probable space group: C M C M
;
_chemical_formula_sum "Si O2"
_cell_formula_units_Z 116
_cell_length_a 14.645090
_cell_length_b 25.590585
_cell_length_c 16.198161
_cell_angle_alpha 90.000000
_cell_angle_beta 90.000000
_cell_angle_gamma 90.000000
_cell_volume 6070.688798
_symmetry_space_group_name_H-M "C M C M"
_symmetry_group_IT_number 63
_symmetry_cell_setting 'orthorhombic'
loop_
_space_group_symop_operation_xyz
x,y,z
-x,-y,1/2+z
x,-y,-z
-x,y,1/2-z
-x,-y,-z
x,y,1/2-z
-x,y,z
x,-y,1/2+z
1/2+x,1/2+y,z
1/2-x,1/2-y,1/2+z
1/2+x,1/2-y,-z
1/2-x,1/2+y,1/2-z
1/2-x,1/2-y,-z
1/2+x,1/2+y,1/2-z
1/2-x,1/2+y,z
1/2+x,1/2-y,1/2+z
loop_
_atom_site_type_symbol
_atom_site_label
_atom_site_fract_x
_atom_site_fract_y
_atom_site_fract_z
Si Si1 0.104644 0.411056 0.149503
Si Si2 0.500000 0.571521 0.250000
Si Si3 0.899407 0.936110 0.418477
Si Si4 0.695529 0.802934 0.156362
Si Si5 0.600034 0.315884 0.120449
Si Si6 0.651923 0.410223 0.893351
Si Si7 0.732453 0.002200 0.348772
Si Si8 0.394614 0.295814 0.925454
O O1 0.105715 0.412068 0.250000
O O2 0.165460 0.360657 0.125481
O O3 0.148998 0.465866 0.121777
O O4 0.000000 0.404681 0.122924
O O5 0.419453 0.573806 0.322506
O O6 0.897494 0.878955 0.377158
O O7 0.883815 0.926886 0.515861
O O8 0.821803 0.971151 0.379435
O O9 0.000000 0.958856 0.405015
O O10 0.660462 0.797929 0.250000
O O11 0.804818 0.797549 0.157580
O O12 0.651328 0.757385 0.102987
O O13 0.500000 0.299197 0.152521
O O14 0.603682 0.300124 0.024225
O O15 0.748225 0.439577 0.880503
O O16 0.656232 0.347409 0.892836
O O17 0.729480 0.003608 0.250000
O O18 0.500000 0.298639 0.896179
#
# Coordination Sequence:
#
# PCOD9472307 Si02
#       8
#    16   4  16  16  16  16  16  16
#     4   9  19  37  54  77 108 140 180 233 280 322
#     4  12  20  36  54  80 120 148 184 232 274 336
#     4  10  20  34  53  78 112 150 183 218 275 329
#     4  11  21  33  57  86 109 141 184 227 279 331
#     4   9  19  37  54  77 113 149 183 220 273 335
#     4  11  22  35  53  79 115 147 180 228 281 330
#     4  11  22  33  54  80 110 147 187 226 277 337
#     4  10  21  36  56  81 111 146 182 229 280 328
#
# _framework density 19.108211000000001
#
# number of rings (size 3 to 8) (size 9 to 14) (size 15 to 20)
#    0.000    1.793    3.448    2.069    1.931    1.931 
#    0.000    1.379    0.000    2.483    0.000    1.931 
#    0.000    0.000    0.000    0.000    0.000    0.000 
#
# Total GULP energy -323118.927439 kJ/mol
# GULP energy per Si atom -5571.015990 kJ/mol
# Density = 1.906472 g / cm^3
# Si number density = 19.108211 Si / 1000 Ang^3
#
#
#
# Elastic Constant Matrix: (Units=GPa)
#
#
# Indices 1 2 3 4 5 6 
#
# 1 97.3319 44.5547 1.2076 0.0000 0.0000 0.0000
# 2 44.5547 91.5466 17.8823 0.0000 0.0000 0.0000
# 3 1.2076 17.8823 14.6691 0.0000 0.0000 0.0000
# 4 0.0000 0.0000 0.0000 12.1317 0.0000 0.0000
# 5 0.0000 0.0000 0.0000 0.0000 15.4342 0.0000
# 6 0.0000 0.0000 0.0000 0.0000 0.0000 27.0687
#
#
#
# Elastic Compliance Matrix: (Units=1/GPa)
#
#
# Indices 1 2 3 4 5 6 
#
# 1 0.014160 -0.008747 0.009497 0.000000 0.000000 0.000000
# 2 -0.008747 0.019740 -0.023344 0.000000 0.000000 0.000000
# 3 0.009497 -0.023344 0.095846 0.000000 0.000000 0.000000
# 4 0.000000 0.000000 0.000000 0.082429 0.000000 0.000000
# 5 0.000000 0.000000 0.000000 0.000000 0.064791 0.000000
# 6 0.000000 0.000000 0.000000 0.000000 0.000000 0.036943
#
#
# Mechanical properties :
#
#
# Convention : Reuss Voigt Hill
#
# Bulk Modulus (GPa) = 11.82609 36.75963 24.29286
# Shear Modulus (GPa) = 12.91043 20.25379 16.58211
#
# Velocity S-wave (km/s) = 2.60214 3.25922 2.94904
# Velocity P-wave (km/s) = 3.90265 5.78297 4.93322
#
# Compressibility (1/GPa) = 0.08455881
#
# Stress axis : x y z
#
# Youngs Moduli (GPa) = 70.62050 50.65787 10.43337
#
# Poissons Ratio (x) = 0.44309 -0.09908
# Poissons Ratio (y) = 0.61770 0.24356
# Poissons Ratio (z) = -0.67068 1.18257
#
# Static dielectric constant tensor:
#      x y z
#    x 1.672870 0.000000 0.000000 
#    y 0.000000 1.687210 0.000000 
#    z 0.000000 0.000000 1.668450 
# 
# From -- ./inp_files/44641.got.cif
#   From: 2010.05.17/outbox.cif.g08.bks.cpg/sg63_23_cif.got.tgz:44641.got - 2010.06.03 15:47:04.
