data_PCOD9472385
_publ_section_title
;
Structure prediction by ZEFSAII (Michael W. Deem and Ramdas Pophale) SiO2 
 PCOD9472385
Probable space group: C M C M
;
_chemical_formula_sum "Si O2"
_cell_formula_units_Z 120
_cell_length_a 27.647111
_cell_length_b 28.461405
_cell_length_c 8.878404
_cell_angle_alpha 90.000000
_cell_angle_beta 90.000000
_cell_angle_gamma 90.000000
_cell_volume 6986.199681
_symmetry_space_group_name_H-M "C M C M"
_symmetry_group_IT_number 63
_symmetry_cell_setting 'orthorhombic'
loop_
_space_group_symop_operation_xyz
x,y,z
-x,-y,1/2+z
x,-y,-z
-x,y,1/2-z
-x,-y,-z
x,y,1/2-z
-x,y,z
x,-y,1/2+z
1/2+x,1/2+y,z
1/2-x,1/2-y,1/2+z
1/2+x,1/2-y,-z
1/2-x,1/2+y,1/2-z
1/2-x,1/2-y,-z
1/2+x,1/2+y,1/2-z
1/2-x,1/2+y,z
1/2+x,1/2-y,1/2+z
loop_
_atom_site_type_symbol
_atom_site_label
_atom_site_fract_x
_atom_site_fract_y
_atom_site_fract_z
Si Si1 0.107079 0.550154 0.929468
Si Si2 0.205323 0.602669 0.570187
Si Si3 0.944999 0.638482 0.070489
Si Si4 0.295488 0.722648 0.069443
Si Si5 0.193685 0.114135 0.430710
Si Si6 0.107422 0.947248 0.068285
Si Si7 0.140734 0.307915 0.429863
Si Si8 0.000000 0.051902 0.569321
O O1 0.102012 0.549138 0.750000
O O2 0.162174 0.566373 0.963636
O O3 0.096891 0.500000 0.000000
O O4 0.072539 0.589971 0.996511
O O5 0.214452 0.602266 0.750000
O O6 0.254641 0.593581 0.482834
O O7 0.182357 0.653739 0.530542
O O8 0.941853 0.634128 0.250000
O O9 0.000000 0.648972 0.027990
O O10 0.907608 0.677323 0.013341
O O11 0.288819 0.722051 0.250000
O O12 0.303627 0.669071 0.020316
O O13 0.340931 0.756062 0.035357
O O14 0.250000 0.750000 0.000000
O O15 0.189331 0.112342 0.250000
O O16 0.149455 0.085918 0.504082
O O17 0.111035 0.950016 0.250000
O O18 0.053106 0.928329 0.027856
O O19 0.111988 0.000000 0.000000
O O20 0.133559 0.312786 0.250000
O O21 0.000000 0.048622 0.750000
O O22 0.000000 0.000000 0.500000
#
# Coordination Sequence:
#
# PCOD9472385 Si02
#       8
#    16  16  16  16  16  16  16   8
#     4  10  21  36  54  76 104 139 179 222 270 323
#     4   9  18  33  51  72 102 139 176 213 260 315
#     4  10  21  36  55  79 105 135 177 226 274 325
#     4  10  20  34  54  81 110 141 178 218 261 311
#     4  11  22  33  51  82 114 143 177 216 261 313
#     4  10  20  36  57  80 108 140 176 218 262 311
#     4   9  18  34  55  77 103 136 176 219 264 318
#     4   8  16  32  56  80  98 128 172 212 256 306
#
# _framework density 17.17672
#
# number of rings (size 3 to 8) (size 9 to 14) (size 15 to 20)
#    0.000    2.267    1.333    2.400    0.000    6.133 
#    0.000    1.333    1.467    0.000    0.000    0.000 
#    0.000    0.000    0.000    0.000    0.000    0.000 
#
# Total GULP energy -334594.176649 kJ/mol
# GULP energy per Si atom -5576.569611 kJ/mol
# Density = 1.713763 g / cm^3
# Si number density = 17.176720 Si / 1000 Ang^3
#
#
#
# Elastic Constant Matrix: (Units=GPa)
#
#
# Indices 1 2 3 4 5 6 
#
# 1 151.1698 46.1162 54.9638 0.0000 0.0000 0.0000
# 2 46.1162 67.0895 27.3741 0.0000 0.0000 0.0000
# 3 54.9638 27.3741 40.2069 0.0000 0.0000 0.0000
# 4 0.0000 0.0000 0.0000 23.4188 0.0000 0.0000
# 5 0.0000 0.0000 0.0000 0.0000 27.6004 0.0000
# 6 0.0000 0.0000 0.0000 0.0000 0.0000 13.8539
#
#
#
# Elastic Compliance Matrix: (Units=1/GPa)
#
#
# Indices 1 2 3 4 5 6 
#
# 1 0.013428 -0.002410 -0.016715 0.000000 0.000000 0.000000
# 2 -0.002410 0.021071 -0.011052 0.000000 0.000000 0.000000
# 3 -0.016715 -0.011052 0.055246 0.000000 0.000000 0.000000
# 4 0.000000 0.000000 0.000000 0.042701 0.000000 0.000000
# 5 0.000000 0.000000 0.000000 0.000000 0.036231 0.000000
# 6 0.000000 0.000000 0.000000 0.000000 0.000000 0.072182
#
#
# Mechanical properties :
#
#
# Convention : Reuss Voigt Hill
#
# Bulk Modulus (GPa) = 34.02380 57.26382 45.64381
# Shear Modulus (GPa) = 16.07666 21.64211 18.85939
#
# Velocity S-wave (km/s) = 3.06266 3.55345 3.31715
# Velocity P-wave (km/s) = 5.68837 7.08847 6.42667
#
# Compressibility (1/GPa) = 0.02939119
#
# Stress axis : x y z
#
# Youngs Moduli (GPa) = 74.47267 47.45799 18.10082
#
# Poissons Ratio (x) = 0.11436 0.30256
# Poissons Ratio (y) = 0.17946 0.20005
# Poissons Ratio (z) = 1.24484 0.52450
#
# Static dielectric constant tensor:
#      x y z
#    x 1.586020 0.000000 0.000000 
#    y 0.000000 1.570710 0.000000 
#    z 0.000000 0.000000 1.577490 
# 
# From -- ./inp_files/13157.got.cif
#   From: 2010.05.17/outbox.cif.g08.bks.cpg/sg63_7_cif.got.tgz:13157.got - 2010.06.03 15:47:04.
