data_PCOD9472692
_publ_section_title
;
Structure prediction by ZEFSAII (Michael W. Deem and Ramdas Pophale) SiO2 
 PCOD9472692
Probable space group: C M C M
;
_chemical_formula_sum "Si O2"
_cell_formula_units_Z 112
_cell_length_a 25.274372
_cell_length_b 14.117951
_cell_length_c 15.634053
_cell_angle_alpha 90.000000
_cell_angle_beta 90.000000
_cell_angle_gamma 90.000000
_cell_volume 5578.579460
_symmetry_space_group_name_H-M "C M C M"
_symmetry_group_IT_number 63
_symmetry_cell_setting 'orthorhombic'
loop_
_space_group_symop_operation_xyz
x,y,z
-x,-y,1/2+z
x,-y,-z
-x,y,1/2-z
-x,-y,-z
x,y,1/2-z
-x,y,z
x,-y,1/2+z
1/2+x,1/2+y,z
1/2-x,1/2-y,1/2+z
1/2+x,1/2-y,-z
1/2-x,1/2+y,1/2-z
1/2-x,1/2-y,-z
1/2+x,1/2+y,1/2-z
1/2-x,1/2+y,z
1/2+x,1/2-y,1/2+z
loop_
_atom_site_type_symbol
_atom_site_label
_atom_site_fract_x
_atom_site_fract_y
_atom_site_fract_z
Si Si1 0.437878 0.017178 0.651057
Si Si2 0.170586 0.930071 0.150377
Si Si3 0.442364 0.631197 0.849844
Si Si4 0.061368 0.677667 0.065338
Si Si5 0.866757 0.688758 0.590249
Si Si6 0.242671 0.387810 0.016557
Si Si7 0.297325 0.650471 0.155199
O O1 0.435206 0.987919 0.750000
O O2 0.500000 0.038462 0.632490
O O3 0.400581 0.107339 0.637059
O O4 0.421360 0.927130 0.593905
O O5 0.174432 0.897761 0.250000
O O6 0.111132 0.915203 0.116490
O O7 0.211711 0.877675 0.088331
O O8 0.183684 0.041664 0.150502
O O9 0.444215 0.606621 0.750000
O O10 0.500000 0.606125 0.888186
O O11 0.436303 0.744383 0.860421
O O12 0.000000 0.669718 0.039832
O O13 0.096394 0.716977 0.988850
O O14 0.813126 0.644705 0.552577
O O15 0.846415 0.777886 0.644169
O O16 0.239208 0.500000 0.000000
O O17 0.259254 0.338911 0.927161
O O18 0.273445 0.665704 0.250000
#
# Coordination Sequence:
#
# PCOD9472692 Si02
#       7
#    16  16  16  16  16  16  16
#     4  10  21  37  56  80 114 153 190 232 284 341
#     4   9  19  37  59  84 114 147 181 226 286 338
#     4   9  17  32  56  83 108 138 182 232 278 327
#     4  10  20  35  55  80 111 145 184 235 289 332
#     4  12  22  36  56  82 111 147 191 231 276 339
#     4  10  21  38  59  81 109 145 189 239 285 332
#     4  10  22  39  57  79 114 153 184 225 284 344
#
# _framework density 20.076795000000001
#
# number of rings (size 3 to 8) (size 9 to 14) (size 15 to 20)
#    0.000    2.000    0.000    3.857    0.000    4.000 
#    0.000    7.143    0.000    9.000    0.000    0.000 
#    0.000    0.000    0.000    0.000    0.000    0.000 
#
# Total GULP energy -312455.435937 kJ/mol
# GULP energy per Si atom -5579.561356 kJ/mol
# Density = 2.003110 g / cm^3
# Si number density = 20.076795 Si / 1000 Ang^3
#
#
#
# Elastic Constant Matrix: (Units=GPa)
#
#
# Indices 1 2 3 4 5 6 
#
# 1 94.0847 16.6236 35.4698 0.0000 0.0000 0.0000
# 2 16.6236 38.7422 18.5699 0.0000 0.0000 0.0000
# 3 35.4698 18.5699 88.9567 0.0000 0.0000 0.0000
# 4 0.0000 0.0000 0.0000 24.6939 0.0000 0.0000
# 5 0.0000 0.0000 0.0000 0.0000 129.6930 0.0000
# 6 0.0000 0.0000 0.0000 0.0000 0.0000 23.4544
#
#
#
# Elastic Compliance Matrix: (Units=1/GPa)
#
#
# Indices 1 2 3 4 5 6 
#
# 1 0.012903 -0.003412 -0.004432 0.000000 0.000000 0.000000
# 2 -0.003412 0.029584 -0.004815 0.000000 0.000000 0.000000
# 3 -0.004432 -0.004815 0.014014 0.000000 0.000000 0.000000
# 4 0.000000 0.000000 0.000000 0.040496 0.000000 0.000000
# 5 0.000000 0.000000 0.000000 0.000000 0.007711 0.000000
# 6 0.000000 0.000000 0.000000 0.000000 0.000000 0.042636
#
#
# Mechanical properties :
#
#
# Convention : Reuss Voigt Hill
#
# Bulk Modulus (GPa) = 32.07052 40.34557 36.20804
# Shear Modulus (GPa) = 27.31419 45.64294 36.47856
#
# Velocity S-wave (km/s) = 3.69248 4.77321 4.26720
# Velocity P-wave (km/s) = 5.84703 7.10755 6.50788
#
# Compressibility (1/GPa) = 0.03118129
#
# Stress axis : x y z
#
# Youngs Moduli (GPa) = 77.50399 33.80248 71.35731
#
# Poissons Ratio (x) = 0.11532 0.31629
# Poissons Ratio (y) = 0.26442 0.34361
# Poissons Ratio (z) = 0.34353 0.16277
#
# Static dielectric constant tensor:
#      x y z
#    x 1.720540 0.000000 0.000000 
#    y 0.000000 1.712550 0.000000 
#    z 0.000000 0.000000 1.739570 
# 
# From -- ./inp_files/36924.got.cif
#   From: 2010.05.17/outbox.cif.g08.bks.cpg/sg63_19_cif.got.tgz:36924.got - 2010.06.03 15:47:04.
