data_PCOD9472256
_publ_section_title
;
Structure prediction by ZEFSAII (Michael W. Deem and Ramdas Pophale) SiO2 
 PCOD9472256
Probable space group: C M C M
;
_chemical_formula_sum "Si O2"
_cell_formula_units_Z 96
_cell_length_a 15.089217
_cell_length_b 31.004354
_cell_length_c 9.368758
_cell_angle_alpha 90.000000
_cell_angle_beta 90.000000
_cell_angle_gamma 90.000000
_cell_volume 4382.999410
_symmetry_space_group_name_H-M "C M C M"
_symmetry_group_IT_number 63
_symmetry_cell_setting 'orthorhombic'
loop_
_space_group_symop_operation_xyz
x,y,z
-x,-y,1/2+z
x,-y,-z
-x,y,1/2-z
-x,-y,-z
x,y,1/2-z
-x,y,z
x,-y,1/2+z
1/2+x,1/2+y,z
1/2-x,1/2-y,1/2+z
1/2+x,1/2-y,-z
1/2-x,1/2+y,1/2-z
1/2-x,1/2-y,-z
1/2+x,1/2+y,1/2-z
1/2-x,1/2+y,z
1/2+x,1/2-y,1/2+z
loop_
_atom_site_type_symbol
_atom_site_label
_atom_site_fract_x
_atom_site_fract_y
_atom_site_fract_z
Si Si1 0.891645 0.958123 0.412786
Si Si2 0.106206 0.371219 0.417796
Si Si3 0.600006 0.705558 0.591022
Si Si4 0.891390 0.874187 0.587786
Si Si5 0.108367 0.542747 0.414327
Si Si6 0.330245 0.224418 0.579094
O O1 0.860746 0.958479 0.250000
O O2 0.864710 0.915388 0.496143
O O3 0.000000 0.958437 0.409452
O O4 0.863569 0.000000 0.500000
O O5 0.117800 0.381432 0.250000
O O6 0.134555 0.412404 0.510417
O O7 0.156673 0.326325 0.446541
O O8 0.000000 0.364102 0.440316
O O9 0.640485 0.709221 0.750000
O O10 0.500000 0.690311 0.611677
O O11 0.640779 0.668592 0.492390
O O12 0.594574 0.749634 0.504465
O O13 0.859710 0.875954 0.750000
O O14 0.000000 0.874252 0.594627
O O15 0.136872 0.500000 0.500000
O O16 0.137284 0.541098 0.250000
O O17 0.000000 0.542454 0.415667
O O18 0.333337 0.231755 0.750000
O O19 0.250000 0.250000 0.500000
#
# Coordination Sequence:
#
# PCOD9472256 Si02
#       6
#    16  16  16  16  16  16
#     4   9  15  22  33  52  81 115 149 187 235 291
#     4   9  18  33  53  77 107 144 185 228 275 327
#     4  10  20  34  53  76 101 130 167 212 260 312
#     4   9  16  26  41  62  88 118 153 193 239 291
#     4   9  16  26  44  73 109 145 179 218 265 318
#     4  11  23  38  55  76 105 141 181 225 272 321
#
# _framework density 21.902811
#
# number of rings (size 3 to 8) (size 9 to 14) (size 15 to 20)
#    0.000    2.500    0.000    3.000    0.000    9.000 
#    0.000    1.667    0.000    0.000    0.000    1.167 
#    0.000    5.333    0.000    0.333    0.000    0.167 
#
# Total GULP energy -267832.213727 kJ/mol
# GULP energy per Si atom -5579.837786 kJ/mol
# Density = 2.185296 g / cm^3
# Si number density = 21.902811 Si / 1000 Ang^3
#
#
#
# Elastic Constant Matrix: (Units=GPa)
#
#
# Indices 1 2 3 4 5 6 
#
# 1 47.1561 11.8861 25.6351 0.0000 0.0000 0.0000
# 2 11.8861 208.0172 146.9908 0.0000 0.0000 0.0000
# 3 25.6351 146.9908 229.5394 0.0000 0.0000 0.0000
# 4 0.0000 0.0000 0.0000 41.3632 0.0000 0.0000
# 5 0.0000 0.0000 0.0000 0.0000 -19.4520 0.0000
# 6 0.0000 0.0000 0.0000 0.0000 0.0000 -0.7394
#
#
#
# Elastic Compliance Matrix: (Units=1/GPa)
#
#
# Indices 1 2 3 4 5 6 
#
# 1 0.022669 0.000902 -0.003109 0.000000 0.000000 0.000000
# 2 0.000902 0.008816 -0.005746 0.000000 0.000000 0.000000
# 3 -0.003109 -0.005746 0.008384 0.000000 0.000000 0.000000
# 4 0.000000 0.000000 0.000000 0.024176 0.000000 0.000000
# 5 0.000000 0.000000 0.000000 0.000000 -0.051409 0.000000
# 6 0.000000 0.000000 0.000000 0.000000 0.000000 -1.352539
#
#
# Mechanical properties :
#
#
# Convention : Reuss Voigt Hill
#
# Bulk Modulus (GPa) = 41.73393 94.85962 68.29678
# Shear Modulus (GPa) = -3.79937 24.24775 10.22419
#
# Velocity S-wave (km/s) = -1.31849 3.33086 2.16290
# Velocity P-wave (km/s) = 4.09605 7.62864 6.12266
#
# Compressibility (1/GPa) = 0.02396132
#
# Stress axis : x y z
#
# Youngs Moduli (GPa) = 44.11296 113.42503 119.27962
#
# Poissons Ratio (x) = -0.10227 0.37085
# Poissons Ratio (y) = -0.03978 0.68544
# Poissons Ratio (z) = 0.13715 0.65179
#
# Static dielectric constant tensor:
#      x y z
#    x 2.175790 0.000000 0.000000 
#    y 0.000000 1.774220 0.000000 
#    z 0.000000 0.000000 1.777060 
# 
# From -- ./inp_files/8641.got.cif
#   From: 2010.05.17/outbox.cif.g08.bks.cpg/sg63_5_cif.got.tgz:8641.got - 2010.06.03 15:47:04.
