data_PCOD9472742
_publ_section_title
;
Structure prediction by ZEFSAII (Michael W. Deem and Ramdas Pophale) SiO2 
 PCOD9472742
Probable space group: C M C M
;
_chemical_formula_sum "Si O2"
_cell_formula_units_Z 80
_cell_length_a 8.672620
_cell_length_b 27.885070
_cell_length_c 18.681669
_cell_angle_alpha 90.000000
_cell_angle_beta 90.000000
_cell_angle_gamma 90.000000
_cell_volume 4517.911608
_symmetry_space_group_name_H-M "C M C M"
_symmetry_group_IT_number 63
_symmetry_cell_setting 'orthorhombic'
loop_
_space_group_symop_operation_xyz
x,y,z
-x,-y,1/2+z
x,-y,-z
-x,y,1/2-z
-x,-y,-z
x,y,1/2-z
-x,y,z
x,-y,1/2+z
1/2+x,1/2+y,z
1/2-x,1/2-y,1/2+z
1/2+x,1/2-y,-z
1/2-x,1/2+y,1/2-z
1/2-x,1/2-y,-z
1/2+x,1/2+y,1/2-z
1/2-x,1/2+y,z
1/2+x,1/2-y,1/2+z
loop_
_atom_site_type_symbol
_atom_site_label
_atom_site_fract_x
_atom_site_fract_y
_atom_site_fract_z
Si Si1 0.315875 0.057953 0.396072
Si Si2 0.315273 0.654622 0.168438
Si Si3 0.183986 0.700447 0.029362
Si Si4 0.685866 0.540124 0.667663
Si Si5 0.815106 0.896146 0.035685
O O1 0.500000 0.060034 0.400060
O O2 0.253384 0.102211 0.348773
O O3 0.245929 0.067399 0.474814
O O4 0.260917 0.008321 0.362319
O O5 0.280228 0.668168 0.250000
O O6 0.500000 0.652475 0.159613
O O7 0.245205 0.689774 0.109273
O O8 0.000000 0.701098 0.029247
O O9 0.250000 0.750000 0.000000
O O10 0.242984 0.655284 0.982667
O O11 0.730682 0.548509 0.750000
O O12 0.500000 0.534245 0.665273
O O13 0.725328 0.583006 0.613329
O O14 0.000000 0.892812 0.029474
#
# Coordination Sequence:
#
# PCOD9472742 Si02
#       5
#    16  16  16  16  16
#     4  11  21  32  51  79 110 143 179 218 261 313
#     4  10  20  35  56  82 111 140 174 220 271 319
#     4  11  22  38  60  82 107 139 177 221 268 321
#     4  10  21  36  53  75 106 144 182 218 259 310
#     4  10  20  36  57  78 103 138 179 222 268 318
#
# _framework density 17.707294999999998
#
# number of rings (size 3 to 8) (size 9 to 14) (size 15 to 20)
#    0.000    1.600    0.000    8.400    0.000    8.400 
#    0.000    1.000    0.000    3.600    0.000    0.000 
#    0.000    0.000    0.000    0.000    0.000    0.000 
#
# Total GULP energy -223511.209168 kJ/mol
# GULP energy per Si atom -5587.780229 kJ/mol
# Density = 1.766699 g / cm^3
# Si number density = 17.707295 Si / 1000 Ang^3
#
#
#
# Elastic Constant Matrix: (Units=GPa)
#
#
# Indices 1 2 3 4 5 6 
#
# 1 99.9367 53.5149 71.1057 0.0000 0.0000 0.0000
# 2 53.5149 104.8050 99.6797 0.0000 0.0000 0.0000
# 3 71.1057 99.6797 168.3939 0.0000 0.0000 0.0000
# 4 0.0000 0.0000 0.0000 16.9585 0.0000 0.0000
# 5 0.0000 0.0000 0.0000 0.0000 5.7062 0.0000
# 6 0.0000 0.0000 0.0000 0.0000 0.0000 29.6404
#
#
#
# Elastic Compliance Matrix: (Units=1/GPa)
#
#
# Indices 1 2 3 4 5 6 
#
# 1 0.014912 -0.003720 -0.004095 0.000000 0.000000 0.000000
# 2 -0.003720 0.022762 -0.011903 0.000000 0.000000 0.000000
# 3 -0.004095 -0.011903 0.014713 0.000000 0.000000 0.000000
# 4 0.000000 0.000000 0.000000 0.058968 0.000000 0.000000
# 5 0.000000 0.000000 0.000000 0.000000 0.175247 0.000000
# 6 0.000000 0.000000 0.000000 0.000000 0.000000 0.033738
#
#
# Mechanical properties :
#
#
# Convention : Reuss Voigt Hill
#
# Bulk Modulus (GPa) = 77.20808 91.30404 84.25606
# Shear Modulus (GPa) = 13.73281 20.38337 17.05809
#
# Velocity S-wave (km/s) = 2.78788 3.39651 3.10713
# Velocity P-wave (km/s) = 7.35256 8.18881 7.78192
#
# Compressibility (1/GPa) = 0.01295201
#
# Stress axis : x y z
#
# Youngs Moduli (GPa) = 67.06206 43.93337 67.96498
#
# Poissons Ratio (x) = 0.16341 0.27830
# Poissons Ratio (y) = 0.24944 0.80899
# Poissons Ratio (z) = 0.27460 0.52294
#
# Static dielectric constant tensor:
#      x y z
#    x 1.593890 0.000000 0.000000 
#    y 0.000000 1.568110 0.000000 
#    z 0.000000 0.000000 1.613040 
# 
# From -- ./inp_files/40707.got.cif
#   From: 2010.05.17/outbox.cif.g08.bks.cpg/sg63_21_cif.got.tgz:40707.got - 2010.06.03 15:47:04.
