data_PCOD9472312
_publ_section_title
;
Structure prediction by ZEFSAII (Michael W. Deem and Ramdas Pophale) SiO2 
 PCOD9472312
Probable space group: C M C M
;
_chemical_formula_sum "Si O2"
_cell_formula_units_Z 72
_cell_length_a 27.155369
_cell_length_b 14.774328
_cell_length_c 9.551695
_cell_angle_alpha 90.000000
_cell_angle_beta 90.000000
_cell_angle_gamma 90.000000
_cell_volume 3832.162276
_symmetry_space_group_name_H-M "C M C M"
_symmetry_group_IT_number 63
_symmetry_cell_setting 'orthorhombic'
loop_
_space_group_symop_operation_xyz
x,y,z
-x,-y,1/2+z
x,-y,-z
-x,y,1/2-z
-x,-y,-z
x,y,1/2-z
-x,y,z
x,-y,1/2+z
1/2+x,1/2+y,z
1/2-x,1/2-y,1/2+z
1/2+x,1/2-y,-z
1/2-x,1/2+y,1/2-z
1/2-x,1/2-y,-z
1/2+x,1/2+y,1/2-z
1/2-x,1/2+y,z
1/2+x,1/2-y,1/2+z
loop_
_atom_site_type_symbol
_atom_site_label
_atom_site_fract_x
_atom_site_fract_y
_atom_site_fract_z
Si Si1 0.232946 0.163629 0.587788
Si Si2 0.125992 0.910918 0.416387
Si Si3 0.096238 0.714260 0.084530
Si Si4 0.161971 0.586577 0.588017
Si Si5 0.500000 0.906289 0.915736
O O1 0.226013 0.191477 0.750000
O O2 0.250000 0.250000 0.500000
O O3 0.181747 0.118801 0.541805
O O4 0.279018 0.095522 0.583088
O O5 0.126409 0.929510 0.250000
O O6 0.092900 0.821645 0.440697
O O7 0.111296 0.000000 0.500000
O O8 0.108511 0.703160 0.250000
O O9 0.047617 0.655901 0.055232
O O10 0.138613 0.673103 0.987476
O O11 0.145421 0.500000 0.500000
O O12 0.146821 0.580423 0.750000
O O13 0.500000 0.927176 0.750000
O O14 0.500000 0.000000 0.000000
#
# Coordination Sequence:
#
# PCOD9472312 Si02
#       5
#    16  16  16  16   8
#     4  10  20  34  53  79 111 149 190 230 273 325
#     4  10  21  37  57  81 112 151 190 230 277 328
#     4  10  21  39  60  82 112 146 186 234 284 337
#     4  11  22  34  53  82 113 148 187 228 277 333
#     4  10  22  40  63  88 112 144 181 228 287 344
#
# _framework density 18.788347999999999
#
# number of rings (size 3 to 8) (size 9 to 14) (size 15 to 20)
#    0.000    1.778    2.222    2.000    0.000    5.333 
#    0.000    0.556    0.000    0.000    0.000    0.000 
#    0.000    0.000    0.000    0.000    0.000    0.000 
#
# Total GULP energy -200968.446913 kJ/mol
# GULP energy per Si atom -5582.456859 kJ/mol
# Density = 1.874559 g / cm^3
# Si number density = 18.788348 Si / 1000 Ang^3
#
#
#
# Elastic Constant Matrix: (Units=GPa)
#
#
# Indices 1 2 3 4 5 6 
#
# 1 74.0978 34.5812 27.5063 0.0000 0.0000 0.0000
# 2 34.5812 153.3103 74.3230 0.0000 0.0000 0.0000
# 3 27.5063 74.3230 70.8100 0.0000 0.0000 0.0000
# 4 0.0000 0.0000 0.0000 39.9992 0.0000 0.0000
# 5 0.0000 0.0000 0.0000 0.0000 15.6730 0.0000
# 6 0.0000 0.0000 0.0000 0.0000 0.0000 22.9073
#
#
#
# Elastic Compliance Matrix: (Units=1/GPa)
#
#
# Indices 1 2 3 4 5 6 
#
# 1 0.015878 -0.001204 -0.004904 0.000000 0.000000 0.000000
# 2 -0.001204 0.013372 -0.013567 0.000000 0.000000 0.000000
# 3 -0.004904 -0.013567 0.030268 0.000000 0.000000 0.000000
# 4 0.000000 0.000000 0.000000 0.025001 0.000000 0.000000
# 5 0.000000 0.000000 0.000000 0.000000 0.063804 0.000000
# 6 0.000000 0.000000 0.000000 0.000000 0.000000 0.043654
#
#
# Mechanical properties :
#
#
# Convention : Reuss Voigt Hill
#
# Bulk Modulus (GPa) = 49.58715 63.44879 56.51797
# Shear Modulus (GPa) = 21.00410 26.50306 23.75358
#
# Velocity S-wave (km/s) = 3.34718 3.75989 3.55952
# Velocity P-wave (km/s) = 6.43334 7.25897 6.85859
#
# Compressibility (1/GPa) = 0.02016652
#
# Stress axis : x y z
#
# Youngs Moduli (GPa) = 62.97990 74.78587 33.03871
#
# Poissons Ratio (x) = 0.09005 0.16202
# Poissons Ratio (y) = 0.07583 0.44824
# Poissons Ratio (z) = 0.30886 1.01463
#
# Static dielectric constant tensor:
#      x y z
#    x 1.679890 0.000000 0.000000 
#    y 0.000000 1.646740 0.000000 
#    z 0.000000 0.000000 1.633620 
# 
# From -- ./inp_files/11682.got.cif
#   From: 2010.05.17/outbox.cif.g08.bks.cpg/sg63_6_cif.got.tgz:11682.got - 2010.06.03 15:47:04.
