data_PCOD9472064
_publ_section_title
;
Structure prediction by ZEFSAII (Michael W. Deem and Ramdas Pophale) SiO2 
 PCOD9472064
Probable space group: C M C M
;
_chemical_formula_sum "Si O2"
_cell_formula_units_Z 80
_cell_length_a 26.683320
_cell_length_b 19.441078
_cell_length_c 8.830918
_cell_angle_alpha 90.000000
_cell_angle_beta 90.000000
_cell_angle_gamma 90.000000
_cell_volume 4581.060838
_symmetry_space_group_name_H-M "C M C M"
_symmetry_group_IT_number 63
_symmetry_cell_setting 'orthorhombic'
loop_
_space_group_symop_operation_xyz
x,y,z
-x,-y,1/2+z
x,-y,-z
-x,y,1/2-z
-x,-y,-z
x,y,1/2-z
-x,y,z
x,-y,1/2+z
1/2+x,1/2+y,z
1/2-x,1/2-y,1/2+z
1/2+x,1/2-y,-z
1/2-x,1/2+y,1/2-z
1/2-x,1/2-y,-z
1/2+x,1/2+y,1/2-z
1/2-x,1/2+y,z
1/2+x,1/2-y,1/2+z
loop_
_atom_site_type_symbol
_atom_site_label
_atom_site_fract_x
_atom_site_fract_y
_atom_site_fract_z
Si Si1 0.644845 0.923434 0.430206
Si Si2 0.246553 0.576920 0.431470
Si Si3 0.442288 0.833039 0.568601
Si Si4 0.357633 0.576423 0.430813
Si Si5 0.556926 0.328779 0.068119
O O1 0.648138 0.928647 0.250000
O O2 0.696701 0.891651 0.495579
O O3 0.597804 0.878493 0.481639
O O4 0.639749 0.000000 0.500000
O O5 0.247980 0.500000 0.500000
O O6 0.240825 0.574142 0.250000
O O7 0.301824 0.605552 0.467538
O O8 0.435804 0.841741 0.750000
O O9 0.500000 0.851357 0.532332
O O10 0.435767 0.752060 0.534269
O O11 0.361974 0.500000 0.500000
O O12 0.360638 0.570580 0.250000
O O13 0.401282 0.624608 0.492223
O O14 0.559854 0.336285 0.250000
O O15 0.500000 0.347465 0.021933
#
# Coordination Sequence:
#
# PCOD9472064 Si02
#       5
#    16  16  16  16  16
#     4  11  21  33  53  79 105 134 169 209 253 300
#     4   9  17  31  50  73 102 134 168 206 252 301
#     4   9  19  37  57  75 100 135 171 209 256 305
#     4  10  20  33  53  79 105 135 171 212 254 299
#     4   9  19  36  56  76 101 135 171 209 257 307
#
# _framework density 17.463204000000001
#
# number of rings (size 3 to 8) (size 9 to 14) (size 15 to 20)
#    0.000    2.400    0.000    5.400    0.000    4.800 
#    0.000    3.000    0.000    0.000    0.000    0.000 
#    0.000    0.000    0.000    0.000    0.000    0.000 
#
# Total GULP energy -223041.391281 kJ/mol
# GULP energy per Si atom -5576.034782 kJ/mol
# Density = 1.742346 g / cm^3
# Si number density = 17.463204 Si / 1000 Ang^3
#
#
#
# Elastic Constant Matrix: (Units=GPa)
#
#
# Indices 1 2 3 4 5 6 
#
# 1 193.7747 79.8590 86.8357 0.0000 0.0000 0.0000
# 2 79.8590 50.0217 44.3023 0.0000 0.0000 0.0000
# 3 86.8357 44.3023 88.1233 0.0000 0.0000 0.0000
# 4 0.0000 0.0000 0.0000 24.4380 0.0000 0.0000
# 5 0.0000 0.0000 0.0000 0.0000 26.2075 0.0000
# 6 0.0000 0.0000 0.0000 0.0000 0.0000 -123.6520
#
#
#
# Elastic Compliance Matrix: (Units=1/GPa)
#
#
# Indices 1 2 3 4 5 6 
#
# 1 0.016401 -0.021397 -0.005404 0.000000 0.000000 0.000000
# 2 -0.021397 0.063953 -0.011066 0.000000 0.000000 0.000000
# 3 -0.005404 -0.011066 0.022236 0.000000 0.000000 0.000000
# 4 0.000000 0.000000 0.000000 0.040920 0.000000 0.000000
# 5 0.000000 0.000000 0.000000 0.000000 0.038157 0.000000
# 6 0.000000 0.000000 0.000000 0.000000 0.000000 -0.008087
#
#
# Mechanical properties :
#
#
# Convention : Reuss Voigt Hill
#
# Bulk Modulus (GPa) = 37.23792 83.76820 60.50306
# Shear Modulus (GPa) = 19.35991 -6.53978 6.41007
#
# Velocity S-wave (km/s) = 3.33319 -1.93727 1.91796
# Velocity P-wave (km/s) = 6.01527 6.56266 6.29492
#
# Compressibility (1/GPa) = 0.02685434
#
# Stress axis : x y z
#
# Youngs Moduli (GPa) = 60.97362 15.63651 44.97198
#
# Poissons Ratio (x) = 0.33458 0.24302
# Poissons Ratio (y) = 1.30467 0.49768
# Poissons Ratio (z) = 0.32949 0.17304
#
# Static dielectric constant tensor:
#      x y z
#    x 1.624580 0.000000 0.000000 
#    y 0.000000 1.565030 0.000000 
#    z 0.000000 0.000000 1.579940 
# 
# From -- ./inp_files/12010.got.cif
#   From: 2010.05.17/outbox.cif.g08.bks.cpg/sg63_7_cif.got.tgz:12010.got - 2010.06.03 15:47:04.
