data_PCOD9472009
_publ_section_title
;
Structure prediction by ZEFSAII (Michael W. Deem and Ramdas Pophale) SiO2 
 PCOD9472009
Probable space group: C M C M
;
_chemical_formula_sum "Si O2"
_cell_formula_units_Z 116
_cell_length_a 10.014863
_cell_length_b 24.982247
_cell_length_c 22.709488
_cell_angle_alpha 90.000000
_cell_angle_beta 90.000000
_cell_angle_gamma 90.000000
_cell_volume 5681.772670
_symmetry_space_group_name_H-M "C M C M"
_symmetry_group_IT_number 63
_symmetry_cell_setting 'orthorhombic'
loop_
_space_group_symop_operation_xyz
x,y,z
-x,-y,1/2+z
x,-y,-z
-x,y,1/2-z
-x,-y,-z
x,y,1/2-z
-x,y,z
x,-y,1/2+z
1/2+x,1/2+y,z
1/2-x,1/2-y,1/2+z
1/2+x,1/2-y,-z
1/2-x,1/2+y,1/2-z
1/2-x,1/2-y,-z
1/2+x,1/2+y,1/2-z
1/2-x,1/2+y,z
1/2+x,1/2-y,1/2+z
loop_
_atom_site_type_symbol
_atom_site_label
_atom_site_fract_x
_atom_site_fract_y
_atom_site_fract_z
Si Si1 0.346726 0.800342 0.991979
Si Si2 0.287143 0.950458 0.593613
Si Si3 0.848166 0.050863 0.869460
Si Si4 0.146758 0.893775 0.492923
Si Si5 0.350238 0.742955 0.180437
Si Si6 0.000000 0.500000 0.000000
Si Si7 0.653047 0.334772 0.179212
Si Si8 0.643355 0.161488 0.357483
O O1 0.500000 0.794789 0.013807
O O2 0.356358 0.812722 0.922549
O O3 0.250000 0.750000 0.000000
O O4 0.266599 0.851833 0.016448
O O5 0.169323 0.923953 0.554443
O O6 0.345149 0.901571 0.631271
O O7 0.240421 0.998542 0.635090
O O8 0.385906 0.973776 0.544073
O O9 0.850268 0.065342 0.938823
O O10 0.803225 0.105443 0.838029
O O11 0.000000 0.040562 0.849919
O O12 0.000000 0.867277 0.492674
O O13 0.361905 0.753399 0.250000
O O14 0.500000 0.741665 0.155288
O O15 0.255176 0.790157 0.155955
O O16 0.269825 0.687943 0.173216
O O17 0.647973 0.330730 0.250000
O O18 0.500000 0.327133 0.157017
O O19 0.500000 0.174766 0.328963
#
# Coordination Sequence:
#
# PCOD9472009 Si02
#       8
#    16  16  16  16  16   4  16  16
#     4  10  22  36  52  76 115 152 189 236 289 343
#     4  11  21  36  58  84 120 153 198 240 283 343
#     4  10  20  34  56  84 112 149 195 238 284 339
#     4  10  20  33  52  77 112 151 192 233 279 337
#     4  10  22  41  63  88 116 149 195 249 304 357
#     4  12  20  36  58  80 122 160 194 236 280 346
#     4   9  19  38  62  86 114 151 193 241 295 355
#     4  10  22  38  58  85 115 154 197 243 290 353
#
# _framework density 20.416163999999998
#
# number of rings (size 3 to 8) (size 9 to 14) (size 15 to 20)
#    0.000    1.931    2.069    1.241    2.897    5.241 
#    1.241    0.690    0.000    1.655    0.000    0.000 
#    0.000    0.000    0.000    0.000    0.000    0.000 
#
# Total GULP energy -323080.634619 kJ/mol
# GULP energy per Si atom -5570.355769 kJ/mol
# Density = 2.036970 g / cm^3
# Si number density = 20.416164 Si / 1000 Ang^3
#
#
#
# Elastic Constant Matrix: (Units=GPa)
#
#
# Indices 1 2 3 4 5 6 
#
# 1 159.9006 78.8309 12.0051 0.0000 0.0000 0.0000
# 2 78.8309 130.8545 3.8750 0.0000 0.0000 0.0000
# 3 12.0051 3.8750 10.9567 0.0000 0.0000 0.0000
# 4 0.0000 0.0000 0.0000 31.0755 0.0000 0.0000
# 5 0.0000 0.0000 0.0000 0.0000 12.6145 0.0000
# 6 0.0000 0.0000 0.0000 0.0000 0.0000 3.7226
#
#
#
# Elastic Compliance Matrix: (Units=1/GPa)
#
#
# Indices 1 2 3 4 5 6 
#
# 1 0.009635 -0.005550 -0.008594 0.000000 0.000000 0.000000
# 2 -0.005550 0.010920 0.002219 0.000000 0.000000 0.000000
# 3 -0.008594 0.002219 0.099900 0.000000 0.000000 0.000000
# 4 0.000000 0.000000 0.000000 0.032180 0.000000 0.000000
# 5 0.000000 0.000000 0.000000 0.000000 0.079274 0.000000
# 6 0.000000 0.000000 0.000000 0.000000 0.000000 0.268628
#
#
# Mechanical properties :
#
#
# Convention : Reuss Voigt Hill
#
# Bulk Modulus (GPa) = 10.35149 54.57044 32.46096
# Shear Modulus (GPa) = 8.98329 23.28257 16.13293
#
# Velocity S-wave (km/s) = 2.09991 3.38064 2.81411
# Velocity P-wave (km/s) = 3.31071 6.48270 5.14714
#
# Compressibility (1/GPa) = 0.09660447
#
# Stress axis : x y z
#
# Youngs Moduli (GPa) = 103.78438 91.57555 10.01002
#
# Poissons Ratio (x) = 0.50826 0.08603
# Poissons Ratio (y) = 0.57602 -0.02221
# Poissons Ratio (z) = 0.89196 -0.20322
#
# Static dielectric constant tensor:
#      x y z
#    x 1.769230 0.000000 0.000000 
#    y 0.000000 1.740070 0.000000 
#    z 0.000000 0.000000 1.732400 
# 
# From -- ./inp_files/60468.got.cif
#   From: 2010.05.17/outbox.cif.g08.bks.cpg/sg63_31_cif.got.tgz:60468.got - 2010.06.03 15:47:04.
