data_PCOD9472134
_publ_section_title
;
Structure prediction by ZEFSAII (Michael W. Deem and Ramdas Pophale) SiO2 
 PCOD9472134
Probable space group: C M C M
;
_chemical_formula_sum "Si O2"
_cell_formula_units_Z 88
_cell_length_a 26.635693
_cell_length_b 28.543687
_cell_length_c 8.818215
_cell_angle_alpha 90.000000
_cell_angle_beta 90.000000
_cell_angle_gamma 90.000000
_cell_volume 6704.320296
_symmetry_space_group_name_H-M "C M C M"
_symmetry_group_IT_number 63
_symmetry_cell_setting 'orthorhombic'
loop_
_space_group_symop_operation_xyz
x,y,z
-x,-y,1/2+z
x,-y,-z
-x,y,1/2-z
-x,-y,-z
x,y,1/2-z
-x,y,z
x,-y,1/2+z
1/2+x,1/2+y,z
1/2-x,1/2-y,1/2+z
1/2+x,1/2-y,-z
1/2-x,1/2+y,1/2-z
1/2-x,1/2-y,-z
1/2+x,1/2+y,1/2-z
1/2-x,1/2+y,z
1/2+x,1/2-y,1/2+z
loop_
_atom_site_type_symbol
_atom_site_label
_atom_site_fract_x
_atom_site_fract_y
_atom_site_fract_z
Si Si1 0.247401 0.634014 0.426802
Si Si2 0.200408 0.725825 0.068919
Si Si3 0.852064 0.192765 0.074138
Si Si4 0.500000 0.552263 0.932364
Si Si5 0.599429 0.401116 0.933771
Si Si6 0.199006 0.949284 0.069565
O O1 0.240194 0.621234 0.250000
O O2 0.204581 0.671071 0.475632
O O3 0.299313 0.664059 0.434142
O O4 0.258153 0.588241 0.524588
O O5 0.204194 0.727161 0.250000
O O6 0.250000 0.750000 0.000000
O O7 0.155224 0.759008 0.015397
O O8 0.860620 0.204040 0.250000
O O9 0.891960 0.153598 0.024188
O O10 0.500000 0.550692 0.750000
O O11 0.500000 0.500000 0.000000
O O12 0.549300 0.578264 0.994748
O O13 0.598873 0.404202 0.750000
O O14 0.647226 0.430038 0.995830
O O15 0.193300 0.951849 0.250000
O O16 0.209633 0.000000 0.000000
#
# Coordination Sequence:
#
# PCOD9472134 Si02
#       6
#    16  16  16   8  16  16
#     4   8  15  26  36  51  73  95 117 143 174 209
#     4   9  15  22  35  53  74  94 112 137 170 207
#     4   8  15  26  40  55  72  91 111 138 174 214
#     4  12  24  36  48  60  72  90 118 154 193 234
#     4  10  20  34  46  57  73  92 116 150 189 228
#     4  11  20  29  41  55  71  94 122 154 187 221
#
# _framework density 13.125864999999999
#
# number of rings (size 3 to 8) (size 9 to 14) (size 15 to 20)
#    0.000    2.545    0.000    6.273    0.000    8.000 
#    0.000    0.000    0.000    0.000    0.000    0.000 
#    0.000    0.000    0.000    0.000    0.000    0.000 
#
# Total GULP energy -244944.772391 kJ/mol
# GULP energy per Si atom -5566.926645 kJ/mol
# Density = 1.309599 g / cm^3
# Si number density = 13.125865 Si / 1000 Ang^3
#
#
#
# Elastic Constant Matrix: (Units=GPa)
#
#
# Indices 1 2 3 4 5 6 
#
# 1 34.9409 49.0745 24.9190 0.0000 0.0000 0.0000
# 2 49.0745 116.0413 55.3225 0.0000 0.0000 0.0000
# 3 24.9190 55.3225 75.6763 0.0000 0.0000 0.0000
# 4 0.0000 0.0000 0.0000 23.8195 0.0000 0.0000
# 5 0.0000 0.0000 0.0000 0.0000 14.6511 0.0000
# 6 0.0000 0.0000 0.0000 0.0000 0.0000 23.0608
#
#
#
# Elastic Compliance Matrix: (Units=1/GPa)
#
#
# Indices 1 2 3 4 5 6 
#
# 1 0.070721 -0.028867 -0.002185 0.000000 0.000000 0.000000
# 2 -0.028867 0.025011 -0.008778 0.000000 0.000000 0.000000
# 3 -0.002185 -0.008778 0.020351 0.000000 0.000000 0.000000
# 4 0.000000 0.000000 0.000000 0.041982 0.000000 0.000000
# 5 0.000000 0.000000 0.000000 0.000000 0.068254 0.000000
# 6 0.000000 0.000000 0.000000 0.000000 0.000000 0.043364
#
#
# Mechanical properties :
#
#
# Convention : Reuss Voigt Hill
#
# Bulk Modulus (GPa) = 27.45509 53.92117 40.68813
# Shear Modulus (GPa) = 13.83190 18.79580 16.31385
#
# Velocity S-wave (km/s) = 3.24973 3.78824 3.52927
# Velocity P-wave (km/s) = 5.91973 7.76554 6.90459
#
# Compressibility (1/GPa) = 0.03642311
#
# Stress axis : x y z
#
# Youngs Moduli (GPa) = 14.14004 39.98298 49.13794
#
# Poissons Ratio (x) = 1.15418 0.10734
# Poissons Ratio (y) = 0.40818 0.43135
# Poissons Ratio (z) = 0.03089 0.35099
#
# Static dielectric constant tensor:
#      x y z
#    x 1.425700 0.000000 0.000000 
#    y 0.000000 1.463080 0.000000 
#    z 0.000000 0.000000 1.436790 
# 
# From -- ./inp_files/14799.got.cif
#   From: 2010.05.17/outbox.cif.g08.bks.cpg/sg63_8_cif.got.tgz:14799.got - 2010.06.03 15:47:04.
