data_PCOD9472997
_publ_section_title
;
Structure prediction by ZEFSAII (Michael W. Deem and Ramdas Pophale) SiO2 
 PCOD9472997
Probable space group: C M C M
;
_chemical_formula_sum "Si O2"
_cell_formula_units_Z 96
_cell_length_a 11.183813
_cell_length_b 25.162304
_cell_length_c 20.038349
_cell_angle_alpha 90.000000
_cell_angle_beta 90.000000
_cell_angle_gamma 90.000000
_cell_volume 5639.001863
_symmetry_space_group_name_H-M "C M C M"
_symmetry_group_IT_number 63
_symmetry_cell_setting 'orthorhombic'
loop_
_space_group_symop_operation_xyz
x,y,z
-x,-y,1/2+z
x,-y,-z
-x,y,1/2-z
-x,-y,-z
x,y,1/2-z
-x,y,z
x,-y,1/2+z
1/2+x,1/2+y,z
1/2-x,1/2-y,1/2+z
1/2+x,1/2-y,-z
1/2-x,1/2+y,1/2-z
1/2-x,1/2-y,-z
1/2+x,1/2+y,1/2-z
1/2-x,1/2+y,z
1/2+x,1/2-y,1/2+z
loop_
_atom_site_type_symbol
_atom_site_label
_atom_site_fract_x
_atom_site_fract_y
_atom_site_fract_z
Si Si1 0.639040 0.258441 0.949037
Si Si2 0.222445 0.873390 0.560199
Si Si3 0.141704 0.559750 0.328341
Si Si4 0.361904 0.142364 0.576153
Si Si5 0.000000 0.006644 0.825012
Si Si6 0.000000 0.054478 0.041801
Si Si7 0.257509 0.056198 0.672677
O O1 0.500000 0.258727 0.975409
O O2 0.665326 0.316606 0.919549
O O3 0.646709 0.204870 0.905339
O O4 0.750000 0.250000 0.000000
O O5 0.285746 0.902533 0.621861
O O6 0.314306 0.864077 0.499382
O O7 0.117709 0.910673 0.530881
O O8 0.173984 0.567546 0.250000
O O9 0.173186 0.498400 0.344660
O O10 0.000000 0.568346 0.335415
O O11 0.500000 0.126760 0.578600
O O12 0.290887 0.104089 0.625010
O O13 0.118226 0.041611 0.833036
O O14 0.000000 0.984335 0.750000
O O15 0.000000 0.961795 0.880562
O O16 0.000000 0.000000 0.000000
O O17 0.284869 0.068623 0.750000
#
# Coordination Sequence:
#
# PCOD9472997 Si02
#       7
#    16  16  16  16   8   8  16
#     4   9  19  37  56  80 110 148 188 229 278 331
#     4  11  21  35  57  80 112 143 181 228 273 325
#     4  10  21  36  55  80 111 146 180 217 274 338
#     4  10  21  36  56  80 108 141 184 227 272 323
#     4  10  20  36  56  78 110 148 180 215 270 335
#     4  12  22  32  52  84 116 138 176 224 273 319
#     4  10  20  36  56  80 110 143 179 223 274 329
#
# _framework density 17.024290000000001
#
# number of rings (size 3 to 8) (size 9 to 14) (size 15 to 20)
#    0.000    1.833    2.500    2.000    0.000    1.667 
#    1.500    2.500    0.000    1.000    0.000    0.000 
#    0.000    0.000    0.000    0.000    0.000    0.000 
#
# Total GULP energy -267509.948562 kJ/mol
# GULP energy per Si atom -5573.123928 kJ/mol
# Density = 1.698554 g / cm^3
# Si number density = 17.024290 Si / 1000 Ang^3
#
#
#
# Elastic Constant Matrix: (Units=GPa)
#
#
# Indices 1 2 3 4 5 6 
#
# 1 71.2988 20.3340 7.0971 0.0000 0.0000 0.0000
# 2 20.3340 102.7526 32.8404 0.0000 0.0000 0.0000
# 3 7.0971 32.8404 37.1780 0.0000 0.0000 0.0000
# 4 0.0000 0.0000 0.0000 19.7443 0.0000 0.0000
# 5 0.0000 0.0000 0.0000 0.0000 23.3770 0.0000
# 6 0.0000 0.0000 0.0000 0.0000 0.0000 14.6211
#
#
#
# Elastic Compliance Matrix: (Units=1/GPa)
#
#
# Indices 1 2 3 4 5 6 
#
# 1 0.014867 -0.002836 -0.000333 0.000000 0.000000 0.000000
# 2 -0.002836 0.014101 -0.011915 0.000000 0.000000 0.000000
# 3 -0.000333 -0.011915 0.037486 0.000000 0.000000 0.000000
# 4 0.000000 0.000000 0.000000 0.050648 0.000000 0.000000
# 5 0.000000 0.000000 0.000000 0.000000 0.042777 0.000000
# 6 0.000000 0.000000 0.000000 0.000000 0.000000 0.068394
#
#
# Mechanical properties :
#
#
# Convention : Reuss Voigt Hill
#
# Bulk Modulus (GPa) = 27.55800 36.86362 32.21081
# Shear Modulus (GPa) = 18.48177 21.61233 20.04705
#
# Velocity S-wave (km/s) = 3.29844 3.56687 3.43528
# Velocity P-wave (km/s) = 5.54336 6.21804 5.89037
#
# Compressibility (1/GPa) = 0.03628711
#
# Stress axis : x y z
#
# Youngs Moduli (GPa) = 67.26143 70.91542 26.67667
#
# Poissons Ratio (x) = 0.20109 0.00889
# Poissons Ratio (y) = 0.19073 0.31785
# Poissons Ratio (z) = 0.02242 0.84494
#
# Static dielectric constant tensor:
#      x y z
#    x 1.610070 0.000000 0.000000 
#    y 0.000000 1.578680 0.000000 
#    z 0.000000 0.000000 1.560300 
# 
# From -- ./inp_files/42579.got.cif
#   From: 2010.05.17/outbox.cif.g08.bks.cpg/sg63_22_cif.got.tgz:42579.got - 2010.06.03 15:47:04.
