data_PCOD9472311
_publ_section_title
;
Structure prediction by ZEFSAII (Michael W. Deem and Ramdas Pophale) SiO2 
 PCOD9472311
Probable space group: C M C M
;
_chemical_formula_sum "Si O2"
_cell_formula_units_Z 72
_cell_length_a 16.509448
_cell_length_b 13.036415
_cell_length_c 17.686919
_cell_angle_alpha 90.000000
_cell_angle_beta 90.000000
_cell_angle_gamma 90.000000
_cell_volume 3806.649730
_symmetry_space_group_name_H-M "C M C M"
_symmetry_group_IT_number 63
_symmetry_cell_setting 'orthorhombic'
loop_
_space_group_symop_operation_xyz
x,y,z
-x,-y,1/2+z
x,-y,-z
-x,y,1/2-z
-x,-y,-z
x,y,1/2-z
-x,y,z
x,-y,1/2+z
1/2+x,1/2+y,z
1/2-x,1/2-y,1/2+z
1/2+x,1/2-y,-z
1/2-x,1/2+y,1/2-z
1/2-x,1/2-y,-z
1/2+x,1/2+y,1/2-z
1/2-x,1/2+y,z
1/2+x,1/2-y,1/2+z
loop_
_atom_site_type_symbol
_atom_site_label
_atom_site_fract_x
_atom_site_fract_y
_atom_site_fract_z
Si Si1 0.406384 0.199007 0.992676
Si Si2 0.090686 0.030690 0.339936
Si Si3 0.182874 0.500000 0.500000
Si Si4 0.693355 0.642129 0.588934
Si Si5 0.662718 0.748420 0.161828
O O1 0.500000 0.218161 0.009782
O O2 0.392808 0.197052 0.901745
O O3 0.375139 0.091763 0.027598
O O4 0.347587 0.286869 0.025496
O O5 0.086725 0.019760 0.250000
O O6 0.124439 0.926096 0.373279
O O7 0.000000 0.054282 0.368725
O O8 0.148655 0.127818 0.353772
O O9 0.243062 0.440189 0.444086
O O10 0.746450 0.713526 0.644302
O O11 0.642064 0.767606 0.250000
#
# Coordination Sequence:
#
# PCOD9472311 Si02
#       5
#    16  16   8  16  16
#     4  11  22  36  57  83 111 142 178 225 274 319
#     4  10  20  34  53  79 111 143 177 223 273 316
#     4  10  21  36  53  76 106 138 174 218 271 320
#     4  11  20  36  57  82 106 141 184 224 265 322
#     4  10  21  36  55  80 110 144 182 221 265 321
#
# _framework density 18.914269999999998
#
# number of rings (size 3 to 8) (size 9 to 14) (size 15 to 20)
#    0.000    1.556    0.000    7.667    0.000    1.333 
#    0.000    3.333    0.000    1.333    0.000    0.000 
#    0.000    0.000    0.000    0.000    0.000    0.000 
#
# Total GULP energy -200728.307895 kJ/mol
# GULP energy per Si atom -5575.786330 kJ/mol
# Density = 1.887122 g / cm^3
# Si number density = 18.914270 Si / 1000 Ang^3
#
#
#
# Elastic Constant Matrix: (Units=GPa)
#
#
# Indices 1 2 3 4 5 6 
#
# 1 88.9004 48.6197 36.3432 0.0000 0.0000 0.0000
# 2 48.6197 112.3050 50.5933 0.0000 0.0000 0.0000
# 3 36.3432 50.5933 54.9732 0.0000 0.0000 0.0000
# 4 0.0000 0.0000 0.0000 19.4591 0.0000 0.0000
# 5 0.0000 0.0000 0.0000 0.0000 -174.7794 0.0000
# 6 0.0000 0.0000 0.0000 0.0000 0.0000 48.1164
#
#
#
# Elastic Compliance Matrix: (Units=1/GPa)
#
#
# Indices 1 2 3 4 5 6 
#
# 1 0.016294 -0.003760 -0.007311 0.000000 0.000000 0.000000
# 2 -0.003760 0.016079 -0.012312 0.000000 0.000000 0.000000
# 3 -0.007311 -0.012312 0.034355 0.000000 0.000000 0.000000
# 4 0.000000 0.000000 0.000000 0.051390 0.000000 0.000000
# 5 0.000000 0.000000 0.000000 0.000000 -0.005721 0.000000
# 6 0.000000 0.000000 0.000000 0.000000 0.000000 0.020783
#
#
# Mechanical properties :
#
#
# Convention : Reuss Voigt Hill
#
# Bulk Modulus (GPa) = 50.09766 58.58789 54.34278
# Shear Modulus (GPa) = 26.79539 -13.39928 6.69805
#
# Velocity S-wave (km/s) = 3.76796 -2.66451 1.88387
# Velocity P-wave (km/s) = 6.74346 4.64506 5.79011
#
# Compressibility (1/GPa) = 0.01996101
#
# Stress axis : x y z
#
# Youngs Moduli (GPa) = 61.37216 62.19439 29.10787
#
# Poissons Ratio (x) = 0.23387 0.21282
# Poissons Ratio (y) = 0.23078 0.35836
# Poissons Ratio (z) = 0.44872 0.76571
#
# Static dielectric constant tensor:
#      x y z
#    x 1.675150 0.000000 0.000000 
#    y 0.000000 1.669040 0.000000 
#    z 0.000000 0.000000 1.658110 
# 
# From -- ./inp_files/45219.got.cif
#   From: 2010.05.17/outbox.cif.g08.bks.cpg/sg63_23_cif.got.tgz:45219.got - 2010.06.03 15:47:04.
