data_PCOD9472965
_publ_section_title
;
Structure prediction by ZEFSAII (Michael W. Deem and Ramdas Pophale) SiO2 
 PCOD9472965
Probable space group: C M C M
;
_chemical_formula_sum "Si O2"
_cell_formula_units_Z 104
_cell_length_a 31.111530
_cell_length_b 20.157578
_cell_length_c 8.580032
_cell_angle_alpha 90.000000
_cell_angle_beta 90.000000
_cell_angle_gamma 90.000000
_cell_volume 5380.822003
_symmetry_space_group_name_H-M "C M C M"
_symmetry_group_IT_number 63
_symmetry_cell_setting 'orthorhombic'
loop_
_space_group_symop_operation_xyz
x,y,z
-x,-y,1/2+z
x,-y,-z
-x,y,1/2-z
-x,-y,-z
x,y,1/2-z
-x,y,z
x,-y,1/2+z
1/2+x,1/2+y,z
1/2-x,1/2-y,1/2+z
1/2+x,1/2-y,-z
1/2-x,1/2+y,1/2-z
1/2-x,1/2-y,-z
1/2+x,1/2+y,1/2-z
1/2-x,1/2+y,z
1/2+x,1/2-y,1/2+z
loop_
_atom_site_type_symbol
_atom_site_label
_atom_site_fract_x
_atom_site_fract_y
_atom_site_fract_z
Si Si1 0.740827 0.427644 0.936895
Si Si2 0.181510 0.352061 0.060201
Si Si3 0.917724 0.658620 0.560085
Si Si4 0.306543 0.295353 0.931497
Si Si5 0.590444 0.694539 0.069516
Si Si6 0.000000 0.425794 0.438858
Si Si7 0.951268 0.066896 0.566368
O O1 0.737726 0.429810 0.750000
O O2 0.713888 0.363103 0.996835
O O3 0.727886 0.500000 0.000000
O O4 0.788999 0.409414 0.990986
O O5 0.183367 0.352459 0.250000
O O6 0.131320 0.358687 0.014409
O O7 0.199864 0.279650 0.004700
O O8 0.917378 0.659201 0.750000
O O9 0.926005 0.734452 0.510661
O O10 0.956415 0.611588 0.509225
O O11 0.292921 0.292364 0.750000
O O12 0.358007 0.302921 0.934699
O O13 0.577309 0.686995 0.250000
O O14 0.573570 0.632571 0.976668
O O15 0.000000 0.500000 0.500000
O O16 0.000000 0.425533 0.250000
O O17 0.953587 0.059965 0.750000
O O18 0.000000 0.071935 0.501983
O O19 0.930838 0.000000 0.500000
#
# Coordination Sequence:
#
# PCOD9472965 Si02
#       7
#    16  16  16  16  16   8  16
#     4  11  22  35  51  76 107 141 176 215 260 315
#     4   9  17  35  58  79 103 135 173 220 265 309
#     4   8  17  33  56  81 106 135 173 214 260 317
#     4   8  17  34  55  78 106 135 170 214 265 315
#     4   9  17  33  57  81 102 133 173 217 263 313
#     4  10  20  36  54  78 107 140 175 208 255 314
#     4  10  21  35  49  71 104 140 176 217 262 311
#
# _framework density 19.327902999999999
#
# number of rings (size 3 to 8) (size 9 to 14) (size 15 to 20)
#    0.000    2.769    0.000    3.231    1.077    2.154 
#    0.000   10.000    0.000    0.000    0.000    0.000 
#    0.000    0.000    0.000    0.000    0.000    0.000 
#
# Total GULP energy -289814.419375 kJ/mol
# GULP energy per Si atom -5573.354219 kJ/mol
# Density = 1.928391 g / cm^3
# Si number density = 19.327903 Si / 1000 Ang^3
#
#
#
# Elastic Constant Matrix: (Units=GPa)
#
#
# Indices 1 2 3 4 5 6 
#
# 1 51.4250 54.5598 10.0595 0.0000 0.0000 0.0000
# 2 54.5598 135.4325 21.1169 0.0000 0.0000 0.0000
# 3 10.0595 21.1169 20.8812 0.0000 0.0000 0.0000
# 4 0.0000 0.0000 0.0000 29.7341 0.0000 0.0000
# 5 0.0000 0.0000 0.0000 0.0000 17.7812 0.0000
# 6 0.0000 0.0000 0.0000 0.0000 0.0000 18.3742
#
#
#
# Elastic Compliance Matrix: (Units=1/GPa)
#
#
# Indices 1 2 3 4 5 6 
#
# 1 0.034120 -0.013276 -0.003012 0.000000 0.000000 0.000000
# 2 -0.013276 0.013932 -0.007693 0.000000 0.000000 0.000000
# 3 -0.003012 -0.007693 0.057121 0.000000 0.000000 0.000000
# 4 0.000000 0.000000 0.000000 0.033631 0.000000 0.000000
# 5 0.000000 0.000000 0.000000 0.000000 0.056239 0.000000
# 6 0.000000 0.000000 0.000000 0.000000 0.000000 0.054424
#
#
# Mechanical properties :
#
#
# Convention : Reuss Voigt Hill
#
# Bulk Modulus (GPa) = 17.47909 42.13456 29.80683
# Shear Modulus (GPa) = 15.79784 21.31140 18.55462
#
# Velocity S-wave (km/s) = 2.86205 3.32418 3.10173
# Velocity P-wave (km/s) = 4.47044 6.04820 5.31816
#
# Compressibility (1/GPa) = 0.05721121
#
# Stress axis : x y z
#
# Youngs Moduli (GPa) = 29.30819 71.77930 17.50677
#
# Poissons Ratio (x) = 0.95294 0.05272
# Poissons Ratio (y) = 0.38909 0.13468
# Poissons Ratio (z) = 0.08826 0.55221
#
# Static dielectric constant tensor:
#      x y z
#    x 1.686280 0.000000 0.000000 
#    y 0.000000 1.679110 0.000000 
#    z 0.000000 0.000000 1.664160 
# 
# From -- ./inp_files/14459.got.cif
#   From: 2010.05.17/outbox.cif.g08.bks.cpg/sg63_8_cif.got.tgz:14459.got - 2010.06.03 15:47:04.
