data_PCOD9472980
_publ_section_title
;
Structure prediction by ZEFSAII (Michael W. Deem and Ramdas Pophale) SiO2 
 PCOD9472980
Probable space group: C M C M
;
_chemical_formula_sum "Si O2"
_cell_formula_units_Z 72
_cell_length_a 15.570446
_cell_length_b 29.175178
_cell_length_c 8.611222
_cell_angle_alpha 90.000000
_cell_angle_beta 90.000000
_cell_angle_gamma 90.000000
_cell_volume 3911.824413
_symmetry_space_group_name_H-M "C M C M"
_symmetry_group_IT_number 63
_symmetry_cell_setting 'orthorhombic'
loop_
_space_group_symop_operation_xyz
x,y,z
-x,-y,1/2+z
x,-y,-z
-x,y,1/2-z
-x,-y,-z
x,y,1/2-z
-x,y,z
x,-y,1/2+z
1/2+x,1/2+y,z
1/2-x,1/2-y,1/2+z
1/2+x,1/2-y,-z
1/2-x,1/2+y,1/2-z
1/2-x,1/2-y,-z
1/2+x,1/2+y,1/2-z
1/2-x,1/2+y,z
1/2+x,1/2-y,1/2+z
loop_
_atom_site_type_symbol
_atom_site_label
_atom_site_fract_x
_atom_site_fract_y
_atom_site_fract_z
Si Si1 0.262354 0.139824 0.566736
Si Si2 0.500000 0.551562 0.436636
Si Si3 0.598856 0.690985 0.065899
Si Si4 0.689728 0.551647 0.436676
Si Si5 0.599579 0.791265 0.931738
O O1 0.274986 0.140011 0.750000
O O2 0.172260 0.164002 0.523574
O O3 0.256030 0.088093 0.503797
O O4 0.336344 0.169484 0.486008
O O5 0.500000 0.500000 0.500000
O O6 0.500000 0.551835 0.250000
O O7 0.593518 0.569402 0.484031
O O8 0.607594 0.682166 0.250000
O O9 0.500000 0.679626 0.021642
O O10 0.611851 0.744806 0.029687
O O11 0.699942 0.500000 0.500000
O O12 0.693684 0.550759 0.250000
O O13 0.614467 0.780479 0.750000
O O14 0.500000 0.805146 0.949475
#
# Coordination Sequence:
#
# PCOD9472980 Si02
#       5
#    16   8  16  16  16
#     4  12  24  36  55  83 114 150 189 229 275 330
#     4   8  16  30  50  72 100 138 176 216 262 314
#     4  10  21  37  57  82 115 151 186 228 276 328
#     4  10  20  36  55  79 110 146 187 229 277 326
#     4  10  21  39  61  83 109 143 185 233 283 334
#
# _framework density 18.405733999999999
#
# number of rings (size 3 to 8) (size 9 to 14) (size 15 to 20)
#    0.000    1.778    0.000    4.667    1.556    3.556 
#    0.000    0.000    0.000    0.667    0.000    0.000 
#    0.000    0.000    0.000    0.000    0.000    0.000 
#
# Total GULP energy -201060.960478 kJ/mol
# GULP energy per Si atom -5585.026680 kJ/mol
# Density = 1.836384 g / cm^3
# Si number density = 18.405734 Si / 1000 Ang^3
#
#
#
# Elastic Constant Matrix: (Units=GPa)
#
#
# Indices 1 2 3 4 5 6 
#
# 1 40.0623 34.1685 9.5331 0.0000 0.0000 0.0000
# 2 34.1685 66.8876 -0.0690 0.0000 0.0000 0.0000
# 3 9.5331 -0.0690 41.1654 0.0000 0.0000 0.0000
# 4 0.0000 0.0000 0.0000 29.5309 0.0000 0.0000
# 5 0.0000 0.0000 0.0000 0.0000 21.2781 0.0000
# 6 0.0000 0.0000 0.0000 0.0000 0.0000 29.9684
#
#
#
# Elastic Compliance Matrix: (Units=1/GPa)
#
#
# Indices 1 2 3 4 5 6 
#
# 1 0.049058 -0.025073 -0.011403 0.000000 0.000000 0.000000
# 2 -0.025073 0.027764 0.005853 0.000000 0.000000 0.000000
# 3 -0.011403 0.005853 0.026943 0.000000 0.000000 0.000000
# 4 0.000000 0.000000 0.000000 0.033863 0.000000 0.000000
# 5 0.000000 0.000000 0.000000 0.000000 0.046997 0.000000
# 6 0.000000 0.000000 0.000000 0.000000 0.000000 0.033368
#
#
# Mechanical properties :
#
#
# Convention : Reuss Voigt Hill
#
# Bulk Modulus (GPa) = 23.51821 26.15340 24.83581
# Shear Modulus (GPa) = 17.04086 23.12101 20.08094
#
# Velocity S-wave (km/s) = 3.04607 3.54812 3.30664
# Velocity P-wave (km/s) = 5.01765 5.57007 5.30106
#
# Compressibility (1/GPa) = 0.04252025
#
# Stress axis : x y z
#
# Youngs Moduli (GPa) = 20.38384 36.01735 37.11566
#
# Poissons Ratio (x) = 0.90305 0.42323
# Poissons Ratio (y) = 0.51107 -0.21723
# Poissons Ratio (z) = 0.23244 -0.21080
#
# Static dielectric constant tensor:
#      x y z
#    x 1.636900 0.000000 0.000000 
#    y 0.000000 1.625930 0.000000 
#    z 0.000000 0.000000 1.612640 
# 
# From -- ./inp_files/4595.got.cif
#   From: 2010.05.17/outbox.cif.g08.bks.cpg/sg63_3_cif.got.tgz:4595.got - 2010.06.03 15:47:04.
