data_PCOD9472841
_publ_section_title
;
Structure prediction by ZEFSAII (Michael W. Deem and Ramdas Pophale) SiO2 
 PCOD9472841
Probable space group: C M C M
;
_chemical_formula_sum "Si O2"
_cell_formula_units_Z 96
_cell_length_a 9.864250
_cell_length_b 19.480782
_cell_length_c 22.905133
_cell_angle_alpha 90.000000
_cell_angle_beta 90.000000
_cell_angle_gamma 90.000000
_cell_volume 4401.526032
_symmetry_space_group_name_H-M "C M C M"
_symmetry_group_IT_number 63
_symmetry_cell_setting 'orthorhombic'
loop_
_space_group_symop_operation_xyz
x,y,z
-x,-y,1/2+z
x,-y,-z
-x,y,1/2-z
-x,-y,-z
x,y,1/2-z
-x,y,z
x,-y,1/2+z
1/2+x,1/2+y,z
1/2-x,1/2-y,1/2+z
1/2+x,1/2-y,-z
1/2-x,1/2+y,1/2-z
1/2-x,1/2-y,-z
1/2+x,1/2+y,1/2-z
1/2-x,1/2+y,z
1/2+x,1/2-y,1/2+z
loop_
_atom_site_type_symbol
_atom_site_label
_atom_site_fract_x
_atom_site_fract_y
_atom_site_fract_z
Si Si1 0.851936 0.353342 0.107178
Si Si2 0.341284 0.463847 0.683413
Si Si3 0.644591 0.297814 0.317774
Si Si4 0.158925 0.957407 0.058976
Si Si5 0.653042 0.288842 0.955057
Si Si6 0.156241 0.645179 0.129463
O O1 0.764987 0.348056 0.165497
O O2 0.757602 0.392283 0.061330
O O3 0.867103 0.273882 0.090113
O O4 0.000000 0.385158 0.111700
O O5 0.326198 0.493500 0.750000
O O6 0.500000 0.440634 0.680205
O O7 0.319892 0.506816 0.622996
O O8 0.232119 0.402903 0.675796
O O9 0.646613 0.284776 0.250000
O O10 0.500000 0.330717 0.334534
O O11 0.648173 0.223450 0.347826
O O12 0.000000 0.940371 0.055898
O O13 0.189542 0.000000 0.000000
O O14 0.500000 0.308298 0.974652
O O15 0.739427 0.349078 0.924978
O O16 0.750000 0.250000 0.000000
O O17 0.000000 0.624032 0.116357
#
# Coordination Sequence:
#
# PCOD9472841 Si02
#       6
#    16  16  16  16  16  16
#     4  10  22  38  56  84 116 147 190 242 296 348
#     4  10  22  40  61  87 119 157 203 255 309 365
#     4   9  18  34  57  84 116 155 194 233 285 351
#     4  10  23  42  62  84 113 158 208 250 301 367
#     4  10  21  36  56  85 120 157 196 239 295 358
#     4  10  20  35  57  88 122 156 196 244 299 361
#
# _framework density 21.810618000000002
#
# number of rings (size 3 to 8) (size 9 to 14) (size 15 to 20)
#    0.000    2.167    0.000    2.000    2.333    5.667 
#    0.000    1.667    0.000    0.000    0.000    0.000 
#    0.000    0.000    0.000    0.000    0.000    0.000 
#
# Total GULP energy -267332.337928 kJ/mol
# GULP energy per Si atom -5569.423707 kJ/mol
# Density = 2.176098 g / cm^3
# Si number density = 21.810618 Si / 1000 Ang^3
#
#
#
# Elastic Constant Matrix: (Units=GPa)
#
#
# Indices 1 2 3 4 5 6 
#
# 1 137.2697 32.9292 44.2622 0.0000 0.0000 0.0000
# 2 32.9292 38.1698 15.8308 0.0000 0.0000 0.0000
# 3 44.2622 15.8308 101.5674 0.0000 0.0000 0.0000
# 4 0.0000 0.0000 0.0000 36.9153 0.0000 0.0000
# 5 0.0000 0.0000 0.0000 0.0000 12.9640 0.0000
# 6 0.0000 0.0000 0.0000 0.0000 0.0000 18.8950
#
#
#
# Elastic Compliance Matrix: (Units=1/GPa)
#
#
# Indices 1 2 3 4 5 6 
#
# 1 0.010101 -0.007364 -0.003254 0.000000 0.000000 0.000000
# 2 -0.007364 0.033379 -0.001993 0.000000 0.000000 0.000000
# 3 -0.003254 -0.001993 0.011574 0.000000 0.000000 0.000000
# 4 0.000000 0.000000 0.000000 0.027089 0.000000 0.000000
# 5 0.000000 0.000000 0.000000 0.000000 0.077136 0.000000
# 6 0.000000 0.000000 0.000000 0.000000 0.000000 0.052924
#
#
# Mechanical properties :
#
#
# Convention : Reuss Voigt Hill
#
# Bulk Modulus (GPa) = 33.52249 51.45013 42.48631
# Shear Modulus (GPa) = 20.21261 26.02052 23.11657
#
# Velocity S-wave (km/s) = 3.04753 3.45776 3.25911
# Velocity P-wave (km/s) = 5.27128 6.29144 5.80382
#
# Compressibility (1/GPa) = 0.02983072
#
# Stress axis : x y z
#
# Youngs Moduli (GPa) = 99.00215 29.95920 86.39742
#
# Poissons Ratio (x) = 0.22063 0.28114
# Poissons Ratio (y) = 0.72909 0.17221
# Poissons Ratio (z) = 0.32215 0.05972
#
# Static dielectric constant tensor:
#      x y z
#    x 1.868520 0.000000 0.000000 
#    y 0.000000 1.844640 0.000000 
#    z 0.000000 0.000000 1.836120 
# 
# From -- ./inp_files/59945.got.cif
#   From: 2010.05.17/outbox.cif.g08.bks.cpg/sg63_30_cif.got.tgz:59945.got - 2010.06.03 15:47:04.
