data_PCOD9472352
_publ_section_title
;
Structure prediction by ZEFSAII (Michael W. Deem and Ramdas Pophale) SiO2 
 PCOD9472352
Probable space group: C M C M
;
_chemical_formula_sum "Si O2"
_cell_formula_units_Z 72
_cell_length_a 16.637039
_cell_length_b 28.042597
_cell_length_c 8.884666
_cell_angle_alpha 90.000000
_cell_angle_beta 90.000000
_cell_angle_gamma 90.000000
_cell_volume 4145.103429
_symmetry_space_group_name_H-M "C M C M"
_symmetry_group_IT_number 63
_symmetry_cell_setting 'orthorhombic'
loop_
_space_group_symop_operation_xyz
x,y,z
-x,-y,1/2+z
x,-y,-z
-x,y,1/2-z
-x,-y,-z
x,y,1/2-z
-x,y,z
x,-y,1/2+z
1/2+x,1/2+y,z
1/2-x,1/2-y,1/2+z
1/2+x,1/2-y,-z
1/2-x,1/2+y,1/2-z
1/2-x,1/2-y,-z
1/2+x,1/2+y,1/2-z
1/2-x,1/2+y,z
1/2+x,1/2-y,1/2+z
loop_
_atom_site_type_symbol
_atom_site_label
_atom_site_fract_x
_atom_site_fract_y
_atom_site_fract_z
Si Si1 0.409495 0.363467 0.429695
Si Si2 0.179406 0.948786 0.570975
Si Si3 0.167110 0.396520 0.432131
Si Si4 0.255013 0.301931 0.070003
Si Si5 0.500000 0.053217 0.931641
O O1 0.402202 0.372650 0.250000
O O2 0.500000 0.347448 0.460731
O O3 0.387624 0.411373 0.517464
O O4 0.340994 0.325410 0.469143
O O5 0.183452 0.951562 0.750000
O O6 0.263492 0.928613 0.505646
O O7 0.163898 0.000000 0.500000
O O8 0.174758 0.399459 0.250000
O O9 0.188179 0.341691 0.474795
O O10 0.080108 0.417208 0.474190
O O11 0.250563 0.297400 0.250000
O O12 0.250000 0.250000 0.000000
O O13 0.500000 0.048717 0.750000
O O14 0.500000 0.000000 0.000000
#
# Coordination Sequence:
#
# PCOD9472352 Si02
#       5
#    16  16  16  16   8
#     4   9  19  37  57  76 102 136 174 216 261 308
#     4  11  21  33  52  77 106 140 176 213 258 312
#     4   9  19  36  54  75 105 142 181 221 264 317
#     4   9  18  34  55  77 103 136 173 214 264 314
#     4  10  20  34  54  78 108 142 180 222 269 318
#
# _framework density 17.369892
#
# number of rings (size 3 to 8) (size 9 to 14) (size 15 to 20)
#    0.000    2.444    0.000    4.000    0.000    7.111 
#    2.000    0.000    0.000    0.000    0.000    0.000 
#    0.000    0.000    0.000    0.000    0.000    0.000 
#
# Total GULP energy -200779.522508 kJ/mol
# GULP energy per Si atom -5577.208959 kJ/mol
# Density = 1.733036 g / cm^3
# Si number density = 17.369892 Si / 1000 Ang^3
#
#
#
# Elastic Constant Matrix: (Units=GPa)
#
#
# Indices 1 2 3 4 5 6 
#
# 1 119.6785 67.3297 31.0297 0.0000 0.0000 0.0000
# 2 67.3297 169.5115 47.0529 0.0000 0.0000 0.0000
# 3 31.0297 47.0529 32.3420 0.0000 0.0000 0.0000
# 4 0.0000 0.0000 0.0000 36.6313 0.0000 0.0000
# 5 0.0000 0.0000 0.0000 0.0000 21.0346 0.0000
# 6 0.0000 0.0000 0.0000 0.0000 0.0000 10.8440
#
#
#
# Elastic Compliance Matrix: (Units=1/GPa)
#
#
# Indices 1 2 3 4 5 6 
#
# 1 0.011760 -0.002582 -0.007526 0.000000 0.000000 0.000000
# 2 -0.002582 0.010462 -0.012744 0.000000 0.000000 0.000000
# 3 -0.007526 -0.012744 0.056682 0.000000 0.000000 0.000000
# 4 0.000000 0.000000 0.000000 0.027299 0.000000 0.000000
# 5 0.000000 0.000000 0.000000 0.000000 0.047541 0.000000
# 6 0.000000 0.000000 0.000000 0.000000 0.000000 0.092217
#
#
# Mechanical properties :
#
#
# Convention : Reuss Voigt Hill
#
# Bulk Modulus (GPa) = 30.12155 68.03961 49.08058
# Shear Modulus (GPa) = 16.51632 25.44329 20.97980
#
# Velocity S-wave (km/s) = 3.08695 3.83141 3.47915
# Velocity P-wave (km/s) = 5.48494 7.67001 6.66759
#
# Compressibility (1/GPa) = 0.03319882
#
# Stress axis : x y z
#
# Youngs Moduli (GPa) = 85.03711 95.58160 17.64244
#
# Poissons Ratio (x) = 0.24676 0.13278
# Poissons Ratio (y) = 0.21954 0.22484
# Poissons Ratio (z) = 0.64002 1.21811
#
# Static dielectric constant tensor:
#      x y z
#    x 1.594110 0.000000 0.000000 
#    y 0.000000 1.572170 0.000000 
#    z 0.000000 0.000000 1.582190 
# 
# From -- ./inp_files/6120.got.cif
#   From: 2010.05.17/outbox.cif.g08.bks.cpg/sg63_4_cif.got.tgz:6120.got - 2010.06.03 15:47:04.
