data_PCOD9472877
_publ_section_title
;
Structure prediction by ZEFSAII (Michael W. Deem and Ramdas Pophale) SiO2 
 PCOD9472877
Probable space group: C M C M
;
_chemical_formula_sum "Si O2"
_cell_formula_units_Z 96
_cell_length_a 8.781990
_cell_length_b 20.621431
_cell_length_c 28.692221
_cell_angle_alpha 90.000000
_cell_angle_beta 90.000000
_cell_angle_gamma 90.000000
_cell_volume 5196.080909
_symmetry_space_group_name_H-M "C M C M"
_symmetry_group_IT_number 63
_symmetry_cell_setting 'orthorhombic'
loop_
_space_group_symop_operation_xyz
x,y,z
-x,-y,1/2+z
x,-y,-z
-x,y,1/2-z
-x,-y,-z
x,y,1/2-z
-x,y,z
x,-y,1/2+z
1/2+x,1/2+y,z
1/2-x,1/2-y,1/2+z
1/2+x,1/2-y,-z
1/2-x,1/2+y,1/2-z
1/2-x,1/2-y,-z
1/2+x,1/2+y,1/2-z
1/2-x,1/2+y,z
1/2+x,1/2-y,1/2+z
loop_
_atom_site_type_symbol
_atom_site_label
_atom_site_fract_x
_atom_site_fract_y
_atom_site_fract_z
Si Si1 0.818527 0.736606 0.949326
Si Si2 0.816939 0.114773 0.602663
Si Si3 0.681659 0.674915 0.303131
Si Si4 0.817646 0.818656 0.302379
Si Si5 0.683000 0.518288 0.446715
Si Si6 0.819324 0.358464 0.896443
O O1 0.761527 0.667947 0.929970
O O2 0.757142 0.793012 0.915734
O O3 0.000000 0.738400 0.951072
O O4 0.750000 0.750000 0.000000
O O5 0.777046 0.132949 0.655871
O O6 0.000000 0.121574 0.597564
O O7 0.777681 0.042845 0.585962
O O8 0.719885 0.655494 0.250000
O O9 0.500000 0.671386 0.308888
O O10 0.735167 0.749672 0.308399
O O11 0.762566 0.634164 0.343365
O O12 0.783945 0.842630 0.250000
O O13 0.000000 0.806950 0.305184
O O14 0.721235 0.500000 0.500000
O O15 0.500000 0.528788 0.444761
O O16 0.765086 0.582162 0.428285
O O17 0.000000 0.351503 0.897914
#
# Coordination Sequence:
#
# PCOD9472877 Si02
#       6
#    16  16  16  16  16  16
#     4  12  24  38  59  86 117 150 193 247 297 348
#     4  10  20  36  58  85 116 152 196 241 295 356
#     4  10  20  35  58  88 119 153 195 244 297 351
#     4   9  17  31  54  84 117 151 188 235 293 357
#     4  10  22  40  60  82 116 162 205 247 297 353
#     4  12  24  39  60  87 120 158 201 245 296 354
#
# _framework density 18.475462
#
# number of rings (size 3 to 8) (size 9 to 14) (size 15 to 20)
#    0.000    1.500    1.667    4.500    0.000    3.333 
#    0.000    0.833    0.000    3.000    0.000    0.000 
#    0.000    0.000    0.000    0.000    0.000    0.000 
#
# Total GULP energy -268224.820101 kJ/mol
# GULP energy per Si atom -5588.017085 kJ/mol
# Density = 1.843341 g / cm^3
# Si number density = 18.475462 Si / 1000 Ang^3
#
#
#
# Elastic Constant Matrix: (Units=GPa)
#
#
# Indices 1 2 3 4 5 6 
#
# 1 44.3525 9.6828 13.7000 0.0000 0.0000 0.0000
# 2 9.6828 22.7485 -15.9125 0.0000 0.0000 0.0000
# 3 13.7000 -15.9125 78.4360 0.0000 0.0000 0.0000
# 4 0.0000 0.0000 0.0000 32.7134 0.0000 0.0000
# 5 0.0000 0.0000 0.0000 0.0000 26.9996 0.0000
# 6 0.0000 0.0000 0.0000 0.0000 0.0000 22.1440
#
#
#
# Elastic Compliance Matrix: (Units=1/GPa)
#
#
# Indices 1 2 3 4 5 6 
#
# 1 0.029409 -0.018775 -0.008946 0.000000 0.000000 0.000000
# 2 -0.018775 0.063215 0.016104 0.000000 0.000000 0.000000
# 3 -0.008946 0.016104 0.017579 0.000000 0.000000 0.000000
# 4 0.000000 0.000000 0.000000 0.030569 0.000000 0.000000
# 5 0.000000 0.000000 0.000000 0.000000 0.037038 0.000000
# 6 0.000000 0.000000 0.000000 0.000000 0.000000 0.045159
#
#
# Mechanical properties :
#
#
# Convention : Reuss Voigt Hill
#
# Bulk Modulus (GPa) = 11.49831 17.83083 14.66457
# Shear Modulus (GPa) = 18.16916 25.57584 21.87250
#
# Velocity S-wave (km/s) = 3.13936 3.72467 3.44447
# Velocity P-wave (km/s) = 4.40202 5.30751 4.87583
#
# Compressibility (1/GPa) = 0.08696929
#
# Stress axis : x y z
#
# Youngs Moduli (GPa) = 34.00343 15.81893 56.88665
#
# Poissons Ratio (x) = 0.29700 0.50889
# Poissons Ratio (y) = 0.63842 -0.91611
# Poissons Ratio (z) = 0.30418 -0.25475
#
# Static dielectric constant tensor:
#      x y z
#    x 1.619900 0.000000 0.000000 
#    y 0.000000 1.601280 0.000000 
#    z 0.000000 0.000000 1.593790 
# 
# From -- ./inp_files/66986.got.cif
#   From: 2010.05.17/outbox.cif.g08.bks.cpg/sg63_34_cif.got.tgz:66986.got - 2010.06.03 15:47:04.
