data_PCOD9472260
_publ_section_title
;
Structure prediction by ZEFSAII (Michael W. Deem and Ramdas Pophale) SiO2 
 PCOD9472260
Probable space group: C M C M
;
_chemical_formula_sum "Si O2"
_cell_formula_units_Z 112
_cell_length_a 14.747566
_cell_length_b 23.294488
_cell_length_c 16.378131
_cell_angle_alpha 90.000000
_cell_angle_beta 90.000000
_cell_angle_gamma 90.000000
_cell_volume 5626.493977
_symmetry_space_group_name_H-M "C M C M"
_symmetry_group_IT_number 63
_symmetry_cell_setting 'orthorhombic'
loop_
_space_group_symop_operation_xyz
x,y,z
-x,-y,1/2+z
x,-y,-z
-x,y,1/2-z
-x,-y,-z
x,y,1/2-z
-x,y,z
x,-y,1/2+z
1/2+x,1/2+y,z
1/2-x,1/2-y,1/2+z
1/2+x,1/2-y,-z
1/2-x,1/2+y,1/2-z
1/2-x,1/2-y,-z
1/2+x,1/2+y,1/2-z
1/2-x,1/2+y,z
1/2+x,1/2-y,1/2+z
loop_
_atom_site_type_symbol
_atom_site_label
_atom_site_fract_x
_atom_site_fract_y
_atom_site_fract_z
Si Si1 0.895971 0.572122 0.650099
Si Si2 0.896365 0.216750 0.123981
Si Si3 0.212037 0.540852 0.349945
Si Si4 0.107587 0.344487 0.845407
Si Si5 0.896563 0.223920 0.929270
Si Si6 0.899158 0.916838 0.653459
Si Si7 0.728033 0.176798 0.843179
O O1 0.898356 0.572215 0.750000
O O2 0.842814 0.515106 0.623599
O O3 0.840292 0.628280 0.624541
O O4 0.000000 0.573048 0.622005
O O5 0.876099 0.150862 0.145969
O O6 0.826253 0.263157 0.156595
O O7 0.000000 0.228964 0.151448
O O8 0.894261 0.221994 0.026403
O O9 0.212473 0.539864 0.250000
O O10 0.161002 0.599395 0.373046
O O11 0.315661 0.546023 0.379181
O O12 0.130053 0.332717 0.750000
O O13 0.125834 0.287877 0.897601
O O14 0.000000 0.356334 0.849303
O O15 0.819747 0.182970 0.893682
O O16 0.000000 0.210812 0.902246
O O17 0.904783 0.928926 0.750000
O O18 0.000000 0.925460 0.617726
O O19 0.751768 0.162183 0.750000
#
# Coordination Sequence:
#
# PCOD9472260 Si02
#       7
#    16  16  16  16  16  16  16
#     4   9  18  32  50  74 102 130 163 204 249 298
#     4  10  20  34  53  76 104 137 170 209 258 307
#     4   9  16  28  47  71  98 128 162 203 252 297
#     4   9  16  27  47  73  97 124 163 210 253 293
#     4  10  21  35  51  74 105 139 173 209 252 305
#     4   9  17  29  48  75 101 124 159 208 255 300
#     4  11  21  33  52  77 105 137 171 208 252 302
#
# _framework density 19.905825
#
# number of rings (size 3 to 8) (size 9 to 14) (size 15 to 20)
#    0.000    2.429    0.000    3.000    0.000    5.143 
#    0.000    0.714    0.000    6.000    0.000   10.000 
#    0.000    0.000    0.000    0.000    0.000    0.000 
#
# Total GULP energy -312657.761568 kJ/mol
# GULP energy per Si atom -5583.174314 kJ/mol
# Density = 1.986052 g / cm^3
# Si number density = 19.905825 Si / 1000 Ang^3
#
#
#
# Elastic Constant Matrix: (Units=GPa)
#
#
# Indices 1 2 3 4 5 6 
#
# 1 145.0103 92.0594 24.6007 0.0000 0.0000 0.0000
# 2 92.0594 70.7031 9.2150 0.0000 0.0000 0.0000
# 3 24.6007 9.2150 28.8814 0.0000 0.0000 0.0000
# 4 0.0000 0.0000 0.0000 -31.8401 0.0000 0.0000
# 5 0.0000 0.0000 0.0000 0.0000 14.5497 0.0000
# 6 0.0000 0.0000 0.0000 0.0000 0.0000 36.0193
#
#
#
# Elastic Compliance Matrix: (Units=1/GPa)
#
#
# Indices 1 2 3 4 5 6 
#
# 1 0.051530 -0.064037 -0.023460 0.000000 0.000000 0.000000
# 2 -0.064037 0.094337 0.024446 0.000000 0.000000 0.000000
# 3 -0.023460 0.024446 0.046808 0.000000 0.000000 0.000000
# 4 0.000000 0.000000 0.000000 -0.031407 0.000000 0.000000
# 5 0.000000 0.000000 0.000000 0.000000 0.068730 0.000000
# 6 0.000000 0.000000 0.000000 0.000000 0.000000 0.027763
#
#
# Mechanical properties :
#
#
# Convention : Reuss Voigt Hill
#
# Bulk Modulus (GPa) = 15.02125 55.14943 35.08534
# Shear Modulus (GPa) = 12.31363 11.66043 11.98703
#
# Velocity S-wave (km/s) = 2.48985 2.42291 2.45661
# Velocity P-wave (km/s) = 3.97849 5.96596 5.07055
#
# Compressibility (1/GPa) = 0.06657236
#
# Stress axis : x y z
#
# Youngs Moduli (GPa) = 19.40624 10.60025 21.36399
#
# Poissons Ratio (x) = 0.67881 0.50121
# Poissons Ratio (y) = 1.24272 -0.52227
# Poissons Ratio (z) = 0.45528 -0.25914
#
# Static dielectric constant tensor:
#      x y z
#    x 1.728580 0.000000 0.000000 
#    y 0.000000 1.670870 0.000000 
#    z 0.000000 0.000000 1.687100 
# 
# From -- ./inp_files/32276.got.cif
#   From: 2010.05.17/outbox.cif.g08.bks.cpg/sg63_17_cif.got.tgz:32276.got - 2010.06.03 15:47:04.
