data_PCOD9472367
_publ_section_title
;
Structure prediction by ZEFSAII (Michael W. Deem and Ramdas Pophale) SiO2 
 PCOD9472367
Probable space group: C M C M
;
_chemical_formula_sum "Si O2"
_cell_formula_units_Z 80
_cell_length_a 15.713041
_cell_length_b 26.653124
_cell_length_c 9.345778
_cell_angle_alpha 90.000000
_cell_angle_beta 90.000000
_cell_angle_gamma 90.000000
_cell_volume 3914.027062
_symmetry_space_group_name_H-M "C M C M"
_symmetry_group_IT_number 63
_symmetry_cell_setting 'orthorhombic'
loop_
_space_group_symop_operation_xyz
x,y,z
-x,-y,1/2+z
x,-y,-z
-x,y,1/2-z
-x,-y,-z
x,y,1/2-z
-x,y,z
x,-y,1/2+z
1/2+x,1/2+y,z
1/2-x,1/2-y,1/2+z
1/2+x,1/2-y,-z
1/2-x,1/2+y,1/2-z
1/2-x,1/2-y,-z
1/2+x,1/2+y,1/2-z
1/2-x,1/2+y,z
1/2+x,1/2-y,1/2+z
loop_
_atom_site_type_symbol
_atom_site_label
_atom_site_fract_x
_atom_site_fract_y
_atom_site_fract_z
Si Si1 0.398603 0.852100 0.912745
Si Si2 0.104308 0.951001 0.412544
Si Si3 0.898642 0.856628 0.909895
Si Si4 0.104230 0.449856 0.415769
Si Si5 0.339694 0.245413 0.921996
O O1 0.364349 0.847893 0.750000
O O2 0.500000 0.858684 0.900900
O O3 0.365971 0.900657 0.998372
O O4 0.383413 0.802166 0.004510
O O5 0.132775 0.954460 0.250000
O O6 0.134099 0.899267 0.484263
O O7 0.000000 0.950798 0.412147
O O8 0.130738 0.000000 0.500000
O O9 0.863348 0.864238 0.750000
O O10 0.883856 0.798992 0.950176
O O11 0.000000 0.863853 0.902658
O O12 0.129962 0.500000 0.500000
O O13 0.131291 0.449807 0.250000
O O14 0.000000 0.449180 0.414654
O O15 0.334380 0.238893 0.750000
O O16 0.250000 0.250000 0.000000
#
# Coordination Sequence:
#
# PCOD9472367 Si02
#       5
#    16  16  16  16  16
#     4  10  20  34  54  80 108 138 175 218 261 309
#     4   9  16  26  44  72 104 134 164 202 248 297
#     4   9  18  33  53  76 102 133 170 211 254 302
#     4   9  16  27  46  74 107 139 171 210 257 307
#     4  11  23  38  55  75 103 139 177 218 266 316
#
# _framework density 20.439308
#
# number of rings (size 3 to 8) (size 9 to 14) (size 15 to 20)
#    0.000    2.400    0.000    3.000    0.000    8.400 
#    0.000    2.000    0.000    1.200    0.000    2.800 
#    0.000    0.000    0.000    0.000    0.000    0.000 
#
# Total GULP energy -223270.075957 kJ/mol
# GULP energy per Si atom -5581.751899 kJ/mol
# Density = 2.039279 g / cm^3
# Si number density = 20.439308 Si / 1000 Ang^3
#
#
#
# Elastic Constant Matrix: (Units=GPa)
#
#
# Indices 1 2 3 4 5 6 
#
# 1 17.2882 -0.2282 11.4122 0.0000 0.0000 0.0000
# 2 -0.2282 209.8227 145.8086 0.0000 0.0000 0.0000
# 3 11.4122 145.8086 199.8595 0.0000 0.0000 0.0000
# 4 0.0000 0.0000 0.0000 43.2678 0.0000 0.0000
# 5 0.0000 0.0000 0.0000 0.0000 3.9490 0.0000
# 6 0.0000 0.0000 0.0000 0.0000 0.0000 -26.8091
#
#
#
# Elastic Compliance Matrix: (Units=1/GPa)
#
#
# Indices 1 2 3 4 5 6 
#
# 1 0.062778 0.005191 -0.007372 0.000000 0.000000 0.000000
# 2 0.005191 0.010096 -0.007662 0.000000 0.000000 0.000000
# 3 -0.007372 -0.007662 0.011014 0.000000 0.000000 0.000000
# 4 0.000000 0.000000 0.000000 0.023112 0.000000 0.000000
# 5 0.000000 0.000000 0.000000 0.000000 0.253230 0.000000
# 6 0.000000 0.000000 0.000000 0.000000 0.000000 -0.037301
#
#
# Mechanical properties :
#
#
# Convention : Reuss Voigt Hill
#
# Bulk Modulus (GPa) = 15.57571 82.32839 48.95205
# Shear Modulus (GPa) = 13.73567 22.08006 17.90787
#
# Velocity S-wave (km/s) = 2.59515 3.29032 2.96319
# Velocity P-wave (km/s) = 4.07637 7.40282 5.97572
#
# Compressibility (1/GPa) = 0.06420254
#
# Stress axis : x y z
#
# Youngs Moduli (GPa) = 15.92920 99.04909 90.79099
#
# Poissons Ratio (x) = -0.51417 0.66929
# Poissons Ratio (y) = -0.08269 0.69564
# Poissons Ratio (z) = 0.11743 0.75891
#
# Static dielectric constant tensor:
#      x y z
#    x 1.766620 0.000000 0.000000 
#    y 0.000000 1.758380 0.000000 
#    z 0.000000 0.000000 1.707230 
# 
# From -- ./inp_files/6408.got.cif
#   From: 2010.05.17/outbox.cif.g08.bks.cpg/sg63_4_cif.got.tgz:6408.got - 2010.06.03 15:47:04.
