data_PCOD9472098
_publ_section_title
;
Structure prediction by ZEFSAII (Michael W. Deem and Ramdas Pophale) SiO2 
 PCOD9472098
Probable space group: C M C M
;
_chemical_formula_sum "Si O2"
_cell_formula_units_Z 96
_cell_length_a 31.625607
_cell_length_b 10.266119
_cell_length_c 14.291095
_cell_angle_alpha 90.000000
_cell_angle_beta 90.000000
_cell_angle_gamma 90.000000
_cell_volume 4639.921896
_symmetry_space_group_name_H-M "C M C M"
_symmetry_group_IT_number 63
_symmetry_cell_setting 'orthorhombic'
loop_
_space_group_symop_operation_xyz
x,y,z
-x,-y,1/2+z
x,-y,-z
-x,y,1/2-z
-x,-y,-z
x,y,1/2-z
-x,y,z
x,-y,1/2+z
1/2+x,1/2+y,z
1/2-x,1/2-y,1/2+z
1/2+x,1/2-y,-z
1/2-x,1/2+y,1/2-z
1/2-x,1/2-y,-z
1/2+x,1/2+y,1/2-z
1/2-x,1/2+y,z
1/2+x,1/2-y,1/2+z
loop_
_atom_site_type_symbol
_atom_site_label
_atom_site_fract_x
_atom_site_fract_y
_atom_site_fract_z
Si Si1 0.116787 0.741843 0.638209
Si Si2 0.548776 0.258754 0.135534
Si Si3 0.290669 0.880340 0.572984
Si Si4 0.198803 0.131332 0.442788
Si Si5 0.548084 0.554942 0.364158
Si Si6 0.618522 0.052919 0.140045
O O1 0.112522 0.732331 0.750000
O O2 0.159959 0.817699 0.617265
O O3 0.117033 0.594131 0.600093
O O4 0.078903 0.832062 0.602604
O O5 0.548885 0.258069 0.250000
O O6 0.500000 0.230775 0.107558
O O7 0.559749 0.407493 0.108079
O O8 0.583569 0.154446 0.103146
O O9 0.243039 0.884085 0.613665
O O10 0.294427 0.744445 0.519145
O O11 0.290843 0.000000 0.500000
O O12 0.333331 0.897348 0.631253
O O13 0.189630 0.000000 0.500000
O O14 0.548813 0.556344 0.250000
O O15 0.500000 0.579137 0.393462
O O16 0.609039 0.041838 0.250000
#
# Coordination Sequence:
#
# PCOD9472098 Si02
#       6
#    16  16  16  16  16  16
#     4  10  20  34  53  81 111 135 171 222 267 305
#     4   8  15  29  49  75 106 138 173 211 255 310
#     4  10  20  39  57  73 104 140 176 213 258 320
#     4  10  22  37  57  78 100 142 182 212 260 320
#     4   8  15  29  49  74 106 140 172 211 258 308
#     4  10  20  33  54  82 108 137 174 220 265 305
#
# _framework density 20.690003000000001
#
# number of rings (size 3 to 8) (size 9 to 14) (size 15 to 20)
#    0.000    2.667    1.667    1.000    2.333    1.333 
#    0.000    3.333    0.000    2.000    0.000    0.000 
#    0.000    0.000    0.000    0.000    0.000    0.000 
#
# Total GULP energy -267757.831461 kJ/mol
# GULP energy per Si atom -5578.288155 kJ/mol
# Density = 2.064291 g / cm^3
# Si number density = 20.690003 Si / 1000 Ang^3
#
#
#
# Elastic Constant Matrix: (Units=GPa)
#
#
# Indices 1 2 3 4 5 6 
#
# 1 161.3369 107.9996 12.7014 0.0000 0.0000 0.0000
# 2 107.9996 177.8229 16.7036 0.0000 0.0000 0.0000
# 3 12.7014 16.7036 30.2188 0.0000 0.0000 0.0000
# 4 0.0000 0.0000 0.0000 14.8404 0.0000 0.0000
# 5 0.0000 0.0000 0.0000 0.0000 70.2978 0.0000
# 6 0.0000 0.0000 0.0000 0.0000 0.0000 38.9471
#
#
#
# Elastic Compliance Matrix: (Units=1/GPa)
#
#
# Indices 1 2 3 4 5 6 
#
# 1 0.010469 -0.006271 -0.000934 0.000000 0.000000 0.000000
# 2 -0.006271 0.009688 -0.002719 0.000000 0.000000 0.000000
# 3 -0.000934 -0.002719 0.034988 0.000000 0.000000 0.000000
# 4 0.000000 0.000000 0.000000 0.067384 0.000000 0.000000
# 5 0.000000 0.000000 0.000000 0.000000 0.014225 0.000000
# 6 0.000000 0.000000 0.000000 0.000000 0.000000 0.025676
#
#
# Mechanical properties :
#
#
# Convention : Reuss Voigt Hill
#
# Bulk Modulus (GPa) = 28.33157 71.57643 49.95400
# Shear Modulus (GPa) = 25.76745 40.28197 33.02471
#
# Velocity S-wave (km/s) = 3.53286 4.41719 3.99954
# Velocity P-wave (km/s) = 5.51040 7.79007 6.74721
#
# Compressibility (1/GPa) = 0.03529631
#
# Stress axis : x y z
#
# Youngs Moduli (GPa) = 95.51588 103.22552 28.58149
#
# Poissons Ratio (x) = 0.64731 0.02670
# Poissons Ratio (y) = 0.59896 0.07772
# Poissons Ratio (z) = 0.08923 0.28068
#
# Static dielectric constant tensor:
#      x y z
#    x 1.751570 0.000000 0.000000 
#    y 0.000000 1.719150 0.000000 
#    z 0.000000 0.000000 1.754010 
# 
# From -- ./inp_files/58046.got.cif
#   From: 2010.05.17/outbox.cif.g08.bks.cpg/sg63_30_cif.got.tgz:58046.got - 2010.06.03 15:47:04.
