data_PCOD9472766
_publ_section_title
;
Structure prediction by ZEFSAII (Michael W. Deem and Ramdas Pophale) SiO2 
 PCOD9472766
Probable space group: C M C M
;
_chemical_formula_sum "Si O2"
_cell_formula_units_Z 104
_cell_length_a 21.125267
_cell_length_b 27.576126
_cell_length_c 9.454019
_cell_angle_alpha 90.000000
_cell_angle_beta 90.000000
_cell_angle_gamma 90.000000
_cell_volume 5507.467363
_symmetry_space_group_name_H-M "C M C M"
_symmetry_group_IT_number 63
_symmetry_cell_setting 'orthorhombic'
loop_
_space_group_symop_operation_xyz
x,y,z
-x,-y,1/2+z
x,-y,-z
-x,y,1/2-z
-x,-y,-z
x,y,1/2-z
-x,y,z
x,-y,1/2+z
1/2+x,1/2+y,z
1/2-x,1/2-y,1/2+z
1/2+x,1/2-y,-z
1/2-x,1/2+y,1/2-z
1/2-x,1/2-y,-z
1/2+x,1/2+y,1/2-z
1/2-x,1/2+y,z
1/2+x,1/2-y,1/2+z
loop_
_atom_site_type_symbol
_atom_site_label
_atom_site_fract_x
_atom_site_fract_y
_atom_site_fract_z
Si Si1 0.110663 0.374932 0.414027
Si Si2 0.173135 0.953948 0.913545
Si Si3 0.338682 0.302042 0.084814
Si Si4 0.073632 0.102426 0.585722
Si Si5 0.000000 0.550646 0.919729
Si Si6 0.071166 0.264992 0.085700
Si Si7 0.262358 0.859339 0.914425
O O1 0.130406 0.382544 0.250000
O O2 0.061790 0.417112 0.454118
O O3 0.075849 0.323038 0.419243
O O4 0.171051 0.370700 0.513670
O O5 0.163970 0.966442 0.750000
O O6 0.220687 0.908480 0.922040
O O7 0.108384 0.935779 0.985616
O O8 0.197529 0.000000 0.000000
O O9 0.325462 0.293288 0.250000
O O10 0.387970 0.347189 0.073997
O O11 0.374792 0.257957 0.010708
O O12 0.276129 0.318691 0.001479
O O13 0.078626 0.087000 0.750000
O O14 0.000000 0.109009 0.551089
O O15 0.000000 0.543398 0.750000
O O16 0.000000 0.500000 0.000000
O O17 0.080491 0.250147 0.250000
O O18 0.000000 0.250007 0.042454
O O19 0.268661 0.845586 0.750000
#
# Coordination Sequence:
#
# PCOD9472766 Si02
#       7
#    16  16  16  16   8  16  16
#     4  10  21  40  63  86 115 152 189 230 286 347
#     4  10  21  36  54  76 104 139 182 230 280 334
#     4  10  20  35  56  84 116 153 194 235 284 338
#     4   9  18  33  52  75 107 144 183 228 276 328
#     4  10  22  42  66  92 122 154 194 242 297 360
#     4  10  20  36  59  85 116 154 194 235 282 339
#     4  10  22  39  58  83 114 148 191 240 286 342
#
# _framework density 18.883451999999998
#
# number of rings (size 3 to 8) (size 9 to 14) (size 15 to 20)
#    0.000    2.154    0.769    1.846    0.000    6.462 
#    0.000    3.077    0.000    0.000    0.000    0.000 
#    0.000    0.000    0.000    0.000    0.000    0.000 
#
# Total GULP energy -290410.999725 kJ/mol
# GULP energy per Si atom -5584.826918 kJ/mol
# Density = 1.884047 g / cm^3
# Si number density = 18.883452 Si / 1000 Ang^3
#
#
#
# Elastic Constant Matrix: (Units=GPa)
#
#
# Indices 1 2 3 4 5 6 
#
# 1 130.9218 28.6002 77.2179 0.0000 0.0000 0.0000
# 2 28.6002 76.9395 53.3747 0.0000 0.0000 0.0000
# 3 77.2179 53.3747 117.5989 0.0000 0.0000 0.0000
# 4 0.0000 0.0000 0.0000 33.0508 0.0000 0.0000
# 5 0.0000 0.0000 0.0000 0.0000 24.2491 0.0000
# 6 0.0000 0.0000 0.0000 0.0000 0.0000 11.5863
#
#
#
# Elastic Compliance Matrix: (Units=1/GPa)
#
#
# Indices 1 2 3 4 5 6 
#
# 1 0.012590 0.001540 -0.008965 0.000000 0.000000 0.000000
# 2 0.001540 0.019158 -0.009706 0.000000 0.000000 0.000000
# 3 -0.008965 -0.009706 0.018796 0.000000 0.000000 0.000000
# 4 0.000000 0.000000 0.000000 0.030256 0.000000 0.000000
# 5 0.000000 0.000000 0.000000 0.000000 0.041239 0.000000
# 6 0.000000 0.000000 0.000000 0.000000 0.000000 0.086309
#
#
# Mechanical properties :
#
#
# Convention : Reuss Voigt Hill
#
# Bulk Modulus (GPa) = 61.42683 71.53840 66.48262
# Shear Modulus (GPa) = 20.15813 24.86172 22.50993
#
# Velocity S-wave (km/s) = 3.27081 3.63242 3.45635
# Velocity P-wave (km/s) = 6.84575 7.45379 7.15623
#
# Compressibility (1/GPa) = 0.01627953
#
# Stress axis : x y z
#
# Youngs Moduli (GPa) = 79.43046 52.19626 53.20327
#
# Poissons Ratio (x) = -0.08036 0.47699
# Poissons Ratio (y) = -0.12230 0.51641
# Poissons Ratio (z) = 0.71213 0.50664
#
# Static dielectric constant tensor:
#      x y z
#    x 1.635980 0.000000 0.000000 
#    y 0.000000 1.651290 0.000000 
#    z 0.000000 0.000000 1.636900 
# 
# From -- ./inp_files/8826.got.cif
#   From: 2010.05.17/outbox.cif.g08.bks.cpg/sg63_5_cif.got.tgz:8826.got - 2010.06.03 15:47:04.
