data_PCOD9472689
_publ_section_title
;
Structure prediction by ZEFSAII (Michael W. Deem and Ramdas Pophale) SiO2 
 PCOD9472689
Probable space group: C M C M
;
_chemical_formula_sum "Si O2"
_cell_formula_units_Z 80
_cell_length_a 27.546694
_cell_length_b 19.146254
_cell_length_c 8.548634
_cell_angle_alpha 90.000000
_cell_angle_beta 90.000000
_cell_angle_gamma 90.000000
_cell_volume 4508.686351
_symmetry_space_group_name_H-M "C M C M"
_symmetry_group_IT_number 63
_symmetry_cell_setting 'orthorhombic'
loop_
_space_group_symop_operation_xyz
x,y,z
-x,-y,1/2+z
x,-y,-z
-x,y,1/2-z
-x,-y,-z
x,y,1/2-z
-x,y,z
x,-y,1/2+z
1/2+x,1/2+y,z
1/2-x,1/2-y,1/2+z
1/2+x,1/2-y,-z
1/2-x,1/2+y,1/2-z
1/2-x,1/2-y,-z
1/2+x,1/2+y,1/2-z
1/2-x,1/2+y,z
1/2+x,1/2-y,1/2+z
loop_
_atom_site_type_symbol
_atom_site_label
_atom_site_fract_x
_atom_site_fract_y
_atom_site_fract_z
Si Si1 0.655469 0.075819 0.437740
Si Si2 0.946291 0.639343 0.439705
Si Si3 0.104179 0.217734 0.939208
Si Si4 0.443741 0.426004 0.061415
Si Si5 0.298680 0.215027 0.935803
O O1 0.655578 0.076268 0.250000
O O2 0.600255 0.094580 0.492443
O O3 0.689947 0.138085 0.496229
O O4 0.669258 0.000000 0.500000
O O5 0.947269 0.634652 0.250000
O O6 0.933413 0.719869 0.477990
O O7 0.000000 0.619809 0.497741
O O8 0.108964 0.217944 0.750000
O O9 0.085221 0.142369 0.990139
O O10 0.155339 0.238590 0.012104
O O11 0.443204 0.427092 0.250000
O O12 0.500000 0.419609 0.010775
O O13 0.424769 0.500000 0.000000
O O14 0.296304 0.210563 0.750000
O O15 0.250000 0.250000 0.000000
#
# Coordination Sequence:
#
# PCOD9472689 Si02
#       5
#    16  16  16  16  16
#     4  10  20  35  55  80 110 142 175 211 254 302
#     4   8  14  26  47  74 103 137 175 211 247 293
#     4   9  17  31  51  74 101 134 174 216 259 308
#     4   9  17  29  47  72 104 141 176 211 254 304
#     4  11  22  38  59  80 102 130 169 216 267 317
#
# _framework density 17.743527
#
# number of rings (size 3 to 8) (size 9 to 14) (size 15 to 20)
#    0.000    2.600    0.000    4.200    0.000    3.600 
#    0.000    1.000    0.000   21.600    0.000    0.000 
#    0.000    0.000    0.000    0.000    0.000    0.000 
#
# Total GULP energy -223073.170021 kJ/mol
# GULP energy per Si atom -5576.829251 kJ/mol
# Density = 1.770314 g / cm^3
# Si number density = 17.743527 Si / 1000 Ang^3
#
#
#
# Elastic Constant Matrix: (Units=GPa)
#
#
# Indices 1 2 3 4 5 6 
#
# 1 100.9613 60.0844 29.0388 0.0000 0.0000 0.0000
# 2 60.0844 157.7485 38.5210 0.0000 0.0000 0.0000
# 3 29.0388 38.5210 50.5259 0.0000 0.0000 0.0000
# 4 0.0000 0.0000 0.0000 27.6105 0.0000 0.0000
# 5 0.0000 0.0000 0.0000 0.0000 19.3198 0.0000
# 6 0.0000 0.0000 0.0000 0.0000 0.0000 11.1416
#
#
#
# Elastic Compliance Matrix: (Units=1/GPa)
#
#
# Indices 1 2 3 4 5 6 
#
# 1 0.013688 -0.004046 -0.004782 0.000000 0.000000 0.000000
# 2 -0.004046 0.008985 -0.004525 0.000000 0.000000 0.000000
# 3 -0.004782 -0.004525 0.025990 0.000000 0.000000 0.000000
# 4 0.000000 0.000000 0.000000 0.036218 0.000000 0.000000
# 5 0.000000 0.000000 0.000000 0.000000 0.051760 0.000000
# 6 0.000000 0.000000 0.000000 0.000000 0.000000 0.089754
#
#
# Mechanical properties :
#
#
# Convention : Reuss Voigt Hill
#
# Bulk Modulus (GPa) = 45.54353 62.72491 54.13422
# Shear Modulus (GPa) = 19.19962 23.72046 21.46004
#
# Velocity S-wave (km/s) = 3.29304 3.66026 3.48150
# Velocity P-wave (km/s) = 6.33895 7.30007 6.83642
#
# Compressibility (1/GPa) = 0.02195702
#
# Stress axis : x y z
#
# Youngs Moduli (GPa) = 73.05635 111.29439 38.47573
#
# Poissons Ratio (x) = 0.45027 0.18401
# Poissons Ratio (y) = 0.29557 0.17411
# Poissons Ratio (z) = 0.34939 0.50362
#
# Static dielectric constant tensor:
#      x y z
#    x 1.597150 0.000000 0.000000 
#    y 0.000000 1.598280 0.000000 
#    z 0.000000 0.000000 1.606160 
# 
# From -- ./inp_files/11995.got.cif
#   From: 2010.05.17/outbox.cif.g08.bks.cpg/sg63_6_cif.got.tgz:11995.got - 2010.06.03 15:47:04.
