data_PCOD9472568
_publ_section_title
;
Structure prediction by ZEFSAII (Michael W. Deem and Ramdas Pophale) SiO2 
 PCOD9472568
Probable space group: C M C M
;
_chemical_formula_sum "Si O2"
_cell_formula_units_Z 52
_cell_length_a 15.019423
_cell_length_b 21.152282
_cell_length_c 8.570667
_cell_angle_alpha 90.000000
_cell_angle_beta 90.000000
_cell_angle_gamma 90.000000
_cell_volume 2722.858659
_symmetry_space_group_name_H-M "C M C M"
_symmetry_group_IT_number 63
_symmetry_cell_setting 'orthorhombic'
loop_
_space_group_symop_operation_xyz
x,y,z
-x,-y,1/2+z
x,-y,-z
-x,y,1/2-z
-x,-y,-z
x,y,1/2-z
-x,y,z
x,-y,1/2+z
1/2+x,1/2+y,z
1/2-x,1/2-y,1/2+z
1/2+x,1/2-y,-z
1/2-x,1/2+y,1/2-z
1/2-x,1/2-y,-z
1/2+x,1/2+y,1/2-z
1/2-x,1/2+y,z
1/2+x,1/2-y,1/2+z
loop_
_atom_site_type_symbol
_atom_site_label
_atom_site_fract_x
_atom_site_fract_y
_atom_site_fract_z
Si Si1 0.000000 0.643887 0.561917
Si Si2 0.500000 0.500000 0.500000
Si Si3 0.866081 0.114904 0.062996
Si Si4 0.319187 0.071371 0.562639
Si Si5 0.500000 0.714891 0.564413
O O1 0.088525 0.605163 0.518740
O O2 0.000000 0.712614 0.485773
O O3 0.000000 0.651248 0.750000
O O4 0.577134 0.444466 0.499262
O O5 0.871804 0.111578 0.250000
O O6 0.765426 0.108013 0.006577
O O7 0.914570 0.177973 0.004131
O O8 0.312013 0.070233 0.750000
O O9 0.317798 0.000000 0.500000
O O10 0.500000 0.708615 0.750000
#
# Coordination Sequence:
#
# PCOD9472568 Si02
#       5
#     8   4  16  16   8
#     4  10  24  45  64  87 124 170 214 256 304 365
#     4  10  20  34  60  90 124 156 198 242 308 364
#     4  11  23  39  63  92 128 164 202 255 312 370
#     4  11  23  40  65  94 126 163 208 259 310 367
#     4  11  24  41  64  93 124 165 210 257 312 370
#
# _framework density 19.097574999999999
#
# number of rings (size 3 to 8) (size 9 to 14) (size 15 to 20)
#    0.000    1.231    1.538    5.077    0.000    9.846 
#    0.000    0.000    0.000    0.000    0.000    0.000 
#    0.000    0.000    0.000    0.000    0.000    0.000 
#
# Total GULP energy -144867.601616 kJ/mol
# GULP energy per Si atom -5571.830831 kJ/mol
# Density = 1.905411 g / cm^3
# Si number density = 19.097575 Si / 1000 Ang^3
#
#
#
# Elastic Constant Matrix: (Units=GPa)
#
#
# Indices 1 2 3 4 5 6 
#
# 1 188.3929 58.9504 29.1215 0.0000 0.0000 0.0000
# 2 58.9504 97.5191 18.0588 0.0000 0.0000 0.0000
# 3 29.1215 18.0588 8.4352 0.0000 0.0000 0.0000
# 4 0.0000 0.0000 0.0000 26.7526 0.0000 0.0000
# 5 0.0000 0.0000 0.0000 0.0000 23.4014 0.0000
# 6 0.0000 0.0000 0.0000 0.0000 0.0000 44.5449
#
#
#
# Elastic Compliance Matrix: (Units=1/GPa)
#
#
# Indices 1 2 3 4 5 6 
#
# 1 0.011408 0.000658 -0.040793 0.000000 0.000000 0.000000
# 2 0.000658 0.017028 -0.038727 0.000000 0.000000 0.000000
# 3 -0.040793 -0.038727 0.342296 0.000000 0.000000 0.000000
# 4 0.000000 0.000000 0.000000 0.037380 0.000000 0.000000
# 5 0.000000 0.000000 0.000000 0.000000 0.042733 0.000000
# 6 0.000000 0.000000 0.000000 0.000000 0.000000 0.022449
#
#
# Mechanical properties :
#
#
# Convention : Reuss Voigt Hill
#
# Bulk Modulus (GPa) = 4.69469 56.28982 30.49226
# Shear Modulus (GPa) = 7.12230 31.48755 19.30492
#
# Velocity S-wave (km/s) = 1.93327 4.06491 3.18285
# Velocity P-wave (km/s) = 2.72891 7.18124 5.43218
#
# Compressibility (1/GPa) = 0.21300675
#
# Stress axis : x y z
#
# Youngs Moduli (GPa) = 87.65853 58.72622 2.92145
#
# Poissons Ratio (x) = -0.03865 0.11918
# Poissons Ratio (y) = -0.05769 0.11314
# Poissons Ratio (z) = 3.57588 2.27431
#
# Static dielectric constant tensor:
#      x y z
#    x 1.653630 0.000000 0.000000 
#    y 0.000000 1.617310 0.000000 
#    z 0.000000 0.000000 1.675210 
# 
# From -- ./inp_files/3939.got.cif
#   From: 2010.05.17/outbox.cif.g08.bks.cpg/sg63_2_cif.got.tgz:3939.got - 2010.06.03 15:47:04.
