data_PCOD9472803
_publ_section_title
;
Structure prediction by ZEFSAII (Michael W. Deem and Ramdas Pophale) SiO2 
 PCOD9472803
Probable space group: C M C M
;
_chemical_formula_sum "Si O2"
_cell_formula_units_Z 96
_cell_length_a 8.106519
_cell_length_b 31.071597
_cell_length_c 19.692570
_cell_angle_alpha 90.000000
_cell_angle_beta 90.000000
_cell_angle_gamma 90.000000
_cell_volume 4960.213594
_symmetry_space_group_name_H-M "C M C M"
_symmetry_group_IT_number 63
_symmetry_cell_setting 'orthorhombic'
loop_
_space_group_symop_operation_xyz
x,y,z
-x,-y,1/2+z
x,-y,-z
-x,y,1/2-z
-x,-y,-z
x,y,1/2-z
-x,y,z
x,-y,1/2+z
1/2+x,1/2+y,z
1/2-x,1/2-y,1/2+z
1/2+x,1/2-y,-z
1/2-x,1/2+y,1/2-z
1/2-x,1/2-y,-z
1/2+x,1/2+y,1/2-z
1/2-x,1/2+y,z
1/2+x,1/2-y,1/2+z
loop_
_atom_site_type_symbol
_atom_site_label
_atom_site_fract_x
_atom_site_fract_y
_atom_site_fract_z
Si Si1 0.302515 0.265101 0.074967
Si Si2 0.198087 0.937886 0.173217
Si Si3 0.701908 0.187914 0.171978
Si Si4 0.199207 0.013498 0.075341
Si Si5 0.698970 0.889291 0.924852
Si Si6 0.303572 0.137421 0.924781
O O1 0.500000 0.265749 0.076969
O O2 0.244886 0.230074 0.130119
O O3 0.239497 0.313049 0.087952
O O4 0.250000 0.250000 0.000000
O O5 0.262816 0.936821 0.250000
O O6 0.260166 0.978657 0.129821
O O7 0.235807 0.894799 0.131600
O O8 0.000000 0.941900 0.176718
O O9 0.756368 0.187904 0.250000
O O10 0.500000 0.187900 0.172204
O O11 0.755588 0.145730 0.130177
O O12 0.000000 0.011808 0.074466
O O13 0.250184 0.062119 0.090655
O O14 0.257706 0.000000 0.000000
O O15 0.500000 0.887273 0.926207
O O16 0.759466 0.876273 0.000262
O O17 0.500000 0.132935 0.925697
#
# Coordination Sequence:
#
# PCOD9472803 Si02
#       6
#    16  16  16  16  16  16
#     4  11  21  36  60  88 116 153 197 239 286 341
#     4  10  22  40  59  82 115 154 193 235 289 350
#     4   9  19  37  58  82 114 149 186 229 279 338
#     4  10  20  35  57  84 111 145 189 233 281 337
#     4  10  20  35  57  85 113 146 189 234 280 338
#     4  11  22  37  58  87 117 148 193 242 290 342
#
# _framework density 19.354005999999998
#
# number of rings (size 3 to 8) (size 9 to 14) (size 15 to 20)
#    0.000    1.833    3.333    1.000    0.000    3.333 
#    0.000    1.667    0.000    3.500    0.000    0.000 
#    0.000    0.000    0.000    0.000    0.000    0.000 
#
# Total GULP energy -268120.086044 kJ/mol
# GULP energy per Si atom -5585.835126 kJ/mol
# Density = 1.930996 g / cm^3
# Si number density = 19.354006 Si / 1000 Ang^3
#
#
#
# Elastic Constant Matrix: (Units=GPa)
#
#
# Indices 1 2 3 4 5 6 
#
# 1 7.4281 -5.0064 11.1354 0.0000 0.0000 0.0000
# 2 -5.0064 199.2777 116.7872 0.0000 0.0000 0.0000
# 3 11.1354 116.7872 204.8490 0.0000 0.0000 0.0000
# 4 0.0000 0.0000 0.0000 32.3345 0.0000 0.0000
# 5 0.0000 0.0000 0.0000 0.0000 18.9421 0.0000
# 6 0.0000 0.0000 0.0000 0.0000 0.0000 33.7965
#
#
#
# Elastic Compliance Matrix: (Units=1/GPa)
#
#
# Indices 1 2 3 4 5 6 
#
# 1 0.170906 0.014624 -0.017628 0.000000 0.000000 0.000000
# 2 0.014624 0.008787 -0.005805 0.000000 0.000000 0.000000
# 3 -0.017628 -0.005805 0.009149 0.000000 0.000000 0.000000
# 4 0.000000 0.000000 0.000000 0.030927 0.000000 0.000000
# 5 0.000000 0.000000 0.000000 0.000000 0.052792 0.000000
# 6 0.000000 0.000000 0.000000 0.000000 0.000000 0.029589
#
#
# Mechanical properties :
#
#
# Convention : Reuss Voigt Hill
#
# Bulk Modulus (GPa) = 5.84024 73.04306 39.44165
# Shear Modulus (GPa) = 13.26815 36.25719 24.76267
#
# Velocity S-wave (km/s) = 2.62114 4.33294 3.58083
# Velocity P-wave (km/s) = 3.49065 7.92811 6.12534
#
# Compressibility (1/GPa) = 0.17122588
#
# Stress axis : x y z
#
# Youngs Moduli (GPa) = 5.85118 113.79851 109.29801
#
# Poissons Ratio (x) = -1.66424 1.92670
# Poissons Ratio (y) = -0.08557 0.63446
# Poissons Ratio (z) = 0.10314 0.66058
#
# Static dielectric constant tensor:
#      x y z
#    x 1.686730 0.000000 0.000000 
#    y 0.000000 1.635230 0.000000 
#    z 0.000000 0.000000 1.667040 
# 
# From -- ./inp_files/51254.got.cif
#   From: 2010.05.17/outbox.cif.g08.bks.cpg/sg63_26_cif.got.tgz:51254.got - 2010.06.03 15:47:04.
