data_PCOD9472935
_publ_section_title
;
Structure prediction by ZEFSAII (Michael W. Deem and Ramdas Pophale) SiO2 
 PCOD9472935
Probable space group: C M C M
;
_chemical_formula_sum "Si O2"
_cell_formula_units_Z 112
_cell_length_a 13.984657
_cell_length_b 13.993140
_cell_length_c 26.379897
_cell_angle_alpha 90.000000
_cell_angle_beta 90.000000
_cell_angle_gamma 90.000000
_cell_volume 5162.262609
_symmetry_space_group_name_H-M "C M C M"
_symmetry_group_IT_number 63
_symmetry_cell_setting 'orthorhombic'
loop_
_space_group_symop_operation_xyz
x,y,z
-x,-y,1/2+z
x,-y,-z
-x,y,1/2-z
-x,-y,-z
x,y,1/2-z
-x,y,z
x,-y,1/2+z
1/2+x,1/2+y,z
1/2-x,1/2-y,1/2+z
1/2+x,1/2-y,-z
1/2-x,1/2+y,1/2-z
1/2-x,1/2-y,-z
1/2+x,1/2+y,1/2-z
1/2-x,1/2+y,z
1/2+x,1/2-y,1/2+z
loop_
_atom_site_type_symbol
_atom_site_label
_atom_site_fract_x
_atom_site_fract_y
_atom_site_fract_z
Si Si1 0.734212 0.357959 0.519081
Si Si2 0.894073 0.202122 0.111791
Si Si3 0.891730 0.874553 0.071627
Si Si4 0.887724 0.648587 0.094739
Si Si5 0.387399 0.162505 0.694173
Si Si6 0.104209 0.007776 0.169729
Si Si7 0.815403 0.453113 0.694957
O O1 0.750000 0.250000 0.500000
O O2 0.660633 0.342614 0.564901
O O3 0.685209 0.405630 0.470464
O O4 0.830534 0.393823 0.546261
O O5 0.845797 0.287019 0.144104
O O6 0.000000 0.232355 0.094288
O O7 0.902499 0.116988 0.151793
O O8 0.879804 0.763721 0.088230
O O9 0.886255 0.940641 0.120650
O O10 0.000000 0.883101 0.050346
O O11 0.838110 0.612537 0.146585
O O12 0.000000 0.624128 0.095354
O O13 0.348628 0.191542 0.750000
O O14 0.500000 0.187796 0.694055
O O15 0.377621 0.049142 0.690103
O O16 0.000000 0.983769 0.193204
O O17 0.206673 0.007460 0.196000
O O18 0.835466 0.407433 0.750000
#
# Coordination Sequence:
#
# PCOD9472935 Si02
#       7
#    16  16  16  16  16  16  16
#     4  10  20  35  60  91 119 157 198 241 293 354
#     4  10  20  37  59  86 118 151 195 246 292 350
#     4   9  20  39  64  89 123 162 198 245 299 361
#     4  10  21  40  62  89 123 157 201 254 302 354
#     4   9  20  38  61  87 114 151 196 246 302 356
#     4  10  22  39  60  88 121 157 198 244 297 356
#     4  11  23  39  64  88 116 157 202 252 303 363
#
# _framework density 21.695912
#
# number of rings (size 3 to 8) (size 9 to 14) (size 15 to 20)
#    0.000    2.143    1.429    0.857    4.000    2.857 
#    0.000    4.286    0.000    3.429    0.000    0.000 
#    0.000    0.000    0.000    0.000    0.000    0.000 
#
# Total GULP energy -312245.991572 kJ/mol
# GULP energy per Si atom -5575.821278 kJ/mol
# Density = 2.164653 g / cm^3
# Si number density = 21.695912 Si / 1000 Ang^3
#
#
#
# Elastic Constant Matrix: (Units=GPa)
#
#
# Indices 1 2 3 4 5 6 
#
# 1 118.2148 11.9658 57.0801 0.0000 0.0000 0.0000
# 2 11.9658 42.6205 23.9406 0.0000 0.0000 0.0000
# 3 57.0801 23.9406 116.9415 0.0000 0.0000 0.0000
# 4 0.0000 0.0000 0.0000 16.1804 0.0000 0.0000
# 5 0.0000 0.0000 0.0000 0.0000 7.5664 0.0000
# 6 0.0000 0.0000 0.0000 0.0000 0.0000 19.5600
#
#
#
# Elastic Compliance Matrix: (Units=1/GPa)
#
#
# Indices 1 2 3 4 5 6 
#
# 1 0.011068 -0.000082 -0.005385 0.000000 0.000000 0.000000
# 2 -0.000082 0.026512 -0.005388 0.000000 0.000000 0.000000
# 3 -0.005385 -0.005388 0.012283 0.000000 0.000000 0.000000
# 4 0.000000 0.000000 0.000000 0.061803 0.000000 0.000000
# 5 0.000000 0.000000 0.000000 0.000000 0.132164 0.000000
# 6 0.000000 0.000000 0.000000 0.000000 0.000000 0.051125
#
#
# Mechanical properties :
#
#
# Convention : Reuss Voigt Hill
#
# Bulk Modulus (GPa) = 35.52074 51.52776 43.52425
# Shear Modulus (GPa) = 15.33509 20.98070 18.15790
#
# Velocity S-wave (km/s) = 2.66149 3.11309 2.89611
# Velocity P-wave (km/s) = 5.08452 6.05998 5.59355
#
# Compressibility (1/GPa) = 0.02815257
#
# Stress axis : x y z
#
# Youngs Moduli (GPa) = 90.35147 37.71845 81.41372
#
# Poissons Ratio (x) = 0.00310 0.43845
# Poissons Ratio (y) = 0.00743 0.43862
# Poissons Ratio (z) = 0.48659 0.20321
#
# Static dielectric constant tensor:
#      x y z
#    x -6.950370 0.000000 0.000000 
#    y 0.000000 1.781130 0.000000 
#    z 0.000000 0.000000 1.850010 
# 
# From -- ./inp_files/69431.got.cif
#   From: 2010.05.17/outbox.cif.g08.bks.cpg/sg63_35_cif.got.tgz:69431.got - 2010.06.03 15:47:04.
