data_PCOD9472240
_publ_section_title
;
Structure prediction by ZEFSAII (Michael W. Deem and Ramdas Pophale) SiO2 
 PCOD9472240
Probable space group: C M C M
;
_chemical_formula_sum "Si O2"
_cell_formula_units_Z 116
_cell_length_a 7.644919
_cell_length_b 27.338032
_cell_length_c 27.512776
_cell_angle_alpha 90.000000
_cell_angle_beta 90.000000
_cell_angle_gamma 90.000000
_cell_volume 5750.088753
_symmetry_space_group_name_H-M "C M C M"
_symmetry_group_IT_number 63
_symmetry_cell_setting 'orthorhombic'
loop_
_space_group_symop_operation_xyz
x,y,z
-x,-y,1/2+z
x,-y,-z
-x,y,1/2-z
-x,-y,-z
x,y,1/2-z
-x,y,z
x,-y,1/2+z
1/2+x,1/2+y,z
1/2-x,1/2-y,1/2+z
1/2+x,1/2-y,-z
1/2-x,1/2+y,1/2-z
1/2-x,1/2-y,-z
1/2+x,1/2+y,1/2-z
1/2-x,1/2+y,z
1/2+x,1/2-y,1/2+z
loop_
_atom_site_type_symbol
_atom_site_label
_atom_site_fract_x
_atom_site_fract_y
_atom_site_fract_z
Si Si1 0.788701 0.449317 0.804305
Si Si2 0.000000 0.311332 0.250000
Si Si3 0.298089 0.309844 0.966619
Si Si4 0.296557 0.794181 0.070704
Si Si5 0.713050 0.495750 0.944619
Si Si6 0.702080 0.105866 0.395184
Si Si7 0.791724 0.947556 0.353780
Si Si8 0.205060 0.160077 0.672283
O O1 0.724277 0.441798 0.750000
O O2 0.722741 0.409049 0.842616
O O3 0.745862 0.504084 0.822278
O O4 0.000000 0.446033 0.804626
O O5 0.156785 0.313707 0.207478
O O6 0.500000 0.299992 0.977700
O O7 0.224885 0.259835 0.943202
O O8 0.287479 0.352627 0.927501
O O9 0.216179 0.322218 0.018976
O O10 0.500000 0.789057 0.083509
O O11 0.209709 0.818855 0.117235
O O12 0.500000 0.493743 0.943049
O O13 0.783910 0.445266 0.923512
O O14 0.771117 0.538852 0.908131
O O15 0.767469 0.500000 0.000000
O O16 0.500000 0.120026 0.389471
O O17 0.730618 0.896654 0.331481
O O18 0.000000 0.942148 0.356912
O O19 0.000000 0.161604 0.688442
#
# Coordination Sequence:
#
# PCOD9472240 Si02
#       8
#    16   4  16  16  16  16  16  16
#     4   9  19  34  55  76 106 150 199 248 299 352
#     4  12  26  44  64  90 122 172 210 264 304 370
#     4  10  21  37  63  90 121 156 195 242 306 370
#     4  10  21  40  63  93 121 155 197 251 308 372
#     4   9  18  33  51  73 110 154 194 236 296 362
#     4  10  20  34  52  82 114 147 192 245 297 361
#     4   9  20  34  50  81 114 151 198 248 299 361
#     4  11  24  41  64  92 127 164 210 258 312 367
#
# _framework density 20.173601999999999
#
# number of rings (size 3 to 8) (size 9 to 14) (size 15 to 20)
#    0.000    2.207    0.690    1.448    3.862    2.759 
#    0.000    0.000    1.517    0.000    0.000    0.000 
#    0.000    0.000    0.000    0.000    0.000    0.000 
#
# Total GULP energy -322969.765860 kJ/mol
# GULP energy per Si atom -5568.444239 kJ/mol
# Density = 2.012769 g / cm^3
# Si number density = 20.173602 Si / 1000 Ang^3
#
#
#
# Elastic Constant Matrix: (Units=GPa)
#
#
# Indices 1 2 3 4 5 6 
#
# 1 72.0483 2.8917 11.4140 0.0000 0.0000 0.0000
# 2 2.8917 34.6880 25.8674 0.0000 0.0000 0.0000
# 3 11.4140 25.8674 143.1648 0.0000 0.0000 0.0000
# 4 0.0000 0.0000 0.0000 13.8562 0.0000 0.0000
# 5 0.0000 0.0000 0.0000 0.0000 43.9601 0.0000
# 6 0.0000 0.0000 0.0000 0.0000 0.0000 -5.7042
#
#
#
# Elastic Compliance Matrix: (Units=1/GPa)
#
#
# Indices 1 2 3 4 5 6 
#
# 1 0.014062 -0.000389 -0.001051 0.000000 0.000000 0.000000
# 2 -0.000389 0.033328 -0.005991 0.000000 0.000000 0.000000
# 3 -0.001051 -0.005991 0.008151 0.000000 0.000000 0.000000
# 4 0.000000 0.000000 0.000000 0.072170 0.000000 0.000000
# 5 0.000000 0.000000 0.000000 0.000000 0.022748 0.000000
# 6 0.000000 0.000000 0.000000 0.000000 0.000000 -0.175311
#
#
# Mechanical properties :
#
#
# Convention : Reuss Voigt Hill
#
# Bulk Modulus (GPa) = 24.58180 36.69416 30.63798
# Shear Modulus (GPa) = 1400.85429 24.40429 712.62929
#
# Velocity S-wave (km/s) = 26.38005 3.48187 18.81529
# Velocity P-wave (km/s) = 30.66085 5.86457 22.07353
#
# Compressibility (1/GPa) = 0.04068051
#
# Stress axis : x y z
#
# Youngs Moduli (GPa) = 71.11543 30.00455 122.68151
#
# Poissons Ratio (x) = 0.01166 0.12892
# Poissons Ratio (y) = 0.02763 0.73497
# Poissons Ratio (z) = 0.07473 0.17975
#
# Static dielectric constant tensor:
#      x y z
#    x 1.735590 0.000000 0.000000 
#    y 0.000000 1.706660 0.000000 
#    z 0.000000 0.000000 1.734620 
# 
# From -- ./inp_files/67592.got.cif
#   From: 2010.05.17/outbox.cif.g08.bks.cpg/sg63_34_cif.got.tgz:67592.got - 2010.06.03 15:47:04.
