data_PCOD9472135
_publ_section_title
;
Structure prediction by ZEFSAII (Michael W. Deem and Ramdas Pophale) SiO2 
 PCOD9472135
Probable space group: C M C M
;
_chemical_formula_sum "Si O2"
_cell_formula_units_Z 112
_cell_length_a 16.468857
_cell_length_b 14.944423
_cell_length_c 27.108016
_cell_angle_alpha 90.000000
_cell_angle_beta 90.000000
_cell_angle_gamma 90.000000
_cell_volume 6671.758899
_symmetry_space_group_name_H-M "C M C M"
_symmetry_group_IT_number 63
_symmetry_cell_setting 'orthorhombic'
loop_
_space_group_symop_operation_xyz
x,y,z
-x,-y,1/2+z
x,-y,-z
-x,y,1/2-z
-x,-y,-z
x,y,1/2-z
-x,y,z
x,-y,1/2+z
1/2+x,1/2+y,z
1/2-x,1/2-y,1/2+z
1/2+x,1/2-y,-z
1/2-x,1/2+y,1/2-z
1/2-x,1/2-y,-z
1/2+x,1/2+y,1/2-z
1/2-x,1/2+y,z
1/2+x,1/2-y,1/2+z
loop_
_atom_site_type_symbol
_atom_site_label
_atom_site_fract_x
_atom_site_fract_y
_atom_site_fract_z
Si Si1 0.835987 0.881364 0.534573
Si Si2 0.401747 0.262513 0.116706
Si Si3 0.098730 0.382609 0.693963
Si Si4 0.404497 0.439700 0.068411
Si Si5 0.148707 0.625972 0.032945
Si Si6 0.593384 0.801085 0.068292
Si Si7 0.401788 0.019955 0.889985
O O1 0.889766 0.894022 0.485258
O O2 0.742717 0.879774 0.518518
O O3 0.857612 0.790312 0.562446
O O4 0.854145 0.968898 0.567256
O O5 0.500000 0.256432 0.111279
O O6 0.379687 0.210479 0.166697
O O7 0.380376 0.365961 0.108847
O O8 0.363769 0.205142 0.072441
O O9 0.127919 0.389029 0.750000
O O10 0.124966 0.463372 0.657795
O O11 0.000000 0.385747 0.695073
O O12 0.500000 0.460299 0.073149
O O13 0.124149 0.536716 0.062037
O O14 0.097512 0.650931 0.985129
O O15 0.500000 0.779507 0.080067
O O16 0.625641 0.877446 0.105276
O O17 0.500000 0.021592 0.889885
#
# Coordination Sequence:
#
# PCOD9472135 Si02
#       7
#    16  16  16  16  16  16  16
#     4  11  22  29  44  64  90 128 167 196 219 255
#     4   9  17  30  49  69  92 123 153 190 239 280
#     4   8  14  28  49  74  96 112 144 194 244 290
#     4  10  20  34  46  60  89 127 166 196 225 264
#     4  11  20  29  43  66  96 124 157 197 220 270
#     4  11  20  31  44  61  93 131 161 187 223 274
#     4   9  19  30  45  68  94 124 150 185 240 288
#
# _framework density 16.787178000000001
#
# number of rings (size 3 to 8) (size 9 to 14) (size 15 to 20)
#    0.000    2.143    1.429    4.714    4.000    1.143 
#    0.000    0.000    0.000    0.000    0.000   17.000 
#    0.000    6.857    0.000    0.000    0.000    2.286 
#
# Total GULP energy -312242.396580 kJ/mol
# GULP energy per Si atom -5575.757082 kJ/mol
# Density = 1.674897 g / cm^3
# Si number density = 16.787178 Si / 1000 Ang^3
#
#
#
# Elastic Constant Matrix: (Units=GPa)
#
#
# Indices 1 2 3 4 5 6 
#
# 1 25.3548 11.4299 -4.8907 0.0000 0.0000 0.0000
# 2 11.4299 127.5563 33.5179 0.0000 0.0000 0.0000
# 3 -4.8907 33.5179 68.3961 0.0000 0.0000 0.0000
# 4 0.0000 0.0000 0.0000 13.5776 0.0000 0.0000
# 5 0.0000 0.0000 0.0000 0.0000 -0.9594 0.0000
# 6 0.0000 0.0000 0.0000 0.0000 0.0000 1.7715
#
#
#
# Elastic Compliance Matrix: (Units=1/GPa)
#
#
# Indices 1 2 3 4 5 6 
#
# 1 0.042946 -0.005343 0.005689 0.000000 0.000000 0.000000
# 2 -0.005343 0.009663 -0.005118 0.000000 0.000000 0.000000
# 3 0.005689 -0.005118 0.017535 0.000000 0.000000 0.000000
# 4 0.000000 0.000000 0.000000 0.073651 0.000000 0.000000
# 5 0.000000 0.000000 0.000000 0.000000 -1.042354 0.000000
# 6 0.000000 0.000000 0.000000 0.000000 0.000000 0.564483
#
#
# Mechanical properties :
#
#
# Convention : Reuss Voigt Hill
#
# Bulk Modulus (GPa) = 16.50107 33.49128 24.99617
# Shear Modulus (GPa) = -16.42945 14.96130 -0.73408
#
# Velocity S-wave (km/s) = -3.13180 2.98859 -0.66199
# Velocity P-wave (km/s) = 1.79628 5.64825 3.78656
#
# Compressibility (1/GPa) = 0.06060212
#
# Stress axis : x y z
#
# Youngs Moduli (GPa) = 23.28483 103.48520 57.02739
#
# Poissons Ratio (x) = 0.55295 -0.32445
# Poissons Ratio (y) = 0.12442 0.29184
# Poissons Ratio (z) = -0.13248 0.52959
#
# Static dielectric constant tensor:
#      x y z
#    x 1.552400 0.000000 0.000000 
#    y 0.000000 1.616580 0.000000 
#    z 0.000000 0.000000 1.548780 
# 
# From -- ./inp_files/73565.got.cif
#   From: 2010.05.17/outbox.cif.g08.bks.cpg/sg63_37_cif.got.tgz:73565.got - 2010.06.03 15:47:04.
