data_PCOD9472117
_publ_section_title
;
Structure prediction by ZEFSAII (Michael W. Deem and Ramdas Pophale) SiO2 
 PCOD9472117
Probable space group: C M C M
;
_chemical_formula_sum "Si O2"
_cell_formula_units_Z 96
_cell_length_a 22.140828
_cell_length_b 14.874391
_cell_length_c 15.192011
_cell_angle_alpha 90.000000
_cell_angle_beta 90.000000
_cell_angle_gamma 90.000000
_cell_volume 5003.205230
_symmetry_space_group_name_H-M "C M C M"
_symmetry_group_IT_number 63
_symmetry_cell_setting 'orthorhombic'
loop_
_space_group_symop_operation_xyz
x,y,z
-x,-y,1/2+z
x,-y,-z
-x,y,1/2-z
-x,-y,-z
x,y,1/2-z
-x,y,z
x,-y,1/2+z
1/2+x,1/2+y,z
1/2-x,1/2-y,1/2+z
1/2+x,1/2-y,-z
1/2-x,1/2+y,1/2-z
1/2-x,1/2-y,-z
1/2+x,1/2+y,1/2-z
1/2-x,1/2+y,z
1/2+x,1/2-y,1/2+z
loop_
_atom_site_type_symbol
_atom_site_label
_atom_site_fract_x
_atom_site_fract_y
_atom_site_fract_z
Si Si1 0.000000 0.420673 0.346727
Si Si2 0.662468 0.667407 0.850098
Si Si3 0.248211 0.515289 0.895236
Si Si4 0.125806 0.421281 0.432135
Si Si5 0.383703 0.286347 0.968442
Si Si6 0.267099 0.315576 0.650800
Si Si7 0.500000 0.297072 0.851950
O O1 0.937137 0.447329 0.388803
O O2 0.000000 0.457976 0.250000
O O3 0.000000 0.311895 0.345320
O O4 0.639533 0.679228 0.750000
O O5 0.696042 0.571819 0.858116
O O6 0.714034 0.743892 0.866127
O O7 0.617123 0.677287 0.932088
O O8 0.187784 0.574319 0.877013
O O9 0.241667 0.416540 0.855196
O O10 0.258760 0.500000 0.000000
O O11 0.137695 0.500000 0.500000
O O12 0.116606 0.322406 0.471001
O O13 0.321205 0.310062 0.919042
O O14 0.439851 0.318701 0.908317
O O15 0.290381 0.298816 0.750000
O O16 0.500000 0.330213 0.750000
#
# Coordination Sequence:
#
# PCOD9472117 Si02
#       7
#     8  16  16  16  16  16   8
#     4   9  19  33  51  78 114 153 194 239 282 334
#     4  11  22  36  56  84 120 158 190 235 297 353
#     4  11  20  35  57  83 116 154 191 242 296 348
#     4  10  20  33  56  79 113 154 198 234 291 342
#     4  11  20  39  59  81 119 153 192 250 290 337
#     4  11  22  35  57  86 117 154 198 240 293 350
#     4   9  20  37  62  89 109 149 202 243 289 337
#
# _framework density 19.1877
#
# number of rings (size 3 to 8) (size 9 to 14) (size 15 to 20)
#    0.000    1.500    3.333    3.750    0.000    2.000 
#    0.000    1.250    0.000    2.000    0.000    2.333 
#    0.000    0.000    0.000    0.000    0.000    0.000 
#
# Total GULP energy -267678.429943 kJ/mol
# GULP energy per Si atom -5576.633957 kJ/mol
# Density = 1.914403 g / cm^3
# Si number density = 19.187700 Si / 1000 Ang^3
#
#
#
# Elastic Constant Matrix: (Units=GPa)
#
#
# Indices 1 2 3 4 5 6 
#
# 1 60.2082 -0.5128 47.5220 0.0000 0.0000 0.0000
# 2 -0.5128 48.6974 1.5269 0.0000 0.0000 0.0000
# 3 47.5220 1.5269 134.4034 0.0000 0.0000 0.0000
# 4 0.0000 0.0000 0.0000 20.7421 0.0000 0.0000
# 5 0.0000 0.0000 0.0000 0.0000 -9.2078 0.0000
# 6 0.0000 0.0000 0.0000 0.0000 0.0000 20.0952
#
#
#
# Elastic Compliance Matrix: (Units=1/GPa)
#
#
# Indices 1 2 3 4 5 6 
#
# 1 0.023051 0.000498 -0.008156 0.000000 0.000000 0.000000
# 2 0.000498 0.020553 -0.000410 0.000000 0.000000 0.000000
# 3 -0.008156 -0.000410 0.010329 0.000000 0.000000 0.000000
# 4 0.000000 0.000000 0.000000 0.048211 0.000000 0.000000
# 5 0.000000 0.000000 0.000000 0.000000 -0.108604 0.000000
# 6 0.000000 0.000000 0.000000 0.000000 0.000000 0.049763
#
#
# Mechanical properties :
#
#
# Convention : Reuss Voigt Hill
#
# Bulk Modulus (GPa) = 26.45635 37.82014 32.13824
# Shear Modulus (GPa) = 69.40931 19.31076 44.36003
#
# Velocity S-wave (km/s) = 6.02100 3.17584 4.81344
# Velocity P-wave (km/s) = 7.88382 5.76206 6.90493
#
# Compressibility (1/GPa) = 0.03779812
#
# Stress axis : x y z
#
# Youngs Moduli (GPa) = 43.38274 48.65449 96.81787
#
# Poissons Ratio (x) = -0.02425 0.78963
# Poissons Ratio (y) = -0.02162 0.03967
# Poissons Ratio (z) = 0.35382 0.01994
#
# Static dielectric constant tensor:
#      x y z
#    x 2.075830 0.000000 0.000000 
#    y 0.000000 1.653360 0.000000 
#    z 0.000000 0.000000 1.702140 
# 
# From -- ./inp_files/35443.got.cif
#   From: 2010.05.17/outbox.cif.g08.bks.cpg/sg63_18_cif.got.tgz:35443.got - 2010.06.03 15:47:04.
