data_PCOD9472491
_publ_section_title
;
Structure prediction by ZEFSAII (Michael W. Deem and Ramdas Pophale) SiO2 
 PCOD9472491
Probable space group: C M C M
;
_chemical_formula_sum "Si O2"
_cell_formula_units_Z 92
_cell_length_a 7.871794
_cell_length_b 27.870406
_cell_length_c 22.714875
_cell_angle_alpha 90.000000
_cell_angle_beta 90.000000
_cell_angle_gamma 90.000000
_cell_volume 4983.418578
_symmetry_space_group_name_H-M "C M C M"
_symmetry_group_IT_number 63
_symmetry_cell_setting 'orthorhombic'
loop_
_space_group_symop_operation_xyz
x,y,z
-x,-y,1/2+z
x,-y,-z
-x,y,1/2-z
-x,-y,-z
x,y,1/2-z
-x,y,z
x,-y,1/2+z
1/2+x,1/2+y,z
1/2-x,1/2-y,1/2+z
1/2+x,1/2-y,-z
1/2-x,1/2+y,1/2-z
1/2-x,1/2-y,-z
1/2+x,1/2+y,1/2-z
1/2-x,1/2+y,z
1/2+x,1/2-y,1/2+z
loop_
_atom_site_type_symbol
_atom_site_label
_atom_site_fract_x
_atom_site_fract_y
_atom_site_fract_z
Si Si1 0.500000 0.023021 0.067261
Si Si2 0.298067 0.219085 0.870589
Si Si3 0.500000 0.875450 0.879033
Si Si4 0.500000 0.145355 0.250000
Si Si5 0.293419 0.725766 0.250000
Si Si6 0.698773 0.363842 0.053534
Si Si7 0.810871 0.027796 0.937518
Si Si8 0.706509 0.314524 0.566317
O O1 0.500000 0.079507 0.076755
O O2 0.670910 0.002762 0.096032
O O3 0.500000 0.000000 0.000000
O O4 0.500000 0.213125 0.871694
O O5 0.255006 0.242468 0.807908
O O6 0.223326 0.168023 0.888631
O O7 0.252843 0.259378 0.919184
O O8 0.500000 0.885423 0.809588
O O9 0.671888 0.845431 0.891653
O O10 0.666812 0.180367 0.250000
O O11 0.500000 0.714808 0.250000
O O12 0.500000 0.370087 0.042583
O O13 0.761826 0.418385 0.054949
O O14 0.759789 0.332557 0.998272
O O15 0.000000 0.029911 0.911462
O O16 0.829466 0.000000 0.000000
O O17 0.500000 0.320652 0.574932
#
# Coordination Sequence:
#
# PCOD9472491 Si02
#       8
#     8  16   8   4   8  16  16  16
#     4  10  20  34  56  84 110 146 192 240 292 350
#     4  10  21  35  55  79 115 159 193 238 290 348
#     4  12  24  36  64  90 112 158 202 240 308 354
#     4  12  24  40  64  86 118 154 198 256 288 340
#     4  10  22  42  58  79 115 163 205 240 286 354
#     4  10  21  33  54  86 117 152 194 241 299 351
#     4   9  18  34  53  76 111 147 183 232 282 343
#     4  10  21  36  52  82 122 155 188 235 292 359
#
# _framework density 18.461221999999999
#
# number of rings (size 3 to 8) (size 9 to 14) (size 15 to 20)
#    0.000    1.913    1.739    2.609    4.870    2.087 
#    0.000    0.000    0.000    1.043    0.000    1.217 
#    0.000    0.000    0.000    0.000    0.000    0.000 
#
# Total GULP energy -256093.658434 kJ/mol
# GULP energy per Si atom -5567.253444 kJ/mol
# Density = 1.841920 g / cm^3
# Si number density = 18.461222 Si / 1000 Ang^3
#
#
#
# Elastic Constant Matrix: (Units=GPa)
#
#
# Indices 1 2 3 4 5 6 
#
# 1 62.2067 22.5344 4.3132 0.0000 0.0000 0.0000
# 2 22.5344 111.6975 9.8299 0.0000 0.0000 0.0000
# 3 4.3132 9.8299 37.1873 0.0000 0.0000 0.0000
# 4 0.0000 0.0000 0.0000 16.0835 0.0000 0.0000
# 5 0.0000 0.0000 0.0000 0.0000 7.3309 0.0000
# 6 0.0000 0.0000 0.0000 0.0000 0.0000 22.4695
#
#
#
# Elastic Compliance Matrix: (Units=1/GPa)
#
#
# Indices 1 2 3 4 5 6 
#
# 1 0.017388 -0.003410 -0.001115 0.000000 0.000000 0.000000
# 2 -0.003410 0.009835 -0.002204 0.000000 0.000000 0.000000
# 3 -0.001115 -0.002204 0.027603 0.000000 0.000000 0.000000
# 4 0.000000 0.000000 0.000000 0.062175 0.000000 0.000000
# 5 0.000000 0.000000 0.000000 0.000000 0.136409 0.000000
# 6 0.000000 0.000000 0.000000 0.000000 0.000000 0.044505
#
#
# Mechanical properties :
#
#
# Convention : Reuss Voigt Hill
#
# Bulk Modulus (GPa) = 24.17396 31.60515 27.88955
# Shear Modulus (GPa) = 15.37695 20.80439 18.09067
#
# Velocity S-wave (km/s) = 2.88919 3.36061 3.13378
# Velocity P-wave (km/s) = 4.92471 5.67584 5.31356
#
# Compressibility (1/GPa) = 0.04136683
#
# Stress axis : x y z
#
# Youngs Moduli (GPa) = 57.51106 101.68154 36.22805
#
# Poissons Ratio (x) = 0.34671 0.04041
# Poissons Ratio (y) = 0.19610 0.07985
# Poissons Ratio (z) = 0.06415 0.22412
#
# Static dielectric constant tensor:
#      x y z
#    x 1.717470 0.000000 0.000000 
#    y 0.000000 1.678350 0.000000 
#    z 0.000000 0.000000 1.645220 
# 
# From -- ./inp_files/51148.got.cif
#   From: 2010.05.17/outbox.cif.g08.bks.cpg/sg63_26_cif.got.tgz:51148.got - 2010.06.03 15:47:04.
