data_PCOD9472983
_publ_section_title
;
Structure prediction by ZEFSAII (Michael W. Deem and Ramdas Pophale) SiO2 
 PCOD9472983
Probable space group: C M C M
;
_chemical_formula_sum "Si O2"
_cell_formula_units_Z 112
_cell_length_a 27.967341
_cell_length_b 15.195596
_cell_length_c 14.038827
_cell_angle_alpha 90.000000
_cell_angle_beta 90.000000
_cell_angle_gamma 90.000000
_cell_volume 5966.226525
_symmetry_space_group_name_H-M "C M C M"
_symmetry_group_IT_number 63
_symmetry_cell_setting 'orthorhombic'
loop_
_space_group_symop_operation_xyz
x,y,z
-x,-y,1/2+z
x,-y,-z
-x,y,1/2-z
-x,-y,-z
x,y,1/2-z
-x,y,z
x,-y,1/2+z
1/2+x,1/2+y,z
1/2-x,1/2-y,1/2+z
1/2+x,1/2-y,-z
1/2-x,1/2+y,1/2-z
1/2-x,1/2-y,-z
1/2+x,1/2+y,1/2-z
1/2-x,1/2+y,z
1/2+x,1/2-y,1/2+z
loop_
_atom_site_type_symbol
_atom_site_label
_atom_site_fract_x
_atom_site_fract_y
_atom_site_fract_z
Si Si1 0.946456 0.975583 0.388984
Si Si2 0.858355 0.097349 0.357196
Si Si3 0.056158 0.766274 0.141241
Si Si4 0.717741 0.767536 0.860340
Si Si5 0.634495 0.239041 0.994193
Si Si6 0.255538 0.538051 0.364387
Si Si7 0.303687 0.869223 0.362746
O O1 0.938871 0.872083 0.371434
O O2 0.000000 0.997566 0.353562
O O3 0.946700 0.000000 0.500000
O O4 0.902307 0.030809 0.350538
O O5 0.846999 0.130957 0.250000
O O6 0.871976 0.177897 0.424806
O O7 0.810613 0.048787 0.394831
O O8 0.070243 0.743868 0.250000
O O9 0.000000 0.746181 0.129683
O O10 0.088712 0.723075 0.060395
O O11 0.702488 0.759206 0.750000
O O12 0.730163 0.868867 0.881202
O O13 0.765630 0.710553 0.870992
O O14 0.677010 0.737859 0.932117
O O15 0.652146 0.158500 0.928549
O O16 0.258010 0.524865 0.250000
O O17 0.224714 0.455423 0.398104
O O18 0.315940 0.878515 0.250000
#
# Coordination Sequence:
#
# PCOD9472983 Si02
#       7
#    16  16  16  16  16  16  16
#     4  10  20  36  55  80 111 147 197 245 282 335
#     4  11  22  35  54  79 114 158 198 235 282 338
#     4  10  22  40  59  80 111 151 195 243 293 346
#     4  10  21  38  54  79 115 150 199 246 281 333
#     4  12  22  35  55  84 111 149 192 242 284 338
#     4   9  20  37  55  78 114 157 196 233 281 344
#     4  10  21  37  56  80 115 155 193 238 291 342
#
# _framework density 18.772334000000001
#
# number of rings (size 3 to 8) (size 9 to 14) (size 15 to 20)
#    0.000    1.714    2.857    1.714    2.000    1.429 
#    0.000    0.000    0.000    1.286    0.000    2.000 
#    0.000    3.429    0.000    0.714    0.000    0.000 
#
# Total GULP energy -312830.487257 kJ/mol
# GULP energy per Si atom -5586.258701 kJ/mol
# Density = 1.872961 g / cm^3
# Si number density = 18.772334 Si / 1000 Ang^3
#
#
#
# Elastic Constant Matrix: (Units=GPa)
#
#
# Indices 1 2 3 4 5 6 
#
# 1 78.2816 17.7852 40.8658 0.0000 0.0000 0.0000
# 2 17.7852 62.8139 21.1131 0.0000 0.0000 0.0000
# 3 40.8658 21.1131 119.1729 0.0000 0.0000 0.0000
# 4 0.0000 0.0000 0.0000 18.9840 0.0000 0.0000
# 5 0.0000 0.0000 0.0000 0.0000 24.7354 0.0000
# 6 0.0000 0.0000 0.0000 0.0000 0.0000 23.0301
#
#
#
# Elastic Compliance Matrix: (Units=1/GPa)
#
#
# Indices 1 2 3 4 5 6 
#
# 1 0.016029 -0.002861 -0.004990 0.000000 0.000000 0.000000
# 2 -0.002861 0.017439 -0.002108 0.000000 0.000000 0.000000
# 3 -0.004990 -0.002108 0.010476 0.000000 0.000000 0.000000
# 4 0.000000 0.000000 0.000000 0.052676 0.000000 0.000000
# 5 0.000000 0.000000 0.000000 0.000000 0.040428 0.000000
# 6 0.000000 0.000000 0.000000 0.000000 0.000000 0.043422
#
#
# Mechanical properties :
#
#
# Convention : Reuss Voigt Hill
#
# Bulk Modulus (GPa) = 41.62325 46.64407 44.13366
# Shear Modulus (GPa) = 23.99273 25.38351 24.68812
#
# Velocity S-wave (km/s) = 3.57892 3.68118 3.63041
# Velocity P-wave (km/s) = 6.26889 6.55510 6.41359
#
# Compressibility (1/GPa) = 0.02402503
#
# Stress axis : x y z
#
# Youngs Moduli (GPa) = 62.38576 57.34311 95.45883
#
# Poissons Ratio (x) = 0.16408 0.47631
# Poissons Ratio (y) = 0.17851 0.20126
# Poissons Ratio (z) = 0.31129 0.12090
#
# Static dielectric constant tensor:
#      x y z
#    x 1.651270 0.000000 0.000000 
#    y 0.000000 1.625950 0.000000 
#    z 0.000000 0.000000 1.721200 
# 
# From -- ./inp_files/37914.got.cif
#   From: 2010.05.17/outbox.cif.g08.bks.cpg/sg63_19_cif.got.tgz:37914.got - 2010.06.03 15:47:04.
