data_PCOD9472556
_publ_section_title
;
Structure prediction by ZEFSAII (Michael W. Deem and Ramdas Pophale) SiO2 
 PCOD9472556
Probable space group: C M C M
;
_chemical_formula_sum "Si O2"
_cell_formula_units_Z 116
_cell_length_a 7.692712
_cell_length_b 29.178786
_cell_length_c 24.440961
_cell_angle_alpha 90.000000
_cell_angle_beta 90.000000
_cell_angle_gamma 90.000000
_cell_volume 5486.115802
_symmetry_space_group_name_H-M "C M C M"
_symmetry_group_IT_number 63
_symmetry_cell_setting 'orthorhombic'
loop_
_space_group_symop_operation_xyz
x,y,z
-x,-y,1/2+z
x,-y,-z
-x,y,1/2-z
-x,-y,-z
x,y,1/2-z
-x,y,z
x,-y,1/2+z
1/2+x,1/2+y,z
1/2-x,1/2-y,1/2+z
1/2+x,1/2-y,-z
1/2-x,1/2+y,1/2-z
1/2-x,1/2-y,-z
1/2+x,1/2+y,1/2-z
1/2-x,1/2+y,z
1/2+x,1/2-y,1/2+z
loop_
_atom_site_type_symbol
_atom_site_label
_atom_site_fract_x
_atom_site_fract_y
_atom_site_fract_z
Si Si1 0.796921 0.422227 0.344203
Si Si2 0.700443 0.847353 0.986556
Si Si3 0.197012 0.485995 0.058145
Si Si4 0.294885 0.725292 0.402701
Si Si5 0.803011 0.830449 0.107300
Si Si6 0.787597 0.845890 0.811745
Si Si7 0.500000 0.434184 0.250000
Si Si8 0.296571 0.579416 0.104985
O O1 0.736339 0.447332 0.400678
O O2 0.795487 0.367884 0.356765
O O3 0.655840 0.433182 0.297828
O O4 0.000000 0.435939 0.333143
O O5 0.710718 0.798324 0.955736
O O6 0.775620 0.884984 0.945133
O O7 0.000000 0.641549 0.003053
O O8 0.794629 0.845578 0.044071
O O9 0.198901 0.532990 0.092161
O O10 0.000000 0.471091 0.044639
O O11 0.282358 0.500000 0.000000
O O12 0.500000 0.717155 0.409233
O O13 0.264893 0.778586 0.393400
O O14 0.233099 0.696031 0.350364
O O15 0.000000 0.829996 0.127136
O O16 0.726310 0.842331 0.750000
O O17 0.734696 0.892542 0.842094
O O18 0.000000 0.845834 0.811209
O O19 0.500000 0.568431 0.111516
#
# Coordination Sequence:
#
# PCOD9472556 Si02
#       8
#    16  16  16  16  16  16   4  16
#     4  11  25  47  72  98 133 175 224 281 336 393
#     4  11  21  35  57  86 127 168 203 257 322 391
#     4  10  22  41  66  97 131 166 208 263 330 401
#     4  10  20  35  56  86 122 161 208 259 323 392
#     4  12  23  39  61  91 122 161 213 265 326 393
#     4   8  16  34  55  81 114 152 196 247 301 365
#     4  12  26  52  70  94 128 180 230 286 332 382
#     4  10  20  34  58  90 123 158 199 248 309 381
#
# _framework density 21.144285
#
# number of rings (size 3 to 8) (size 9 to 14) (size 15 to 20)
#    0.000    1.655    0.690    5.586    0.966    1.379 
#    2.483    0.000    0.000   14.069    0.000    0.000 
#    0.000    0.000    0.000    0.000    0.000    0.000 
#
# Total GULP energy -323421.882463 kJ/mol
# GULP energy per Si atom -5576.239353 kJ/mol
# Density = 2.109616 g / cm^3
# Si number density = 21.144285 Si / 1000 Ang^3
#
#
#
# Elastic Constant Matrix: (Units=GPa)
#
#
# Indices 1 2 3 4 5 6 
#
# 1 92.4265 4.5610 20.3348 0.0000 0.0000 0.0000
# 2 4.5610 90.0194 24.2318 0.0000 0.0000 0.0000
# 3 20.3348 24.2318 99.9918 0.0000 0.0000 0.0000
# 4 0.0000 0.0000 0.0000 5.4085 0.0000 0.0000
# 5 0.0000 0.0000 0.0000 0.0000 15.8667 0.0000
# 6 0.0000 0.0000 0.0000 0.0000 0.0000 22.5819
#
#
#
# Elastic Compliance Matrix: (Units=1/GPa)
#
#
# Indices 1 2 3 4 5 6 
#
# 1 0.011326 0.000049 -0.002315 0.000000 0.000000 0.000000
# 2 0.000049 0.011884 -0.002890 0.000000 0.000000 0.000000
# 3 -0.002315 -0.002890 0.011172 0.000000 0.000000 0.000000
# 4 0.000000 0.000000 0.000000 0.184895 0.000000 0.000000
# 5 0.000000 0.000000 0.000000 0.000000 0.063025 0.000000
# 6 0.000000 0.000000 0.000000 0.000000 0.000000 0.044283
#
#
# Mechanical properties :
#
#
# Convention : Reuss Voigt Hill
#
# Bulk Modulus (GPa) = 41.54449 42.29923 41.92186
# Shear Modulus (GPa) = 14.49605 24.32541 19.41073
#
# Velocity S-wave (km/s) = 2.62119 3.39551 3.03316
# Velocity P-wave (km/s) = 5.37137 5.95156 5.66889
#
# Compressibility (1/GPa) = 0.02407058
#
# Stress axis : x y z
#
# Youngs Moduli (GPa) = 88.28950 84.14553 89.50908
#
# Poissons Ratio (x) = -0.00416 0.20725
# Poissons Ratio (y) = -0.00436 0.25868
# Poissons Ratio (z) = 0.20442 0.24318
#
# Static dielectric constant tensor:
#      x y z
#    x 1.787640 0.000000 0.000000 
#    y 0.000000 1.761520 0.000000 
#    z 0.000000 0.000000 1.756300 
# 
# From -- ./inp_files/67629.got.cif
#   From: 2010.05.17/outbox.cif.g08.bks.cpg/sg63_34_cif.got.tgz:67629.got - 2010.06.03 15:47:04.
