data_PCOD9472816
_publ_section_title
;
Structure prediction by ZEFSAII (Michael W. Deem and Ramdas Pophale) SiO2 
 PCOD9472816
Probable space group: C M C M
;
_chemical_formula_sum "Si O2"
_cell_formula_units_Z 64
_cell_length_a 8.811435
_cell_length_b 22.914873
_cell_length_c 16.472253
_cell_angle_alpha 90.000000
_cell_angle_beta 90.000000
_cell_angle_gamma 90.000000
_cell_volume 3325.960603
_symmetry_space_group_name_H-M "C M C M"
_symmetry_group_IT_number 63
_symmetry_cell_setting 'orthorhombic'
loop_
_space_group_symop_operation_xyz
x,y,z
-x,-y,1/2+z
x,-y,-z
-x,y,1/2-z
-x,-y,-z
x,y,1/2-z
-x,y,z
x,-y,1/2+z
1/2+x,1/2+y,z
1/2-x,1/2-y,1/2+z
1/2+x,1/2-y,-z
1/2-x,1/2+y,1/2-z
1/2-x,1/2-y,-z
1/2+x,1/2+y,1/2-z
1/2-x,1/2+y,z
1/2+x,1/2-y,1/2+z
loop_
_atom_site_type_symbol
_atom_site_label
_atom_site_fract_x
_atom_site_fract_y
_atom_site_fract_z
Si Si1 0.322621 0.161514 0.939820
Si Si2 0.322786 0.010159 0.250000
Si Si3 0.818873 0.964243 0.418628
Si Si4 0.172087 0.130805 0.250000
Si Si5 0.323105 0.714317 0.402980
O O1 0.500000 0.146784 0.932241
O O2 0.226820 0.103408 0.927540
O O3 0.288054 0.217974 0.883756
O O4 0.283980 0.188398 0.027797
O O5 0.500000 0.996211 0.250000
O O6 0.250807 0.986688 0.166055
O O7 0.290945 0.079106 0.250000
O O8 0.000000 0.970494 0.414280
O O9 0.768084 0.000000 0.500000
O O10 0.187032 0.172116 0.172827
O O11 0.000000 0.105390 0.250000
O O12 0.500000 0.713656 0.431617
#
# Coordination Sequence:
#
# PCOD9472816 Si02
#       5
#    16   8  16   8  16
#     4  10  20  35  57  85 115 148 191 240 289 341
#     4  12  26  41  60  89 121 152 196 250 297 348
#     4  11  24  42  63  86 118 161 202 242 295 357
#     4  10  20  37  58  79 109 148 188 228 281 348
#     4   9  19  35  56  82 113 150 188 232 289 351
#
# _framework density 19.242560000000001
#
# number of rings (size 3 to 8) (size 9 to 14) (size 15 to 20)
#    0.000    1.750    0.000    4.125    0.000   11.000 
#    0.000    2.500    0.000    0.000    0.000    0.000 
#    0.000    0.000    0.000    0.000    0.000    0.000 
#
# Total GULP energy -178600.065046 kJ/mol
# GULP energy per Si atom -5581.252033 kJ/mol
# Density = 1.919876 g / cm^3
# Si number density = 19.242560 Si / 1000 Ang^3
#
#
#
# Elastic Constant Matrix: (Units=GPa)
#
#
# Indices 1 2 3 4 5 6 
#
# 1 63.6593 37.3314 42.9163 0.0000 0.0000 0.0000
# 2 37.3314 120.4796 48.1438 0.0000 0.0000 0.0000
# 3 42.9163 48.1438 94.9739 0.0000 0.0000 0.0000
# 4 0.0000 0.0000 0.0000 23.4282 0.0000 0.0000
# 5 0.0000 0.0000 0.0000 0.0000 20.0027 0.0000
# 6 0.0000 0.0000 0.0000 0.0000 0.0000 30.6887
#
#
#
# Elastic Compliance Matrix: (Units=1/GPa)
#
#
# Indices 1 2 3 4 5 6 
#
# 1 0.023957 -0.003884 -0.008857 0.000000 0.000000 0.000000
# 2 -0.003884 0.011038 -0.003840 0.000000 0.000000 0.000000
# 3 -0.008857 -0.003840 0.016478 0.000000 0.000000 0.000000
# 4 0.000000 0.000000 0.000000 0.042684 0.000000 0.000000
# 5 0.000000 0.000000 0.000000 0.000000 0.049993 0.000000
# 6 0.000000 0.000000 0.000000 0.000000 0.000000 0.032585
#
#
# Mechanical properties :
#
#
# Convention : Reuss Voigt Hill
#
# Bulk Modulus (GPa) = 54.61155 59.54397 57.07776
# Shear Modulus (GPa) = 23.14796 24.87200 24.00998
#
# Velocity S-wave (km/s) = 3.47213 3.59911 3.53619
# Velocity P-wave (km/s) = 6.67206 6.94856 6.81172
#
# Compressibility (1/GPa) = 0.01831115
#
# Stress axis : x y z
#
# Youngs Moduli (GPa) = 41.74115 90.59379 60.68667
#
# Poissons Ratio (x) = 0.35188 0.53749
# Poissons Ratio (y) = 0.16213 0.23306
# Poissons Ratio (z) = 0.36969 0.34791
#
# Static dielectric constant tensor:
#      x y z
#    x 1.680220 0.000000 0.000000 
#    y 0.000000 1.677330 0.000000 
#    z 0.000000 0.000000 1.667710 
# 
# From -- ./inp_files/39878.got.cif
#   From: 2010.05.17/outbox.cif.g08.bks.cpg/sg63_20_cif.got.tgz:39878.got - 2010.06.03 15:47:04.
