data_PCOD9472517
_publ_section_title
;
Structure prediction by ZEFSAII (Michael W. Deem and Ramdas Pophale) SiO2 
 PCOD9472517
Probable space group: C M C M
;
_chemical_formula_sum "Si O2"
_cell_formula_units_Z 96
_cell_length_a 22.605707
_cell_length_b 9.483085
_cell_length_c 20.145206
_cell_angle_alpha 90.000000
_cell_angle_beta 90.000000
_cell_angle_gamma 90.000000
_cell_volume 4318.564897
_symmetry_space_group_name_H-M "C M C M"
_symmetry_group_IT_number 63
_symmetry_cell_setting 'orthorhombic'
loop_
_space_group_symop_operation_xyz
x,y,z
-x,-y,1/2+z
x,-y,-z
-x,y,1/2-z
-x,-y,-z
x,y,1/2-z
-x,y,z
x,-y,1/2+z
1/2+x,1/2+y,z
1/2-x,1/2-y,1/2+z
1/2+x,1/2-y,-z
1/2-x,1/2+y,1/2-z
1/2-x,1/2-y,-z
1/2+x,1/2+y,1/2-z
1/2-x,1/2+y,z
1/2+x,1/2-y,1/2+z
loop_
_atom_site_type_symbol
_atom_site_label
_atom_site_fract_x
_atom_site_fract_y
_atom_site_fract_z
Si Si1 0.062067 0.658219 0.527722
Si Si2 0.208797 0.819473 0.849660
Si Si3 0.068507 0.707351 0.171609
Si Si4 0.314514 0.636963 0.856649
Si Si5 0.401480 0.881787 0.175018
Si Si6 0.666835 0.649963 0.001434
O O1 0.061369 0.500000 0.500000
O O2 0.066494 0.668320 0.607718
O O3 0.119710 0.727516 0.497925
O O4 0.000000 0.726223 0.507816
O O5 0.272020 0.758142 0.828175
O O6 0.160327 0.703413 0.827417
O O7 0.200791 0.832611 0.929667
O O8 0.196364 0.980825 0.828055
O O9 0.064476 0.733766 0.250000
O O10 0.116781 0.819145 0.146128
O O11 0.096981 0.551026 0.164577
O O12 0.000000 0.707565 0.146469
O O13 0.296144 0.638632 0.934480
O O14 0.426212 0.858833 0.250000
O O15 0.633391 0.500000 0.000000
#
# Coordination Sequence:
#
# PCOD9472517 Si02
#       6
#    16  16  16  16  16  16
#     4  10  20  34  56  87 120 158 207 258 306 364
#     4  10  22  38  60  91 121 155 199 248 304 366
#     4  10  22  40  61  85 114 153 200 245 294 355
#     4  11  21  38  63  88 121 159 198 250 306 364
#     4  10  21  39  61  86 120 161 206 257 314 374
#     4   9  20  36  54  82 118 153 193 243 300 360
#
# _framework density 22.229606
#
# number of rings (size 3 to 8) (size 9 to 14) (size 15 to 20)
#    0.000    2.000    0.000    3.000    0.000    6.000 
#    0.000    8.333    0.000    2.000    0.000    0.000 
#    0.000    0.000    0.000    0.000    0.000    0.000 
#
# Total GULP energy -267433.294613 kJ/mol
# GULP energy per Si atom -5571.526971 kJ/mol
# Density = 2.217901 g / cm^3
# Si number density = 22.229606 Si / 1000 Ang^3
#
#
#
# Elastic Constant Matrix: (Units=GPa)
#
#
# Indices 1 2 3 4 5 6 
#
# 1 110.3758 77.4126 2.5083 0.0000 0.0000 0.0000
# 2 77.4126 128.4899 0.1901 0.0000 0.0000 0.0000
# 3 2.5083 0.1901 118.3757 0.0000 0.0000 0.0000
# 4 0.0000 0.0000 0.0000 7.0293 0.0000 0.0000
# 5 0.0000 0.0000 0.0000 0.0000 -5.2839 0.0000
# 6 0.0000 0.0000 0.0000 0.0000 0.0000 29.9489
#
#
#
# Elastic Compliance Matrix: (Units=1/GPa)
#
#
# Indices 1 2 3 4 5 6 
#
# 1 0.015702 -0.009459 -0.000318 0.000000 0.000000 0.000000
# 2 -0.009459 0.013482 0.000179 0.000000 0.000000 0.000000
# 3 -0.000318 0.000179 0.008454 0.000000 0.000000 0.000000
# 4 0.000000 0.000000 0.000000 0.142263 0.000000 0.000000
# 5 0.000000 0.000000 0.000000 0.000000 -0.189254 0.000000
# 6 0.000000 0.000000 0.000000 0.000000 0.000000 0.033390
#
#
# Mechanical properties :
#
#
# Convention : Reuss Voigt Hill
#
# Bulk Modulus (GPa) = 54.22710 57.49595 55.86153
# Shear Modulus (GPa) = 101.25658 24.81422 63.03540
#
# Velocity S-wave (km/s) = 6.75642 3.34469 5.33086
# Velocity P-wave (km/s) = 9.23649 6.39035 7.94195
#
# Compressibility (1/GPa) = 0.01844096
#
# Stress axis : x y z
#
# Youngs Moduli (GPa) = 63.68792 74.17547 118.28556
#
# Poissons Ratio (x) = 0.70166 0.03756
# Poissons Ratio (y) = 0.60245 -0.02115
# Poissons Ratio (z) = 0.02022 -0.01326
#
# Static dielectric constant tensor:
#      x y z
#    x 1.803470 0.000000 0.000000 
#    y 0.000000 1.811850 0.000000 
#    z 0.000000 0.000000 1.896460 
# 
# From -- ./inp_files/70255.got.cif
#   From: 2010.05.17/outbox.cif.g08.bks.cpg/sg63_36_cif.got.tgz:70255.got - 2010.06.03 15:47:04.
