data_PCOD9472611
_publ_section_title
;
Structure prediction by ZEFSAII (Michael W. Deem and Ramdas Pophale) SiO2 
 PCOD9472611
Probable space group: C M C M
;
_chemical_formula_sum "Si O2"
_cell_formula_units_Z 128
_cell_length_a 23.455041
_cell_length_b 19.182703
_cell_length_c 17.931824
_cell_angle_alpha 90.000000
_cell_angle_beta 90.000000
_cell_angle_gamma 90.000000
_cell_volume 8068.085035
_symmetry_space_group_name_H-M "C M C M"
_symmetry_group_IT_number 63
_symmetry_cell_setting 'orthorhombic'
loop_
_space_group_symop_operation_xyz
x,y,z
-x,-y,1/2+z
x,-y,-z
-x,y,1/2-z
-x,-y,-z
x,y,1/2-z
-x,y,z
x,-y,1/2+z
1/2+x,1/2+y,z
1/2-x,1/2-y,1/2+z
1/2+x,1/2-y,-z
1/2-x,1/2+y,1/2-z
1/2-x,1/2-y,-z
1/2+x,1/2+y,1/2-z
1/2-x,1/2+y,z
1/2+x,1/2-y,1/2+z
loop_
_atom_site_type_symbol
_atom_site_label
_atom_site_fract_x
_atom_site_fract_y
_atom_site_fract_z
Si Si1 0.269051 0.026363 0.583285
Si Si2 0.783466 0.761895 0.337973
Si Si3 0.169106 0.351626 0.162375
Si Si4 0.260309 0.614223 0.338840
Si Si5 0.933165 0.983839 0.163217
Si Si6 0.348012 0.384308 0.413868
Si Si7 0.065855 0.252478 0.161776
Si Si8 0.616148 0.618628 0.415733
O O1 0.314273 0.082197 0.613156
O O2 0.207546 0.065246 0.584352
O O3 0.280123 0.000000 0.500000
O O4 0.265672 0.958983 0.635944
O O5 0.797954 0.766566 0.250000
O O6 0.720434 0.795709 0.346442
O O7 0.777878 0.681191 0.360045
O O8 0.825936 0.809679 0.385187
O O9 0.168335 0.371259 0.250000
O O10 0.110141 0.313807 0.143439
O O11 0.268473 0.616666 0.250000
O O12 0.321342 0.620819 0.378445
O O13 0.923769 0.002648 0.250000
O O14 0.893690 0.919029 0.141081
O O15 0.000000 0.969015 0.152939
O O16 0.914259 0.048347 0.111927
O O17 0.374566 0.380853 0.495936
O O18 0.074357 0.235799 0.250000
O O19 0.081413 0.184722 0.114116
O O20 0.000000 0.271912 0.151381
#
# Coordination Sequence:
#
# PCOD9472611 Si02
#       8
#    16  16  16  16  16  16  16  16
#     4  11  20  33  49  75 105 135 169 203 256 305
#     4   9  19  34  53  75 102 134 170 209 253 302
#     4   9  18  32  51  75 100 131 166 207 252 299
#     4  11  20  32  51  74 102 136 168 204 248 303
#     4  11  23  37  53  72  99 141 185 217 248 293
#     4  11  22  35  51  74 105 139 171 211 255 303
#     4  10  20  35  54  75 100 132 170 209 253 303
#     4  12  21  32  49  77 107 135 165 206 253 306
#
# _framework density 15.864979
#
# number of rings (size 3 to 8) (size 9 to 14) (size 15 to 20)
#    0.000    1.500    3.750    2.625    0.000    5.000 
#    0.000    0.000    0.000    0.375    0.000    0.875 
#    0.000    3.000    0.000    0.000    0.000    0.000 
#
# Total GULP energy -357358.970569 kJ/mol
# GULP energy per Si atom -5583.733915 kJ/mol
# Density = 1.582887 g / cm^3
# Si number density = 15.864979 Si / 1000 Ang^3
#
#
#
# Elastic Constant Matrix: (Units=GPa)
#
#
# Indices 1 2 3 4 5 6 
#
# 1 75.8104 30.6675 23.3950 0.0000 0.0000 0.0000
# 2 30.6675 71.2996 18.3315 0.0000 0.0000 0.0000
# 3 23.3950 18.3315 39.4564 0.0000 0.0000 0.0000
# 4 0.0000 0.0000 0.0000 3.1082 0.0000 0.0000
# 5 0.0000 0.0000 0.0000 0.0000 14.3720 0.0000
# 6 0.0000 0.0000 0.0000 0.0000 0.0000 13.8930
#
#
#
# Elastic Compliance Matrix: (Units=1/GPa)
#
#
# Indices 1 2 3 4 5 6 
#
# 1 0.017955 -0.005662 -0.008015 0.000000 0.000000 0.000000
# 2 -0.005662 0.017713 -0.004873 0.000000 0.000000 0.000000
# 3 -0.008015 -0.004873 0.032361 0.000000 0.000000 0.000000
# 4 0.000000 0.000000 0.000000 0.321728 0.000000 0.000000
# 5 0.000000 0.000000 0.000000 0.000000 0.069580 0.000000
# 6 0.000000 0.000000 0.000000 0.000000 0.000000 0.071978
#
#
# Mechanical properties :
#
#
# Convention : Reuss Voigt Hill
#
# Bulk Modulus (GPa) = 32.33189 36.81715 34.57452
# Shear Modulus (GPa) = 8.63968 13.88613 11.26291
#
# Velocity S-wave (km/s) = 2.33615 2.96171 2.66733
# Velocity P-wave (km/s) = 5.26312 5.91207 5.59701
#
# Compressibility (1/GPa) = 0.03092922
#
# Stress axis : x y z
#
# Youngs Moduli (GPa) = 55.69543 56.45443 30.90153
#
# Poissons Ratio (x) = 0.31964 0.24769
# Poissons Ratio (y) = 0.31534 0.15057
# Poissons Ratio (z) = 0.44642 0.27508
#
# Static dielectric constant tensor:
#      x y z
#    x 1.509200 0.000000 0.000000 
#    y 0.000000 1.525070 0.000000 
#    z 0.000000 0.000000 1.533860 
# 
# From -- ./inp_files/48451.got.cif
#   From: 2010.05.17/outbox.cif.g08.bks.cpg/sg63_25_cif.got.tgz:48451.got - 2010.06.03 15:47:04.
