data_PCOD9472930
_publ_section_title
;
Structure prediction by ZEFSAII (Michael W. Deem and Ramdas Pophale) SiO2 
 PCOD9472930
Probable space group: C M C M
;
_chemical_formula_sum "Si O2"
_cell_formula_units_Z 80
_cell_length_a 22.799631
_cell_length_b 6.544012
_cell_length_c 27.660158
_cell_angle_alpha 90.000000
_cell_angle_beta 90.000000
_cell_angle_gamma 90.000000
_cell_volume 4126.924862
_symmetry_space_group_name_H-M "C M C M"
_symmetry_group_IT_number 63
_symmetry_cell_setting 'orthorhombic'
loop_
_space_group_symop_operation_xyz
x,y,z
-x,-y,1/2+z
x,-y,-z
-x,y,1/2-z
-x,-y,-z
x,y,1/2-z
-x,y,z
x,-y,1/2+z
1/2+x,1/2+y,z
1/2-x,1/2-y,1/2+z
1/2+x,1/2-y,-z
1/2-x,1/2+y,1/2-z
1/2-x,1/2-y,-z
1/2+x,1/2+y,1/2-z
1/2-x,1/2+y,z
1/2+x,1/2-y,1/2+z
loop_
_atom_site_type_symbol
_atom_site_label
_atom_site_fract_x
_atom_site_fract_y
_atom_site_fract_z
Si Si1 0.209309 0.724146 0.642106
Si Si2 0.066195 0.359627 0.452824
Si Si3 0.872559 0.350508 0.614833
Si Si4 0.831289 0.902376 0.306844
Si Si5 0.328914 0.467847 0.946534
O O1 0.175657 0.520162 0.627989
O O2 0.169086 0.861590 0.677365
O O3 0.268810 0.673817 0.670677
O O4 0.212780 0.854504 0.592197
O O5 0.075338 0.500000 0.500000
O O6 0.076165 0.516332 0.408535
O O7 0.114237 0.180144 0.451262
O O8 0.000000 0.278306 0.453346
O O9 0.880595 0.220359 0.663655
O O10 0.849117 0.182705 0.576460
O O11 0.832848 0.872701 0.250000
O O12 0.303490 0.500000 0.000000
#
# Coordination Sequence:
#
# PCOD9472930 Si02
#       5
#    16  16  16  16  16
#     4  10  21  33  53  81 113 149 192 234 280 338
#     4  10  20  35  60  89 116 151 193 236 284 337
#     4  10  21  37  55  84 120 149 188 241 285 336
#     4  11  21  36  58  81 108 146 193 242 292 345
#     4  10  20  36  54  78 121 160 191 230 277 342
#
# _framework density 19.384892000000001
#
# number of rings (size 3 to 8) (size 9 to 14) (size 15 to 20)
#    0.000    1.800    4.000    0.600    0.000    2.000 
#    0.000    5.000    0.000    0.600    0.000    0.000 
#    0.000    0.000    0.000    0.000    0.000    0.000 
#
# Total GULP energy -223146.896100 kJ/mol
# GULP energy per Si atom -5578.672403 kJ/mol
# Density = 1.934077 g / cm^3
# Si number density = 19.384892 Si / 1000 Ang^3
#
#
#
# Elastic Constant Matrix: (Units=GPa)
#
#
# Indices 1 2 3 4 5 6 
#
# 1 44.9086 8.5712 16.6603 0.0000 0.0000 0.0000
# 2 8.5712 87.4036 27.2877 0.0000 0.0000 0.0000
# 3 16.6603 27.2877 157.5449 0.0000 0.0000 0.0000
# 4 0.0000 0.0000 0.0000 20.1671 0.0000 0.0000
# 5 0.0000 0.0000 0.0000 0.0000 12.0228 0.0000
# 6 0.0000 0.0000 0.0000 0.0000 0.0000 23.1703
#
#
#
# Elastic Compliance Matrix: (Units=1/GPa)
#
#
# Indices 1 2 3 4 5 6 
#
# 1 0.023389 -0.001608 -0.002195 0.000000 0.000000 0.000000
# 2 -0.001608 0.012206 -0.001944 0.000000 0.000000 0.000000
# 3 -0.002195 -0.001944 0.006916 0.000000 0.000000 0.000000
# 4 0.000000 0.000000 0.000000 0.049586 0.000000 0.000000
# 5 0.000000 0.000000 0.000000 0.000000 0.083175 0.000000
# 6 0.000000 0.000000 0.000000 0.000000 0.000000 0.043159
#
#
# Mechanical properties :
#
#
# Convention : Reuss Voigt Hill
#
# Bulk Modulus (GPa) = 32.24106 43.87726 38.05916
# Shear Modulus (GPa) = 20.81047 26.89455 23.85251
#
# Velocity S-wave (km/s) = 3.28005 3.72882 3.51161
# Velocity P-wave (km/s) = 5.56894 6.42049 6.00982
#
# Compressibility (1/GPa) = 0.03101635
#
# Stress axis : x y z
#
# Youngs Moduli (GPa) = 42.75577 81.92800 144.58786
#
# Poissons Ratio (x) = 0.13177 0.31733
# Poissons Ratio (y) = 0.06877 0.28108
# Poissons Ratio (z) = 0.09384 0.15927
#
# Static dielectric constant tensor:
#      x y z
#    x 1.665820 0.000000 0.000000 
#    y 0.000000 1.734810 0.000000 
#    z 0.000000 0.000000 1.691080 
# 
# From -- ./inp_files/65643.got.cif
#   From: 2010.05.17/outbox.cif.g08.bks.cpg/sg63_33_cif.got.tgz:65643.got - 2010.06.03 15:47:04.
