data_PCOD9472629
_publ_section_title
;
Structure prediction by ZEFSAII (Michael W. Deem and Ramdas Pophale) SiO2 
 PCOD9472629
Probable space group: C M C M
;
_chemical_formula_sum "Si O2"
_cell_formula_units_Z 80
_cell_length_a 8.864709
_cell_length_b 19.580669
_cell_length_c 26.186315
_cell_angle_alpha 90.000000
_cell_angle_beta 90.000000
_cell_angle_gamma 90.000000
_cell_volume 4545.340237
_symmetry_space_group_name_H-M "C M C M"
_symmetry_group_IT_number 63
_symmetry_cell_setting 'orthorhombic'
loop_
_space_group_symop_operation_xyz
x,y,z
-x,-y,1/2+z
x,-y,-z
-x,y,1/2-z
-x,-y,-z
x,y,1/2-z
-x,y,z
x,-y,1/2+z
1/2+x,1/2+y,z
1/2-x,1/2-y,1/2+z
1/2+x,1/2-y,-z
1/2-x,1/2+y,1/2-z
1/2-x,1/2-y,-z
1/2+x,1/2+y,1/2-z
1/2-x,1/2+y,z
1/2+x,1/2-y,1/2+z
loop_
_atom_site_type_symbol
_atom_site_label
_atom_site_fract_x
_atom_site_fract_y
_atom_site_fract_z
Si Si1 0.320389 0.378211 0.418166
Si Si2 0.178403 0.479924 0.887238
Si Si3 0.179537 0.638359 0.030107
Si Si4 0.819762 0.759637 0.889501
Si Si5 0.319135 0.376720 0.809278
O O1 0.500000 0.375363 0.420278
O O2 0.265241 0.449816 0.395406
O O3 0.252299 0.371060 0.475033
O O4 0.255441 0.314109 0.386937
O O5 0.203780 0.429415 0.935557
O O6 0.236475 0.438068 0.838378
O O7 0.000000 0.492804 0.883799
O O8 0.254213 0.700302 0.061381
O O9 0.000000 0.649574 0.025455
O O10 0.785208 0.807841 0.841026
O O11 0.000000 0.753362 0.894395
O O12 0.277885 0.371673 0.750000
O O13 0.500000 0.387294 0.812885
#
# Coordination Sequence:
#
# PCOD9472629 Si02
#       5
#    16  16  16  16  16
#     4  12  23  34  51  77 111 146 179 219 265 311
#     4  10  21  36  55  80 108 140 178 218 262 314
#     4  10  20  35  54  77 108 144 181 218 259 314
#     4  10  20  35  55  79 108 141 178 218 262 316
#     4   9  19  38  62  83 103 132 172 218 267 318
#
# _framework density 17.600444
#
# number of rings (size 3 to 8) (size 9 to 14) (size 15 to 20)
#    0.000    1.800    0.000    4.800    0.000    6.000 
#    0.000    1.000    0.000    3.600    0.000    0.000 
#    0.000    0.000    0.000    0.000    0.000    0.000 
#
# Total GULP energy -223536.436172 kJ/mol
# GULP energy per Si atom -5588.410904 kJ/mol
# Density = 1.756038 g / cm^3
# Si number density = 17.600444 Si / 1000 Ang^3
#
#
#
# Elastic Constant Matrix: (Units=GPa)
#
#
# Indices 1 2 3 4 5 6 
#
# 1 96.0560 64.4422 46.1188 0.0000 0.0000 0.0000
# 2 64.4422 106.7595 38.1425 0.0000 0.0000 0.0000
# 3 46.1188 38.1425 102.1421 0.0000 0.0000 0.0000
# 4 0.0000 0.0000 0.0000 4.0799 0.0000 0.0000
# 5 0.0000 0.0000 0.0000 0.0000 23.3129 0.0000
# 6 0.0000 0.0000 0.0000 0.0000 0.0000 32.4798
#
#
#
# Elastic Compliance Matrix: (Units=1/GPa)
#
#
# Indices 1 2 3 4 5 6 
#
# 1 0.019557 -0.009982 -0.005103 0.000000 0.000000 0.000000
# 2 -0.009982 0.015904 -0.001432 0.000000 0.000000 0.000000
# 3 -0.005103 -0.001432 0.012629 0.000000 0.000000 0.000000
# 4 0.000000 0.000000 0.000000 0.245106 0.000000 0.000000
# 5 0.000000 0.000000 0.000000 0.000000 0.042895 0.000000
# 6 0.000000 0.000000 0.000000 0.000000 0.000000 0.030788
#
#
# Mechanical properties :
#
#
# Convention : Reuss Voigt Hill
#
# Bulk Modulus (GPa) = 66.41621 66.92941 66.67281
# Shear Modulus (GPa) = 12.34774 22.39144 17.36959
#
# Velocity S-wave (km/s) = 2.65157 3.57067 3.14488
# Velocity P-wave (km/s) = 6.86963 7.42356 7.15196
#
# Compressibility (1/GPa) = 0.01505656
#
# Stress axis : x y z
#
# Youngs Moduli (GPa) = 51.13141 62.87801 79.18278
#
# Poissons Ratio (x) = 0.62766 0.40406
# Poissons Ratio (y) = 0.51040 0.11337
# Poissons Ratio (z) = 0.26092 0.09003
#
# Static dielectric constant tensor:
#      x y z
#    x 1.582590 0.000000 0.000000 
#    y 0.000000 1.590530 0.000000 
#    z 0.000000 0.000000 1.572260 
# 
# From -- ./inp_files/66539.got.cif
#   From: 2010.05.17/outbox.cif.g08.bks.cpg/sg63_34_cif.got.tgz:66539.got - 2010.06.03 15:47:04.
