data_PCOD9472381
_publ_section_title
;
Structure prediction by ZEFSAII (Michael W. Deem and Ramdas Pophale) SiO2 
 PCOD9472381
Probable space group: C M C M
;
_chemical_formula_sum "Si O2"
_cell_formula_units_Z 88
_cell_length_a 20.609275
_cell_length_b 25.041769
_cell_length_c 7.771597
_cell_angle_alpha 90.000000
_cell_angle_beta 90.000000
_cell_angle_gamma 90.000000
_cell_volume 4010.864509
_symmetry_space_group_name_H-M "C M C M"
_symmetry_group_IT_number 63
_symmetry_cell_setting 'orthorhombic'
loop_
_space_group_symop_operation_xyz
x,y,z
-x,-y,1/2+z
x,-y,-z
-x,y,1/2-z
-x,-y,-z
x,y,1/2-z
-x,y,z
x,-y,1/2+z
1/2+x,1/2+y,z
1/2-x,1/2-y,1/2+z
1/2+x,1/2-y,-z
1/2-x,1/2+y,1/2-z
1/2-x,1/2-y,-z
1/2+x,1/2+y,1/2-z
1/2-x,1/2+y,z
1/2+x,1/2-y,1/2+z
loop_
_atom_site_type_symbol
_atom_site_label
_atom_site_fract_x
_atom_site_fract_y
_atom_site_fract_z
Si Si1 0.500000 0.936401 0.457410
Si Si2 0.889508 0.058632 0.544899
Si Si3 0.069090 0.173159 0.453654
Si Si4 0.741911 0.058660 0.956043
Si Si5 0.825997 0.253326 0.042936
Si Si6 0.874026 0.368272 0.039299
O O1 0.500000 0.934254 0.250000
O O2 0.563666 0.903035 0.516873
O O3 0.500000 0.000000 0.500000
O O4 0.888469 0.062637 0.750000
O O5 0.925840 0.109942 0.476499
O O6 0.815248 0.062157 0.476264
O O7 0.915138 0.000000 0.500000
O O8 0.068008 0.184105 0.250000
O O9 0.132509 0.202960 0.523510
O O10 0.000000 0.192070 0.526557
O O11 0.745640 0.063520 0.750000
O O12 0.691444 0.102028 0.018973
O O13 0.716384 0.000000 0.000000
O O14 0.827506 0.254019 0.250000
O O15 0.863833 0.306972 0.985326
O O16 0.750000 0.250000 0.000000
O O17 0.875854 0.368602 0.250000
#
# Coordination Sequence:
#
# PCOD9472381 Si02
#       6
#     8  16  16  16  16  16
#     4  10  20  34  54  80 112 150 191 232 281 340
#     4  10  20  35  57  82 111 145 183 228 279 336
#     4  10  22  38  57  82 112 145 184 231 282 337
#     4   9  17  30  49  75 105 137 176 222 270 321
#     4  10  21  38  60  84 112 146 191 241 289 342
#     4   9  18  32  53  78 106 143 185 227 274 334
#
# _framework density 21.940408000000001
#
# number of rings (size 3 to 8) (size 9 to 14) (size 15 to 20)
#    0.000    2.364    0.000    2.182    1.273    3.636 
#    0.000    1.818    0.000    0.000    0.000    0.000 
#    0.000    0.000    0.000    0.000    0.000    0.000 
#
# Total GULP energy -245569.688080 kJ/mol
# GULP energy per Si atom -5581.129275 kJ/mol
# Density = 2.189047 g / cm^3
# Si number density = 21.940408 Si / 1000 Ang^3
#
#
#
# Elastic Constant Matrix: (Units=GPa)
#
#
# Indices 1 2 3 4 5 6 
#
# 1 142.2480 81.9927 9.7169 0.0000 0.0000 0.0000
# 2 81.9927 139.2362 -1.1710 0.0000 0.0000 0.0000
# 3 9.7169 -1.1710 31.8834 0.0000 0.0000 0.0000
# 4 0.0000 0.0000 0.0000 20.3168 0.0000 0.0000
# 5 0.0000 0.0000 0.0000 0.0000 3.8269 0.0000
# 6 0.0000 0.0000 0.0000 0.0000 0.0000 32.5528
#
#
#
# Elastic Compliance Matrix: (Units=1/GPa)
#
#
# Indices 1 2 3 4 5 6 
#
# 1 0.011042 -0.006532 -0.003605 0.000000 0.000000 0.000000
# 2 -0.006532 0.011049 0.002397 0.000000 0.000000 0.000000
# 3 -0.003605 0.002397 0.032551 0.000000 0.000000 0.000000
# 4 0.000000 0.000000 0.000000 0.049220 0.000000 0.000000
# 5 0.000000 0.000000 0.000000 0.000000 0.261307 0.000000
# 6 0.000000 0.000000 0.000000 0.000000 0.000000 0.030719
#
#
# Mechanical properties :
#
#
# Convention : Reuss Voigt Hill
#
# Bulk Modulus (GPa) = 25.53625 54.93831 40.23728
# Shear Modulus (GPa) = 11.78069 26.19457 18.98763
#
# Velocity S-wave (km/s) = 2.31971 3.45903 2.94499
# Velocity P-wave (km/s) = 4.34038 6.40682 5.47203
#
# Compressibility (1/GPa) = 0.03916001
#
# Stress axis : x y z
#
# Youngs Moduli (GPa) = 90.56695 90.50614 30.72104
#
# Poissons Ratio (x) = 0.59122 0.11075
# Poissons Ratio (y) = 0.59162 -0.07363
# Poissons Ratio (z) = 0.32649 -0.21691
#
# Static dielectric constant tensor:
#      x y z
#    x 1.822830 0.000000 0.000000 
#    y 0.000000 1.806540 0.000000 
#    z 0.000000 0.000000 1.799820 
# 
# From -- ./inp_files/8224.got.cif
#   From: 2010.05.17/outbox.cif.g08.bks.cpg/sg63_5_cif.got.tgz:8224.got - 2010.06.03 15:47:04.
