data_PCOD9472745
_publ_section_title
;
Structure prediction by ZEFSAII (Michael W. Deem and Ramdas Pophale) SiO2 
 PCOD9472745
Probable space group: C M C M
;
_chemical_formula_sum "Si O2"
_cell_formula_units_Z 88
_cell_length_a 19.081852
_cell_length_b 28.003239
_cell_length_c 9.149982
_cell_angle_alpha 90.000000
_cell_angle_beta 90.000000
_cell_angle_gamma 90.000000
_cell_volume 4889.326390
_symmetry_space_group_name_H-M "C M C M"
_symmetry_group_IT_number 63
_symmetry_cell_setting 'orthorhombic'
loop_
_space_group_symop_operation_xyz
x,y,z
-x,-y,1/2+z
x,-y,-z
-x,y,1/2-z
-x,-y,-z
x,y,1/2-z
-x,y,z
x,-y,1/2+z
1/2+x,1/2+y,z
1/2-x,1/2-y,1/2+z
1/2+x,1/2-y,-z
1/2-x,1/2+y,1/2-z
1/2-x,1/2-y,-z
1/2+x,1/2+y,1/2-z
1/2-x,1/2+y,z
1/2+x,1/2-y,1/2+z
loop_
_atom_site_type_symbol
_atom_site_label
_atom_site_fract_x
_atom_site_fract_y
_atom_site_fract_z
Si Si1 0.869306 0.091950 0.580804
Si Si2 0.322457 0.684518 0.078471
Si Si3 0.168112 0.647272 0.421818
Si Si4 0.580544 0.775827 0.423537
Si Si5 0.000000 0.050237 0.421442
Si Si6 0.716125 0.050241 0.923288
O O1 0.890447 0.088732 0.750000
O O2 0.850054 0.145273 0.533857
O O3 0.799625 0.060140 0.560169
O O4 0.930980 0.076497 0.475683
O O5 0.336962 0.671983 0.250000
O O6 0.238426 0.680193 0.062249
O O7 0.363643 0.733400 0.048974
O O8 0.158642 0.638391 0.250000
O O9 0.105261 0.677649 0.489572
O O10 0.180848 0.596884 0.503243
O O11 0.583657 0.785723 0.250000
O O12 0.500000 0.762106 0.458634
O O13 0.000000 0.044482 0.250000
O O14 0.000000 0.000000 0.500000
O O15 0.700920 0.048625 0.750000
O O16 0.698328 0.000000 0.000000
#
# Coordination Sequence:
#
# PCOD9472745 Si02
#       6
#    16  16  16  16   8  16
#     4  10  21  35  52  77 107 140 182 229 274 324
#     4   9  19  35  55  80 109 146 187 227 274 326
#     4  10  20  35  56  82 112 145 185 229 274 327
#     4  10  21  36  55  80 112 148 187 228 277 332
#     4  12  24  36  50  68 100 144 186 230 279 328
#     4  10  20  35  57  82 109 139 177 225 275 328
#
# _framework density 17.998387999999998
#
# number of rings (size 3 to 8) (size 9 to 14) (size 15 to 20)
#    0.000    2.000    0.000    3.545    1.273    5.455 
#    0.000    0.000    0.000    0.545    0.000    0.000 
#    0.000    0.000    0.000    0.000    0.000    0.000 
#
# Total GULP energy -245485.376261 kJ/mol
# GULP energy per Si atom -5579.213097 kJ/mol
# Density = 1.795742 g / cm^3
# Si number density = 17.998388 Si / 1000 Ang^3
#
#
#
# Elastic Constant Matrix: (Units=GPa)
#
#
# Indices 1 2 3 4 5 6 
#
# 1 33.9584 33.0041 29.4391 0.0000 0.0000 0.0000
# 2 33.0041 93.5780 51.7354 0.0000 0.0000 0.0000
# 3 29.4391 51.7354 85.0595 0.0000 0.0000 0.0000
# 4 0.0000 0.0000 0.0000 34.2448 0.0000 0.0000
# 5 0.0000 0.0000 0.0000 0.0000 24.6165 0.0000
# 6 0.0000 0.0000 0.0000 0.0000 0.0000 5.2464
#
#
#
# Elastic Compliance Matrix: (Units=1/GPa)
#
#
# Indices 1 2 3 4 5 6 
#
# 1 0.049753 -0.012094 -0.009863 0.000000 0.000000 0.000000
# 2 -0.012094 0.019040 -0.007395 0.000000 0.000000 0.000000
# 3 -0.009863 -0.007395 0.019668 0.000000 0.000000 0.000000
# 4 0.000000 0.000000 0.000000 0.029201 0.000000 0.000000
# 5 0.000000 0.000000 0.000000 0.000000 0.040623 0.000000
# 6 0.000000 0.000000 0.000000 0.000000 0.000000 0.190605
#
#
# Mechanical properties :
#
#
# Convention : Reuss Voigt Hill
#
# Bulk Modulus (GPa) = 33.60686 48.99480 41.30083
# Shear Modulus (GPa) = 11.97563 19.38272 15.67917
#
# Velocity S-wave (km/s) = 2.58228 3.28520 2.95472
# Velocity P-wave (km/s) = 5.25391 6.45530 5.88534
#
# Compressibility (1/GPa) = 0.02975583
#
# Stress axis : x y z
#
# Youngs Moduli (GPa) = 20.09930 52.52056 50.84417
#
# Poissons Ratio (x) = 0.63520 0.50150
# Poissons Ratio (y) = 0.24309 0.37599
# Poissons Ratio (z) = 0.19825 0.38838
#
# Static dielectric constant tensor:
#      x y z
#    x 1.609130 0.000000 0.000000 
#    y 0.000000 1.744790 0.000000 
#    z 0.000000 0.000000 1.598870 
# 
# From -- ./inp_files/8214.got.cif
#   From: 2010.05.17/outbox.cif.g08.bks.cpg/sg63_5_cif.got.tgz:8214.got - 2010.06.03 15:47:04.
