data_PCOD9472681
_publ_section_title
;
Structure prediction by ZEFSAII (Michael W. Deem and Ramdas Pophale) SiO2 
 PCOD9472681
Probable space group: C M C M
;
_chemical_formula_sum "Si O2"
_cell_formula_units_Z 80
_cell_length_a 11.359005
_cell_length_b 24.812336
_cell_length_c 13.863289
_cell_angle_alpha 90.000000
_cell_angle_beta 90.000000
_cell_angle_gamma 90.000000
_cell_volume 3907.277182
_symmetry_space_group_name_H-M "C M C M"
_symmetry_group_IT_number 63
_symmetry_cell_setting 'orthorhombic'
loop_
_space_group_symop_operation_xyz
x,y,z
-x,-y,1/2+z
x,-y,-z
-x,y,1/2-z
-x,-y,-z
x,y,1/2-z
-x,y,z
x,-y,1/2+z
1/2+x,1/2+y,z
1/2-x,1/2-y,1/2+z
1/2+x,1/2-y,-z
1/2-x,1/2+y,1/2-z
1/2-x,1/2-y,-z
1/2+x,1/2+y,1/2-z
1/2-x,1/2+y,z
1/2+x,1/2-y,1/2+z
loop_
_atom_site_type_symbol
_atom_site_label
_atom_site_fract_x
_atom_site_fract_y
_atom_site_fract_z
Si Si1 0.634534 0.597506 0.133348
Si Si2 0.869712 0.657160 0.440207
Si Si3 0.634613 0.729578 0.857912
Si Si4 0.798354 0.625062 0.639241
Si Si5 0.130142 0.026367 0.866697
O O1 0.634372 0.598737 0.250000
O O2 0.500000 0.614960 0.104138
O O3 0.750080 0.629932 0.100010
O O4 0.649835 0.535061 0.101039
O O5 0.848736 0.721274 0.430714
O O6 0.880244 0.637528 0.549768
O O7 0.000000 0.646910 0.393287
O O8 0.653168 0.753095 0.750000
O O9 0.500000 0.711652 0.865412
O O10 0.712165 0.676656 0.864212
O O11 0.842960 0.620871 0.750000
O O12 0.727409 0.570847 0.613674
O O13 0.126324 0.023658 0.750000
O O14 0.000000 0.043879 0.899049
#
# Coordination Sequence:
#
# PCOD9472681 Si02
#       5
#    16  16  16  16  16
#     4   9  19  37  60  86 114 143 181 231 282 332
#     4  11  23  37  55  82 117 154 188 224 273 333
#     4   9  18  34  57  83 109 139 180 231 285 339
#     4  10  20  35  55  79 109 147 191 235 277 323
#     4   8  15  31  56  83 109 139 180 232 286 333
#
# _framework density 20.474616000000001
#
# number of rings (size 3 to 8) (size 9 to 14) (size 15 to 20)
#    0.000    2.600    0.000    3.000    0.000    6.400 
#    0.000    5.000    0.000    4.800    0.000    0.000 
#    0.000    0.000    0.000    0.000    0.000    0.000 
#
# Total GULP energy -222858.408783 kJ/mol
# GULP energy per Si atom -5571.460220 kJ/mol
# Density = 2.042801 g / cm^3
# Si number density = 20.474616 Si / 1000 Ang^3
#
#
#
# Elastic Constant Matrix: (Units=GPa)
#
#
# Indices 1 2 3 4 5 6 
#
# 1 140.4413 56.6794 35.5730 0.0000 0.0000 0.0000
# 2 56.6794 55.6195 9.5639 0.0000 0.0000 0.0000
# 3 35.5730 9.5639 64.8716 0.0000 0.0000 0.0000
# 4 0.0000 0.0000 0.0000 31.1598 0.0000 0.0000
# 5 0.0000 0.0000 0.0000 0.0000 21.8277 0.0000
# 6 0.0000 0.0000 0.0000 0.0000 0.0000 463.9615
#
#
#
# Elastic Compliance Matrix: (Units=1/GPa)
#
#
# Indices 1 2 3 4 5 6 
#
# 1 0.013863 -0.013154 -0.005663 0.000000 0.000000 0.000000
# 2 -0.013154 0.030928 0.002653 0.000000 0.000000 0.000000
# 3 -0.005663 0.002653 0.018129 0.000000 0.000000 0.000000
# 4 0.000000 0.000000 0.000000 0.032093 0.000000 0.000000
# 5 0.000000 0.000000 0.000000 0.000000 0.045813 0.000000
# 6 0.000000 0.000000 0.000000 0.000000 0.000000 0.002155
#
#
# Mechanical properties :
#
#
# Convention : Reuss Voigt Hill
#
# Bulk Modulus (GPa) = 32.68657 51.61831 42.15244
# Shear Modulus (GPa) = 26.95330 113.99755 70.47542
#
# Velocity S-wave (km/s) = 3.63219 7.46983 5.87330
# Velocity P-wave (km/s) = 5.79565 9.98316 8.16250
#
# Compressibility (1/GPa) = 0.03059361
#
# Stress axis : x y z
#
# Youngs Moduli (GPa) = 72.13205 32.33357 55.15965
#
# Poissons Ratio (x) = 0.42531 0.31236
# Poissons Ratio (y) = 0.94882 -0.14637
# Poissons Ratio (z) = 0.40848 -0.08580
#
# Static dielectric constant tensor:
#      x y z
#    x 1.723030 0.000000 0.000000 
#    y 0.000000 1.690020 0.000000 
#    z 0.000000 0.000000 1.826460 
# 
# From -- ./inp_files/29695.got.cif
#   From: 2010.05.17/outbox.cif.g08.bks.cpg/sg63_15_cif.got.tgz:29695.got - 2010.06.03 15:47:04.
