data_PCOD9472128
_publ_section_title
;
Structure prediction by ZEFSAII (Michael W. Deem and Ramdas Pophale) SiO2 
 PCOD9472128
Probable space group: C M C M
;
_chemical_formula_sum "Si O2"
_cell_formula_units_Z 72
_cell_length_a 23.524199
_cell_length_b 5.796242
_cell_length_c 21.722548
_cell_angle_alpha 90.000000
_cell_angle_beta 90.000000
_cell_angle_gamma 90.000000
_cell_volume 2961.911784
_symmetry_space_group_name_H-M "C M C M"
_symmetry_group_IT_number 63
_symmetry_cell_setting 'orthorhombic'
loop_
_space_group_symop_operation_xyz
x,y,z
-x,-y,1/2+z
x,-y,-z
-x,y,1/2-z
-x,-y,-z
x,y,1/2-z
-x,y,z
x,-y,1/2+z
1/2+x,1/2+y,z
1/2-x,1/2-y,1/2+z
1/2+x,1/2-y,-z
1/2-x,1/2+y,1/2-z
1/2-x,1/2-y,-z
1/2+x,1/2+y,1/2-z
1/2-x,1/2+y,z
1/2+x,1/2-y,1/2+z
loop_
_atom_site_type_symbol
_atom_site_label
_atom_site_fract_x
_atom_site_fract_y
_atom_site_fract_z
Si Si1 0.717338 0.387323 0.250000
Si Si2 0.829831 0.253559 0.022581
Si Si3 0.645127 0.403676 0.646545
Si Si4 0.566015 0.720271 0.566543
Si Si5 0.063387 0.538280 0.685137
O O1 0.746180 0.132038 0.250000
O O2 0.679607 0.417775 0.311956
O O3 0.820085 0.238079 0.095570
O O4 0.806857 0.500000 0.000000
O O5 0.893996 0.260084 0.992384
O O6 0.810224 0.000000 0.000000
O O7 0.596353 0.517287 0.604413
O O8 0.612726 0.222106 0.687689
O O9 0.500000 0.686513 0.550901
O O10 0.568754 0.915072 0.619515
O O11 0.066285 0.396761 0.750000
O O12 0.000000 0.643277 0.684740
#
# Coordination Sequence:
#
# PCOD9472128 Si02
#       5
#     8  16  16  16  16
#     4  12  32  52  79 102 127 172 238 310 366 418
#     4  10  21  37  63  98 135 188 224 265 320 398
#     4  11  23  41  69  92 137 178 230 286 349 403
#     4  10  22  37  62 102 150 192 226 260 324 416
#     4  10  20  33  57  98 141 184 225 266 325 408
#
# _framework density 24.308623000000001
#
# number of rings (size 3 to 8) (size 9 to 14) (size 15 to 20)
#    0.000    1.556    3.333    0.667    4.667    5.333 
#    0.000    0.000    0.000   17.333    0.000    0.000 
#    0.000    0.000    0.000    0.000    0.000    0.000 
#
# Total GULP energy -200595.046024 kJ/mol
# GULP energy per Si atom -5572.084612 kJ/mol
# Density = 2.425330 g / cm^3
# Si number density = 24.308623 Si / 1000 Ang^3
#
#
#
# Elastic Constant Matrix: (Units=GPa)
#
#
# Indices 1 2 3 4 5 6 
#
# 1 102.0659 21.0342 28.5132 0.0000 0.0000 0.0000
# 2 21.0342 115.5567 15.3748 0.0000 0.0000 0.0000
# 3 28.5132 15.3748 143.1155 0.0000 0.0000 0.0000
# 4 0.0000 0.0000 0.0000 1.1669 0.0000 0.0000
# 5 0.0000 0.0000 0.0000 0.0000 -491.9196 0.0000
# 6 0.0000 0.0000 0.0000 0.0000 0.0000 41.4884
#
#
#
# Elastic Compliance Matrix: (Units=1/GPa)
#
#
# Indices 1 2 3 4 5 6 
#
# 1 0.010689 -0.001687 -0.001949 0.000000 0.000000 0.000000
# 2 -0.001687 0.009045 -0.000636 0.000000 0.000000 0.000000
# 3 -0.001949 -0.000636 0.007444 0.000000 0.000000 0.000000
# 4 0.000000 0.000000 0.000000 0.856955 0.000000 0.000000
# 5 0.000000 0.000000 0.000000 0.000000 -0.002033 0.000000
# 6 0.000000 0.000000 0.000000 0.000000 0.000000 0.024103
#
#
# Mechanical properties :
#
#
# Convention : Reuss Voigt Hill
#
# Bulk Modulus (GPa) = 53.65616 54.50920 54.08268
# Shear Modulus (GPa) = 5.42913 -70.13179 -32.35133
#
# Velocity S-wave (km/s) = 1.49608 -5.37710 -3.65205
# Velocity P-wave (km/s) = 5.01051 4.00980 2.12447
#
# Compressibility (1/GPa) = 0.01863719
#
# Stress axis : x y z
#
# Youngs Moduli (GPa) = 93.54982 110.55432 134.33883
#
# Poissons Ratio (x) = 0.18645 0.26176
# Poissons Ratio (y) = 0.15777 0.08540
# Poissons Ratio (z) = 0.18228 0.07028
#
# Static dielectric constant tensor:
#      x y z
#    x 1.972700 0.000000 0.000000 
#    y 0.000000 1.995200 0.000000 
#    z 0.000000 0.000000 2.007970 
# 
# From -- ./inp_files/65283.got.cif
#   From: 2010.05.17/outbox.cif.g08.bks.cpg/sg63_33_cif.got.tgz:65283.got - 2010.06.03 15:47:04.
