data_PCOD9472686
_publ_section_title
;
Structure prediction by ZEFSAII (Michael W. Deem and Ramdas Pophale) SiO2 
 PCOD9472686
Probable space group: C M C M
;
_chemical_formula_sum "Si O2"
_cell_formula_units_Z 96
_cell_length_a 7.489882
_cell_length_b 20.620074
_cell_length_c 29.644142
_cell_angle_alpha 90.000000
_cell_angle_beta 90.000000
_cell_angle_gamma 90.000000
_cell_volume 4578.298240
_symmetry_space_group_name_H-M "C M C M"
_symmetry_group_IT_number 63
_symmetry_cell_setting 'orthorhombic'
loop_
_space_group_symop_operation_xyz
x,y,z
-x,-y,1/2+z
x,-y,-z
-x,y,1/2-z
-x,-y,-z
x,y,1/2-z
-x,y,z
x,-y,1/2+z
1/2+x,1/2+y,z
1/2-x,1/2-y,1/2+z
1/2+x,1/2-y,-z
1/2-x,1/2+y,1/2-z
1/2-x,1/2-y,-z
1/2+x,1/2+y,1/2-z
1/2-x,1/2+y,z
1/2+x,1/2-y,1/2+z
loop_
_atom_site_type_symbol
_atom_site_label
_atom_site_fract_x
_atom_site_fract_y
_atom_site_fract_z
Si Si1 0.218017 0.502706 0.802296
Si Si2 0.716202 0.433537 0.523014
Si Si3 0.711025 0.102526 0.374168
Si Si4 0.213312 0.189759 0.532324
Si Si5 0.215417 0.648752 0.698400
Si Si6 0.290478 0.751270 0.877014
O O1 0.270208 0.491290 0.750000
O O2 0.282417 0.448267 0.837191
O O3 0.273443 0.576017 0.815529
O O4 0.000000 0.502693 0.802817
O O5 0.776047 0.500000 0.500000
O O6 0.500000 0.433033 0.522705
O O7 0.768460 0.423789 0.575016
O O8 0.782895 0.374045 0.492424
O O9 0.500000 0.107125 0.364421
O O10 0.784960 0.176060 0.372133
O O11 0.250000 0.250000 0.500000
O O12 0.285778 0.210312 0.581070
O O13 0.000000 0.180161 0.536539
O O14 0.272979 0.658395 0.750000
O O15 0.275993 0.706602 0.666652
O O16 0.000000 0.648766 0.697740
O O17 0.500000 0.760764 0.887503
#
# Coordination Sequence:
#
# PCOD9472686 Si02
#       6
#    16  16  16  16  16  16
#     4   8  16  33  55  77 102 133 169 212 260 306
#     4  10  22  37  53  75 106 144 177 211 262 315
#     4  10  20  35  55  80 105 133 176 220 257 304
#     4  10  20  36  54  75 106 141 175 213 258 309
#     4   9  19  36  56  78 104 135 173 212 255 313
#     4  10  21  34  52  80 109 135 171 217 263 311
#
# _framework density 20.968489000000002
#
# number of rings (size 3 to 8) (size 9 to 14) (size 15 to 20)
#    0.000    2.500    1.667    1.000    2.333    2.667 
#    0.000    1.667    0.000    1.500    0.000    0.000 
#    0.000    0.000    0.000    0.000    0.000    0.000 
#
# Total GULP energy -267921.658129 kJ/mol
# GULP energy per Si atom -5581.701211 kJ/mol
# Density = 2.092076 g / cm^3
# Si number density = 20.968489 Si / 1000 Ang^3
#
#
#
# Elastic Constant Matrix: (Units=GPa)
#
#
# Indices 1 2 3 4 5 6 
#
# 1 50.4392 -11.2462 -15.2723 0.0000 0.0000 0.0000
# 2 -11.2462 195.2385 106.1049 0.0000 0.0000 0.0000
# 3 -15.2723 106.1049 125.9159 0.0000 0.0000 0.0000
# 4 0.0000 0.0000 0.0000 42.9609 0.0000 0.0000
# 5 0.0000 0.0000 0.0000 0.0000 20.6435 0.0000
# 6 0.0000 0.0000 0.0000 0.0000 0.0000 -14.5718
#
#
#
# Elastic Compliance Matrix: (Units=1/GPa)
#
#
# Indices 1 2 3 4 5 6 
#
# 1 0.020592 -0.000316 0.002764 0.000000 0.000000 0.000000
# 2 -0.000316 0.009454 -0.008005 0.000000 0.000000 0.000000
# 3 0.002764 -0.008005 0.015023 0.000000 0.000000 0.000000
# 4 0.000000 0.000000 0.000000 0.023277 0.000000 0.000000
# 5 0.000000 0.000000 0.000000 0.000000 0.048441 0.000000
# 6 0.000000 0.000000 0.000000 0.000000 0.000000 -0.068626
#
#
# Mechanical properties :
#
#
# Convention : Reuss Voigt Hill
#
# Bulk Modulus (GPa) = 29.45087 58.97405 44.21246
# Shear Modulus (GPa) = 70.82749 29.27367 50.05058
#
# Velocity S-wave (km/s) = 5.81819 3.74047 4.89093
# Velocity P-wave (km/s) = 7.69487 6.84404 7.28189
#
# Compressibility (1/GPa) = 0.03395485
#
# Stress axis : x y z
#
# Youngs Moduli (GPa) = 48.56194 105.77342 66.56653
#
# Poissons Ratio (x) = 0.03341 -0.18398
# Poissons Ratio (y) = 0.01534 0.53287
# Poissons Ratio (z) = -0.13421 0.84672
#
# Static dielectric constant tensor:
#      x y z
#    x 1.823030 0.000000 0.000000 
#    y 0.000000 1.746170 0.000000 
#    z 0.000000 0.000000 1.692060 
# 
# From -- ./inp_files/66989.got.cif
#   From: 2010.05.17/outbox.cif.g08.bks.cpg/sg63_34_cif.got.tgz:66989.got - 2010.06.03 15:47:04.
