data_PCOD9472294
_publ_section_title
;
Structure prediction by ZEFSAII (Michael W. Deem and Ramdas Pophale) SiO2 
 PCOD9472294
Probable space group: C M C M
;
_chemical_formula_sum "Si O2"
_cell_formula_units_Z 80
_cell_length_a 7.473254
_cell_length_b 25.832731
_cell_length_c 19.311885
_cell_angle_alpha 90.000000
_cell_angle_beta 90.000000
_cell_angle_gamma 90.000000
_cell_volume 3728.247467
_symmetry_space_group_name_H-M "C M C M"
_symmetry_group_IT_number 63
_symmetry_cell_setting 'orthorhombic'
loop_
_space_group_symop_operation_xyz
x,y,z
-x,-y,1/2+z
x,-y,-z
-x,y,1/2-z
-x,-y,-z
x,y,1/2-z
-x,y,z
x,-y,1/2+z
1/2+x,1/2+y,z
1/2-x,1/2-y,1/2+z
1/2+x,1/2-y,-z
1/2-x,1/2+y,1/2-z
1/2-x,1/2-y,-z
1/2+x,1/2+y,1/2-z
1/2-x,1/2+y,z
1/2+x,1/2-y,1/2+z
loop_
_atom_site_type_symbol
_atom_site_label
_atom_site_fract_x
_atom_site_fract_y
_atom_site_fract_z
Si Si1 0.718922 0.892004 0.072371
Si Si2 0.712008 0.774360 0.075192
Si Si3 0.289358 0.180167 0.172347
Si Si4 0.718855 0.916699 0.917392
Si Si5 0.281492 0.983559 0.329420
O O1 0.500000 0.891255 0.072349
O O2 0.781805 0.832910 0.080116
O O3 0.774501 0.930740 0.132969
O O4 0.774307 0.913586 0.997263
O O5 0.500000 0.777710 0.081901
O O6 0.773995 0.734759 0.133779
O O7 0.750000 0.750000 0.000000
O O8 0.214037 0.180567 0.250000
O O9 0.500000 0.169102 0.178446
O O10 0.218327 0.134438 0.123433
O O11 0.500000 0.916668 0.918345
O O12 0.774730 0.967628 0.875872
O O13 0.222599 0.987662 0.250000
O O14 0.500000 0.984120 0.328711
#
# Coordination Sequence:
#
# PCOD9472294 Si02
#       5
#    16  16  16  16  16
#     4   9  17  28  45  68  97 132 169 210 257 309
#     4  11  21  35  54  76 105 141 178 218 263 310
#     4  10  20  34  53  78 107 138 174 216 261 311
#     4   9  15  27  46  69  98 132 168 207 255 308
#     4   9  16  25  40  67 101 132 162 204 259 312
#
# _framework density 21.457802000000001
#
# number of rings (size 3 to 8) (size 9 to 14) (size 15 to 20)
#    0.000    2.400    2.000    1.800    0.000    6.000 
#    0.000    2.000    0.000    0.000    0.000    4.200 
#    0.000    3.200    0.000    0.000    0.000    0.000 
#
# Total GULP energy -223464.524490 kJ/mol
# GULP energy per Si atom -5586.613112 kJ/mol
# Density = 2.140896 g / cm^3
# Si number density = 21.457802 Si / 1000 Ang^3
#
#
#
# Elastic Constant Matrix: (Units=GPa)
#
#
# Indices 1 2 3 4 5 6 
#
# 1 58.3141 -9.2685 -7.6718 0.0000 0.0000 0.0000
# 2 -9.2685 152.6962 34.7539 0.0000 0.0000 0.0000
# 3 -7.6718 34.7539 68.4869 0.0000 0.0000 0.0000
# 4 0.0000 0.0000 0.0000 8.0701 0.0000 0.0000
# 5 0.0000 0.0000 0.0000 0.0000 1.5196 0.0000
# 6 0.0000 0.0000 0.0000 0.0000 0.0000 14.4674
#
#
#
# Elastic Compliance Matrix: (Units=1/GPa)
#
#
# Indices 1 2 3 4 5 6 
#
# 1 0.017470 0.000695 0.001604 0.000000 0.000000 0.000000
# 2 0.000695 0.007432 -0.003693 0.000000 0.000000 0.000000
# 3 0.001604 -0.003693 0.016655 0.000000 0.000000 0.000000
# 4 0.000000 0.000000 0.000000 0.123914 0.000000 0.000000
# 5 0.000000 0.000000 0.000000 0.000000 0.658072 0.000000
# 6 0.000000 0.000000 0.000000 0.000000 0.000000 0.069121
#
#
# Mechanical properties :
#
#
# Convention : Reuss Voigt Hill
#
# Bulk Modulus (GPa) = 25.79368 35.01382 30.40375
# Shear Modulus (GPa) = 5.50433 22.25698 13.88066
#
# Velocity S-wave (km/s) = 1.60336 3.22412 2.54615
# Velocity P-wave (km/s) = 3.93375 5.49663 4.77950
#
# Compressibility (1/GPa) = 0.03876919
#
# Stress axis : x y z
#
# Youngs Moduli (GPa) = 57.24075 134.55727 60.04110
#
# Poissons Ratio (x) = -0.09356 -0.09631
# Poissons Ratio (y) = -0.03980 0.22176
# Poissons Ratio (z) = -0.09182 0.49697
#
# Static dielectric constant tensor:
#      x y z
#    x 1.731600 0.000000 0.000000 
#    y 0.000000 1.745070 0.000000 
#    z 0.000000 0.000000 1.728010 
# 
# From -- ./inp_files/40442.got.cif
#   From: 2010.05.17/outbox.cif.g08.bks.cpg/sg63_21_cif.got.tgz:40442.got - 2010.06.03 15:47:04.
