data_PCOD9472809
_publ_section_title
;
Structure prediction by ZEFSAII (Michael W. Deem and Ramdas Pophale) SiO2 
 PCOD9472809
Probable space group: C M C M
;
_chemical_formula_sum "Si O2"
_cell_formula_units_Z 116
_cell_length_a 14.044716
_cell_length_b 19.298836
_cell_length_c 23.078528
_cell_angle_alpha 90.000000
_cell_angle_beta 90.000000
_cell_angle_gamma 90.000000
_cell_volume 6255.358180
_symmetry_space_group_name_H-M "C M C M"
_symmetry_group_IT_number 63
_symmetry_cell_setting 'orthorhombic'
loop_
_space_group_symop_operation_xyz
x,y,z
-x,-y,1/2+z
x,-y,-z
-x,y,1/2-z
-x,-y,-z
x,y,1/2-z
-x,y,z
x,-y,1/2+z
1/2+x,1/2+y,z
1/2-x,1/2-y,1/2+z
1/2+x,1/2-y,-z
1/2-x,1/2+y,1/2-z
1/2-x,1/2-y,-z
1/2+x,1/2+y,1/2-z
1/2-x,1/2+y,z
1/2+x,1/2-y,1/2+z
loop_
_atom_site_type_symbol
_atom_site_label
_atom_site_fract_x
_atom_site_fract_y
_atom_site_fract_z
Si Si1 0.111453 0.177485 0.394253
Si Si2 0.329634 0.063985 0.842016
Si Si3 0.730183 0.574895 0.180259
Si Si4 0.260862 0.299582 0.364628
Si Si5 0.606500 0.181420 0.319498
Si Si6 0.780421 0.829288 0.007693
Si Si7 0.606526 0.077049 0.524993
Si Si8 0.500000 0.956542 0.250000
O O1 0.146124 0.115828 0.351985
O O2 0.174374 0.245827 0.378909
O O3 0.139513 0.156908 0.460061
O O4 0.000000 0.191482 0.388595
O O5 0.281742 0.137902 0.827323
O O6 0.370305 0.072712 0.906842
O O7 0.415821 0.044901 0.799927
O O8 0.251283 0.003305 0.838501
O O9 0.718879 0.578289 0.250000
O O10 0.825011 0.618459 0.163132
O O11 0.341959 0.252268 0.336933
O O12 0.301352 0.333462 0.423970
O O13 0.601150 0.178497 0.250000
O O14 0.500000 0.175209 0.343268
O O15 0.688336 0.876684 0.996335
O O16 0.750000 0.750000 0.000000
O O17 0.500000 0.105732 0.516445
O O18 0.609722 0.000000 0.500000
#
# Coordination Sequence:
#
# PCOD9472809 Si02
#       8
#    16  16  16  16  16  16  16   4
#     4  10  21  39  60  82 110 148 190 232 280 334
#     4  11  22  36  55  85 122 144 189 230 282 345
#     4  10  21  37  55  81 113 147 186 235 278 330
#     4   9  21  37  56  84 115 145 181 232 282 334
#     4   9  19  34  54  76 107 146 189 227 270 324
#     4   9  19  35  54  80 111 142 178 222 275 329
#     4  10  20  35  57  84 114 146 180 227 283 334
#     4  12  24  32  54  92 118 160 180 220 306 340
#
# _framework density 18.544103
#
# number of rings (size 3 to 8) (size 9 to 14) (size 15 to 20)
#    0.000    2.207    1.379    0.828    2.897    4.138 
#    0.000    7.586    0.000    7.862    0.000    0.000 
#    0.000    0.000    0.000    0.000    0.000    0.000 
#
# Total GULP energy -322964.207967 kJ/mol
# GULP energy per Si atom -5568.348413 kJ/mol
# Density = 1.850190 g / cm^3
# Si number density = 18.544103 Si / 1000 Ang^3
#
#
#
# Elastic Constant Matrix: (Units=GPa)
#
#
# Indices 1 2 3 4 5 6 
#
# 1 80.9883 19.8202 18.8740 0.0000 0.0000 0.0000
# 2 19.8202 77.9982 7.2008 0.0000 0.0000 0.0000
# 3 18.8740 7.2008 30.8847 0.0000 0.0000 0.0000
# 4 0.0000 0.0000 0.0000 6.2361 0.0000 0.0000
# 5 0.0000 0.0000 0.0000 0.0000 30.4839 0.0000
# 6 0.0000 0.0000 0.0000 0.0000 0.0000 7.4952
#
#
#
# Elastic Compliance Matrix: (Units=1/GPa)
#
#
# Indices 1 2 3 4 5 6 
#
# 1 0.015074 -0.003046 -0.008502 0.000000 0.000000 0.000000
# 2 -0.003046 0.013718 -0.001337 0.000000 0.000000 0.000000
# 3 -0.008502 -0.001337 0.037886 0.000000 0.000000 0.000000
# 4 0.000000 0.000000 0.000000 0.160357 0.000000 0.000000
# 5 0.000000 0.000000 0.000000 0.000000 0.032804 0.000000
# 6 0.000000 0.000000 0.000000 0.000000 0.000000 0.133419
#
#
# Mechanical properties :
#
#
# Convention : Reuss Voigt Hill
#
# Bulk Modulus (GPa) = 24.44463 31.29569 27.87016
# Shear Modulus (GPa) = 11.55631 18.44146 14.99888
#
# Velocity S-wave (km/s) = 2.49907 3.15693 2.84707
# Velocity P-wave (km/s) = 4.64086 5.49557 5.08620
#
# Compressibility (1/GPa) = 0.04090879
#
# Stress axis : x y z
#
# Youngs Moduli (GPa) = 66.33874 72.89598 26.39508
#
# Poissons Ratio (x) = 0.22201 0.22441
# Poissons Ratio (y) = 0.20204 0.03529
# Poissons Ratio (z) = 0.56400 0.09748
#
# Static dielectric constant tensor:
#      x y z
#    x 1.630610 0.000000 0.000000 
#    y 0.000000 1.639780 0.000000 
#    z 0.000000 0.000000 1.676270 
# 
# From -- ./inp_files/68517.got.cif
#   From: 2010.05.17/outbox.cif.g08.bks.cpg/sg63_35_cif.got.tgz:68517.got - 2010.06.03 15:47:04.
