data_PCOD9472255
_publ_section_title
;
Structure prediction by ZEFSAII (Michael W. Deem and Ramdas Pophale) SiO2 
 PCOD9472255
Probable space group: C M C M
;
_chemical_formula_sum "Si O2"
_cell_formula_units_Z 80
_cell_length_a 14.858639
_cell_length_b 26.673123
_cell_length_c 9.404592
_cell_angle_alpha 90.000000
_cell_angle_beta 90.000000
_cell_angle_gamma 90.000000
_cell_volume 3727.287204
_symmetry_space_group_name_H-M "C M C M"
_symmetry_group_IT_number 63
_symmetry_cell_setting 'orthorhombic'
loop_
_space_group_symop_operation_xyz
x,y,z
-x,-y,1/2+z
x,-y,-z
-x,y,1/2-z
-x,-y,-z
x,y,1/2-z
-x,y,z
x,-y,1/2+z
1/2+x,1/2+y,z
1/2-x,1/2-y,1/2+z
1/2+x,1/2-y,-z
1/2-x,1/2+y,1/2-z
1/2-x,1/2-y,-z
1/2+x,1/2+y,1/2-z
1/2-x,1/2+y,z
1/2+x,1/2-y,1/2+z
loop_
_atom_site_type_symbol
_atom_site_label
_atom_site_fract_x
_atom_site_fract_y
_atom_site_fract_z
Si Si1 0.641667 0.452150 0.587801
Si Si2 0.357249 0.047078 0.411127
Si Si3 0.889574 0.245340 0.086934
Si Si4 0.107643 0.341675 0.587946
Si Si5 0.892190 0.148439 0.588867
O O1 0.606860 0.500000 0.500000
O O2 0.607645 0.450003 0.750000
O O3 0.749504 0.457790 0.596486
O O4 0.624425 0.401425 0.501727
O O5 0.392914 0.046203 0.250000
O O6 0.375304 0.102579 0.470547
O O7 0.391738 0.000000 0.500000
O O8 0.859556 0.242510 0.250000
O O9 0.000000 0.245100 0.088783
O O10 0.860151 0.296429 0.009991
O O11 0.859914 0.197273 0.996104
O O12 0.144461 0.339018 0.750000
O O13 0.000000 0.336002 0.598089
O O14 0.855987 0.144963 0.750000
O O15 0.000000 0.153754 0.599861
#
# Coordination Sequence:
#
# PCOD9472255 Si02
#       5
#    16  16  16  16  16
#     4  10  20  35  53  72  98 131 166 203 244 291
#     4   9  19  34  51  72  99 132 167 203 245 291
#     4   9  17  30  49  74 102 130 161 199 244 291
#     4   9  17  31  51  74 101 132 165 202 244 289
#     4  10  20  34  53  76 100 127 161 201 245 293
#
# _framework density 21.463332000000001
#
# number of rings (size 3 to 8) (size 9 to 14) (size 15 to 20)
#    0.000    2.600    0.000    1.800    0.000    6.000 
#    0.000    1.000    0.000    0.000    0.000    0.000 
#    0.000    0.000    0.000    0.000    0.000    0.000 
#
# Total GULP energy -223391.175930 kJ/mol
# GULP energy per Si atom -5584.779398 kJ/mol
# Density = 2.141448 g / cm^3
# Si number density = 21.463332 Si / 1000 Ang^3
#
#
#
# Elastic Constant Matrix: (Units=GPa)
#
#
# Indices 1 2 3 4 5 6 
#
# 1 47.4769 -2.5158 6.5241 0.0000 0.0000 0.0000
# 2 -2.5158 252.0116 143.6417 0.0000 0.0000 0.0000
# 3 6.5241 143.6417 190.4026 0.0000 0.0000 0.0000
# 4 0.0000 0.0000 0.0000 36.4558 0.0000 0.0000
# 5 0.0000 0.0000 0.0000 0.0000 14.0535 0.0000
# 6 0.0000 0.0000 0.0000 0.0000 0.0000 27.9452
#
#
#
# Elastic Compliance Matrix: (Units=1/GPa)
#
#
# Indices 1 2 3 4 5 6 
#
# 1 0.021336 0.001105 -0.001565 0.000000 0.000000 0.000000
# 2 0.001105 0.007019 -0.005333 0.000000 0.000000 0.000000
# 3 -0.001565 -0.005333 0.009329 0.000000 0.000000 0.000000
# 4 0.000000 0.000000 0.000000 0.027430 0.000000 0.000000
# 5 0.000000 0.000000 0.000000 0.000000 0.071157 0.000000
# 6 0.000000 0.000000 0.000000 0.000000 0.000000 0.035784
#
#
# Mechanical properties :
#
#
# Convention : Reuss Voigt Hill
#
# Bulk Modulus (GPa) = 38.31615 87.24344 62.77979
# Shear Modulus (GPa) = 25.99563 38.50699 32.25131
#
# Velocity S-wave (km/s) = 3.48395 4.24026 3.88057
# Velocity P-wave (km/s) = 5.83734 8.04419 7.02793
#
# Compressibility (1/GPa) = 0.02609866
#
# Stress axis : x y z
#
# Youngs Moduli (GPa) = 46.86831 142.47616 107.19505
#
# Poissons Ratio (x) = -0.15740 0.16771
# Poissons Ratio (y) = -0.05178 0.57165
# Poissons Ratio (z) = 0.07333 0.75980
#
# Static dielectric constant tensor:
#      x y z
#    x 1.819930 0.000000 0.000000 
#    y 0.000000 1.742600 0.000000 
#    z 0.000000 0.000000 1.764510 
# 
# From -- ./inp_files/6399.got.cif
#   From: 2010.05.17/outbox.cif.g08.bks.cpg/sg63_4_cif.got.tgz:6399.got - 2010.06.03 15:47:04.
