data_PCOD9472563
_publ_section_title
;
Structure prediction by ZEFSAII (Michael W. Deem and Ramdas Pophale) SiO2 
 PCOD9472563
Probable space group: C M C M
;
_chemical_formula_sum "Si O2"
_cell_formula_units_Z 96
_cell_length_a 19.335589
_cell_length_b 11.790943
_cell_length_c 22.603915
_cell_angle_alpha 90.000000
_cell_angle_beta 90.000000
_cell_angle_gamma 90.000000
_cell_volume 5153.349668
_symmetry_space_group_name_H-M "C M C M"
_symmetry_group_IT_number 63
_symmetry_cell_setting 'orthorhombic'
loop_
_space_group_symop_operation_xyz
x,y,z
-x,-y,1/2+z
x,-y,-z
-x,y,1/2-z
-x,-y,-z
x,y,1/2-z
-x,y,z
x,-y,1/2+z
1/2+x,1/2+y,z
1/2-x,1/2-y,1/2+z
1/2+x,1/2-y,-z
1/2-x,1/2+y,1/2-z
1/2-x,1/2-y,-z
1/2+x,1/2+y,1/2-z
1/2-x,1/2+y,z
1/2+x,1/2-y,1/2+z
loop_
_atom_site_type_symbol
_atom_site_label
_atom_site_fract_x
_atom_site_fract_y
_atom_site_fract_z
Si Si1 0.417839 0.837386 0.818467
Si Si2 0.660481 0.933222 0.318285
Si Si3 0.418306 0.405904 0.124777
Si Si4 0.199230 0.254209 0.407606
Si Si5 0.196783 0.054948 0.183235
Si Si6 0.179952 0.119118 0.522233
O O1 0.398791 0.816332 0.750000
O O2 0.500000 0.858126 0.821625
O O3 0.403559 0.722288 0.853276
O O4 0.378298 0.951144 0.836224
O O5 0.640046 0.904529 0.250000
O O6 0.652598 0.837642 0.367922
O O7 0.741915 0.962999 0.317068
O O8 0.500000 0.426102 0.129129
O O9 0.373557 0.494210 0.163012
O O10 0.388118 0.411471 0.058901
O O11 0.217103 0.152549 0.362801
O O12 0.165777 0.197927 0.465772
O O13 0.265765 0.319506 0.434091
O O14 0.191423 0.100378 0.250000
O O15 0.211468 0.000000 0.500000
#
# Coordination Sequence:
#
# PCOD9472563 Si02
#       6
#    16  16  16  16  16  16
#     4   9  19  37  60  86 117 157 198 238 292 355
#     4  10  20  34  59  89 120 153 191 247 300 357
#     4  11  22  39  61  86 120 159 206 251 295 350
#     4  11  21  38  60  86 120 152 199 245 304 353
#     4  11  22  37  59  90 123 153 198 248 302 359
#     4  11  22  39  60  85 117 162 202 245 293 356
#
# _framework density 18.62866
#
# number of rings (size 3 to 8) (size 9 to 14) (size 15 to 20)
#    0.000    1.500    3.333    2.000    0.000    2.667 
#    0.000    1.667    0.000    4.000    0.000    0.000 
#    0.000    0.000    0.000    0.000    0.000    0.000 
#
# Total GULP energy -267844.583010 kJ/mol
# GULP energy per Si atom -5580.095479 kJ/mol
# Density = 1.858626 g / cm^3
# Si number density = 18.628660 Si / 1000 Ang^3
#
#
#
# Elastic Constant Matrix: (Units=GPa)
#
#
# Indices 1 2 3 4 5 6 
#
# 1 35.9500 21.9743 16.9970 0.0000 0.0000 0.0000
# 2 21.9743 75.4968 48.4432 0.0000 0.0000 0.0000
# 3 16.9970 48.4432 115.5826 0.0000 0.0000 0.0000
# 4 0.0000 0.0000 0.0000 44.3034 0.0000 0.0000
# 5 0.0000 0.0000 0.0000 0.0000 -46.4670 0.0000
# 6 0.0000 0.0000 0.0000 0.0000 0.0000 26.8756
#
#
#
# Elastic Compliance Matrix: (Units=1/GPa)
#
#
# Indices 1 2 3 4 5 6 
#
# 1 0.033950 -0.009135 -0.001164 0.000000 0.000000 0.000000
# 2 -0.009135 0.020576 -0.007281 0.000000 0.000000 0.000000
# 3 -0.001164 -0.007281 0.011874 0.000000 0.000000 0.000000
# 4 0.000000 0.000000 0.000000 0.022572 0.000000 0.000000
# 5 0.000000 0.000000 0.000000 0.000000 -0.021521 0.000000
# 6 0.000000 0.000000 0.000000 0.000000 0.000000 0.037208
#
#
# Mechanical properties :
#
#
# Convention : Reuss Voigt Hill
#
# Bulk Modulus (GPa) = 32.00801 44.65093 38.32947
# Shear Modulus (GPa) = 33.28166 14.25005 23.76585
#
# Velocity S-wave (km/s) = 4.23139 2.76878 3.57566
# Velocity P-wave (km/s) = 6.41032 5.85171 6.13738
#
# Compressibility (1/GPa) = 0.03124218
#
# Stress axis : x y z
#
# Youngs Moduli (GPa) = 29.45477 48.60031 84.21456
#
# Poissons Ratio (x) = 0.44395 0.09803
# Poissons Ratio (y) = 0.26906 0.61313
# Poissons Ratio (z) = 0.03429 0.35384
#
# Static dielectric constant tensor:
#      x y z
#    x 1.622150 0.000000 0.000000 
#    y 0.000000 1.666080 0.000000 
#    z 0.000000 0.000000 1.674290 
# 
# From -- ./inp_files/63697.got.cif
#   From: 2010.05.17/outbox.cif.g08.bks.cpg/sg63_32_cif.got.tgz:63697.got - 2010.06.03 15:47:04.
