data_PCOD9472025
_publ_section_title
;
Structure prediction by ZEFSAII (Michael W. Deem and Ramdas Pophale) SiO2 
 PCOD9472025
Probable space group: C M C M
;
_chemical_formula_sum "Si O2"
_cell_formula_units_Z 96
_cell_length_a 13.300536
_cell_length_b 21.063584
_cell_length_c 16.841150
_cell_angle_alpha 90.000000
_cell_angle_beta 90.000000
_cell_angle_gamma 90.000000
_cell_volume 4718.165341
_symmetry_space_group_name_H-M "C M C M"
_symmetry_group_IT_number 63
_symmetry_cell_setting 'orthorhombic'
loop_
_space_group_symop_operation_xyz
x,y,z
-x,-y,1/2+z
x,-y,-z
-x,y,1/2-z
-x,-y,-z
x,y,1/2-z
-x,y,z
x,-y,1/2+z
1/2+x,1/2+y,z
1/2-x,1/2-y,1/2+z
1/2+x,1/2-y,-z
1/2-x,1/2+y,1/2-z
1/2-x,1/2-y,-z
1/2+x,1/2+y,1/2-z
1/2-x,1/2+y,z
1/2+x,1/2-y,1/2+z
loop_
_atom_site_type_symbol
_atom_site_label
_atom_site_fract_x
_atom_site_fract_y
_atom_site_fract_z
Si Si1 0.270213 0.442332 0.945667
Si Si2 0.386781 0.018405 0.658601
Si Si3 0.889376 0.338079 0.989939
Si Si4 0.837013 0.667462 0.660724
Si Si5 0.312428 0.765853 0.660982
Si Si6 0.887808 0.148476 0.159818
O O1 0.192012 0.474731 0.885301
O O2 0.200556 0.389163 0.987657
O O3 0.358918 0.406402 0.901202
O O4 0.305364 0.500000 0.000000
O O5 0.390518 0.998239 0.750000
O O6 0.500000 0.014322 0.625224
O O7 0.353957 0.092019 0.657897
O O8 0.871990 0.290611 0.915580
O O9 0.000000 0.367307 0.979799
O O10 0.885165 0.308576 0.078212
O O11 0.874130 0.687093 0.750000
O O12 0.722362 0.692677 0.656843
O O13 0.354775 0.778752 0.750000
O O14 0.204575 0.802182 0.656570
O O15 0.886408 0.123349 0.250000
O O16 0.000000 0.174034 0.145300
#
# Coordination Sequence:
#
# PCOD9472025 Si02
#       6
#    16  16  16  16  16  16
#     4  11  21  34  52  76 111 145 176 220 272 323
#     4  10  20  33  52  79 109 143 182 221 267 325
#     4  11  22  35  56  84 114 148 184 222 271 331
#     4  10  20  35  55  78 109 146 184 225 270 320
#     4   9  20  38  58  81 109 140 178 228 281 328
#     4   9  19  36  56  76  98 131 178 228 274 320
#
# _framework density 20.346892
#
# number of rings (size 3 to 8) (size 9 to 14) (size 15 to 20)
#    0.000    2.000    1.667    2.000    0.000    4.333 
#    0.000    5.000    0.000    1.000    0.000    2.333 
#    0.000    0.000    0.000    0.000    0.000    0.000 
#
# Total GULP energy -267483.750154 kJ/mol
# GULP energy per Si atom -5572.578128 kJ/mol
# Density = 2.030058 g / cm^3
# Si number density = 20.346892 Si / 1000 Ang^3
#
#
#
# Elastic Constant Matrix: (Units=GPa)
#
#
# Indices 1 2 3 4 5 6 
#
# 1 49.3814 2.8594 31.9517 0.0000 0.0000 0.0000
# 2 2.8594 30.4898 22.1729 0.0000 0.0000 0.0000
# 3 31.9517 22.1729 139.5081 0.0000 0.0000 0.0000
# 4 0.0000 0.0000 0.0000 31.3042 0.0000 0.0000
# 5 0.0000 0.0000 0.0000 0.0000 0.4506 0.0000
# 6 0.0000 0.0000 0.0000 0.0000 0.0000 -26.7913
#
#
#
# Elastic Compliance Matrix: (Units=1/GPa)
#
#
# Indices 1 2 3 4 5 6 
#
# 1 0.023877 0.001965 -0.005781 0.000000 0.000000 0.000000
# 2 0.001965 0.037246 -0.006370 0.000000 0.000000 0.000000
# 3 -0.005781 -0.006370 0.009504 0.000000 0.000000 0.000000
# 4 0.000000 0.000000 0.000000 0.031945 0.000000 0.000000
# 5 0.000000 0.000000 0.000000 0.000000 2.219256 0.000000
# 6 0.000000 0.000000 0.000000 0.000000 0.000000 -0.037326
#
#
# Mechanical properties :
#
#
# Convention : Reuss Voigt Hill
#
# Bulk Modulus (GPa) = 19.89824 37.03861 28.46842
# Shear Modulus (GPa) = 2.15366 11.81905 6.98636
#
# Velocity S-wave (km/s) = 1.02994 2.41275 1.85501
# Velocity P-wave (km/s) = 3.34889 5.09950 4.31393
#
# Compressibility (1/GPa) = 0.05025571
#
# Stress axis : x y z
#
# Youngs Moduli (GPa) = 41.88090 26.84866 105.21419
#
# Poissons Ratio (x) = -0.05275 0.60823
# Poissons Ratio (y) = -0.08228 0.67018
# Poissons Ratio (z) = 0.24211 0.17102
#
# Static dielectric constant tensor:
#      x y z
#    x 1.690690 0.000000 0.000000 
#    y 0.000000 1.766800 0.000000 
#    z 0.000000 0.000000 1.779530 
# 
# From -- ./inp_files/42515.got.cif
#   From: 2010.05.17/outbox.cif.g08.bks.cpg/sg63_22_cif.got.tgz:42515.got - 2010.06.03 15:47:04.
