data_PCOD9472031
_publ_section_title
;
Structure prediction by ZEFSAII (Michael W. Deem and Ramdas Pophale) SiO2 
 PCOD9472031
Probable space group: C M C M
;
_chemical_formula_sum "Si O2"
_cell_formula_units_Z 72
_cell_length_a 14.898365
_cell_length_b 15.781664
_cell_length_c 16.344945
_cell_angle_alpha 90.000000
_cell_angle_beta 90.000000
_cell_angle_gamma 90.000000
_cell_volume 3843.039659
_symmetry_space_group_name_H-M "C M C M"
_symmetry_group_IT_number 63
_symmetry_cell_setting 'orthorhombic'
loop_
_space_group_symop_operation_xyz
x,y,z
-x,-y,1/2+z
x,-y,-z
-x,y,1/2-z
-x,-y,-z
x,y,1/2-z
-x,y,z
x,-y,1/2+z
1/2+x,1/2+y,z
1/2-x,1/2-y,1/2+z
1/2+x,1/2-y,-z
1/2-x,1/2+y,1/2-z
1/2-x,1/2-y,-z
1/2+x,1/2+y,1/2-z
1/2-x,1/2+y,z
1/2+x,1/2-y,1/2+z
loop_
_atom_site_type_symbol
_atom_site_label
_atom_site_fract_x
_atom_site_fract_y
_atom_site_fract_z
Si Si1 0.892634 0.943537 0.924515
Si Si2 0.106493 0.454316 0.912083
Si Si3 0.393114 0.570233 0.250000
Si Si4 0.298000 0.755694 0.250000
Si Si5 0.607736 0.063036 0.750000
Si Si6 0.751652 0.696480 0.418332
O O1 0.870545 0.978104 0.833708
O O2 0.841570 0.855247 0.924254
O O3 0.000000 0.933841 0.931472
O O4 0.861142 0.000000 0.000000
O O5 0.132580 0.511982 0.833247
O O6 0.168491 0.371628 0.913585
O O7 0.000000 0.434801 0.903891
O O8 0.118310 0.500000 0.000000
O O9 0.500000 0.582825 0.250000
O O10 0.350127 0.664294 0.250000
O O11 0.354988 0.841598 0.250000
O O12 0.245315 0.751144 0.164512
O O13 0.500000 0.068444 0.750000
O O14 0.750000 0.750000 0.500000
#
# Coordination Sequence:
#
# PCOD9472031 Si02
#       6
#    16  16   8   8   8  16
#     4   9  18  33  53  77 105 139 176 214 261 315
#     4  10  21  37  57  81 110 146 186 228 273 323
#     4   8  15  29  50  75 104 135 170 215 257 302
#     4  10  20  33  52  80 107 138 179 220 269 321
#     4  10  20  36  59  83 109 143 183 227 272 323
#     4  11  22  36  55  80 110 142 177 222 273 322
#
# _framework density 18.73517
#
# number of rings (size 3 to 8) (size 9 to 14) (size 15 to 20)
#    0.000    2.222    0.000    3.000    0.000    1.778 
#    0.000    1.111    0.000    0.000    0.000    1.556 
#    0.000    0.000    0.000    0.000    0.000    0.000 
#
# Total GULP energy -200592.391482 kJ/mol
# GULP energy per Si atom -5572.010875 kJ/mol
# Density = 1.869253 g / cm^3
# Si number density = 18.735170 Si / 1000 Ang^3
#
#
#
# Elastic Constant Matrix: (Units=GPa)
#
#
# Indices 1 2 3 4 5 6 
#
# 1 49.5872 29.5377 36.5321 0.0000 0.0000 0.0000
# 2 29.5377 73.1707 72.4287 0.0000 0.0000 0.0000
# 3 36.5321 72.4287 218.5321 0.0000 0.0000 0.0000
# 4 0.0000 0.0000 0.0000 40.5172 0.0000 0.0000
# 5 0.0000 0.0000 0.0000 0.0000 -25.8831 0.0000
# 6 0.0000 0.0000 0.0000 0.0000 0.0000 -5.7461
#
#
#
# Elastic Compliance Matrix: (Units=1/GPa)
#
#
# Indices 1 2 3 4 5 6 
#
# 1 0.026809 -0.009504 -0.001332 0.000000 0.000000 0.000000
# 2 -0.009504 0.023709 -0.006269 0.000000 0.000000 0.000000
# 3 -0.001332 -0.006269 0.006876 0.000000 0.000000 0.000000
# 4 0.000000 0.000000 0.000000 0.024681 0.000000 0.000000
# 5 0.000000 0.000000 0.000000 0.000000 -0.038635 0.000000
# 6 0.000000 0.000000 0.000000 0.000000 0.000000 -0.174030
#
#
# Mechanical properties :
#
#
# Convention : Reuss Voigt Hill
#
# Bulk Modulus (GPa) = 43.13249 68.69854 55.91552
# Shear Modulus (GPa) = -56.39984 15.29703 -20.55141
#
# Velocity S-wave (km/s) = -5.49264 2.86052 -3.31561
# Velocity P-wave (km/s) = 4.14165 6.90347 3.90543
#
# Compressibility (1/GPa) = 0.02318438
#
# Stress axis : x y z
#
# Youngs Moduli (GPa) = 37.30111 42.17848 145.42535
#
# Poissons Ratio (x) = 0.40087 0.19366
# Poissons Ratio (y) = 0.35451 0.91168
# Poissons Ratio (z) = 0.04967 0.26442
#
# Static dielectric constant tensor:
#      x y z
#    x 1.649230 0.000000 0.000000 
#    y 0.000000 1.610240 0.000000 
#    z 0.000000 0.000000 1.800340 
# 
# From -- ./inp_files/33723.got.cif
#   From: 2010.05.17/outbox.cif.g08.bks.cpg/sg63_17_cif.got.tgz:33723.got - 2010.06.03 15:47:04.
