data_PCOD9472658
_publ_section_title
;
Structure prediction by ZEFSAII (Michael W. Deem and Ramdas Pophale) SiO2 
 PCOD9472658
Probable space group: C M C M
;
_chemical_formula_sum "Si O2"
_cell_formula_units_Z 64
_cell_length_a 13.867229
_cell_length_b 28.439253
_cell_length_c 7.377326
_cell_angle_alpha 90.000000
_cell_angle_beta 90.000000
_cell_angle_gamma 90.000000
_cell_volume 2909.422863
_symmetry_space_group_name_H-M "C M C M"
_symmetry_group_IT_number 63
_symmetry_cell_setting 'orthorhombic'
loop_
_space_group_symop_operation_xyz
x,y,z
-x,-y,1/2+z
x,-y,-z
-x,y,1/2-z
-x,-y,-z
x,y,1/2-z
-x,y,z
x,-y,1/2+z
1/2+x,1/2+y,z
1/2-x,1/2-y,1/2+z
1/2+x,1/2-y,-z
1/2-x,1/2+y,1/2-z
1/2-x,1/2-y,-z
1/2+x,1/2+y,1/2-z
1/2-x,1/2+y,z
1/2+x,1/2-y,1/2+z
loop_
_atom_site_type_symbol
_atom_site_label
_atom_site_fract_x
_atom_site_fract_y
_atom_site_fract_z
Si Si1 0.195594 0.797997 0.535854
Si Si2 0.000000 0.356721 0.027486
Si Si3 0.106454 0.944262 0.466623
Si Si4 0.704975 0.892468 0.453481
Si Si5 0.000000 0.246094 0.028741
O O1 0.193485 0.808346 0.750000
O O2 0.250000 0.750000 0.500000
O O3 0.249847 0.840536 0.444315
O O4 0.090209 0.784755 0.470609
O O5 0.902008 0.383331 0.968153
O O6 0.000000 0.301216 0.971347
O O7 0.000000 0.356064 0.250000
O O8 0.106622 0.935611 0.250000
O O9 0.206287 0.921942 0.538262
O O10 0.000000 0.927408 0.533651
O O11 0.109238 0.000000 0.500000
O O12 0.689478 0.911668 0.250000
O O13 0.000000 0.248201 0.250000
#
# Coordination Sequence:
#
# PCOD9472658 Si02
#       5
#    16   8  16  16   8
#     4  11  21  34  51  74 105 141 180 217 256 305
#     4   9  16  32  53  71 103 144 173 204 256 314
#     4   9  19  36  57  80 105 132 167 214 266 316
#     4  10  20  35  55  78 104 137 177 216 259 312
#     4   9  18  32  48  69 102 142 176 207 256 315
#
# _framework density 21.997491
#
# number of rings (size 3 to 8) (size 9 to 14) (size 15 to 20)
#    0.000    2.250    2.500    0.750    1.750    1.000 
#    0.000    4.375    0.000    0.000    0.000    0.000 
#    0.000    0.000    0.000    0.000    0.000    0.000 
#
# Total GULP energy -178413.183069 kJ/mol
# GULP energy per Si atom -5575.411971 kJ/mol
# Density = 2.194742 g / cm^3
# Si number density = 21.997491 Si / 1000 Ang^3
#
#
#
# Elastic Constant Matrix: (Units=GPa)
#
#
# Indices 1 2 3 4 5 6 
#
# 1 255.3365 55.9695 7.5384 0.0000 0.0000 0.0000
# 2 55.9695 59.6353 -7.8825 0.0000 0.0000 0.0000
# 3 7.5384 -7.8825 86.3942 0.0000 0.0000 0.0000
# 4 0.0000 0.0000 0.0000 15.3616 0.0000 0.0000
# 5 0.0000 0.0000 0.0000 0.0000 -11.9113 0.0000
# 6 0.0000 0.0000 0.0000 0.0000 0.0000 477.3982
#
#
#
# Elastic Compliance Matrix: (Units=1/GPa)
#
#
# Indices 1 2 3 4 5 6 
#
# 1 0.004995 -0.004804 -0.000874 0.000000 0.000000 0.000000
# 2 -0.004804 0.021593 0.002389 0.000000 0.000000 0.000000
# 3 -0.000874 0.002389 0.011869 0.000000 0.000000 0.000000
# 4 0.000000 0.000000 0.000000 0.065097 0.000000 0.000000
# 5 0.000000 0.000000 0.000000 0.000000 -0.083954 0.000000
# 6 0.000000 0.000000 0.000000 0.000000 0.000000 0.002095
#
#
# Mechanical properties :
#
#
# Convention : Reuss Voigt Hill
#
# Bulk Modulus (GPa) = 31.36768 56.95743 44.16255
# Shear Modulus (GPa) = 128.53785 119.21906 123.87846
#
# Velocity S-wave (km/s) = 7.65244 7.36983 7.51246
# Velocity P-wave (km/s) = 9.61095 9.91806 9.76571
#
# Compressibility (1/GPa) = 0.03187995
#
# Stress axis : x y z
#
# Youngs Moduli (GPa) = 200.19370 46.31180 84.25230
#
# Poissons Ratio (x) = 0.22247 0.07365
# Poissons Ratio (y) = 0.96166 -0.20130
# Poissons Ratio (z) = 0.17500 -0.11065
#
# Static dielectric constant tensor:
#      x y z
#    x 1.798480 0.000000 0.000000 
#    y 0.000000 1.731280 0.000000 
#    z 0.000000 0.000000 2.778990 
# 
# From -- ./inp_files/3198.got.cif
#   From: 2010.05.17/outbox.cif.g08.bks.cpg/sg63_2_cif.got.tgz:3198.got - 2010.06.03 15:47:04.
