data_PCOD9472281
_publ_section_title
;
Structure prediction by ZEFSAII (Michael W. Deem and Ramdas Pophale) SiO2 
 PCOD9472281
Probable space group: C M C M
;
_chemical_formula_sum "Si O2"
_cell_formula_units_Z 80
_cell_length_a 8.559941
_cell_length_b 28.144326
_cell_length_c 18.742591
_cell_angle_alpha 90.000000
_cell_angle_beta 90.000000
_cell_angle_gamma 90.000000
_cell_volume 4515.348258
_symmetry_space_group_name_H-M "C M C M"
_symmetry_group_IT_number 63
_symmetry_cell_setting 'orthorhombic'
loop_
_space_group_symop_operation_xyz
x,y,z
-x,-y,1/2+z
x,-y,-z
-x,y,1/2-z
-x,-y,-z
x,y,1/2-z
-x,y,z
x,-y,1/2+z
1/2+x,1/2+y,z
1/2-x,1/2-y,1/2+z
1/2+x,1/2-y,-z
1/2-x,1/2+y,1/2-z
1/2-x,1/2-y,-z
1/2+x,1/2+y,1/2-z
1/2-x,1/2+y,z
1/2+x,1/2-y,1/2+z
loop_
_atom_site_type_symbol
_atom_site_label
_atom_site_fract_x
_atom_site_fract_y
_atom_site_fract_z
Si Si1 0.312478 0.300216 0.973892
Si Si2 0.188644 0.944718 0.905265
Si Si3 0.189774 0.153030 0.329362
Si Si4 0.314389 0.895429 0.043545
Si Si5 0.810999 0.956451 0.332578
O O1 0.500000 0.300059 0.974884
O O2 0.259427 0.312314 0.892933
O O3 0.250000 0.250000 0.000000
O O4 0.254611 0.344364 0.021513
O O5 0.230111 0.900400 0.854109
O O6 0.000000 0.945306 0.912646
O O7 0.238081 0.994050 0.869967
O O8 0.258135 0.932391 0.982365
O O9 0.247840 0.163517 0.250000
O O10 0.000000 0.154806 0.327518
O O11 0.500000 0.892879 0.043016
O O12 0.253703 0.914157 0.119118
O O13 0.761977 0.954855 0.250000
O O14 0.000000 0.955278 0.334162
#
# Coordination Sequence:
#
# PCOD9472281 Si02
#       5
#    16  16  16  16  16
#     4  10  20  36  58  79 101 132 171 217 267 319
#     4   9  17  31  53  78 104 136 173 213 258 309
#     4   8  14  27  50  79 104 126 160 208 258 306
#     4  11  22  35  52  75 105 140 176 214 257 311
#     4  10  20  34  53  77 106 141 180 220 260 303
#
# _framework density 17.717348000000001
#
# number of rings (size 3 to 8) (size 9 to 14) (size 15 to 20)
#    0.000    2.400    0.000    4.800    0.000    6.000 
#    0.000    1.000    0.000   23.400    0.000    0.000 
#    0.000    0.000    0.000    0.000    0.000    0.000 
#
# Total GULP energy -223204.744682 kJ/mol
# GULP energy per Si atom -5580.118617 kJ/mol
# Density = 1.767702 g / cm^3
# Si number density = 17.717348 Si / 1000 Ang^3
#
#
#
# Elastic Constant Matrix: (Units=GPa)
#
#
# Indices 1 2 3 4 5 6 
#
# 1 38.8735 31.9436 36.3514 0.0000 0.0000 0.0000
# 2 31.9436 117.0179 94.2662 0.0000 0.0000 0.0000
# 3 36.3514 94.2662 145.2763 0.0000 0.0000 0.0000
# 4 0.0000 0.0000 0.0000 16.2670 0.0000 0.0000
# 5 0.0000 0.0000 0.0000 0.0000 0.4717 0.0000
# 6 0.0000 0.0000 0.0000 0.0000 0.0000 25.2053
#
#
#
# Elastic Compliance Matrix: (Units=1/GPa)
#
#
# Indices 1 2 3 4 5 6 
#
# 1 0.035054 -0.005245 -0.005368 0.000000 0.000000 0.000000
# 2 -0.005245 0.018689 -0.010815 0.000000 0.000000 0.000000
# 3 -0.005368 -0.010815 0.015244 0.000000 0.000000 0.000000
# 4 0.000000 0.000000 0.000000 0.061474 0.000000 0.000000
# 5 0.000000 0.000000 0.000000 0.000000 2.120106 0.000000
# 6 0.000000 0.000000 0.000000 0.000000 0.000000 0.039674
#
#
# Mechanical properties :
#
#
# Convention : Reuss Voigt Hill
#
# Bulk Modulus (GPa) = 38.26662 69.58777 53.92720
# Shear Modulus (GPa) = 2.13510 17.62923 9.88216
#
# Velocity S-wave (km/s) = 1.09896 3.15783 2.36427
# Velocity P-wave (km/s) = 4.82240 7.25656 6.16090
#
# Compressibility (1/GPa) = 0.02613244
#
# Stress axis : x y z
#
# Youngs Moduli (GPa) = 28.52734 53.50608 65.59887
#
# Poissons Ratio (x) = 0.28062 0.35215
# Poissons Ratio (y) = 0.14961 0.70944
# Poissons Ratio (z) = 0.15314 0.57866
#
# Static dielectric constant tensor:
#      x y z
#    x 1.601700 0.000000 0.000000 
#    y 0.000000 1.579290 0.000000 
#    z 0.000000 0.000000 1.611270 
# 
# From -- ./inp_files/40459.got.cif
#   From: 2010.05.17/outbox.cif.g08.bks.cpg/sg63_21_cif.got.tgz:40459.got - 2010.06.03 15:47:04.
