data_PCOD9472774
_publ_section_title
;
Structure prediction by ZEFSAII (Michael W. Deem and Ramdas Pophale) SiO2 
 PCOD9472774
Probable space group: C M C M
;
_chemical_formula_sum "Si O2"
_cell_formula_units_Z 80
_cell_length_a 14.130080
_cell_length_b 14.445915
_cell_length_c 18.693964
_cell_angle_alpha 90.000000
_cell_angle_beta 90.000000
_cell_angle_gamma 90.000000
_cell_volume 3815.848097
_symmetry_space_group_name_H-M "C M C M"
_symmetry_group_IT_number 63
_symmetry_cell_setting 'orthorhombic'
loop_
_space_group_symop_operation_xyz
x,y,z
-x,-y,1/2+z
x,-y,-z
-x,y,1/2-z
-x,-y,-z
x,y,1/2-z
-x,y,z
x,-y,1/2+z
1/2+x,1/2+y,z
1/2-x,1/2-y,1/2+z
1/2+x,1/2-y,-z
1/2-x,1/2+y,1/2-z
1/2-x,1/2-y,-z
1/2+x,1/2+y,1/2-z
1/2-x,1/2+y,z
1/2+x,1/2-y,1/2+z
loop_
_atom_site_type_symbol
_atom_site_label
_atom_site_fract_x
_atom_site_fract_y
_atom_site_fract_z
Si Si1 0.604932 0.726811 0.519813
Si Si2 0.279679 0.178013 0.901223
Si Si3 0.250897 0.627104 0.166925
Si Si4 0.895117 0.954486 0.570135
Si Si5 0.388229 0.995680 0.586401
O O1 0.500000 0.759007 0.540787
O O2 0.667923 0.800518 0.477048
O O3 0.667692 0.678178 0.580852
O O4 0.593230 0.648998 0.459187
O O5 0.285314 0.268122 0.850441
O O6 0.330578 0.083119 0.879735
O O7 0.230972 0.617616 0.250000
O O8 0.332360 0.556635 0.139603
O O9 0.160783 0.596044 0.119269
O O10 0.000000 0.996115 0.580502
O O11 0.847692 0.000000 0.500000
O O12 0.500000 0.001208 0.602724
O O13 0.379067 0.000000 0.500000
#
# Coordination Sequence:
#
# PCOD9472774 Si02
#       5
#    16  16  16  16  16
#     4   9  16  28  52  83 110 141 188 246 303 362
#     4  10  20  35  56  84 121 161 204 251 313 382
#     4  11  24  39  56  85 126 168 210 258 317 387
#     4   9  17  32  56  83 110 145 194 250 305 361
#     4  11  23  41  67  96 125 164 218 275 326 379
#
# _framework density 20.965195999999999
#
# number of rings (size 3 to 8) (size 9 to 14) (size 15 to 20)
#    0.000    2.000    0.000    6.000    0.000    4.800 
#    0.000    0.000    0.000    0.000    0.000    2.800 
#    0.000    0.000    0.000    0.000    0.000    0.000 
#
# Total GULP energy -222791.135242 kJ/mol
# GULP energy per Si atom -5569.778381 kJ/mol
# Density = 2.091748 g / cm^3
# Si number density = 20.965196 Si / 1000 Ang^3
#
#
#
# Elastic Constant Matrix: (Units=GPa)
#
#
# Indices 1 2 3 4 5 6 
#
# 1 122.3303 15.5410 25.8437 0.0000 0.0000 0.0000
# 2 15.5410 86.7499 17.8129 0.0000 0.0000 0.0000
# 3 25.8437 17.8129 102.1330 0.0000 0.0000 0.0000
# 4 0.0000 0.0000 0.0000 20.5788 0.0000 0.0000
# 5 0.0000 0.0000 0.0000 0.0000 11.3368 0.0000
# 6 0.0000 0.0000 0.0000 0.0000 0.0000 23.9531
#
#
#
# Elastic Compliance Matrix: (Units=1/GPa)
#
#
# Indices 1 2 3 4 5 6 
#
# 1 0.008746 -0.001154 -0.002012 0.000000 0.000000 0.000000
# 2 -0.001154 0.012108 -0.001820 0.000000 0.000000 0.000000
# 3 -0.002012 -0.001820 0.010618 0.000000 0.000000 0.000000
# 4 0.000000 0.000000 0.000000 0.048594 0.000000 0.000000
# 5 0.000000 0.000000 0.000000 0.000000 0.088208 0.000000
# 6 0.000000 0.000000 0.000000 0.000000 0.000000 0.041748
#
#
# Mechanical properties :
#
#
# Convention : Reuss Voigt Hill
#
# Bulk Modulus (GPa) = 46.50998 47.73425 47.12212
# Shear Modulus (GPa) = 22.01097 27.97478 24.99287
#
# Velocity S-wave (km/s) = 3.24370 3.65683 3.45644
# Velocity P-wave (km/s) = 6.02174 6.37555 6.20117
#
# Compressibility (1/GPa) = 0.02150076
#
# Stress axis : x y z
#
# Youngs Moduli (GPa) = 114.33534 82.59179 94.18298
#
# Poissons Ratio (x) = 0.09529 0.18949
# Poissons Ratio (y) = 0.13191 0.17139
# Poissons Ratio (z) = 0.23003 0.15030
#
# Static dielectric constant tensor:
#      x y z
#    x 1.831760 0.000000 0.000000 
#    y 0.000000 1.907710 0.000000 
#    z 0.000000 0.000000 1.699680 
# 
# From -- ./inp_files/53991.got.cif
#   From: 2010.05.17/outbox.cif.g08.bks.cpg/sg63_27_cif.got.tgz:53991.got - 2010.06.03 15:47:04.
