data_PCOD9472238
_publ_section_title
;
Structure prediction by ZEFSAII (Michael W. Deem and Ramdas Pophale) SiO2 
 PCOD9472238
Probable space group: C M C M
;
_chemical_formula_sum "Si O2"
_cell_formula_units_Z 96
_cell_length_a 13.665580
_cell_length_b 25.197319
_cell_length_c 14.170355
_cell_angle_alpha 90.000000
_cell_angle_beta 90.000000
_cell_angle_gamma 90.000000
_cell_volume 4879.363056
_symmetry_space_group_name_H-M "C M C M"
_symmetry_group_IT_number 63
_symmetry_cell_setting 'orthorhombic'
loop_
_space_group_symop_operation_xyz
x,y,z
-x,-y,1/2+z
x,-y,-z
-x,y,1/2-z
-x,-y,-z
x,y,1/2-z
-x,y,z
x,-y,1/2+z
1/2+x,1/2+y,z
1/2-x,1/2-y,1/2+z
1/2+x,1/2-y,-z
1/2-x,1/2+y,1/2-z
1/2-x,1/2-y,-z
1/2+x,1/2+y,1/2-z
1/2-x,1/2+y,z
1/2+x,1/2-y,1/2+z
loop_
_atom_site_type_symbol
_atom_site_label
_atom_site_fract_x
_atom_site_fract_y
_atom_site_fract_z
Si Si1 0.387648 0.973544 0.635625
Si Si2 0.299375 0.249303 0.399015
Si Si3 0.500000 0.567296 0.634133
Si Si4 0.000000 0.191518 0.863723
Si Si5 0.288032 0.451312 0.360487
Si Si6 0.388346 0.855660 0.933899
Si Si7 0.174127 0.655598 0.852445
O O1 0.386042 0.969999 0.750000
O O2 0.500000 0.988682 0.610156
O O3 0.364763 0.915922 0.592895
O O4 0.304777 0.015138 0.604580
O O5 0.250000 0.250000 0.500000
O O6 0.403641 0.278512 0.398644
O O7 0.321043 0.187476 0.380778
O O8 0.225420 0.287351 0.344476
O O9 0.500000 0.565391 0.750000
O O10 0.500000 0.629737 0.609062
O O11 0.397365 0.542585 0.599782
O O12 0.000000 0.194078 0.750000
O O13 0.295829 0.465540 0.250000
O O14 0.257455 0.389558 0.363785
O O15 0.500000 0.846277 0.904001
O O16 0.382074 0.847507 0.047806
O O17 0.124939 0.644051 0.750000
#
# Coordination Sequence:
#
# PCOD9472238 Si02
#       7
#    16  16   8   8  16  16  16
#     4   9  19  35  54  78 111 150 188 229 278 335
#     4  10  20  34  52  81 117 146 176 230 292 342
#     4   9  16  28  52  86 112 135 182 245 291 328
#     4  11  18  30  58  89 110 141 195 245 288 341
#     4   9  17  31  52  80 111 142 183 234 284 331
#     4  10  21  36  53  80 113 147 185 225 273 336
#     4  10  20  34  54  80 110 143 180 228 285 335
#
# _framework density 19.674697999999999
#
# number of rings (size 3 to 8) (size 9 to 14) (size 15 to 20)
#    0.000    2.333    2.500    0.500    0.000    3.000 
#    0.000    3.333    0.000    6.000    0.000    0.000 
#    0.000    0.000    0.000    0.000    0.000    0.500 
#
# Total GULP energy -267345.488705 kJ/mol
# GULP energy per Si atom -5569.697681 kJ/mol
# Density = 1.962992 g / cm^3
# Si number density = 19.674698 Si / 1000 Ang^3
#
#
#
# Elastic Constant Matrix: (Units=GPa)
#
#
# Indices 1 2 3 4 5 6 
#
# 1 113.5096 58.8565 16.6826 0.0000 0.0000 0.0000
# 2 58.8565 94.1438 27.2868 0.0000 0.0000 0.0000
# 3 16.6826 27.2868 72.4482 0.0000 0.0000 0.0000
# 4 0.0000 0.0000 0.0000 23.0487 0.0000 0.0000
# 5 0.0000 0.0000 0.0000 0.0000 4.2071 0.0000
# 6 0.0000 0.0000 0.0000 0.0000 0.0000 28.9690
#
#
#
# Elastic Compliance Matrix: (Units=1/GPa)
#
#
# Indices 1 2 3 4 5 6 
#
# 1 0.013036 -0.008172 0.000076 0.000000 0.000000 0.000000
# 2 -0.008172 0.017046 -0.004539 0.000000 0.000000 0.000000
# 3 0.000076 -0.004539 0.015495 0.000000 0.000000 0.000000
# 4 0.000000 0.000000 0.000000 0.043386 0.000000 0.000000
# 5 0.000000 0.000000 0.000000 0.000000 0.237691 0.000000
# 6 0.000000 0.000000 0.000000 0.000000 0.000000 0.034520
#
#
# Mechanical properties :
#
#
# Convention : Reuss Voigt Hill
#
# Bulk Modulus (GPa) = 49.24068 53.97260 51.60664
# Shear Modulus (GPa) = 12.71580 23.06336 17.88958
#
# Velocity S-wave (km/s) = 2.54501 3.42751 3.01868
# Velocity P-wave (km/s) = 5.80670 6.56931 6.19974
#
# Compressibility (1/GPa) = 0.02030841
#
# Stress axis : x y z
#
# Youngs Moduli (GPa) = 76.71181 58.66381 64.53748
#
# Poissons Ratio (x) = 0.47938 -0.00491
# Poissons Ratio (y) = 0.62687 0.29291
# Poissons Ratio (z) = -0.00583 0.26625
#
# Static dielectric constant tensor:
#      x y z
#    x 1.702500 0.000000 0.000000 
#    y 0.000000 1.710890 0.000000 
#    z 0.000000 0.000000 1.697910 
# 
# From -- ./inp_files/32194.got.cif
#   From: 2010.05.17/outbox.cif.g08.bks.cpg/sg63_17_cif.got.tgz:32194.got - 2010.06.03 15:47:04.
