data_PCOD9472400
_publ_section_title
;
Structure prediction by ZEFSAII (Michael W. Deem and Ramdas Pophale) SiO2 
 PCOD9472400
Probable space group: C M C M
;
_chemical_formula_sum "Si O2"
_cell_formula_units_Z 80
_cell_length_a 27.100730
_cell_length_b 8.683183
_cell_length_c 15.874710
_cell_angle_alpha 90.000000
_cell_angle_beta 90.000000
_cell_angle_gamma 90.000000
_cell_volume 3735.646251
_symmetry_space_group_name_H-M "C M C M"
_symmetry_group_IT_number 63
_symmetry_cell_setting 'orthorhombic'
loop_
_space_group_symop_operation_xyz
x,y,z
-x,-y,1/2+z
x,-y,-z
-x,y,1/2-z
-x,-y,-z
x,y,1/2-z
-x,y,z
x,-y,1/2+z
1/2+x,1/2+y,z
1/2-x,1/2-y,1/2+z
1/2+x,1/2-y,-z
1/2-x,1/2+y,1/2-z
1/2-x,1/2-y,-z
1/2+x,1/2+y,1/2-z
1/2-x,1/2+y,z
1/2+x,1/2-y,1/2+z
loop_
_atom_site_type_symbol
_atom_site_label
_atom_site_fract_x
_atom_site_fract_y
_atom_site_fract_z
Si Si1 0.112685 0.801197 0.111223
Si Si2 0.684159 0.442323 0.595668
Si Si3 0.643487 0.138163 0.554034
Si Si4 0.247277 0.073928 0.750000
Si Si5 0.817862 0.655453 0.250000
Si Si6 0.945415 0.468870 0.849063
O O1 0.152084 0.709799 0.169382
O O2 0.063041 0.715924 0.139569
O O3 0.130996 0.976448 0.118354
O O4 0.119571 0.751066 0.015457
O O5 0.696642 0.500000 0.500000
O O6 0.679603 0.257621 0.599536
O O7 0.721647 0.507449 0.664991
O O8 0.668189 0.000000 0.500000
O O9 0.598614 0.060031 0.604732
O O10 0.303687 0.021280 0.750000
O O11 0.232997 0.251394 0.750000
O O12 0.942341 0.501654 0.750000
O O13 0.000000 0.510933 0.880245
#
# Coordination Sequence:
#
# PCOD9472400 Si02
#       6
#    16  16  16   8   8  16
#     4   9  18  36  56  73 109 147 184 230 271 338
#     4   9  19  38  58  84 114 150 195 231 282 335
#     4   9  19  33  55  82 109 146 181 227 280 328
#     4  10  22  36  60  83 114 152 184 245 280 334
#     4  10  20  36  53  81 110 142 193 229 286 332
#     4  10  20  34  54  82 114 145 185 235 282 334
#
# _framework density 21.415303999999999
#
# number of rings (size 3 to 8) (size 9 to 14) (size 15 to 20)
#    0.000    2.600    1.000    0.000    1.400    6.800 
#    0.000   13.000    0.000    9.600    0.000    0.000 
#    0.000    0.000    0.000    0.000    0.000    0.000 
#
# Total GULP energy -222809.510418 kJ/mol
# GULP energy per Si atom -5570.237760 kJ/mol
# Density = 2.136656 g / cm^3
# Si number density = 21.415304 Si / 1000 Ang^3
#
#
#
# Elastic Constant Matrix: (Units=GPa)
#
#
# Indices 1 2 3 4 5 6 
#
# 1 41.7235 19.2793 19.5032 0.0000 0.0000 0.0000
# 2 19.2793 99.4470 17.2735 0.0000 0.0000 0.0000
# 3 19.5032 17.2735 92.0165 0.0000 0.0000 0.0000
# 4 0.0000 0.0000 0.0000 13.0626 0.0000 0.0000
# 5 0.0000 0.0000 0.0000 0.0000 11.6841 0.0000
# 6 0.0000 0.0000 0.0000 0.0000 0.0000 22.6324
#
#
#
# Elastic Compliance Matrix: (Units=1/GPa)
#
#
# Indices 1 2 3 4 5 6 
#
# 1 0.028527 -0.004631 -0.005177 0.000000 0.000000 0.000000
# 2 -0.004631 0.011146 -0.001111 0.000000 0.000000 0.000000
# 3 -0.005177 -0.001111 0.012173 0.000000 0.000000 0.000000
# 4 0.000000 0.000000 0.000000 0.076555 0.000000 0.000000
# 5 0.000000 0.000000 0.000000 0.000000 0.085587 0.000000
# 6 0.000000 0.000000 0.000000 0.000000 0.000000 0.044184
#
#
# Mechanical properties :
#
#
# Convention : Reuss Voigt Hill
#
# Bulk Modulus (GPa) = 33.32347 38.36654 35.84500
# Shear Modulus (GPa) = 17.24056 21.28454 19.26255
#
# Velocity S-wave (km/s) = 2.84043 3.15603 3.00238
# Velocity P-wave (km/s) = 5.13340 5.58883 5.36595
#
# Compressibility (1/GPa) = 0.03000888
#
# Stress axis : x y z
#
# Youngs Moduli (GPa) = 35.05425 89.71524 82.14609
#
# Poissons Ratio (x) = 0.41549 0.42528
# Poissons Ratio (y) = 0.16234 0.09125
# Poissons Ratio (z) = 0.18148 0.09966
#
# Static dielectric constant tensor:
#      x y z
#    x 1.799300 0.000000 0.000000 
#    y 0.000000 1.835640 0.000000 
#    z 0.000000 0.000000 1.812340 
# 
# From -- ./inp_files/49456.got.cif
#   From: 2010.05.17/outbox.cif.g08.bks.cpg/sg63_25_cif.got.tgz:49456.got - 2010.06.03 15:47:04.
