data_PCOD9472759
_publ_section_title
;
Structure prediction by ZEFSAII (Michael W. Deem and Ramdas Pophale) SiO2 
 PCOD9472759
Probable space group: C M C M
;
_chemical_formula_sum "Si O2"
_cell_formula_units_Z 116
_cell_length_a 23.827326
_cell_length_b 25.696895
_cell_length_c 9.906116
_cell_angle_alpha 90.000000
_cell_angle_beta 90.000000
_cell_angle_gamma 90.000000
_cell_volume 6065.398869
_symmetry_space_group_name_H-M "C M C M"
_symmetry_group_IT_number 63
_symmetry_cell_setting 'orthorhombic'
loop_
_space_group_symop_operation_xyz
x,y,z
-x,-y,1/2+z
x,-y,-z
-x,y,1/2-z
-x,-y,-z
x,y,1/2-z
-x,y,z
x,-y,1/2+z
1/2+x,1/2+y,z
1/2-x,1/2-y,1/2+z
1/2+x,1/2-y,-z
1/2-x,1/2+y,1/2-z
1/2-x,1/2-y,-z
1/2+x,1/2+y,1/2-z
1/2-x,1/2+y,z
1/2+x,1/2-y,1/2+z
loop_
_atom_site_type_symbol
_atom_site_label
_atom_site_fract_x
_atom_site_fract_y
_atom_site_fract_z
Si Si1 0.596806 0.267176 0.526993
Si Si2 0.729740 0.451088 0.091252
Si Si3 0.711777 0.220986 0.896067
Si Si4 0.626742 0.625352 0.594989
Si Si5 0.565613 0.845520 0.590866
Si Si6 0.932601 0.952160 0.596035
Si Si7 0.838902 0.609663 0.589852
Si Si8 0.000000 0.787382 0.750000
O O1 0.652189 0.249429 0.605881
O O2 0.617836 0.313605 0.430067
O O3 0.576560 0.214814 0.450081
O O4 0.549028 0.284850 0.630926
O O5 0.726805 0.464545 0.250000
O O6 0.687749 0.401641 0.073645
O O7 0.794101 0.435331 0.059320
O O8 0.713004 0.500000 0.000000
O O9 0.739496 0.221416 0.750000
O O10 0.697149 0.162103 0.931804
O O11 0.750000 0.250000 0.000000
O O12 0.610365 0.612817 0.750000
O O13 0.588442 0.598082 0.482469
O O14 0.576986 0.851984 0.750000
O O15 0.500000 0.856679 0.565001
O O16 0.606401 0.882013 0.501698
O O17 0.911408 0.956391 0.750000
O O18 0.000000 0.951154 0.603001
O O19 0.916327 0.000000 0.500000
O O20 0.853452 0.607733 0.750000
#
# Coordination Sequence:
#
# PCOD9472759 Si02
#       8
#    16  16  16  16  16  16  16   4
#     4  11  23  38  59  83 122 165 208 250 296 350
#     4  10  22  42  63  88 117 153 194 249 309 369
#     4  10  20  35  56  83 115 154 196 242 295 356
#     4  11  24  39  58  82 115 151 196 245 303 354
#     4  10  21  36  58  90 126 158 196 240 289 344
#     4  10  22  38  56  75 101 135 183 240 298 355
#     4   9  20  37  59  83 114 154 196 235 291 358
#     4  12  24  40  58  84 126 164 226 254 296 360
#
# _framework density 19.124876
#
# number of rings (size 3 to 8) (size 9 to 14) (size 15 to 20)
#    0.000    1.793    1.379    2.069    2.897    7.172 
#    0.000    0.000    0.000    0.414    0.000    0.000 
#    0.000    0.000    0.000    0.000    0.000    0.000 
#
# Total GULP energy -323039.326329 kJ/mol
# GULP energy per Si atom -5569.643557 kJ/mol
# Density = 1.908135 g / cm^3
# Si number density = 19.124876 Si / 1000 Ang^3
#
#
#
# Elastic Constant Matrix: (Units=GPa)
#
#
# Indices 1 2 3 4 5 6 
#
# 1 109.3503 32.8083 58.8507 0.0000 0.0000 0.0000
# 2 32.8083 39.8519 24.5725 0.0000 0.0000 0.0000
# 3 58.8507 24.5725 96.2605 0.0000 0.0000 0.0000
# 4 0.0000 0.0000 0.0000 8.2850 0.0000 0.0000
# 5 0.0000 0.0000 0.0000 0.0000 28.4378 0.0000
# 6 0.0000 0.0000 0.0000 0.0000 0.0000 21.9562
#
#
#
# Elastic Compliance Matrix: (Units=1/GPa)
#
#
# Indices 1 2 3 4 5 6 
#
# 1 0.015637 -0.008282 -0.007446 0.000000 0.000000 0.000000
# 2 -0.008282 0.034167 -0.003658 0.000000 0.000000 0.000000
# 3 -0.007446 -0.003658 0.015874 0.000000 0.000000 0.000000
# 4 0.000000 0.000000 0.000000 0.120700 0.000000 0.000000
# 5 0.000000 0.000000 0.000000 0.000000 0.035164 0.000000
# 6 0.000000 0.000000 0.000000 0.000000 0.000000 0.045545
#
#
# Mechanical properties :
#
#
# Convention : Reuss Voigt Hill
#
# Bulk Modulus (GPa) = 37.16672 53.10287 45.13480
# Shear Modulus (GPa) = 15.88161 20.35123 18.11642
#
# Velocity S-wave (km/s) = 2.88482 3.26563 3.08111
# Velocity P-wave (km/s) = 5.52921 6.48427 6.02569
#
# Compressibility (1/GPa) = 0.02690579
#
# Stress axis : x y z
#
# Youngs Moduli (GPa) = 63.95068 29.26798 62.99426
#
# Poissons Ratio (x) = 0.24240 0.46904
# Poissons Ratio (y) = 0.52966 0.23045
# Poissons Ratio (z) = 0.47616 0.10707
#
# Static dielectric constant tensor:
#      x y z
#    x 1.675090 0.000000 0.000000 
#    y 0.000000 1.692020 0.000000 
#    z 0.000000 0.000000 1.637660 
# 
# From -- ./inp_files/10940.got.cif
#   From: 2010.05.17/outbox.cif.g08.bks.cpg/sg63_6_cif.got.tgz:10940.got - 2010.06.03 15:47:04.
