data_PCOD9472953
_publ_section_title
;
Structure prediction by ZEFSAII (Michael W. Deem and Ramdas Pophale) SiO2 
 PCOD9472953
Probable space group: C M C M
;
_chemical_formula_sum "Si O2"
_cell_formula_units_Z 84
_cell_length_a 19.574356
_cell_length_b 8.302953
_cell_length_c 23.443873
_cell_angle_alpha 90.000000
_cell_angle_beta 90.000000
_cell_angle_gamma 90.000000
_cell_volume 3810.214472
_symmetry_space_group_name_H-M "C M C M"
_symmetry_group_IT_number 63
_symmetry_cell_setting 'orthorhombic'
loop_
_space_group_symop_operation_xyz
x,y,z
-x,-y,1/2+z
x,-y,-z
-x,y,1/2-z
-x,-y,-z
x,y,1/2-z
-x,y,z
x,-y,1/2+z
1/2+x,1/2+y,z
1/2-x,1/2-y,1/2+z
1/2+x,1/2-y,-z
1/2-x,1/2+y,1/2-z
1/2-x,1/2-y,-z
1/2+x,1/2+y,1/2-z
1/2-x,1/2+y,z
1/2+x,1/2-y,1/2+z
loop_
_atom_site_type_symbol
_atom_site_label
_atom_site_fract_x
_atom_site_fract_y
_atom_site_fract_z
Si Si1 0.766682 0.113237 0.045331
Si Si2 0.083612 0.865699 0.750000
Si Si3 0.140182 0.496190 0.250000
Si Si4 0.865481 0.002531 0.867744
Si Si5 0.000000 0.351471 0.873853
Si Si6 0.846965 0.389660 0.870603
Si Si7 0.500000 0.543879 0.935676
Si Si8 0.500000 0.200126 0.250000
O O1 0.811904 0.117797 0.102156
O O2 0.695613 0.054451 0.074312
O O3 0.750000 0.250000 0.000000
O O4 0.805018 0.000000 0.000000
O O5 0.113550 0.685580 0.750000
O O6 0.114393 0.955664 0.695588
O O7 0.000000 0.866074 0.750000
O O8 0.177675 0.542248 0.309247
O O9 0.070604 0.602187 0.250000
O O10 0.933300 0.982891 0.904442
O O11 0.843578 0.192368 0.870653
O O12 0.927263 0.439232 0.873764
O O13 0.000000 0.237956 0.815653
O O14 0.000000 0.235874 0.927501
O O15 0.500000 0.500000 0.000000
#
# Coordination Sequence:
#
# PCOD9472953 Si02
#       8
#    16   8   8  16   8  16   8   4
#     4  12  26  46  68  96 140 186 234 282 343 410
#     4  12  25  43  67 110 141 174 221 293 364 410
#     4  10  21  38  66  96 138 164 218 277 350 402
#     4  11  24  44  69  98 137 182 235 282 343 421
#     4   8  18  34  62  95 121 166 224 272 328 391
#     4  10  22  43  68  98 131 184 228 282 336 416
#     4  10  20  35  63  94 128 170 226 278 329 398
#     4   8  14  34  56  86 128 162 192 262 330 390
#
# _framework density 22.046004
#
# number of rings (size 3 to 8) (size 9 to 14) (size 15 to 20)
#    0.000    1.524    3.333    1.143    5.333    3.048 
#    1.714    0.476    0.000    0.000    0.000    0.000 
#    0.000    0.000    0.000    0.000    0.000    0.000 
#
# Total GULP energy -233986.956440 kJ/mol
# GULP energy per Si atom -5571.118010 kJ/mol
# Density = 2.199583 g / cm^3
# Si number density = 22.046004 Si / 1000 Ang^3
#
#
#
# Elastic Constant Matrix: (Units=GPa)
#
#
# Indices 1 2 3 4 5 6 
#
# 1 75.6950 -5.4655 38.8772 0.0000 0.0000 0.0000
# 2 -5.4655 37.5811 12.1159 0.0000 0.0000 0.0000
# 3 38.8772 12.1159 179.7496 0.0000 0.0000 0.0000
# 4 0.0000 0.0000 0.0000 28.9832 0.0000 0.0000
# 5 0.0000 0.0000 0.0000 0.0000 38.0214 0.0000
# 6 0.0000 0.0000 0.0000 0.0000 0.0000 15.1170
#
#
#
# Elastic Compliance Matrix: (Units=1/GPa)
#
#
# Indices 1 2 3 4 5 6 
#
# 1 0.015265 0.003357 -0.003528 0.000000 0.000000 0.000000
# 2 0.003357 0.027939 -0.002609 0.000000 0.000000 0.000000
# 3 -0.003528 -0.002609 0.006502 0.000000 0.000000 0.000000
# 4 0.000000 0.000000 0.000000 0.034503 0.000000 0.000000
# 5 0.000000 0.000000 0.000000 0.000000 0.026301 0.000000
# 6 0.000000 0.000000 0.000000 0.000000 0.000000 0.066151
#
#
# Mechanical properties :
#
#
# Convention : Reuss Voigt Hill
#
# Bulk Modulus (GPa) = 22.65187 42.67567 32.66377
# Shear Modulus (GPa) = 25.38900 32.92421 29.15661
#
# Velocity S-wave (km/s) = 3.39726 3.86869 3.64061
# Velocity P-wave (km/s) = 5.06810 6.27337 5.70267
#
# Compressibility (1/GPa) = 0.04414646
#
# Stress axis : x y z
#
# Youngs Moduli (GPa) = 65.50797 35.79269 153.79350
#
# Poissons Ratio (x) = -0.12017 0.54258
# Poissons Ratio (y) = -0.21994 0.40130
# Poissons Ratio (z) = 0.23111 0.09340
#
# Static dielectric constant tensor:
#      x y z
#    x 1.876720 0.000000 0.000000 
#    y 0.000000 1.835740 0.000000 
#    z 0.000000 0.000000 1.845160 
# 
# From -- ./inp_files/64378.got.cif
#   From: 2010.05.17/outbox.cif.g08.bks.cpg/sg63_33_cif.got.tgz:64378.got - 2010.06.03 15:47:04.
