data_PCOD9472046
_publ_section_title
;
Structure prediction by ZEFSAII (Michael W. Deem and Ramdas Pophale) SiO2 
 PCOD9472046
Probable space group: C M C M
;
_chemical_formula_sum "Si O2"
_cell_formula_units_Z 112
_cell_length_a 33.699449
_cell_length_b 5.135890
_cell_length_c 30.208320
_cell_angle_alpha 90.000000
_cell_angle_beta 90.000000
_cell_angle_gamma 90.000000
_cell_volume 5228.355224
_symmetry_space_group_name_H-M "C M C M"
_symmetry_group_IT_number 63
_symmetry_cell_setting 'orthorhombic'
loop_
_space_group_symop_operation_xyz
x,y,z
-x,-y,1/2+z
x,-y,-z
-x,y,1/2-z
-x,-y,-z
x,y,1/2-z
-x,y,z
x,-y,1/2+z
1/2+x,1/2+y,z
1/2-x,1/2-y,1/2+z
1/2+x,1/2-y,-z
1/2-x,1/2+y,1/2-z
1/2-x,1/2-y,-z
1/2+x,1/2+y,1/2-z
1/2-x,1/2+y,z
1/2+x,1/2-y,1/2+z
loop_
_atom_site_type_symbol
_atom_site_label
_atom_site_fract_x
_atom_site_fract_y
_atom_site_fract_z
Si Si1 0.193576 0.230376 0.472051
Si Si2 0.141529 0.761151 0.663361
Si Si3 0.774058 0.345021 0.374954
Si Si4 0.545629 0.214214 0.116127
Si Si5 0.887191 0.922351 0.571073
Si Si6 0.598730 0.771355 0.800707
Si Si7 0.040762 0.692899 0.959614
O O1 0.185224 0.500000 0.500000
O O2 0.215189 0.315405 0.426909
O O3 0.155266 0.065476 0.452795
O O4 0.215146 0.000000 0.500000
O O5 0.188082 0.736169 0.654216
O O6 0.122485 0.746732 0.614070
O O7 0.124831 0.528811 0.692543
O O8 0.125936 0.030446 0.683485
O O9 0.760937 0.639502 0.366128
O O10 0.500000 0.320071 0.116671
O O11 0.582254 0.361457 0.090937
O O12 0.561573 0.199102 0.166002
O O13 0.541986 0.951012 0.087674
O O14 0.916192 0.805450 0.535050
O O15 0.586824 0.737080 0.750000
O O16 0.000000 0.856569 0.959822
O O17 0.037259 0.500000 0.000000
#
# Coordination Sequence:
#
# PCOD9472046 Si02
#       7
#    16  16  16  16  16  16  16
#     4  11  25  38  58  90 125 168 221 270 312 363
#     4  10  22  41  65  93 125 159 205 249 310 380
#     4  11  23  41  67  93 127 169 207 251 319 385
#     4  10  22  38  58  87 125 166 214 270 324 374
#     4  10  21  35  57  79 121 164 216 256 311 360
#     4  11  22  41  68  95 125 164 206 260 320 385
#     4  10  20  33  52  80 117 163 211 259 313 360
#
# _framework density 21.421648999999999
#
# number of rings (size 3 to 8) (size 9 to 14) (size 15 to 20)
#    0.000    1.571    1.429    3.000    4.000    4.286 
#    0.000    2.143    0.000   10.286    0.000    0.000 
#    0.000    0.000    0.000    0.000    0.000    0.000 
#
# Total GULP energy -312008.738845 kJ/mol
# GULP energy per Si atom -5571.584622 kJ/mol
# Density = 2.137289 g / cm^3
# Si number density = 21.421649 Si / 1000 Ang^3
#
#
#
# Elastic Constant Matrix: (Units=GPa)
#
#
# Indices 1 2 3 4 5 6 
#
# 1 80.8555 6.3445 15.9684 0.0000 0.0000 0.0000
# 2 6.3445 58.3810 12.0518 0.0000 0.0000 0.0000
# 3 15.9684 12.0518 109.6384 0.0000 0.0000 0.0000
# 4 0.0000 0.0000 0.0000 -24.0618 0.0000 0.0000
# 5 0.0000 0.0000 0.0000 0.0000 17.7727 0.0000
# 6 0.0000 0.0000 0.0000 0.0000 0.0000 25.5972
#
#
#
# Elastic Compliance Matrix: (Units=1/GPa)
#
#
# Indices 1 2 3 4 5 6 
#
# 1 0.012794 -0.001029 -0.001750 0.000000 0.000000 0.000000
# 2 -0.001029 0.017609 -0.001786 0.000000 0.000000 0.000000
# 3 -0.001750 -0.001786 0.009572 0.000000 0.000000 0.000000
# 4 0.000000 0.000000 0.000000 -0.041560 0.000000 0.000000
# 5 0.000000 0.000000 0.000000 0.000000 0.056266 0.000000
# 6 0.000000 0.000000 0.000000 0.000000 0.000000 0.039067
#
#
# Mechanical properties :
#
#
# Convention : Reuss Voigt Hill
#
# Bulk Modulus (GPa) = 32.41985 35.28935 33.85460
# Shear Modulus (GPa) = 44.18489 18.16230 31.17360
#
# Velocity S-wave (km/s) = 4.54654 2.91494 3.81890
# Velocity P-wave (km/s) = 6.53670 5.27623 5.93999
#
# Compressibility (1/GPa) = 0.03084530
#
# Stress axis : x y z
#
# Youngs Moduli (GPa) = 78.16069 56.78802 104.47007
#
# Poissons Ratio (x) = 0.05844 0.18285
# Poissons Ratio (y) = 0.08043 0.18656
# Poissons Ratio (z) = 0.13680 0.10141
#
# Static dielectric constant tensor:
#      x y z
#    x 1.802110 0.000000 0.000000 
#    y 0.000000 1.808340 0.000000 
#    z 0.000000 0.000000 1.769440 
# 
# From -- ./inp_files/74508.got.cif
#   From: 2010.05.17/outbox.cif.g08.bks.cpg/sg63_38_cif.got.tgz:74508.got - 2010.06.03 15:47:04.
