data_PCOD9472055
_publ_section_title
;
Structure prediction by ZEFSAII (Michael W. Deem and Ramdas Pophale) SiO2 
 PCOD9472055
Probable space group: C M C M
;
_chemical_formula_sum "Si O2"
_cell_formula_units_Z 80
_cell_length_a 8.993383
_cell_length_b 20.583010
_cell_length_c 23.570643
_cell_angle_alpha 90.000000
_cell_angle_beta 90.000000
_cell_angle_gamma 90.000000
_cell_volume 4363.182756
_symmetry_space_group_name_H-M "C M C M"
_symmetry_group_IT_number 63
_symmetry_cell_setting 'orthorhombic'
loop_
_space_group_symop_operation_xyz
x,y,z
-x,-y,1/2+z
x,-y,-z
-x,y,1/2-z
-x,-y,-z
x,y,1/2-z
-x,y,z
x,-y,1/2+z
1/2+x,1/2+y,z
1/2-x,1/2-y,1/2+z
1/2+x,1/2-y,-z
1/2-x,1/2+y,1/2-z
1/2-x,1/2-y,-z
1/2+x,1/2+y,1/2-z
1/2-x,1/2+y,z
1/2+x,1/2-y,1/2+z
loop_
_atom_site_type_symbol
_atom_site_label
_atom_site_fract_x
_atom_site_fract_y
_atom_site_fract_z
Si Si1 0.173952 0.503460 0.567788
Si Si2 0.168075 0.116295 0.131263
Si Si3 0.841665 0.044893 0.250000
Si Si4 0.821245 0.258517 0.682035
Si Si5 0.177579 0.883077 0.137078
Si Si6 0.168120 0.431380 0.250000
O O1 0.184190 0.500000 0.500000
O O2 0.251254 0.439269 0.594187
O O3 0.248981 0.570279 0.590039
O O4 0.000000 0.504170 0.584640
O O5 0.154878 0.085725 0.193538
O O6 0.254317 0.182553 0.145447
O O7 0.000000 0.128158 0.109410
O O8 0.000000 0.005842 0.250000
O O9 0.685257 0.008373 0.250000
O O10 0.772811 0.255929 0.750000
O O11 0.785487 0.192928 0.646542
O O12 0.000000 0.264068 0.684270
O O13 0.241111 0.911357 0.195292
O O14 0.000000 0.889134 0.132828
O O15 0.000000 0.408036 0.250000
#
# Coordination Sequence:
#
# PCOD9472055 Si02
#       6
#    16  16   8  16  16   8
#     4  11  25  44  64  87 116 155 207 260 306 355
#     4  11  22  37  60  89 123 158 197 243 296 360
#     4  10  20  33  52  85 123 155 189 241 298 355
#     4  10  21  37  58  88 128 164 193 235 297 362
#     4  11  22  39  61  88 123 160 201 246 299 357
#     4  12  22  31  54  89 123 159 195 241 302 359
#
# _framework density 18.335239000000001
#
# number of rings (size 3 to 8) (size 9 to 14) (size 15 to 20)
#    0.000    1.200    4.000    2.700    0.000    4.000 
#    0.000    1.000    0.000    0.000    0.000    0.000 
#    0.000    0.000    0.000    0.000    0.000    0.000 
#
# Total GULP energy -222800.465026 kJ/mol
# GULP energy per Si atom -5570.011626 kJ/mol
# Density = 1.829351 g / cm^3
# Si number density = 18.335239 Si / 1000 Ang^3
#
#
#
# Elastic Constant Matrix: (Units=GPa)
#
#
# Indices 1 2 3 4 5 6 
#
# 1 81.9017 70.4866 36.9734 0.0000 0.0000 0.0000
# 2 70.4866 141.4302 45.9299 0.0000 0.0000 0.0000
# 3 36.9734 45.9299 68.4240 0.0000 0.0000 0.0000
# 4 0.0000 0.0000 0.0000 -48.4252 0.0000 0.0000
# 5 0.0000 0.0000 0.0000 0.0000 37.7232 0.0000
# 6 0.0000 0.0000 0.0000 0.0000 0.0000 30.4365
#
#
#
# Elastic Compliance Matrix: (Units=1/GPa)
#
#
# Indices 1 2 3 4 5 6 
#
# 1 0.023220 -0.009588 -0.006111 0.000000 0.000000 0.000000
# 2 -0.009588 0.013001 -0.003546 0.000000 0.000000 0.000000
# 3 -0.006111 -0.003546 0.020297 0.000000 0.000000 0.000000
# 4 0.000000 0.000000 0.000000 -0.020650 0.000000 0.000000
# 5 0.000000 0.000000 0.000000 0.000000 0.026509 0.000000
# 6 0.000000 0.000000 0.000000 0.000000 0.000000 0.032855
#
#
# Mechanical properties :
#
#
# Convention : Reuss Voigt Hill
#
# Bulk Modulus (GPa) = 55.46939 66.50399 60.98669
# Shear Modulus (GPa) = 35.78302 13.17129 24.47716
#
# Velocity S-wave (km/s) = 4.42248 2.68313 3.65770
# Velocity P-wave (km/s) = 7.50975 6.77855 7.15350
#
# Compressibility (1/GPa) = 0.01802796
#
# Stress axis : x y z
#
# Youngs Moduli (GPa) = 43.06596 76.91944 49.26799
#
# Poissons Ratio (x) = 0.73750 0.30109
# Poissons Ratio (y) = 0.41291 0.17470
# Poissons Ratio (z) = 0.26319 0.27274
#
# Static dielectric constant tensor:
#      x y z
#    x 1.690320 0.000000 0.000000 
#    y 0.000000 1.709820 0.000000 
#    z 0.000000 0.000000 1.614010 
# 
# From -- ./inp_files/59560.got.cif
#   From: 2010.05.17/outbox.cif.g08.bks.cpg/sg63_30_cif.got.tgz:59560.got - 2010.06.03 15:47:04.
