data_PCOD9472931
_publ_section_title
;
Structure prediction by ZEFSAII (Michael W. Deem and Ramdas Pophale) SiO2 
 PCOD9472931
Probable space group: C M C M
;
_chemical_formula_sum "Si O2"
_cell_formula_units_Z 120
_cell_length_a 15.550005
_cell_length_b 19.572814
_cell_length_c 18.186188
_cell_angle_alpha 90.000000
_cell_angle_beta 90.000000
_cell_angle_gamma 90.000000
_cell_volume 5535.100087
_symmetry_space_group_name_H-M "C M C M"
_symmetry_group_IT_number 63
_symmetry_cell_setting 'orthorhombic'
loop_
_space_group_symop_operation_xyz
x,y,z
-x,-y,1/2+z
x,-y,-z
-x,y,1/2-z
-x,-y,-z
x,y,1/2-z
-x,y,z
x,-y,1/2+z
1/2+x,1/2+y,z
1/2-x,1/2-y,1/2+z
1/2+x,1/2-y,-z
1/2-x,1/2+y,1/2-z
1/2-x,1/2-y,-z
1/2+x,1/2+y,1/2-z
1/2-x,1/2+y,z
1/2+x,1/2-y,1/2+z
loop_
_atom_site_type_symbol
_atom_site_label
_atom_site_fract_x
_atom_site_fract_y
_atom_site_fract_z
Si Si1 0.341169 0.094521 0.040736
Si Si2 0.902144 0.905651 0.640058
Si Si3 0.395369 0.750171 0.168961
Si Si4 0.895062 0.733740 0.997553
Si Si5 0.500000 0.932709 0.069498
Si Si6 0.349341 0.983309 0.166608
Si Si7 0.340132 0.552200 0.828549
Si Si8 0.153715 0.112151 0.980147
O O1 0.338449 0.048946 0.113416
O O2 0.357191 0.175187 0.049163
O O3 0.424260 0.072665 0.993976
O O4 0.250955 0.087719 0.997946
O O5 0.869858 0.830215 0.661741
O O6 0.898699 0.910537 0.551783
O O7 0.000000 0.909822 0.665022
O O8 0.853186 0.970656 0.669973
O O9 0.366638 0.775658 0.250000
O O10 0.500000 0.752445 0.169437
O O11 0.372445 0.781527 0.088924
O O12 0.000000 0.735367 0.000951
O O13 0.855795 0.806190 0.018950
O O14 0.425657 0.940075 0.132489
O O15 0.367063 0.004783 0.250000
O O16 0.262280 0.939388 0.167292
O O17 0.372847 0.578612 0.750000
O O18 0.377710 0.583314 0.902729
#
# Coordination Sequence:
#
# PCOD9472931 Si02
#       8
#    16  16  16  16   8  16  16  16
#     4  12  22  41  67  93 121 169 213 260 314 380
#     4  10  20  35  60  89 119 161 212 257 310 380
#     4   8  15  31  53  81 118 154 195 256 308 351
#     4  10  22  39  60  90 122 167 221 258 303 378
#     4  12  24  40  71  96 123 160 206 258 320 380
#     4  11  24  42  64  98 132 159 204 265 323 379
#     4  11  23  38  59  90 128 164 199 256 321 374
#     4  11  22  39  62  86 125 164 211 261 314 371
#
# _framework density 21.679824
#
# number of rings (size 3 to 8) (size 9 to 14) (size 15 to 20)
#    0.000    1.467    3.333    3.800    0.000    2.400 
#    0.000    2.667    0.000    0.800    0.000    0.000 
#    0.000    0.000    0.000    0.000    0.000    0.000 
#
# Total GULP energy -334132.738916 kJ/mol
# GULP energy per Si atom -5568.878982 kJ/mol
# Density = 2.163048 g / cm^3
# Si number density = 21.679824 Si / 1000 Ang^3
#
#
#
# Elastic Constant Matrix: (Units=GPa)
#
#
# Indices 1 2 3 4 5 6 
#
# 1 54.0824 -9.9251 -10.7000 0.0000 0.0000 0.0000
# 2 -9.9251 42.5545 4.5044 0.0000 0.0000 0.0000
# 3 -10.7000 4.5044 134.6735 0.0000 0.0000 0.0000
# 4 0.0000 0.0000 0.0000 3.5612 0.0000 0.0000
# 5 0.0000 0.0000 0.0000 0.0000 -13.4274 0.0000
# 6 0.0000 0.0000 0.0000 0.0000 0.0000 -35.3643
#
#
#
# Elastic Compliance Matrix: (Units=1/GPa)
#
#
# Indices 1 2 3 4 5 6 
#
# 1 0.019580 0.004418 0.001408 0.000000 0.000000 0.000000
# 2 0.004418 0.024579 -0.000471 0.000000 0.000000 0.000000
# 3 0.001408 -0.000471 0.007553 0.000000 0.000000 0.000000
# 4 0.000000 0.000000 0.000000 0.280802 0.000000 0.000000
# 5 0.000000 0.000000 0.000000 0.000000 -0.074475 0.000000
# 6 0.000000 0.000000 0.000000 0.000000 0.000000 -0.028277
#
#
# Mechanical properties :
#
#
# Convention : Reuss Voigt Hill
#
# Bulk Modulus (GPa) = 16.02037 22.11880 19.06958
# Shear Modulus (GPa) = 20.84546 7.44932 14.14739
#
# Velocity S-wave (km/s) = 3.10419 1.85567 2.55730
# Velocity P-wave (km/s) = 4.50040 3.84915 4.18746
#
# Compressibility (1/GPa) = 0.06242053
#
# Stress axis : x y z
#
# Youngs Moduli (GPa) = 51.07371 40.68443 132.39812
#
# Poissons Ratio (x) = -0.17973 -0.18640
# Poissons Ratio (y) = -0.22562 0.06238
# Poissons Ratio (z) = -0.07190 0.01917
#
# Static dielectric constant tensor:
#      x y z
#    x 1.778170 0.000000 0.000000 
#    y 0.000000 1.884420 0.000000 
#    z 0.000000 0.000000 1.808170 
# 
# From -- ./inp_files/46149.got.cif
#   From: 2010.05.17/outbox.cif.g08.bks.cpg/sg63_24_cif.got.tgz:46149.got - 2010.06.03 15:47:04.
