data_PCOD9472362
_publ_section_title
;
Structure prediction by ZEFSAII (Michael W. Deem and Ramdas Pophale) SiO2 
 PCOD9472362
Probable space group: C M C M
;
_chemical_formula_sum "Si O2"
_cell_formula_units_Z 64
_cell_length_a 27.170342
_cell_length_b 11.380520
_cell_length_c 8.784339
_cell_angle_alpha 90.000000
_cell_angle_beta 90.000000
_cell_angle_gamma 90.000000
_cell_volume 2716.228482
_symmetry_space_group_name_H-M "C M C M"
_symmetry_group_IT_number 63
_symmetry_cell_setting 'orthorhombic'
loop_
_space_group_symop_operation_xyz
x,y,z
-x,-y,1/2+z
x,-y,-z
-x,y,1/2-z
-x,-y,-z
x,y,1/2-z
-x,y,z
x,-y,1/2+z
1/2+x,1/2+y,z
1/2-x,1/2-y,1/2+z
1/2+x,1/2-y,-z
1/2-x,1/2+y,1/2-z
1/2-x,1/2-y,-z
1/2+x,1/2+y,1/2-z
1/2-x,1/2+y,z
1/2+x,1/2-y,1/2+z
loop_
_atom_site_type_symbol
_atom_site_label
_atom_site_fract_x
_atom_site_fract_y
_atom_site_fract_z
Si Si1 0.086514 0.121133 0.925575
Si Si2 0.317358 0.648256 0.081714
Si Si3 0.797370 0.614429 0.076779
Si Si4 0.940572 0.626233 0.575687
O O1 0.072854 0.123993 0.750000
O O2 0.145555 0.109809 0.950014
O O3 0.074428 0.249083 0.998271
O O4 0.065897 0.000000 0.000000
O O5 0.339644 0.631648 0.250000
O O6 0.261898 0.601241 0.084990
O O7 0.308816 0.783572 0.040898
O O8 0.814459 0.636973 0.250000
O O9 0.818663 0.500000 0.000000
O O10 0.927273 0.500000 0.500000
O O11 0.922797 0.626945 0.750000
O O12 0.000000 0.628107 0.575862
#
# Coordination Sequence:
#
# PCOD9472362 Si02
#       4
#    16  16  16  16
#     4  12  25  41  63  92 127 165 207 254 306 365
#     4  10  21  37  56  80 113 152 197 248 302 359
#     4  10  20  34  54  79 109 149 197 249 303 359
#     4  10  22  43  70  98 128 162 201 247 302 364
#
# _framework density 23.562083000000001
#
# number of rings (size 3 to 8) (size 9 to 14) (size 15 to 20)
#    0.000    1.500    0.000    5.250    0.000    8.000 
#    0.000    5.000    0.000    0.000    0.000    0.000 
#    0.000    0.000    0.000    0.000    0.000    0.000 
#
# Total GULP energy -178663.970459 kJ/mol
# GULP energy per Si atom -5583.249077 kJ/mol
# Density = 2.350845 g / cm^3
# Si number density = 23.562083 Si / 1000 Ang^3
#
#
#
# Elastic Constant Matrix: (Units=GPa)
#
#
# Indices 1 2 3 4 5 6 
#
# 1 64.6845 10.6537 6.6524 0.0000 0.0000 0.0000
# 2 10.6537 194.5885 104.1114 0.0000 0.0000 0.0000
# 3 6.6524 104.1114 193.0014 0.0000 0.0000 0.0000
# 4 0.0000 0.0000 0.0000 38.1244 0.0000 0.0000
# 5 0.0000 0.0000 0.0000 0.0000 23.0122 0.0000
# 6 0.0000 0.0000 0.0000 0.0000 0.0000 -107.0301
#
#
#
# Elastic Compliance Matrix: (Units=1/GPa)
#
#
# Indices 1 2 3 4 5 6 
#
# 1 0.015602 -0.000796 -0.000108 0.000000 0.000000 0.000000
# 2 -0.000796 0.007265 -0.003891 0.000000 0.000000 0.000000
# 3 -0.000108 -0.003891 0.007284 0.000000 0.000000 0.000000
# 4 0.000000 0.000000 0.000000 0.026230 0.000000 0.000000
# 5 0.000000 0.000000 0.000000 0.000000 0.043455 0.000000
# 6 0.000000 0.000000 0.000000 0.000000 0.000000 -0.009343
#
#
# Mechanical properties :
#
#
# Convention : Reuss Voigt Hill
#
# Bulk Modulus (GPa) = 48.64049 77.23439 62.93744
# Shear Modulus (GPa) = 46.75626 12.87841 29.81734
#
# Velocity S-wave (km/s) = 4.45948 2.34043 3.56122
# Velocity P-wave (km/s) = 6.87054 6.33670 6.60901
#
# Compressibility (1/GPa) = 0.02055900
#
# Stress axis : x y z
#
# Youngs Moduli (GPa) = 64.09464 137.65286 137.28406
#
# Poissons Ratio (x) = 0.10961 0.01486
# Poissons Ratio (y) = 0.05104 0.53422
# Poissons Ratio (z) = 0.00694 0.53566
#
# Static dielectric constant tensor:
#      x y z
#    x 1.925580 0.000000 0.000000 
#    y 0.000000 1.403150 0.000000 
#    z 0.000000 0.000000 1.869760 
# 
# From -- ./inp_files/13721.got.cif
#   From: 2010.05.17/outbox.cif.g08.bks.cpg/sg63_7_cif.got.tgz:13721.got - 2010.06.03 15:47:04.
