data_PCOD9472850
_publ_section_title
;
Structure prediction by ZEFSAII (Michael W. Deem and Ramdas Pophale) SiO2 
 PCOD9472850
Probable space group: C M C M
;
_chemical_formula_sum "Si O2"
_cell_formula_units_Z 112
_cell_length_a 15.599849
_cell_length_b 25.582279
_cell_length_c 13.720706
_cell_angle_alpha 90.000000
_cell_angle_beta 90.000000
_cell_angle_gamma 90.000000
_cell_volume 5475.655090
_symmetry_space_group_name_H-M "C M C M"
_symmetry_group_IT_number 63
_symmetry_cell_setting 'orthorhombic'
loop_
_space_group_symop_operation_xyz
x,y,z
-x,-y,1/2+z
x,-y,-z
-x,y,1/2-z
-x,-y,-z
x,y,1/2-z
-x,y,z
x,-y,1/2+z
1/2+x,1/2+y,z
1/2-x,1/2-y,1/2+z
1/2+x,1/2-y,-z
1/2-x,1/2+y,1/2-z
1/2-x,1/2-y,-z
1/2+x,1/2+y,1/2-z
1/2-x,1/2+y,z
1/2+x,1/2-y,1/2+z
loop_
_atom_site_type_symbol
_atom_site_label
_atom_site_fract_x
_atom_site_fract_y
_atom_site_fract_z
Si Si1 0.350940 0.364830 0.503863
Si Si2 0.681362 0.914727 0.549886
Si Si3 0.270958 0.279392 0.365063
Si Si4 0.902649 0.315205 0.865555
Si Si5 0.407335 0.273196 0.864985
Si Si6 0.407003 0.545751 0.636291
Si Si7 0.213405 0.478371 0.361255
O O1 0.277485 0.393186 0.566184
O O2 0.301043 0.328204 0.427049
O O3 0.402242 0.325878 0.572641
O O4 0.401735 0.406740 0.439792
O O5 0.619174 0.867376 0.575092
O O6 0.680986 0.935862 0.438930
O O7 0.670074 0.966303 0.615039
O O8 0.275803 0.290984 0.250000
O O9 0.334491 0.230657 0.384620
O O10 0.174558 0.261964 0.389368
O O11 0.895213 0.327627 0.750000
O O12 0.000000 0.297267 0.883677
O O13 0.399872 0.285522 0.750000
O O14 0.500000 0.247670 0.881328
O O15 0.404812 0.563581 0.750000
O O16 0.500000 0.518585 0.623269
O O17 0.316844 0.515813 0.622188
O O18 0.199974 0.462660 0.250000
#
# Coordination Sequence:
#
# PCOD9472850 Si02
#       7
#    16  16  16  16  16  16  16
#     4  11  20  34  55  83 111 150 189 233 278 330
#     4  10  20  35  58  83 111 144 188 232 287 341
#     4  10  21  38  57  81 115 153 193 236 284 336
#     4  10  21  37  59  86 114 147 190 239 288 337
#     4  10  21  35  51  75 111 154 193 227 268 324
#     4   9  18  33  54  82 113 144 185 236 285 335
#     4   9  19  36  57  80 110 150 186 229 291 350
#
# _framework density 20.454173000000001
#
# number of rings (size 3 to 8) (size 9 to 14) (size 15 to 20)
#    0.000    2.143    1.429    1.714    0.000    2.286 
#    0.000    9.286    0.000    3.000    0.000    0.000 
#    0.000    0.000    0.000    0.000    0.000    0.000 
#
# Total GULP energy -312663.767749 kJ/mol
# GULP energy per Si atom -5583.281567 kJ/mol
# Density = 2.040762 g / cm^3
# Si number density = 20.454173 Si / 1000 Ang^3
#
#
#
# Elastic Constant Matrix: (Units=GPa)
#
#
# Indices 1 2 3 4 5 6 
#
# 1 92.9546 14.8247 14.5189 0.0000 0.0000 0.0000
# 2 14.8247 49.6059 4.2155 0.0000 0.0000 0.0000
# 3 14.5189 4.2155 82.6773 0.0000 0.0000 0.0000
# 4 0.0000 0.0000 0.0000 16.4409 0.0000 0.0000
# 5 0.0000 0.0000 0.0000 0.0000 12.8994 0.0000
# 6 0.0000 0.0000 0.0000 0.0000 0.0000 -8.8278
#
#
#
# Elastic Compliance Matrix: (Units=1/GPa)
#
#
# Indices 1 2 3 4 5 6 
#
# 1 0.011576 -0.003301 -0.001864 0.000000 0.000000 0.000000
# 2 -0.003301 0.021188 -0.000501 0.000000 0.000000 0.000000
# 3 -0.001864 -0.000501 0.012448 0.000000 0.000000 0.000000
# 4 0.000000 0.000000 0.000000 0.060824 0.000000 0.000000
# 5 0.000000 0.000000 0.000000 0.000000 0.077523 0.000000
# 6 0.000000 0.000000 0.000000 0.000000 0.000000 -0.113279
#
#
# Mechanical properties :
#
#
# Convention : Reuss Voigt Hill
#
# Bulk Modulus (GPa) = 29.51630 32.48401 31.00015
# Shear Modulus (GPa) = 53.81829 16.88108 35.34969
#
# Velocity S-wave (km/s) = 5.13505 2.87594 4.16172
# Velocity P-wave (km/s) = 7.04416 5.19075 6.18725
#
# Compressibility (1/GPa) = 0.03387959
#
# Stress axis : x y z
#
# Youngs Moduli (GPa) = 86.38856 47.19672 80.33309
#
# Poissons Ratio (x) = 0.15579 0.14978
# Poissons Ratio (y) = 0.28516 0.04022
# Poissons Ratio (z) = 0.16107 0.02363
#
# Static dielectric constant tensor:
#      x y z
#    x 1.751360 0.000000 0.000000 
#    y 0.000000 1.684570 0.000000 
#    z 0.000000 0.000000 1.743300 
# 
# From -- ./inp_files/32348.got.cif
#   From: 2010.05.17/outbox.cif.g08.bks.cpg/sg63_17_cif.got.tgz:32348.got - 2010.06.03 15:47:04.
