data_PCOD9472986
_publ_section_title
;
Structure prediction by ZEFSAII (Michael W. Deem and Ramdas Pophale) SiO2 
 PCOD9472986
Probable space group: C M C M
;
_chemical_formula_sum "Si O2"
_cell_formula_units_Z 104
_cell_length_a 16.329129
_cell_length_b 17.455987
_cell_length_c 21.892329
_cell_angle_alpha 90.000000
_cell_angle_beta 90.000000
_cell_angle_gamma 90.000000
_cell_volume 6240.212742
_symmetry_space_group_name_H-M "C M C M"
_symmetry_group_IT_number 63
_symmetry_cell_setting 'orthorhombic'
loop_
_space_group_symop_operation_xyz
x,y,z
-x,-y,1/2+z
x,-y,-z
-x,y,1/2-z
-x,-y,-z
x,y,1/2-z
-x,y,z
x,-y,1/2+z
1/2+x,1/2+y,z
1/2-x,1/2-y,1/2+z
1/2+x,1/2-y,-z
1/2-x,1/2+y,1/2-z
1/2-x,1/2-y,-z
1/2+x,1/2+y,1/2-z
1/2-x,1/2+y,z
1/2+x,1/2-y,1/2+z
loop_
_atom_site_type_symbol
_atom_site_label
_atom_site_fract_x
_atom_site_fract_y
_atom_site_fract_z
Si Si1 0.198120 0.911112 0.176952
Si Si2 0.856601 0.256902 0.678310
Si Si3 0.500000 0.995810 0.182213
Si Si4 0.663907 0.720865 0.323211
Si Si5 0.500000 0.911072 0.479609
Si Si6 0.500000 0.154058 0.110976
Si Si7 0.873807 0.616865 0.626532
Si Si8 0.407536 0.441510 0.675870
O O1 0.220877 0.912741 0.250000
O O2 0.142819 0.835068 0.169835
O O3 0.278692 0.903122 0.135684
O O4 0.150021 0.987562 0.160318
O O5 0.873769 0.273261 0.750000
O O6 0.761803 0.278882 0.666000
O O7 0.920692 0.301574 0.636756
O O8 0.500000 0.027165 0.250000
O O9 0.577028 0.940536 0.170819
O O10 0.500000 0.067666 0.137374
O O11 0.653117 0.728679 0.250000
O O12 0.621922 0.794420 0.353654
O O13 0.626462 0.640630 0.344018
O O14 0.500000 0.856785 0.538417
O O15 0.420071 0.895650 0.437509
O O16 0.500000 0.000000 0.500000
O O17 0.408925 0.439468 0.750000
O O18 0.500000 0.453168 0.654358
#
# Coordination Sequence:
#
# PCOD9472986 Si02
#       8
#    16  16   8  16   8   8  16  16
#     4   9  18  34  55  84 117 147 178 222 280 340
#     4   9  19  34  55  83 115 142 176 225 280 333
#     4  11  21  30  54  85 106 133 174 222 288 348
#     4   9  18  33  53  84 115 140 177 230 283 336
#     4  11  24  42  52  77 109 150 190 237 269 323
#     4  12  23  37  54  79 112 148 184 224 277 330
#     4  10  20  36  56  74 108 146 186 227 279 317
#     4   9  18  28  47  79 117 148 170 207 275 346
#
# _framework density 16.666098999999999
#
# number of rings (size 3 to 8) (size 9 to 14) (size 15 to 20)
#    0.000    2.308    1.538    3.000    5.385    0.000 
#    0.000    3.077    0.000    0.000    0.000    1.077 
#    0.000    0.000    0.000    0.000    0.000    0.000 
#
# Total GULP energy -289839.613689 kJ/mol
# GULP energy per Si atom -5573.838725 kJ/mol
# Density = 1.662817 g / cm^3
# Si number density = 16.666099 Si / 1000 Ang^3
#
#
#
# Elastic Constant Matrix: (Units=GPa)
#
#
# Indices 1 2 3 4 5 6 
#
# 1 84.4611 76.2155 47.7109 0.0000 0.0000 0.0000
# 2 76.2155 135.3879 39.6877 0.0000 0.0000 0.0000
# 3 47.7109 39.6877 79.6493 0.0000 0.0000 0.0000
# 4 0.0000 0.0000 0.0000 22.2789 0.0000 0.0000
# 5 0.0000 0.0000 0.0000 0.0000 10.3950 0.0000
# 6 0.0000 0.0000 0.0000 0.0000 0.0000 24.4827
#
#
#
# Elastic Compliance Matrix: (Units=1/GPa)
#
#
# Indices 1 2 3 4 5 6 
#
# 1 0.031159 -0.014134 -0.011622 0.000000 0.000000 0.000000
# 2 -0.014134 0.015061 0.000962 0.000000 0.000000 0.000000
# 3 -0.011622 0.000962 0.019037 0.000000 0.000000 0.000000
# 4 0.000000 0.000000 0.000000 0.044885 0.000000 0.000000
# 5 0.000000 0.000000 0.000000 0.000000 0.096200 0.000000
# 6 0.000000 0.000000 0.000000 0.000000 0.000000 0.040845
#
#
# Mechanical properties :
#
#
# Convention : Reuss Voigt Hill
#
# Bulk Modulus (GPa) = 63.81919 69.63627 66.72773
# Shear Modulus (GPa) = 16.55640 20.49028 18.52334
#
# Velocity S-wave (km/s) = 3.15527 3.51017 3.33744
# Velocity P-wave (km/s) = 7.18681 7.63559 7.41460
#
# Compressibility (1/GPa) = 0.01566927
#
# Stress axis : x y z
#
# Youngs Moduli (GPa) = 32.09379 66.39812 52.52804
#
# Poissons Ratio (x) = 0.93845 0.61048
# Poissons Ratio (y) = 0.45360 -0.05052
# Poissons Ratio (z) = 0.37299 -0.06386
#
# Static dielectric constant tensor:
#      x y z
#    x 1.566030 0.000000 0.000000 
#    y 0.000000 1.560070 0.000000 
#    z 0.000000 0.000000 1.547040 
# 
# From -- ./inp_files/63167.got.cif
#   From: 2010.05.17/outbox.cif.g08.bks.cpg/sg63_32_cif.got.tgz:63167.got - 2010.06.03 15:47:04.
