data_PCOD9472180
_publ_section_title
;
Structure prediction by ZEFSAII (Michael W. Deem and Ramdas Pophale) SiO2 
 PCOD9472180
Probable space group: C M C M
;
_chemical_formula_sum "Si O2"
_cell_formula_units_Z 88
_cell_length_a 23.519118
_cell_length_b 7.610598
_cell_length_c 22.420707
_cell_angle_alpha 90.000000
_cell_angle_beta 90.000000
_cell_angle_gamma 90.000000
_cell_volume 4013.184414
_symmetry_space_group_name_H-M "C M C M"
_symmetry_group_IT_number 63
_symmetry_cell_setting 'orthorhombic'
loop_
_space_group_symop_operation_xyz
x,y,z
-x,-y,1/2+z
x,-y,-z
-x,y,1/2-z
-x,-y,-z
x,y,1/2-z
-x,y,z
x,-y,1/2+z
1/2+x,1/2+y,z
1/2-x,1/2-y,1/2+z
1/2+x,1/2-y,-z
1/2-x,1/2+y,1/2-z
1/2-x,1/2-y,-z
1/2+x,1/2+y,1/2-z
1/2-x,1/2+y,z
1/2+x,1/2-y,1/2+z
loop_
_atom_site_type_symbol
_atom_site_label
_atom_site_fract_x
_atom_site_fract_y
_atom_site_fract_z
Si Si1 0.156419 0.738875 0.317548
Si Si2 0.728754 0.595391 0.317692
Si Si3 0.063934 0.255637 0.050474
Si Si4 0.816973 0.685725 0.573489
Si Si5 0.435890 0.652353 0.587320
Si Si6 0.273748 0.500000 0.500000
O O1 0.133353 0.722579 0.250000
O O2 0.203209 0.587877 0.328151
O O3 0.109720 0.767750 0.367776
O O4 0.196579 0.911099 0.319745
O O5 0.722187 0.664347 0.250000
O O6 0.699358 0.716314 0.366465
O O7 0.117463 0.369655 0.071633
O O8 0.000000 0.318100 0.065541
O O9 0.071469 0.059232 0.078446
O O10 0.066597 0.232031 0.979119
O O11 0.768658 0.550205 0.553517
O O12 0.810596 0.835917 0.521168
O O13 0.500000 0.679763 0.610038
#
# Coordination Sequence:
#
# PCOD9472180 Si02
#       6
#    16  16  16  16  16   8
#     4  10  20  34  51  78 105 135 174 215 260 307
#     4  10  21  34  52  74 107 143 172 213 259 310
#     4   9  18  31  51  73 103 139 169 210 261 310
#     4  11  20  36  52  77 112 132 182 207 269 314
#     4   9  17  31  50  75 102 135 171 211 260 305
#     4  10  24  30  52  86 104 140 160 230 260 312
#
# _framework density 21.927724999999999
#
# number of rings (size 3 to 8) (size 9 to 14) (size 15 to 20)
#    0.000    2.182    1.818    3.273    5.091    0.364 
#    0.000    0.455    0.000    0.545    0.000    1.273 
#    0.000    7.273    0.000    0.000    0.000    0.000 
#
# Total GULP energy -246102.233680 kJ/mol
# GULP energy per Si atom -5593.232584 kJ/mol
# Density = 2.187782 g / cm^3
# Si number density = 21.927725 Si / 1000 Ang^3
#
#
#
# Elastic Constant Matrix: (Units=GPa)
#
#
# Indices 1 2 3 4 5 6 
#
# 1 173.5334 11.7124 46.3818 0.0000 0.0000 0.0000
# 2 11.7124 48.7309 9.2456 0.0000 0.0000 0.0000
# 3 46.3818 9.2456 92.3357 0.0000 0.0000 0.0000
# 4 0.0000 0.0000 0.0000 24.1271 0.0000 0.0000
# 5 0.0000 0.0000 0.0000 0.0000 40.5706 0.0000
# 6 0.0000 0.0000 0.0000 0.0000 0.0000 19.1856
#
#
#
# Elastic Compliance Matrix: (Units=1/GPa)
#
#
# Indices 1 2 3 4 5 6 
#
# 1 0.006703 -0.000991 -0.003268 0.000000 0.000000 0.000000
# 2 -0.000991 0.021065 -0.001611 0.000000 0.000000 0.000000
# 3 -0.003268 -0.001611 0.012633 0.000000 0.000000 0.000000
# 4 0.000000 0.000000 0.000000 0.041447 0.000000 0.000000
# 5 0.000000 0.000000 0.000000 0.000000 0.024648 0.000000
# 6 0.000000 0.000000 0.000000 0.000000 0.000000 0.052122
#
#
# Mechanical properties :
#
#
# Convention : Reuss Voigt Hill
#
# Bulk Modulus (GPa) = 34.89168 49.91995 42.40581
# Shear Modulus (GPa) = 27.79134 33.26067 30.52601
#
# Velocity S-wave (km/s) = 3.56393 3.89888 3.73516
# Velocity P-wave (km/s) = 5.73429 6.56380 6.16302
#
# Compressibility (1/GPa) = 0.02866013
#
# Stress axis : x y z
#
# Youngs Moduli (GPa) = 149.18994 47.47256 79.15874
#
# Poissons Ratio (x) = 0.04705 0.25867
# Poissons Ratio (y) = 0.14785 0.12756
# Poissons Ratio (z) = 0.48751 0.07650
#
# Static dielectric constant tensor:
#      x y z
#    x 1.801560 0.000000 0.000000 
#    y 0.000000 1.904330 0.000000 
#    z 0.000000 0.000000 1.805870 
# 
# From -- ./inp_files/64436.got.cif
#   From: 2010.05.17/outbox.cif.g08.bks.cpg/sg63_33_cif.got.tgz:64436.got - 2010.06.03 15:47:04.
