data_PCOD9472558
_publ_section_title
;
Structure prediction by ZEFSAII (Michael W. Deem and Ramdas Pophale) SiO2 
 PCOD9472558
Probable space group: C M C M
;
_chemical_formula_sum "Si O2"
_cell_formula_units_Z 80
_cell_length_a 10.534545
_cell_length_b 14.739598
_cell_length_c 27.170712
_cell_angle_alpha 90.000000
_cell_angle_beta 90.000000
_cell_angle_gamma 90.000000
_cell_volume 4218.931176
_symmetry_space_group_name_H-M "C M C M"
_symmetry_group_IT_number 63
_symmetry_cell_setting 'orthorhombic'
loop_
_space_group_symop_operation_xyz
x,y,z
-x,-y,1/2+z
x,-y,-z
-x,y,1/2-z
-x,-y,-z
x,y,1/2-z
-x,y,z
x,-y,1/2+z
1/2+x,1/2+y,z
1/2-x,1/2-y,1/2+z
1/2+x,1/2-y,-z
1/2-x,1/2+y,1/2-z
1/2-x,1/2-y,-z
1/2+x,1/2+y,1/2-z
1/2-x,1/2+y,z
1/2+x,1/2-y,1/2+z
loop_
_atom_site_type_symbol
_atom_site_label
_atom_site_fract_x
_atom_site_fract_y
_atom_site_fract_z
Si Si1 0.750775 0.484147 0.116063
Si Si2 0.500000 0.988079 0.058747
Si Si3 0.233899 0.264550 0.114204
Si Si4 0.000000 0.757788 0.066253
Si Si5 0.000000 0.974442 0.443416
Si Si6 0.000000 0.276958 0.048429
Si Si7 0.847894 0.120215 0.307859
O O1 0.873338 0.519348 0.086367
O O2 0.760863 0.374309 0.121688
O O3 0.627043 0.506096 0.083409
O O4 0.726399 0.536791 0.166711
O O5 0.500000 0.880420 0.065207
O O6 0.500000 0.000000 0.000000
O O7 0.371790 0.234716 0.095015
O O8 0.128532 0.239267 0.072724
O O9 0.193675 0.210439 0.162780
O O10 0.000000 0.866218 0.060619
O O11 0.000000 0.723488 0.010305
O O12 0.000000 0.000000 0.500000
O O13 0.821552 0.126722 0.250000
O O14 0.000000 0.107487 0.314075
#
# Coordination Sequence:
#
# PCOD9472558 Si02
#       7
#    16   8  16   8   8   8  16
#     4  10  22  40  60  91 129 161 205 263 310 371
#     4  10  22  36  56  87 129 170 198 242 317 376
#     4  10  22  40  60  91 130 160 203 262 312 368
#     4  10  22  34  58  91 127 166 204 250 313 366
#     4  10  20  34  58  91 123 168 210 248 307 366
#     4  10  20  36  56  87 123 174 206 236 303 378
#     4  11  24  43  71  94 115 167 222 263 316 368
#
# _framework density 18.962149
#
# number of rings (size 3 to 8) (size 9 to 14) (size 15 to 20)
#    0.000    1.800    2.000    1.200    5.600    0.800 
#    0.000    2.000    0.000    0.000    0.000    0.000 
#    0.000    0.000    0.000    0.000    0.000    0.000 
#
# Total GULP energy -223289.017903 kJ/mol
# GULP energy per Si atom -5582.225448 kJ/mol
# Density = 1.891899 g / cm^3
# Si number density = 18.962149 Si / 1000 Ang^3
#
#
#
# Elastic Constant Matrix: (Units=GPa)
#
#
# Indices 1 2 3 4 5 6 
#
# 1 168.2281 33.5833 80.7168 0.0000 0.0000 0.0000
# 2 33.5833 78.7964 38.1357 0.0000 0.0000 0.0000
# 3 80.7168 38.1357 161.0624 0.0000 0.0000 0.0000
# 4 0.0000 0.0000 0.0000 32.1443 0.0000 0.0000
# 5 0.0000 0.0000 0.0000 0.0000 29.4136 0.0000
# 6 0.0000 0.0000 0.0000 0.0000 0.0000 -1.9866
#
#
#
# Elastic Compliance Matrix: (Units=1/GPa)
#
#
# Indices 1 2 3 4 5 6 
#
# 1 0.008014 -0.001662 -0.003623 0.000000 0.000000 0.000000
# 2 -0.001662 0.014678 -0.002642 0.000000 0.000000 0.000000
# 3 -0.003623 -0.002642 0.008650 0.000000 0.000000 0.000000
# 4 0.000000 0.000000 0.000000 0.031110 0.000000 0.000000
# 5 0.000000 0.000000 0.000000 0.000000 0.033998 0.000000
# 6 0.000000 0.000000 0.000000 0.000000 0.000000 -0.503378
#
#
# Mechanical properties :
#
#
# Convention : Reuss Voigt Hill
#
# Bulk Modulus (GPa) = 64.56794 79.21761 71.89278
# Shear Modulus (GPa) = -12.95638 28.95767 8.00064
#
# Velocity S-wave (km/s) = -2.61679 3.91209 2.05631
# Velocity P-wave (km/s) = 4.99948 7.89135 6.60561
#
# Compressibility (1/GPa) = 0.01548756
#
# Stress axis : x y z
#
# Youngs Moduli (GPa) = 124.77488 68.12776 115.60682
#
# Poissons Ratio (x) = 0.11326 0.41882
# Poissons Ratio (y) = 0.20743 0.30547
# Poissons Ratio (z) = 0.45204 0.18002
#
# Static dielectric constant tensor:
#      x y z
#    x 1.673530 0.000000 0.000000 
#    y 0.000000 1.636210 0.000000 
#    z 0.000000 0.000000 1.618870 
# 
# From -- ./inp_files/61210.got.cif
#   From: 2010.05.17/outbox.cif.g08.bks.cpg/sg63_31_cif.got.tgz:61210.got - 2010.06.03 15:47:04.
