data_PCOD9472158
_publ_section_title
;
Structure prediction by ZEFSAII (Michael W. Deem and Ramdas Pophale) SiO2 
 PCOD9472158
Probable space group: C M C M
;
_chemical_formula_sum "Si O2"
_cell_formula_units_Z 96
_cell_length_a 23.272957
_cell_length_b 24.353323
_cell_length_c 9.229379
_cell_angle_alpha 90.000000
_cell_angle_beta 90.000000
_cell_angle_gamma 90.000000
_cell_volume 5230.970567
_symmetry_space_group_name_H-M "C M C M"
_symmetry_group_IT_number 63
_symmetry_cell_setting 'orthorhombic'
loop_
_space_group_symop_operation_xyz
x,y,z
-x,-y,1/2+z
x,-y,-z
-x,y,1/2-z
-x,-y,-z
x,y,1/2-z
-x,y,z
x,-y,1/2+z
1/2+x,1/2+y,z
1/2-x,1/2-y,1/2+z
1/2+x,1/2-y,-z
1/2-x,1/2+y,1/2-z
1/2-x,1/2-y,-z
1/2+x,1/2+y,1/2-z
1/2-x,1/2+y,z
1/2+x,1/2-y,1/2+z
loop_
_atom_site_type_symbol
_atom_site_label
_atom_site_fract_x
_atom_site_fract_y
_atom_site_fract_z
Si Si1 0.868812 0.158213 0.424464
Si Si2 0.331503 0.947570 0.580980
Si Si3 0.566483 0.109182 0.576318
Si Si4 0.630902 0.220712 0.923234
Si Si5 0.734751 0.833098 0.919283
Si Si6 0.931110 0.942881 0.078587
O O1 0.873943 0.150110 0.250000
O O2 0.891912 0.219040 0.463054
O O3 0.801139 0.162706 0.461159
O O4 0.899166 0.108592 0.506371
O O5 0.339249 0.959240 0.750000
O O6 0.391793 0.932092 0.506454
O O7 0.292183 0.893848 0.565678
O O8 0.306253 0.000000 0.500000
O O9 0.573111 0.102456 0.750000
O O10 0.500000 0.102197 0.539262
O O11 0.588430 0.170718 0.539302
O O12 0.638282 0.220836 0.750000
O O13 0.692645 0.206714 0.992596
O O14 0.732382 0.817273 0.750000
O O15 0.918821 0.946214 0.250000
O O16 0.000000 0.936060 0.060669
O O17 0.914967 0.000000 0.000000
#
# Coordination Sequence:
#
# PCOD9472158 Si02
#       6
#    16  16  16  16  16  16
#     4  10  20  34  55  83 110 138 174 211 252 308
#     4  10  20  34  51  71  98 132 170 212 257 303
#     4   9  18  33  51  72 100 133 170 211 253 299
#     4   9  18  32  52  78 107 140 175 212 256 303
#     4   9  19  34  51  75 108 141 173 213 258 304
#     4  10  22  40  59  79 105 137 173 215 263 312
#
# _framework density 18.352235
#
# number of rings (size 3 to 8) (size 9 to 14) (size 15 to 20)
#    0.000    2.500    0.000    1.500    0.000    5.000 
#    0.000    3.333    0.000    0.000    0.000    0.000 
#    0.000    0.000    0.000    0.000    0.000    0.000 
#
# Total GULP energy -267828.839828 kJ/mol
# GULP energy per Si atom -5579.767496 kJ/mol
# Density = 1.831046 g / cm^3
# Si number density = 18.352235 Si / 1000 Ang^3
#
#
#
# Elastic Constant Matrix: (Units=GPa)
#
#
# Indices 1 2 3 4 5 6 
#
# 1 17.8637 2.3381 12.7688 0.0000 0.0000 0.0000
# 2 2.3381 99.8911 42.4725 0.0000 0.0000 0.0000
# 3 12.7688 42.4725 43.3661 0.0000 0.0000 0.0000
# 4 0.0000 0.0000 0.0000 29.4787 0.0000 0.0000
# 5 0.0000 0.0000 0.0000 0.0000 27.2785 0.0000
# 6 0.0000 0.0000 0.0000 0.0000 0.0000 15.4971
#
#
#
# Elastic Compliance Matrix: (Units=1/GPa)
#
#
# Indices 1 2 3 4 5 6 
#
# 1 0.081099 0.014145 -0.037733 0.000000 0.000000 0.000000
# 2 0.014145 0.019622 -0.023382 0.000000 0.000000 0.000000
# 3 -0.037733 -0.023382 0.057070 0.000000 0.000000 0.000000
# 4 0.000000 0.000000 0.000000 0.033923 0.000000 0.000000
# 5 0.000000 0.000000 0.000000 0.000000 0.036659 0.000000
# 6 0.000000 0.000000 0.000000 0.000000 0.000000 0.064528
#
#
# Mechanical properties :
#
#
# Convention : Reuss Voigt Hill
#
# Bulk Modulus (GPa) = 15.66139 30.69774 23.17957
# Shear Modulus (GPa) = 12.25118 21.35363 16.80240
#
# Velocity S-wave (km/s) = 2.58652 3.41478 3.02909
# Velocity P-wave (km/s) = 4.18000 5.68427 4.98915
#
# Compressibility (1/GPa) = 0.06385128
#
# Stress axis : x y z
#
# Youngs Moduli (GPa) = 12.33061 50.96397 17.52232
#
# Poissons Ratio (x) = -0.72090 0.66116
# Poissons Ratio (y) = -0.17442 0.40971
# Poissons Ratio (z) = 0.46527 1.19166
#
# Static dielectric constant tensor:
#      x y z
#    x 1.610020 0.000000 0.000000 
#    y 0.000000 1.644740 0.000000 
#    z 0.000000 0.000000 1.614970 
# 
# From -- ./inp_files/10454.got.cif
#   From: 2010.05.17/outbox.cif.g08.bks.cpg/sg63_6_cif.got.tgz:10454.got - 2010.06.03 15:47:04.
