data_PCOD9472162
_publ_section_title
;
Structure prediction by ZEFSAII (Michael W. Deem and Ramdas Pophale) SiO2 
 PCOD9472162
Probable space group: C M C M
;
_chemical_formula_sum "Si O2"
_cell_formula_units_Z 88
_cell_length_a 18.781637
_cell_length_b 27.233047
_cell_length_c 7.444788
_cell_angle_alpha 90.000000
_cell_angle_beta 90.000000
_cell_angle_gamma 90.000000
_cell_volume 3807.869123
_symmetry_space_group_name_H-M "C M C M"
_symmetry_group_IT_number 63
_symmetry_cell_setting 'orthorhombic'
loop_
_space_group_symop_operation_xyz
x,y,z
-x,-y,1/2+z
x,-y,-z
-x,y,1/2-z
-x,-y,-z
x,y,1/2-z
-x,y,z
x,-y,1/2+z
1/2+x,1/2+y,z
1/2-x,1/2-y,1/2+z
1/2+x,1/2-y,-z
1/2-x,1/2+y,1/2-z
1/2-x,1/2-y,-z
1/2+x,1/2+y,1/2-z
1/2-x,1/2+y,z
1/2+x,1/2-y,1/2+z
loop_
_atom_site_type_symbol
_atom_site_label
_atom_site_fract_x
_atom_site_fract_y
_atom_site_fract_z
Si Si1 0.266745 0.053009 0.464215
Si Si2 0.082013 0.321697 0.456146
Si Si3 0.829909 0.768102 0.534700
Si Si4 0.578447 0.067408 0.045819
Si Si5 0.139939 0.878940 0.529816
Si Si6 0.000000 0.059185 0.465114
O O1 0.274204 0.060240 0.250000
O O2 0.346987 0.051931 0.540976
O O3 0.212683 0.094216 0.529151
O O4 0.233351 0.000000 0.500000
O O5 0.106351 0.330458 0.250000
O O6 0.123640 0.276656 0.537860
O O7 0.086145 0.373745 0.551355
O O8 0.000000 0.307376 0.449818
O O9 0.840446 0.769688 0.750000
O O10 0.750000 0.750000 0.500000
O O11 0.853378 0.822146 0.471046
O O12 0.576072 0.048343 0.250000
O O13 0.500000 0.057163 0.964304
O O14 0.139066 0.879206 0.750000
O O15 0.070933 0.910977 0.472602
O O16 0.000000 0.063265 0.250000
O O17 0.000000 0.000000 0.500000
#
# Coordination Sequence:
#
# PCOD9472162 Si02
#       6
#    16  16  16  16  16   8
#     4  10  20  34  51  72  98 129 169 212 256 304
#     4   9  18  31  50  76 103 130 164 206 248 290
#     4  10  20  34  53  77 106 138 173 212 255 309
#     4   9  18  33  52  73 101 137 170 202 248 308
#     4   9  19  34  54  77 102 136 175 214 260 319
#     4  10  20  36  58  80 104 138 182 228 277 322
#
# _framework density 23.110036999999998
#
# number of rings (size 3 to 8) (size 9 to 14) (size 15 to 20)
#    0.000    2.545    0.000    1.636    1.273    3.273 
#    0.000    1.818    0.000    0.000    0.000    0.000 
#    0.000    0.000    0.000    0.000    0.000    0.000 
#
# Total GULP energy -245494.404534 kJ/mol
# GULP energy per Si atom -5579.418285 kJ/mol
# Density = 2.305744 g / cm^3
# Si number density = 23.110037 Si / 1000 Ang^3
#
#
#
# Elastic Constant Matrix: (Units=GPa)
#
#
# Indices 1 2 3 4 5 6 
#
# 1 120.6301 76.0947 8.4936 0.0000 0.0000 0.0000
# 2 76.0947 175.1625 0.0934 0.0000 0.0000 0.0000
# 3 8.4936 0.0934 77.6111 0.0000 0.0000 0.0000
# 4 0.0000 0.0000 0.0000 -13.0260 0.0000 0.0000
# 5 0.0000 0.0000 0.0000 0.0000 -0.3562 0.0000
# 6 0.0000 0.0000 0.0000 0.0000 0.0000 39.6574
#
#
#
# Elastic Compliance Matrix: (Units=1/GPa)
#
#
# Indices 1 2 3 4 5 6 
#
# 1 0.011540 -0.005013 -0.001257 0.000000 0.000000 0.000000
# 2 -0.005013 0.007886 0.000539 0.000000 0.000000 0.000000
# 3 -0.001257 0.000539 0.013022 0.000000 0.000000 0.000000
# 4 0.000000 0.000000 0.000000 -0.076769 0.000000 0.000000
# 5 0.000000 0.000000 0.000000 0.000000 -2.807063 0.000000
# 6 0.000000 0.000000 0.000000 0.000000 0.000000 0.025216
#
#
# Mechanical properties :
#
#
# Convention : Reuss Voigt Hill
#
# Bulk Modulus (GPa) = 47.64797 60.30744 53.97771
# Shear Modulus (GPa) = -1.78081 24.50317 11.36118
#
# Velocity S-wave (km/s) = -0.87878 3.25973 2.21964
# Velocity P-wave (km/s) = 4.43091 6.34982 5.47509
#
# Compressibility (1/GPa) = 0.02098725
#
# Stress axis : x y z
#
# Youngs Moduli (GPa) = 86.65216 126.80136 76.79512
#
# Poissons Ratio (x) = 0.63562 0.09653
# Poissons Ratio (y) = 0.43437 -0.04140
# Poissons Ratio (z) = 0.10892 -0.06836
#
# Static dielectric constant tensor:
#      x y z
#    x 1.857290 0.000000 0.000000 
#    y 0.000000 1.805660 0.000000 
#    z 0.000000 0.000000 1.917150 
# 
# From -- ./inp_files/21121.got.cif
#   From: 2010.05.17/outbox.cif.g08.bks.cpg/sg63_11_cif.got.tgz:21121.got - 2010.06.03 15:47:04.
