data_PCOD9472202
_publ_section_title
;
Structure prediction by ZEFSAII (Michael W. Deem and Ramdas Pophale) SiO2 
 PCOD9472202
Probable space group: C M C M
;
_chemical_formula_sum "Si O2"
_cell_formula_units_Z 112
_cell_length_a 24.280575
_cell_length_b 14.426716
_cell_length_c 15.452040
_cell_angle_alpha 90.000000
_cell_angle_beta 90.000000
_cell_angle_gamma 90.000000
_cell_volume 5412.679019
_symmetry_space_group_name_H-M "C M C M"
_symmetry_group_IT_number 63
_symmetry_cell_setting 'orthorhombic'
loop_
_space_group_symop_operation_xyz
x,y,z
-x,-y,1/2+z
x,-y,-z
-x,y,1/2-z
-x,-y,-z
x,y,1/2-z
-x,y,z
x,-y,1/2+z
1/2+x,1/2+y,z
1/2-x,1/2-y,1/2+z
1/2+x,1/2-y,-z
1/2-x,1/2+y,1/2-z
1/2-x,1/2-y,-z
1/2+x,1/2+y,1/2-z
1/2-x,1/2+y,z
1/2+x,1/2-y,1/2+z
loop_
_atom_site_type_symbol
_atom_site_label
_atom_site_fract_x
_atom_site_fract_y
_atom_site_fract_z
Si Si1 0.561907 0.790619 0.882875
Si Si2 0.063664 0.071740 0.355031
Si Si3 0.873809 0.106333 0.649461
Si Si4 0.828456 0.403669 0.648498
Si Si5 0.229761 0.778265 0.143300
Si Si6 0.334946 0.889515 0.353893
Si Si7 0.562473 0.222765 0.910634
O O1 0.500000 0.812265 0.852841
O O2 0.581285 0.688687 0.853176
O O3 0.609683 0.862186 0.856712
O O4 0.561217 0.786961 0.986479
O O5 0.064643 0.071865 0.250000
O O6 0.080862 0.173213 0.386496
O O7 0.000000 0.056886 0.381630
O O8 0.101274 0.987720 0.387916
O O9 0.861747 0.086052 0.750000
O O10 0.818022 0.150865 0.613219
O O11 0.814658 0.411818 0.750000
O O12 0.788085 0.323970 0.612845
O O13 0.825572 0.506717 0.611242
O O14 0.228012 0.776305 0.250000
O O15 0.288528 0.817185 0.115932
O O16 0.330432 0.893328 0.250000
O O17 0.394876 0.851433 0.375615
O O18 0.500000 0.211276 0.876861
#
# Coordination Sequence:
#
# PCOD9472202 Si02
#       7
#    16  16  16  16  16  16  16
#     4  10  20  34  52  74 104 140 173 211 260 305
#     4   9  17  30  50  76 104 135 171 209 250 299
#     4   9  17  31  53  80 107 134 168 211 255 301
#     4   9  19  35  55  80 105 130 169 215 253 300
#     4   8  16  32  53  78 104 127 161 210 256 302
#     4  10  20  35  56  77 100 135 171 208 258 305
#     4  10  22  36  49  71 104 140 176 213 254 304
#
# _framework density 20.692157000000002
#
# number of rings (size 3 to 8) (size 9 to 14) (size 15 to 20)
#    0.000    2.714    0.000    2.143    0.000    5.429 
#    0.000   12.143    0.000    3.429    0.000    0.000 
#    0.000    0.000    0.000    0.000    0.000    0.000 
#
# Total GULP energy -312440.633783 kJ/mol
# GULP energy per Si atom -5579.297032 kJ/mol
# Density = 2.064506 g / cm^3
# Si number density = 20.692157 Si / 1000 Ang^3
#
#
#
# Elastic Constant Matrix: (Units=GPa)
#
#
# Indices 1 2 3 4 5 6 
#
# 1 113.5287 63.1891 -16.8158 0.0000 0.0000 0.0000
# 2 63.1891 167.9258 18.3311 0.0000 0.0000 0.0000
# 3 -16.8158 18.3311 41.1918 0.0000 0.0000 0.0000
# 4 0.0000 0.0000 0.0000 26.5207 0.0000 0.0000
# 5 0.0000 0.0000 0.0000 0.0000 47.1013 0.0000
# 6 0.0000 0.0000 0.0000 0.0000 0.0000 12.9505
#
#
#
# Elastic Compliance Matrix: (Units=1/GPa)
#
#
# Indices 1 2 3 4 5 6 
#
# 1 0.013262 -0.005866 0.008025 0.000000 0.000000 0.000000
# 2 -0.005866 0.008854 -0.006335 0.000000 0.000000 0.000000
# 3 0.008025 -0.006335 0.030372 0.000000 0.000000 0.000000
# 4 0.000000 0.000000 0.000000 0.037706 0.000000 0.000000
# 5 0.000000 0.000000 0.000000 0.000000 0.021231 0.000000
# 6 0.000000 0.000000 0.000000 0.000000 0.000000 0.077217
#
#
# Mechanical properties :
#
#
# Convention : Reuss Voigt Hill
#
# Bulk Modulus (GPa) = 22.65806 50.22838 36.44322
# Shear Modulus (GPa) = 23.61750 34.51064 29.06407
#
# Velocity S-wave (km/s) = 3.38209 4.08832 3.75186
# Velocity P-wave (km/s) = 5.12106 6.82734 6.03481
#
# Compressibility (1/GPa) = 0.04413440
#
# Stress axis : x y z
#
# Youngs Moduli (GPa) = 75.40246 112.94261 32.92526
#
# Poissons Ratio (x) = 0.66257 -0.26422
# Poissons Ratio (y) = 0.44234 0.20858
# Poissons Ratio (z) = -0.60508 0.71550
#
# Static dielectric constant tensor:
#      x y z
#    x 1.735040 0.000000 0.000000 
#    y 0.000000 1.726350 0.000000 
#    z 0.000000 0.000000 1.754140 
# 
# From -- ./inp_files/36884.got.cif
#   From: 2010.05.17/outbox.cif.g08.bks.cpg/sg63_19_cif.got.tgz:36884.got - 2010.06.03 15:47:04.
