data_PCOD9472968
_publ_section_title
;
Structure prediction by ZEFSAII (Michael W. Deem and Ramdas Pophale) SiO2 
 PCOD9472968
Probable space group: C M C M
;
_chemical_formula_sum "Si O2"
_cell_formula_units_Z 68
_cell_length_a 16.279417
_cell_length_b 8.616637
_cell_length_c 26.304011
_cell_angle_alpha 90.000000
_cell_angle_beta 90.000000
_cell_angle_gamma 90.000000
_cell_volume 3689.764285
_symmetry_space_group_name_H-M "C M C M"
_symmetry_group_IT_number 63
_symmetry_cell_setting 'orthorhombic'
loop_
_space_group_symop_operation_xyz
x,y,z
-x,-y,1/2+z
x,-y,-z
-x,y,1/2-z
-x,-y,-z
x,y,1/2-z
-x,y,z
x,-y,1/2+z
1/2+x,1/2+y,z
1/2-x,1/2-y,1/2+z
1/2+x,1/2-y,-z
1/2-x,1/2+y,1/2-z
1/2-x,1/2-y,-z
1/2+x,1/2+y,1/2-z
1/2-x,1/2+y,z
1/2+x,1/2-y,1/2+z
loop_
_atom_site_type_symbol
_atom_site_label
_atom_site_fract_x
_atom_site_fract_y
_atom_site_fract_z
Si Si1 0.633515 0.558973 0.159510
Si Si2 0.000000 0.030487 0.250000
Si Si3 0.000000 0.259497 0.527862
Si Si4 0.235855 0.683926 0.878278
Si Si5 0.000000 0.913635 0.925219
Si Si6 0.329449 0.073855 0.053326
O O1 0.571988 0.533540 0.205525
O O2 0.689482 0.410959 0.146594
O O3 0.693016 0.707287 0.163302
O O4 0.579712 0.597283 0.109712
O O5 0.081098 0.353561 0.543502
O O6 0.000000 0.217319 0.468271
O O7 0.000000 0.088569 0.552774
O O8 0.271203 0.792915 0.923393
O O9 0.174664 0.560805 0.904318
O O10 0.299934 0.000000 0.000000
#
# Coordination Sequence:
#
# PCOD9472968 Si02
#       6
#    16   4   8  16   8  16
#     4  10  21  42  61  86 111 153 192 244 296 347
#     4  10  24  40  70  82 110 150 190 236 310 372
#     4  11  21  33  53  82 122 162 200 229 268 342
#     4  10  22  37  60  84 121 149 192 249 286 339
#     4  10  20  36  54  79 121 163 193 232 284 333
#     4  11  21  35  54  87 120 164 198 232 278 342
#
# _framework density 18.429362000000001
#
# number of rings (size 3 to 8) (size 9 to 14) (size 15 to 20)
#    0.000    1.647    2.353    2.471    0.000    4.706 
#    0.000    0.000    0.000    5.647    0.000    0.000 
#    0.000    0.000    0.000    0.000    0.000    0.000 
#
# Total GULP energy -189268.987914 kJ/mol
# GULP energy per Si atom -5566.734939 kJ/mol
# Density = 1.838742 g / cm^3
# Si number density = 18.429362 Si / 1000 Ang^3
#
#
#
# Elastic Constant Matrix: (Units=GPa)
#
#
# Indices 1 2 3 4 5 6 
#
# 1 114.6539 56.0721 56.0958 0.0000 0.0000 0.0000
# 2 56.0721 103.5532 35.1824 0.0000 0.0000 0.0000
# 3 56.0958 35.1824 97.7961 0.0000 0.0000 0.0000
# 4 0.0000 0.0000 0.0000 0.1940 0.0000 0.0000
# 5 0.0000 0.0000 0.0000 0.0000 -18.0156 0.0000
# 6 0.0000 0.0000 0.0000 0.0000 0.0000 25.1329
#
#
#
# Elastic Compliance Matrix: (Units=1/GPa)
#
#
# Indices 1 2 3 4 5 6 
#
# 1 0.014640 -0.005781 -0.006318 0.000000 0.000000 0.000000
# 2 -0.005781 0.013284 -0.001463 0.000000 0.000000 0.000000
# 3 -0.006318 -0.001463 0.014376 0.000000 0.000000 0.000000
# 4 0.000000 0.000000 0.000000 5.155716 0.000000 0.000000
# 5 0.000000 0.000000 0.000000 0.000000 -0.055507 0.000000
# 6 0.000000 0.000000 0.000000 0.000000 0.000000 0.039788
#
#
# Mechanical properties :
#
#
# Convention : Reuss Voigt Hill
#
# Bulk Modulus (GPa) = 65.89246 67.85598 66.87422
# Shear Modulus (GPa) = 0.95887 12.70577 6.83232
#
# Velocity S-wave (km/s) = 0.72210 2.62855 1.92752
# Velocity P-wave (km/s) = 6.04375 6.79057 6.42801
#
# Compressibility (1/GPa) = 0.01517624
#
# Stress axis : x y z
#
# Youngs Moduli (GPa) = 68.30508 75.27734 69.56192
#
# Poissons Ratio (x) = 0.43517 0.43949
# Poissons Ratio (y) = 0.39486 0.10178
# Poissons Ratio (z) = 0.43155 0.11014
#
# Static dielectric constant tensor:
#      x y z
#    x 1.636080 0.000000 0.000000 
#    y 0.000000 1.656320 0.000000 
#    z 0.000000 0.000000 1.607490 
# 
# From -- ./inp_files/63533.got.cif
#   From: 2010.05.17/outbox.cif.g08.bks.cpg/sg63_32_cif.got.tgz:63533.got - 2010.06.03 15:47:04.
