data_PCOD9472944
_publ_section_title
;
Structure prediction by ZEFSAII (Michael W. Deem and Ramdas Pophale) SiO2 
 PCOD9472944
Probable space group: C M C M
;
_chemical_formula_sum "Si O2"
_cell_formula_units_Z 64
_cell_length_a 14.959306
_cell_length_b 9.807268
_cell_length_c 19.585311
_cell_angle_alpha 90.000000
_cell_angle_beta 90.000000
_cell_angle_gamma 90.000000
_cell_volume 2873.359469
_symmetry_space_group_name_H-M "C M C M"
_symmetry_group_IT_number 63
_symmetry_cell_setting 'orthorhombic'
loop_
_space_group_symop_operation_xyz
x,y,z
-x,-y,1/2+z
x,-y,-z
-x,y,1/2-z
-x,-y,-z
x,y,1/2-z
-x,y,z
x,-y,1/2+z
1/2+x,1/2+y,z
1/2-x,1/2-y,1/2+z
1/2+x,1/2-y,-z
1/2-x,1/2+y,1/2-z
1/2-x,1/2-y,-z
1/2+x,1/2+y,1/2-z
1/2-x,1/2+y,z
1/2+x,1/2-y,1/2+z
loop_
_atom_site_type_symbol
_atom_site_label
_atom_site_fract_x
_atom_site_fract_y
_atom_site_fract_z
Si Si1 0.403507 0.333249 0.171765
Si Si2 0.206298 0.286253 0.171664
Si Si3 0.269099 0.383582 0.545229
Si Si4 0.598276 0.971266 0.875927
O O1 0.405610 0.379501 0.250000
O O2 0.500000 0.376948 0.139995
O O3 0.301102 0.357187 0.148935
O O4 0.404714 0.168166 0.167195
O O5 0.216120 0.237718 0.250000
O O6 0.186968 0.170300 0.115609
O O7 0.131169 0.400761 0.167231
O O8 0.316301 0.500000 0.500000
O O9 0.250000 0.250000 0.500000
O O10 0.173872 0.444420 0.568285
O O11 0.500000 0.995301 0.904626
#
# Coordination Sequence:
#
# PCOD9472944 Si02
#       4
#    16  16  16  16
#     4   8  15  29  51  82 117 154 202 258 318 386
#     4  10  20  35  61  95 129 166 218 279 338 390
#     4  11  22  42  63  92 131 175 222 278 334 402
#     4  10  20  35  62  92 123 168 224 269 319 393
#
# _framework density 22.273579000000002
#
# number of rings (size 3 to 8) (size 9 to 14) (size 15 to 20)
#    0.000    2.250    2.500    0.750    0.000    3.000 
#    0.000    0.000    0.000   10.500    0.000   14.000 
#    0.000    0.000    0.000    0.000    0.000    0.000 
#
# Total GULP energy -178264.161454 kJ/mol
# GULP energy per Si atom -5570.755045 kJ/mol
# Density = 2.222288 g / cm^3
# Si number density = 22.273579 Si / 1000 Ang^3
#
#
#
# Elastic Constant Matrix: (Units=GPa)
#
#
# Indices 1 2 3 4 5 6 
#
# 1 77.0663 2.4812 -7.5931 0.0000 0.0000 0.0000
# 2 2.4812 69.9888 30.4297 0.0000 0.0000 0.0000
# 3 -7.5931 30.4297 120.8127 0.0000 0.0000 0.0000
# 4 0.0000 0.0000 0.0000 25.2528 0.0000 0.0000
# 5 0.0000 0.0000 0.0000 0.0000 8.1191 0.0000
# 6 0.0000 0.0000 0.0000 0.0000 0.0000 26.9879
#
#
#
# Elastic Compliance Matrix: (Units=1/GPa)
#
#
# Indices 1 2 3 4 5 6 
#
# 1 0.013110 -0.000924 0.001057 0.000000 0.000000 0.000000
# 2 -0.000924 0.016110 -0.004116 0.000000 0.000000 0.000000
# 3 0.001057 -0.004116 0.009380 0.000000 0.000000 0.000000
# 4 0.000000 0.000000 0.000000 0.039600 0.000000 0.000000
# 5 0.000000 0.000000 0.000000 0.000000 0.123166 0.000000
# 6 0.000000 0.000000 0.000000 0.000000 0.000000 0.037054
#
#
# Mechanical properties :
#
#
# Convention : Reuss Voigt Hill
#
# Bulk Modulus (GPa) = 32.64380 35.38927 34.01653
# Shear Modulus (GPa) = 19.48579 28.24196 23.86388
#
# Velocity S-wave (km/s) = 2.96098 3.56470 3.27677
# Velocity P-wave (km/s) = 5.13590 5.73287 5.44257
#
# Compressibility (1/GPa) = 0.03063369
#
# Stress axis : x y z
#
# Youngs Moduli (GPa) = 76.27930 62.07224 106.60554
#
# Poissons Ratio (x) = 0.05737 -0.11265
# Poissons Ratio (y) = 0.07050 0.43877
# Poissons Ratio (z) = -0.08061 0.25548
#
# Static dielectric constant tensor:
#      x y z
#    x 1.883630 0.000000 0.000000 
#    y 0.000000 1.858950 0.000000 
#    z 0.000000 0.000000 1.865670 
# 
# From -- ./inp_files/43439.got.cif
#   From: 2010.05.17/outbox.cif.g08.bks.cpg/sg63_22_cif.got.tgz:43439.got - 2010.06.03 15:47:04.
