data_PCOD9472577
_publ_section_title
;
Structure prediction by ZEFSAII (Michael W. Deem and Ramdas Pophale) SiO2 
 PCOD9472577
Probable space group: C M C M
;
_chemical_formula_sum "Si O2"
_cell_formula_units_Z 88
_cell_length_a 21.075480
_cell_length_b 30.615846
_cell_length_c 7.965217
_cell_angle_alpha 90.000000
_cell_angle_beta 90.000000
_cell_angle_gamma 90.000000
_cell_volume 5139.505691
_symmetry_space_group_name_H-M "C M C M"
_symmetry_group_IT_number 63
_symmetry_cell_setting 'orthorhombic'
loop_
_space_group_symop_operation_xyz
x,y,z
-x,-y,1/2+z
x,-y,-z
-x,y,1/2-z
-x,-y,-z
x,y,1/2-z
-x,y,z
x,-y,1/2+z
1/2+x,1/2+y,z
1/2-x,1/2-y,1/2+z
1/2+x,1/2-y,-z
1/2-x,1/2+y,1/2-z
1/2-x,1/2-y,-z
1/2+x,1/2+y,1/2-z
1/2-x,1/2+y,z
1/2+x,1/2-y,1/2+z
loop_
_atom_site_type_symbol
_atom_site_label
_atom_site_fract_x
_atom_site_fract_y
_atom_site_fract_z
Si Si1 0.860275 0.949530 0.450673
Si Si2 0.699674 0.366179 0.551232
Si Si3 0.568027 0.329457 0.952014
Si Si4 0.792571 0.291751 0.447614
Si Si5 0.000000 0.051300 0.952281
Si Si6 0.568762 0.774947 0.452138
O O1 0.861462 0.946987 0.250000
O O2 0.805701 0.917581 0.516755
O O3 0.930479 0.933997 0.516047
O O4 0.852010 0.000000 0.500000
O O5 0.699845 0.358742 0.750000
O O6 0.632972 0.348324 0.477682
O O7 0.755885 0.336677 0.481833
O O8 0.567570 0.336758 0.750000
O O9 0.500000 0.345685 0.019998
O O10 0.570157 0.277359 0.975928
O O11 0.800072 0.286334 0.250000
O O12 0.750000 0.250000 0.500000
O O13 0.864030 0.291836 0.520952
O O14 0.000000 0.055598 0.750000
O O15 0.000000 0.000000 0.000000
O O16 0.567617 0.782445 0.250000
O O17 0.500000 0.790764 0.517956
#
# Coordination Sequence:
#
# PCOD9472577 Si02
#       6
#    16  16  16  16   8  16
#     4  10  20  35  50  68  93 123 160 204 249 292
#     4  11  21  32  48  70  94 127 164 201 244 292
#     4   8  14  25  41  63  89 120 161 201 234 274
#     4  11  20  32  49  70  98 128 160 201 244 289
#     4   8  16  30  48  66  90 120 156 202 250 290
#     4   8  14  27  47  67  89 121 162 201 235 276
#
# _framework density 17.12227
#
# number of rings (size 3 to 8) (size 9 to 14) (size 15 to 20)
#    0.000    2.545    1.818    2.727    1.273    0.727 
#    0.000    0.000    0.000    3.273    0.000    0.000 
#    0.000    0.727    0.000    2.000    0.000    2.909 
#
# Total GULP energy -245155.696710 kJ/mol
# GULP energy per Si atom -5571.720380 kJ/mol
# Density = 1.708330 g / cm^3
# Si number density = 17.122270 Si / 1000 Ang^3
#
#
#
# Elastic Constant Matrix: (Units=GPa)
#
#
# Indices 1 2 3 4 5 6 
#
# 1 146.3408 56.5916 9.9879 0.0000 0.0000 0.0000
# 2 56.5916 55.5827 -3.4575 0.0000 0.0000 0.0000
# 3 9.9879 -3.4575 26.6371 0.0000 0.0000 0.0000
# 4 0.0000 0.0000 0.0000 18.6123 0.0000 0.0000
# 5 0.0000 0.0000 0.0000 0.0000 14.4759 0.0000
# 6 0.0000 0.0000 0.0000 0.0000 0.0000 11.9351
#
#
#
# Elastic Compliance Matrix: (Units=1/GPa)
#
#
# Indices 1 2 3 4 5 6 
#
# 1 0.012223 -0.012833 -0.006249 0.000000 0.000000 0.000000
# 2 -0.012833 0.031612 0.008915 0.000000 0.000000 0.000000
# 3 -0.006249 0.008915 0.041042 0.000000 0.000000 0.000000
# 4 0.000000 0.000000 0.000000 0.053728 0.000000 0.000000
# 5 0.000000 0.000000 0.000000 0.000000 0.069080 0.000000
# 6 0.000000 0.000000 0.000000 0.000000 0.000000 0.083786
#
#
# Mechanical properties :
#
#
# Convention : Reuss Voigt Hill
#
# Bulk Modulus (GPa) = 15.49361 39.42275 27.45818
# Shear Modulus (GPa) = 15.00067 20.03390 17.51729
#
# Velocity S-wave (km/s) = 2.96310 3.42431 3.20202
# Velocity P-wave (km/s) = 4.55796 6.22164 5.45361
#
# Compressibility (1/GPa) = 0.06454275
#
# Stress axis : x y z
#
# Youngs Moduli (GPa) = 81.81593 31.63370 24.36541
#
# Poissons Ratio (x) = 0.40596 0.15225
# Poissons Ratio (y) = 1.04995 -0.21722
# Poissons Ratio (z) = 0.51125 -0.28202
#
# Static dielectric constant tensor:
#      x y z
#    x 1.647360 0.000000 0.000000 
#    y 0.000000 1.577770 0.000000 
#    z 0.000000 0.000000 1.621660 
# 
# From -- ./inp_files/8560.got.cif
#   From: 2010.05.17/outbox.cif.g08.bks.cpg/sg63_5_cif.got.tgz:8560.got - 2010.06.03 15:47:04.
