data_PCOD9472187
_publ_section_title
;
Structure prediction by ZEFSAII (Michael W. Deem and Ramdas Pophale) SiO2 
 PCOD9472187
Probable space group: C M C M
;
_chemical_formula_sum "Si O2"
_cell_formula_units_Z 72
_cell_length_a 25.071822
_cell_length_b 11.017472
_cell_length_c 14.349962
_cell_angle_alpha 90.000000
_cell_angle_beta 90.000000
_cell_angle_gamma 90.000000
_cell_volume 3963.862693
_symmetry_space_group_name_H-M "C M C M"
_symmetry_group_IT_number 63
_symmetry_cell_setting 'orthorhombic'
loop_
_space_group_symop_operation_xyz
x,y,z
-x,-y,1/2+z
x,-y,-z
-x,y,1/2-z
-x,-y,-z
x,y,1/2-z
-x,y,z
x,-y,1/2+z
1/2+x,1/2+y,z
1/2-x,1/2-y,1/2+z
1/2+x,1/2-y,-z
1/2-x,1/2+y,1/2-z
1/2-x,1/2-y,-z
1/2+x,1/2+y,1/2-z
1/2-x,1/2+y,z
1/2+x,1/2-y,1/2+z
loop_
_atom_site_type_symbol
_atom_site_label
_atom_site_fract_x
_atom_site_fract_y
_atom_site_fract_z
Si Si1 0.322378 0.500000 0.000000
Si Si2 0.850315 0.373997 0.350601
Si Si3 0.855897 0.250029 0.949722
Si Si4 0.234352 0.409724 0.641354
Si Si5 0.560119 0.942633 0.896652
O O1 0.355658 0.605410 0.949820
O O2 0.284361 0.433722 0.924753
O O3 0.844408 0.311796 0.250000
O O4 0.854134 0.293552 0.442516
O O5 0.801562 0.467957 0.363909
O O6 0.902437 0.459563 0.346977
O O7 0.803025 0.302899 0.899344
O O8 0.906267 0.318207 0.903539
O O9 0.246598 0.388390 0.750000
O O10 0.500000 0.928094 0.861615
O O11 0.556845 0.000000 0.000000
#
# Coordination Sequence:
#
# PCOD9472187 Si02
#       5
#     8  16  16  16  16
#     4  12  22  34  49  74 105 150 178 212 260 316
#     4   9  17  31  52  77 102 130 170 221 268 308
#     4  10  20  35  50  74 109 137 176 219 259 318
#     4  10  20  34  52  72  99 137 180 223 265 308
#     4   8  15  31  54  76 100 130 165 215 268 310
#
# _framework density 18.164100000000001
#
# number of rings (size 3 to 8) (size 9 to 14) (size 15 to 20)
#    0.000    2.444    2.222    2.000    0.000    2.222 
#    0.000    0.556    0.000    0.000    0.000    0.000 
#    0.000    8.889    0.000    0.000    0.000    0.000 
#
# Total GULP energy -200767.580099 kJ/mol
# GULP energy per Si atom -5576.877225 kJ/mol
# Density = 1.812276 g / cm^3
# Si number density = 18.164100 Si / 1000 Ang^3
#
#
#
# Elastic Constant Matrix: (Units=GPa)
#
#
# Indices 1 2 3 4 5 6 
#
# 1 82.6621 44.1599 10.1670 0.0000 0.0000 0.0000
# 2 44.1599 79.4534 1.5472 0.0000 0.0000 0.0000
# 3 10.1670 1.5472 80.2344 0.0000 0.0000 0.0000
# 4 0.0000 0.0000 0.0000 6.2466 0.0000 0.0000
# 5 0.0000 0.0000 0.0000 0.0000 -10.0983 0.0000
# 6 0.0000 0.0000 0.0000 0.0000 0.0000 3.7281
#
#
#
# Elastic Compliance Matrix: (Units=1/GPa)
#
#
# Indices 1 2 3 4 5 6 
#
# 1 0.017532 -0.009705 -0.002034 0.000000 0.000000 0.000000
# 2 -0.009705 0.017963 0.000883 0.000000 0.000000 0.000000
# 3 -0.002034 0.000883 0.012704 0.000000 0.000000 0.000000
# 4 0.000000 0.000000 0.000000 0.160087 0.000000 0.000000
# 5 0.000000 0.000000 0.000000 0.000000 -0.099026 0.000000
# 6 0.000000 0.000000 0.000000 0.000000 0.000000 0.268235
#
#
# Mechanical properties :
#
#
# Convention : Reuss Voigt Hill
#
# Bulk Modulus (GPa) = 37.75373 39.34421 38.54897
# Shear Modulus (GPa) = 12.25385 12.40700 12.33042
#
# Velocity S-wave (km/s) = 2.60016 2.61636 2.60827
# Velocity P-wave (km/s) = 5.46300 5.55289 5.50813
#
# Compressibility (1/GPa) = 0.02648745
#
# Stress axis : x y z
#
# Youngs Moduli (GPa) = 57.03825 55.67122 78.71380
#
# Poissons Ratio (x) = 0.54027 0.16014
# Poissons Ratio (y) = 0.55354 -0.06953
# Poissons Ratio (z) = 0.11604 -0.04918
#
# Static dielectric constant tensor:
#      x y z
#    x 1.623220 0.000000 0.000000 
#    y 0.000000 1.617500 0.000000 
#    z 0.000000 0.000000 1.643150 
# 
# From -- ./inp_files/38340.got.cif
#   From: 2010.05.17/outbox.cif.g08.bks.cpg/sg63_20_cif.got.tgz:38340.got - 2010.06.03 15:47:04.
