data_PCOD9472139
_publ_section_title
;
Structure prediction by ZEFSAII (Michael W. Deem and Ramdas Pophale) SiO2 
 PCOD9472139
Probable space group: C M C M
;
_chemical_formula_sum "Si O2"
_cell_formula_units_Z 104
_cell_length_a 27.022602
_cell_length_b 24.160121
_cell_length_c 8.873128
_cell_angle_alpha 90.000000
_cell_angle_beta 90.000000
_cell_angle_gamma 90.000000
_cell_volume 5792.993168
_symmetry_space_group_name_H-M "C M C M"
_symmetry_group_IT_number 63
_symmetry_cell_setting 'orthorhombic'
loop_
_space_group_symop_operation_xyz
x,y,z
-x,-y,1/2+z
x,-y,-z
-x,y,1/2-z
-x,-y,-z
x,y,1/2-z
-x,y,z
x,-y,1/2+z
1/2+x,1/2+y,z
1/2-x,1/2-y,1/2+z
1/2+x,1/2-y,-z
1/2-x,1/2+y,1/2-z
1/2-x,1/2-y,-z
1/2+x,1/2+y,1/2-z
1/2-x,1/2+y,z
1/2+x,1/2-y,1/2+z
loop_
_atom_site_type_symbol
_atom_site_label
_atom_site_fract_x
_atom_site_fract_y
_atom_site_fract_z
Si Si1 0.920024 0.353953 0.067460
Si Si2 0.500000 0.062185 0.432234
Si Si3 0.324551 0.212580 0.570845
Si Si4 0.789218 0.821622 0.430165
Si Si5 0.428444 0.556874 0.576527
Si Si6 0.500000 0.763790 0.068571
Si Si7 0.500000 0.359811 0.930168
Si Si8 0.809748 0.056851 0.576102
O O1 0.921219 0.362902 0.250000
O O2 0.864620 0.334137 0.022868
O O3 0.952472 0.299812 0.028826
O O4 0.951019 0.404116 0.991434
O O5 0.500000 0.060896 0.250000
O O6 0.500000 0.000000 0.500000
O O7 0.332178 0.219511 0.750000
O O8 0.268323 0.192980 0.544257
O O9 0.324509 0.273826 0.497464
O O10 0.798015 0.822711 0.250000
O O11 0.795696 0.883732 0.491609
O O12 0.444663 0.500000 0.500000
O O13 0.443533 0.558498 0.750000
O O14 0.452520 0.607359 0.489106
O O15 0.369257 0.557363 0.572113
O O16 0.500000 0.759952 0.250000
O O17 0.500000 0.702278 0.008476
O O18 0.500000 0.359680 0.750000
O O19 0.793224 0.055740 0.750000
O O20 0.792466 0.000000 0.500000
#
# Coordination Sequence:
#
# PCOD9472139 Si02
#       8
#    16   8  16  16  16   8   8  16
#     4   9  18  36  57  79 110 143 176 216 258 310
#     4  11  22  38  61  87 112 145 181 218 268 326
#     4   9  18  32  55  81 107 142 178 214 264 320
#     4   9  18  33  51  77 110 140 175 221 269 314
#     4  10  20  34  48  64  88 124 165 207 253 299
#     4   8  17  31  47  70 100 131 164 203 248 295
#     4  11  21  31  46  69  94 124 161 207 251 297
#     4   9  19  34  51  70  97 132 170 213 257 300
#
# _framework density 17.952722000000001
#
# number of rings (size 3 to 8) (size 9 to 14) (size 15 to 20)
#    0.000    2.615    0.000    2.077    2.154    1.846 
#    0.000    3.846    0.000    1.846    0.000    0.000 
#    0.000    0.000    0.000    0.000    0.000    0.000 
#
# Total GULP energy -289558.548865 kJ/mol
# GULP energy per Si atom -5568.433632 kJ/mol
# Density = 1.791186 g / cm^3
# Si number density = 17.952722 Si / 1000 Ang^3
#
#
#
# Elastic Constant Matrix: (Units=GPa)
#
#
# Indices 1 2 3 4 5 6 
#
# 1 51.1739 34.5079 29.8303 0.0000 0.0000 0.0000
# 2 34.5079 169.6019 51.4014 0.0000 0.0000 0.0000
# 3 29.8303 51.4014 57.7653 0.0000 0.0000 0.0000
# 4 0.0000 0.0000 0.0000 28.0633 0.0000 0.0000
# 5 0.0000 0.0000 0.0000 0.0000 17.2939 0.0000
# 6 0.0000 0.0000 0.0000 0.0000 0.0000 10.4815
#
#
#
# Elastic Compliance Matrix: (Units=1/GPa)
#
#
# Indices 1 2 3 4 5 6 
#
# 1 0.028363 -0.001824 -0.013024 0.000000 0.000000 0.000000
# 2 -0.001824 0.008191 -0.006347 0.000000 0.000000 0.000000
# 3 -0.013024 -0.006347 0.029684 0.000000 0.000000 0.000000
# 4 0.000000 0.000000 0.000000 0.035634 0.000000 0.000000
# 5 0.000000 0.000000 0.000000 0.000000 0.057824 0.000000
# 6 0.000000 0.000000 0.000000 0.000000 0.000000 0.095406
#
#
# Mechanical properties :
#
#
# Convention : Reuss Voigt Hill
#
# Bulk Modulus (GPa) = 41.92943 56.66892 49.29918
# Shear Modulus (GPa) = 16.36984 22.02117 19.19550
#
# Velocity S-wave (km/s) = 3.02293 3.50611 3.27345
# Velocity P-wave (km/s) = 5.96576 6.92998 6.46587
#
# Compressibility (1/GPa) = 0.02384960
#
# Stress axis : x y z
#
# Youngs Moduli (GPa) = 35.25736 122.09006 33.68763
#
# Poissons Ratio (x) = 0.22265 0.43875
# Poissons Ratio (y) = 0.06430 0.21380
# Poissons Ratio (z) = 0.45919 0.77486
#
# Static dielectric constant tensor:
#      x y z
#    x 1.634910 0.000000 0.000000 
#    y 0.000000 1.626760 0.000000 
#    z 0.000000 0.000000 1.619490 
# 
# From -- ./inp_files/14706.got.cif
#   From: 2010.05.17/outbox.cif.g08.bks.cpg/sg63_8_cif.got.tgz:14706.got - 2010.06.03 15:47:04.
