data_PCOD9472635
_publ_section_title
;
Structure prediction by ZEFSAII (Michael W. Deem and Ramdas Pophale) SiO2 
 PCOD9472635
Probable space group: C M C M
;
_chemical_formula_sum "Si O2"
_cell_formula_units_Z 80
_cell_length_a 20.694708
_cell_length_b 23.585526
_cell_length_c 7.430588
_cell_angle_alpha 90.000000
_cell_angle_beta 90.000000
_cell_angle_gamma 90.000000
_cell_volume 3626.837112
_symmetry_space_group_name_H-M "C M C M"
_symmetry_group_IT_number 63
_symmetry_cell_setting 'orthorhombic'
loop_
_space_group_symop_operation_xyz
x,y,z
-x,-y,1/2+z
x,-y,-z
-x,y,1/2-z
-x,-y,-z
x,y,1/2-z
-x,y,z
x,-y,1/2+z
1/2+x,1/2+y,z
1/2-x,1/2-y,1/2+z
1/2+x,1/2-y,-z
1/2-x,1/2+y,1/2-z
1/2-x,1/2-y,-z
1/2+x,1/2+y,1/2-z
1/2-x,1/2+y,z
1/2+x,1/2-y,1/2+z
loop_
_atom_site_type_symbol
_atom_site_label
_atom_site_fract_x
_atom_site_fract_y
_atom_site_fract_z
Si Si1 0.925190 0.326742 0.969819
Si Si2 0.432820 0.434019 0.534661
Si Si3 0.659337 0.067009 0.034501
Si Si4 0.822655 0.230107 0.964029
Si Si5 0.300293 0.397139 0.954648
O O1 0.925247 0.326242 0.750000
O O2 0.893961 0.387098 0.028464
O O3 0.876590 0.275649 0.025306
O O4 0.000000 0.320234 0.026665
O O5 0.439051 0.500000 0.500000
O O6 0.430315 0.422801 0.750000
O O7 0.500000 0.406259 0.468367
O O8 0.363636 0.421018 0.452523
O O9 0.659777 0.073430 0.250000
O O10 0.730191 0.087639 0.967179
O O11 0.648664 0.000000 0.000000
O O12 0.831786 0.223213 0.750000
O O13 0.750000 0.250000 0.000000
O O14 0.819477 0.168605 0.051094
O O15 0.296839 0.419690 0.750000
#
# Coordination Sequence:
#
# PCOD9472635 Si02
#       5
#    16  16  16  16  16
#     4   9  19  37  58  80 110 147 183 223 274 327
#     4   9  18  32  50  73 107 147 182 223 272 321
#     4  10  20  35  55  80 109 144 183 226 272 322
#     4  11  21  36  59  83 108 141 180 221 270 325
#     4  10  20  35  54  79 111 143 181 224 274 325
#
# _framework density 22.057787999999999
#
# number of rings (size 3 to 8) (size 9 to 14) (size 15 to 20)
#    0.000    2.200    2.000    1.200    0.000    2.800 
#    0.000    0.000    0.000    4.200    0.000    0.000 
#    0.000    0.000    0.000    0.000    0.000    0.000 
#
# Total GULP energy -222787.281470 kJ/mol
# GULP energy per Si atom -5569.682037 kJ/mol
# Density = 2.200758 g / cm^3
# Si number density = 22.057788 Si / 1000 Ang^3
#
#
#
# Elastic Constant Matrix: (Units=GPa)
#
#
# Indices 1 2 3 4 5 6 
#
# 1 195.9804 56.8387 -4.0658 0.0000 0.0000 0.0000
# 2 56.8387 93.1106 -21.9349 0.0000 0.0000 0.0000
# 3 -4.0658 -21.9349 77.2107 0.0000 0.0000 0.0000
# 4 0.0000 0.0000 0.0000 22.9813 0.0000 0.0000
# 5 0.0000 0.0000 0.0000 0.0000 -4.7277 0.0000
# 6 0.0000 0.0000 0.0000 0.0000 0.0000 39.6586
#
#
#
# Elastic Compliance Matrix: (Units=1/GPa)
#
#
# Indices 1 2 3 4 5 6 
#
# 1 0.006247 -0.004004 -0.000809 0.000000 0.000000 0.000000
# 2 -0.004004 0.014076 0.003788 0.000000 0.000000 0.000000
# 3 -0.000809 0.003788 0.013985 0.000000 0.000000 0.000000
# 4 0.000000 0.000000 0.000000 0.043514 0.000000 0.000000
# 5 0.000000 0.000000 0.000000 0.000000 -0.211521 0.000000
# 6 0.000000 0.000000 0.000000 0.000000 0.000000 0.025215
#
#
# Mechanical properties :
#
#
# Convention : Reuss Voigt Hill
#
# Bulk Modulus (GPa) = 30.99798 47.55309 39.27554
# Shear Modulus (GPa) = -52.25677 33.94668 -9.15504
#
# Velocity S-wave (km/s) = -4.87260 3.92725 -2.03948
# Velocity P-wave (km/s) = 4.19199 6.49381 3.50691
#
# Compressibility (1/GPa) = 0.03226016
#
# Stress axis : x y z
#
# Youngs Moduli (GPa) = 160.07673 71.04039 71.50422
#
# Poissons Ratio (x) = 0.28444 0.05781
# Poissons Ratio (y) = 0.64093 -0.27087
# Poissons Ratio (z) = 0.12943 -0.26911
#
# Static dielectric constant tensor:
#      x y z
#    x 2.574190 0.000000 0.000000 
#    y 0.000000 1.876690 0.000000 
#    z 0.000000 0.000000 1.883510 
# 
# From -- ./inp_files/6414.got.cif
#   From: 2010.05.17/outbox.cif.g08.bks.cpg/sg63_4_cif.got.tgz:6414.got - 2010.06.03 15:47:04.
