data_PCOD9472539
_publ_section_title
;
Structure prediction by ZEFSAII (Michael W. Deem and Ramdas Pophale) SiO2 
 PCOD9472539
Probable space group: C M C M
;
_chemical_formula_sum "Si O2"
_cell_formula_units_Z 88
_cell_length_a 21.362041
_cell_length_b 13.882970
_cell_length_c 14.567800
_cell_angle_alpha 90.000000
_cell_angle_beta 90.000000
_cell_angle_gamma 90.000000
_cell_volume 4320.351677
_symmetry_space_group_name_H-M "C M C M"
_symmetry_group_IT_number 63
_symmetry_cell_setting 'orthorhombic'
loop_
_space_group_symop_operation_xyz
x,y,z
-x,-y,1/2+z
x,-y,-z
-x,y,1/2-z
-x,-y,-z
x,y,1/2-z
-x,y,z
x,-y,1/2+z
1/2+x,1/2+y,z
1/2-x,1/2-y,1/2+z
1/2+x,1/2-y,-z
1/2-x,1/2+y,1/2-z
1/2-x,1/2-y,-z
1/2+x,1/2+y,1/2-z
1/2-x,1/2+y,z
1/2+x,1/2-y,1/2+z
loop_
_atom_site_type_symbol
_atom_site_label
_atom_site_fract_x
_atom_site_fract_y
_atom_site_fract_z
Si Si1 0.754073 0.972852 0.145484
Si Si2 0.000000 0.972150 0.858129
Si Si3 0.193278 0.218412 0.563393
Si Si4 0.000000 0.191276 0.859022
Si Si5 0.631466 0.412534 0.571074
Si Si6 0.644032 0.000000 0.000000
Si Si7 0.103808 0.351760 0.643357
O O1 0.733067 0.978948 0.250000
O O2 0.791146 0.873761 0.125441
O O3 0.694635 0.966373 0.077365
O O4 0.805035 0.057764 0.125997
O O5 0.000000 0.082690 0.899755
O O6 0.000000 0.983690 0.750000
O O7 0.064453 0.917384 0.880814
O O8 0.250000 0.250000 0.500000
O O9 0.143209 0.183092 0.487198
O O10 0.171912 0.305407 0.627389
O O11 0.058599 0.261064 0.875718
O O12 0.000000 0.176404 0.750000
O O13 0.628050 0.500000 0.500000
O O14 0.600978 0.070568 0.061537
O O15 0.094312 0.382769 0.750000
#
# Coordination Sequence:
#
# PCOD9472539 Si02
#       7
#    16   8  16   8  16   8  16
#     4  11  20  36  58  84 120 160 199 249 312 373
#     4  11  21  37  60  91 128 168 207 243 302 369
#     4  11  20  37  59  88 123 160 203 251 299 360
#     4   9  20  38  62  91 119 156 209 254 296 365
#     4  10  20  34  57  88 122 161 206 252 299 364
#     4  12  22  39  60  85 118 152 202 260 320 378
#     4  11  23  40  63  89 117 154 204 258 308 366
#
# _framework density 20.368711999999999
#
# number of rings (size 3 to 8) (size 9 to 14) (size 15 to 20)
#    0.000    1.273    4.545    4.091    0.000    2.545 
#    0.000    2.727    0.000    0.000    0.000    1.273 
#    0.000    0.000    0.000    0.000    0.000    0.000 
#
# Total GULP energy -245086.755195 kJ/mol
# GULP energy per Si atom -5570.153527 kJ/mol
# Density = 2.032235 g / cm^3
# Si number density = 20.368712 Si / 1000 Ang^3
#
#
#
# Elastic Constant Matrix: (Units=GPa)
#
#
# Indices 1 2 3 4 5 6 
#
# 1 82.4567 20.9507 34.5978 0.0000 0.0000 0.0000
# 2 20.9507 61.8059 35.7689 0.0000 0.0000 0.0000
# 3 34.5978 35.7689 129.5266 0.0000 0.0000 0.0000
# 4 0.0000 0.0000 0.0000 31.0709 0.0000 0.0000
# 5 0.0000 0.0000 0.0000 0.0000 21.2471 0.0000
# 6 0.0000 0.0000 0.0000 0.0000 0.0000 149.9658
#
#
#
# Elastic Compliance Matrix: (Units=1/GPa)
#
#
# Indices 1 2 3 4 5 6 
#
# 1 0.014141 -0.003104 -0.002920 0.000000 0.000000 0.000000
# 2 -0.003104 0.019938 -0.004677 0.000000 0.000000 0.000000
# 3 -0.002920 -0.004677 0.009792 0.000000 0.000000 0.000000
# 4 0.000000 0.000000 0.000000 0.032184 0.000000 0.000000
# 5 0.000000 0.000000 0.000000 0.000000 0.047065 0.000000
# 6 0.000000 0.000000 0.000000 0.000000 0.000000 0.006668
#
#
# Mechanical properties :
#
#
# Convention : Reuss Voigt Hill
#
# Bulk Modulus (GPa) = 44.50338 50.71377 47.60858
# Shear Modulus (GPa) = 31.50964 52.62155 42.06559
#
# Velocity S-wave (km/s) = 3.93741 5.08828 4.54938
# Velocity P-wave (km/s) = 6.52436 7.71185 7.14283
#
# Compressibility (1/GPa) = 0.02247020
#
# Stress axis : x y z
#
# Youngs Moduli (GPa) = 70.71420 50.15440 102.12395
#
# Poissons Ratio (x) = 0.15566 0.29823
# Poissons Ratio (y) = 0.21946 0.47764
# Poissons Ratio (z) = 0.20650 0.23457
#
# Static dielectric constant tensor:
#      x y z
#    x 1.842090 0.000000 0.000000 
#    y 0.000000 1.776750 0.000000 
#    z 0.000000 0.000000 1.729050 
# 
# From -- ./inp_files/35269.got.cif
#   From: 2010.05.17/outbox.cif.g08.bks.cpg/sg63_18_cif.got.tgz:35269.got - 2010.06.03 15:47:04.
