data_PCOD9472264
_publ_section_title
;
Structure prediction by ZEFSAII (Michael W. Deem and Ramdas Pophale) SiO2 
 PCOD9472264
Probable space group: C M C M
;
_chemical_formula_sum "Si O2"
_cell_formula_units_Z 112
_cell_length_a 16.218663
_cell_length_b 23.093775
_cell_length_c 14.722033
_cell_angle_alpha 90.000000
_cell_angle_beta 90.000000
_cell_angle_gamma 90.000000
_cell_volume 5514.139729
_symmetry_space_group_name_H-M "C M C M"
_symmetry_group_IT_number 63
_symmetry_cell_setting 'orthorhombic'
loop_
_space_group_symop_operation_xyz
x,y,z
-x,-y,1/2+z
x,-y,-z
-x,y,1/2-z
-x,-y,-z
x,y,1/2-z
-x,y,z
x,-y,1/2+z
1/2+x,1/2+y,z
1/2-x,1/2-y,1/2+z
1/2+x,1/2-y,-z
1/2-x,1/2+y,1/2-z
1/2-x,1/2-y,-z
1/2+x,1/2+y,1/2-z
1/2-x,1/2+y,z
1/2+x,1/2-y,1/2+z
loop_
_atom_site_type_symbol
_atom_site_label
_atom_site_fract_x
_atom_site_fract_y
_atom_site_fract_z
Si Si1 0.410522 0.557727 0.858317
Si Si2 0.589599 0.752426 0.410405
Si Si3 0.090375 0.531264 0.097956
Si Si4 0.764655 0.281617 0.651724
Si Si5 0.340698 0.139058 0.495798
Si Si6 0.732138 0.947238 0.145893
Si Si7 0.091782 0.805776 0.397951
O O1 0.415324 0.549689 0.750000
O O2 0.500000 0.539003 0.896395
O O3 0.322665 0.530876 0.885099
O O4 0.401164 0.626370 0.877604
O O5 0.500000 0.747221 0.365505
O O6 0.672312 0.742790 0.354128
O O7 0.599001 0.815612 0.455840
O O8 0.592399 0.707657 0.494739
O O9 0.165002 0.498278 0.145671
O O10 0.000000 0.525797 0.140820
O O11 0.085972 0.500000 0.000000
O O12 0.112374 0.596822 0.073340
O O13 0.776410 0.310392 0.750000
O O14 0.779192 0.323185 0.565818
O O15 0.833019 0.230987 0.642467
O O16 0.297416 0.100958 0.573899
O O17 0.738105 0.924723 0.250000
O O18 0.000000 0.787188 0.364971
#
# Coordination Sequence:
#
# PCOD9472264 Si02
#       7
#    16  16  16  16  16  16  16
#     4   9  16  27  47  75 104 133 167 213 270 325
#     4  10  20  34  53  76 105 144 186 226 270 324
#     4   9  19  36  56  77 105 140 178 226 283 336
#     4  11  22  34  51  79 116 153 186 222 269 329
#     4  10  20  37  57  79 109 146 188 232 277 327
#     4  10  20  34  55  81 107 138 182 237 289 332
#     4   9  17  31  51  74 101 134 177 231 283 325
#
# _framework density 20.311418
#
# number of rings (size 3 to 8) (size 9 to 14) (size 15 to 20)
#    0.000    2.286    0.000    4.286    0.000    4.857 
#    0.000    0.000    0.000    4.714    0.000    2.000 
#    0.000    0.000    0.000    0.000    0.000    0.000 
#
# Total GULP energy -312176.653694 kJ/mol
# GULP energy per Si atom -5574.583102 kJ/mol
# Density = 2.026519 g / cm^3
# Si number density = 20.311418 Si / 1000 Ang^3
#
#
#
# Elastic Constant Matrix: (Units=GPa)
#
#
# Indices 1 2 3 4 5 6 
#
# 1 199.3468 32.7296 29.3145 0.0000 0.0000 0.0000
# 2 32.7296 40.5747 4.3669 0.0000 0.0000 0.0000
# 3 29.3145 4.3669 70.0538 0.0000 0.0000 0.0000
# 4 0.0000 0.0000 0.0000 12.6258 0.0000 0.0000
# 5 0.0000 0.0000 0.0000 0.0000 -6.8589 0.0000
# 6 0.0000 0.0000 0.0000 0.0000 0.0000 -12.1186
#
#
#
# Elastic Compliance Matrix: (Units=1/GPa)
#
#
# Indices 1 2 3 4 5 6 
#
# 1 0.006120 -0.004693 -0.002269 0.000000 0.000000 0.000000
# 2 -0.004693 0.028411 0.000193 0.000000 0.000000 0.000000
# 3 -0.002269 0.000193 0.015212 0.000000 0.000000 0.000000
# 4 0.000000 0.000000 0.000000 0.079203 0.000000 0.000000
# 5 0.000000 0.000000 0.000000 0.000000 -0.145797 0.000000
# 6 0.000000 0.000000 0.000000 0.000000 0.000000 -0.082518
#
#
# Mechanical properties :
#
#
# Convention : Reuss Voigt Hill
#
# Bulk Modulus (GPa) = 27.61996 49.19969 38.40983
# Shear Modulus (GPa) = -67.78571 14.96728 -26.40922
#
# Velocity S-wave (km/s) = -5.78322 2.71752 -3.60976
# Velocity P-wave (km/s) = 5.56475 5.84139 1.25606
#
# Compressibility (1/GPa) = 0.03620570
#
# Stress axis : x y z
#
# Youngs Moduli (GPa) = 163.38535 35.19795 65.73740
#
# Poissons Ratio (x) = 0.16518 0.14913
# Poissons Ratio (y) = 0.76676 -0.01267
# Poissons Ratio (z) = 0.37066 -0.00679
#
# Static dielectric constant tensor:
#      x y z
#    x 1.786200 0.000000 0.000000 
#    y 0.000000 1.701660 0.000000 
#    z 0.000000 0.000000 1.729470 
# 
# From -- ./inp_files/32325.got.cif
#   From: 2010.05.17/outbox.cif.g08.bks.cpg/sg63_17_cif.got.tgz:32325.got - 2010.06.03 15:47:04.
