data_PCOD9472525
_publ_section_title
;
Structure prediction by ZEFSAII (Michael W. Deem and Ramdas Pophale) SiO2 
 PCOD9472525
Probable space group: C M C M
;
_chemical_formula_sum "Si O2"
_cell_formula_units_Z 80
_cell_length_a 13.986644
_cell_length_b 12.694431
_cell_length_c 18.966748
_cell_angle_alpha 90.000000
_cell_angle_beta 90.000000
_cell_angle_gamma 90.000000
_cell_volume 3367.593281
_symmetry_space_group_name_H-M "C M C M"
_symmetry_group_IT_number 63
_symmetry_cell_setting 'orthorhombic'
loop_
_space_group_symop_operation_xyz
x,y,z
-x,-y,1/2+z
x,-y,-z
-x,y,1/2-z
-x,-y,-z
x,y,1/2-z
-x,y,z
x,-y,1/2+z
1/2+x,1/2+y,z
1/2-x,1/2-y,1/2+z
1/2+x,1/2-y,-z
1/2-x,1/2+y,1/2-z
1/2-x,1/2-y,-z
1/2+x,1/2+y,1/2-z
1/2-x,1/2+y,z
1/2+x,1/2-y,1/2+z
loop_
_atom_site_type_symbol
_atom_site_label
_atom_site_fract_x
_atom_site_fract_y
_atom_site_fract_z
Si Si1 0.610244 0.736509 0.530144
Si Si2 0.814754 0.731643 0.326362
Si Si3 0.393689 0.643734 0.168622
Si Si4 0.189494 0.058564 0.609122
Si Si5 0.894103 0.427190 0.069329
O O1 0.500000 0.706935 0.535227
O O2 0.637034 0.803888 0.600479
O O3 0.669985 0.628756 0.538757
O O4 0.622230 0.809365 0.462476
O O5 0.844365 0.688687 0.250000
O O6 0.700613 0.716089 0.333541
O O7 0.836946 0.856148 0.331279
O O8 0.395251 0.605898 0.250000
O O9 0.500000 0.687460 0.154280
O O10 0.371117 0.545488 0.118375
O O11 0.302509 0.039710 0.614009
O O12 0.000000 0.433022 0.102009
O O13 0.895702 0.500000 0.000000
#
# Coordination Sequence:
#
# PCOD9472525 Si02
#       5
#    16  16  16  16  16
#     4   9  19  34  54  81 109 144 187 226 274 330
#     4   9  20  34  54  84 113 147 185 228 280 336
#     4  10  20  36  57  82 114 149 186 232 287 339
#     4  10  20  34  57  82 113 146 188 232 281 329
#     4  10  20  35  56  78 108 150 188 228 283 336
#
# _framework density 23.755838000000001
#
# number of rings (size 3 to 8) (size 9 to 14) (size 15 to 20)
#    1.200    1.200    0.000    3.000    0.000    1.200 
#    0.000    0.000    0.000    5.400    0.000    0.000 
#    0.000    0.000    0.000    0.000    0.000    0.000 
#
# Total GULP energy -223004.137846 kJ/mol
# GULP energy per Si atom -5575.103446 kJ/mol
# Density = 2.370177 g / cm^3
# Si number density = 23.755838 Si / 1000 Ang^3
#
#
#
# Elastic Constant Matrix: (Units=GPa)
#
#
# Indices 1 2 3 4 5 6 
#
# 1 89.6037 -27.9147 5.8578 0.0000 0.0000 0.0000
# 2 -27.9147 45.3178 2.7480 0.0000 0.0000 0.0000
# 3 5.8578 2.7480 51.2792 0.0000 0.0000 0.0000
# 4 0.0000 0.0000 0.0000 17.6928 0.0000 0.0000
# 5 0.0000 0.0000 0.0000 0.0000 32.1674 0.0000
# 6 0.0000 0.0000 0.0000 0.0000 0.0000 26.1189
#
#
#
# Elastic Compliance Matrix: (Units=1/GPa)
#
#
# Indices 1 2 3 4 5 6 
#
# 1 0.014027 0.008766 -0.002072 0.000000 0.000000 0.000000
# 2 0.008766 0.027616 -0.002481 0.000000 0.000000 0.000000
# 3 -0.002072 -0.002481 0.019871 0.000000 0.000000 0.000000
# 4 0.000000 0.000000 0.000000 0.056520 0.000000 0.000000
# 5 0.000000 0.000000 0.000000 0.000000 0.031087 0.000000
# 6 0.000000 0.000000 0.000000 0.000000 0.000000 0.038286
#
#
# Mechanical properties :
#
#
# Convention : Reuss Voigt Hill
#
# Bulk Modulus (GPa) = 14.29830 16.39807 15.34819
# Shear Modulus (GPa) = 24.71632 28.89647 26.80639
#
# Velocity S-wave (km/s) = 3.22907 3.49147 3.36283
# Velocity P-wave (km/s) = 4.46480 4.81368 4.64252
#
# Compressibility (1/GPa) = 0.06993838
#
# Stress axis : x y z
#
# Youngs Moduli (GPa) = 71.29345 36.21051 50.32523
#
# Poissons Ratio (x) = -0.31741 0.10428
# Poissons Ratio (y) = -0.62493 0.12487
# Poissons Ratio (z) = 0.14772 0.08985
#
# Static dielectric constant tensor:
#      x y z
#    x 1.867600 0.000000 0.000000 
#    y 0.000000 1.954650 0.000000 
#    z 0.000000 0.000000 1.968480 
# 
# From -- ./inp_files/61096.got.cif
#   From: 2010.05.17/outbox.cif.g08.bks.cpg/sg63_31_cif.got.tgz:61096.got - 2010.06.03 15:47:04.
