data_PCOD9472661
_publ_section_title
;
Structure prediction by ZEFSAII (Michael W. Deem and Ramdas Pophale) SiO2 
 PCOD9472661
Probable space group: C M C M
;
_chemical_formula_sum "Si O2"
_cell_formula_units_Z 72
_cell_length_a 29.972307
_cell_length_b 14.423851
_cell_length_c 7.733017
_cell_angle_alpha 90.000000
_cell_angle_beta 90.000000
_cell_angle_gamma 90.000000
_cell_volume 3343.107676
_symmetry_space_group_name_H-M "C M C M"
_symmetry_group_IT_number 63
_symmetry_cell_setting 'orthorhombic'
loop_
_space_group_symop_operation_xyz
x,y,z
-x,-y,1/2+z
x,-y,-z
-x,y,1/2-z
-x,-y,-z
x,y,1/2-z
-x,y,z
x,-y,1/2+z
1/2+x,1/2+y,z
1/2-x,1/2-y,1/2+z
1/2+x,1/2-y,-z
1/2-x,1/2+y,1/2-z
1/2-x,1/2-y,-z
1/2+x,1/2+y,1/2-z
1/2-x,1/2+y,z
1/2+x,1/2-y,1/2+z
loop_
_atom_site_type_symbol
_atom_site_label
_atom_site_fract_x
_atom_site_fract_y
_atom_site_fract_z
Si Si1 0.187639 0.696155 0.960624
Si Si2 0.721443 0.394453 0.949409
Si Si3 0.000000 0.392960 0.457396
Si Si4 0.448813 0.602080 0.042920
Si Si5 0.910631 0.292542 0.461459
O O1 0.189851 0.695092 0.750000
O O2 0.198364 0.801377 0.025460
O O3 0.137586 0.671435 0.015857
O O4 0.226113 0.627611 0.024492
O O5 0.709602 0.389924 0.750000
O O6 0.711005 0.500000 0.000000
O O7 0.000000 0.500000 0.500000
O O8 0.954312 0.347050 0.522117
O O9 0.000000 0.379461 0.250000
O O10 0.451437 0.609134 0.250000
O O11 0.500000 0.610931 0.976679
O O12 0.418384 0.686244 0.983258
O O13 0.432066 0.500000 0.000000
O O14 0.910469 0.294759 0.250000
#
# Coordination Sequence:
#
# PCOD9472661 Si02
#       5
#    16  16   8  16  16
#     4   9  19  35  55  79 104 135 176 217 258 309
#     4  10  20  35  55  78 106 137 171 213 263 315
#     4  10  20  36  55  74 100 136 175 214 253 296
#     4   9  16  28  47  71  98 131 167 201 244 297
#     4   9  17  33  55  75 101 138 174 208 253 307
#
# _framework density 21.536847000000002
#
# number of rings (size 3 to 8) (size 9 to 14) (size 15 to 20)
#    0.000    2.667    1.111    0.667    0.000    2.667 
#    0.000    5.556    0.000    0.000    0.000    0.000 
#    0.000    0.000    0.000    0.000    0.000    0.000 
#
# Total GULP energy -200788.156223 kJ/mol
# GULP energy per Si atom -5577.448784 kJ/mol
# Density = 2.148783 g / cm^3
# Si number density = 21.536847 Si / 1000 Ang^3
#
#
#
# Elastic Constant Matrix: (Units=GPa)
#
#
# Indices 1 2 3 4 5 6 
#
# 1 65.6077 -3.8237 -20.5556 0.0000 0.0000 0.0000
# 2 -3.8237 57.6214 -6.0417 0.0000 0.0000 0.0000
# 3 -20.5556 -6.0417 20.3342 0.0000 0.0000 0.0000
# 4 0.0000 0.0000 0.0000 26.1448 0.0000 0.0000
# 5 0.0000 0.0000 0.0000 0.0000 11.5729 0.0000
# 6 0.0000 0.0000 0.0000 0.0000 0.0000 7.5817
#
#
#
# Elastic Compliance Matrix: (Units=1/GPa)
#
#
# Indices 1 2 3 4 5 6 
#
# 1 0.023223 0.004131 0.024703 0.000000 0.000000 0.000000
# 2 0.004131 0.018648 0.009717 0.000000 0.000000 0.000000
# 3 0.024703 0.009717 0.077037 0.000000 0.000000 0.000000
# 4 0.000000 0.000000 0.000000 0.038248 0.000000 0.000000
# 5 0.000000 0.000000 0.000000 0.000000 0.086409 0.000000
# 6 0.000000 0.000000 0.000000 0.000000 0.000000 0.131896
#
#
# Mechanical properties :
#
#
# Convention : Reuss Voigt Hill
#
# Bulk Modulus (GPa) = 5.10183 9.19126 7.14655
# Shear Modulus (GPa) = 13.74779 20.65885 17.20332
#
# Velocity S-wave (km/s) = 2.52928 3.10051 2.82935
# Velocity P-wave (km/s) = 3.30207 4.13455 3.74154
#
# Compressibility (1/GPa) = 0.19600799
#
# Stress axis : x y z
#
# Youngs Moduli (GPa) = 43.06166 53.62616 12.98081
#
# Poissons Ratio (x) = -0.22154 -0.32066
# Poissons Ratio (y) = -0.17789 -0.12613
# Poissons Ratio (z) = -1.06374 -0.52107
#
# Static dielectric constant tensor:
#      x y z
#    x 1.796040 0.000000 0.000000 
#    y 0.000000 1.769820 0.000000 
#    z 0.000000 0.000000 1.797360 
# 
# From -- ./inp_files/11678.got.cif
#   From: 2010.05.17/outbox.cif.g08.bks.cpg/sg63_6_cif.got.tgz:11678.got - 2010.06.03 15:47:04.
