data_PCOD9472211
_publ_section_title
;
Structure prediction by ZEFSAII (Michael W. Deem and Ramdas Pophale) SiO2 
 PCOD9472211
Probable space group: C M C M
;
_chemical_formula_sum "Si O2"
_cell_formula_units_Z 96
_cell_length_a 31.398901
_cell_length_b 9.625533
_cell_length_c 17.765909
_cell_angle_alpha 90.000000
_cell_angle_beta 90.000000
_cell_angle_gamma 90.000000
_cell_volume 5369.411245
_symmetry_space_group_name_H-M "C M C M"
_symmetry_group_IT_number 63
_symmetry_cell_setting 'orthorhombic'
loop_
_space_group_symop_operation_xyz
x,y,z
-x,-y,1/2+z
x,-y,-z
-x,y,1/2-z
-x,-y,-z
x,y,1/2-z
-x,y,z
x,-y,1/2+z
1/2+x,1/2+y,z
1/2-x,1/2-y,1/2+z
1/2+x,1/2-y,-z
1/2-x,1/2+y,1/2-z
1/2-x,1/2-y,-z
1/2+x,1/2+y,1/2-z
1/2-x,1/2+y,z
1/2+x,1/2-y,1/2+z
loop_
_atom_site_type_symbol
_atom_site_label
_atom_site_fract_x
_atom_site_fract_y
_atom_site_fract_z
Si Si1 0.259067 0.126144 0.056409
Si Si2 0.320964 0.422893 0.664261
Si Si3 0.332061 0.758216 0.663212
Si Si4 0.500000 0.699913 0.838284
Si Si5 0.000000 0.861597 0.664604
Si Si6 0.585618 0.698574 0.576471
Si Si7 0.090415 0.138298 0.406730
O O1 0.216555 0.105719 0.105779
O O2 0.296593 0.165695 0.113744
O O3 0.250000 0.250000 0.000000
O O4 0.268770 0.000000 0.000000
O O5 0.310484 0.381318 0.750000
O O6 0.325437 0.590700 0.663367
O O7 0.365426 0.350004 0.639422
O O8 0.331810 0.804304 0.750000
O O9 0.377383 0.772317 0.622970
O O10 0.500000 0.743509 0.750000
O O11 0.500000 0.530727 0.836622
O O12 0.458733 0.742467 0.886050
O O13 0.954970 0.818685 0.628455
O O14 0.000000 0.814460 0.750000
O O15 0.592472 0.713427 0.487363
O O16 0.587551 0.530046 0.585052
#
# Coordination Sequence:
#
# PCOD9472211 Si02
#       7
#    16  16  16   8   8  16  16
#     4  12  23  38  57  78 105 139 180 223 268 321
#     4  10  20  34  52  75 104 139 178 222 272 324
#     4  10  20  35  53  76 105 138 174 221 272 321
#     4   9  15  23  37  63  96 135 174 216 265 314
#     4   9  15  23  35  59  95 137 179 216 257 313
#     4   9  16  26  43  66  99 133 175 217 265 319
#     4   9  16  25  42  64  97 137 178 215 263 319
#
# _framework density 17.879055000000001
#
# number of rings (size 3 to 8) (size 9 to 14) (size 15 to 20)
#    0.000    2.167    1.667    3.000    2.333    6.000 
#    0.000    0.000    0.000    0.000    0.000    0.583 
#    0.000    0.000    0.000    6.167    0.000    2.667 
#
# Total GULP energy -267369.179612 kJ/mol
# GULP energy per Si atom -5570.191242 kJ/mol
# Density = 1.783836 g / cm^3
# Si number density = 17.879055 Si / 1000 Ang^3
#
#
#
# Elastic Constant Matrix: (Units=GPa)
#
#
# Indices 1 2 3 4 5 6 
#
# 1 155.3131 19.5203 91.3058 0.0000 0.0000 0.0000
# 2 19.5203 25.1708 30.8652 0.0000 0.0000 0.0000
# 3 91.3058 30.8652 177.4246 0.0000 0.0000 0.0000
# 4 0.0000 0.0000 0.0000 14.6932 0.0000 0.0000
# 5 0.0000 0.0000 0.0000 0.0000 32.5225 0.0000
# 6 0.0000 0.0000 0.0000 0.0000 0.0000 1.3130
#
#
#
# Elastic Compliance Matrix: (Units=1/GPa)
#
#
# Indices 1 2 3 4 5 6 
#
# 1 0.009289 -0.001706 -0.004483 0.000000 0.000000 0.000000
# 2 -0.001706 0.050815 -0.007962 0.000000 0.000000 0.000000
# 3 -0.004483 -0.007962 0.009329 0.000000 0.000000 0.000000
# 4 0.000000 0.000000 0.000000 0.068059 0.000000 0.000000
# 5 0.000000 0.000000 0.000000 0.000000 0.030748 0.000000
# 6 0.000000 0.000000 0.000000 0.000000 0.000000 0.761589
#
#
# Mechanical properties :
#
#
# Convention : Reuss Voigt Hill
#
# Bulk Modulus (GPa) = 24.31342 71.25455 47.78398
# Shear Modulus (GPa) = 5.14488 24.12024 14.63256
#
# Velocity S-wave (km/s) = 1.69819 3.67696 2.86391
# Velocity P-wave (km/s) = 4.18013 7.61360 6.14168
#
# Compressibility (1/GPa) = 0.04112955
#
# Stress axis : x y z
#
# Youngs Moduli (GPa) = 107.65764 19.67931 107.19829
#
# Poissons Ratio (x) = 0.03357 0.48061
# Poissons Ratio (y) = 0.18365 0.85351
# Poissons Ratio (z) = 0.48267 0.15669
#
# Static dielectric constant tensor:
#      x y z
#    x 1.606850 0.000000 0.000000 
#    y 0.000000 1.584210 0.000000 
#    z 0.000000 0.000000 1.605120 
# 
# From -- ./inp_files/48991.got.cif
#   From: 2010.05.17/outbox.cif.g08.bks.cpg/sg63_25_cif.got.tgz:48991.got - 2010.06.03 15:47:04.
