data_PCOD9472574
_publ_section_title
;
Structure prediction by ZEFSAII (Michael W. Deem and Ramdas Pophale) SiO2 
 PCOD9472574
Probable space group: C M C M
;
_chemical_formula_sum "Si O2"
_cell_formula_units_Z 68
_cell_length_a 11.754369
_cell_length_b 14.726314
_cell_length_c 17.667699
_cell_angle_alpha 90.000000
_cell_angle_beta 90.000000
_cell_angle_gamma 90.000000
_cell_volume 3058.252704
_symmetry_space_group_name_H-M "C M C M"
_symmetry_group_IT_number 63
_symmetry_cell_setting 'orthorhombic'
loop_
_space_group_symop_operation_xyz
x,y,z
-x,-y,1/2+z
x,-y,-z
-x,y,1/2-z
-x,-y,-z
x,y,1/2-z
-x,y,z
x,-y,1/2+z
1/2+x,1/2+y,z
1/2-x,1/2-y,1/2+z
1/2+x,1/2-y,-z
1/2-x,1/2+y,1/2-z
1/2-x,1/2-y,-z
1/2+x,1/2+y,1/2-z
1/2-x,1/2+y,z
1/2+x,1/2-y,1/2+z
loop_
_atom_site_type_symbol
_atom_site_label
_atom_site_fract_x
_atom_site_fract_y
_atom_site_fract_z
Si Si1 0.129906 0.146824 0.158773
Si Si2 0.000000 0.341980 0.524086
Si Si3 0.243355 0.954896 0.163152
Si Si4 0.000000 0.470521 0.381466
Si Si5 0.674904 0.269270 0.390507
Si Si6 0.000000 0.744362 0.250000
O O1 0.131131 0.157746 0.250000
O O2 0.202834 0.225714 0.122531
O O3 0.000000 0.145537 0.133511
O O4 0.191850 0.051864 0.142043
O O5 0.891179 0.279273 0.541510
O O6 0.000000 0.391776 0.444299
O O7 0.000000 0.428755 0.581574
O O8 0.207702 0.934455 0.250000
O O9 0.380149 0.960424 0.160970
O O10 0.192885 0.877138 0.109461
O O11 0.598410 0.245971 0.316835
#
# Coordination Sequence:
#
# PCOD9472574 Si02
#       6
#    16   8  16   8  16   4
#     4  10  21  35  55  89 128 157 191 252 320 370
#     4  10  24  42  68  84 120 177 214 267 297 376
#     4  11  23  37  63  96 123 161 200 266 316 381
#     4  11  23  44  63  91 124 161 228 261 308 362
#     4  11  21  38  62  91 123 162 205 250 320 370
#     4  10  20  34  62  90 124 154 204 248 304 376
#
# _framework density 22.234916999999999
#
# number of rings (size 3 to 8) (size 9 to 14) (size 15 to 20)
#    0.000    1.412    4.706    0.353    4.941    0.941 
#    0.000    0.000    0.000    1.412    0.000    0.000 
#    0.000    0.000    0.000    0.000    0.000    0.000 
#
# Total GULP energy -189720.246886 kJ/mol
# GULP energy per Si atom -5580.007261 kJ/mol
# Density = 2.218431 g / cm^3
# Si number density = 22.234917 Si / 1000 Ang^3
#
#
#
# Elastic Constant Matrix: (Units=GPa)
#
#
# Indices 1 2 3 4 5 6 
#
# 1 107.7611 3.1934 12.7935 0.0000 0.0000 0.0000
# 2 3.1934 52.1021 14.5275 0.0000 0.0000 0.0000
# 3 12.7935 14.5275 41.2826 0.0000 0.0000 0.0000
# 4 0.0000 0.0000 0.0000 19.0785 0.0000 0.0000
# 5 0.0000 0.0000 0.0000 0.0000 14.3913 0.0000
# 6 0.0000 0.0000 0.0000 0.0000 0.0000 -7.2208
#
#
#
# Elastic Compliance Matrix: (Units=1/GPa)
#
#
# Indices 1 2 3 4 5 6 
#
# 1 0.009638 0.000268 -0.003081 0.000000 0.000000 0.000000
# 2 0.000268 0.021289 -0.007575 0.000000 0.000000 0.000000
# 3 -0.003081 -0.007575 0.027844 0.000000 0.000000 0.000000
# 4 0.000000 0.000000 0.000000 0.052415 0.000000 0.000000
# 5 0.000000 0.000000 0.000000 0.000000 0.069486 0.000000
# 6 0.000000 0.000000 0.000000 0.000000 0.000000 -0.138489
#
#
# Mechanical properties :
#
#
# Convention : Reuss Voigt Hill
#
# Bulk Modulus (GPa) = 26.31924 29.13052 27.72488
# Shear Modulus (GPa) = 66.11791 16.62522 41.37156
#
# Velocity S-wave (km/s) = 5.45899 2.73739 4.31821
# Velocity P-wave (km/s) = 7.18309 4.80841 6.11218
#
# Compressibility (1/GPa) = 0.03799501
#
# Stress axis : x y z
#
# Youngs Moduli (GPa) = 103.75989 46.97327 35.91468
#
# Poissons Ratio (x) = -0.01261 0.11066
# Poissons Ratio (y) = -0.02785 0.27205
# Poissons Ratio (z) = 0.31970 0.35581
#
# Static dielectric constant tensor:
#      x y z
#    x 1.794480 0.000000 0.000000 
#    y 0.000000 1.787300 0.000000 
#    z 0.000000 0.000000 1.837820 
# 
# From -- ./inp_files/52240.got.cif
#   From: 2010.05.17/outbox.cif.g08.bks.cpg/sg63_27_cif.got.tgz:52240.got - 2010.06.03 15:47:04.
