data_PCOD9472101
_publ_section_title
;
Structure prediction by ZEFSAII (Michael W. Deem and Ramdas Pophale) SiO2 
 PCOD9472101
Probable space group: C M C M
;
_chemical_formula_sum "Si O2"
_cell_formula_units_Z 64
_cell_length_a 16.371507
_cell_length_b 10.101136
_cell_length_c 17.636905
_cell_angle_alpha 90.000000
_cell_angle_beta 90.000000
_cell_angle_gamma 90.000000
_cell_volume 2916.629420
_symmetry_space_group_name_H-M "C M C M"
_symmetry_group_IT_number 63
_symmetry_cell_setting 'orthorhombic'
loop_
_space_group_symop_operation_xyz
x,y,z
-x,-y,1/2+z
x,-y,-z
-x,y,1/2-z
-x,-y,-z
x,y,1/2-z
-x,y,z
x,-y,1/2+z
1/2+x,1/2+y,z
1/2-x,1/2-y,1/2+z
1/2+x,1/2-y,-z
1/2-x,1/2+y,1/2-z
1/2-x,1/2-y,-z
1/2+x,1/2+y,1/2-z
1/2-x,1/2+y,z
1/2+x,1/2-y,1/2+z
loop_
_atom_site_type_symbol
_atom_site_label
_atom_site_fract_x
_atom_site_fract_y
_atom_site_fract_z
Si Si1 0.409985 0.992694 0.658693
Si Si2 0.810321 0.144454 0.536155
Si Si3 0.910790 0.215630 0.410107
Si Si4 0.771582 0.034355 0.339546
O O1 0.408588 0.017222 0.750000
O O2 0.500000 0.931496 0.642323
O O3 0.407401 0.131565 0.613684
O O4 0.322489 0.927482 0.639503
O O5 0.750000 0.250000 0.500000
O O6 0.895678 0.189571 0.499605
O O7 0.795662 0.107205 0.622851
O O8 0.792020 0.000000 0.500000
O O9 0.000000 0.164417 0.388324
O O10 0.839370 0.138030 0.367042
O O11 0.774788 0.023782 0.250000
#
# Coordination Sequence:
#
# PCOD9472101 Si02
#       4
#    16  16  16  16
#     4   9  17  31  53  80 108 143 190 240 292 356
#     4  10  20  36  57  84 120 159 201 250 305 363
#     4  10  20  35  58  82 113 155 203 250 298 358
#     4  10  20  33  54  84 116 150 194 251 307 354
#
# _framework density 21.943138000000001
#
# number of rings (size 3 to 8) (size 9 to 14) (size 15 to 20)
#    0.000    2.250    2.500    0.750    0.000    6.000 
#    0.000    0.000    0.000   15.000    0.000    3.500 
#    0.000    0.000    0.000    0.000    0.000    0.000 
#
# Total GULP energy -178316.644787 kJ/mol
# GULP energy per Si atom -5572.395150 kJ/mol
# Density = 2.189319 g / cm^3
# Si number density = 21.943138 Si / 1000 Ang^3
#
#
#
# Elastic Constant Matrix: (Units=GPa)
#
#
# Indices 1 2 3 4 5 6 
#
# 1 211.0266 26.6777 40.7993 0.0000 0.0000 0.0000
# 2 26.6777 34.5051 -15.8691 0.0000 0.0000 0.0000
# 3 40.7993 -15.8691 57.2550 0.0000 0.0000 0.0000
# 4 0.0000 0.0000 0.0000 13.1497 0.0000 0.0000
# 5 0.0000 0.0000 0.0000 0.0000 32.9478 0.0000
# 6 0.0000 0.0000 0.0000 0.0000 0.0000 33.9385
#
#
#
# Elastic Compliance Matrix: (Units=1/GPa)
#
#
# Indices 1 2 3 4 5 6 
#
# 1 0.007461 -0.009414 -0.007926 0.000000 0.000000 0.000000
# 2 -0.009414 0.045093 0.019206 0.000000 0.000000 0.000000
# 3 -0.007926 0.019206 0.028437 0.000000 0.000000 0.000000
# 4 0.000000 0.000000 0.000000 0.076047 0.000000 0.000000
# 5 0.000000 0.000000 0.000000 0.000000 0.030351 0.000000
# 6 0.000000 0.000000 0.000000 0.000000 0.000000 0.029465
#
#
# Mechanical properties :
#
#
# Convention : Reuss Voigt Hill
#
# Bulk Modulus (GPa) = 11.80306 45.11137 28.45722
# Shear Modulus (GPa) = 20.71572 32.75246 26.73409
#
# Velocity S-wave (km/s) = 3.07590 3.86762 3.49425
# Velocity P-wave (km/s) = 4.24328 6.36770 5.41078
#
# Compressibility (1/GPa) = 0.08472380
#
# Stress axis : x y z
#
# Youngs Moduli (GPa) = 134.02667 22.17660 35.16547
#
# Poissons Ratio (x) = 0.20877 0.27872
# Poissons Ratio (y) = 1.26170 -0.67540
# Poissons Ratio (z) = 1.06229 -0.42593
#
# Static dielectric constant tensor:
#      x y z
#    x 1.871890 0.000000 0.000000 
#    y 0.000000 1.808700 0.000000 
#    z 0.000000 0.000000 1.938090 
# 
# From -- ./inp_files/43453.got.cif
#   From: 2010.05.17/outbox.cif.g08.bks.cpg/sg63_22_cif.got.tgz:43453.got - 2010.06.03 15:47:04.
