data_PCOD9472763
_publ_section_title
;
Structure prediction by ZEFSAII (Michael W. Deem and Ramdas Pophale) SiO2 
 PCOD9472763
Probable space group: C M C M
;
_chemical_formula_sum "Si O2"
_cell_formula_units_Z 96
_cell_length_a 8.988664
_cell_length_b 24.104384
_cell_length_c 25.712090
_cell_angle_alpha 90.000000
_cell_angle_beta 90.000000
_cell_angle_gamma 90.000000
_cell_volume 5570.941058
_symmetry_space_group_name_H-M "C M C M"
_symmetry_group_IT_number 63
_symmetry_cell_setting 'orthorhombic'
loop_
_space_group_symop_operation_xyz
x,y,z
-x,-y,1/2+z
x,-y,-z
-x,y,1/2-z
-x,-y,-z
x,y,1/2-z
-x,y,z
x,-y,1/2+z
1/2+x,1/2+y,z
1/2-x,1/2-y,1/2+z
1/2+x,1/2-y,-z
1/2-x,1/2+y,1/2-z
1/2-x,1/2-y,-z
1/2+x,1/2+y,1/2-z
1/2-x,1/2+y,z
1/2+x,1/2-y,1/2+z
loop_
_atom_site_type_symbol
_atom_site_label
_atom_site_fract_x
_atom_site_fract_y
_atom_site_fract_z
Si Si1 0.177751 0.115199 0.149034
Si Si2 0.322436 0.811719 0.938931
Si Si3 0.178688 0.503653 0.188590
Si Si4 0.322714 0.689712 0.750000
Si Si5 0.821447 0.620392 0.842868
Si Si6 0.322405 0.193710 0.940455
Si Si7 0.322038 0.689715 0.250000
O O1 0.247545 0.143792 0.098556
O O2 0.242590 0.054598 0.160422
O O3 0.214207 0.153787 0.198941
O O4 0.000000 0.112864 0.144496
O O5 0.500000 0.813273 0.932927
O O6 0.261731 0.750296 0.925939
O O7 0.285792 0.820948 0.999902
O O8 0.216832 0.503897 0.250000
O O9 0.219174 0.443817 0.165000
O O10 0.000000 0.510044 0.184490
O O11 0.500000 0.689255 0.750000
O O12 0.259719 0.657592 0.699900
O O13 0.262276 0.752278 0.750000
O O14 0.788797 0.645405 0.899540
O O15 0.000000 0.624648 0.834136
O O16 0.500000 0.204734 0.938163
O O17 0.500000 0.700182 0.250000
#
# Coordination Sequence:
#
# PCOD9472763 Si02
#       7
#    16  16  16   8  16  16   8
#     4  11  22  37  56  79 108 146 185 224 273 329
#     4  10  20  35  56  84 114 144 182 229 277 326
#     4  10  20  36  58  81 105 140 183 228 273 318
#     4  12  24  33  50  83 115 140 172 222 277 322
#     4  10  20  38  59  79 107 146 186 221 268 330
#     4   9  19  36  59  83 110 146 185 226 275 330
#     4  10  22  37  52  73 105 142 180 218 265 326
#
# _framework density 17.232278000000001
#
# number of rings (size 3 to 8) (size 9 to 14) (size 15 to 20)
#    0.000    1.833    1.667    2.750    0.000    7.333 
#    0.000    0.833    0.000    5.000    0.000    0.000 
#    0.000    0.000    0.000    0.000    0.000    0.000 
#
# Total GULP energy -268104.974448 kJ/mol
# GULP energy per Si atom -5585.520301 kJ/mol
# Density = 1.719306 g / cm^3
# Si number density = 17.232278 Si / 1000 Ang^3
#
#
#
# Elastic Constant Matrix: (Units=GPa)
#
#
# Indices 1 2 3 4 5 6 
#
# 1 39.9273 66.7615 48.3791 0.0000 0.0000 0.0000
# 2 66.7615 175.1065 91.0058 0.0000 0.0000 0.0000
# 3 48.3791 91.0058 104.9379 0.0000 0.0000 0.0000
# 4 0.0000 0.0000 0.0000 20.9344 0.0000 0.0000
# 5 0.0000 0.0000 0.0000 0.0000 20.9390 0.0000
# 6 0.0000 0.0000 0.0000 0.0000 0.0000 32.0415
#
#
#
# Elastic Compliance Matrix: (Units=1/GPa)
#
#
# Indices 1 2 3 4 5 6 
#
# 1 0.089079 -0.022973 -0.021145 0.000000 0.000000 0.000000
# 2 -0.022973 0.016322 -0.003563 0.000000 0.000000 0.000000
# 3 -0.021145 -0.003563 0.022368 0.000000 0.000000 0.000000
# 4 0.000000 0.000000 0.000000 0.047768 0.000000 0.000000
# 5 0.000000 0.000000 0.000000 0.000000 0.047758 0.000000
# 6 0.000000 0.000000 0.000000 0.000000 0.000000 0.031210
#
#
# Mechanical properties :
#
#
# Convention : Reuss Voigt Hill
#
# Bulk Modulus (GPa) = 30.85833 81.36275 56.11054
# Shear Modulus (GPa) = 13.86313 22.37131 18.11722
#
# Velocity S-wave (km/s) = 2.83942 3.60699 3.24598
# Velocity P-wave (km/s) = 5.35686 8.04146 6.83231
#
# Compressibility (1/GPa) = 0.03240616
#
# Stress axis : x y z
#
# Youngs Moduli (GPa) = 11.22598 61.26843 44.70687
#
# Poissons Ratio (x) = 1.40754 0.94531
# Poissons Ratio (y) = 0.25790 0.15931
# Poissons Ratio (z) = 0.23737 0.21832
#
# Static dielectric constant tensor:
#      x y z
#    x 1.575710 0.000000 0.000000 
#    y 0.000000 1.549540 0.000000 
#    z 0.000000 0.000000 1.576830 
# 
# From -- ./inp_files/60047.got.cif
#   From: 2010.05.17/outbox.cif.g08.bks.cpg/sg63_31_cif.got.tgz:60047.got - 2010.06.03 15:47:04.
