data_PCOD9472727
_publ_section_title
;
Structure prediction by ZEFSAII (Michael W. Deem and Ramdas Pophale) SiO2 
 PCOD9472727
Probable space group: C M C M
;
_chemical_formula_sum "Si O2"
_cell_formula_units_Z 112
_cell_length_a 14.494375
_cell_length_b 17.418679
_cell_length_c 25.004220
_cell_angle_alpha 90.000000
_cell_angle_beta 90.000000
_cell_angle_gamma 90.000000
_cell_volume 6312.887071
_symmetry_space_group_name_H-M "C M C M"
_symmetry_group_IT_number 63
_symmetry_cell_setting 'orthorhombic'
loop_
_space_group_symop_operation_xyz
x,y,z
-x,-y,1/2+z
x,-y,-z
-x,y,1/2-z
-x,-y,-z
x,y,1/2-z
-x,y,z
x,-y,1/2+z
1/2+x,1/2+y,z
1/2-x,1/2-y,1/2+z
1/2+x,1/2-y,-z
1/2-x,1/2+y,1/2-z
1/2-x,1/2-y,-z
1/2+x,1/2+y,1/2-z
1/2-x,1/2+y,z
1/2+x,1/2-y,1/2+z
loop_
_atom_site_type_symbol
_atom_site_label
_atom_site_fract_x
_atom_site_fract_y
_atom_site_fract_z
Si Si1 0.750000 0.423743 0.187279
Si Si2 0.250000 0.303772 0.405534
Si Si3 0.750000 0.590441 0.009541
Si Si4 0.389933 0.333538 0.589473
Si Si5 0.609099 0.557893 0.189021
Si Si6 0.389933 0.833538 0.910527
Si Si7 0.890901 0.442107 0.689021
O O1 0.750000 0.403081 0.250000
O O2 0.750000 0.351216 0.149105
O O3 0.663416 0.479900 0.176692
O O4 0.836584 0.479900 0.176692
O O5 0.250000 0.363221 0.454306
O O6 0.161377 0.248095 0.409811
O O7 0.338622 0.248095 0.409811
O O8 0.660990 0.617023 0.043796
O O9 0.839010 0.617023 0.043796
O O10 0.750000 0.500000 0.000000
O O11 0.500000 0.327965 0.582005
O O12 0.370577 0.377174 0.645471
O O13 0.633786 0.580561 0.250000
O O14 0.500000 0.543747 0.187233
O O15 0.500000 0.827965 0.917995
O O16 0.370578 0.877173 0.854529
O O17 0.866214 0.419439 0.750000
O O18 0.000000 0.456253 0.687232
#
# Coordination Sequence:
#
# PCOD9472727 Si02
#       7
#    16  16  16  16  16  16  16
#     4  10  20  35  56  80 109 144 179 218 264 310
#     4  11  23  36  53  80 110 139 175 220 265 312
#     4  11  23  39  57  78 106 137 178 226 264 312
#     4  10  21  37  57  80 108 142 176 215 268 321
#     4   9  18  34  56  80 106 139 179 219 259 309
#     4  10  21  37  57  80 108 142 176 215 268 321
#     4   9  18  34  56  80 106 139 179 219 259 309
#
# _framework density 17.741486999999999
#
# number of rings (size 3 to 8) (size 9 to 14) (size 15 to 20)
#    0.000    2.000    0.000    5.143    0.000    5.143 
#    0.000    0.000    0.000    0.000    0.000    0.000 
#    0.000    0.000    0.000    0.000    0.000    0.000 
#
# Total GULP energy -312624.357419 kJ/mol
# GULP energy per Si atom -5582.577811 kJ/mol
# Density = 1.770111 g / cm^3
# Si number density = 17.741487 Si / 1000 Ang^3
#
#
#
# Elastic Constant Matrix: (Units=GPa)
#
#
# Indices 1 2 3 4 5 6 
#
# 1 120.3697 68.3269 55.1423 0.0000 0.0000 0.0000
# 2 68.3269 164.1182 94.2784 0.0000 0.0000 0.0000
# 3 55.1423 94.2784 107.6177 0.0000 0.0000 0.0000
# 4 0.0000 0.0000 0.0000 -33.6000 0.0000 0.0000
# 5 0.0000 0.0000 0.0000 0.0000 25.7545 0.0000
# 6 0.0000 0.0000 0.0000 0.0000 0.0000 8.6821
#
#
#
# Elastic Compliance Matrix: (Units=1/GPa)
#
#
# Indices 1 2 3 4 5 6 
#
# 1 0.011468 -0.002816 -0.003409 0.000000 0.000000 0.000000
# 2 -0.002816 0.012958 -0.009909 0.000000 0.000000 0.000000
# 3 -0.003409 -0.009909 0.019719 0.000000 0.000000 0.000000
# 4 0.000000 0.000000 0.000000 -0.029762 0.000000 0.000000
# 5 0.000000 0.000000 0.000000 0.000000 0.038828 0.000000
# 6 0.000000 0.000000 0.000000 0.000000 0.000000 0.115180
#
#
# Mechanical properties :
#
#
# Convention : Reuss Voigt Hill
#
# Bulk Modulus (GPa) = 84.19291 91.95564 88.07427
# Shear Modulus (GPa) = 24.43586 11.79118 18.11352
#
# Velocity S-wave (km/s) = 3.71526 2.58080 3.19873
# Velocity P-wave (km/s) = 8.12174 7.79898 7.96200
#
# Compressibility (1/GPa) = 0.01187748
#
# Stress axis : x y z
#
# Youngs Moduli (GPa) = 87.19931 77.17477 50.71171
#
# Poissons Ratio (x) = 0.21733 0.17288
# Poissons Ratio (y) = 0.24556 0.50248
# Poissons Ratio (z) = 0.29727 0.76469
#
# Static dielectric constant tensor:
#      x y z
#    x 1.600340 0.000000 0.000000 
#    y 0.000000 1.562390 0.000000 
#    z 0.000000 0.000000 1.615240 
# 
# From -- ./inp_files/69404.got.cif
#   From: 2010.05.17/outbox.cif.g08.bks.cpg/sg63_35_cif.got.tgz:69404.got - 2010.06.03 15:47:04.
