data_PCOD9472276
_publ_section_title
;
Structure prediction by ZEFSAII (Michael W. Deem and Ramdas Pophale) SiO2 
 PCOD9472276
Probable space group: C M C M
;
_chemical_formula_sum "Si O2"
_cell_formula_units_Z 96
_cell_length_a 24.356042
_cell_length_b 24.054453
_cell_length_c 8.952832
_cell_angle_alpha 90.000000
_cell_angle_beta 90.000000
_cell_angle_gamma 90.000000
_cell_volume 5245.207032
_symmetry_space_group_name_H-M "C M C M"
_symmetry_group_IT_number 63
_symmetry_cell_setting 'orthorhombic'
loop_
_space_group_symop_operation_xyz
x,y,z
-x,-y,1/2+z
x,-y,-z
-x,y,1/2-z
-x,-y,-z
x,y,1/2-z
-x,y,z
x,-y,1/2+z
1/2+x,1/2+y,z
1/2-x,1/2-y,1/2+z
1/2+x,1/2-y,-z
1/2-x,1/2+y,1/2-z
1/2-x,1/2-y,-z
1/2+x,1/2+y,1/2-z
1/2-x,1/2+y,z
1/2+x,1/2-y,1/2+z
loop_
_atom_site_type_symbol
_atom_site_label
_atom_site_fract_x
_atom_site_fract_y
_atom_site_fract_z
Si Si1 0.064077 0.325854 0.428420
Si Si2 0.742505 0.333881 0.070815
Si Si3 0.058514 0.061645 0.930041
Si Si4 0.161063 0.265825 0.927117
Si Si5 0.066836 0.557088 0.422058
Si Si6 0.178920 0.060616 0.929951
O O1 0.067995 0.327727 0.250000
O O2 0.103886 0.278894 0.493251
O O3 0.081736 0.386022 0.493875
O O4 0.000000 0.317173 0.469188
O O5 0.752397 0.331803 0.250000
O O6 0.691093 0.292677 0.040584
O O7 0.724942 0.395497 0.025825
O O8 0.794991 0.310864 0.985579
O O9 0.058312 0.057524 0.750000
O O10 0.118280 0.084471 0.971984
O O11 0.000000 0.088677 0.974244
O O12 0.058027 0.000000 0.000000
O O13 0.153662 0.270099 0.750000
O O14 0.085798 0.500000 0.500000
O O15 0.084582 0.559066 0.250000
O O16 0.000000 0.555361 0.423661
O O17 0.180108 0.055808 0.750000
O O18 0.185336 0.000000 0.000000
#
# Coordination Sequence:
#
# PCOD9472276 Si02
#       6
#    16  16  16  16  16  16
#     4  10  20  34  53  77 106 138 170 210 261 310
#     4   9  19  36  55  75 101 133 170 212 258 308
#     4   8  13  22  38  61  90 124 159 191 227 278
#     4  10  20  35  56  78  99 130 174 217 256 303
#     4   9  16  27  45  70 101 136 172 207 246 299
#     4   9  17  30  49  74 103 133 165 205 254 303
#
# _framework density 18.302423000000001
#
# number of rings (size 3 to 8) (size 9 to 14) (size 15 to 20)
#    0.000    2.833    0.000    1.500    0.000    4.333 
#    0.000    1.667    0.000    5.000    0.000    9.333 
#    0.000    0.000    0.000    0.000    0.000    0.000 
#
# Total GULP energy -267359.339058 kJ/mol
# GULP energy per Si atom -5569.986230 kJ/mol
# Density = 1.826077 g / cm^3
# Si number density = 18.302423 Si / 1000 Ang^3
#
#
#
# Elastic Constant Matrix: (Units=GPa)
#
#
# Indices 1 2 3 4 5 6 
#
# 1 54.2104 32.9510 29.3228 0.0000 0.0000 0.0000
# 2 32.9510 49.3380 19.8380 0.0000 0.0000 0.0000
# 3 29.3228 19.8380 43.2657 0.0000 0.0000 0.0000
# 4 0.0000 0.0000 0.0000 22.7913 0.0000 0.0000
# 5 0.0000 0.0000 0.0000 0.0000 26.4255 0.0000
# 6 0.0000 0.0000 0.0000 0.0000 0.0000 13.5208
#
#
#
# Elastic Compliance Matrix: (Units=1/GPa)
#
#
# Indices 1 2 3 4 5 6 
#
# 1 0.040189 -0.019480 -0.018306 0.000000 0.000000 0.000000
# 2 -0.019480 0.034292 -0.002521 0.000000 0.000000 0.000000
# 3 -0.018306 -0.002521 0.036675 0.000000 0.000000 0.000000
# 4 0.000000 0.000000 0.000000 0.043876 0.000000 0.000000
# 5 0.000000 0.000000 0.000000 0.000000 0.037842 0.000000
# 6 0.000000 0.000000 0.000000 0.000000 0.000000 0.073960
#
#
# Mechanical properties :
#
#
# Convention : Reuss Voigt Hill
#
# Bulk Modulus (GPa) = 32.74098 34.55973 33.65036
# Shear Modulus (GPa) = 13.98092 16.86101 15.42097
#
# Velocity S-wave (km/s) = 2.76684 3.03849 2.90584
# Velocity P-wave (km/s) = 5.30424 5.58870 5.44832
#
# Compressibility (1/GPa) = 0.03054276
#
# Stress axis : x y z
#
# Youngs Moduli (GPa) = 24.88231 29.16114 27.26633
#
# Poissons Ratio (x) = 0.56807 0.49913
# Poissons Ratio (y) = 0.48472 0.06873
# Poissons Ratio (z) = 0.45549 0.07351
#
# Static dielectric constant tensor:
#      x y z
#    x 1.671940 0.000000 0.000000 
#    y 0.000000 1.635230 0.000000 
#    z 0.000000 0.000000 1.614310 
# 
# From -- ./inp_files/10709.got.cif
#   From: 2010.05.17/outbox.cif.g08.bks.cpg/sg63_6_cif.got.tgz:10709.got - 2010.06.03 15:47:04.
