data_PCOD9472445
_publ_section_title
;
Structure prediction by ZEFSAII (Michael W. Deem and Ramdas Pophale) SiO2 
 PCOD9472445
Probable space group: C M C M
;
_chemical_formula_sum "Si O2"
_cell_formula_units_Z 104
_cell_length_a 26.668068
_cell_length_b 21.128705
_cell_length_c 8.850483
_cell_angle_alpha 90.000000
_cell_angle_beta 90.000000
_cell_angle_gamma 90.000000
_cell_volume 4986.908566
_symmetry_space_group_name_H-M "C M C M"
_symmetry_group_IT_number 63
_symmetry_cell_setting 'orthorhombic'
loop_
_space_group_symop_operation_xyz
x,y,z
-x,-y,1/2+z
x,-y,-z
-x,y,1/2-z
-x,-y,-z
x,y,1/2-z
-x,y,z
x,-y,1/2+z
1/2+x,1/2+y,z
1/2-x,1/2-y,1/2+z
1/2+x,1/2-y,-z
1/2-x,1/2+y,1/2-z
1/2-x,1/2-y,-z
1/2+x,1/2+y,1/2-z
1/2-x,1/2+y,z
1/2+x,1/2-y,1/2+z
loop_
_atom_site_type_symbol
_atom_site_label
_atom_site_fract_x
_atom_site_fract_y
_atom_site_fract_z
Si Si1 0.500000 0.570574 0.931181
Si Si2 0.310494 0.101368 0.076209
Si Si3 0.587841 0.935411 0.428881
Si Si4 0.703477 0.636917 0.069165
Si Si5 0.342271 0.751994 0.922384
Si Si6 0.056270 0.293691 0.067516
Si Si7 0.392473 0.570226 0.931561
O O1 0.500000 0.564051 0.750000
O O2 0.446677 0.600471 0.972647
O O3 0.500000 0.500000 0.000000
O O4 0.313504 0.077891 0.250000
O O5 0.253538 0.100024 0.018029
O O6 0.323018 0.176152 0.079369
O O7 0.353810 0.070379 0.977335
O O8 0.583212 0.939757 0.250000
O O9 0.563426 0.868214 0.476063
O O10 0.567153 0.000000 0.500000
O O11 0.704880 0.636515 0.250000
O O12 0.696623 0.708348 0.011556
O O13 0.653906 0.604868 0.005181
O O14 0.346088 0.728932 0.750000
O O15 0.397607 0.755437 0.995781
O O16 0.060478 0.290460 0.250000
O O17 0.000000 0.273539 0.023898
O O18 0.387794 0.568133 0.750000
O O19 0.392905 0.500000 0.000000
#
# Coordination Sequence:
#
# PCOD9472445 Si02
#       7
#     8  16  16  16  16  16  16
#     4   8  16  32  54  74  96 128 164 202 247 298
#     4   9  20  37  56  77 106 142 181 224 271 321
#     4  10  20  34  55  82 112 147 186 227 273 327
#     4  11  22  36  55  81 109 141 180 222 268 323
#     4  10  20  36  57  81 107 139 179 225 274 324
#     4   9  19  37  58  80 110 147 185 227 276 327
#     4  10  20  36  56  79 106 137 173 217 265 317
#
# _framework density 20.854603999999998
#
# number of rings (size 3 to 8) (size 9 to 14) (size 15 to 20)
#    0.000    2.308    0.000    2.308    0.000    4.308 
#    1.385    0.000    0.000    0.000    0.000    0.000 
#    0.000    0.000    0.000    0.000    0.000    0.000 
#
# Total GULP energy -290239.415572 kJ/mol
# GULP energy per Si atom -5581.527223 kJ/mol
# Density = 2.080714 g / cm^3
# Si number density = 20.854604 Si / 1000 Ang^3
#
#
#
# Elastic Constant Matrix: (Units=GPa)
#
#
# Indices 1 2 3 4 5 6 
#
# 1 114.0365 -10.8098 11.5572 0.0000 0.0000 0.0000
# 2 -10.8098 26.7467 -2.1440 0.0000 0.0000 0.0000
# 3 11.5572 -2.1440 36.8377 0.0000 0.0000 0.0000
# 4 0.0000 0.0000 0.0000 31.1057 0.0000 0.0000
# 5 0.0000 0.0000 0.0000 0.0000 24.5567 0.0000
# 6 0.0000 0.0000 0.0000 0.0000 0.0000 18.8923
#
#
#
# Elastic Compliance Matrix: (Units=1/GPa)
#
#
# Indices 1 2 3 4 5 6 
#
# 1 0.009385 0.003574 -0.002736 0.000000 0.000000 0.000000
# 2 0.003574 0.038924 0.001144 0.000000 0.000000 0.000000
# 3 -0.002736 0.001144 0.028071 0.000000 0.000000 0.000000
# 4 0.000000 0.000000 0.000000 0.032148 0.000000 0.000000
# 5 0.000000 0.000000 0.000000 0.000000 0.040722 0.000000
# 6 0.000000 0.000000 0.000000 0.000000 0.000000 0.052931
#
#
# Mechanical properties :
#
#
# Convention : Reuss Voigt Hill
#
# Bulk Modulus (GPa) = 12.44659 19.42529 15.93594
# Shear Modulus (GPa) = 22.22218 26.84544 24.53381
#
# Velocity S-wave (km/s) = 3.26786 3.59174 3.43362
# Velocity P-wave (km/s) = 4.49664 5.15128 4.83505
#
# Compressibility (1/GPa) = 0.08034330
#
# Stress axis : x y z
#
# Youngs Moduli (GPa) = 106.55056 25.69118 35.62366
#
# Poissons Ratio (x) = -0.09181 0.09748
# Poissons Ratio (y) = -0.38078 -0.04076
# Poissons Ratio (z) = 0.29157 -0.02940
#
# Static dielectric constant tensor:
#      x y z
#    x 1.770860 0.000000 0.000000 
#    y 0.000000 1.798670 0.000000 
#    z 0.000000 0.000000 1.705360 
# 
# From -- ./inp_files/12543.got.cif
#   From: 2010.05.17/outbox.cif.g08.bks.cpg/sg63_7_cif.got.tgz:12543.got - 2010.06.03 15:47:04.
