data_PCOD9472494
_publ_section_title
;
Structure prediction by ZEFSAII (Michael W. Deem and Ramdas Pophale) SiO2 
 PCOD9472494
Probable space group: C M C M
;
_chemical_formula_sum "Si O2"
_cell_formula_units_Z 116
_cell_length_a 9.610326
_cell_length_b 25.703465
_cell_length_c 25.522583
_cell_angle_alpha 90.000000
_cell_angle_beta 90.000000
_cell_angle_gamma 90.000000
_cell_volume 6304.554711
_symmetry_space_group_name_H-M "C M C M"
_symmetry_group_IT_number 63
_symmetry_cell_setting 'orthorhombic'
loop_
_space_group_symop_operation_xyz
x,y,z
-x,-y,1/2+z
x,-y,-z
-x,y,1/2-z
-x,-y,-z
x,y,1/2-z
-x,y,z
x,-y,1/2+z
1/2+x,1/2+y,z
1/2-x,1/2-y,1/2+z
1/2+x,1/2-y,-z
1/2-x,1/2+y,1/2-z
1/2-x,1/2-y,-z
1/2+x,1/2+y,1/2-z
1/2-x,1/2+y,z
1/2+x,1/2-y,1/2+z
loop_
_atom_site_type_symbol
_atom_site_label
_atom_site_fract_x
_atom_site_fract_y
_atom_site_fract_z
Si Si1 0.338914 0.669538 0.134817
Si Si2 0.340043 0.258827 0.186894
Si Si3 0.248295 0.584207 0.507218
Si Si4 0.840878 0.199439 0.487787
Si Si5 0.161169 0.428994 0.609979
Si Si6 0.000000 0.000000 0.000000
Si Si7 0.838373 0.454932 0.118884
Si Si8 0.164760 0.640222 0.687181
O O1 0.500000 0.666366 0.151923
O O2 0.248109 0.709907 0.167586
O O3 0.338793 0.689128 0.074637
O O4 0.261307 0.614258 0.134205
O O5 0.343200 0.258806 0.250000
O O6 0.500000 0.257946 0.167955
O O7 0.256722 0.310603 0.170579
O O8 0.287868 0.645071 0.512249
O O9 0.164907 0.577841 0.453043
O O10 0.379747 0.546041 0.501136
O O11 0.173464 0.565476 0.559738
O O12 0.750000 0.250000 0.500000
O O13 0.000000 0.208511 0.504265
O O14 0.218700 0.486708 0.622032
O O15 0.000000 0.423215 0.626992
O O16 0.781841 0.411239 0.157839
O O17 0.000000 0.460330 0.132550
O O18 0.174146 0.634231 0.750000
O O19 0.000000 0.648577 0.674616
#
# Coordination Sequence:
#
# PCOD9472494 Si02
#       8
#    16  16  16  16  16   4  16  16
#     4  10  22  38  58  81 110 148 187 228 281 339
#     4  10  21  39  61  85 111 142 185 235 282 336
#     4  11  21  35  56  80 112 151 197 240 283 335
#     4  10  23  38  52  77 114 150 187 228 283 340
#     4  10  20  35  55  81 114 149 189 235 284 332
#     4  12  20  36  58  80 118 148 210 242 284 336
#     4  10  20  34  56  84 111 147 193 235 282 337
#     4   9  19  37  59  82 111 145 182 228 282 337
#
# _framework density 18.399397
#
# number of rings (size 3 to 8) (size 9 to 14) (size 15 to 20)
#    0.000    1.931    2.069    1.241    2.897    5.241 
#    1.241    0.690    0.000    2.483    0.000    0.000 
#    0.000    0.000    0.000    0.000    0.000    0.000 
#
# Total GULP energy -323023.931660 kJ/mol
# GULP energy per Si atom -5569.378132 kJ/mol
# Density = 1.835752 g / cm^3
# Si number density = 18.399397 Si / 1000 Ang^3
#
#
#
# Elastic Constant Matrix: (Units=GPa)
#
#
# Indices 1 2 3 4 5 6 
#
# 1 107.7320 83.7889 18.2058 0.0000 0.0000 0.0000
# 2 83.7889 210.4802 34.0865 0.0000 0.0000 0.0000
# 3 18.2058 34.0865 14.9121 0.0000 0.0000 0.0000
# 4 0.0000 0.0000 0.0000 27.3426 0.0000 0.0000
# 5 0.0000 0.0000 0.0000 0.0000 12.1732 0.0000
# 6 0.0000 0.0000 0.0000 0.0000 0.0000 27.7629
#
#
#
# Elastic Compliance Matrix: (Units=1/GPa)
#
#
# Indices 1 2 3 4 5 6 
#
# 1 0.013872 -0.004413 -0.006848 0.000000 0.000000 0.000000
# 2 -0.004413 0.008948 -0.015065 0.000000 0.000000 0.000000
# 3 -0.006848 -0.015065 0.109855 0.000000 0.000000 0.000000
# 4 0.000000 0.000000 0.000000 0.036573 0.000000 0.000000
# 5 0.000000 0.000000 0.000000 0.000000 0.082147 0.000000
# 6 0.000000 0.000000 0.000000 0.000000 0.000000 0.036019
#
#
# Mechanical properties :
#
#
# Convention : Reuss Voigt Hill
#
# Bulk Modulus (GPa) = 12.49639 67.25409 39.87524
# Shear Modulus (GPa) = 13.63362 26.59196 20.11279
#
# Velocity S-wave (km/s) = 2.72505 3.80579 3.30983
# Velocity P-wave (km/s) = 4.08750 7.47955 6.02708
#
# Compressibility (1/GPa) = 0.08002312
#
# Stress axis : x y z
#
# Youngs Moduli (GPa) = 72.08809 111.76293 9.10288
#
# Poissons Ratio (x) = 0.49323 0.06234
# Poissons Ratio (y) = 0.31814 0.13713
# Poissons Ratio (z) = 0.49366 1.68366
#
# Static dielectric constant tensor:
#      x y z
#    x 1.637320 0.000000 0.000000 
#    y 0.000000 1.639910 0.000000 
#    z 0.000000 0.000000 1.635820 
# 
# From -- ./inp_files/60467.got.cif
#   From: 2010.05.17/outbox.cif.g08.bks.cpg/sg63_31_cif.got.tgz:60467.got - 2010.06.03 15:47:04.
