data_PCOD9472301
_publ_section_title
;
Structure prediction by ZEFSAII (Michael W. Deem and Ramdas Pophale) SiO2 
 PCOD9472301
Probable space group: C M C M
;
_chemical_formula_sum "Si O2"
_cell_formula_units_Z 88
_cell_length_a 16.237009
_cell_length_b 30.893847
_cell_length_c 9.575858
_cell_angle_alpha 90.000000
_cell_angle_beta 90.000000
_cell_angle_gamma 90.000000
_cell_volume 4803.477050
_symmetry_space_group_name_H-M "C M C M"
_symmetry_group_IT_number 63
_symmetry_cell_setting 'orthorhombic'
loop_
_space_group_symop_operation_xyz
x,y,z
-x,-y,1/2+z
x,-y,-z
-x,y,1/2-z
-x,-y,-z
x,y,1/2-z
-x,y,z
x,-y,1/2+z
1/2+x,1/2+y,z
1/2-x,1/2-y,1/2+z
1/2+x,1/2-y,-z
1/2-x,1/2+y,1/2-z
1/2-x,1/2-y,-z
1/2+x,1/2+y,1/2-z
1/2-x,1/2+y,z
1/2+x,1/2-y,1/2+z
loop_
_atom_site_type_symbol
_atom_site_label
_atom_site_fract_x
_atom_site_fract_y
_atom_site_fract_z
Si Si1 0.401747 0.960437 0.592368
Si Si2 0.000000 0.045634 0.579529
Si Si3 0.901938 0.709110 0.914759
Si Si4 0.099334 0.207963 0.909790
Si Si5 0.641175 0.387267 0.417237
Si Si6 0.332532 0.115311 0.584704
O O1 0.368412 0.960355 0.750000
O O2 0.500000 0.966126 0.601978
O O3 0.384651 0.916335 0.511170
O O4 0.367954 0.000000 0.500000
O O5 0.920814 0.075007 0.538124
O O6 0.000000 0.039766 0.750000
O O7 0.000000 0.000000 0.500000
O O8 0.892820 0.717776 0.750000
O O9 0.853021 0.665232 0.947316
O O10 0.000000 0.701796 0.941064
O O11 0.873701 0.750643 0.001887
O O12 0.130572 0.211084 0.750000
O O13 0.122135 0.161073 0.971136
O O14 0.000000 0.209093 0.905005
O O15 0.627625 0.383930 0.250000
O O16 0.737048 0.395707 0.440240
O O17 0.350795 0.108864 0.750000
#
# Coordination Sequence:
#
# PCOD9472301 Si02
#       6
#    16   8  16  16  16  16
#     4  10  21  37  57  79 104 137 176 215 258 311
#     4  10  20  38  60  80 104 134 176 226 277 328
#     4   9  18  31  47  72 107 143 174 213 265 315
#     4   9  16  30  53  75  98 137 185 222 257 312
#     4   9  18  34  56  78 102 137 178 221 268 320
#     4  10  20  34  53  78 109 143 177 216 266 320
#
# _framework density 18.320063000000001
#
# number of rings (size 3 to 8) (size 9 to 14) (size 15 to 20)
#    0.000    2.545    0.909    1.091    0.000    4.000 
#    0.000    6.364    0.000    0.000    0.000    0.000 
#    0.000    0.000    0.000    0.000    0.000    0.000 
#
# Total GULP energy -245292.668483 kJ/mol
# GULP energy per Si atom -5574.833375 kJ/mol
# Density = 1.827837 g / cm^3
# Si number density = 18.320063 Si / 1000 Ang^3
#
#
#
# Elastic Constant Matrix: (Units=GPa)
#
#
# Indices 1 2 3 4 5 6 
#
# 1 29.5366 28.6874 25.0316 0.0000 0.0000 0.0000
# 2 28.6874 124.7353 58.2194 0.0000 0.0000 0.0000
# 3 25.0316 58.2194 58.4417 0.0000 0.0000 0.0000
# 4 0.0000 0.0000 0.0000 34.3726 0.0000 0.0000
# 5 0.0000 0.0000 0.0000 0.0000 6.4889 0.0000
# 6 0.0000 0.0000 0.0000 0.0000 0.0000 33.9059
#
#
#
# Elastic Compliance Matrix: (Units=1/GPa)
#
#
# Indices 1 2 3 4 5 6 
#
# 1 0.053751 -0.003021 -0.020013 0.000000 0.000000 0.000000
# 2 -0.003021 0.015154 -0.013802 0.000000 0.000000 0.000000
# 3 -0.020013 -0.013802 0.039433 0.000000 0.000000 0.000000
# 4 0.000000 0.000000 0.000000 0.029093 0.000000 0.000000
# 5 0.000000 0.000000 0.000000 0.000000 0.154109 0.000000
# 6 0.000000 0.000000 0.000000 0.000000 0.000000 0.029493
#
#
# Mechanical properties :
#
#
# Convention : Reuss Voigt Hill
#
# Bulk Modulus (GPa) = 28.84748 48.51006 38.67877
# Shear Modulus (GPa) = 12.30739 21.67184 16.98961
#
# Velocity S-wave (km/s) = 2.59472 3.44315 3.04859
# Velocity P-wave (km/s) = 4.97567 6.50720 5.79228
#
# Compressibility (1/GPa) = 0.03466507
#
# Stress axis : x y z
#
# Youngs Moduli (GPa) = 18.60434 65.98944 25.35966
#
# Poissons Ratio (x) = 0.19936 0.50752
# Poissons Ratio (y) = 0.05621 0.35002
# Poissons Ratio (z) = 0.37232 0.91081
#
# Static dielectric constant tensor:
#      x y z
#    x 1.660140 0.000000 0.000000 
#    y 0.000000 1.625600 0.000000 
#    z 0.000000 0.000000 1.624670 
# 
# From -- ./inp_files/6901.got.cif
#   From: 2010.05.17/outbox.cif.g08.bks.cpg/sg63_4_cif.got.tgz:6901.got - 2010.06.03 15:47:04.
