data_PCOD9472171
_publ_section_title
;
Structure prediction by ZEFSAII (Michael W. Deem and Ramdas Pophale) SiO2 
 PCOD9472171
Probable space group: C M C M
;
_chemical_formula_sum "Si O2"
_cell_formula_units_Z 72
_cell_length_a 26.563002
_cell_length_b 17.746321
_cell_length_c 8.446438
_cell_angle_alpha 90.000000
_cell_angle_beta 90.000000
_cell_angle_gamma 90.000000
_cell_volume 3981.613373
_symmetry_space_group_name_H-M "C M C M"
_symmetry_group_IT_number 63
_symmetry_cell_setting 'orthorhombic'
loop_
_space_group_symop_operation_xyz
x,y,z
-x,-y,1/2+z
x,-y,-z
-x,y,1/2-z
-x,-y,-z
x,y,1/2-z
-x,y,z
x,-y,1/2+z
1/2+x,1/2+y,z
1/2-x,1/2-y,1/2+z
1/2+x,1/2-y,-z
1/2-x,1/2+y,1/2-z
1/2-x,1/2-y,-z
1/2+x,1/2+y,1/2-z
1/2-x,1/2+y,z
1/2+x,1/2-y,1/2+z
loop_
_atom_site_type_symbol
_atom_site_label
_atom_site_fract_x
_atom_site_fract_y
_atom_site_fract_z
Si Si1 0.193924 0.238251 0.061754
Si Si2 0.412062 0.799154 0.441071
Si Si3 0.340968 0.422034 0.439128
Si Si4 0.500000 0.086411 0.941955
Si Si5 0.945686 0.863997 0.441065
O O1 0.194508 0.245634 0.250000
O O2 0.146747 0.291082 0.004388
O O3 0.250000 0.250000 0.000000
O O4 0.181655 0.153041 0.012454
O O5 0.411255 0.801919 0.250000
O O6 0.449638 0.866591 0.493404
O O7 0.436418 0.720004 0.493849
O O8 0.318773 0.500000 0.500000
O O9 0.337135 0.418595 0.250000
O O10 0.399411 0.415717 0.489397
O O11 0.500000 0.085861 0.750000
O O12 0.500000 0.000000 0.000000
O O13 0.945013 0.859203 0.250000
O O14 0.000000 0.891544 0.494548
#
# Coordination Sequence:
#
# PCOD9472171 Si02
#       5
#    16  16  16   8  16
#     4  10  20  36  58  81 104 138 181 225 271 324
#     4   9  18  33  53  75 103 137 176 217 262 318
#     4  10  20  34  51  75 107 139 173 215 261 311
#     4  10  20  34  52  78 109 140 175 220 271 324
#     4   9  17  29  48  74 103 136 172 208 250 303
#
# _framework density 18.083120000000001
#
# number of rings (size 3 to 8) (size 9 to 14) (size 15 to 20)
#    0.000    2.444    1.111    1.333    0.000    3.111 
#    0.000    1.111    0.000    2.667    0.000    0.000 
#    0.000    0.000    0.000    0.000    0.000    0.000 
#
# Total GULP energy -200474.066337 kJ/mol
# GULP energy per Si atom -5568.724065 kJ/mol
# Density = 1.804196 g / cm^3
# Si number density = 18.083120 Si / 1000 Ang^3
#
#
#
# Elastic Constant Matrix: (Units=GPa)
#
#
# Indices 1 2 3 4 5 6 
#
# 1 158.4213 61.1469 25.3262 0.0000 0.0000 0.0000
# 2 61.1469 111.7063 9.5442 0.0000 0.0000 0.0000
# 3 25.3262 9.5442 12.0776 0.0000 0.0000 0.0000
# 4 0.0000 0.0000 0.0000 24.2153 0.0000 0.0000
# 5 0.0000 0.0000 0.0000 0.0000 22.6989 0.0000
# 6 0.0000 0.0000 0.0000 0.0000 0.0000 13.3157
#
#
#
# Elastic Compliance Matrix: (Units=1/GPa)
#
#
# Indices 1 2 3 4 5 6 
#
# 1 0.011227 -0.004433 -0.020039 0.000000 0.000000 0.000000
# 2 -0.004433 0.011351 0.000327 0.000000 0.000000 0.000000
# 3 -0.020039 0.000327 0.124562 0.000000 0.000000 0.000000
# 4 0.000000 0.000000 0.000000 0.041296 0.000000 0.000000
# 5 0.000000 0.000000 0.000000 0.000000 0.044055 0.000000
# 6 0.000000 0.000000 0.000000 0.000000 0.000000 0.075099
#
#
# Mechanical properties :
#
#
# Convention : Reuss Voigt Hill
#
# Bulk Modulus (GPa) = 10.11656 52.69332 31.40494
# Shear Modulus (GPa) = 12.85903 24.45850 18.65876
#
# Velocity S-wave (km/s) = 2.66955 3.68171 3.21570
# Velocity P-wave (km/s) = 3.88698 6.87576 5.58501
#
# Compressibility (1/GPa) = 0.09884783
#
# Stress axis : x y z
#
# Youngs Moduli (GPa) = 89.07018 88.09843 8.02813
#
# Poissons Ratio (x) = 0.39058 0.16088
# Poissons Ratio (y) = 0.39489 -0.00262
# Poissons Ratio (z) = 1.78491 -0.02878
#
# Static dielectric constant tensor:
#      x y z
#    x 1.666870 0.000000 0.000000 
#    y 0.000000 1.579850 0.000000 
#    z 0.000000 0.000000 1.615070 
# 
# From -- ./inp_files/9888.got.cif
#   From: 2010.05.17/outbox.cif.g08.bks.cpg/sg63_5_cif.got.tgz:9888.got - 2010.06.03 15:47:04.
