data_PCOD9472582
_publ_section_title
;
Structure prediction by ZEFSAII (Michael W. Deem and Ramdas Pophale) SiO2 
 PCOD9472582
Probable space group: C M C M
;
_chemical_formula_sum "Si O2"
_cell_formula_units_Z 116
_cell_length_a 18.888585
_cell_length_b 14.714481
_cell_length_c 21.073391
_cell_angle_alpha 90.000000
_cell_angle_beta 90.000000
_cell_angle_gamma 90.000000
_cell_volume 5857.048208
_symmetry_space_group_name_H-M "C M C M"
_symmetry_group_IT_number 63
_symmetry_cell_setting 'orthorhombic'
loop_
_space_group_symop_operation_xyz
x,y,z
-x,-y,1/2+z
x,-y,-z
-x,y,1/2-z
-x,-y,-z
x,y,1/2-z
-x,y,z
x,-y,1/2+z
1/2+x,1/2+y,z
1/2-x,1/2-y,1/2+z
1/2+x,1/2-y,-z
1/2-x,1/2+y,1/2-z
1/2-x,1/2-y,-z
1/2+x,1/2+y,1/2-z
1/2-x,1/2+y,z
1/2+x,1/2-y,1/2+z
loop_
_atom_site_type_symbol
_atom_site_label
_atom_site_fract_x
_atom_site_fract_y
_atom_site_fract_z
Si Si1 0.817416 0.219626 0.918645
Si Si2 0.134161 0.932129 0.884500
Si Si3 0.375395 0.870644 0.147437
Si Si4 0.000000 0.401926 0.250000
Si Si5 0.269046 0.958719 0.435584
Si Si6 0.580706 0.610399 0.675527
Si Si7 0.776477 0.793400 0.818077
Si Si8 0.418783 0.263775 0.965274
O O1 0.761971 0.143622 0.943472
O O2 0.866328 0.171332 0.865559
O O3 0.773678 0.294019 0.879526
O O4 0.865741 0.250464 0.976422
O O5 0.165776 0.871195 0.828110
O O6 0.098313 0.861814 0.933162
O O7 0.200514 0.982516 0.916846
O O8 0.085588 0.010253 0.855320
O O9 0.437376 0.897354 0.194713
O O10 0.328492 0.951901 0.118438
O O11 0.318761 0.801664 0.179181
O O12 0.406202 0.811946 0.088530
O O13 0.298706 0.000000 0.500000
O O14 0.600495 0.607351 0.750000
O O15 0.500000 0.643406 0.670760
O O16 0.740186 0.802471 0.750000
O O17 0.500000 0.262853 0.986355
#
# Coordination Sequence:
#
# PCOD9472582 Si02
#       8
#    16  16  16   4  16  16  16  16
#     4  10  21  34  57  80 120 152 197 241 281 353
#     4  10  21  34  56  86 119 149 186 252 290 353
#     4  10  23  36  65  83 118 152 192 244 289 357
#     4  12  20  48  58  92 108 158 200 242 292 360
#     4  10  20  38  56  87 116 154 189 236 293 344
#     4  10  20  35  51  77 113 161 197 232 288 353
#     4  10  20  36  56  88 111 150 193 244 297 338
#     4  11  21  36  57  92 118 156 192 240 303 342
#
# _framework density 19.805198000000001
#
# number of rings (size 3 to 8) (size 9 to 14) (size 15 to 20)
#    0.000    1.793    2.759    1.655    1.931    1.655 
#    2.483    2.414    0.000    0.000    0.000    0.000 
#    0.000    0.000    0.000    0.000    0.000    0.000 
#
# Total GULP energy -323327.403465 kJ/mol
# GULP energy per Si atom -5574.610405 kJ/mol
# Density = 1.976012 g / cm^3
# Si number density = 19.805198 Si / 1000 Ang^3
#
#
#
# Elastic Constant Matrix: (Units=GPa)
#
#
# Indices 1 2 3 4 5 6 
#
# 1 101.9559 4.4309 46.5440 0.0000 0.0000 0.0000
# 2 4.4309 15.4765 -3.6280 0.0000 0.0000 0.0000
# 3 46.5440 -3.6280 111.0926 0.0000 0.0000 0.0000
# 4 0.0000 0.0000 0.0000 -3.4756 0.0000 0.0000
# 5 0.0000 0.0000 0.0000 0.0000 50.4769 0.0000
# 6 0.0000 0.0000 0.0000 0.0000 0.0000 15.7749
#
#
#
# Elastic Compliance Matrix: (Units=1/GPa)
#
#
# Indices 1 2 3 4 5 6 
#
# 1 0.012477 -0.004834 -0.005385 0.000000 0.000000 0.000000
# 2 -0.004834 0.066986 0.004213 0.000000 0.000000 0.000000
# 3 -0.005385 0.004213 0.011395 0.000000 0.000000 0.000000
# 4 0.000000 0.000000 0.000000 -0.287723 0.000000 0.000000
# 5 0.000000 0.000000 0.000000 0.000000 0.019811 0.000000
# 6 0.000000 0.000000 0.000000 0.000000 0.000000 0.063392
#
#
# Mechanical properties :
#
#
# Convention : Reuss Voigt Hill
#
# Bulk Modulus (GPa) = 12.68316 35.91319 24.29817
# Shear Modulus (GPa) = -66.34144 24.63379 -20.85382
#
# Velocity S-wave (km/s) = -5.79394 3.53059 -3.24843
# Velocity P-wave (km/s) = 6.19207 5.89853 1.33212
#
# Compressibility (1/GPa) = 0.07884473
#
# Stress axis : x y z
#
# Youngs Moduli (GPa) = 80.14975 14.92852 87.75554
#
# Poissons Ratio (x) = 0.07217 0.47258
# Poissons Ratio (y) = 0.38748 -0.36972
# Poissons Ratio (z) = 0.43162 -0.06289
#
# Static dielectric constant tensor:
#      x y z
#    x 1.679230 0.000000 0.000000 
#    y 0.000000 1.705800 0.000000 
#    z 0.000000 0.000000 1.695840 
# 
# From -- ./inp_files/63956.got.cif
#   From: 2010.05.17/outbox.cif.g08.bks.cpg/sg63_32_cif.got.tgz:63956.got - 2010.06.03 15:47:04.
