data_PCOD9472854
_publ_section_title
;
Structure prediction by ZEFSAII (Michael W. Deem and Ramdas Pophale) SiO2 
 PCOD9472854
Probable space group: C M C M
;
_chemical_formula_sum "Si O2"
_cell_formula_units_Z 80
_cell_length_a 11.270247
_cell_length_b 13.847192
_cell_length_c 26.811281
_cell_angle_alpha 90.000000
_cell_angle_beta 90.000000
_cell_angle_gamma 90.000000
_cell_volume 4184.202673
_symmetry_space_group_name_H-M "C M C M"
_symmetry_group_IT_number 63
_symmetry_cell_setting 'orthorhombic'
loop_
_space_group_symop_operation_xyz
x,y,z
-x,-y,1/2+z
x,-y,-z
-x,y,1/2-z
-x,-y,-z
x,y,1/2-z
-x,y,z
x,-y,1/2+z
1/2+x,1/2+y,z
1/2-x,1/2-y,1/2+z
1/2+x,1/2-y,-z
1/2-x,1/2+y,1/2-z
1/2-x,1/2-y,-z
1/2+x,1/2+y,1/2-z
1/2-x,1/2+y,z
1/2+x,1/2-y,1/2+z
loop_
_atom_site_type_symbol
_atom_site_label
_atom_site_fract_x
_atom_site_fract_y
_atom_site_fract_z
Si Si1 0.135610 0.628763 0.334828
Si Si2 0.863528 0.245484 0.306110
Si Si3 0.625387 0.196060 0.051929
Si Si4 0.802379 0.096669 0.523504
Si Si5 0.636855 0.077178 0.619071
O O1 0.252699 0.671834 0.308883
O O2 0.136614 0.676443 0.389763
O O3 0.151239 0.515058 0.345060
O O4 0.000000 0.644623 0.314425
O O5 0.862266 0.287618 0.250000
O O6 0.844301 0.326624 0.348256
O O7 0.000000 0.206730 0.313414
O O8 0.500000 0.154449 0.034732
O O9 0.625921 0.310183 0.041637
O O10 0.725272 0.142419 0.021101
O O11 0.721063 0.070540 0.571202
O O12 0.858314 0.000000 0.500000
O O13 0.500000 0.077238 0.601951
#
# Coordination Sequence:
#
# PCOD9472854 Si02
#       5
#    16  16  16  16  16
#     4  10  20  37  60  87 115 145 187 236 281 331
#     4  10  22  41  61  82 111 146 186 234 287 342
#     4  10  21  34  51  80 116 150 187 229 273 328
#     4  11  20  33  54  80 114 150 189 227 274 332
#     4  10  20  35  58  84 112 148 189 230 279 337
#
# _framework density 19.119530999999998
#
# number of rings (size 3 to 8) (size 9 to 14) (size 15 to 20)
#    0.000    1.800    4.000    0.600    0.000    2.400 
#    0.000    4.000    0.000    0.000    0.000    0.000 
#    0.000    0.000    0.000    0.000    0.000    0.000 
#
# Total GULP energy -222777.593266 kJ/mol
# GULP energy per Si atom -5569.439832 kJ/mol
# Density = 1.907601 g / cm^3
# Si number density = 19.119531 Si / 1000 Ang^3
#
#
#
# Elastic Constant Matrix: (Units=GPa)
#
#
# Indices 1 2 3 4 5 6 
#
# 1 107.1842 36.2247 25.6828 0.0000 0.0000 0.0000
# 2 36.2247 76.3673 7.7988 0.0000 0.0000 0.0000
# 3 25.6828 7.7988 52.2392 0.0000 0.0000 0.0000
# 4 0.0000 0.0000 0.0000 17.1046 0.0000 0.0000
# 5 0.0000 0.0000 0.0000 0.0000 -316.1313 0.0000
# 6 0.0000 0.0000 0.0000 0.0000 0.0000 20.2766
#
#
#
# Elastic Compliance Matrix: (Units=1/GPa)
#
#
# Indices 1 2 3 4 5 6 
#
# 1 0.012406 -0.005343 -0.005302 0.000000 0.000000 0.000000
# 2 -0.005343 0.015599 0.000298 0.000000 0.000000 0.000000
# 3 -0.005302 0.000298 0.021705 0.000000 0.000000 0.000000
# 4 0.000000 0.000000 0.000000 0.058464 0.000000 0.000000
# 5 0.000000 0.000000 0.000000 0.000000 -0.003163 0.000000
# 6 0.000000 0.000000 0.000000 0.000000 0.000000 0.049318
#
#
# Mechanical properties :
#
#
# Convention : Reuss Voigt Hill
#
# Bulk Modulus (GPa) = 34.46365 41.68927 38.07646
# Shear Modulus (GPa) = 27.07196 -44.67771 -8.80288
#
# Velocity S-wave (km/s) = 3.76697 -4.83925 -2.14805
# Velocity P-wave (km/s) = 6.08149 3.06146 3.71565
#
# Compressibility (1/GPa) = 0.02901608
#
# Stress axis : x y z
#
# Youngs Moduli (GPa) = 80.60663 64.10765 46.07315
#
# Poissons Ratio (x) = 0.34255 0.24426
# Poissons Ratio (y) = 0.43071 -0.01374
# Poissons Ratio (z) = 0.42734 -0.01912
#
# Static dielectric constant tensor:
#      x y z
#    x 1.741330 0.000000 0.000000 
#    y 0.000000 1.670250 0.000000 
#    z 0.000000 0.000000 1.648910 
# 
# From -- ./inp_files/61083.got.cif
#   From: 2010.05.17/outbox.cif.g08.bks.cpg/sg63_31_cif.got.tgz:61083.got - 2010.06.03 15:47:04.
