data_PCOD9472527
_publ_section_title
;
Structure prediction by ZEFSAII (Michael W. Deem and Ramdas Pophale) SiO2 
 PCOD9472527
Probable space group: C M C M
;
_chemical_formula_sum "Si O2"
_cell_formula_units_Z 80
_cell_length_a 8.804786
_cell_length_b 29.861192
_cell_length_c 15.995722
_cell_angle_alpha 90.000000
_cell_angle_beta 90.000000
_cell_angle_gamma 90.000000
_cell_volume 4205.617706
_symmetry_space_group_name_H-M "C M C M"
_symmetry_group_IT_number 63
_symmetry_cell_setting 'orthorhombic'
loop_
_space_group_symop_operation_xyz
x,y,z
-x,-y,1/2+z
x,-y,-z
-x,y,1/2-z
-x,-y,-z
x,y,1/2-z
-x,y,z
x,-y,1/2+z
1/2+x,1/2+y,z
1/2-x,1/2-y,1/2+z
1/2+x,1/2-y,-z
1/2-x,1/2+y,1/2-z
1/2-x,1/2-y,-z
1/2+x,1/2+y,1/2-z
1/2-x,1/2+y,z
1/2+x,1/2-y,1/2+z
loop_
_atom_site_type_symbol
_atom_site_label
_atom_site_fract_x
_atom_site_fract_y
_atom_site_fract_z
Si Si1 0.316239 0.712922 0.250000
Si Si2 0.683501 0.053227 0.908315
Si Si3 0.321779 0.643858 0.652964
Si Si4 0.815995 0.547198 0.103107
Si Si5 0.315356 0.113250 0.250000
Si Si6 0.181327 0.268699 0.085180
O O1 0.500000 0.710904 0.250000
O O2 0.250282 0.662985 0.250000
O O3 0.268959 0.739717 0.333713
O O4 0.500000 0.056144 0.901766
O O5 0.758777 0.094338 0.861796
O O6 0.730806 0.003873 0.876857
O O7 0.724722 0.056294 0.006794
O O8 0.300161 0.655781 0.750000
O O9 0.500000 0.645449 0.633489
O O10 0.233952 0.680447 0.598966
O O11 0.765928 0.584465 0.168857
O O12 0.000000 0.546873 0.105741
O O13 0.500000 0.115676 0.250000
O O14 0.000000 0.266815 0.081160
O O15 0.250000 0.250000 0.000000
#
# Coordination Sequence:
#
# PCOD9472527 Si02
#       6
#     8  16  16  16   8  16
#     4  10  24  44  61  86 121 155 194 243 297 360
#     4   9  18  35  59  84 116 153 196 243 291 343
#     4  11  24  40  59  88 122 154 196 245 296 355
#     4   8  17  34  55  85 117 151 196 242 282 343
#     4  10  20  34  57  84 115 155 198 237 283 342
#     4  11  24  44  67  90 119 156 201 248 302 361
#
# _framework density 19.022176000000002
#
# number of rings (size 3 to 8) (size 9 to 14) (size 15 to 20)
#    0.000    2.200    1.000    2.400    4.200    2.800 
#    0.000    3.000    0.000    0.000    0.000    0.000 
#    0.000    0.000    0.000    0.000    0.000    0.000 
#
# Total GULP energy -223324.865429 kJ/mol
# GULP energy per Si atom -5583.121636 kJ/mol
# Density = 1.897888 g / cm^3
# Si number density = 19.022176 Si / 1000 Ang^3
#
#
#
# Elastic Constant Matrix: (Units=GPa)
#
#
# Indices 1 2 3 4 5 6 
#
# 1 25.0774 20.2235 32.8653 0.0000 0.0000 0.0000
# 2 20.2235 105.1908 40.2430 0.0000 0.0000 0.0000
# 3 32.8653 40.2430 76.2276 0.0000 0.0000 0.0000
# 4 0.0000 0.0000 0.0000 37.2229 0.0000 0.0000
# 5 0.0000 0.0000 0.0000 0.0000 23.7041 0.0000
# 6 0.0000 0.0000 0.0000 0.0000 0.0000 30.4997
#
#
#
# Elastic Compliance Matrix: (Units=1/GPa)
#
#
# Indices 1 2 3 4 5 6 
#
# 1 0.092513 -0.003166 -0.038215 0.000000 0.000000 0.000000
# 2 -0.003166 0.012021 -0.004981 0.000000 0.000000 0.000000
# 3 -0.038215 -0.004981 0.032225 0.000000 0.000000 0.000000
# 4 0.000000 0.000000 0.000000 0.026865 0.000000 0.000000
# 5 0.000000 0.000000 0.000000 0.000000 0.042187 0.000000
# 6 0.000000 0.000000 0.000000 0.000000 0.000000 0.032787
#
#
# Mechanical properties :
#
#
# Convention : Reuss Voigt Hill
#
# Bulk Modulus (GPa) = 22.70997 43.68439 33.19718
# Shear Modulus (GPa) = 14.45085 25.82960 20.14023
#
# Velocity S-wave (km/s) = 2.75923 3.68892 3.25741
# Velocity P-wave (km/s) = 4.70273 6.41553 5.62471
#
# Compressibility (1/GPa) = 0.04403353
#
# Stress axis : x y z
#
# Youngs Moduli (GPa) = 10.80931 83.18862 31.03209
#
# Poissons Ratio (x) = 0.26338 1.18590
# Poissons Ratio (y) = 0.03422 0.15458
# Poissons Ratio (z) = 0.41308 0.41437
#
# Static dielectric constant tensor:
#      x y z
#    x 1.643430 0.000000 0.000000 
#    y 0.000000 1.651010 0.000000 
#    z 0.000000 0.000000 1.667910 
# 
# From -- ./inp_files/40551.got.cif
#   From: 2010.05.17/outbox.cif.g08.bks.cpg/sg63_21_cif.got.tgz:40551.got - 2010.06.03 15:47:04.
