data_PCOD9472565
_publ_section_title
;
Structure prediction by ZEFSAII (Michael W. Deem and Ramdas Pophale) SiO2 
 PCOD9472565
Probable space group: C M C M
;
_chemical_formula_sum "Si O2"
_cell_formula_units_Z 56
_cell_length_a 16.631333
_cell_length_b 16.945066
_cell_length_c 9.210298
_cell_angle_alpha 90.000000
_cell_angle_beta 90.000000
_cell_angle_gamma 90.000000
_cell_volume 2595.637298
_symmetry_space_group_name_H-M "C M C M"
_symmetry_group_IT_number 63
_symmetry_cell_setting 'orthorhombic'
loop_
_space_group_symop_operation_xyz
x,y,z
-x,-y,1/2+z
x,-y,-z
-x,y,1/2-z
-x,-y,-z
x,y,1/2-z
-x,y,z
x,-y,1/2+z
1/2+x,1/2+y,z
1/2-x,1/2-y,1/2+z
1/2+x,1/2-y,-z
1/2-x,1/2+y,1/2-z
1/2-x,1/2-y,-z
1/2+x,1/2+y,1/2-z
1/2-x,1/2+y,z
1/2+x,1/2-y,1/2+z
loop_
_atom_site_type_symbol
_atom_site_label
_atom_site_fract_x
_atom_site_fract_y
_atom_site_fract_z
Si Si1 0.164485 0.266921 0.922310
Si Si2 0.409009 0.369867 0.590447
Si Si3 0.370359 0.924704 0.413957
Si Si4 0.212219 0.000000 0.000000
O O1 0.174820 0.275652 0.750000
O O2 0.250000 0.250000 0.000000
O O3 0.109966 0.192821 0.966195
O O4 0.126288 0.345680 0.991747
O O5 0.401019 0.330900 0.750000
O O6 0.500000 0.399589 0.577251
O O7 0.345189 0.440015 0.582649
O O8 0.400029 0.915569 0.250000
O O9 0.275086 0.947782 0.408500
O O10 0.405738 0.000000 0.500000
#
# Coordination Sequence:
#
# PCOD9472565 Si02
#       4
#    16  16  16   8
#     4  12  23  37  60  85 118 158 206 257 301 355
#     4  11  24  41  61  87 124 165 203 245 300 367
#     4  10  20  34  59  90 120 151 196 248 298 354
#     4  10  21  34  62  86 125 158 198 238 299 356
#
# _framework density 21.574663000000001
#
# number of rings (size 3 to 8) (size 9 to 14) (size 15 to 20)
#    0.857    0.286    2.857    4.714    0.000    1.714 
#    0.000    0.000    0.000    0.857    0.000    0.000 
#    0.000    0.000    0.000    0.000    0.000    0.000 
#
# Total GULP energy -156313.893501 kJ/mol
# GULP energy per Si atom -5582.639054 kJ/mol
# Density = 2.152556 g / cm^3
# Si number density = 21.574663 Si / 1000 Ang^3
#
#
#
# Elastic Constant Matrix: (Units=GPa)
#
#
# Indices 1 2 3 4 5 6 
#
# 1 78.5646 0.9500 7.3219 0.0000 0.0000 0.0000
# 2 0.9500 97.4388 41.0039 0.0000 0.0000 0.0000
# 3 7.3219 41.0039 183.9988 0.0000 0.0000 0.0000
# 4 0.0000 0.0000 0.0000 12.0194 0.0000 0.0000
# 5 0.0000 0.0000 0.0000 0.0000 10.3093 0.0000
# 6 0.0000 0.0000 0.0000 0.0000 0.0000 3.3473
#
#
#
# Elastic Compliance Matrix: (Units=1/GPa)
#
#
# Indices 1 2 3 4 5 6 
#
# 1 0.012777 0.000099 -0.000530 0.000000 0.000000 0.000000
# 2 0.000099 0.011326 -0.002528 0.000000 0.000000 0.000000
# 3 -0.000530 -0.002528 0.006019 0.000000 0.000000 0.000000
# 4 0.000000 0.000000 0.000000 0.083199 0.000000 0.000000
# 5 0.000000 0.000000 0.000000 0.000000 0.097000 0.000000
# 6 0.000000 0.000000 0.000000 0.000000 0.000000 0.298745
#
#
# Mechanical properties :
#
#
# Convention : Reuss Voigt Hill
#
# Bulk Modulus (GPa) = 41.31834 50.95040 46.13437
# Shear Modulus (GPa) = 9.55928 25.85030 17.70479
#
# Velocity S-wave (km/s) = 2.10723 3.46523 2.86777
# Velocity P-wave (km/s) = 5.01133 6.29901 5.69170
#
# Compressibility (1/GPa) = 0.02420233
#
# Stress axis : x y z
#
# Youngs Moduli (GPa) = 78.26793 88.29526 166.13378
#
# Poissons Ratio (x) = -0.00871 0.08812
# Poissons Ratio (y) = -0.00772 0.41996
# Poissons Ratio (z) = 0.04151 0.22320
#
# Static dielectric constant tensor:
#      x y z
#    x 1.791560 0.000000 0.000000 
#    y 0.000000 1.759390 0.000000 
#    z 0.000000 0.000000 1.639670 
# 
# From -- ./inp_files/7425.got.cif
#   From: 2010.05.17/outbox.cif.g08.bks.cpg/sg63_4_cif.got.tgz:7425.got - 2010.06.03 15:47:04.
