data_PCOD9472497
_publ_section_title
;
Structure prediction by ZEFSAII (Michael W. Deem and Ramdas Pophale) SiO2 
 PCOD9472497
Probable space group: C M C M
;
_chemical_formula_sum "Si O2"
_cell_formula_units_Z 112
_cell_length_a 25.368661
_cell_length_b 14.303491
_cell_length_c 14.189290
_cell_angle_alpha 90.000000
_cell_angle_beta 90.000000
_cell_angle_gamma 90.000000
_cell_volume 5148.731648
_symmetry_space_group_name_H-M "C M C M"
_symmetry_group_IT_number 63
_symmetry_cell_setting 'orthorhombic'
loop_
_space_group_symop_operation_xyz
x,y,z
-x,-y,1/2+z
x,-y,-z
-x,y,1/2-z
-x,-y,-z
x,y,1/2-z
-x,y,z
x,-y,1/2+z
1/2+x,1/2+y,z
1/2-x,1/2-y,1/2+z
1/2+x,1/2-y,-z
1/2-x,1/2+y,1/2-z
1/2-x,1/2-y,-z
1/2+x,1/2+y,1/2-z
1/2-x,1/2+y,z
1/2+x,1/2-y,1/2+z
loop_
_atom_site_type_symbol
_atom_site_label
_atom_site_fract_x
_atom_site_fract_y
_atom_site_fract_z
Si Si1 0.384497 0.655730 0.642850
Si Si2 0.235896 0.022063 0.859975
Si Si3 0.059031 0.033031 0.108567
Si Si4 0.842288 0.863659 0.928379
Si Si5 0.331542 0.907205 0.858593
Si Si6 0.057945 0.346164 0.637303
Si Si7 0.249611 0.758428 0.388568
O O1 0.361109 0.671352 0.750000
O O2 0.259093 0.634143 0.637529
O O3 0.412966 0.556820 0.651792
O O4 0.427684 0.736767 0.629471
O O5 0.229773 0.996501 0.750000
O O6 0.191236 0.959550 0.911041
O O7 0.291245 0.982567 0.897495
O O8 0.099841 0.118265 0.113087
O O9 0.000000 0.051621 0.141657
O O10 0.055850 0.000000 0.000000
O O11 0.807537 0.786858 0.871940
O O12 0.852358 0.845878 0.041785
O O13 0.340569 0.933040 0.750000
O O14 0.389118 0.894573 0.902703
O O15 0.297245 0.811195 0.857553
O O16 0.056052 0.365087 0.750000
O O17 0.000000 0.367454 0.598032
O O18 0.250000 0.750000 0.500000
#
# Coordination Sequence:
#
# PCOD9472497 Si02
#       7
#    16  16  16  16  16  16  16
#     4  10  20  34  56  84 125 171 206 246 306 374
#     4  10  23  42  64  87 119 164 209 259 320 376
#     4   9  19  34  54  82 120 163 205 251 302 362
#     4  10  23  39  60  90 125 163 210 259 311 372
#     4   9  19  36  57  85 118 153 198 249 308 369
#     4   9  17  30  53  88 126 162 206 258 306 359
#     4  11  23  36  58  83 117 158 204 256 305 369
#
# _framework density 21.752931
#
# number of rings (size 3 to 8) (size 9 to 14) (size 15 to 20)
#    0.000    2.286    0.000    1.714    8.000    4.286 
#    0.000    0.000    0.000    1.714    0.000    4.000 
#    0.000    0.000    0.000    0.000    0.000    2.286 
#
# Total GULP energy -311949.787705 kJ/mol
# GULP energy per Si atom -5570.531923 kJ/mol
# Density = 2.170342 g / cm^3
# Si number density = 21.752931 Si / 1000 Ang^3
#
#
#
# Elastic Constant Matrix: (Units=GPa)
#
#
# Indices 1 2 3 4 5 6 
#
# 1 196.2549 33.0946 11.2388 0.0000 0.0000 0.0000
# 2 33.0946 63.7063 -0.6248 0.0000 0.0000 0.0000
# 3 11.2388 -0.6248 100.7459 0.0000 0.0000 0.0000
# 4 0.0000 0.0000 0.0000 46.5896 0.0000 0.0000
# 5 0.0000 0.0000 0.0000 0.0000 14.7682 0.0000
# 6 0.0000 0.0000 0.0000 0.0000 0.0000 25.7144
#
#
#
# Elastic Compliance Matrix: (Units=1/GPa)
#
#
# Indices 1 2 3 4 5 6 
#
# 1 0.005626 -0.002929 -0.000646 0.000000 0.000000 0.000000
# 2 -0.002929 0.017223 0.000434 0.000000 0.000000 0.000000
# 3 -0.000646 0.000434 0.010001 0.000000 0.000000 0.000000
# 4 0.000000 0.000000 0.000000 0.021464 0.000000 0.000000
# 5 0.000000 0.000000 0.000000 0.000000 0.067713 0.000000
# 6 0.000000 0.000000 0.000000 0.000000 0.000000 0.038889
#
#
# Mechanical properties :
#
#
# Convention : Reuss Voigt Hill
#
# Bulk Modulus (GPa) = 37.64039 49.79159 43.71599
# Shear Modulus (GPa) = 28.40037 38.54770 33.47403
#
# Velocity S-wave (km/s) = 3.61721 4.21416 3.92705
# Velocity P-wave (km/s) = 5.89803 6.82775 6.37985
#
# Compressibility (1/GPa) = 0.02656721
#
# Stress axis : x y z
#
# Youngs Moduli (GPa) = 177.73539 58.06209 99.99305
#
# Poissons Ratio (x) = 0.17007 0.06458
# Poissons Ratio (y) = 0.52061 -0.04336
# Poissons Ratio (z) = 0.11478 -0.02517
#
# Static dielectric constant tensor:
#      x y z
#    x 1.911000 0.000000 0.000000 
#    y 0.000000 1.840980 0.000000 
#    z 0.000000 0.000000 1.859610 
# 
# From -- ./inp_files/55959.got.cif
#   From: 2010.05.17/outbox.cif.g08.bks.cpg/sg63_28_cif.got.tgz:55959.got - 2010.06.03 15:47:04.
