data_PCOD9472181
_publ_section_title
;
Structure prediction by ZEFSAII (Michael W. Deem and Ramdas Pophale) SiO2 
 PCOD9472181
Probable space group: C M C M
;
_chemical_formula_sum "Si O2"
_cell_formula_units_Z 116
_cell_length_a 7.424772
_cell_length_b 26.448413
_cell_length_c 28.227996
_cell_angle_alpha 90.000000
_cell_angle_beta 90.000000
_cell_angle_gamma 90.000000
_cell_volume 5543.228574
_symmetry_space_group_name_H-M "C M C M"
_symmetry_group_IT_number 63
_symmetry_cell_setting 'orthorhombic'
loop_
_space_group_symop_operation_xyz
x,y,z
-x,-y,1/2+z
x,-y,-z
-x,y,1/2-z
-x,-y,-z
x,y,1/2-z
-x,y,z
x,-y,1/2+z
1/2+x,1/2+y,z
1/2-x,1/2-y,1/2+z
1/2+x,1/2-y,-z
1/2-x,1/2+y,1/2-z
1/2-x,1/2-y,-z
1/2+x,1/2+y,1/2-z
1/2-x,1/2+y,z
1/2+x,1/2-y,1/2+z
loop_
_atom_site_type_symbol
_atom_site_label
_atom_site_fract_x
_atom_site_fract_y
_atom_site_fract_z
Si Si1 0.788386 0.445980 0.802195
Si Si2 0.000000 0.306275 0.250000
Si Si3 0.285932 0.309526 0.961139
Si Si4 0.204125 0.803638 0.064150
Si Si5 0.704571 0.508602 0.948784
Si Si6 0.715380 0.094077 0.398168
Si Si7 0.783632 0.948857 0.352815
Si Si8 0.219883 0.165056 0.668711
O O1 0.708441 0.441067 0.750000
O O2 0.718332 0.410209 0.844089
O O3 0.772888 0.503358 0.821379
O O4 0.000000 0.434941 0.798417
O O5 0.159481 0.309009 0.208457
O O6 0.500000 0.300866 0.965693
O O7 0.205537 0.256929 0.942931
O O8 0.254560 0.354362 0.924767
O O9 0.216001 0.322591 0.014109
O O10 0.275514 0.817080 0.115787
O O11 0.000000 0.823728 0.065553
O O12 0.500000 0.527421 0.957608
O O13 0.700974 0.453226 0.925498
O O14 0.784140 0.543410 0.906937
O O15 0.791433 0.500000 0.000000
O O16 0.500000 0.086097 0.398360
O O17 0.739008 0.895142 0.330422
O O18 0.000000 0.951389 0.356069
O O19 0.000000 0.171886 0.674383
#
# Coordination Sequence:
#
# PCOD9472181 Si02
#       8
#    16   4  16  16  16  16  16  16
#     4   9  19  34  54  74 103 144 194 241 284 339
#     4  12  26  40  64  90 114 168 202 252 300 354
#     4  10  20  35  62  89 116 149 190 234 294 359
#     4   9  20  39  61  88 117 150 186 240 297 355
#     4   9  18  32  51  74 108 151 191 228 285 352
#     4  10  20  34  51  79 112 145 185 239 292 344
#     4   9  19  33  50  78 110 147 188 241 293 342
#     4  10  23  41  61  88 124 157 203 250 299 357
#
# _framework density 20.926434
#
# number of rings (size 3 to 8) (size 9 to 14) (size 15 to 20)
#    0.000    2.483    0.000    1.034    4.828    1.655 
#    0.000    0.000    1.517    0.000    0.000    0.000 
#    0.000    0.000    0.000    0.000    0.000    0.000 
#
# Total GULP energy -322913.518451 kJ/mol
# GULP energy per Si atom -5567.474456 kJ/mol
# Density = 2.087880 g / cm^3
# Si number density = 20.926434 Si / 1000 Ang^3
#
#
#
# Elastic Constant Matrix: (Units=GPa)
#
#
# Indices 1 2 3 4 5 6 
#
# 1 92.3662 -2.0110 18.4142 0.0000 0.0000 0.0000
# 2 -2.0110 26.9109 34.2757 0.0000 0.0000 0.0000
# 3 18.4142 34.2757 192.7894 0.0000 0.0000 0.0000
# 4 0.0000 0.0000 0.0000 8.5948 0.0000 0.0000
# 5 0.0000 0.0000 0.0000 0.0000 -15.8843 0.0000
# 6 0.0000 0.0000 0.0000 0.0000 0.0000 -70.7436
#
#
#
# Elastic Compliance Matrix: (Units=1/GPa)
#
#
# Indices 1 2 3 4 5 6 
#
# 1 0.011203 0.002844 -0.001576 0.000000 0.000000 0.000000
# 2 0.002844 0.048760 -0.008941 0.000000 0.000000 0.000000
# 3 -0.001576 -0.008941 0.006927 0.000000 0.000000 0.000000
# 4 0.000000 0.000000 0.000000 0.116350 0.000000 0.000000
# 5 0.000000 0.000000 0.000000 0.000000 -0.062955 0.000000
# 6 0.000000 0.000000 0.000000 0.000000 0.000000 -0.014136
#
#
# Mechanical properties :
#
#
# Convention : Reuss Voigt Hill
#
# Bulk Modulus (GPa) = 19.40059 45.93603 32.66831
# Shear Modulus (GPa) = 36.05571 1.81919 18.93745
#
# Velocity S-wave (km/s) = 4.15538 0.93339 3.01151
# Velocity P-wave (km/s) = 5.68453 4.81253 5.26661
#
# Compressibility (1/GPa) = 0.05154481
#
# Stress axis : x y z
#
# Youngs Moduli (GPa) = 89.26573 20.50878 144.36202
#
# Poissons Ratio (x) = -0.05833 0.22746
# Poissons Ratio (y) = -0.25387 1.29067
# Poissons Ratio (z) = 0.14065 0.18336
#
# Static dielectric constant tensor:
#      x y z
#    x 1.862390 0.000000 0.000000 
#    y 0.000000 1.703970 0.000000 
#    z 0.000000 0.000000 1.793140 
# 
# From -- ./inp_files/67591.got.cif
#   From: 2010.05.17/outbox.cif.g08.bks.cpg/sg63_34_cif.got.tgz:67591.got - 2010.06.03 15:47:04.
