data_PCOD9472166
_publ_section_title
;
Structure prediction by ZEFSAII (Michael W. Deem and Ramdas Pophale) SiO2 
 PCOD9472166
Probable space group: C M C M
;
_chemical_formula_sum "Si O2"
_cell_formula_units_Z 96
_cell_length_a 24.508751
_cell_length_b 13.862632
_cell_length_c 17.902874
_cell_angle_alpha 90.000000
_cell_angle_beta 90.000000
_cell_angle_gamma 90.000000
_cell_volume 6082.605205
_symmetry_space_group_name_H-M "C M C M"
_symmetry_group_IT_number 63
_symmetry_cell_setting 'orthorhombic'
loop_
_space_group_symop_operation_xyz
x,y,z
-x,-y,1/2+z
x,-y,-z
-x,y,1/2-z
-x,-y,-z
x,y,1/2-z
-x,y,z
x,-y,1/2+z
1/2+x,1/2+y,z
1/2-x,1/2-y,1/2+z
1/2+x,1/2-y,-z
1/2-x,1/2+y,1/2-z
1/2-x,1/2-y,-z
1/2+x,1/2+y,1/2-z
1/2-x,1/2+y,z
1/2+x,1/2-y,1/2+z
loop_
_atom_site_type_symbol
_atom_site_label
_atom_site_fract_x
_atom_site_fract_y
_atom_site_fract_z
Si Si1 0.228632 0.066817 0.160503
Si Si2 0.267591 0.767876 0.415038
Si Si3 0.939018 0.232117 0.840735
Si Si4 0.832390 0.875191 0.160121
Si Si5 0.331499 0.964074 0.414769
Si Si6 0.936929 0.543016 0.339805
O O1 0.230888 0.076716 0.250000
O O2 0.215045 0.167778 0.122182
O O3 0.184889 0.983845 0.140245
O O4 0.286849 0.027257 0.130801
O O5 0.250000 0.750000 0.500000
O O6 0.214420 0.806216 0.371482
O O7 0.311701 0.853479 0.410917
O O8 0.939737 0.228817 0.750000
O O9 0.890957 0.162342 0.866683
O O10 0.927990 0.343996 0.859859
O O11 0.000000 0.206655 0.866530
O O12 0.831395 0.869061 0.250000
O O13 0.330169 0.000000 0.500000
O O14 0.391000 0.981151 0.380330
O O15 0.931164 0.534780 0.250000
O O16 0.000000 0.519243 0.358335
#
# Coordination Sequence:
#
# PCOD9472166 Si02
#       6
#    16  16  16  16  16  16
#     4  10  20  34  51  74 102 133 171 212 253 309
#     4  11  21  33  49  71 103 136 169 208 258 308
#     4   8  14  27  49  76 101 126 164 213 255 289
#     4   9  18  30  49  74  99 129 166 207 252 303
#     4  11  21  33  51  75 105 137 172 209 262 312
#     4   9  18  32  51  75 102 133 172 216 256 301
#
# _framework density 15.78271
#
# number of rings (size 3 to 8) (size 9 to 14) (size 15 to 20)
#    0.000    2.333    1.667    3.000    0.000    3.667 
#    0.000    0.000    0.000    1.000    0.000    3.500 
#    0.000    0.000    0.000    0.000    0.000    0.000 
#
# Total GULP energy -267622.340172 kJ/mol
# GULP energy per Si atom -5575.465420 kJ/mol
# Density = 1.574679 g / cm^3
# Si number density = 15.782710 Si / 1000 Ang^3
#
#
#
# Elastic Constant Matrix: (Units=GPa)
#
#
# Indices 1 2 3 4 5 6 
#
# 1 137.9781 81.9466 35.1876 0.0000 0.0000 0.0000
# 2 81.9466 119.5867 33.4947 0.0000 0.0000 0.0000
# 3 35.1876 33.4947 33.2653 0.0000 0.0000 0.0000
# 4 0.0000 0.0000 0.0000 24.3844 0.0000 0.0000
# 5 0.0000 0.0000 0.0000 0.0000 6.0167 0.0000
# 6 0.0000 0.0000 0.0000 0.0000 0.0000 23.3623
#
#
#
# Elastic Compliance Matrix: (Units=1/GPa)
#
#
# Indices 1 2 3 4 5 6 
#
# 1 0.013235 -0.007170 -0.006780 0.000000 0.000000 0.000000
# 2 -0.007170 0.015531 -0.008054 0.000000 0.000000 0.000000
# 3 -0.006780 -0.008054 0.045343 0.000000 0.000000 0.000000
# 4 0.000000 0.000000 0.000000 0.041010 0.000000 0.000000
# 5 0.000000 0.000000 0.000000 0.000000 0.166203 0.000000
# 6 0.000000 0.000000 0.000000 0.000000 0.000000 0.042804
#
#
# Mechanical properties :
#
#
# Convention : Reuss Voigt Hill
#
# Bulk Modulus (GPa) = 33.22193 65.78753 49.50473
# Shear Modulus (GPa) = 13.22163 20.09943 16.66053
#
# Velocity S-wave (km/s) = 2.89749 3.57250 3.25255
# Velocity P-wave (km/s) = 5.68236 7.66751 6.74833
#
# Compressibility (1/GPa) = 0.03010060
#
# Stress axis : x y z
#
# Youngs Moduli (GPa) = 75.55622 64.38595 22.05424
#
# Poissons Ratio (x) = 0.46167 0.14953
# Poissons Ratio (y) = 0.54176 0.17762
# Poissons Ratio (z) = 0.51229 0.51855
#
# Static dielectric constant tensor:
#      x y z
#    x 1.524330 0.000000 0.000000 
#    y 0.000000 1.524820 0.000000 
#    z 0.000000 0.000000 1.517280 
# 
# From -- ./inp_files/48001.got.cif
#   From: 2010.05.17/outbox.cif.g08.bks.cpg/sg63_25_cif.got.tgz:48001.got - 2010.06.03 15:47:04.
