data_PCOD9472229
_publ_section_title
;
Structure prediction by ZEFSAII (Michael W. Deem and Ramdas Pophale) SiO2 
 PCOD9472229
Probable space group: C M C M
;
_chemical_formula_sum "Si O2"
_cell_formula_units_Z 48
_cell_length_a 11.223517
_cell_length_b 14.456132
_cell_length_c 13.880052
_cell_angle_alpha 90.000000
_cell_angle_beta 90.000000
_cell_angle_gamma 90.000000
_cell_volume 2252.019605
_symmetry_space_group_name_H-M "C M C M"
_symmetry_group_IT_number 63
_symmetry_cell_setting 'orthorhombic'
loop_
_space_group_symop_operation_xyz
x,y,z
-x,-y,1/2+z
x,-y,-z
-x,y,1/2-z
-x,-y,-z
x,y,1/2-z
-x,y,z
x,-y,1/2+z
1/2+x,1/2+y,z
1/2-x,1/2-y,1/2+z
1/2+x,1/2-y,-z
1/2-x,1/2+y,1/2-z
1/2-x,1/2-y,-z
1/2+x,1/2+y,1/2-z
1/2-x,1/2+y,z
1/2+x,1/2-y,1/2+z
loop_
_atom_site_type_symbol
_atom_site_label
_atom_site_fract_x
_atom_site_fract_y
_atom_site_fract_z
Si Si1 0.758092 0.429318 0.250000
Si Si2 0.500000 0.551522 0.750000
Si Si3 0.000000 0.451475 0.750000
Si Si4 0.000000 0.862136 0.040295
Si Si5 0.500000 0.139999 0.453218
Si Si6 0.253502 0.855573 0.462973
O O1 0.634681 0.490214 0.250000
O O2 0.879640 0.487479 0.250000
O O3 0.755872 0.368035 0.347434
O O4 0.500000 0.610890 0.652437
O O5 0.000000 0.387573 0.843103
O O6 0.873133 0.895576 0.999619
O O7 0.000000 0.750970 0.033617
O O8 0.377373 0.104399 0.499189
O O9 0.250000 0.750000 0.500000
#
# Coordination Sequence:
#
# PCOD9472229 Si02
#       6
#     8   4   4   8   8  16
#     4  10  20  34  52  78 108 146 184 224 274 334
#     4   8  15  32  54  70  95 130 180 228 266 302
#     4  12  25  36  52  78 121 162 186 216 272 362
#     4   8  15  31  55  79  98 129 178 234 275 311
#     4  10  20  34  52  79 111 148 181 219 278 338
#     4   9  18  33  56  80 106 137 184 240 283 321
#
# _framework density 21.314201000000001
#
# number of rings (size 3 to 8) (size 9 to 14) (size 15 to 20)
#    0.000    2.667    0.000    1.500    0.000    6.667 
#    0.000    1.667    0.000    8.000    0.000    2.333 
#    0.000    0.000    0.000    0.000    0.000    0.000 
#
# Total GULP energy -133621.523166 kJ/mol
# GULP energy per Si atom -5567.563465 kJ/mol
# Density = 2.126569 g / cm^3
# Si number density = 21.314201 Si / 1000 Ang^3
#
#
#
# Elastic Constant Matrix: (Units=GPa)
#
#
# Indices 1 2 3 4 5 6 
#
# 1 290.0606 27.6229 52.0600 0.0000 0.0000 0.0000
# 2 27.6229 83.0907 3.3652 0.0000 0.0000 0.0000
# 3 52.0600 3.3652 98.2966 0.0000 0.0000 0.0000
# 4 0.0000 0.0000 0.0000 88.9978 0.0000 0.0000
# 5 0.0000 0.0000 0.0000 0.0000 29.0451 0.0000
# 6 0.0000 0.0000 0.0000 0.0000 0.0000 -15.9537
#
#
#
# Elastic Compliance Matrix: (Units=1/GPa)
#
#
# Indices 1 2 3 4 5 6 
#
# 1 0.003930 -0.001224 -0.002040 0.000000 0.000000 0.000000
# 2 -0.001224 0.012433 0.000223 0.000000 0.000000 0.000000
# 3 -0.002040 0.000223 0.011246 0.000000 0.000000 0.000000
# 4 0.000000 0.000000 0.000000 0.011236 0.000000 0.000000
# 5 0.000000 0.000000 0.000000 0.000000 0.034429 0.000000
# 6 0.000000 0.000000 0.000000 0.000000 0.000000 -0.062681
#
#
# Mechanical properties :
#
#
# Convention : Reuss Voigt Hill
#
# Bulk Modulus (GPa) = 46.45315 70.83822 58.64568
# Shear Modulus (GPa) = 209.63746 46.31116 127.97431
#
# Velocity S-wave (km/s) = 9.92821 4.66637 7.75707
# Velocity P-wave (km/s) = 12.38013 7.89561 10.38288
#
# Compressibility (1/GPa) = 0.02152706
#
# Stress axis : x y z
#
# Youngs Moduli (GPa) = 254.44106 80.43161 88.92132
#
# Poissons Ratio (x) = 0.09844 0.18136
# Poissons Ratio (y) = 0.31142 -0.01979
# Poissons Ratio (z) = 0.51896 -0.01790
#
# Static dielectric constant tensor:
#      x y z
#    x 1.900460 0.000000 0.000000 
#    y 0.000000 1.727520 0.000000 
#    z 0.000000 0.000000 1.714900 
# 
# From -- ./inp_files/16907.got.cif
#   From: 2010.05.17/outbox.cif.g08.bks.cpg/sg63_9_cif.got.tgz:16907.got - 2010.06.03 15:47:04.
