data_PCOD9472959
_publ_section_title
;
Structure prediction by ZEFSAII (Michael W. Deem and Ramdas Pophale) SiO2 
 PCOD9472959
Probable space group: C M C M
;
_chemical_formula_sum "Si O2"
_cell_formula_units_Z 80
_cell_length_a 19.101852
_cell_length_b 13.679721
_cell_length_c 16.969601
_cell_angle_alpha 90.000000
_cell_angle_beta 90.000000
_cell_angle_gamma 90.000000
_cell_volume 4434.292599
_symmetry_space_group_name_H-M "C M C M"
_symmetry_group_IT_number 63
_symmetry_cell_setting 'orthorhombic'
loop_
_space_group_symop_operation_xyz
x,y,z
-x,-y,1/2+z
x,-y,-z
-x,y,1/2-z
-x,-y,-z
x,y,1/2-z
-x,y,z
x,-y,1/2+z
1/2+x,1/2+y,z
1/2-x,1/2-y,1/2+z
1/2+x,1/2-y,-z
1/2-x,1/2+y,1/2-z
1/2-x,1/2-y,-z
1/2+x,1/2+y,1/2-z
1/2-x,1/2+y,z
1/2+x,1/2-y,1/2+z
loop_
_atom_site_type_symbol
_atom_site_label
_atom_site_fract_x
_atom_site_fract_y
_atom_site_fract_z
Si Si1 0.500000 0.245645 0.846525
Si Si2 0.208136 0.947897 0.156155
Si Si3 0.500000 0.025570 0.593294
Si Si4 0.849005 0.536640 0.409017
Si Si5 0.641320 0.353246 0.843623
Si Si6 0.722943 0.241779 0.088730
O O1 0.500000 0.234534 0.750000
O O2 0.500000 0.140242 0.887302
O O3 0.569568 0.304517 0.871238
O O4 0.200443 0.939319 0.250000
O O5 0.192494 0.844697 0.116342
O O6 0.288020 0.978243 0.136096
O O7 0.161079 0.038623 0.125763
O O8 0.500000 0.000000 0.500000
O O9 0.426381 0.983426 0.623634
O O10 0.846160 0.500000 0.500000
O O11 0.829354 0.650602 0.405151
O O12 0.634668 0.363038 0.750000
O O13 0.707929 0.285213 0.861279
O O14 0.750000 0.250000 0.000000
#
# Coordination Sequence:
#
# PCOD9472959 Si02
#       6
#     8  16   8  16  16  16
#     4  10  20  38  61  83 110 150 192 234 280 337
#     4  10  20  36  57  83 112 143 188 237 277 326
#     4  10  22  34  53  80 114 141 180 227 282 326
#     4  10  20  36  53  81 110 149 183 228 279 335
#     4   9  20  35  56  84 111 142 188 234 278 330
#     4  11  20  32  56  80 111 148 187 224 282 337
#
# _framework density 18.041208999999998
#
# number of rings (size 3 to 8) (size 9 to 14) (size 15 to 20)
#    0.000    2.000    2.000    1.800    2.800    3.200 
#    0.000    1.000    0.000    1.200    0.000    0.000 
#    0.000    0.000    0.000    0.000    0.000    0.000 
#
# Total GULP energy -223152.507287 kJ/mol
# GULP energy per Si atom -5578.812682 kJ/mol
# Density = 1.800015 g / cm^3
# Si number density = 18.041209 Si / 1000 Ang^3
#
#
#
# Elastic Constant Matrix: (Units=GPa)
#
#
# Indices 1 2 3 4 5 6 
#
# 1 136.6368 78.9910 6.1726 0.0000 0.0000 0.0000
# 2 78.9910 166.4212 23.2267 0.0000 0.0000 0.0000
# 3 6.1726 23.2267 28.2863 0.0000 0.0000 0.0000
# 4 0.0000 0.0000 0.0000 33.3174 0.0000 0.0000
# 5 0.0000 0.0000 0.0000 0.0000 14.4526 0.0000
# 6 0.0000 0.0000 0.0000 0.0000 0.0000 16.2803
#
#
#
# Elastic Compliance Matrix: (Units=1/GPa)
#
#
# Indices 1 2 3 4 5 6 
#
# 1 0.010183 -0.005109 0.001973 0.000000 0.000000 0.000000
# 2 -0.005109 0.009349 -0.006562 0.000000 0.000000 0.000000
# 3 0.001973 -0.006562 0.040311 0.000000 0.000000 0.000000
# 4 0.000000 0.000000 0.000000 0.030014 0.000000 0.000000
# 5 0.000000 0.000000 0.000000 0.000000 0.069192 0.000000
# 6 0.000000 0.000000 0.000000 0.000000 0.000000 0.061424
#
#
# Mechanical properties :
#
#
# Convention : Reuss Voigt Hill
#
# Bulk Modulus (GPa) = 24.72382 60.90275 42.81328
# Shear Modulus (GPa) = 19.73541 27.67367 23.70454
#
# Velocity S-wave (km/s) = 3.31101 3.92077 3.62872
# Velocity P-wave (km/s) = 5.32456 7.37072 6.42956
#
# Compressibility (1/GPa) = 0.04044683
#
# Stress axis : x y z
#
# Youngs Moduli (GPa) = 98.20424 106.95773 24.80718
#
# Poissons Ratio (x) = 0.54640 -0.04894
# Poissons Ratio (y) = 0.50168 0.16279
# Poissons Ratio (z) = -0.19373 0.70190
#
# Static dielectric constant tensor:
#      x y z
#    x 1.600010 0.000000 0.000000 
#    y 0.000000 1.584820 0.000000 
#    z 0.000000 0.000000 1.629150 
# 
# From -- ./inp_files/46861.got.cif
#   From: 2010.05.17/outbox.cif.g08.bks.cpg/sg63_24_cif.got.tgz:46861.got - 2010.06.03 15:47:04.
