data_PCOD9472578
_publ_section_title
;
Structure prediction by ZEFSAII (Michael W. Deem and Ramdas Pophale) SiO2 
 PCOD9472578
Probable space group: C M C M
;
_chemical_formula_sum "Si O2"
_cell_formula_units_Z 96
_cell_length_a 7.340158
_cell_length_b 26.037268
_cell_length_c 22.174268
_cell_angle_alpha 90.000000
_cell_angle_beta 90.000000
_cell_angle_gamma 90.000000
_cell_volume 4237.894235
_symmetry_space_group_name_H-M "C M C M"
_symmetry_group_IT_number 63
_symmetry_cell_setting 'orthorhombic'
loop_
_space_group_symop_operation_xyz
x,y,z
-x,-y,1/2+z
x,-y,-z
-x,y,1/2-z
-x,-y,-z
x,y,1/2-z
-x,y,z
x,-y,1/2+z
1/2+x,1/2+y,z
1/2-x,1/2-y,1/2+z
1/2+x,1/2-y,-z
1/2-x,1/2+y,1/2-z
1/2-x,1/2-y,-z
1/2+x,1/2+y,1/2-z
1/2-x,1/2+y,z
1/2+x,1/2-y,1/2+z
loop_
_atom_site_type_symbol
_atom_site_label
_atom_site_fract_x
_atom_site_fract_y
_atom_site_fract_z
Si Si1 0.715962 0.693077 0.020448
Si Si2 0.778650 0.914946 0.489179
Si Si3 0.277442 0.453593 0.140253
Si Si4 0.715518 0.617032 0.750000
Si Si5 0.778390 0.066508 0.371173
Si Si6 0.777750 0.822886 0.844693
Si Si7 0.718921 0.761037 0.250000
O O1 0.500000 0.686337 0.024014
O O2 0.784871 0.686952 0.087700
O O3 0.750000 0.750000 0.000000
O O4 0.778168 0.644713 0.981627
O O5 0.717824 0.943558 0.428883
O O6 0.723017 0.930377 0.557475
O O7 0.000000 0.919740 0.489634
O O8 0.500000 0.451702 0.139340
O O9 0.215666 0.411651 0.189422
O O10 0.223725 0.511886 0.155713
O O11 0.500000 0.607713 0.750000
O O12 0.735531 0.678782 0.750000
O O13 0.722613 0.117739 0.334720
O O14 0.000000 0.067601 0.372317
O O15 0.717411 0.774662 0.805329
O O16 0.000000 0.822538 0.841190
O O17 0.500000 0.760447 0.250000
#
# Coordination Sequence:
#
# PCOD9472578 Si02
#       7
#    16  16  16   8  16  16   8
#     4   9  17  28  43  65  92 119 152 190 227 268
#     4   8  14  24  40  63  90 120 148 179 227 281
#     4   9  16  26  41  64  96 125 146 180 233 283
#     4  10  22  33  43  69 101 122 151 192 230 276
#     4   8  13  24  43  67  92 115 147 190 236 276
#     4   8  16  29  45  67  89 115 156 200 228 262
#     4  10  20  35  51  63  89 130 165 192 226 274
#
# _framework density 22.652759
#
# number of rings (size 3 to 8) (size 9 to 14) (size 15 to 20)
#    0.000    3.333    0.000    2.500    2.333    2.667 
#    0.000    3.333    0.000    0.000    0.000    7.000 
#    0.000    6.667    0.000    0.000    0.000    0.000 
#
# Total GULP energy -267466.098051 kJ/mol
# GULP energy per Si atom -5572.210376 kJ/mol
# Density = 2.260120 g / cm^3
# Si number density = 22.652759 Si / 1000 Ang^3
#
#
#
# Elastic Constant Matrix: (Units=GPa)
#
#
# Indices 1 2 3 4 5 6 
#
# 1 80.7501 -6.2022 0.0436 0.0000 0.0000 0.0000
# 2 -6.2022 222.6144 66.5236 0.0000 0.0000 0.0000
# 3 0.0436 66.5236 56.4307 0.0000 0.0000 0.0000
# 4 0.0000 0.0000 0.0000 32.9362 0.0000 0.0000
# 5 0.0000 0.0000 0.0000 0.0000 -14.1862 0.0000
# 6 0.0000 0.0000 0.0000 0.0000 0.0000 51.4934
#
#
#
# Elastic Compliance Matrix: (Units=1/GPa)
#
#
# Indices 1 2 3 4 5 6 
#
# 1 0.012426 0.000539 -0.000645 0.000000 0.000000 0.000000
# 2 0.000539 0.006959 -0.008204 0.000000 0.000000 0.000000
# 3 -0.000645 -0.008204 0.027392 0.000000 0.000000 0.000000
# 4 0.000000 0.000000 0.000000 0.030362 0.000000 0.000000
# 5 0.000000 0.000000 0.000000 0.000000 -0.070491 0.000000
# 6 0.000000 0.000000 0.000000 0.000000 0.000000 0.019420
#
#
# Mechanical properties :
#
#
# Convention : Reuss Voigt Hill
#
# Bulk Modulus (GPa) = 33.15948 53.39168 43.27558
# Shear Modulus (GPa) = 94.80791 34.01070 64.40930
#
# Velocity S-wave (km/s) = 6.47638 3.87899 5.33807
# Velocity P-wave (km/s) = 8.40206 6.60930 7.55902
#
# Compressibility (1/GPa) = 0.03015729
#
# Stress axis : x y z
#
# Youngs Moduli (GPa) = 80.47887 143.70851 36.50686
#
# Poissons Ratio (x) = -0.07744 0.02354
# Poissons Ratio (y) = -0.04337 0.29948
# Poissons Ratio (z) = 0.05190 1.17891
#
# Static dielectric constant tensor:
#      x y z
#    x 1.919120 0.000000 0.000000 
#    y 0.000000 1.790550 0.000000 
#    z 0.000000 0.000000 1.831000 
# 
# From -- ./inp_files/53092.got.cif
#   From: 2010.05.17/outbox.cif.g08.bks.cpg/sg63_27_cif.got.tgz:53092.got - 2010.06.03 15:47:04.
