data_PCOD9472407
_publ_section_title
;
Structure prediction by ZEFSAII (Michael W. Deem and Ramdas Pophale) SiO2 
 PCOD9472407
Probable space group: C M C M
;
_chemical_formula_sum "Si O2"
_cell_formula_units_Z 96
_cell_length_a 8.061306
_cell_length_b 27.084048
_cell_length_c 19.457201
_cell_angle_alpha 90.000000
_cell_angle_beta 90.000000
_cell_angle_gamma 90.000000
_cell_volume 4248.145148
_symmetry_space_group_name_H-M "C M C M"
_symmetry_group_IT_number 63
_symmetry_cell_setting 'orthorhombic'
loop_
_space_group_symop_operation_xyz
x,y,z
-x,-y,1/2+z
x,-y,-z
-x,y,1/2-z
-x,-y,-z
x,y,1/2-z
-x,y,z
x,-y,1/2+z
1/2+x,1/2+y,z
1/2-x,1/2-y,1/2+z
1/2+x,1/2-y,-z
1/2-x,1/2+y,1/2-z
1/2-x,1/2-y,-z
1/2+x,1/2+y,1/2-z
1/2-x,1/2+y,z
1/2+x,1/2-y,1/2+z
loop_
_atom_site_type_symbol
_atom_site_label
_atom_site_fract_x
_atom_site_fract_y
_atom_site_fract_z
Si Si1 0.191600 0.897088 0.832433
Si Si2 0.802728 0.492235 0.328973
Si Si3 0.697938 0.158267 0.967364
Si Si4 0.193410 0.950147 0.465816
Si Si5 0.695782 0.799882 0.326599
Si Si6 0.306714 0.797396 0.603763
O O1 0.195157 0.892908 0.750000
O O2 0.262375 0.951114 0.848489
O O3 0.290098 0.851318 0.862759
O O4 0.000000 0.894468 0.855316
O O5 0.748142 0.484729 0.250000
O O6 0.717066 0.457600 0.384404
O O7 0.000000 0.484437 0.332029
O O8 0.500000 0.166138 0.965636
O O9 0.728179 0.101552 0.986718
O O10 0.766045 0.169698 0.891415
O O11 0.763369 0.194414 0.026862
O O12 0.000000 0.947822 0.483560
O O13 0.265078 0.000000 0.500000
O O14 0.766392 0.807368 0.250000
O O15 0.500000 0.811566 0.322405
O O16 0.715145 0.743177 0.350641
O O17 0.500000 0.783213 0.600960
#
# Coordination Sequence:
#
# PCOD9472407 Si02
#       6
#    16  16  16  16  16  16
#     4  10  20  34  54  82 117 155 195 242 294 347
#     4  10  21  37  58  84 115 153 197 245 297 353
#     4  10  23  41  60  85 117 153 194 241 292 346
#     4  11  24  40  60  88 120 156 198 244 295 351
#     4  10  22  41  63  86 115 152 193 237 287 345
#     4  11  22  36  58  87 118 152 191 239 292 347
#
# _framework density 22.598096999999999
#
# number of rings (size 3 to 8) (size 9 to 14) (size 15 to 20)
#    0.000    1.667    0.000    4.000    0.000   11.000 
#    0.000    1.667    0.000    0.000    0.000    0.000 
#    0.000    0.000    0.000    0.000    0.000    0.000 
#
# Total GULP energy -268374.870344 kJ/mol
# GULP energy per Si atom -5591.143132 kJ/mol
# Density = 2.254666 g / cm^3
# Si number density = 22.598097 Si / 1000 Ang^3
#
#
#
# Elastic Constant Matrix: (Units=GPa)
#
#
# Indices 1 2 3 4 5 6 
#
# 1 21.4712 -13.0525 8.2750 0.0000 0.0000 0.0000
# 2 -13.0525 30.1746 1.9872 0.0000 0.0000 0.0000
# 3 8.2750 1.9872 89.6063 0.0000 0.0000 0.0000
# 4 0.0000 0.0000 0.0000 29.9510 0.0000 0.0000
# 5 0.0000 0.0000 0.0000 0.0000 12.2567 0.0000
# 6 0.0000 0.0000 0.0000 0.0000 0.0000 16.0579
#
#
#
# Elastic Compliance Matrix: (Units=1/GPa)
#
#
# Indices 1 2 3 4 5 6 
#
# 1 0.067148 0.029497 -0.006855 0.000000 0.000000 0.000000
# 2 0.029497 0.046147 -0.003747 0.000000 0.000000 0.000000
# 3 -0.006855 -0.003747 0.011876 0.000000 0.000000 0.000000
# 4 0.000000 0.000000 0.000000 0.033388 0.000000 0.000000
# 5 0.000000 0.000000 0.000000 0.000000 0.081588 0.000000
# 6 0.000000 0.000000 0.000000 0.000000 0.000000 0.062275
#
#
# Mechanical properties :
#
#
# Convention : Reuss Voigt Hill
#
# Bulk Modulus (GPa) = 6.13648 15.07459 10.60554
# Shear Modulus (GPa) = 15.67635 21.25595 18.46615
#
# Velocity S-wave (km/s) = 2.63668 3.07026 2.86169
# Velocity P-wave (km/s) = 3.46278 4.38792 3.95251
#
# Compressibility (1/GPa) = 0.16295981
#
# Stress axis : x y z
#
# Youngs Moduli (GPa) = 14.89257 21.67001 84.20275
#
# Poissons Ratio (x) = -0.63921 0.57722
# Poissons Ratio (y) = -0.43929 0.31554
# Poissons Ratio (z) = 0.10209 0.08121
#
# Static dielectric constant tensor:
#      x y z
#    x 1.814930 0.000000 0.000000 
#    y 0.000000 1.793870 0.000000 
#    z 0.000000 0.000000 1.896430 
# 
# From -- ./inp_files/51417.got.cif
#   From: 2010.05.17/outbox.cif.g08.bks.cpg/sg63_26_cif.got.tgz:51417.got - 2010.06.03 15:47:04.
