data_PCOD9472588
_publ_section_title
;
Structure prediction by ZEFSAII (Michael W. Deem and Ramdas Pophale) SiO2 
 PCOD9472588
Probable space group: C M C M
;
_chemical_formula_sum "Si O2"
_cell_formula_units_Z 72
_cell_length_a 31.920142
_cell_length_b 9.684045
_cell_length_c 14.241971
_cell_angle_alpha 90.000000
_cell_angle_beta 90.000000
_cell_angle_gamma 90.000000
_cell_volume 4402.422411
_symmetry_space_group_name_H-M "C M C M"
_symmetry_group_IT_number 63
_symmetry_cell_setting 'orthorhombic'
loop_
_space_group_symop_operation_xyz
x,y,z
-x,-y,1/2+z
x,-y,-z
-x,y,1/2-z
-x,-y,-z
x,y,1/2-z
-x,y,z
x,-y,1/2+z
1/2+x,1/2+y,z
1/2-x,1/2-y,1/2+z
1/2+x,1/2-y,-z
1/2-x,1/2+y,1/2-z
1/2-x,1/2-y,-z
1/2+x,1/2+y,1/2-z
1/2-x,1/2+y,z
1/2+x,1/2-y,1/2+z
loop_
_atom_site_type_symbol
_atom_site_label
_atom_site_fract_x
_atom_site_fract_y
_atom_site_fract_z
Si Si1 0.280938 0.500000 0.750000
Si Si2 0.929037 0.667672 0.250000
Si Si3 0.166425 0.721283 0.750000
Si Si4 0.929037 0.332328 0.250000
Si Si5 0.666425 0.778717 0.750000
Si Si6 0.500000 0.167719 0.894772
Si Si7 0.500000 0.832282 0.605228
Si Si8 0.296079 1.000000 0.887466
O O1 0.309076 0.364142 0.750000
O O2 0.309076 0.635858 0.750000
O O3 0.250028 0.500000 0.659673
O O4 0.923368 0.500000 0.250000
O O5 0.883515 0.733460 0.250000
O O6 0.958179 0.705907 0.338340
O O7 0.116485 0.733461 0.750000
O O8 0.180699 0.631573 0.659278
O O9 0.958179 0.294093 0.161660
O O10 0.680699 0.868426 0.659278
O O11 0.500000 0.000000 0.895784
O O12 0.500000 0.219872 0.000000
O O13 0.296026 0.000000 0.000000
#
# Coordination Sequence:
#
# PCOD9472588 Si02
#       8
#     8   8   8   8   8   8   8  16
#     4  10  22  36  52  73 106 135 168 208 254 304
#     4   9  15  29  45  69 101 123 161 206 242 293
#     4  10  20  35  52  78 103 132 170 211 248 300
#     4   9  15  29  45  69 101 123 161 206 242 293
#     4  10  20  35  52  78 103 132 170 211 248 300
#     4   8  15  25  44  69  96 127 155 199 253 289
#     4   8  15  25  44  69  96 127 155 199 253 289
#     4  10  20  36  56  74  98 133 172 215 256 294
#
# _framework density 16.354631999999999
#
# number of rings (size 3 to 8) (size 9 to 14) (size 15 to 20)
#    0.000    2.889    2.222    4.000    0.000    5.333 
#    0.000    0.000    0.000    2.667    0.000    1.556 
#    0.000    0.000    0.000    0.000    0.000    0.000 
#
# Total GULP energy -200549.471730 kJ/mol
# GULP energy per Si atom -5570.818659 kJ/mol
# Density = 1.631741 g / cm^3
# Si number density = 16.354632 Si / 1000 Ang^3
#
#
#
# Elastic Constant Matrix: (Units=GPa)
#
#
# Indices 1 2 3 4 5 6 
#
# 1 183.3333 47.5415 79.2635 0.0000 0.0000 0.0000
# 2 47.5415 60.5146 37.2219 0.0000 0.0000 0.0000
# 3 79.2635 37.2219 177.5618 0.0000 0.0000 0.0000
# 4 0.0000 0.0000 0.0000 2.0157 0.0000 0.0000
# 5 0.0000 0.0000 0.0000 0.0000 1.6242 0.0000
# 6 0.0000 0.0000 0.0000 0.0000 0.0000 1.0667
#
#
#
# Elastic Compliance Matrix: (Units=1/GPa)
#
#
# Indices 1 2 3 4 5 6 
#
# 1 0.007704 -0.004520 -0.002491 0.000000 0.000000 0.000000
# 2 -0.004520 0.021623 -0.002515 0.000000 0.000000 0.000000
# 3 -0.002491 -0.002515 0.007271 0.000000 0.000000 0.000000
# 4 0.000000 0.000000 0.000000 0.496107 0.000000 0.000000
# 5 0.000000 0.000000 0.000000 0.000000 0.615690 0.000000
# 6 0.000000 0.000000 0.000000 0.000000 0.000000 0.937505
#
#
# Mechanical properties :
#
#
# Convention : Reuss Voigt Hill
#
# Bulk Modulus (GPa) = 56.99599 83.27373 70.13486
# Shear Modulus (GPa) = 2.36877 18.10017 10.23447
#
# Velocity S-wave (km/s) = 1.20479 3.33036 2.50428
# Velocity P-wave (km/s) = 6.07133 8.11274 7.16511
#
# Compressibility (1/GPa) = 0.01754509
#
# Stress axis : x y z
#
# Youngs Moduli (GPa) = 129.80631 46.24752 137.52730
#
# Poissons Ratio (x) = 0.20903 0.34265
# Poissons Ratio (y) = 0.58669 0.34590
# Poissons Ratio (z) = 0.32341 0.11632
#
# Static dielectric constant tensor:
#      x y z
#    x 1.539400 0.000000 0.000000 
#    y 0.000000 1.527500 0.000000 
#    z 0.000000 0.000000 1.549040 
# 
# From -- ./inp_files/38376.got.cif
#   From: 2010.05.17/outbox.cif.g08.bks.cpg/sg63_20_cif.got.tgz:38376.got - 2010.06.03 15:47:04.
