data_PCOD9472999
_publ_section_title
;
Structure prediction by ZEFSAII (Michael W. Deem and Ramdas Pophale) SiO2 
 PCOD9472999
Probable space group: C M C M
;
_chemical_formula_sum "Si O2"
_cell_formula_units_Z 80
_cell_length_a 26.381375
_cell_length_b 9.680550
_cell_length_c 15.588977
_cell_angle_alpha 90.000000
_cell_angle_beta 90.000000
_cell_angle_gamma 90.000000
_cell_volume 3981.209906
_symmetry_space_group_name_H-M "C M C M"
_symmetry_group_IT_number 63
_symmetry_cell_setting 'orthorhombic'
loop_
_space_group_symop_operation_xyz
x,y,z
-x,-y,1/2+z
x,-y,-z
-x,y,1/2-z
-x,-y,-z
x,y,1/2-z
-x,y,z
x,-y,1/2+z
1/2+x,1/2+y,z
1/2-x,1/2-y,1/2+z
1/2+x,1/2-y,-z
1/2-x,1/2+y,1/2-z
1/2-x,1/2-y,-z
1/2+x,1/2+y,1/2-z
1/2-x,1/2+y,z
1/2+x,1/2-y,1/2+z
loop_
_atom_site_type_symbol
_atom_site_label
_atom_site_fract_x
_atom_site_fract_y
_atom_site_fract_z
Si Si1 0.500000 0.096036 0.855198
Si Si2 0.791759 0.232372 0.151709
Si Si3 0.500000 0.220569 0.355200
Si Si4 0.206244 0.931062 0.092574
Si Si5 0.594164 0.719608 0.354721
Si Si6 0.094732 0.902890 0.146097
O O1 0.500000 0.097034 0.750000
O O2 0.449825 0.177954 0.883003
O O3 0.500000 0.937765 0.883043
O O4 0.789438 0.280333 0.250000
O O5 0.784414 0.066796 0.150859
O O6 0.749237 0.316697 0.101998
O O7 0.848828 0.256696 0.117504
O O8 0.500000 0.222161 0.250000
O O9 0.449569 0.301412 0.383027
O O10 0.151088 0.869971 0.114158
O O11 0.205260 0.000000 0.000000
O O12 0.595004 0.720836 0.250000
O O13 0.583570 0.561273 0.380147
O O14 0.095878 0.899959 0.250000
#
# Coordination Sequence:
#
# PCOD9472999 Si02
#       6
#     8  16   8  16  16  16
#     4   9  15  25  43  75 106 124 154 213 272 309
#     4  10  20  36  56  79 105 141 184 223 266 326
#     4   9  17  27  46  75 103 130 171 223 270 311
#     4  11  22  36  54  80 110 142 179 226 279 329
#     4   8  15  27  46  69  97 130 166 205 253 311
#     4   9  17  32  51  73 101 138 178 216 261 322
#
# _framework density 20.094394000000001
#
# number of rings (size 3 to 8) (size 9 to 14) (size 15 to 20)
#    0.000    2.600    0.000    4.200    0.000    4.000 
#    0.000    4.500    0.000    0.000    0.000    6.300 
#    0.000    0.000    0.000    0.000    0.000    0.000 
#
# Total GULP energy -223295.589670 kJ/mol
# GULP energy per Si atom -5582.389742 kJ/mol
# Density = 2.004866 g / cm^3
# Si number density = 20.094394 Si / 1000 Ang^3
#
#
#
# Elastic Constant Matrix: (Units=GPa)
#
#
# Indices 1 2 3 4 5 6 
#
# 1 188.9894 124.6051 13.0819 0.0000 0.0000 0.0000
# 2 124.6051 115.8664 8.9277 0.0000 0.0000 0.0000
# 3 13.0819 8.9277 31.4362 0.0000 0.0000 0.0000
# 4 0.0000 0.0000 0.0000 -21.0638 0.0000 0.0000
# 5 0.0000 0.0000 0.0000 0.0000 -8.6924 0.0000
# 6 0.0000 0.0000 0.0000 0.0000 0.0000 6.2132
#
#
#
# Elastic Compliance Matrix: (Units=1/GPa)
#
#
# Indices 1 2 3 4 5 6 
#
# 1 0.018318 -0.019539 -0.002074 0.000000 0.000000 0.000000
# 2 -0.019539 0.029666 -0.000294 0.000000 0.000000 0.000000
# 3 -0.002074 -0.000294 0.032757 0.000000 0.000000 0.000000
# 4 0.000000 0.000000 0.000000 -0.047475 0.000000 0.000000
# 5 0.000000 0.000000 0.000000 0.000000 -0.115043 0.000000
# 6 0.000000 0.000000 0.000000 0.000000 0.000000 0.160948
#
#
# Mechanical properties :
#
#
# Convention : Reuss Voigt Hill
#
# Bulk Modulus (GPa) = 27.08050 69.94682 48.51366
# Shear Modulus (GPa) = 36.95663 7.93655 22.44659
#
# Velocity S-wave (km/s) = 4.29318 1.98952 3.34587
# Velocity P-wave (km/s) = 6.17099 6.33737 6.25474
#
# Compressibility (1/GPa) = 0.03692694
#
# Stress axis : x y z
#
# Youngs Moduli (GPa) = 54.59254 33.70839 30.52792
#
# Poissons Ratio (x) = 0.65864 0.06330
# Poissons Ratio (y) = 1.06670 0.00897
# Poissons Ratio (z) = 0.11321 0.00991
#
# Static dielectric constant tensor:
#      x y z
#    x 1.685140 0.000000 0.000000 
#    y 0.000000 1.677070 0.000000 
#    z 0.000000 0.000000 1.760220 
# 
# From -- ./inp_files/48868.got.cif
#   From: 2010.05.17/outbox.cif.g08.bks.cpg/sg63_25_cif.got.tgz:48868.got - 2010.06.03 15:47:04.
