data_PCOD9472570
_publ_section_title
;
Structure prediction by ZEFSAII (Michael W. Deem and Ramdas Pophale) SiO2 
 PCOD9472570
Probable space group: C M C M
;
_chemical_formula_sum "Si O2"
_cell_formula_units_Z 56
_cell_length_a 28.610903
_cell_length_b 5.052770
_cell_length_c 20.265155
_cell_angle_alpha 90.000000
_cell_angle_beta 90.000000
_cell_angle_gamma 90.000000
_cell_volume 2929.618197
_symmetry_space_group_name_H-M "C M C M"
_symmetry_group_IT_number 63
_symmetry_cell_setting 'orthorhombic'
loop_
_space_group_symop_operation_xyz
x,y,z
-x,-y,1/2+z
x,-y,-z
-x,y,1/2-z
-x,-y,-z
x,y,1/2-z
-x,y,z
x,-y,1/2+z
1/2+x,1/2+y,z
1/2-x,1/2-y,1/2+z
1/2+x,1/2-y,-z
1/2-x,1/2+y,1/2-z
1/2-x,1/2-y,-z
1/2+x,1/2+y,1/2-z
1/2-x,1/2+y,z
1/2+x,1/2-y,1/2+z
loop_
_atom_site_type_symbol
_atom_site_label
_atom_site_fract_x
_atom_site_fract_y
_atom_site_fract_z
Si Si1 0.402285 0.466749 0.919875
Si Si2 0.350233 0.033882 0.123723
Si Si3 0.783194 0.500000 0.500000
Si Si4 0.284691 0.882329 0.750000
Si Si5 0.000000 0.243952 0.048844
O O1 0.392237 0.755135 0.888885
O O2 0.452203 0.316620 0.912413
O O3 0.367859 0.266784 0.882480
O O4 0.394399 0.500000 0.000000
O O5 0.319224 0.094976 0.187417
O O6 0.316131 0.051271 0.061718
O O7 0.750000 0.250000 0.500000
O O8 0.253685 0.616975 0.750000
O O9 0.000000 0.500000 0.000000
O O10 0.000000 0.000000 0.000000
#
# Coordination Sequence:
#
# PCOD9472570 Si02
#       5
#    16  16   8   8   8
#     4  11  20  38  61  95 125 157 202 253 313 373
#     4  12  23  39  63  87 123 160 209 256 310 375
#     4  12  22  36  56  85 114 149 200 262 314 350
#     4  12  26  46  62  85 122 169 218 254 312 384
#     4  10  20  34  60  95 132 161 192 249 312 377
#
# _framework density 19.115120000000001
#
# number of rings (size 3 to 8) (size 9 to 14) (size 15 to 20)
#    0.000    0.571    2.857    8.571    0.000    0.000 
#    0.000    0.000    0.000    5.143    0.000    0.000 
#    0.000    0.000    0.000    0.000    0.000    0.000 
#
# Total GULP energy -156063.735868 kJ/mol
# GULP energy per Si atom -5573.704852 kJ/mol
# Density = 1.907161 g / cm^3
# Si number density = 19.115120 Si / 1000 Ang^3
#
#
#
# Elastic Constant Matrix: (Units=GPa)
#
#
# Indices 1 2 3 4 5 6 
#
# 1 85.4752 18.3254 34.2282 0.0000 0.0000 0.0000
# 2 18.3254 130.4207 4.1214 0.0000 0.0000 0.0000
# 3 34.2282 4.1214 108.3835 0.0000 0.0000 0.0000
# 4 0.0000 0.0000 0.0000 19.2002 0.0000 0.0000
# 5 0.0000 0.0000 0.0000 0.0000 24.8998 0.0000
# 6 0.0000 0.0000 0.0000 0.0000 0.0000 43.5377
#
#
#
# Elastic Compliance Matrix: (Units=1/GPa)
#
#
# Indices 1 2 3 4 5 6 
#
# 1 0.013804 -0.001804 -0.004291 0.000000 0.000000 0.000000
# 2 -0.001804 0.007912 0.000269 0.000000 0.000000 0.000000
# 3 -0.004291 0.000269 0.010571 0.000000 0.000000 0.000000
# 4 0.000000 0.000000 0.000000 0.052083 0.000000 0.000000
# 5 0.000000 0.000000 0.000000 0.000000 0.040161 0.000000
# 6 0.000000 0.000000 0.000000 0.000000 0.000000 0.022969
#
#
# Mechanical properties :
#
#
# Convention : Reuss Voigt Hill
#
# Bulk Modulus (GPa) = 48.45899 48.62548 48.54223
# Shear Modulus (GPa) = 30.11478 35.36783 32.74131
#
# Velocity S-wave (km/s) = 3.97349 4.30612 4.14315
# Velocity P-wave (km/s) = 6.81599 7.08640 6.95251
#
# Compressibility (1/GPa) = 0.02063601
#
# Stress axis : x y z
#
# Youngs Moduli (GPa) = 72.44090 126.38257 94.59511
#
# Poissons Ratio (x) = 0.22800 0.40590
# Poissons Ratio (y) = 0.13069 -0.02543
# Poissons Ratio (z) = 0.31084 -0.03398
#
# Static dielectric constant tensor:
#      x y z
#    x 1.749110 0.000000 0.000000 
#    y 0.000000 1.681120 0.000000 
#    z 0.000000 0.000000 1.641890 
# 
# From -- ./inp_files/48628.got.cif
#   From: 2010.05.17/outbox.cif.g08.bks.cpg/sg63_25_cif.got.tgz:48628.got - 2010.06.03 15:47:04.
