data_PCOD9472596
_publ_section_title
;
Structure prediction by ZEFSAII (Michael W. Deem and Ramdas Pophale) SiO2 
 PCOD9472596
Probable space group: C M C M
;
_chemical_formula_sum "Si O2"
_cell_formula_units_Z 112
_cell_length_a 28.397466
_cell_length_b 15.498044
_cell_length_c 15.749704
_cell_angle_alpha 90.000000
_cell_angle_beta 90.000000
_cell_angle_gamma 90.000000
_cell_volume 6931.526275
_symmetry_space_group_name_H-M "C M C M"
_symmetry_group_IT_number 63
_symmetry_cell_setting 'orthorhombic'
loop_
_space_group_symop_operation_xyz
x,y,z
-x,-y,1/2+z
x,-y,-z
-x,y,1/2-z
-x,-y,-z
x,y,1/2-z
-x,y,z
x,-y,1/2+z
1/2+x,1/2+y,z
1/2-x,1/2-y,1/2+z
1/2+x,1/2-y,-z
1/2-x,1/2+y,1/2-z
1/2-x,1/2-y,-z
1/2+x,1/2+y,1/2-z
1/2-x,1/2+y,z
1/2+x,1/2-y,1/2+z
loop_
_atom_site_type_symbol
_atom_site_label
_atom_site_fract_x
_atom_site_fract_y
_atom_site_fract_z
Si Si1 0.769053 0.126508 0.343387
Si Si2 0.352760 0.738768 0.555738
Si Si3 0.297716 0.904769 0.498052
Si Si4 0.553223 0.709309 0.648742
Si Si5 0.052843 0.003199 0.648842
Si Si6 0.259491 0.677832 0.847266
Si Si7 0.857021 0.925005 0.564224
O O1 0.750940 0.102821 0.250000
O O2 0.737275 0.097485 0.421513
O O3 0.768476 0.230830 0.347963
O O4 0.820103 0.087119 0.360082
O O5 0.333471 0.826328 0.514083
O O6 0.402328 0.751532 0.602881
O O7 0.311706 0.702721 0.618820
O O8 0.358758 0.664407 0.486041
O O9 0.266821 0.883817 0.414112
O O10 0.319393 0.000000 0.500000
O O11 0.556152 0.723450 0.750000
O O12 0.500000 0.734195 0.621475
O O13 0.557927 0.605978 0.634798
O O14 0.057403 0.989230 0.750000
O O15 0.000000 0.978120 0.623037
O O16 0.092589 0.953318 0.598694
O O17 0.261402 0.646238 0.750000
O O18 0.840430 0.000000 0.500000
#
# Coordination Sequence:
#
# PCOD9472596 Si02
#       7
#    16  16  16  16  16  16  16
#     4  10  20  35  53  74 102 138 176 215 259 309
#     4  11  20  35  52  76 107 135 176 217 257 311
#     4  11  22  38  53  74 106 139 180 224 262 304
#     4   9  18  33  52  75 104 136 170 210 260 317
#     4   9  19  33  47  71 106 139 171 206 250 311
#     4  10  20  36  55  74 103 139 175 220 263 306
#     4  12  20  30  49  74 107 138 173 212 251 307
#
# _framework density 16.158058
#
# number of rings (size 3 to 8) (size 9 to 14) (size 15 to 20)
#    0.000    1.714    4.286    3.000    0.000    2.000 
#    0.000    0.000    0.000    0.429    0.000    0.000 
#    0.000    2.286    0.000    0.000    0.000    0.000 
#
# Total GULP energy -312448.950243 kJ/mol
# GULP energy per Si atom -5579.445540 kJ/mol
# Density = 1.612128 g / cm^3
# Si number density = 16.158058 Si / 1000 Ang^3
#
#
#
# Elastic Constant Matrix: (Units=GPa)
#
#
# Indices 1 2 3 4 5 6 
#
# 1 95.3084 29.3356 37.5378 0.0000 0.0000 0.0000
# 2 29.3356 65.9375 30.3336 0.0000 0.0000 0.0000
# 3 37.5378 30.3336 88.7567 0.0000 0.0000 0.0000
# 4 0.0000 0.0000 0.0000 8.5918 0.0000 0.0000
# 5 0.0000 0.0000 0.0000 0.0000 24.9328 0.0000
# 6 0.0000 0.0000 0.0000 0.0000 0.0000 24.0353
#
#
#
# Elastic Compliance Matrix: (Units=1/GPa)
#
#
# Indices 1 2 3 4 5 6 
#
# 1 0.013418 -0.003986 -0.004313 0.000000 0.000000 0.000000
# 2 -0.003986 0.019179 -0.004869 0.000000 0.000000 0.000000
# 3 -0.004313 -0.004869 0.014755 0.000000 0.000000 0.000000
# 4 0.000000 0.000000 0.000000 0.116390 0.000000 0.000000
# 5 0.000000 0.000000 0.000000 0.000000 0.040108 0.000000
# 6 0.000000 0.000000 0.000000 0.000000 0.000000 0.041605
#
#
# Mechanical properties :
#
#
# Convention : Reuss Voigt Hill
#
# Bulk Modulus (GPa) = 47.58061 49.37960 48.48011
# Shear Modulus (GPa) = 17.93439 21.69837 19.81638
#
# Velocity S-wave (km/s) = 3.33518 3.66851 3.50581
# Velocity P-wave (km/s) = 6.65899 6.96927 6.81589
#
# Compressibility (1/GPa) = 0.02101696
#
# Stress axis : x y z
#
# Youngs Moduli (GPa) = 74.52953 52.14049 67.77499
#
# Poissons Ratio (x) = 0.20781 0.29228
# Poissons Ratio (y) = 0.29704 0.33000
# Poissons Ratio (z) = 0.32141 0.25387
#
# Static dielectric constant tensor:
#      x y z
#    x 1.540550 0.000000 0.000000 
#    y 0.000000 1.538740 0.000000 
#    z 0.000000 0.000000 1.565340 
# 
# From -- ./inp_files/37945.got.cif
#   From: 2010.05.17/outbox.cif.g08.bks.cpg/sg63_19_cif.got.tgz:37945.got - 2010.06.03 15:47:04.
