data_PCOD9472994
_publ_section_title
;
Structure prediction by ZEFSAII (Michael W. Deem and Ramdas Pophale) SiO2 
 PCOD9472994
Probable space group: C M C M
;
_chemical_formula_sum "Si O2"
_cell_formula_units_Z 104
_cell_length_a 26.759263
_cell_length_b 20.916959
_cell_length_c 8.698404
_cell_angle_alpha 90.000000
_cell_angle_beta 90.000000
_cell_angle_gamma 90.000000
_cell_volume 4868.691624
_symmetry_space_group_name_H-M "C M C M"
_symmetry_group_IT_number 63
_symmetry_cell_setting 'orthorhombic'
loop_
_space_group_symop_operation_xyz
x,y,z
-x,-y,1/2+z
x,-y,-z
-x,y,1/2-z
-x,-y,-z
x,y,1/2-z
-x,y,z
x,-y,1/2+z
1/2+x,1/2+y,z
1/2-x,1/2-y,1/2+z
1/2+x,1/2-y,-z
1/2-x,1/2+y,1/2-z
1/2-x,1/2-y,-z
1/2+x,1/2+y,1/2-z
1/2-x,1/2+y,z
1/2+x,1/2-y,1/2+z
loop_
_atom_site_type_symbol
_atom_site_label
_atom_site_fract_x
_atom_site_fract_y
_atom_site_fract_z
Si Si1 0.500000 0.572231 0.564984
Si Si2 0.311198 0.099388 0.072305
Si Si3 0.585462 0.933161 0.068692
Si Si4 0.705482 0.633676 0.067237
Si Si5 0.338782 0.751219 0.926264
Si Si6 0.055523 0.296075 0.936144
Si Si7 0.393120 0.428575 0.065705
O O1 0.500000 0.500000 0.500000
O O2 0.500000 0.568014 0.750000
O O3 0.553175 0.602066 0.521509
O O4 0.315131 0.076178 0.250000
O O5 0.254724 0.096155 0.010485
O O6 0.321381 0.175573 0.076751
O O7 0.355338 0.070471 0.971573
O O8 0.577474 0.931620 0.250000
O O9 0.562681 0.869024 0.993704
O O10 0.566202 0.000000 0.000000
O O11 0.708177 0.629722 0.250000
O O12 0.699195 0.707275 0.018791
O O13 0.654666 0.604575 0.004129
O O14 0.340181 0.727280 0.750000
O O15 0.396017 0.755336 0.987505
O O16 0.058281 0.297000 0.750000
O O17 0.000000 0.273366 0.980418
O O18 0.389513 0.429609 0.250000
O O19 0.393781 0.500000 0.000000
#
# Coordination Sequence:
#
# PCOD9472994 Si02
#       7
#     8  16  16  16  16  16  16
#     4   8  16  32  54  74  94 128 168 206 251 304
#     4   9  20  38  57  77 107 145 184 225 273 326
#     4  11  22  36  57  84 114 148 187 231 278 331
#     4  11  22  35  54  82 112 143 180 224 271 324
#     4   9  18  35  57  80 107 142 182 225 272 324
#     4   9  19  38  61  83 112 150 188 230 280 330
#     4  10  20  36  56  78 105 137 175 220 268 322
#
# _framework density 21.360975
#
# number of rings (size 3 to 8) (size 9 to 14) (size 15 to 20)
#    0.000    2.308    0.000    3.692    0.000    5.538 
#    1.385    0.000    0.000    0.000    0.000    0.000 
#    0.000    0.000    0.000    0.000    0.000    0.000 
#
# Total GULP energy -290226.698118 kJ/mol
# GULP energy per Si atom -5581.282656 kJ/mol
# Density = 2.131236 g / cm^3
# Si number density = 21.360975 Si / 1000 Ang^3
#
#
#
# Elastic Constant Matrix: (Units=GPa)
#
#
# Indices 1 2 3 4 5 6 
#
# 1 121.2318 -7.1114 5.7457 0.0000 0.0000 0.0000
# 2 -7.1114 24.8788 -4.6634 0.0000 0.0000 0.0000
# 3 5.7457 -4.6634 25.5278 0.0000 0.0000 0.0000
# 4 0.0000 0.0000 0.0000 27.7060 0.0000 0.0000
# 5 0.0000 0.0000 0.0000 0.0000 24.6418 0.0000
# 6 0.0000 0.0000 0.0000 0.0000 0.0000 17.3834
#
#
#
# Elastic Compliance Matrix: (Units=1/GPa)
#
#
# Indices 1 2 3 4 5 6 
#
# 1 0.008445 0.002131 -0.001512 0.000000 0.000000 0.000000
# 2 0.002131 0.042158 0.007222 0.000000 0.000000 0.000000
# 3 -0.001512 0.007222 0.040833 0.000000 0.000000 0.000000
# 4 0.000000 0.000000 0.000000 0.036093 0.000000 0.000000
# 5 0.000000 0.000000 0.000000 0.000000 0.040581 0.000000
# 6 0.000000 0.000000 0.000000 0.000000 0.000000 0.057526
#
#
# Mechanical properties :
#
#
# Convention : Reuss Voigt Hill
#
# Bulk Modulus (GPa) = 9.33557 17.73113 13.53335
# Shear Modulus (GPa) = 20.35330 25.79073 23.07201
#
# Velocity S-wave (km/s) = 3.09014 3.47850 3.29005
# Velocity P-wave (km/s) = 4.13664 4.94490 4.55872
#
# Compressibility (1/GPa) = 0.10711718
#
# Stress axis : x y z
#
# Youngs Moduli (GPa) = 118.40929 23.72051 24.49027
#
# Poissons Ratio (x) = -0.05054 0.03702
# Poissons Ratio (y) = -0.25229 -0.17686
# Poissons Ratio (z) = 0.17899 -0.17130
#
# Static dielectric constant tensor:
#      x y z
#    x 1.844480 0.000000 0.000000 
#    y 0.000000 1.929440 0.000000 
#    z 0.000000 0.000000 1.739290 
# 
# From -- ./inp_files/12547.got.cif
#   From: 2010.05.17/outbox.cif.g08.bks.cpg/sg63_7_cif.got.tgz:12547.got - 2010.06.03 15:47:04.
