data_PCOD9472940
_publ_section_title
;
Structure prediction by ZEFSAII (Michael W. Deem and Ramdas Pophale) SiO2 
 PCOD9472940
Probable space group: C M C M
;
_chemical_formula_sum "Si O2"
_cell_formula_units_Z 72
_cell_length_a 14.279251
_cell_length_b 18.015972
_cell_length_c 13.875903
_cell_angle_alpha 90.000000
_cell_angle_beta 90.000000
_cell_angle_gamma 90.000000
_cell_volume 3569.639684
_symmetry_space_group_name_H-M "C M C M"
_symmetry_group_IT_number 63
_symmetry_cell_setting 'orthorhombic'
loop_
_space_group_symop_operation_xyz
x,y,z
-x,-y,1/2+z
x,-y,-z
-x,y,1/2-z
-x,-y,-z
x,y,1/2-z
-x,y,z
x,-y,1/2+z
1/2+x,1/2+y,z
1/2-x,1/2-y,1/2+z
1/2+x,1/2-y,-z
1/2-x,1/2+y,1/2-z
1/2-x,1/2-y,-z
1/2+x,1/2+y,1/2-z
1/2-x,1/2+y,z
1/2+x,1/2-y,1/2+z
loop_
_atom_site_type_symbol
_atom_site_label
_atom_site_fract_x
_atom_site_fract_y
_atom_site_fract_z
Si Si1 0.288321 0.492577 0.750000
Si Si2 0.613043 0.345108 0.250000
Si Si3 0.804782 0.924705 0.953303
Si Si4 0.348579 0.277922 0.457540
Si Si5 0.893820 0.586238 0.750000
Si Si6 0.897417 0.375036 0.466924
O O1 0.346338 0.570529 0.750000
O O2 0.305085 0.441823 0.841683
O O3 0.181480 0.521141 0.750000
O O4 0.500000 0.347203 0.250000
O O5 0.647078 0.301777 0.154065
O O6 0.865079 0.854277 0.985439
O O7 0.696842 0.912597 0.990610
O O8 0.841304 0.000000 0.000000
O O9 0.250000 0.250000 0.500000
O O10 0.405672 0.205072 0.483339
O O11 0.881741 0.630183 0.649169
O O12 0.000000 0.557855 0.750000
O O13 0.000000 0.412164 0.480501
#
# Coordination Sequence:
#
# PCOD9472940 Si02
#       6
#     8   8  16  16   8  16
#     4  12  22  40  60  92 128 162 214 264 321 384
#     4  12  24  41  65  91 129 177 220 262 325 393
#     4  11  21  37  62  88 118 159 207 256 310 380
#     4  10  22  40  63  89 122 165 210 266 322 381
#     4  10  20  35  61  89 125 169 204 256 334 403
#     4  10  21  37  59  90 124 158 202 259 320 384
#
# _framework density 20.170103999999998
#
# number of rings (size 3 to 8) (size 9 to 14) (size 15 to 20)
#    0.000    1.333    4.444    2.000    0.000    5.778 
#    0.000    4.444    0.000    0.000    0.000    0.000 
#    0.000    0.000    0.000    0.000    0.000    0.000 
#
# Total GULP energy -200610.431923 kJ/mol
# GULP energy per Si atom -5572.511998 kJ/mol
# Density = 2.012420 g / cm^3
# Si number density = 20.170104 Si / 1000 Ang^3
#
#
#
# Elastic Constant Matrix: (Units=GPa)
#
#
# Indices 1 2 3 4 5 6 
#
# 1 62.9499 -11.0646 9.8746 0.0000 0.0000 0.0000
# 2 -11.0646 117.8655 54.2613 0.0000 0.0000 0.0000
# 3 9.8746 54.2613 201.7062 0.0000 0.0000 0.0000
# 4 0.0000 0.0000 0.0000 38.0532 0.0000 0.0000
# 5 0.0000 0.0000 0.0000 0.0000 174.1661 0.0000
# 6 0.0000 0.0000 0.0000 0.0000 0.0000 6.0809
#
#
#
# Elastic Compliance Matrix: (Units=1/GPa)
#
#
# Indices 1 2 3 4 5 6 
#
# 1 0.016490 0.002191 -0.001397 0.000000 0.000000 0.000000
# 2 0.002191 0.009975 -0.002791 0.000000 0.000000 0.000000
# 3 -0.001397 -0.002791 0.005777 0.000000 0.000000 0.000000
# 4 0.000000 0.000000 0.000000 0.026279 0.000000 0.000000
# 5 0.000000 0.000000 0.000000 0.000000 0.005742 0.000000
# 6 0.000000 0.000000 0.000000 0.000000 0.000000 0.164449
#
#
# Mechanical properties :
#
#
# Convention : Reuss Voigt Hill
#
# Bulk Modulus (GPa) = 35.39984 54.29602 44.84793
# Shear Modulus (GPa) = 20.65099 65.62340 43.13719
#
# Velocity S-wave (km/s) = 3.20322 5.71013 4.62959
# Velocity P-wave (km/s) = 5.59192 8.39355 7.13166
#
# Compressibility (1/GPa) = 0.02824872
#
# Stress axis : x y z
#
# Youngs Moduli (GPa) = 60.64340 100.25475 173.10726
#
# Poissons Ratio (x) = -0.21965 0.24177
# Poissons Ratio (y) = -0.13287 0.48306
# Poissons Ratio (z) = 0.08470 0.27976
#
# Static dielectric constant tensor:
#      x y z
#    x 1.771810 0.000000 0.000000 
#    y 0.000000 1.483230 0.000000 
#    z 0.000000 0.000000 1.694700 
# 
# From -- ./inp_files/20844.got.cif
#   From: 2010.05.17/outbox.cif.g08.bks.cpg/sg63_11_cif.got.tgz:20844.got - 2010.06.03 15:47:04.
