data_PCOD9472484
_publ_section_title
;
Structure prediction by ZEFSAII (Michael W. Deem and Ramdas Pophale) SiO2 
 PCOD9472484
Probable space group: C M C M
;
_chemical_formula_sum "Si O2"
_cell_formula_units_Z 96
_cell_length_a 24.249185
_cell_length_b 13.732667
_cell_length_c 16.563763
_cell_angle_alpha 90.000000
_cell_angle_beta 90.000000
_cell_angle_gamma 90.000000
_cell_volume 5515.832174
_symmetry_space_group_name_H-M "C M C M"
_symmetry_group_IT_number 63
_symmetry_cell_setting 'orthorhombic'
loop_
_space_group_symop_operation_xyz
x,y,z
-x,-y,1/2+z
x,-y,-z
-x,y,1/2-z
-x,-y,-z
x,y,1/2-z
-x,y,z
x,-y,1/2+z
1/2+x,1/2+y,z
1/2-x,1/2-y,1/2+z
1/2+x,1/2-y,-z
1/2-x,1/2+y,1/2-z
1/2-x,1/2-y,-z
1/2+x,1/2+y,1/2-z
1/2-x,1/2+y,z
1/2+x,1/2-y,1/2+z
loop_
_atom_site_type_symbol
_atom_site_label
_atom_site_fract_x
_atom_site_fract_y
_atom_site_fract_z
Si Si1 0.201767 0.782249 0.560573
Si Si2 0.775879 0.026070 0.154698
Si Si3 0.836426 0.408360 0.346569
Si Si4 0.566228 0.738736 0.657607
Si Si5 0.870628 0.085896 0.946446
Si Si6 0.936544 0.455885 0.848656
O O1 0.250000 0.750000 0.500000
O O2 0.223561 0.863447 0.623136
O O3 0.176234 0.690548 0.606574
O O4 0.156791 0.837674 0.507202
O O5 0.787639 0.021971 0.250000
O O6 0.716145 0.978531 0.140295
O O7 0.821814 0.964986 0.105530
O O8 0.840297 0.390143 0.250000
O O9 0.892113 0.463610 0.373202
O O10 0.586166 0.732404 0.750000
O O11 0.500000 0.737053 0.658297
O O12 0.589461 0.648140 0.609166
O O13 0.581189 0.846785 0.625487
O O14 0.896995 0.000000 0.000000
O O15 0.936771 0.453351 0.750000
O O16 0.000000 0.474467 0.873812
#
# Coordination Sequence:
#
# PCOD9472484 Si02
#       6
#    16  16  16  16  16  16
#     4  11  22  36  50  76 114 146 174 220 273 331
#     4  10  21  36  54  78 106 139 186 227 264 324
#     4  10  20  34  56  81 106 145 186 218 267 327
#     4   9  18  35  59  84 107 138 184 230 269 315
#     4  10  21  36  53  77 111 146 176 221 279 323
#     4   8  16  32  54  81 108 132 172 226 267 306
#
# _framework density 17.404444999999999
#
# number of rings (size 3 to 8) (size 9 to 14) (size 15 to 20)
#    0.000    2.333    1.667    2.000    2.333    0.333 
#    0.000    0.833    0.000    3.000    0.000    9.333 
#    0.000    0.000    0.000    0.000    0.000    0.000 
#
# Total GULP energy -267729.495503 kJ/mol
# GULP energy per Si atom -5577.697823 kJ/mol
# Density = 1.736483 g / cm^3
# Si number density = 17.404445 Si / 1000 Ang^3
#
#
#
# Elastic Constant Matrix: (Units=GPa)
#
#
# Indices 1 2 3 4 5 6 
#
# 1 54.0614 70.5384 34.0446 0.0000 0.0000 0.0000
# 2 70.5384 171.0976 66.8075 0.0000 0.0000 0.0000
# 3 34.0446 66.8075 59.6849 0.0000 0.0000 0.0000
# 4 0.0000 0.0000 0.0000 34.6121 0.0000 0.0000
# 5 0.0000 0.0000 0.0000 0.0000 19.5911 0.0000
# 6 0.0000 0.0000 0.0000 0.0000 0.0000 31.3774
#
#
#
# Elastic Compliance Matrix: (Units=1/GPa)
#
#
# Indices 1 2 3 4 5 6 
#
# 1 0.042154 -0.014194 -0.008158 0.000000 0.000000 0.000000
# 2 -0.014194 0.015162 -0.008875 0.000000 0.000000 0.000000
# 3 -0.008158 -0.008875 0.031341 0.000000 0.000000 0.000000
# 4 0.000000 0.000000 0.000000 0.028892 0.000000 0.000000
# 5 0.000000 0.000000 0.000000 0.000000 0.051044 0.000000
# 6 0.000000 0.000000 0.000000 0.000000 0.000000 0.031870
#
#
# Mechanical properties :
#
#
# Convention : Reuss Voigt Hill
#
# Bulk Modulus (GPa) = 38.15986 69.73609 53.94798
# Shear Modulus (GPa) = 18.40606 24.67968 21.54287
#
# Velocity S-wave (km/s) = 3.25553 3.76973 3.52203
# Velocity P-wave (km/s) = 6.00868 7.68784 6.89953
#
# Compressibility (1/GPa) = 0.02620554
#
# Stress axis : x y z
#
# Youngs Moduli (GPa) = 23.72231 65.95652 31.90663
#
# Poissons Ratio (x) = 0.93617 0.26028
# Poissons Ratio (y) = 0.33671 0.28316
# Poissons Ratio (z) = 0.19352 0.58534
#
# Static dielectric constant tensor:
#      x y z
#    x 1.576280 0.000000 0.000000 
#    y 0.000000 1.583050 0.000000 
#    z 0.000000 0.000000 1.603950 
# 
# From -- ./inp_files/47980.got.cif
#   From: 2010.05.17/outbox.cif.g08.bks.cpg/sg63_24_cif.got.tgz:47980.got - 2010.06.03 15:47:04.
