data_PCOD9472221
_publ_section_title
;
Structure prediction by ZEFSAII (Michael W. Deem and Ramdas Pophale) SiO2 
 PCOD9472221
Probable space group: C M C M
;
_chemical_formula_sum "Si O2"
_cell_formula_units_Z 80
_cell_length_a 26.571543
_cell_length_b 18.855985
_cell_length_c 8.127268
_cell_angle_alpha 90.000000
_cell_angle_beta 90.000000
_cell_angle_gamma 90.000000
_cell_volume 4072.026349
_symmetry_space_group_name_H-M "C M C M"
_symmetry_group_IT_number 63
_symmetry_cell_setting 'orthorhombic'
loop_
_space_group_symop_operation_xyz
x,y,z
-x,-y,1/2+z
x,-y,-z
-x,y,1/2-z
-x,-y,-z
x,y,1/2-z
-x,y,z
x,-y,1/2+z
1/2+x,1/2+y,z
1/2-x,1/2-y,1/2+z
1/2+x,1/2-y,-z
1/2-x,1/2+y,1/2-z
1/2-x,1/2-y,-z
1/2+x,1/2+y,1/2-z
1/2-x,1/2+y,z
1/2+x,1/2-y,1/2+z
loop_
_atom_site_type_symbol
_atom_site_label
_atom_site_fract_x
_atom_site_fract_y
_atom_site_fract_z
Si Si1 0.556545 0.667761 0.051643
Si Si2 0.347274 0.918637 0.448775
Si Si3 0.943251 0.330909 0.049223
Si Si4 0.152939 0.081082 0.945711
Si Si5 0.750613 0.168360 0.551015
O O1 0.556099 0.667750 0.250000
O O2 0.500000 0.648360 0.995657
O O3 0.566492 0.749249 0.999340
O O4 0.600185 0.615869 0.995667
O O5 0.347619 0.915886 0.250000
O O6 0.399057 0.882389 0.508000
O O7 0.299227 0.873218 0.506105
O O8 0.343330 0.000000 0.500000
O O9 0.943124 0.331674 0.250000
O O10 0.000000 0.350374 0.996902
O O11 0.155976 0.082449 0.750000
O O12 0.199455 0.128146 0.010860
O O13 0.156959 0.000000 0.000000
O O14 0.750737 0.166022 0.750000
O O15 0.750000 0.250000 0.500000
#
# Coordination Sequence:
#
# PCOD9472221 Si02
#       5
#    16  16  16  16  16
#     4   9  18  35  59  82 104 137 180 222 267 318
#     4  10  20  34  52  76 107 139 172 212 257 307
#     4   8  15  30  53  78 103 135 175 215 257 308
#     4  11  23  37  54  79 110 142 177 218 267 321
#     4  10  22  38  57  80 104 136 178 221 266 316
#
# _framework density 19.646238
#
# number of rings (size 3 to 8) (size 9 to 14) (size 15 to 20)
#    0.000    2.400    0.000    3.600    0.000    5.200 
#    0.000    1.000    0.000    1.200    0.000    0.000 
#    0.000    0.000    0.000    0.000    0.000    0.000 
#
# Total GULP energy -223333.521999 kJ/mol
# GULP energy per Si atom -5583.338050 kJ/mol
# Density = 1.960152 g / cm^3
# Si number density = 19.646238 Si / 1000 Ang^3
#
#
#
# Elastic Constant Matrix: (Units=GPa)
#
#
# Indices 1 2 3 4 5 6 
#
# 1 194.5719 142.6703 18.9865 0.0000 0.0000 0.0000
# 2 142.6703 189.6364 12.1481 0.0000 0.0000 0.0000
# 3 18.9865 12.1481 11.4685 0.0000 0.0000 0.0000
# 4 0.0000 0.0000 0.0000 24.4960 0.0000 0.0000
# 5 0.0000 0.0000 0.0000 0.0000 12.5073 0.0000
# 6 0.0000 0.0000 0.0000 0.0000 0.0000 46.2247
#
#
#
# Elastic Compliance Matrix: (Units=1/GPa)
#
#
# Indices 1 2 3 4 5 6 
#
# 1 0.012793 -0.008870 -0.011784 0.000000 0.000000 0.000000
# 2 -0.008870 0.011807 0.002178 0.000000 0.000000 0.000000
# 3 -0.011784 0.002178 0.104397 0.000000 0.000000 0.000000
# 4 0.000000 0.000000 0.000000 0.040823 0.000000 0.000000
# 5 0.000000 0.000000 0.000000 0.000000 0.079953 0.000000
# 6 0.000000 0.000000 0.000000 0.000000 0.000000 0.021633
#
#
# Mechanical properties :
#
#
# Convention : Reuss Voigt Hill
#
# Bulk Modulus (GPa) = 10.86427 82.58741 46.72584
# Shear Modulus (GPa) = 14.74750 31.43708 23.09229
#
# Velocity S-wave (km/s) = 2.74278 4.00454 3.43214
# Velocity P-wave (km/s) = 3.94619 7.96933 6.28819
#
# Compressibility (1/GPa) = 0.09204482
#
# Stress axis : x y z
#
# Youngs Moduli (GPa) = 78.16574 84.69592 9.57883
#
# Poissons Ratio (x) = 0.75125 0.11288
# Poissons Ratio (y) = 0.69333 -0.02086
# Poissons Ratio (z) = 0.92111 -0.18446
#
# Static dielectric constant tensor:
#      x y z
#    x 1.698780 0.000000 0.000000 
#    y 0.000000 1.656730 0.000000 
#    z 0.000000 0.000000 1.701470 
# 
# From -- ./inp_files/12027.got.cif
#   From: 2010.05.17/outbox.cif.g08.bks.cpg/sg63_7_cif.got.tgz:12027.got - 2010.06.03 15:47:04.
