data_PCOD9472344
_publ_section_title
;
Structure prediction by ZEFSAII (Michael W. Deem and Ramdas Pophale) SiO2 
 PCOD9472344
Probable space group: C M C M
;
_chemical_formula_sum "Si O2"
_cell_formula_units_Z 64
_cell_length_a 12.536121
_cell_length_b 12.375769
_cell_length_c 22.096429
_cell_angle_alpha 90.000000
_cell_angle_beta 90.000000
_cell_angle_gamma 90.000000
_cell_volume 3428.131422
_symmetry_space_group_name_H-M "C M C M"
_symmetry_group_IT_number 63
_symmetry_cell_setting 'orthorhombic'
loop_
_space_group_symop_operation_xyz
x,y,z
-x,-y,1/2+z
x,-y,-z
-x,y,1/2-z
-x,-y,-z
x,y,1/2-z
-x,y,z
x,-y,1/2+z
1/2+x,1/2+y,z
1/2-x,1/2-y,1/2+z
1/2+x,1/2-y,-z
1/2-x,1/2+y,1/2-z
1/2-x,1/2-y,-z
1/2+x,1/2+y,1/2-z
1/2-x,1/2+y,z
1/2+x,1/2-y,1/2+z
loop_
_atom_site_type_symbol
_atom_site_label
_atom_site_fract_x
_atom_site_fract_y
_atom_site_fract_z
Si Si1 0.628095 0.327038 0.750000
Si Si2 0.622736 0.840238 0.537734
Si Si3 0.315646 0.595278 0.957013
Si Si4 0.248180 0.545834 0.352899
Si Si5 0.126090 0.422197 0.250000
O O1 0.500000 0.334305 0.750000
O O2 0.676142 0.383551 0.809777
O O3 0.662276 0.201999 0.750000
O O4 0.500000 0.875702 0.535466
O O5 0.627408 0.709918 0.538218
O O6 0.694826 0.880840 0.481440
O O7 0.684246 0.884031 0.597250
O O8 0.311667 0.544551 0.890772
O O9 0.359333 0.500000 0.000000
O O10 0.168334 0.484427 0.308487
O O11 0.000000 0.422008 0.250000
#
# Coordination Sequence:
#
# PCOD9472344 Si02
#       5
#     8  16  16  16   8
#     4  10  22  38  56  78 106 142 180 220 270 322
#     4  10  20  35  56  81 109 143 180 219 267 319
#     4   9  20  36  53  79 112 142 176 221 265 317
#     4  10  20  36  55  78 108 139 178 223 265 316
#     4  10  20  34  54  78 104 138 178 222 268 312
#
# _framework density 18.669062
#
# number of rings (size 3 to 8) (size 9 to 14) (size 15 to 20)
#    0.000    2.250    0.000    2.250    0.000    7.000 
#    0.000   15.000    0.000    4.500    0.000    0.000 
#    0.000    0.000    0.000    0.000    0.000    0.000 
#
# Total GULP energy -178587.173547 kJ/mol
# GULP energy per Si atom -5580.849173 kJ/mol
# Density = 1.862657 g / cm^3
# Si number density = 18.669062 Si / 1000 Ang^3
#
#
#
# Elastic Constant Matrix: (Units=GPa)
#
#
# Indices 1 2 3 4 5 6 
#
# 1 75.7523 11.8586 11.9040 0.0000 0.0000 0.0000
# 2 11.8586 117.5119 21.8884 0.0000 0.0000 0.0000
# 3 11.9040 21.8884 78.4517 0.0000 0.0000 0.0000
# 4 0.0000 0.0000 0.0000 14.4511 0.0000 0.0000
# 5 0.0000 0.0000 0.0000 0.0000 7.6831 0.0000
# 6 0.0000 0.0000 0.0000 0.0000 0.0000 15.4211
#
#
#
# Elastic Compliance Matrix: (Units=1/GPa)
#
#
# Indices 1 2 3 4 5 6 
#
# 1 0.013644 -0.001046 -0.001779 0.000000 0.000000 0.000000
# 2 -0.001046 0.009056 -0.002368 0.000000 0.000000 0.000000
# 3 -0.001779 -0.002368 0.013677 0.000000 0.000000 0.000000
# 4 0.000000 0.000000 0.000000 0.069199 0.000000 0.000000
# 5 0.000000 0.000000 0.000000 0.000000 0.130156 0.000000
# 6 0.000000 0.000000 0.000000 0.000000 0.000000 0.064846
#
#
# Mechanical properties :
#
#
# Convention : Reuss Voigt Hill
#
# Bulk Modulus (GPa) = 38.47164 40.33533 39.40349
# Shear Modulus (GPa) = 15.64317 22.58203 19.11260
#
# Velocity S-wave (km/s) = 2.89782 3.48170 3.20309
# Velocity P-wave (km/s) = 5.64344 6.14942 5.90185
#
# Compressibility (1/GPa) = 0.02599317
#
# Stress axis : x y z
#
# Youngs Moduli (GPa) = 73.29181 110.41920 73.11385
#
# Poissons Ratio (x) = 0.11545 0.13004
# Poissons Ratio (y) = 0.07663 0.17314
# Poissons Ratio (z) = 0.13036 0.26149
#
# Static dielectric constant tensor:
#      x y z
#    x 1.632900 0.000000 0.000000 
#    y 0.000000 1.654870 0.000000 
#    z 0.000000 0.000000 1.621960 
# 
# From -- ./inp_files/60894.got.cif
#   From: 2010.05.17/outbox.cif.g08.bks.cpg/sg63_31_cif.got.tgz:60894.got - 2010.06.03 15:47:04.
