data_PCOD9472894
_publ_section_title
;
Structure prediction by ZEFSAII (Michael W. Deem and Ramdas Pophale) SiO2 
 PCOD9472894
Probable space group: C M C M
;
_chemical_formula_sum "Si O2"
_cell_formula_units_Z 96
_cell_length_a 10.768039
_cell_length_b 26.105437
_cell_length_c 17.633097
_cell_angle_alpha 90.000000
_cell_angle_beta 90.000000
_cell_angle_gamma 90.000000
_cell_volume 4956.740513
_symmetry_space_group_name_H-M "C M C M"
_symmetry_group_IT_number 63
_symmetry_cell_setting 'orthorhombic'
loop_
_space_group_symop_operation_xyz
x,y,z
-x,-y,1/2+z
x,-y,-z
-x,y,1/2-z
-x,-y,-z
x,y,1/2-z
-x,y,z
x,-y,1/2+z
1/2+x,1/2+y,z
1/2-x,1/2-y,1/2+z
1/2+x,1/2-y,-z
1/2-x,1/2+y,1/2-z
1/2-x,1/2-y,-z
1/2+x,1/2+y,1/2-z
1/2-x,1/2+y,z
1/2+x,1/2-y,1/2+z
loop_
_atom_site_type_symbol
_atom_site_label
_atom_site_fract_x
_atom_site_fract_y
_atom_site_fract_z
Si Si1 0.364614 0.542104 0.933816
Si Si2 0.138549 0.503477 0.660200
Si Si3 0.638852 0.882922 0.627026
Si Si4 0.140796 0.810972 0.869199
Si Si5 0.646395 0.808070 0.165401
Si Si6 0.731708 0.352773 0.483424
O O1 0.500000 0.535793 0.896819
O O2 0.248266 0.533785 0.879501
O O3 0.353615 0.598061 0.969943
O O4 0.355112 0.500000 0.000000
O O5 0.141823 0.511381 0.750000
O O6 0.155169 0.442780 0.644343
O O7 0.000000 0.517709 0.632290
O O8 0.500000 0.868045 0.651526
O O9 0.751969 0.849210 0.659748
O O10 0.655601 0.872681 0.536918
O O11 0.156785 0.753562 0.840163
O O12 0.000000 0.827758 0.852109
O O13 0.162343 0.812977 0.960705
O O14 0.685741 0.824685 0.250000
O O15 0.500000 0.820514 0.156912
O O16 0.722603 0.831254 0.096023
#
# Coordination Sequence:
#
# PCOD9472894 Si02
#       6
#    16  16  16  16  16  16
#     4  11  22  39  61  87 117 150 194 245 295 349
#     4  10  22  39  57  83 120 156 194 242 294 350
#     4   9  19  34  58  87 113 149 193 238 287 342
#     4   9  19  36  59  85 113 148 191 239 287 337
#     4  10  21  37  57  85 120 154 192 237 286 343
#     4  10  20  35  59  85 111 150 187 238 288 341
#
# _framework density 19.367564999999999
#
# number of rings (size 3 to 8) (size 9 to 14) (size 15 to 20)
#    1.000    1.167    1.667    1.500    0.000    4.000 
#    0.000    2.500    0.000    3.500    0.000    0.000 
#    0.000    0.000    0.000    0.000    0.000    0.000 
#
# Total GULP energy -267534.072523 kJ/mol
# GULP energy per Si atom -5573.626511 kJ/mol
# Density = 1.932348 g / cm^3
# Si number density = 19.367565 Si / 1000 Ang^3
#
#
#
# Elastic Constant Matrix: (Units=GPa)
#
#
# Indices 1 2 3 4 5 6 
#
# 1 115.4359 18.9469 29.1496 0.0000 0.0000 0.0000
# 2 18.9469 28.7666 17.7401 0.0000 0.0000 0.0000
# 3 29.1496 17.7401 94.3725 0.0000 0.0000 0.0000
# 4 0.0000 0.0000 0.0000 0.2509 0.0000 0.0000
# 5 0.0000 0.0000 0.0000 0.0000 45.8900 0.0000
# 6 0.0000 0.0000 0.0000 0.0000 0.0000 -49.5372
#
#
#
# Elastic Compliance Matrix: (Units=1/GPa)
#
#
# Indices 1 2 3 4 5 6 
#
# 1 0.010070 -0.005333 -0.002108 0.000000 0.000000 0.000000
# 2 -0.005333 0.042145 -0.006275 0.000000 0.000000 0.000000
# 3 -0.002108 -0.006275 0.012427 0.000000 0.000000 0.000000
# 4 0.000000 0.000000 0.000000 3.986194 0.000000 0.000000
# 5 0.000000 0.000000 0.000000 0.000000 0.021791 0.000000
# 6 0.000000 0.000000 0.000000 0.000000 0.000000 -0.020187
#
#
# Mechanical properties :
#
#
# Convention : Reuss Voigt Hill
#
# Bulk Modulus (GPa) = 26.87438 41.13868 34.00653
# Shear Modulus (GPa) = 1.22181 10.83664 6.02923
#
# Velocity S-wave (km/s) = 0.79513 2.36800 1.76630
# Velocity P-wave (km/s) = 3.84045 5.36318 4.66437
#
# Compressibility (1/GPa) = 0.03721017
#
# Stress axis : x y z
#
# Youngs Moduli (GPa) = 99.30063 23.72775 80.46961
#
# Poissons Ratio (x) = 0.12653 0.16964
# Poissons Ratio (y) = 0.52955 0.50496
# Poissons Ratio (z) = 0.20933 0.14890
#
# Static dielectric constant tensor:
#      x y z
#    x 1.676320 0.000000 0.000000 
#    y 0.000000 1.651580 0.000000 
#    z 0.000000 0.000000 1.680350 
# 
# From -- ./inp_files/42511.got.cif
#   From: 2010.05.17/outbox.cif.g08.bks.cpg/sg63_22_cif.got.tgz:42511.got - 2010.06.03 15:47:04.
