data_PCOD9472021
_publ_section_title
;
Structure prediction by ZEFSAII (Michael W. Deem and Ramdas Pophale) SiO2 
 PCOD9472021
Probable space group: C M C M
;
_chemical_formula_sum "Si O2"
_cell_formula_units_Z 64
_cell_length_a 40.122355
_cell_length_b 9.054595
_cell_length_c 10.155462
_cell_angle_alpha 90.000000
_cell_angle_beta 90.000000
_cell_angle_gamma 90.000000
_cell_volume 3689.394800
_symmetry_space_group_name_H-M "C M C M"
_symmetry_group_IT_number 63
_symmetry_cell_setting 'orthorhombic'
loop_
_space_group_symop_operation_xyz
x,y,z
-x,-y,1/2+z
x,-y,-z
-x,y,1/2-z
-x,-y,-z
x,y,1/2-z
-x,y,z
x,-y,1/2+z
1/2+x,1/2+y,z
1/2-x,1/2-y,1/2+z
1/2+x,1/2-y,-z
1/2-x,1/2+y,1/2-z
1/2-x,1/2-y,-z
1/2+x,1/2+y,1/2-z
1/2-x,1/2+y,z
1/2+x,1/2-y,1/2+z
loop_
_atom_site_type_symbol
_atom_site_label
_atom_site_fract_x
_atom_site_fract_y
_atom_site_fract_z
Si Si1 0.172766 0.825344 0.517788
Si Si2 0.707041 0.722168 0.750000
Si Si3 0.608945 0.140404 0.903561
Si Si4 0.535866 0.858468 0.095516
Si Si5 0.277526 0.626722 0.250000
O O1 0.185112 0.758141 0.380313
O O2 0.139468 0.747960 0.567466
O O3 0.202628 0.813472 0.623154
O O4 0.166648 0.000000 0.500000
O O5 0.719137 0.550883 0.750000
O O6 0.739507 0.823640 0.750000
O O7 0.610655 0.094847 0.750000
O O8 0.572196 0.213084 0.925428
O O9 0.611343 0.000000 0.000000
O O10 0.535767 0.903089 0.250000
O O11 0.500000 0.779999 0.072988
O O12 0.535769 0.000000 0.000000
#
# Coordination Sequence:
#
# PCOD9472021 Si02
#       5
#    16   8  16  16   8
#     4  10  21  37  54  74 104 139 170 205 254 307
#     4  10  22  34  56  76  99 130 169 207 256 307
#     4  10  20  33  52  79 107 134 171 215 254 300
#     4   8  14  26  45  70 100 132 164 203 252 298
#     4  10  20  38  54  76  99 130 167 211 256 305
#
# _framework density 17.347017999999998
#
# number of rings (size 3 to 8) (size 9 to 14) (size 15 to 20)
#    0.000    2.500    1.250    0.750    1.750    2.000 
#    0.000    0.000    0.000    0.750    0.000    0.000 
#    0.000    0.000    0.000    0.000    0.000    0.000 
#
# Total GULP energy -178149.965697 kJ/mol
# GULP energy per Si atom -5567.186428 kJ/mol
# Density = 1.730754 g / cm^3
# Si number density = 17.347018 Si / 1000 Ang^3
#
#
#
# Elastic Constant Matrix: (Units=GPa)
#
#
# Indices 1 2 3 4 5 6 
#
# 1 125.7461 25.7488 31.6840 0.0000 0.0000 0.0000
# 2 25.7488 10.1151 12.3820 0.0000 0.0000 0.0000
# 3 31.6840 12.3820 91.3666 0.0000 0.0000 0.0000
# 4 0.0000 0.0000 0.0000 -2.3497 0.0000 0.0000
# 5 0.0000 0.0000 0.0000 0.0000 22.7787 0.0000
# 6 0.0000 0.0000 0.0000 0.0000 0.0000 13.2082
#
#
#
# Elastic Compliance Matrix: (Units=1/GPa)
#
#
# Indices 1 2 3 4 5 6 
#
# 1 0.016611 -0.042241 -0.000036 0.000000 0.000000 0.000000
# 2 -0.042241 0.225939 -0.015971 0.000000 0.000000 0.000000
# 3 -0.000036 -0.015971 0.013122 0.000000 0.000000 0.000000
# 4 0.000000 0.000000 0.000000 -0.425579 0.000000 0.000000
# 5 0.000000 0.000000 0.000000 0.000000 0.043901 0.000000
# 6 0.000000 0.000000 0.000000 0.000000 0.000000 0.075710
#
#
# Mechanical properties :
#
#
# Convention : Reuss Voigt Hill
#
# Bulk Modulus (GPa) = 7.18513 40.76194 23.97353
# Shear Modulus (GPa) = 44.40767 17.22163 30.81465
#
# Velocity S-wave (km/s) = 5.06509 3.15425 4.21927
# Velocity P-wave (km/s) = 6.19337 6.06751 6.13076
#
# Compressibility (1/GPa) = 0.13917640
#
# Stress axis : x y z
#
# Youngs Moduli (GPa) = 60.20036 4.42596 76.20917
#
# Poissons Ratio (x) = 0.18696 0.00274
# Poissons Ratio (y) = 2.54292 1.21714
# Poissons Ratio (z) = 0.00216 0.07069
#
# Static dielectric constant tensor:
#      x y z
#    x 1.618960 0.000000 0.000000 
#    y 0.000000 1.554650 0.000000 
#    z 0.000000 0.000000 1.599280 
# 
# From -- ./inp_files/13746.got.cif
#   From: 2010.05.17/outbox.cif.g08.bks.cpg/sg63_7_cif.got.tgz:13746.got - 2010.06.03 15:47:04.
