data_PCOD9472343
_publ_section_title
;
Structure prediction by ZEFSAII (Michael W. Deem and Ramdas Pophale) SiO2 
 PCOD9472343
Probable space group: C M C M
;
_chemical_formula_sum "Si O2"
_cell_formula_units_Z 96
_cell_length_a 9.643697
_cell_length_b 20.905808
_cell_length_c 22.956433
_cell_angle_alpha 90.000000
_cell_angle_beta 90.000000
_cell_angle_gamma 90.000000
_cell_volume 4628.229880
_symmetry_space_group_name_H-M "C M C M"
_symmetry_group_IT_number 63
_symmetry_cell_setting 'orthorhombic'
loop_
_space_group_symop_operation_xyz
x,y,z
-x,-y,1/2+z
x,-y,-z
-x,y,1/2-z
-x,-y,-z
x,y,1/2-z
-x,y,z
x,-y,1/2+z
1/2+x,1/2+y,z
1/2-x,1/2-y,1/2+z
1/2+x,1/2-y,-z
1/2-x,1/2+y,1/2-z
1/2-x,1/2-y,-z
1/2+x,1/2+y,1/2-z
1/2-x,1/2+y,z
1/2+x,1/2-y,1/2+z
loop_
_atom_site_type_symbol
_atom_site_label
_atom_site_fract_x
_atom_site_fract_y
_atom_site_fract_z
Si Si1 0.156415 0.312225 0.009333
Si Si2 0.843272 0.073556 0.851737
Si Si3 0.342853 0.572911 0.508991
Si Si4 0.158318 0.308565 0.820307
Si Si5 0.656137 0.189576 0.851477
Si Si6 0.342139 0.045510 0.320373
O O1 0.237242 0.374216 0.985620
O O2 0.145315 0.320043 0.079024
O O3 0.000000 0.305357 0.985967
O O4 0.250000 0.250000 0.000000
O O5 0.852245 0.082489 0.921466
O O6 0.749931 0.131558 0.827822
O O7 0.000000 0.074037 0.828502
O O8 0.766270 0.006777 0.841254
O O9 0.296628 0.500000 0.500000
O O10 0.500000 0.579789 0.484957
O O11 0.160454 0.307428 0.750000
O O12 0.265711 0.256221 0.841872
O O13 0.189600 0.381543 0.838287
O O14 0.000000 0.293069 0.838456
O O15 0.500000 0.189530 0.827465
O O16 0.342188 0.044488 0.250000
O O17 0.500000 0.030007 0.339598
#
# Coordination Sequence:
#
# PCOD9472343 Si02
#       6
#    16  16  16  16  16  16
#     4  10  21  36  54  77 105 137 174 214 256 306
#     4  10  20  34  54  78 104 136 172 211 255 303
#     4   9  19  36  55  76 105 137 169 210 258 305
#     4   9  19  36  56  78 105 137 173 213 258 308
#     4  10  21  36  54  77 105 137 174 215 257 304
#     4   9  19  36  55  75 103 137 170 209 257 305
#
# _framework density 20.742270999999999
#
# number of rings (size 3 to 8) (size 9 to 14) (size 15 to 20)
#    0.000    2.500    0.000    2.500    0.000    6.333 
#    0.000    6.667    0.000    0.000    0.000    0.000 
#    0.000    0.000    0.000    0.000    0.000    0.000 
#
# Total GULP energy -267993.424655 kJ/mol
# GULP energy per Si atom -5583.196347 kJ/mol
# Density = 2.069506 g / cm^3
# Si number density = 20.742271 Si / 1000 Ang^3
#
#
#
# Elastic Constant Matrix: (Units=GPa)
#
#
# Indices 1 2 3 4 5 6 
#
# 1 203.1561 140.0051 5.5545 0.0000 0.0000 0.0000
# 2 140.0051 156.6802 -8.0046 0.0000 0.0000 0.0000
# 3 5.5545 -8.0046 26.4272 0.0000 0.0000 0.0000
# 4 0.0000 0.0000 0.0000 32.0515 0.0000 0.0000
# 5 0.0000 0.0000 0.0000 0.0000 14.5003 0.0000
# 6 0.0000 0.0000 0.0000 0.0000 0.0000 35.9902
#
#
#
# Elastic Compliance Matrix: (Units=1/GPa)
#
#
# Indices 1 2 3 4 5 6 
#
# 1 0.013919 -0.012785 -0.006798 0.000000 0.000000 0.000000
# 2 -0.012785 0.018226 0.008208 0.000000 0.000000 0.000000
# 3 -0.006798 0.008208 0.041755 0.000000 0.000000 0.000000
# 4 0.000000 0.000000 0.000000 0.031200 0.000000 0.000000
# 5 0.000000 0.000000 0.000000 0.000000 0.068964 0.000000
# 6 0.000000 0.000000 0.000000 0.000000 0.000000 0.027785
#
#
# Mechanical properties :
#
#
# Convention : Reuss Voigt Hill
#
# Bulk Modulus (GPa) = 19.55066 73.48593 46.51829
# Shear Modulus (GPa) = 20.69120 33.08895 26.89007
#
# Velocity S-wave (km/s) = 3.16181 3.99838 3.60445
# Velocity P-wave (km/s) = 4.77235 7.53798 6.30858
#
# Compressibility (1/GPa) = 0.05114918
#
# Stress axis : x y z
#
# Youngs Moduli (GPa) = 71.84515 54.86704 23.94946
#
# Poissons Ratio (x) = 0.70146 0.16281
# Poissons Ratio (y) = 0.91852 -0.19657
# Poissons Ratio (z) = 0.48839 -0.45033
#
# Static dielectric constant tensor:
#      x y z
#    x 1.747200 0.000000 0.000000 
#    y 0.000000 1.722500 0.000000 
#    z 0.000000 0.000000 1.769830 
# 
# From -- ./inp_files/66939.got.cif
#   From: 2010.05.17/outbox.cif.g08.bks.cpg/sg63_34_cif.got.tgz:66939.got - 2010.06.03 15:47:04.
