data_PCOD9472597
_publ_section_title
;
Structure prediction by ZEFSAII (Michael W. Deem and Ramdas Pophale) SiO2 
 PCOD9472597
Probable space group: C M C M
;
_chemical_formula_sum "Si O2"
_cell_formula_units_Z 104
_cell_length_a 27.825168
_cell_length_b 23.968522
_cell_length_c 8.763674
_cell_angle_alpha 90.000000
_cell_angle_beta 90.000000
_cell_angle_gamma 90.000000
_cell_volume 5844.740900
_symmetry_space_group_name_H-M "C M C M"
_symmetry_group_IT_number 63
_symmetry_cell_setting 'orthorhombic'
loop_
_space_group_symop_operation_xyz
x,y,z
-x,-y,1/2+z
x,-y,-z
-x,y,1/2-z
-x,-y,-z
x,y,1/2-z
-x,y,z
x,-y,1/2+z
1/2+x,1/2+y,z
1/2-x,1/2-y,1/2+z
1/2+x,1/2-y,-z
1/2-x,1/2+y,1/2-z
1/2-x,1/2-y,-z
1/2+x,1/2+y,1/2-z
1/2-x,1/2+y,z
1/2+x,1/2-y,1/2+z
loop_
_atom_site_type_symbol
_atom_site_label
_atom_site_fract_x
_atom_site_fract_y
_atom_site_fract_z
Si Si1 0.921070 0.345408 0.066297
Si Si2 0.500000 0.062899 0.565017
Si Si3 0.323706 0.213722 0.565900
Si Si4 0.783815 0.821012 0.433204
Si Si5 0.423993 0.557268 0.431415
Si Si6 0.500000 0.767963 0.929160
Si Si7 0.500000 0.364021 0.071324
Si Si8 0.817548 0.056376 0.567373
O O1 0.920111 0.347777 0.250000
O O2 0.952150 0.400722 0.018618
O O3 0.867048 0.327533 0.015764
O O4 0.954100 0.294847 0.009682
O O5 0.500000 0.060087 0.750000
O O6 0.500000 0.000000 0.500000
O O7 0.325489 0.215715 0.750000
O O8 0.270840 0.192327 0.518430
O O9 0.321915 0.277391 0.504461
O O10 0.786738 0.814670 0.250000
O O11 0.792840 0.885339 0.470652
O O12 0.444747 0.500000 0.500000
O O13 0.424271 0.554497 0.250000
O O14 0.454182 0.608898 0.491447
O O15 0.370301 0.560577 0.495214
O O16 0.500000 0.782842 0.750000
O O17 0.500000 0.701986 0.943248
O O18 0.500000 0.378797 0.250000
O O19 0.821082 0.051059 0.750000
O O20 0.794622 0.000000 0.500000
#
# Coordination Sequence:
#
# PCOD9472597 Si02
#       8
#    16   8  16  16  16   8   8  16
#     4   9  19  36  56  78 108 140 174 215 259 311
#     4   9  18  34  55  79 108 141 175 214 258 314
#     4   9  18  34  56  80 105 139 176 214 264 320
#     4   9  19  34  53  78 108 138 173 219 269 314
#     4  11  22  36  53  72  96 131 174 219 261 309
#     4  10  22  35  51  76 106 137 170 211 258 305
#     4  11  23  37  50  71 102 134 167 211 263 313
#     4  10  20  35  53  74 103 139 177 220 264 312
#
# _framework density 17.793773999999999
#
# number of rings (size 3 to 8) (size 9 to 14) (size 15 to 20)
#    0.000    2.308    0.000    3.923    2.154    4.308 
#    0.000    0.769    0.000    0.000    0.000    0.000 
#    0.000    0.000    0.000    0.000    0.000    0.000 
#
# Total GULP energy -289736.674803 kJ/mol
# GULP energy per Si atom -5571.859131 kJ/mol
# Density = 1.775327 g / cm^3
# Si number density = 17.793774 Si / 1000 Ang^3
#
#
#
# Elastic Constant Matrix: (Units=GPa)
#
#
# Indices 1 2 3 4 5 6 
#
# 1 88.1967 53.6684 19.4318 0.0000 0.0000 0.0000
# 2 53.6684 127.4223 45.2431 0.0000 0.0000 0.0000
# 3 19.4318 45.2431 38.2838 0.0000 0.0000 0.0000
# 4 0.0000 0.0000 0.0000 32.8736 0.0000 0.0000
# 5 0.0000 0.0000 0.0000 0.0000 23.5637 0.0000
# 6 0.0000 0.0000 0.0000 0.0000 0.0000 0.1123
#
#
#
# Elastic Compliance Matrix: (Units=1/GPa)
#
#
# Indices 1 2 3 4 5 6 
#
# 1 0.015247 -0.006330 -0.000258 0.000000 0.000000 0.000000
# 2 -0.006330 0.016150 -0.015873 0.000000 0.000000 0.000000
# 3 -0.000258 -0.015873 0.045010 0.000000 0.000000 0.000000
# 4 0.000000 0.000000 0.000000 0.030420 0.000000 0.000000
# 5 0.000000 0.000000 0.000000 0.000000 0.042438 0.000000
# 6 0.000000 0.000000 0.000000 0.000000 0.000000 8.900872
#
#
# Mechanical properties :
#
#
# Convention : Reuss Voigt Hill
#
# Bulk Modulus (GPa) = 31.76127 54.50993 43.13560
# Shear Modulus (GPa) = 0.54912 20.34723 10.44817
#
# Velocity S-wave (km/s) = 0.55612 3.38524 2.42581
# Velocity P-wave (km/s) = 4.27794 6.78090 5.66927
#
# Compressibility (1/GPa) = 0.03148489
#
# Stress axis : x y z
#
# Youngs Moduli (GPa) = 65.58598 61.91971 22.21745
#
# Poissons Ratio (x) = 0.39197 0.00573
# Poissons Ratio (y) = 0.41518 0.35265
# Poissons Ratio (z) = 0.01692 0.98283
#
# Static dielectric constant tensor:
#      x y z
#    x 1.657330 0.000000 0.000000 
#    y 0.000000 1.629790 0.000000 
#    z 0.000000 0.000000 1.599200 
# 
# From -- ./inp_files/14703.got.cif
#   From: 2010.05.17/outbox.cif.g08.bks.cpg/sg63_8_cif.got.tgz:14703.got - 2010.06.03 15:47:04.
