data_PCOD9472038
_publ_section_title
;
Structure prediction by ZEFSAII (Michael W. Deem and Ramdas Pophale) SiO2 
 PCOD9472038
Probable space group: C M C M
;
_chemical_formula_sum "Si O2"
_cell_formula_units_Z 96
_cell_length_a 7.657535
_cell_length_b 30.650810
_cell_length_c 20.093506
_cell_angle_alpha 90.000000
_cell_angle_beta 90.000000
_cell_angle_gamma 90.000000
_cell_volume 4716.139768
_symmetry_space_group_name_H-M "C M C M"
_symmetry_group_IT_number 63
_symmetry_cell_setting 'orthorhombic'
loop_
_space_group_symop_operation_xyz
x,y,z
-x,-y,1/2+z
x,-y,-z
-x,y,1/2-z
-x,-y,-z
x,y,1/2-z
-x,y,z
x,-y,1/2+z
1/2+x,1/2+y,z
1/2-x,1/2-y,1/2+z
1/2+x,1/2-y,-z
1/2-x,1/2+y,1/2-z
1/2-x,1/2-y,-z
1/2+x,1/2+y,1/2-z
1/2-x,1/2+y,z
1/2+x,1/2-y,1/2+z
loop_
_atom_site_type_symbol
_atom_site_label
_atom_site_fract_x
_atom_site_fract_y
_atom_site_fract_z
Si Si1 0.786364 0.313468 0.174428
Si Si2 0.210689 0.786127 0.674500
Si Si3 0.789311 0.550346 0.174216
Si Si4 0.707475 0.522823 0.932040
Si Si5 0.795008 0.377641 0.439302
Si Si6 0.293222 0.131452 0.412432
O O1 0.730932 0.323890 0.250000
O O2 0.734479 0.263497 0.159331
O O3 0.722209 0.347308 0.119261
O O4 0.000000 0.314212 0.175179
O O5 0.269087 0.796798 0.750000
O O6 0.270874 0.822298 0.622962
O O7 0.000000 0.786558 0.674665
O O8 0.724267 0.548386 0.250000
O O9 0.745509 0.508352 0.130028
O O10 0.722286 0.592930 0.134638
O O11 0.000000 0.553249 0.177545
O O12 0.500000 0.527427 0.939224
O O13 0.780733 0.571218 0.923862
O O14 0.775092 0.500000 0.000000
O O15 0.718868 0.369953 0.513000
O O16 0.000000 0.366216 0.443055
O O17 0.500000 0.122607 0.418557
#
# Coordination Sequence:
#
# PCOD9472038 Si02
#       6
#    16  16  16  16  16  16
#     4   8  16  33  55  79 106 138 180 223 262 314
#     4   9  18  33  53  76 106 144 180 217 265 320
#     4  10  21  37  57  80 107 143 185 225 266 320
#     4  11  23  38  56  79 110 144 177 220 277 330
#     4  10  20  35  58  81 105 142 183 223 269 320
#     4  10  20  33  52  80 111 140 177 224 269 317
#
# _framework density 20.355630999999999
#
# number of rings (size 3 to 8) (size 9 to 14) (size 15 to 20)
#    0.000    2.333    1.667    2.000    0.000    4.667 
#    0.000    2.500    0.000    1.000    0.000    0.000 
#    0.000    0.000    0.000    0.000    0.000    0.000 
#
# Total GULP energy -267995.617726 kJ/mol
# GULP energy per Si atom -5583.242036 kJ/mol
# Density = 2.030930 g / cm^3
# Si number density = 20.355631 Si / 1000 Ang^3
#
#
#
# Elastic Constant Matrix: (Units=GPa)
#
#
# Indices 1 2 3 4 5 6 
#
# 1 30.7833 -18.2161 -2.4031 0.0000 0.0000 0.0000
# 2 -18.2161 142.1779 121.9719 0.0000 0.0000 0.0000
# 3 -2.4031 121.9719 198.1673 0.0000 0.0000 0.0000
# 4 0.0000 0.0000 0.0000 34.5777 0.0000 0.0000
# 5 0.0000 0.0000 0.0000 0.0000 12.3352 0.0000
# 6 0.0000 0.0000 0.0000 0.0000 0.0000 18.6039
#
#
#
# Elastic Compliance Matrix: (Units=1/GPa)
#
#
# Indices 1 2 3 4 5 6 
#
# 1 0.037623 0.009384 -0.005320 0.000000 0.000000 0.000000
# 2 0.009384 0.017243 -0.010499 0.000000 0.000000 0.000000
# 3 -0.005320 -0.010499 0.011444 0.000000 0.000000 0.000000
# 4 0.000000 0.000000 0.000000 0.028920 0.000000 0.000000
# 5 0.000000 0.000000 0.000000 0.000000 0.081068 0.000000
# 6 0.000000 0.000000 0.000000 0.000000 0.000000 0.053752
#
#
# Mechanical properties :
#
#
# Convention : Reuss Voigt Hill
#
# Bulk Modulus (GPa) = 18.71262 63.75933 41.23597
# Shear Modulus (GPa) = 19.17668 31.08841 25.13255
#
# Velocity S-wave (km/s) = 3.07267 3.91226 3.51760
# Velocity P-wave (km/s) = 4.66917 7.19711 6.06628
#
# Compressibility (1/GPa) = 0.05343987
#
# Stress axis : x y z
#
# Youngs Moduli (GPa) = 26.57962 57.99564 87.38278
#
# Poissons Ratio (x) = -0.54422 0.46483
# Poissons Ratio (y) = -0.24942 0.91744
# Poissons Ratio (z) = 0.14139 0.60890
#
# Static dielectric constant tensor:
#      x y z
#    x 1.761380 0.000000 0.000000 
#    y 0.000000 1.675420 0.000000 
#    z 0.000000 0.000000 1.721850 
# 
# From -- ./inp_files/51286.got.cif
#   From: 2010.05.17/outbox.cif.g08.bks.cpg/sg63_26_cif.got.tgz:51286.got - 2010.06.03 15:47:04.
