data_PCOD9472397
_publ_section_title
;
Structure prediction by ZEFSAII (Michael W. Deem and Ramdas Pophale) SiO2 
 PCOD9472397
Probable space group: C M C M
;
_chemical_formula_sum "Si O2"
_cell_formula_units_Z 104
_cell_length_a 21.053004
_cell_length_b 29.711224
_cell_length_c 8.836572
_cell_angle_alpha 90.000000
_cell_angle_beta 90.000000
_cell_angle_gamma 90.000000
_cell_volume 5527.368727
_symmetry_space_group_name_H-M "C M C M"
_symmetry_group_IT_number 63
_symmetry_cell_setting 'orthorhombic'
loop_
_space_group_symop_operation_xyz
x,y,z
-x,-y,1/2+z
x,-y,-z
-x,y,1/2-z
-x,-y,-z
x,y,1/2-z
-x,y,z
x,-y,1/2+z
1/2+x,1/2+y,z
1/2-x,1/2-y,1/2+z
1/2+x,1/2-y,-z
1/2-x,1/2+y,1/2-z
1/2-x,1/2-y,-z
1/2+x,1/2+y,1/2-z
1/2-x,1/2+y,z
1/2+x,1/2-y,1/2+z
loop_
_atom_site_type_symbol
_atom_site_label
_atom_site_fract_x
_atom_site_fract_y
_atom_site_fract_z
Si Si1 0.321936 0.805019 0.069570
Si Si2 0.123517 0.390279 0.931334
Si Si3 0.500000 0.949382 0.567114
Si Si4 0.315271 0.299779 0.567799
Si Si5 0.069505 0.137396 0.432122
Si Si6 0.380900 0.451865 0.070015
Si Si7 0.268076 0.048711 0.569001
O O1 0.323680 0.810654 0.250000
O O2 0.331651 0.752262 0.033105
O O3 0.371139 0.839709 0.995283
O O4 0.250588 0.813847 0.009308
O O5 0.125121 0.388821 0.750000
O O6 0.062164 0.420073 0.976674
O O7 0.185563 0.415363 0.994987
O O8 0.500000 0.953549 0.750000
O O9 0.500000 0.000000 0.500000
O O10 0.307295 0.303073 0.750000
O O11 0.372881 0.331149 0.517639
O O12 0.072608 0.134597 0.250000
O O13 0.079156 0.088212 0.499892
O O14 0.000000 0.155319 0.473743
O O15 0.387944 0.453469 0.250000
O O16 0.306190 0.442899 0.035071
O O17 0.397440 0.500000 0.000000
O O18 0.276045 0.048208 0.750000
O O19 0.284089 0.000000 0.500000
#
# Coordination Sequence:
#
# PCOD9472397 Si02
#       7
#    16  16   8  16  16  16  16
#     4  10  20  35  58  88 114 141 182 231 281 334
#     4  11  22  37  56  80 111 149 188 232 283 337
#     4  10  24  42  58  78 110 152 196 238 285 344
#     4   9  19  37  59  84 113 147 183 225 279 335
#     4  10  21  37  56  78 107 144 183 222 266 319
#     4  10  21  36  55  80 110 142 179 224 269 320
#     4  10  20  34  54  82 111 140 179 228 278 330
#
# _framework density 18.815462
#
# number of rings (size 3 to 8) (size 9 to 14) (size 15 to 20)
#    0.000    2.000    0.000    3.231    0.000    8.615 
#    1.385    0.000    0.000    0.000    0.000    0.000 
#    0.000    0.000    0.000    0.000    0.000    0.000 
#
# Total GULP energy -290434.368174 kJ/mol
# GULP energy per Si atom -5585.276311 kJ/mol
# Density = 1.877264 g / cm^3
# Si number density = 18.815462 Si / 1000 Ang^3
#
#
#
# Elastic Constant Matrix: (Units=GPa)
#
#
# Indices 1 2 3 4 5 6 
#
# 1 73.4715 66.4841 29.1318 0.0000 0.0000 0.0000
# 2 66.4841 105.7454 28.7859 0.0000 0.0000 0.0000
# 3 29.1318 28.7859 28.9491 0.0000 0.0000 0.0000
# 4 0.0000 0.0000 0.0000 33.8533 0.0000 0.0000
# 5 0.0000 0.0000 0.0000 0.0000 20.1497 0.0000
# 6 0.0000 0.0000 0.0000 0.0000 0.0000 18.1543
#
#
#
# Elastic Compliance Matrix: (Units=1/GPa)
#
#
# Indices 1 2 3 4 5 6 
#
# 1 0.038602 -0.018778 -0.020173 0.000000 0.000000 0.000000
# 2 -0.018778 0.022101 -0.003080 0.000000 0.000000 0.000000
# 3 -0.020173 -0.003080 0.057906 0.000000 0.000000 0.000000
# 4 0.000000 0.000000 0.000000 0.029539 0.000000 0.000000
# 5 0.000000 0.000000 0.000000 0.000000 0.049629 0.000000
# 6 0.000000 0.000000 0.000000 0.000000 0.000000 0.055083
#
#
# Mechanical properties :
#
#
# Convention : Reuss Voigt Hill
#
# Bulk Modulus (GPa) = 28.94614 50.77443 39.86028
# Shear Modulus (GPa) = 14.34974 20.01573 17.18274
#
# Velocity S-wave (km/s) = 2.76462 3.26512 3.02524
# Velocity P-wave (km/s) = 5.06048 6.42330 5.78218
#
# Compressibility (1/GPa) = 0.03454692
#
# Stress axis : x y z
#
# Youngs Moduli (GPa) = 25.90564 45.24627 17.26926
#
# Poissons Ratio (x) = 0.84964 0.34837
# Poissons Ratio (y) = 0.48646 0.05319
# Poissons Ratio (z) = 0.52259 0.13936
#
# Static dielectric constant tensor:
#      x y z
#    x 1.646340 0.000000 0.000000 
#    y 0.000000 1.651650 0.000000 
#    z 0.000000 0.000000 1.626990 
# 
# From -- ./inp_files/8770.got.cif
#   From: 2010.05.17/outbox.cif.g08.bks.cpg/sg63_5_cif.got.tgz:8770.got - 2010.06.03 15:47:04.
