data_PCOD9472368
_publ_section_title
;
Structure prediction by ZEFSAII (Michael W. Deem and Ramdas Pophale) SiO2 
 PCOD9472368
Probable space group: C M C M
;
_chemical_formula_sum "Si O2"
_cell_formula_units_Z 80
_cell_length_a 9.226577
_cell_length_b 28.324185
_cell_length_c 16.452360
_cell_angle_alpha 90.000000
_cell_angle_beta 90.000000
_cell_angle_gamma 90.000000
_cell_volume 4299.582006
_symmetry_space_group_name_H-M "C M C M"
_symmetry_group_IT_number 63
_symmetry_cell_setting 'orthorhombic'
loop_
_space_group_symop_operation_xyz
x,y,z
-x,-y,1/2+z
x,-y,-z
-x,y,1/2-z
-x,-y,-z
x,y,1/2-z
-x,y,z
x,-y,1/2+z
1/2+x,1/2+y,z
1/2-x,1/2-y,1/2+z
1/2+x,1/2-y,-z
1/2-x,1/2+y,1/2-z
1/2-x,1/2-y,-z
1/2+x,1/2+y,1/2-z
1/2-x,1/2+y,z
1/2+x,1/2-y,1/2+z
loop_
_atom_site_type_symbol
_atom_site_label
_atom_site_fract_x
_atom_site_fract_y
_atom_site_fract_z
Si Si1 0.670679 0.107882 0.750000
Si Si2 0.672371 0.769817 0.918728
Si Si3 0.667160 0.638504 0.440489
Si Si4 0.175364 0.538002 0.428221
Si Si5 0.823993 0.498367 0.250000
Si Si6 0.337709 0.669124 0.871360
O O1 0.500000 0.104109 0.750000
O O2 0.723625 0.137035 0.826784
O O3 0.731250 0.055188 0.750000
O O4 0.500000 0.776331 0.933078
O O5 0.746328 0.819237 0.895463
O O6 0.688846 0.724922 0.859565
O O7 0.750000 0.750000 0.000000
O O8 0.500000 0.634685 0.412898
O O9 0.747658 0.588406 0.439378
O O10 0.664826 0.656038 0.533841
O O11 0.212856 0.500000 0.500000
O O12 0.216495 0.520870 0.336973
O O13 0.000000 0.543431 0.431461
O O14 0.000000 0.498486 0.250000
O O15 0.500000 0.658569 0.842198
#
# Coordination Sequence:
#
# PCOD9472368 Si02
#       6
#     8  16  16  16   8  16
#     4  11  21  33  54  79 104 137 178 225 268 317
#     4   9  17  31  52  77 105 138 175 217 267 323
#     4  10  20  34  54  80 108 140 180 224 271 325
#     4  10  20  36  58  80 107 146 188 230 277 330
#     4   9  20  37  54  79 110 139 180 229 278 329
#     4   9  19  34  51  75 108 141 172 213 268 326
#
# _framework density 18.606460999999999
#
# number of rings (size 3 to 8) (size 9 to 14) (size 15 to 20)
#    0.000    2.400    0.000    3.900    0.000    6.800 
#    0.000    3.500    0.000    2.400    0.000    0.000 
#    0.000    0.000    0.000    0.000    0.000    0.000 
#
# Total GULP energy -222809.495902 kJ/mol
# GULP energy per Si atom -5570.237398 kJ/mol
# Density = 1.856411 g / cm^3
# Si number density = 18.606461 Si / 1000 Ang^3
#
#
#
# Elastic Constant Matrix: (Units=GPa)
#
#
# Indices 1 2 3 4 5 6 
#
# 1 77.4713 77.9479 23.7976 0.0000 0.0000 0.0000
# 2 77.9479 186.1577 44.5172 0.0000 0.0000 0.0000
# 3 23.7976 44.5172 69.6717 0.0000 0.0000 0.0000
# 4 0.0000 0.0000 0.0000 -7.5697 0.0000 0.0000
# 5 0.0000 0.0000 0.0000 0.0000 17.5051 0.0000
# 6 0.0000 0.0000 0.0000 0.0000 0.0000 34.2294
#
#
#
# Elastic Compliance Matrix: (Units=1/GPa)
#
#
# Indices 1 2 3 4 5 6 
#
# 1 0.022532 -0.008964 -0.001969 0.000000 0.000000 0.000000
# 2 -0.008964 0.009907 -0.003268 0.000000 0.000000 0.000000
# 3 -0.001969 -0.003268 0.017114 0.000000 0.000000 0.000000
# 4 0.000000 0.000000 0.000000 -0.132105 0.000000 0.000000
# 5 0.000000 0.000000 0.000000 0.000000 0.057126 0.000000
# 6 0.000000 0.000000 0.000000 0.000000 0.000000 0.029215
#
#
# Mechanical properties :
#
#
# Convention : Reuss Voigt Hill
#
# Bulk Modulus (GPa) = 47.27951 69.53624 58.40787
# Shear Modulus (GPa) = 127.42517 21.30214 74.36366
#
# Velocity S-wave (km/s) = 8.28451 3.38728 6.32877
# Velocity P-wave (km/s) = 10.81555 7.26302 9.21215
#
# Compressibility (1/GPa) = 0.02115081
#
# Stress axis : x y z
#
# Youngs Moduli (GPa) = 44.38231 100.94313 58.43272
#
# Poissons Ratio (x) = 0.90481 0.11504
# Poissons Ratio (y) = 0.39783 0.19097
# Poissons Ratio (z) = 0.08738 0.32990
#
# Static dielectric constant tensor:
#      x y z
#    x 1.577110 0.000000 0.000000 
#    y 0.000000 1.644210 0.000000 
#    z 0.000000 0.000000 1.685370 
# 
# From -- ./inp_files/40588.got.cif
#   From: 2010.05.17/outbox.cif.g08.bks.cpg/sg63_21_cif.got.tgz:40588.got - 2010.06.03 15:47:04.
