data_PCOD9472520
_publ_section_title
;
Structure prediction by ZEFSAII (Michael W. Deem and Ramdas Pophale) SiO2 
 PCOD9472520
Probable space group: C M C M
;
_chemical_formula_sum "Si O2"
_cell_formula_units_Z 112
_cell_length_a 13.990654
_cell_length_b 22.577164
_cell_length_c 15.337278
_cell_angle_alpha 90.000000
_cell_angle_beta 90.000000
_cell_angle_gamma 90.000000
_cell_volume 4844.575110
_symmetry_space_group_name_H-M "C M C M"
_symmetry_group_IT_number 63
_symmetry_cell_setting 'orthorhombic'
loop_
_space_group_symop_operation_xyz
x,y,z
-x,-y,1/2+z
x,-y,-z
-x,y,1/2-z
-x,-y,-z
x,y,1/2-z
-x,y,z
x,-y,1/2+z
1/2+x,1/2+y,z
1/2-x,1/2-y,1/2+z
1/2+x,1/2-y,-z
1/2-x,1/2+y,1/2-z
1/2-x,1/2-y,-z
1/2+x,1/2+y,1/2-z
1/2-x,1/2+y,z
1/2+x,1/2-y,1/2+z
loop_
_atom_site_type_symbol
_atom_site_label
_atom_site_fract_x
_atom_site_fract_y
_atom_site_fract_z
Si Si1 0.892663 0.149493 0.580995
Si Si2 0.107814 0.984568 0.353967
Si Si3 0.316898 0.192247 0.545097
Si Si4 0.390072 0.090003 0.842166
Si Si5 0.189275 0.653734 0.152907
Si Si6 0.895186 0.817483 0.611893
Si Si7 0.801514 0.476612 0.905678
O O1 0.878857 0.085437 0.624602
O O2 0.791780 0.185727 0.584804
O O3 0.899885 0.145042 0.477043
O O4 0.000000 0.172224 0.609684
O O5 0.117219 0.993036 0.250000
O O6 0.000000 0.000391 0.379554
O O7 0.186798 0.022580 0.403198
O O8 0.365802 0.133412 0.580339
O O9 0.325954 0.188935 0.439305
O O10 0.369184 0.250133 0.581864
O O11 0.372748 0.122159 0.750000
O O12 0.500000 0.072960 0.846977
O O13 0.330411 0.030542 0.844480
O O14 0.149810 0.670140 0.250000
O O15 0.303856 0.658691 0.161327
O O16 0.162451 0.586215 0.128145
O O17 0.000000 0.818471 0.652369
O O18 0.834943 0.500000 0.000000
#
# Coordination Sequence:
#
# PCOD9472520 Si02
#       7
#    16  16  16  16  16  16  16
#     4   9  17  32  56  86 121 163 211 263 323 383
#     4  10  20  34  56  88 124 165 215 267 318 380
#     4  11  21  42  65  92 131 177 223 272 334 389
#     4  11  24  42  67  98 128 165 219 278 330 385
#     4  11  23  39  63  95 134 176 219 270 332 397
#     4  10  22  41  64  91 126 171 223 275 327 391
#     4  12  22  41  64  92 132 177 217 266 332 395
#
# _framework density 23.118644
#
# number of rings (size 3 to 8) (size 9 to 14) (size 15 to 20)
#    0.000    1.429    2.857    4.286    0.000    2.000 
#    0.000    2.143    0.000    4.286    0.000    0.000 
#    0.000    0.000    0.000    0.000    0.000    0.000 
#
# Total GULP energy -312271.142644 kJ/mol
# GULP energy per Si atom -5576.270404 kJ/mol
# Density = 2.306602 g / cm^3
# Si number density = 23.118644 Si / 1000 Ang^3
#
#
#
# Elastic Constant Matrix: (Units=GPa)
#
#
# Indices 1 2 3 4 5 6 
#
# 1 51.3129 1.4341 14.8773 0.0000 0.0000 0.0000
# 2 1.4341 74.3025 -1.3427 0.0000 0.0000 0.0000
# 3 14.8773 -1.3427 60.4187 0.0000 0.0000 0.0000
# 4 0.0000 0.0000 0.0000 -52.6098 0.0000 0.0000
# 5 0.0000 0.0000 0.0000 0.0000 25.6012 0.0000
# 6 0.0000 0.0000 0.0000 0.0000 0.0000 14.9851
#
#
#
# Elastic Compliance Matrix: (Units=1/GPa)
#
#
# Indices 1 2 3 4 5 6 
#
# 1 0.021005 -0.000499 -0.005183 0.000000 0.000000 0.000000
# 2 -0.000499 0.013476 0.000422 0.000000 0.000000 0.000000
# 3 -0.005183 0.000422 0.017837 0.000000 0.000000 0.000000
# 4 0.000000 0.000000 0.000000 -0.019008 0.000000 0.000000
# 5 0.000000 0.000000 0.000000 0.000000 0.039061 0.000000
# 6 0.000000 0.000000 0.000000 0.000000 0.000000 0.066733
#
#
# Mechanical properties :
#
#
# Convention : Reuss Voigt Hill
#
# Bulk Modulus (GPa) = 23.92479 23.99683 23.96081
# Shear Modulus (GPa) = 30.57060 8.99966 19.78513
#
# Velocity S-wave (km/s) = 3.64034 1.97516 2.92859
# Velocity P-wave (km/s) = 5.29534 3.95020 4.67144
#
# Compressibility (1/GPa) = 0.04179765
#
# Stress axis : x y z
#
# Youngs Moduli (GPa) = 47.60766 74.20730 56.06368
#
# Poissons Ratio (x) = 0.03704 0.29059
# Poissons Ratio (y) = 0.02376 -0.02368
# Poissons Ratio (z) = 0.24676 -0.03134
#
# Static dielectric constant tensor:
#      x y z
#    x 1.925080 0.000000 0.000000 
#    y 0.000000 1.837170 0.000000 
#    z 0.000000 0.000000 1.805970 
# 
# From -- ./inp_files/32259.got.cif
#   From: 2010.05.17/outbox.cif.g08.bks.cpg/sg63_17_cif.got.tgz:32259.got - 2010.06.03 15:47:04.
