data_PCOD9472016
_publ_section_title
;
Structure prediction by ZEFSAII (Michael W. Deem and Ramdas Pophale) SiO2 
 PCOD9472016
Probable space group: C M C M
;
_chemical_formula_sum "Si O2"
_cell_formula_units_Z 64
_cell_length_a 7.588136
_cell_length_b 42.780449
_cell_length_c 9.489906
_cell_angle_alpha 90.000000
_cell_angle_beta 90.000000
_cell_angle_gamma 90.000000
_cell_volume 3080.649966
_symmetry_space_group_name_H-M "C M C M"
_symmetry_group_IT_number 63
_symmetry_cell_setting 'orthorhombic'
loop_
_space_group_symop_operation_xyz
x,y,z
-x,-y,1/2+z
x,-y,-z
-x,y,1/2-z
-x,-y,-z
x,y,1/2-z
-x,y,z
x,-y,1/2+z
1/2+x,1/2+y,z
1/2-x,1/2-y,1/2+z
1/2+x,1/2-y,-z
1/2-x,1/2+y,1/2-z
1/2-x,1/2-y,-z
1/2+x,1/2+y,1/2-z
1/2-x,1/2+y,z
1/2+x,1/2-y,1/2+z
loop_
_atom_site_type_symbol
_atom_site_label
_atom_site_fract_x
_atom_site_fract_y
_atom_site_fract_z
Si Si1 0.787876 0.908787 0.410310
Si Si2 0.211334 0.470503 0.910557
Si Si3 0.288928 0.280261 0.909059
Si Si4 0.784947 0.849363 0.914160
O O1 0.722199 0.912060 0.250000
O O2 0.746769 0.938772 0.505182
O O3 0.722448 0.877405 0.487406
O O4 0.000000 0.906504 0.403314
O O5 0.279335 0.469618 0.750000
O O6 0.000000 0.473915 0.901634
O O7 0.279689 0.500000 0.000000
O O8 0.221652 0.275997 0.750000
O O9 0.500000 0.282542 0.901974
O O10 0.227790 0.314507 0.960065
O O11 0.250000 0.250000 0.000000
O O12 0.734246 0.853782 0.750000
O O13 0.000000 0.850043 0.916653
#
# Coordination Sequence:
#
# PCOD9472016 Si02
#       4
#    16  16  16  16
#     4  10  20  33  52  79 105 129 163 206 249 294
#     4  10  21  37  56  76 100 133 169 203 244 294
#     4   9  18  32  50  73 100 130 166 206 248 296
#     4   8  15  30  50  70  96 131 167 204 247 293
#
# _framework density 20.774837999999999
#
# number of rings (size 3 to 8) (size 9 to 14) (size 15 to 20)
#    0.000    2.750    0.000    3.000    0.000    5.000 
#    0.000    3.750    0.000    1.500    0.000    0.000 
#    0.000    0.000    0.000    0.000    0.000    0.000 
#
# Total GULP energy -178585.689633 kJ/mol
# GULP energy per Si atom -5580.802801 kJ/mol
# Density = 2.072755 g / cm^3
# Si number density = 20.774838 Si / 1000 Ang^3
#
#
#
# Elastic Constant Matrix: (Units=GPa)
#
#
# Indices 1 2 3 4 5 6 
#
# 1 43.7441 1.9157 6.9312 0.0000 0.0000 0.0000
# 2 1.9157 243.0848 147.2120 0.0000 0.0000 0.0000
# 3 6.9312 147.2120 181.8049 0.0000 0.0000 0.0000
# 4 0.0000 0.0000 0.0000 45.0766 0.0000 0.0000
# 5 0.0000 0.0000 0.0000 0.0000 16.6317 0.0000
# 6 0.0000 0.0000 0.0000 0.0000 0.0000 23.0738
#
#
#
# Elastic Compliance Matrix: (Units=1/GPa)
#
#
# Indices 1 2 3 4 5 6 
#
# 1 0.023058 0.000688 -0.001436 0.000000 0.000000 0.000000
# 2 0.000688 0.008093 -0.006579 0.000000 0.000000 0.000000
# 3 -0.001436 -0.006579 0.010882 0.000000 0.000000 0.000000
# 4 0.000000 0.000000 0.000000 0.022184 0.000000 0.000000
# 5 0.000000 0.000000 0.000000 0.000000 0.060126 0.000000
# 6 0.000000 0.000000 0.000000 0.000000 0.000000 0.043339
#
#
# Mechanical properties :
#
#
# Convention : Reuss Voigt Hill
#
# Bulk Modulus (GPa) = 36.52526 86.75017 61.63772
# Shear Modulus (GPa) = 26.11474 37.79476 31.95475
#
# Velocity S-wave (km/s) = 3.54932 4.26990 3.92618
# Velocity P-wave (km/s) = 5.86656 8.13372 7.09133
#
# Compressibility (1/GPa) = 0.02737831
#
# Stress axis : x y z
#
# Youngs Moduli (GPa) = 43.36951 123.56935 91.89185
#
# Poissons Ratio (x) = -0.08502 0.13197
# Poissons Ratio (y) = -0.02984 0.60456
# Poissons Ratio (z) = 0.06229 0.81297
#
# Static dielectric constant tensor:
#      x y z
#    x 1.806590 0.000000 0.000000 
#    y 0.000000 1.723140 0.000000 
#    z 0.000000 0.000000 1.728580 
# 
# From -- ./inp_files/3099.got.cif
#   From: 2010.05.17/outbox.cif.g08.bks.cpg/sg63_2_cif.got.tgz:3099.got - 2010.06.03 15:47:04.
