data_PCOD9472591
_publ_section_title
;
Structure prediction by ZEFSAII (Michael W. Deem and Ramdas Pophale) SiO2 
 PCOD9472591
Probable space group: C M C M
;
_chemical_formula_sum "Si O2"
_cell_formula_units_Z 112
_cell_length_a 15.541211
_cell_length_b 23.902786
_cell_length_c 15.491471
_cell_angle_alpha 90.000000
_cell_angle_beta 90.000000
_cell_angle_gamma 90.000000
_cell_volume 5754.744393
_symmetry_space_group_name_H-M "C M C M"
_symmetry_group_IT_number 63
_symmetry_cell_setting 'orthorhombic'
loop_
_space_group_symop_operation_xyz
x,y,z
-x,-y,1/2+z
x,-y,-z
-x,y,1/2-z
-x,-y,-z
x,y,1/2-z
-x,y,z
x,-y,1/2+z
1/2+x,1/2+y,z
1/2-x,1/2-y,1/2+z
1/2+x,1/2-y,-z
1/2-x,1/2+y,1/2-z
1/2-x,1/2-y,-z
1/2+x,1/2+y,1/2-z
1/2-x,1/2+y,z
1/2+x,1/2-y,1/2+z
loop_
_atom_site_type_symbol
_atom_site_label
_atom_site_fract_x
_atom_site_fract_y
_atom_site_fract_z
Si Si1 0.786891 0.401674 0.515039
Si Si2 0.908024 0.185422 0.345424
Si Si3 0.403497 0.396975 0.006855
Si Si4 0.400299 0.100351 0.848284
Si Si5 0.900516 0.534853 0.347553
Si Si6 0.597910 0.303312 0.345731
Si Si7 0.237083 0.720288 0.090916
O O1 0.690541 0.425642 0.496541
O O2 0.835400 0.385416 0.425873
O O3 0.842628 0.442653 0.574842
O O4 0.779572 0.344606 0.570746
O O5 0.903025 0.160375 0.250000
O O6 0.907168 0.137933 0.417913
O O7 0.826866 0.224402 0.359227
O O8 0.000000 0.215507 0.353579
O O9 0.500000 0.423459 0.017589
O O10 0.393008 0.351274 0.082884
O O11 0.377240 0.118637 0.750000
O O12 0.500000 0.117424 0.865127
O O13 0.399555 0.032484 0.847711
O O14 0.873632 0.552827 0.250000
O O15 0.000000 0.552527 0.360289
O O16 0.611424 0.326926 0.250000
O O17 0.500000 0.282710 0.352046
O O18 0.661570 0.252411 0.361724
O O19 0.250000 0.750000 0.000000
#
# Coordination Sequence:
#
# PCOD9472591 Si02
#       7
#    16  16  16  16  16  16  16
#     4  11  20  31  57  82 105 141 185 222 268 322
#     4   9  17  31  51  68  89 129 175 217 262 310
#     4   9  19  35  51  72 102 135 182 228 262 308
#     4   9  19  37  58  83 115 145 173 213 270 338
#     4   9  19  36  58  85 116 143 172 215 271 338
#     4  10  20  35  53  68  94 141 185 222 268 315
#     4  11  21  35  48  74 108 143 175 226 270 309
#
# _framework density 19.462202999999999
#
# number of rings (size 3 to 8) (size 9 to 14) (size 15 to 20)
#    0.000    2.286    2.857    2.143    0.000    5.714 
#    0.000    1.429    0.000    3.429    0.000    2.000 
#    0.000    0.000    0.000    0.000    0.000    0.000 
#
# Total GULP energy -311987.852476 kJ/mol
# GULP energy per Si atom -5571.211651 kJ/mol
# Density = 1.941791 g / cm^3
# Si number density = 19.462203 Si / 1000 Ang^3
#
#
#
# Elastic Constant Matrix: (Units=GPa)
#
#
# Indices 1 2 3 4 5 6 
#
# 1 139.8748 9.2306 64.0565 0.0000 0.0000 0.0000
# 2 9.2306 15.7525 2.5794 0.0000 0.0000 0.0000
# 3 64.0565 2.5794 125.0450 0.0000 0.0000 0.0000
# 4 0.0000 0.0000 0.0000 75.5017 0.0000 0.0000
# 5 0.0000 0.0000 0.0000 0.0000 42.5391 0.0000
# 6 0.0000 0.0000 0.0000 0.0000 0.0000 -17.4475
#
#
#
# Elastic Compliance Matrix: (Units=1/GPa)
#
#
# Indices 1 2 3 4 5 6 
#
# 1 0.009702 -0.004888 -0.004869 0.000000 0.000000 0.000000
# 2 -0.004888 0.066160 0.001139 0.000000 0.000000 0.000000
# 3 -0.004869 0.001139 0.010468 0.000000 0.000000 0.000000
# 4 0.000000 0.000000 0.000000 0.013245 0.000000 0.000000
# 5 0.000000 0.000000 0.000000 0.000000 0.023508 0.000000
# 6 0.000000 0.000000 0.000000 0.000000 0.000000 -0.057315
#
#
# Mechanical properties :
#
#
# Convention : Reuss Voigt Hill
#
# Bulk Modulus (GPa) = 14.47307 48.04504 31.25905
# Shear Modulus (GPa) = 47.15510 33.77237 40.46373
#
# Velocity S-wave (km/s) = 4.92764 4.17019 4.56465
# Velocity P-wave (km/s) = 6.31096 6.92295 6.62403
#
# Compressibility (1/GPa) = 0.06909384
#
# Stress axis : x y z
#
# Youngs Moduli (GPa) = 103.07608 15.11498 95.53066
#
# Poissons Ratio (x) = 0.07388 0.46514
# Poissons Ratio (y) = 0.50380 -0.10882
# Poissons Ratio (z) = 0.50188 -0.01722
#
# Static dielectric constant tensor:
#      x y z
#    x 1.692610 0.000000 0.000000 
#    y 0.000000 1.669780 0.000000 
#    z 0.000000 0.000000 1.692750 
# 
# From -- ./inp_files/32298.got.cif
#   From: 2010.05.17/outbox.cif.g08.bks.cpg/sg63_17_cif.got.tgz:32298.got - 2010.06.03 15:47:04.
