data_PCOD9472100
_publ_section_title
;
Structure prediction by ZEFSAII (Michael W. Deem and Ramdas Pophale) SiO2 
 PCOD9472100
Probable space group: C M C M
;
_chemical_formula_sum "Si O2"
_cell_formula_units_Z 96
_cell_length_a 31.264043
_cell_length_b 9.881120
_cell_length_c 14.162972
_cell_angle_alpha 90.000000
_cell_angle_beta 90.000000
_cell_angle_gamma 90.000000
_cell_volume 4375.278571
_symmetry_space_group_name_H-M "C M C M"
_symmetry_group_IT_number 63
_symmetry_cell_setting 'orthorhombic'
loop_
_space_group_symop_operation_xyz
x,y,z
-x,-y,1/2+z
x,-y,-z
-x,y,1/2-z
-x,-y,-z
x,y,1/2-z
-x,y,z
x,-y,1/2+z
1/2+x,1/2+y,z
1/2-x,1/2-y,1/2+z
1/2+x,1/2-y,-z
1/2-x,1/2+y,1/2-z
1/2-x,1/2-y,-z
1/2+x,1/2+y,1/2-z
1/2-x,1/2+y,z
1/2+x,1/2-y,1/2+z
loop_
_atom_site_type_symbol
_atom_site_label
_atom_site_fract_x
_atom_site_fract_y
_atom_site_fract_z
Si Si1 0.358754 0.043300 0.356584
Si Si2 0.367718 0.745245 0.364193
Si Si3 0.953484 0.594196 0.093433
Si Si4 0.452000 0.347068 0.532641
Si Si5 0.211162 0.938367 0.865323
Si Si6 0.710043 0.252339 0.134874
O O1 0.341797 0.028406 0.250000
O O2 0.409489 0.067222 0.354263
O O3 0.332942 0.172233 0.394166
O O4 0.353928 0.894423 0.400412
O O5 0.369036 0.751076 0.250000
O O6 0.414323 0.705722 0.401209
O O7 0.332949 0.634068 0.392374
O O8 0.000000 0.568714 0.138683
O O9 0.952247 0.500000 0.000000
O O10 0.952139 0.747858 0.057242
O O11 0.444705 0.500000 0.500000
O O12 0.500000 0.337409 0.574964
O O13 0.212056 0.941048 0.750000
O O14 0.250590 0.843112 0.893596
O O15 0.213597 0.093202 0.898819
O O16 0.710595 0.262304 0.250000
#
# Coordination Sequence:
#
# PCOD9472100 Si02
#       6
#    16  16  16  16  16  16
#     4  10  20  33  54  84 112 140 180 229 272 312
#     4  10  20  34  55  83 111 140 180 228 272 315
#     4  10  20  37  57  77 106 145 184 219 266 325
#     4  10  22  39  57  78 107 147 186 220 268 330
#     4   9  17  30  50  76 108 143 178 219 267 321
#     4   9  17  30  50  77 109 143 178 217 266 321
#
# _framework density 21.941459999999999
#
# number of rings (size 3 to 8) (size 9 to 14) (size 15 to 20)
#    0.000    2.333    1.667    1.000    2.333    4.667 
#    0.000    1.667    0.000    5.000    0.000    0.000 
#    0.000    0.000    0.000    0.000    0.000    0.000 
#
# Total GULP energy -268072.463891 kJ/mol
# GULP energy per Si atom -5584.842998 kJ/mol
# Density = 2.189152 g / cm^3
# Si number density = 21.941460 Si / 1000 Ang^3
#
#
#
# Elastic Constant Matrix: (Units=GPa)
#
#
# Indices 1 2 3 4 5 6 
#
# 1 136.4203 74.8013 9.5452 0.0000 0.0000 0.0000
# 2 74.8013 218.4418 18.0861 0.0000 0.0000 0.0000
# 3 9.5452 18.0861 41.2020 0.0000 0.0000 0.0000
# 4 0.0000 0.0000 0.0000 13.0378 0.0000 0.0000
# 5 0.0000 0.0000 0.0000 0.0000 54.6525 0.0000
# 6 0.0000 0.0000 0.0000 0.0000 0.0000 46.3684
#
#
#
# Elastic Compliance Matrix: (Units=1/GPa)
#
#
# Indices 1 2 3 4 5 6 
#
# 1 0.009048 -0.003035 -0.000764 0.000000 0.000000 0.000000
# 2 -0.003035 0.005769 -0.001829 0.000000 0.000000 0.000000
# 3 -0.000764 -0.001829 0.025251 0.000000 0.000000 0.000000
# 4 0.000000 0.000000 0.000000 0.076700 0.000000 0.000000
# 5 0.000000 0.000000 0.000000 0.000000 0.018297 0.000000
# 6 0.000000 0.000000 0.000000 0.000000 0.000000 0.021566
#
#
# Mechanical properties :
#
#
# Convention : Reuss Voigt Hill
#
# Bulk Modulus (GPa) = 34.70881 66.76992 50.73936
# Shear Modulus (GPa) = 28.17053 42.38719 35.27886
#
# Velocity S-wave (km/s) = 3.58704 4.40003 4.01417
# Velocity P-wave (km/s) = 5.74534 7.50404 6.68280
#
# Compressibility (1/GPa) = 0.02881113
#
# Stress axis : x y z
#
# Youngs Moduli (GPa) = 110.52307 173.35193 39.60309
#
# Poissons Ratio (x) = 0.52613 0.03025
# Poissons Ratio (y) = 0.33544 0.07244
# Poissons Ratio (z) = 0.08442 0.31708
#
# Static dielectric constant tensor:
#      x y z
#    x 1.789370 0.000000 0.000000 
#    y 0.000000 1.790020 0.000000 
#    z 0.000000 0.000000 1.877230 
# 
# From -- ./inp_files/58100.got.cif
#   From: 2010.05.17/outbox.cif.g08.bks.cpg/sg63_30_cif.got.tgz:58100.got - 2010.06.03 15:47:04.
