data_PCOD9472144
_publ_section_title
;
Structure prediction by ZEFSAII (Michael W. Deem and Ramdas Pophale) SiO2 
 PCOD9472144
Probable space group: C M C M
;
_chemical_formula_sum "Si O2"
_cell_formula_units_Z 116
_cell_length_a 7.613978
_cell_length_b 28.506212
_cell_length_c 26.627098
_cell_angle_alpha 90.000000
_cell_angle_beta 90.000000
_cell_angle_gamma 90.000000
_cell_volume 5779.296353
_symmetry_space_group_name_H-M "C M C M"
_symmetry_group_IT_number 63
_symmetry_cell_setting 'orthorhombic'
loop_
_space_group_symop_operation_xyz
x,y,z
-x,-y,1/2+z
x,-y,-z
-x,y,1/2-z
-x,-y,-z
x,y,1/2-z
-x,y,z
x,-y,1/2+z
1/2+x,1/2+y,z
1/2-x,1/2-y,1/2+z
1/2+x,1/2-y,-z
1/2-x,1/2+y,1/2-z
1/2-x,1/2-y,-z
1/2+x,1/2+y,1/2-z
1/2-x,1/2+y,z
1/2+x,1/2-y,1/2+z
loop_
_atom_site_type_symbol
_atom_site_label
_atom_site_fract_x
_atom_site_fract_y
_atom_site_fract_z
Si Si1 0.711668 0.349022 0.543741
Si Si2 0.797178 0.709343 0.305587
Si Si3 0.789544 0.486877 0.692900
Si Si4 0.705112 0.252354 0.913272
Si Si5 0.207914 0.350730 0.068191
Si Si6 0.705856 0.613352 0.351286
Si Si7 0.500000 0.616494 0.750000
Si Si8 0.714996 0.908394 0.334971
O O1 0.500000 0.347951 0.544744
O O2 0.779681 0.296272 0.555457
O O3 0.762932 0.365826 0.488918
O O4 0.770097 0.379474 0.591634
O O5 0.722046 0.718872 0.250000
O O6 0.715766 0.734230 0.354278
O O7 0.790257 0.653493 0.316611
O O8 0.000000 0.724018 0.304932
O O9 0.721226 0.489542 0.750000
O O10 0.728457 0.439202 0.667356
O O11 0.746809 0.535863 0.666539
O O12 0.000000 0.484100 0.695087
O O13 0.500000 0.250427 0.926808
O O14 0.784635 0.201623 0.924240
O O15 0.263540 0.386070 0.111537
O O16 0.000000 0.346427 0.075719
O O17 0.500000 0.625109 0.350344
O O18 0.657536 0.614122 0.793529
O O19 0.500000 0.902853 0.325685
#
# Coordination Sequence:
#
# PCOD9472144 Si02
#       8
#    16  16  16  16  16  16   4  16
#     4   9  19  35  55  82 114 142 185 242 282 338
#     4  10  20  34  49  75 112 146 180 230 284 336
#     4  10  20  36  57  82 115 149 185 239 284 330
#     4   9  19  36  56  80 108 145 190 232 286 343
#     4  10  21  38  59  82 111 149 188 237 290 339
#     4  10  21  34  54  82 111 144 189 232 279 346
#     4  12  22  40  68  86 114 172 186 236 310 330
#     4  10  23  41  60  91 123 148 200 247 279 347
#
# _framework density 20.071648
#
# number of rings (size 3 to 8) (size 9 to 14) (size 15 to 20)
#    0.000    2.207    0.690    2.690    1.931    6.345 
#    1.241    0.690    0.000    4.138    0.000    0.000 
#    0.000    0.000    0.000    0.000    0.000    0.000 
#
# Total GULP energy -323017.307516 kJ/mol
# GULP energy per Si atom -5569.263923 kJ/mol
# Density = 2.002596 g / cm^3
# Si number density = 20.071648 Si / 1000 Ang^3
#
#
#
# Elastic Constant Matrix: (Units=GPa)
#
#
# Indices 1 2 3 4 5 6 
#
# 1 48.3536 0.3398 -11.2308 0.0000 0.0000 0.0000
# 2 0.3398 58.4305 33.0698 0.0000 0.0000 0.0000
# 3 -11.2308 33.0698 84.1399 0.0000 0.0000 0.0000
# 4 0.0000 0.0000 0.0000 3.9555 0.0000 0.0000
# 5 0.0000 0.0000 0.0000 0.0000 17.1209 0.0000
# 6 0.0000 0.0000 0.0000 0.0000 0.0000 13.3995
#
#
#
# Elastic Compliance Matrix: (Units=1/GPa)
#
#
# Indices 1 2 3 4 5 6 
#
# 1 0.021572 -0.002257 0.003767 0.000000 0.000000 0.000000
# 2 -0.002257 0.022247 -0.009045 0.000000 0.000000 0.000000
# 3 0.003767 -0.009045 0.015943 0.000000 0.000000 0.000000
# 4 0.000000 0.000000 0.000000 0.252814 0.000000 0.000000
# 5 0.000000 0.000000 0.000000 0.000000 0.058408 0.000000
# 6 0.000000 0.000000 0.000000 0.000000 0.000000 0.074630
#
#
# Mechanical properties :
#
#
# Convention : Reuss Voigt Hill
#
# Bulk Modulus (GPa) = 22.37652 26.14240 24.25946
# Shear Modulus (GPa) = 10.51345 18.14484 14.32914
#
# Velocity S-wave (km/s) = 2.29114 3.00993 2.67479
# Velocity P-wave (km/s) = 4.26282 5.01322 4.65317
#
# Compressibility (1/GPa) = 0.04468970
#
# Stress axis : x y z
#
# Youngs Moduli (GPa) = 46.35709 44.95055 62.72461
#
# Poissons Ratio (x) = 0.10146 -0.23625
# Poissons Ratio (y) = 0.10464 0.56734
# Poissons Ratio (z) = -0.17460 0.40658
#
# Static dielectric constant tensor:
#      x y z
#    x 1.770350 0.000000 0.000000 
#    y 0.000000 1.708170 0.000000 
#    z 0.000000 0.000000 1.710300 
# 
# From -- ./inp_files/60610.got.cif
#   From: 2010.05.17/outbox.cif.g08.bks.cpg/sg63_31_cif.got.tgz:60610.got - 2010.06.03 15:47:04.
