data_PCOD9472616
_publ_section_title
;
Structure prediction by ZEFSAII (Michael W. Deem and Ramdas Pophale) SiO2 
 PCOD9472616
Probable space group: C M C M
;
_chemical_formula_sum "Si O2"
_cell_formula_units_Z 88
_cell_length_a 31.733649
_cell_length_b 18.086758
_cell_length_c 8.603399
_cell_angle_alpha 90.000000
_cell_angle_beta 90.000000
_cell_angle_gamma 90.000000
_cell_volume 4937.996823
_symmetry_space_group_name_H-M "C M C M"
_symmetry_group_IT_number 63
_symmetry_cell_setting 'orthorhombic'
loop_
_space_group_symop_operation_xyz
x,y,z
-x,-y,1/2+z
x,-y,-z
-x,y,1/2-z
-x,-y,-z
x,y,1/2-z
-x,y,z
x,-y,1/2+z
1/2+x,1/2+y,z
1/2-x,1/2-y,1/2+z
1/2+x,1/2-y,-z
1/2-x,1/2+y,1/2-z
1/2-x,1/2-y,-z
1/2+x,1/2+y,1/2-z
1/2-x,1/2+y,z
1/2+x,1/2-y,1/2+z
loop_
_atom_site_type_symbol
_atom_site_label
_atom_site_fract_x
_atom_site_fract_y
_atom_site_fract_z
Si Si1 0.586871 0.363799 0.567427
Si Si2 0.880795 0.696824 0.566009
Si Si3 0.500000 0.582778 0.935316
Si Si4 0.452037 0.916685 0.061378
Si Si5 0.296005 0.732624 0.436775
Si Si6 0.329426 0.421488 0.433435
O O1 0.589441 0.383028 0.750000
O O2 0.598276 0.277566 0.551651
O O3 0.541226 0.378183 0.501023
O O4 0.621373 0.410927 0.475063
O O5 0.876383 0.680609 0.750000
O O6 0.913961 0.636206 0.504332
O O7 0.833112 0.711166 0.505457
O O8 0.500000 0.582314 0.750000
O O9 0.500000 0.500000 0.000000
O O10 0.451087 0.917093 0.250000
O O11 0.500000 0.892506 0.016711
O O12 0.446426 0.000000 0.000000
O O13 0.296291 0.735546 0.250000
O O14 0.250000 0.750000 0.500000
O O15 0.308069 0.649788 0.488478
O O16 0.314789 0.500000 0.500000
O O17 0.323037 0.419095 0.250000
#
# Coordination Sequence:
#
# PCOD9472616 Si02
#       6
#    16  16   8  16  16  16
#     4  10  20  35  54  76 102 138 181 223 265 316
#     4   8  17  33  55  78 102 137 179 220 263 324
#     4  12  24  36  48  70 103 140 177 218 263 310
#     4   9  17  31  52  77 106 140 178 218 266 320
#     4  10  20  37  58  82 110 142 184 229 281 334
#     4  11  21  36  57  81 109 141 178 222 272 327
#
# _framework density 17.820990999999999
#
# number of rings (size 3 to 8) (size 9 to 14) (size 15 to 20)
#    0.000    2.182    0.000    5.182    1.273    0.000 
#    0.000    6.364    0.000    2.182    0.000    0.000 
#    0.000    0.000    0.000    0.000    0.000    0.000 
#
# Total GULP energy -245376.321232 kJ/mol
# GULP energy per Si atom -5576.734573 kJ/mol
# Density = 1.778043 g / cm^3
# Si number density = 17.820991 Si / 1000 Ang^3
#
#
#
# Elastic Constant Matrix: (Units=GPa)
#
#
# Indices 1 2 3 4 5 6 
#
# 1 162.5151 62.4838 26.4079 0.0000 0.0000 0.0000
# 2 62.4838 72.4781 16.9719 0.0000 0.0000 0.0000
# 3 26.4079 16.9719 53.9873 0.0000 0.0000 0.0000
# 4 0.0000 0.0000 0.0000 27.6272 0.0000 0.0000
# 5 0.0000 0.0000 0.0000 0.0000 28.5315 0.0000
# 6 0.0000 0.0000 0.0000 0.0000 0.0000 17.0276
#
#
#
# Elastic Compliance Matrix: (Units=1/GPa)
#
#
# Indices 1 2 3 4 5 6 
#
# 1 0.009445 -0.007622 -0.002224 0.000000 0.000000 0.000000
# 2 -0.007622 0.021044 -0.002887 0.000000 0.000000 0.000000
# 3 -0.002224 -0.002887 0.020518 0.000000 0.000000 0.000000
# 4 0.000000 0.000000 0.000000 0.036196 0.000000 0.000000
# 5 0.000000 0.000000 0.000000 0.000000 0.035049 0.000000
# 6 0.000000 0.000000 0.000000 0.000000 0.000000 0.058728
#
#
# Mechanical properties :
#
#
# Convention : Reuss Voigt Hill
#
# Bulk Modulus (GPa) = 39.15237 55.63419 47.39328
# Shear Modulus (GPa) = 23.25995 26.84505 25.05250
#
# Velocity S-wave (km/s) = 3.61667 3.88541 3.75345
# Velocity P-wave (km/s) = 6.28156 7.17040 6.74065
#
# Compressibility (1/GPa) = 0.02554124
#
# Stress axis : x y z
#
# Youngs Moduli (GPa) = 105.87459 47.51881 48.73661
#
# Poissons Ratio (x) = 0.36218 0.10839
# Poissons Ratio (y) = 0.80697 0.14072
# Poissons Ratio (z) = 0.23546 0.13721
#
# Static dielectric constant tensor:
#      x y z
#    x 1.615390 0.000000 0.000000 
#    y 0.000000 1.574490 0.000000 
#    z 0.000000 0.000000 1.597230 
# 
# From -- ./inp_files/14189.got.cif
#   From: 2010.05.17/outbox.cif.g08.bks.cpg/sg63_8_cif.got.tgz:14189.got - 2010.06.03 15:47:04.
