data_PCOD9472207
_publ_section_title
;
Structure prediction by ZEFSAII (Michael W. Deem and Ramdas Pophale) SiO2 
 PCOD9472207
Probable space group: C M C M
;
_chemical_formula_sum "Si O2"
_cell_formula_units_Z 96
_cell_length_a 20.930911
_cell_length_b 28.713368
_cell_length_c 8.490378
_cell_angle_alpha 90.000000
_cell_angle_beta 90.000000
_cell_angle_gamma 90.000000
_cell_volume 5102.691283
_symmetry_space_group_name_H-M "C M C M"
_symmetry_group_IT_number 63
_symmetry_cell_setting 'orthorhombic'
loop_
_space_group_symop_operation_xyz
x,y,z
-x,-y,1/2+z
x,-y,-z
-x,y,1/2-z
-x,-y,-z
x,y,1/2-z
-x,y,z
x,-y,1/2+z
1/2+x,1/2+y,z
1/2-x,1/2-y,1/2+z
1/2+x,1/2-y,-z
1/2-x,1/2+y,1/2-z
1/2-x,1/2-y,-z
1/2+x,1/2+y,1/2-z
1/2-x,1/2+y,z
1/2+x,1/2-y,1/2+z
loop_
_atom_site_type_symbol
_atom_site_label
_atom_site_fract_x
_atom_site_fract_y
_atom_site_fract_z
Si Si1 0.926423 0.051224 0.438629
Si Si2 0.810474 0.778605 0.438167
Si Si3 0.072118 0.389127 0.441880
Si Si4 0.573217 0.218309 0.940102
Si Si5 0.306366 0.947612 0.440614
Si Si6 0.185830 0.114670 0.559647
O O1 0.924453 0.050812 0.250000
O O2 0.878180 0.089603 0.502294
O O3 0.000000 0.059422 0.488911
O O4 0.907479 0.000000 0.500000
O O5 0.807123 0.779525 0.250000
O O6 0.750000 0.750000 0.500000
O O7 0.874928 0.752751 0.489943
O O8 0.809373 0.832038 0.495357
O O9 0.071877 0.389729 0.250000
O O10 0.085814 0.335501 0.487035
O O11 0.127548 0.423708 0.494983
O O12 0.000000 0.401124 0.493476
O O13 0.577175 0.220140 0.750000
O O14 0.500000 0.229453 0.984614
O O15 0.306670 0.948063 0.250000
O O16 0.246775 0.915797 0.492008
O O17 0.300120 0.000000 0.500000
O O18 0.185763 0.114911 0.750000
#
# Coordination Sequence:
#
# PCOD9472207 Si02
#       6
#    16  16  16  16  16  16
#     4  10  21  37  58  83 110 141 178 221 269 323
#     4  11  23  38  57  81 110 144 184 230 279 330
#     4   8  15  31  55  78 103 140 178 208 247 308
#     4   9  18  35  59  83 108 142 182 220 264 324
#     4  10  20  34  52  75 103 134 173 217 259 305
#     4  10  22  38  55  76 105 143 183 223 267 322
#
# _framework density 18.813600999999998
#
# number of rings (size 3 to 8) (size 9 to 14) (size 15 to 20)
#    0.000    2.333    0.000    3.500    0.000    8.333 
#    0.000    5.833    0.000    1.000    0.000    0.000 
#    0.000    0.000    0.000    0.000    0.000    0.000 
#
# Total GULP energy -268000.493075 kJ/mol
# GULP energy per Si atom -5583.343606 kJ/mol
# Density = 1.877078 g / cm^3
# Si number density = 18.813601 Si / 1000 Ang^3
#
#
#
# Elastic Constant Matrix: (Units=GPa)
#
#
# Indices 1 2 3 4 5 6 
#
# 1 125.1616 103.6086 23.3433 0.0000 0.0000 0.0000
# 2 103.6086 156.3589 23.6814 0.0000 0.0000 0.0000
# 3 23.3433 23.6814 11.5193 0.0000 0.0000 0.0000
# 4 0.0000 0.0000 0.0000 29.0101 0.0000 0.0000
# 5 0.0000 0.0000 0.0000 0.0000 18.4293 0.0000
# 6 0.0000 0.0000 0.0000 0.0000 0.0000 42.3076
#
#
#
# Elastic Compliance Matrix: (Units=1/GPa)
#
#
# Indices 1 2 3 4 5 6 
#
# 1 0.020355 -0.010515 -0.019633 0.000000 0.000000 0.000000
# 2 -0.010515 0.014719 -0.008951 0.000000 0.000000 0.000000
# 3 -0.019633 -0.008951 0.144998 0.000000 0.000000 0.000000
# 4 0.000000 0.000000 0.000000 0.034471 0.000000 0.000000
# 5 0.000000 0.000000 0.000000 0.000000 0.054261 0.000000
# 6 0.000000 0.000000 0.000000 0.000000 0.000000 0.023636
#
#
# Mechanical properties :
#
#
# Convention : Reuss Voigt Hill
#
# Bulk Modulus (GPa) = 9.81601 66.03402 37.92502
# Shear Modulus (GPa) = 12.35799 27.44317 19.90058
#
# Velocity S-wave (km/s) = 2.56572 3.82342 3.25588
# Velocity P-wave (km/s) = 3.74246 7.39369 5.85972
#
# Compressibility (1/GPa) = 0.10187443
#
# Stress axis : x y z
#
# Youngs Moduli (GPa) = 49.12738 67.94169 6.89663
#
# Poissons Ratio (x) = 0.71437 0.13540
# Poissons Ratio (y) = 0.51655 0.06173
# Poissons Ratio (z) = 0.96453 0.60816
#
# Static dielectric constant tensor:
#      x y z
#    x 1.643180 0.000000 0.000000 
#    y 0.000000 1.625690 0.000000 
#    z 0.000000 0.000000 1.651020 
# 
# From -- ./inp_files/8626.got.cif
#   From: 2010.05.17/outbox.cif.g08.bks.cpg/sg63_5_cif.got.tgz:8626.got - 2010.06.03 15:47:04.
