data_PCOD9472975
_publ_section_title
;
Structure prediction by ZEFSAII (Michael W. Deem and Ramdas Pophale) SiO2 
 PCOD9472975
Probable space group: C M C M
;
_chemical_formula_sum "Si O2"
_cell_formula_units_Z 96
_cell_length_a 23.022891
_cell_length_b 9.103895
_cell_length_c 24.769333
_cell_angle_alpha 90.000000
_cell_angle_beta 90.000000
_cell_angle_gamma 90.000000
_cell_volume 5191.602219
_symmetry_space_group_name_H-M "C M C M"
_symmetry_group_IT_number 63
_symmetry_cell_setting 'orthorhombic'
loop_
_space_group_symop_operation_xyz
x,y,z
-x,-y,1/2+z
x,-y,-z
-x,y,1/2-z
-x,-y,-z
x,y,1/2-z
-x,y,z
x,-y,1/2+z
1/2+x,1/2+y,z
1/2-x,1/2-y,1/2+z
1/2+x,1/2-y,-z
1/2-x,1/2+y,1/2-z
1/2-x,1/2-y,-z
1/2+x,1/2+y,1/2-z
1/2-x,1/2+y,z
1/2+x,1/2-y,1/2+z
loop_
_atom_site_type_symbol
_atom_site_label
_atom_site_fract_x
_atom_site_fract_y
_atom_site_fract_z
Si Si1 0.685140 0.306381 0.312476
Si Si2 0.741004 0.050490 0.374583
Si Si3 0.432404 0.295148 0.373913
Si Si4 0.316628 0.340956 0.530410
Si Si5 0.644066 0.899218 0.953035
Si Si6 0.561131 0.414167 0.943041
O O1 0.692447 0.343459 0.250000
O O2 0.715158 0.151915 0.327453
O O3 0.718107 0.424200 0.350652
O O4 0.616837 0.295069 0.327731
O O5 0.778901 0.146913 0.416061
O O6 0.685111 0.010342 0.411750
O O7 0.500000 0.258010 0.361315
O O8 0.404208 0.189953 0.419866
O O9 0.432827 0.459078 0.398632
O O10 0.311379 0.500000 0.500000
O O11 0.313486 0.216536 0.484608
O O12 0.381886 0.320299 0.552711
O O13 0.619296 0.000000 0.000000
O O14 0.500000 0.334469 0.935573
O O15 0.558811 0.500000 0.000000
#
# Coordination Sequence:
#
# PCOD9472975 Si02
#       6
#    16  16  16  16  16  16
#     4  11  23  39  58  78 102 139 184 235 282 314
#     4  11  21  36  52  80 110 141 180 223 266 322
#     4  10  20  36  55  78 107 139 181 225 265 312
#     4  11  17  31  52  79 109 150 178 208 254 323
#     4  11  21  31  49  82 119 149 169 204 263 329
#     4   9  15  27  50  76 102 136 173 209 250 305
#
# _framework density 18.491402000000001
#
# number of rings (size 3 to 8) (size 9 to 14) (size 15 to 20)
#    0.000    1.500    5.000    3.500    0.000    0.667 
#    0.000    0.000    0.000    0.000    0.000    0.000 
#    0.000    6.000    0.000    0.000    0.000    0.000 
#
# Total GULP energy -267504.974427 kJ/mol
# GULP energy per Si atom -5573.020301 kJ/mol
# Density = 1.844931 g / cm^3
# Si number density = 18.491402 Si / 1000 Ang^3
#
#
#
# Elastic Constant Matrix: (Units=GPa)
#
#
# Indices 1 2 3 4 5 6 
#
# 1 94.3890 7.7624 48.5638 0.0000 0.0000 0.0000
# 2 7.7624 43.0310 22.9584 0.0000 0.0000 0.0000
# 3 48.5638 22.9584 76.8411 0.0000 0.0000 0.0000
# 4 0.0000 0.0000 0.0000 20.4467 0.0000 0.0000
# 5 0.0000 0.0000 0.0000 0.0000 17.5337 0.0000
# 6 0.0000 0.0000 0.0000 0.0000 0.0000 19.0860
#
#
#
# Elastic Compliance Matrix: (Units=1/GPa)
#
#
# Indices 1 2 3 4 5 6 
#
# 1 0.016016 0.002988 -0.011015 0.000000 0.000000 0.000000
# 2 0.002988 0.028203 -0.010315 0.000000 0.000000 0.000000
# 3 -0.011015 -0.010315 0.023057 0.000000 0.000000 0.000000
# 4 0.000000 0.000000 0.000000 0.048908 0.000000 0.000000
# 5 0.000000 0.000000 0.000000 0.000000 0.057033 0.000000
# 6 0.000000 0.000000 0.000000 0.000000 0.000000 0.052394
#
#
# Mechanical properties :
#
#
# Convention : Reuss Voigt Hill
#
# Bulk Modulus (GPa) = 32.68767 41.42560 37.05664
# Shear Modulus (GPa) = 18.34912 20.41171 19.38042
#
# Velocity S-wave (km/s) = 3.15351 3.32603 3.24091
# Velocity P-wave (km/s) = 5.56553 6.09928 5.83850
#
# Compressibility (1/GPa) = 0.03059257
#
# Stress axis : x y z
#
# Youngs Moduli (GPa) = 62.43790 35.45680 43.37072
#
# Poissons Ratio (x) = -0.10593 0.47772
# Poissons Ratio (y) = -0.18654 0.44736
# Poissons Ratio (z) = 0.68774 0.36573
#
# Static dielectric constant tensor:
#      x y z
#    x 1.697510 0.000000 0.000000 
#    y 0.000000 1.654100 0.000000 
#    z 0.000000 0.000000 1.626240 
# 
# From -- ./inp_files/64974.got.cif
#   From: 2010.05.17/outbox.cif.g08.bks.cpg/sg63_33_cif.got.tgz:64974.got - 2010.06.03 15:47:04.
