data_PCOD9472380
_publ_section_title
;
Structure prediction by ZEFSAII (Michael W. Deem and Ramdas Pophale) SiO2 
 PCOD9472380
Probable space group: C M C M
;
_chemical_formula_sum "Si O2"
_cell_formula_units_Z 80
_cell_length_a 13.438608
_cell_length_b 11.022100
_cell_length_c 30.105348
_cell_angle_alpha 90.000000
_cell_angle_beta 90.000000
_cell_angle_gamma 90.000000
_cell_volume 4459.254760
_symmetry_space_group_name_H-M "C M C M"
_symmetry_group_IT_number 63
_symmetry_cell_setting 'orthorhombic'
loop_
_space_group_symop_operation_xyz
x,y,z
-x,-y,1/2+z
x,-y,-z
-x,y,1/2-z
-x,-y,-z
x,y,1/2-z
-x,y,z
x,-y,1/2+z
1/2+x,1/2+y,z
1/2-x,1/2-y,1/2+z
1/2+x,1/2-y,-z
1/2-x,1/2+y,1/2-z
1/2-x,1/2-y,-z
1/2+x,1/2+y,1/2-z
1/2-x,1/2+y,z
1/2+x,1/2-y,1/2+z
loop_
_atom_site_type_symbol
_atom_site_label
_atom_site_fract_x
_atom_site_fract_y
_atom_site_fract_z
Si Si1 0.116009 0.021999 0.902789
Si Si2 0.112860 0.475802 0.250000
Si Si3 0.751879 0.129636 0.826050
Si Si4 0.385521 0.760255 0.398594
Si Si5 0.888264 0.763781 0.250000
Si Si6 0.738704 0.875482 0.027288
O O1 0.183198 0.047473 0.859456
O O2 0.163171 0.098961 0.942900
O O3 0.000000 0.051331 0.895168
O O4 0.123098 0.879289 0.913851
O O5 0.174362 0.436828 0.206472
O O6 0.106717 0.619809 0.250000
O O7 0.000000 0.425586 0.250000
O O8 0.687448 0.217783 0.857266
O O9 0.828505 0.195117 0.793349
O O10 0.500000 0.782933 0.386394
O O11 0.349310 0.848933 0.437628
O O12 0.000000 0.814828 0.250000
O O13 0.750000 0.750000 0.000000
O O14 0.721315 0.000000 0.000000
#
# Coordination Sequence:
#
# PCOD9472380 Si02
#       6
#    16   8  16  16   8  16
#     4  10  21  37  59  83 112 151 191 234 286 341
#     4  10  20  34  54  80 114 150 184 229 288 339
#     4  10  20  35  56  81 111 148 191 235 278 336
#     4  10  21  37  58  83 114 149 189 236 286 340
#     4  10  20  34  54  80 112 148 188 233 280 335
#     4  11  22  39  61  86 116 149 189 236 282 340
#
# _framework density 17.940217000000001
#
# number of rings (size 3 to 8) (size 9 to 14) (size 15 to 20)
#    0.000    1.800    2.000    2.400    0.000    1.600 
#    0.000    0.000    0.000    9.600    0.000    0.000 
#    0.000    0.000    0.000    0.000    0.000    0.000 
#
# Total GULP energy -223062.632660 kJ/mol
# GULP energy per Si atom -5576.565816 kJ/mol
# Density = 1.789938 g / cm^3
# Si number density = 17.940217 Si / 1000 Ang^3
#
#
#
# Elastic Constant Matrix: (Units=GPa)
#
#
# Indices 1 2 3 4 5 6 
#
# 1 154.8636 50.8597 59.4040 0.0000 0.0000 0.0000
# 2 50.8597 90.2870 50.5434 0.0000 0.0000 0.0000
# 3 59.4040 50.5434 111.2319 0.0000 0.0000 0.0000
# 4 0.0000 0.0000 0.0000 15.5047 0.0000 0.0000
# 5 0.0000 0.0000 0.0000 0.0000 18.6413 0.0000
# 6 0.0000 0.0000 0.0000 0.0000 0.0000 29.0143
#
#
#
# Elastic Compliance Matrix: (Units=1/GPa)
#
#
# Indices 1 2 3 4 5 6 
#
# 1 0.008720 -0.003092 -0.003252 0.000000 0.000000 0.000000
# 2 -0.003092 0.015950 -0.005597 0.000000 0.000000 0.000000
# 3 -0.003252 -0.005597 0.013270 0.000000 0.000000 0.000000
# 4 0.000000 0.000000 0.000000 0.064496 0.000000 0.000000
# 5 0.000000 0.000000 0.000000 0.000000 0.053644 0.000000
# 6 0.000000 0.000000 0.000000 0.000000 0.000000 0.034466
#
#
# Mechanical properties :
#
#
# Convention : Reuss Voigt Hill
#
# Bulk Modulus (GPa) = 71.12518 75.33295 73.22907
# Shear Modulus (GPa) = 22.81908 25.67043 24.24476
#
# Velocity S-wave (km/s) = 3.57031 3.78681 3.68015
# Velocity P-wave (km/s) = 7.53179 7.82318 7.67887
#
# Compressibility (1/GPa) = 0.01405972
#
# Stress axis : x y z
#
# Youngs Moduli (GPa) = 114.67721 62.69441 75.35645
#
# Poissons Ratio (x) = 0.19382 0.24508
# Poissons Ratio (y) = 0.35453 0.42175
# Poissons Ratio (z) = 0.37296 0.35089
#
# Static dielectric constant tensor:
#      x y z
#    x 1.608500 0.000000 0.000000 
#    y 0.000000 1.594940 0.000000 
#    z 0.000000 0.000000 1.615510 
# 
# From -- ./inp_files/72538.got.cif
#   From: 2010.05.17/outbox.cif.g08.bks.cpg/sg63_37_cif.got.tgz:72538.got - 2010.06.03 15:47:04.
