data_PCOD9472790
_publ_section_title
;
Structure prediction by ZEFSAII (Michael W. Deem and Ramdas Pophale) SiO2 
 PCOD9472790
Probable space group: C M C M
;
_chemical_formula_sum "Si O2"
_cell_formula_units_Z 104
_cell_length_a 20.757232
_cell_length_b 32.625922
_cell_length_c 8.833235
_cell_angle_alpha 90.000000
_cell_angle_beta 90.000000
_cell_angle_gamma 90.000000
_cell_volume 5982.077257
_symmetry_space_group_name_H-M "C M C M"
_symmetry_group_IT_number 63
_symmetry_cell_setting 'orthorhombic'
loop_
_space_group_symop_operation_xyz
x,y,z
-x,-y,1/2+z
x,-y,-z
-x,y,1/2-z
-x,-y,-z
x,y,1/2-z
-x,y,z
x,-y,1/2+z
1/2+x,1/2+y,z
1/2-x,1/2-y,1/2+z
1/2+x,1/2-y,-z
1/2-x,1/2+y,1/2-z
1/2-x,1/2-y,-z
1/2+x,1/2+y,1/2-z
1/2-x,1/2+y,z
1/2+x,1/2-y,1/2+z
loop_
_atom_site_type_symbol
_atom_site_label
_atom_site_fract_x
_atom_site_fract_y
_atom_site_fract_z
Si Si1 0.073805 0.321613 0.569491
Si Si2 0.073781 0.769114 0.931760
Si Si3 0.763053 0.543901 0.070714
Si Si4 0.674197 0.332807 0.068730
Si Si5 0.190921 0.629785 0.568354
Si Si6 0.500000 0.544712 0.569885
Si Si7 0.126517 0.082572 0.429544
O O1 0.083112 0.318622 0.750000
O O2 0.081005 0.276667 0.496265
O O3 0.125684 0.351933 0.498334
O O4 0.000000 0.334959 0.541312
O O5 0.077633 0.768652 0.750000
O O6 0.000000 0.783104 0.972299
O O7 0.131161 0.797009 0.996675
O O8 0.776280 0.543801 0.250000
O O9 0.686477 0.551732 0.049433
O O10 0.781055 0.500000 0.000000
O O11 0.794806 0.584394 0.996733
O O12 0.669919 0.329872 0.250000
O O13 0.749869 0.339080 0.028246
O O14 0.644413 0.374936 0.007909
O O15 0.188678 0.627357 0.750000
O O16 0.500000 0.500000 0.500000
O O17 0.500000 0.543357 0.750000
O O18 0.563043 0.566479 0.507501
O O19 0.117443 0.088438 0.250000
#
# Coordination Sequence:
#
# PCOD9472790 Si02
#       7
#    16  16  16  16  16   8  16
#     4  10  21  38  60  85 112 143 180 223 273 331
#     4  10  21  36  55  79 109 148 191 233 276 327
#     4  10  20  35  57  82 109 142 179 223 271 324
#     4  10  21  36  54  79 110 145 186 230 277 325
#     4  10  21  37  58  84 113 145 183 225 271 328
#     4  12  24  36  50  70  98 136 182 232 282 332
#     4  10  21  36  53  74 103 140 182 229 278 327
#
# _framework density 17.385265
#
# number of rings (size 3 to 8) (size 9 to 14) (size 15 to 20)
#    0.000    1.846    0.000    3.923    1.077    7.385 
#    0.000    0.000    0.000    0.462    0.000    0.000 
#    0.000    0.000    0.000    0.000    0.000    0.000 
#
# Total GULP energy -290257.948924 kJ/mol
# GULP energy per Si atom -5581.883633 kJ/mol
# Density = 1.734570 g / cm^3
# Si number density = 17.385265 Si / 1000 Ang^3
#
#
#
# Elastic Constant Matrix: (Units=GPa)
#
#
# Indices 1 2 3 4 5 6 
#
# 1 132.4145 79.2749 73.9573 0.0000 0.0000 0.0000
# 2 79.2749 87.9310 50.2384 0.0000 0.0000 0.0000
# 3 73.9573 50.2384 71.3526 0.0000 0.0000 0.0000
# 4 0.0000 0.0000 0.0000 36.6340 0.0000 0.0000
# 5 0.0000 0.0000 0.0000 0.0000 29.3416 0.0000
# 6 0.0000 0.0000 0.0000 0.0000 0.0000 11.0024
#
#
#
# Elastic Compliance Matrix: (Units=1/GPa)
#
#
# Indices 1 2 3 4 5 6 
#
# 1 0.023993 -0.012418 -0.016126 0.000000 0.000000 0.000000
# 2 -0.012418 0.025453 -0.005050 0.000000 0.000000 0.000000
# 3 -0.016126 -0.005050 0.034285 0.000000 0.000000 0.000000
# 4 0.000000 0.000000 0.000000 0.027297 0.000000 0.000000
# 5 0.000000 0.000000 0.000000 0.000000 0.034081 0.000000
# 6 0.000000 0.000000 0.000000 0.000000 0.000000 0.090889
#
#
# Mechanical properties :
#
#
# Convention : Reuss Voigt Hill
#
# Bulk Modulus (GPa) = 60.44497 77.62659 69.03578
# Shear Modulus (GPa) = 16.19687 21.27743 18.73715
#
# Velocity S-wave (km/s) = 3.05560 3.50219 3.28649
# Velocity P-wave (km/s) = 6.87694 7.81675 7.36185
#
# Compressibility (1/GPa) = 0.01654397
#
# Stress axis : x y z
#
# Youngs Moduli (GPa) = 41.67841 39.28746 29.16732
#
# Poissons Ratio (x) = 0.48787 0.47034
# Poissons Ratio (y) = 0.51756 0.14730
# Poissons Ratio (z) = 0.67209 0.19840
#
# Static dielectric constant tensor:
#      x y z
#    x 1.583380 0.000000 0.000000 
#    y 0.000000 1.555780 0.000000 
#    z 0.000000 0.000000 1.575650 
# 
# From -- ./inp_files/9129.got.cif
#   From: 2010.05.17/outbox.cif.g08.bks.cpg/sg63_5_cif.got.tgz:9129.got - 2010.06.03 15:47:04.
