data_PCOD9472966
_publ_section_title
;
Structure prediction by ZEFSAII (Michael W. Deem and Ramdas Pophale) SiO2 
 PCOD9472966
Probable space group: C M C M
;
_chemical_formula_sum "Si O2"
_cell_formula_units_Z 96
_cell_length_a 21.852653
_cell_length_b 16.276270
_cell_length_c 16.046064
_cell_angle_alpha 90.000000
_cell_angle_beta 90.000000
_cell_angle_gamma 90.000000
_cell_volume 5707.258916
_symmetry_space_group_name_H-M "C M C M"
_symmetry_group_IT_number 63
_symmetry_cell_setting 'orthorhombic'
loop_
_space_group_symop_operation_xyz
x,y,z
-x,-y,1/2+z
x,-y,-z
-x,y,1/2-z
-x,-y,-z
x,y,1/2-z
-x,y,z
x,-y,1/2+z
1/2+x,1/2+y,z
1/2-x,1/2-y,1/2+z
1/2+x,1/2-y,-z
1/2-x,1/2+y,1/2-z
1/2-x,1/2-y,-z
1/2+x,1/2+y,1/2-z
1/2-x,1/2+y,z
1/2+x,1/2-y,1/2+z
loop_
_atom_site_type_symbol
_atom_site_label
_atom_site_fract_x
_atom_site_fract_y
_atom_site_fract_z
Si Si1 0.218208 0.097412 0.504439
Si Si2 0.647064 0.854010 0.066866
Si Si3 0.072429 0.682760 0.406267
Si Si4 0.570666 0.003294 0.849083
Si Si5 0.795123 0.794459 0.656193
Si Si6 0.168904 0.195795 0.657679
O O1 0.288621 0.122519 0.523650
O O2 0.198848 0.140325 0.418040
O O3 0.179550 0.133718 0.581681
O O4 0.213360 0.000000 0.500000
O O5 0.662921 0.784318 0.134452
O O6 0.615976 0.934389 0.105662
O O7 0.601749 0.817504 0.997937
O O8 0.084350 0.591339 0.370439
O O9 0.107836 0.751600 0.354529
O O10 0.000000 0.695503 0.407038
O O11 0.574666 0.014473 0.750000
O O12 0.500000 0.019269 0.875283
O O13 0.806746 0.824732 0.750000
O O14 0.725787 0.759492 0.652861
O O15 0.171128 0.157561 0.750000
#
# Coordination Sequence:
#
# PCOD9472966 Si02
#       6
#    16  16  16  16  16  16
#     4  11  21  36  56  80 109 138 178 229 275 324
#     4  11  19  35  53  80 110 146 177 218 266 326
#     4  11  20  33  54  78 110 150 185 217 262 314
#     4  10  21  33  47  77 116 150 187 220 251 311
#     4  10  20  36  57  78 106 143 179 221 276 326
#     4  10  20  36  54  78 111 142 177 222 266 318
#
# _framework density 16.820684
#
# number of rings (size 3 to 8) (size 9 to 14) (size 15 to 20)
#    0.000    1.500    3.333    4.000    0.000    3.667 
#    0.000    0.000    0.000    0.500    0.000    0.000 
#    0.000    0.000    0.000    0.000    0.000    0.000 
#
# Total GULP energy -267986.005386 kJ/mol
# GULP energy per Si atom -5583.041779 kJ/mol
# Density = 1.678240 g / cm^3
# Si number density = 16.820684 Si / 1000 Ang^3
#
#
#
# Elastic Constant Matrix: (Units=GPa)
#
#
# Indices 1 2 3 4 5 6 
#
# 1 39.4226 9.4432 30.7103 0.0000 0.0000 0.0000
# 2 9.4432 56.6114 55.1131 0.0000 0.0000 0.0000
# 3 30.7103 55.1131 137.8317 0.0000 0.0000 0.0000
# 4 0.0000 0.0000 0.0000 12.0823 0.0000 0.0000
# 5 0.0000 0.0000 0.0000 0.0000 12.4684 0.0000
# 6 0.0000 0.0000 0.0000 0.0000 0.0000 26.0937
#
#
#
# Elastic Compliance Matrix: (Units=1/GPa)
#
#
# Indices 1 2 3 4 5 6 
#
# 1 0.030914 0.002536 -0.007902 0.000000 0.000000 0.000000
# 2 0.002536 0.029132 -0.012214 0.000000 0.000000 0.000000
# 3 -0.007902 -0.012214 0.013900 0.000000 0.000000 0.000000
# 4 0.000000 0.000000 0.000000 0.082766 0.000000 0.000000
# 5 0.000000 0.000000 0.000000 0.000000 0.080202 0.000000
# 6 0.000000 0.000000 0.000000 0.000000 0.000000 0.038323
#
#
# Mechanical properties :
#
#
# Convention : Reuss Voigt Hill
#
# Bulk Modulus (GPa) = 25.78203 47.15540 36.46871
# Shear Modulus (GPa) = 15.46431 19.36884 17.41657
#
# Velocity S-wave (km/s) = 3.03539 3.39704 3.22129
# Velocity P-wave (km/s) = 5.25791 6.59405 5.96352
#
# Compressibility (1/GPa) = 0.03878671
#
# Stress axis : x y z
#
# Youngs Moduli (GPa) = 32.34729 34.32698 71.94429
#
# Poissons Ratio (x) = -0.08707 0.56852
# Poissons Ratio (y) = -0.08204 0.87870
# Poissons Ratio (z) = 0.25562 0.41926
#
# Static dielectric constant tensor:
#      x y z
#    x 1.553680 0.000000 0.000000 
#    y 0.000000 1.539270 0.000000 
#    z 0.000000 0.000000 1.598330 
# 
# From -- ./inp_files/35296.got.cif
#   From: 2010.05.17/outbox.cif.g08.bks.cpg/sg63_18_cif.got.tgz:35296.got - 2010.06.03 15:47:04.
