data_PCOD9472058
_publ_section_title
;
Structure prediction by ZEFSAII (Michael W. Deem and Ramdas Pophale) SiO2 
 PCOD9472058
Probable space group: C M C M
;
_chemical_formula_sum "Si O2"
_cell_formula_units_Z 96
_cell_length_a 22.899989
_cell_length_b 8.978362
_cell_length_c 22.850647
_cell_angle_alpha 90.000000
_cell_angle_beta 90.000000
_cell_angle_gamma 90.000000
_cell_volume 4698.193361
_symmetry_space_group_name_H-M "C M C M"
_symmetry_group_IT_number 63
_symmetry_cell_setting 'orthorhombic'
loop_
_space_group_symop_operation_xyz
x,y,z
-x,-y,1/2+z
x,-y,-z
-x,y,1/2-z
-x,-y,-z
x,y,1/2-z
-x,y,z
x,-y,1/2+z
1/2+x,1/2+y,z
1/2-x,1/2-y,1/2+z
1/2+x,1/2-y,-z
1/2-x,1/2+y,1/2-z
1/2-x,1/2-y,-z
1/2+x,1/2+y,1/2-z
1/2-x,1/2+y,z
1/2+x,1/2-y,1/2+z
loop_
_atom_site_type_symbol
_atom_site_label
_atom_site_fract_x
_atom_site_fract_y
_atom_site_fract_z
Si Si1 0.370784 0.629562 0.114579
Si Si2 0.433926 0.617519 0.680445
Si Si3 0.204651 0.356707 0.320185
Si Si4 0.656840 0.164829 0.983678
Si Si5 0.821966 0.308198 0.820780
Si Si6 0.716108 0.600573 0.559052
O O1 0.421219 0.528556 0.141931
O O2 0.345807 0.743096 0.162450
O O3 0.382874 0.727056 0.056272
O O4 0.318474 0.513505 0.100723
O O5 0.426447 0.583479 0.750000
O O6 0.500000 0.670606 0.671831
O O7 0.384613 0.738999 0.664734
O O8 0.209465 0.362190 0.250000
O O9 0.189570 0.523515 0.339822
O O10 0.267362 0.292557 0.341793
O O11 0.715243 0.143952 0.943516
O O12 0.678436 0.253010 0.041415
O O13 0.635061 0.000000 0.000000
O O14 0.819265 0.307809 0.750000
O O15 0.714083 0.500000 0.500000
#
# Coordination Sequence:
#
# PCOD9472058 Si02
#       6
#    16  16  16  16  16  16
#     4  11  21  31  57  85 115 156 194 232 285 349
#     4  10  22  41  60  79 111 156 202 242 281 337
#     4  10  20  33  52  87 124 148 180 233 293 352
#     4   9  18  33  51  78 118 154 185 234 289 346
#     4   9  19  35  52  75 113 151 185 228 283 340
#     4   8  17  33  49  76 115 151 185 225 280 347
#
# _framework density 20.433385999999999
#
# number of rings (size 3 to 8) (size 9 to 14) (size 15 to 20)
#    0.000    2.500    0.000    2.500    4.667    4.000 
#    0.000    0.833    0.000    8.000    0.000    0.000 
#    0.000    0.000    0.000    0.000    0.000    0.000 
#
# Total GULP energy -267856.809166 kJ/mol
# GULP energy per Si atom -5580.350191 kJ/mol
# Density = 2.038688 g / cm^3
# Si number density = 20.433386 Si / 1000 Ang^3
#
#
#
# Elastic Constant Matrix: (Units=GPa)
#
#
# Indices 1 2 3 4 5 6 
#
# 1 83.2661 45.4666 24.1786 0.0000 0.0000 0.0000
# 2 45.4666 154.4824 29.8183 0.0000 0.0000 0.0000
# 3 24.1786 29.8183 42.7345 0.0000 0.0000 0.0000
# 4 0.0000 0.0000 0.0000 46.2072 0.0000 0.0000
# 5 0.0000 0.0000 0.0000 0.0000 19.3054 0.0000
# 6 0.0000 0.0000 0.0000 0.0000 0.0000 20.7757
#
#
#
# Elastic Compliance Matrix: (Units=1/GPa)
#
#
# Indices 1 2 3 4 5 6 
#
# 1 0.015756 -0.003370 -0.006563 0.000000 0.000000 0.000000
# 2 -0.003370 0.008202 -0.003816 0.000000 0.000000 0.000000
# 3 -0.006563 -0.003816 0.029776 0.000000 0.000000 0.000000
# 4 0.000000 0.000000 0.000000 0.021642 0.000000 0.000000
# 5 0.000000 0.000000 0.000000 0.000000 0.051799 0.000000
# 6 0.000000 0.000000 0.000000 0.000000 0.000000 0.048133
#
#
# Mechanical properties :
#
#
# Convention : Reuss Voigt Hill
#
# Bulk Modulus (GPa) = 38.11630 53.26778 45.69204
# Shear Modulus (GPa) = 23.63503 29.32561 26.48032
#
# Velocity S-wave (km/s) = 3.40470 3.79249 3.60381
# Velocity P-wave (km/s) = 5.84383 6.73074 6.30291
#
# Compressibility (1/GPa) = 0.02623549
#
# Stress axis : x y z
#
# Youngs Moduli (GPa) = 63.46895 121.92524 33.58416
#
# Poissons Ratio (x) = 0.41094 0.22040
# Poissons Ratio (y) = 0.21392 0.12815
# Poissons Ratio (z) = 0.41652 0.46525
#
# Static dielectric constant tensor:
#      x y z
#    x 1.681400 0.000000 0.000000 
#    y 0.000000 1.768940 0.000000 
#    z 0.000000 0.000000 1.988590 
# 
# From -- ./inp_files/70612.got.cif
#   From: 2010.05.17/outbox.cif.g08.bks.cpg/sg63_36_cif.got.tgz:70612.got - 2010.06.03 15:47:04.
