data_PCOD9472168
_publ_section_title
;
Structure prediction by ZEFSAII (Michael W. Deem and Ramdas Pophale) SiO2 
 PCOD9472168
Probable space group: C M C M
;
_chemical_formula_sum "Si O2"
_cell_formula_units_Z 104
_cell_length_a 26.119990
_cell_length_b 23.712991
_cell_length_c 9.452916
_cell_angle_alpha 90.000000
_cell_angle_beta 90.000000
_cell_angle_gamma 90.000000
_cell_volume 5854.976301
_symmetry_space_group_name_H-M "C M C M"
_symmetry_group_IT_number 63
_symmetry_cell_setting 'orthorhombic'
loop_
_space_group_symop_operation_xyz
x,y,z
-x,-y,1/2+z
x,-y,-z
-x,y,1/2-z
-x,-y,-z
x,y,1/2-z
-x,y,z
x,-y,1/2+z
1/2+x,1/2+y,z
1/2-x,1/2-y,1/2+z
1/2+x,1/2-y,-z
1/2-x,1/2+y,1/2-z
1/2-x,1/2-y,-z
1/2+x,1/2+y,1/2-z
1/2-x,1/2+y,z
1/2+x,1/2-y,1/2+z
loop_
_atom_site_type_symbol
_atom_site_label
_atom_site_fract_x
_atom_site_fract_y
_atom_site_fract_z
Si Si1 0.640890 0.156944 0.917513
Si Si2 0.647808 0.284454 0.582341
Si Si3 0.500000 0.442794 0.085230
Si Si4 0.694707 0.450698 0.588580
Si Si5 0.245036 0.332860 0.910074
Si Si6 0.439874 0.059070 0.920369
Si Si7 0.108661 0.109658 0.917675
O O1 0.649400 0.148902 0.750000
O O2 0.624821 0.222328 0.936997
O O3 0.599409 0.109528 0.961532
O O4 0.695389 0.157136 0.995536
O O5 0.644311 0.299281 0.750000
O O6 0.708743 0.290298 0.547010
O O7 0.620465 0.329977 0.485492
O O8 0.500000 0.457877 0.250000
O O9 0.550481 0.407079 0.057298
O O10 0.500000 0.500000 0.000000
O O11 0.721495 0.500000 0.500000
O O12 0.683799 0.467744 0.750000
O O13 0.727063 0.393553 0.592912
O O14 0.644254 0.434465 0.500813
O O15 0.229319 0.317292 0.750000
O O16 0.435533 0.051228 0.750000
O O17 0.500000 0.073152 0.949674
O O18 0.428483 0.000000 0.000000
O O19 0.119738 0.108990 0.750000
#
# Coordination Sequence:
#
# PCOD9472168 Si02
#       7
#    16  16   8  16  16  16  16
#     4  10  20  34  55  81 106 135 176 219 259 314
#     4   9  19  36  53  76 108 139 175 217 262 314
#     4  10  22  36  52  76 104 134 175 220 261 306
#     4  10  20  34  51  74 104 138 177 219 263 315
#     4   9  19  33  50  74 108 141 172 215 261 312
#     4   9  19  37  58  79 106 138 172 217 269 320
#     4  10  20  35  53  74 102 138 176 219 265 310
#
# _framework density 17.762668000000001
#
# number of rings (size 3 to 8) (size 9 to 14) (size 15 to 20)
#    0.000    2.462    0.000    2.769    0.000    7.385 
#    1.385    3.077    0.000    0.000    0.000    0.000 
#    0.000    0.000    0.000    0.000    0.000    0.000 
#
# Total GULP energy -289758.925517 kJ/mol
# GULP energy per Si atom -5572.287029 kJ/mol
# Density = 1.772224 g / cm^3
# Si number density = 17.762668 Si / 1000 Ang^3
#
#
#
# Elastic Constant Matrix: (Units=GPa)
#
#
# Indices 1 2 3 4 5 6 
#
# 1 93.8691 57.8457 55.0568 0.0000 0.0000 0.0000
# 2 57.8457 113.0431 53.3160 0.0000 0.0000 0.0000
# 3 55.0568 53.3160 67.1119 0.0000 0.0000 0.0000
# 4 0.0000 0.0000 0.0000 28.3953 0.0000 0.0000
# 5 0.0000 0.0000 0.0000 0.0000 24.8475 0.0000
# 6 0.0000 0.0000 0.0000 0.0000 0.0000 52.0983
#
#
#
# Elastic Compliance Matrix: (Units=1/GPa)
#
#
# Indices 1 2 3 4 5 6 
#
# 1 0.021793 -0.004349 -0.014423 0.000000 0.000000 0.000000
# 2 -0.004349 0.015015 -0.008360 0.000000 0.000000 0.000000
# 3 -0.014423 -0.008360 0.033375 0.000000 0.000000 0.000000
# 4 0.000000 0.000000 0.000000 0.035217 0.000000 0.000000
# 5 0.000000 0.000000 0.000000 0.000000 0.040246 0.000000
# 6 0.000000 0.000000 0.000000 0.000000 0.000000 0.019194
#
#
# Mechanical properties :
#
#
# Convention : Reuss Voigt Hill
#
# Bulk Modulus (GPa) = 62.82613 67.38457 65.10535
# Shear Modulus (GPa) = 22.28063 28.25525 25.26794
#
# Velocity S-wave (km/s) = 3.54552 3.99270 3.77574
# Velocity P-wave (km/s) = 7.22548 7.69896 7.46597
#
# Compressibility (1/GPa) = 0.01591695
#
# Stress axis : x y z
#
# Youngs Moduli (GPa) = 45.88680 66.60094 29.96290
#
# Poissons Ratio (x) = 0.28965 0.43216
# Poissons Ratio (y) = 0.19957 0.25050
# Poissons Ratio (z) = 0.66183 0.55681
#
# Static dielectric constant tensor:
#      x y z
#    x 1.528790 0.000000 0.000000 
#    y 0.000000 1.632440 0.000000 
#    z 0.000000 0.000000 1.609440 
# 
# From -- ./inp_files/12854.got.cif
#   From: 2010.05.17/outbox.cif.g08.bks.cpg/sg63_7_cif.got.tgz:12854.got - 2010.06.03 15:47:04.
