data_PCOD9472832
_publ_section_title
;
Structure prediction by ZEFSAII (Michael W. Deem and Ramdas Pophale) SiO2 
 PCOD9472832
Probable space group: C M C M
;
_chemical_formula_sum "Si O2"
_cell_formula_units_Z 112
_cell_length_a 22.258163
_cell_length_b 13.883305
_cell_length_c 15.307618
_cell_angle_alpha 90.000000
_cell_angle_beta 90.000000
_cell_angle_gamma 90.000000
_cell_volume 4730.312135
_symmetry_space_group_name_H-M "C M C M"
_symmetry_group_IT_number 63
_symmetry_cell_setting 'orthorhombic'
loop_
_space_group_symop_operation_xyz
x,y,z
-x,-y,1/2+z
x,-y,-z
-x,y,1/2-z
-x,-y,-z
x,y,1/2-z
-x,y,z
x,-y,1/2+z
1/2+x,1/2+y,z
1/2-x,1/2-y,1/2+z
1/2+x,1/2-y,-z
1/2-x,1/2+y,1/2-z
1/2-x,1/2-y,-z
1/2+x,1/2+y,1/2-z
1/2-x,1/2+y,z
1/2+x,1/2-y,1/2+z
loop_
_atom_site_type_symbol
_atom_site_label
_atom_site_fract_x
_atom_site_fract_y
_atom_site_fract_z
Si Si1 0.072412 0.689201 0.845857
Si Si2 0.284920 0.665047 0.544070
Si Si3 0.432090 0.022662 0.398201
Si Si4 0.409289 0.466692 0.147774
Si Si5 0.327327 0.836330 0.852353
Si Si6 0.406514 0.361034 0.527497
Si Si7 0.236122 0.997812 0.348750
O O1 0.093770 0.726109 0.750000
O O2 0.090238 0.577416 0.855405
O O3 0.000000 0.688934 0.844806
O O4 0.088474 0.755951 0.928827
O O5 0.250000 0.750000 0.500000
O O6 0.320236 0.727242 0.616912
O O7 0.335475 0.620424 0.483106
O O8 0.243108 0.584353 0.584803
O O9 0.500000 0.044667 0.365918
O O10 0.436597 0.000000 0.500000
O O11 0.385297 0.108408 0.387502
O O12 0.427704 0.452748 0.250000
O O13 0.427224 0.388216 0.071796
O O14 0.336406 0.483032 0.151349
O O15 0.431192 0.565207 0.100304
O O16 0.333791 0.834106 0.750000
O O17 0.268226 0.901812 0.871324
O O18 0.255711 0.975948 0.250000
#
# Coordination Sequence:
#
# PCOD9472832 Si02
#       7
#    16  16  16  16  16  16  16
#     4  10  21  38  60  88 123 161 204 261 324 383
#     4  11  23  36  55  85 119 156 199 253 307 373
#     4  10  22  40  61  87 121 160 208 266 323 378
#     4   9  18  36  58  81 119 161 203 256 313 373
#     4  11  23  38  60  87 120 165 211 257 313 375
#     4  10  20  35  57  87 112 156 208 248 314 378
#     4   9  20  37  54  78 116 158 199 249 305 371
#
# _framework density 23.677084000000001
#
# number of rings (size 3 to 8) (size 9 to 14) (size 15 to 20)
#    0.000    2.000    0.000    3.000    4.000    2.571 
#    0.000    2.857    0.000    1.286    0.000    0.000 
#    0.000    0.000    0.000    0.000    0.000    0.000 
#
# Total GULP energy -312429.889859 kJ/mol
# GULP energy per Si atom -5579.105176 kJ/mol
# Density = 2.362319 g / cm^3
# Si number density = 23.677084 Si / 1000 Ang^3
#
#
#
# Elastic Constant Matrix: (Units=GPa)
#
#
# Indices 1 2 3 4 5 6 
#
# 1 67.6737 -9.5978 13.7862 0.0000 0.0000 0.0000
# 2 -9.5978 52.0779 35.3691 0.0000 0.0000 0.0000
# 3 13.7862 35.3691 156.5088 0.0000 0.0000 0.0000
# 4 0.0000 0.0000 0.0000 45.3496 0.0000 0.0000
# 5 0.0000 0.0000 0.0000 0.0000 -42.6622 0.0000
# 6 0.0000 0.0000 0.0000 0.0000 0.0000 -499.4388
#
#
#
# Elastic Compliance Matrix: (Units=1/GPa)
#
#
# Indices 1 2 3 4 5 6 
#
# 1 0.015925 0.004593 -0.002441 0.000000 0.000000 0.000000
# 2 0.004593 0.024008 -0.005830 0.000000 0.000000 0.000000
# 3 -0.002441 -0.005830 0.007922 0.000000 0.000000 0.000000
# 4 0.000000 0.000000 0.000000 0.022051 0.000000 0.000000
# 5 0.000000 0.000000 0.000000 0.000000 -0.023440 0.000000
# 6 0.000000 0.000000 0.000000 0.000000 0.000000 -0.002002
#
#
# Mechanical properties :
#
#
# Convention : Reuss Voigt Hill
#
# Bulk Modulus (GPa) = 24.69200 39.48614 32.08907
# Shear Modulus (GPa) = 76.54652 -83.57008 -3.51178
#
# Velocity S-wave (km/s) = 5.69206 -5.94747 -1.21919
# Velocity P-wave (km/s) = 7.32466 5.51816 3.40593
#
# Compressibility (1/GPa) = 0.04049895
#
# Stress axis : x y z
#
# Youngs Moduli (GPa) = 62.79306 41.65292 126.23203
#
# Poissons Ratio (x) = -0.19129 0.30809
# Poissons Ratio (y) = -0.28838 0.73594
# Poissons Ratio (z) = 0.15326 0.24284
#
# Static dielectric constant tensor:
#      x y z
#    x 2.139270 0.000000 0.000000 
#    y 0.000000 1.662990 0.000000 
#    z 0.000000 0.000000 1.976430 
# 
# From -- ./inp_files/36898.got.cif
#   From: 2010.05.17/outbox.cif.g08.bks.cpg/sg63_19_cif.got.tgz:36898.got - 2010.06.03 15:47:04.
