data_PCOD9472044
_publ_section_title
;
Structure prediction by ZEFSAII (Michael W. Deem and Ramdas Pophale) SiO2 
 PCOD9472044
Probable space group: C M C M
;
_chemical_formula_sum "Si O2"
_cell_formula_units_Z 80
_cell_length_a 7.934396
_cell_length_b 29.631621
_cell_length_c 15.414589
_cell_angle_alpha 90.000000
_cell_angle_beta 90.000000
_cell_angle_gamma 90.000000
_cell_volume 3624.108839
_symmetry_space_group_name_H-M "C M C M"
_symmetry_group_IT_number 63
_symmetry_cell_setting 'orthorhombic'
loop_
_space_group_symop_operation_xyz
x,y,z
-x,-y,1/2+z
x,-y,-z
-x,y,1/2-z
-x,-y,-z
x,y,1/2-z
-x,y,z
x,-y,1/2+z
1/2+x,1/2+y,z
1/2-x,1/2-y,1/2+z
1/2+x,1/2-y,-z
1/2-x,1/2+y,1/2-z
1/2-x,1/2-y,-z
1/2+x,1/2+y,1/2-z
1/2-x,1/2+y,z
1/2+x,1/2-y,1/2+z
loop_
_atom_site_type_symbol
_atom_site_label
_atom_site_fract_x
_atom_site_fract_y
_atom_site_fract_z
Si Si1 0.202117 0.371312 0.149932
Si Si2 0.706151 0.365578 0.850164
Si Si3 0.809277 0.539146 0.564343
Si Si4 0.192358 0.962000 0.849247
Si Si5 0.298681 0.697930 0.994242
O O1 0.263411 0.369350 0.250000
O O2 0.271917 0.414319 0.095174
O O3 0.235079 0.327146 0.092424
O O4 0.000000 0.378146 0.154459
O O5 0.762257 0.357377 0.750000
O O6 0.500000 0.366119 0.848707
O O7 0.756722 0.414952 0.889272
O O8 0.762746 0.328506 0.919546
O O9 0.735866 0.500000 0.500000
O O10 0.804039 0.506241 0.646891
O O11 0.000000 0.547277 0.534972
O O12 0.181944 0.947766 0.750000
O O13 0.000000 0.971875 0.875438
O O14 0.500000 0.694340 0.993360
O O15 0.250000 0.750000 0.000000
#
# Coordination Sequence:
#
# PCOD9472044 Si02
#       5
#    16  16  16  16  16
#     4  10  22  40  59  81 117 164 205 242 292 353
#     4   8  16  33  56  81 109 142 180 224 282 352
#     4  10  20  33  52  80 114 151 190 232 280 335
#     4   9  17  30  50  76 104 135 174 217 260 316
#     4  11  23  39  61  86 111 143 188 243 300 359
#
# _framework density 22.074393000000001
#
# number of rings (size 3 to 8) (size 9 to 14) (size 15 to 20)
#    0.000    2.400    0.000    3.600    0.000    3.600 
#    0.000    3.000    0.000    4.200    0.000    0.000 
#    0.000    0.000    0.000    0.000    0.000    0.000 
#
# Total GULP energy -222762.349541 kJ/mol
# GULP energy per Si atom -5569.058739 kJ/mol
# Density = 2.202415 g / cm^3
# Si number density = 22.074393 Si / 1000 Ang^3
#
#
#
# Elastic Constant Matrix: (Units=GPa)
#
#
# Indices 1 2 3 4 5 6 
#
# 1 36.6957 5.1978 16.0908 0.0000 0.0000 0.0000
# 2 5.1978 154.2010 42.6749 0.0000 0.0000 0.0000
# 3 16.0908 42.6749 115.7294 0.0000 0.0000 0.0000
# 4 0.0000 0.0000 0.0000 30.3140 0.0000 0.0000
# 5 0.0000 0.0000 0.0000 0.0000 29.8264 0.0000
# 6 0.0000 0.0000 0.0000 0.0000 0.0000 19.4327
#
#
#
# Elastic Compliance Matrix: (Units=1/GPa)
#
#
# Indices 1 2 3 4 5 6 
#
# 1 0.029024 0.000154 -0.004092 0.000000 0.000000 0.000000
# 2 0.000154 0.007223 -0.002685 0.000000 0.000000 0.000000
# 3 -0.004092 -0.002685 0.010200 0.000000 0.000000 0.000000
# 4 0.000000 0.000000 0.000000 0.032988 0.000000 0.000000
# 5 0.000000 0.000000 0.000000 0.000000 0.033527 0.000000
# 6 0.000000 0.000000 0.000000 0.000000 0.000000 0.051460
#
#
# Mechanical properties :
#
#
# Convention : Reuss Voigt Hill
#
# Bulk Modulus (GPa) = 30.11994 48.28367 39.20180
# Shear Modulus (GPa) = 26.49227 32.09212 29.29220
#
# Velocity S-wave (km/s) = 3.46806 3.81703 3.64672
# Velocity P-wave (km/s) = 5.45077 6.43016 5.96062
#
# Compressibility (1/GPa) = 0.03320060
#
# Stress axis : x y z
#
# Youngs Moduli (GPa) = 34.45458 138.44906 98.04051
#
# Poissons Ratio (x) = -0.02135 0.40121
# Poissons Ratio (y) = -0.00531 0.26322
# Poissons Ratio (z) = 0.14100 0.37172
#
# Static dielectric constant tensor:
#      x y z
#    x 1.929670 0.000000 0.000000 
#    y 0.000000 1.923680 0.000000 
#    z 0.000000 0.000000 4.435960 
# 
# From -- ./inp_files/29722.got.cif
#   From: 2010.05.17/outbox.cif.g08.bks.cpg/sg63_15_cif.got.tgz:29722.got - 2010.06.03 15:47:04.
