data_PCOD9472028
_publ_section_title
;
Structure prediction by ZEFSAII (Michael W. Deem and Ramdas Pophale) SiO2 
 PCOD9472028
Probable space group: C M C M
;
_chemical_formula_sum "Si O2"
_cell_formula_units_Z 96
_cell_length_a 8.764361
_cell_length_b 24.158958
_cell_length_c 25.887837
_cell_angle_alpha 90.000000
_cell_angle_beta 90.000000
_cell_angle_gamma 90.000000
_cell_volume 5481.434412
_symmetry_space_group_name_H-M "C M C M"
_symmetry_group_IT_number 63
_symmetry_cell_setting 'orthorhombic'
loop_
_space_group_symop_operation_xyz
x,y,z
-x,-y,1/2+z
x,-y,-z
-x,y,1/2-z
-x,-y,-z
x,y,1/2-z
-x,y,z
x,-y,1/2+z
1/2+x,1/2+y,z
1/2-x,1/2-y,1/2+z
1/2+x,1/2-y,-z
1/2-x,1/2+y,1/2-z
1/2-x,1/2-y,-z
1/2+x,1/2+y,1/2-z
1/2-x,1/2+y,z
1/2+x,1/2-y,1/2+z
loop_
_atom_site_type_symbol
_atom_site_label
_atom_site_fract_x
_atom_site_fract_y
_atom_site_fract_z
Si Si1 0.815965 0.439997 0.690668
Si Si2 0.317484 0.364073 0.096524
Si Si3 0.816106 0.060100 0.690806
Si Si4 0.817352 0.435588 0.004193
Si Si5 0.816928 0.362710 0.902571
Si Si6 0.318546 0.249561 0.557798
O O1 0.770653 0.428151 0.750000
O O2 0.750896 0.500189 0.676478
O O3 0.768198 0.393621 0.649766
O O4 0.000000 0.443206 0.688785
O O5 0.500000 0.357338 0.096497
O O6 0.269656 0.393434 0.149892
O O7 0.268613 0.404581 0.050082
O O8 0.240834 0.305136 0.086403
O O9 0.769749 0.072085 0.750000
O O10 0.000000 0.056337 0.689477
O O11 0.000000 0.432551 0.013942
O O12 0.775270 0.500000 0.000000
O O13 0.787047 0.403590 0.950768
O O14 0.736165 0.304855 0.913481
O O15 0.000000 0.353626 0.900582
O O16 0.500000 0.248129 0.553797
O O17 0.250000 0.250000 0.500000
#
# Coordination Sequence:
#
# PCOD9472028 Si02
#       6
#    16  16  16  16  16  16
#     4   9  18  34  58  86 114 147 186 225 269 323
#     4  11  22  36  56  81 109 144 186 230 274 326
#     4   9  19  36  57  82 113 148 184 225 275 325
#     4  10  20  33  52  79 111 145 178 221 275 330
#     4  10  20  35  55  80 112 147 183 224 271 325
#     4  12  24  39  58  79 107 145 186 229 277 331
#
# _framework density 17.513663999999999
#
# number of rings (size 3 to 8) (size 9 to 14) (size 15 to 20)
#    0.000    1.833    1.667    3.000    0.000    3.667 
#    0.000    0.833    0.000    5.000    0.000    0.000 
#    0.000    0.000    0.000    0.000    0.000    0.000 
#
# Total GULP energy -268084.418938 kJ/mol
# GULP energy per Si atom -5585.092061 kJ/mol
# Density = 1.747380 g / cm^3
# Si number density = 17.513664 Si / 1000 Ang^3
#
#
#
# Elastic Constant Matrix: (Units=GPa)
#
#
# Indices 1 2 3 4 5 6 
#
# 1 49.4558 64.3168 50.1216 0.0000 0.0000 0.0000
# 2 64.3168 186.0305 101.1152 0.0000 0.0000 0.0000
# 3 50.1216 101.1152 120.8040 0.0000 0.0000 0.0000
# 4 0.0000 0.0000 0.0000 23.0044 0.0000 0.0000
# 5 0.0000 0.0000 0.0000 0.0000 22.4928 0.0000
# 6 0.0000 0.0000 0.0000 0.0000 0.0000 31.0640
#
#
#
# Elastic Compliance Matrix: (Units=1/GPa)
#
#
# Indices 1 2 3 4 5 6 
#
# 1 0.042145 -0.009296 -0.009705 0.000000 0.000000 0.000000
# 2 -0.009296 0.011913 -0.006114 0.000000 0.000000 0.000000
# 3 -0.009705 -0.006114 0.017422 0.000000 0.000000 0.000000
# 4 0.000000 0.000000 0.000000 0.043470 0.000000 0.000000
# 5 0.000000 0.000000 0.000000 0.000000 0.044459 0.000000
# 6 0.000000 0.000000 0.000000 0.000000 0.000000 0.032192
#
#
# Mechanical properties :
#
#
# Convention : Reuss Voigt Hill
#
# Bulk Modulus (GPa) = 47.06017 87.48861 67.27439
# Shear Modulus (GPa) = 20.08726 24.69469 22.39097
#
# Velocity S-wave (km/s) = 3.39034 3.75910 3.57947
# Velocity P-wave (km/s) = 6.50036 8.30085 7.45516
#
# Compressibility (1/GPa) = 0.02124939
#
# Stress axis : x y z
#
# Youngs Moduli (GPa) = 23.72767 83.94429 57.39727
#
# Poissons Ratio (x) = 0.78031 0.55706
# Poissons Ratio (y) = 0.22056 0.35095
# Poissons Ratio (z) = 0.23028 0.51327
#
# Static dielectric constant tensor:
#      x y z
#    x 1.592950 0.000000 0.000000 
#    y 0.000000 1.563700 0.000000 
#    z 0.000000 0.000000 1.593620 
# 
# From -- ./inp_files/66981.got.cif
#   From: 2010.05.17/outbox.cif.g08.bks.cpg/sg63_34_cif.got.tgz:66981.got - 2010.06.03 15:47:04.
