data_PCOD9472047
_publ_section_title
;
Structure prediction by ZEFSAII (Michael W. Deem and Ramdas Pophale) SiO2 
 PCOD9472047
Probable space group: C M C M
;
_chemical_formula_sum "Si O2"
_cell_formula_units_Z 96
_cell_length_a 22.598094
_cell_length_b 12.216549
_cell_length_c 17.748186
_cell_angle_alpha 90.000000
_cell_angle_beta 90.000000
_cell_angle_gamma 90.000000
_cell_volume 4899.754535
_symmetry_space_group_name_H-M "C M C M"
_symmetry_group_IT_number 63
_symmetry_cell_setting 'orthorhombic'
loop_
_space_group_symop_operation_xyz
x,y,z
-x,-y,1/2+z
x,-y,-z
-x,y,1/2-z
-x,-y,-z
x,y,1/2-z
-x,y,z
x,-y,1/2+z
1/2+x,1/2+y,z
1/2-x,1/2-y,1/2+z
1/2+x,1/2-y,-z
1/2-x,1/2+y,1/2-z
1/2-x,1/2-y,-z
1/2+x,1/2+y,1/2-z
1/2-x,1/2+y,z
1/2+x,1/2-y,1/2+z
loop_
_atom_site_type_symbol
_atom_site_label
_atom_site_fract_x
_atom_site_fract_y
_atom_site_fract_z
Si Si1 0.356539 0.793566 0.163855
Si Si2 0.840613 0.756109 0.450267
Si Si3 0.273552 0.633500 0.419810
Si Si4 0.068836 0.380564 0.463559
Si Si5 0.935630 0.921096 0.661283
Si Si6 0.827108 0.063363 0.840208
O O1 0.349986 0.829986 0.250000
O O2 0.297468 0.730881 0.135737
O O3 0.384826 0.879413 0.106338
O O4 0.405838 0.697402 0.159068
O O5 0.791450 0.660460 0.449784
O O6 0.817823 0.847565 0.509888
O O7 0.902389 0.707222 0.478396
O O8 0.833949 0.814686 0.370328
O O9 0.279004 0.516863 0.378979
O O10 0.069086 0.500000 0.500000
O O11 0.000000 0.354925 0.443943
O O12 0.941069 0.946332 0.750000
O O13 0.000000 0.924333 0.625754
O O14 0.888028 0.006232 0.632640
O O15 0.820718 0.057096 0.750000
#
# Coordination Sequence:
#
# PCOD9472047 Si02
#       6
#    16  16  16  16  16  16
#     4   9  17  32  57  85 107 133 177 233 286 331
#     4  10  21  36  56  77 105 147 186 221 274 335
#     4   9  19  35  54  78 110 142 177 223 277 337
#     4  10  22  39  56  78 111 149 190 233 275 327
#     4   8  14  26  46  74 106 134 160 199 255 312
#     4  10  20  33  52  81 112 139 175 224 273 326
#
# _framework density 19.592818000000001
#
# number of rings (size 3 to 8) (size 9 to 14) (size 15 to 20)
#    0.000    2.667    0.000    2.500    0.000    7.000 
#    0.000    0.833    0.000    7.000    0.000    0.000 
#    0.000    0.000    0.000    0.000    0.000    0.000 
#
# Total GULP energy -267346.776161 kJ/mol
# GULP energy per Si atom -5569.724503 kJ/mol
# Density = 1.954822 g / cm^3
# Si number density = 19.592818 Si / 1000 Ang^3
#
#
#
# Elastic Constant Matrix: (Units=GPa)
#
#
# Indices 1 2 3 4 5 6 
#
# 1 46.0393 -4.9961 12.2734 0.0000 0.0000 0.0000
# 2 -4.9961 31.7803 18.4151 0.0000 0.0000 0.0000
# 3 12.2734 18.4151 77.2683 0.0000 0.0000 0.0000
# 4 0.0000 0.0000 0.0000 30.2557 0.0000 0.0000
# 5 0.0000 0.0000 0.0000 0.0000 12.1858 0.0000
# 6 0.0000 0.0000 0.0000 0.0000 0.0000 10.5934
#
#
#
# Elastic Compliance Matrix: (Units=1/GPa)
#
#
# Indices 1 2 3 4 5 6 
#
# 1 0.023924 0.006918 -0.005449 0.000000 0.000000 0.000000
# 2 0.006918 0.038508 -0.010277 0.000000 0.000000 0.000000
# 3 -0.005449 -0.010277 0.016257 0.000000 0.000000 0.000000
# 4 0.000000 0.000000 0.000000 0.033052 0.000000 0.000000
# 5 0.000000 0.000000 0.000000 0.000000 0.082062 0.000000
# 6 0.000000 0.000000 0.000000 0.000000 0.000000 0.094398
#
#
# Mechanical properties :
#
#
# Convention : Reuss Voigt Hill
#
# Bulk Modulus (GPa) = 16.37337 22.94144 19.65741
# Shear Modulus (GPa) = 15.32925 19.23335 17.28130
#
# Velocity S-wave (km/s) = 2.80016 3.13653 2.97311
# Velocity P-wave (km/s) = 4.33930 4.98514 4.67339
#
# Compressibility (1/GPa) = 0.06107477
#
# Stress axis : x y z
#
# Youngs Moduli (GPa) = 41.79909 25.96840 61.51347
#
# Poissons Ratio (x) = -0.17966 0.33518
# Poissons Ratio (y) = -0.28918 0.63214
# Poissons Ratio (z) = 0.22776 0.26686
#
# Static dielectric constant tensor:
#      x y z
#    x 1.754870 0.000000 0.000000 
#    y 0.000000 1.699780 0.000000 
#    z 0.000000 0.000000 1.736390 
# 
# From -- ./inp_files/48016.got.cif
#   From: 2010.05.17/outbox.cif.g08.bks.cpg/sg63_25_cif.got.tgz:48016.got - 2010.06.03 15:47:04.
