data_PCOD9472153
_publ_section_title
;
Structure prediction by ZEFSAII (Michael W. Deem and Ramdas Pophale) SiO2 
 PCOD9472153
Probable space group: C M C M
;
_chemical_formula_sum "Si O2"
_cell_formula_units_Z 96
_cell_length_a 20.559811
_cell_length_b 18.675346
_cell_length_c 14.319510
_cell_angle_alpha 90.000000
_cell_angle_beta 90.000000
_cell_angle_gamma 90.000000
_cell_volume 5498.141743
_symmetry_space_group_name_H-M "C M C M"
_symmetry_group_IT_number 63
_symmetry_cell_setting 'orthorhombic'
loop_
_space_group_symop_operation_xyz
x,y,z
-x,-y,1/2+z
x,-y,-z
-x,y,1/2-z
-x,-y,-z
x,y,1/2-z
-x,y,z
x,-y,1/2+z
1/2+x,1/2+y,z
1/2-x,1/2-y,1/2+z
1/2+x,1/2-y,-z
1/2-x,1/2+y,1/2-z
1/2-x,1/2-y,-z
1/2+x,1/2+y,1/2-z
1/2-x,1/2+y,z
1/2+x,1/2-y,1/2+z
loop_
_atom_site_type_symbol
_atom_site_label
_atom_site_fract_x
_atom_site_fract_y
_atom_site_fract_z
Si Si1 0.069525 0.552231 0.638203
Si Si2 0.211502 0.556823 0.638161
Si Si3 0.788149 0.323183 0.983890
Si Si4 0.571767 0.200702 0.526352
Si Si5 0.203133 0.925403 0.638151
Si Si6 0.926649 0.848907 0.861828
O O1 0.068403 0.557864 0.750000
O O2 0.140704 0.520825 0.615230
O O3 0.070118 0.631328 0.593695
O O4 0.000000 0.517390 0.610048
O O5 0.213236 0.570230 0.750000
O O6 0.215621 0.628481 0.577713
O O7 0.269463 0.503270 0.612344
O O8 0.864209 0.308802 0.964189
O O9 0.750000 0.250000 0.000000
O O10 0.752391 0.368036 0.904606
O O11 0.500000 0.204664 0.481061
O O12 0.581110 0.272747 0.586880
O O13 0.205562 0.922177 0.750000
O O14 0.130449 0.902963 0.609102
O O15 0.921555 0.837455 0.750000
O O16 0.000000 0.875055 0.881138
#
# Coordination Sequence:
#
# PCOD9472153 Si02
#       6
#    16  16  16  16  16  16
#     4   8  13  23  42  68  95 122 154 195 246 297
#     4   9  19  33  50  72 102 135 166 204 252 301
#     4  11  20  32  51  76  99 133 168 208 252 301
#     4   9  16  27  44  69 100 126 158 204 252 296
#     4  10  20  34  50  72 103 135 167 206 250 301
#     4   9  16  27  47  73  99 126 160 209 263 302
#
# _framework density 17.460445
#
# number of rings (size 3 to 8) (size 9 to 14) (size 15 to 20)
#    0.000    2.667    1.667    1.000    0.000    3.333 
#    0.000    0.833    0.000    8.500    0.000    0.000 
#    0.000    0.000    0.000    0.000    0.000    0.000 
#
# Total GULP energy -267218.889423 kJ/mol
# GULP energy per Si atom -5567.060196 kJ/mol
# Density = 1.742070 g / cm^3
# Si number density = 17.460445 Si / 1000 Ang^3
#
#
#
# Elastic Constant Matrix: (Units=GPa)
#
#
# Indices 1 2 3 4 5 6 
#
# 1 161.5752 40.6520 17.0915 0.0000 0.0000 0.0000
# 2 40.6520 46.7033 -0.0206 0.0000 0.0000 0.0000
# 3 17.0915 -0.0206 21.7364 0.0000 0.0000 0.0000
# 4 0.0000 0.0000 0.0000 15.6714 0.0000 0.0000
# 5 0.0000 0.0000 0.0000 0.0000 21.5959 0.0000
# 6 0.0000 0.0000 0.0000 0.0000 0.0000 27.6848
#
#
#
# Elastic Compliance Matrix: (Units=1/GPa)
#
#
# Indices 1 2 3 4 5 6 
#
# 1 0.008871 -0.007725 -0.006983 0.000000 0.000000 0.000000
# 2 -0.007725 0.028139 0.006101 0.000000 0.000000 0.000000
# 3 -0.006983 0.006101 0.051502 0.000000 0.000000 0.000000
# 4 0.000000 0.000000 0.000000 0.063811 0.000000 0.000000
# 5 0.000000 0.000000 0.000000 0.000000 0.046305 0.000000
# 6 0.000000 0.000000 0.000000 0.000000 0.000000 0.036121
#
#
# Mechanical properties :
#
#
# Convention : Reuss Voigt Hill
#
# Bulk Modulus (GPa) = 14.02564 38.38452 26.20508
# Shear Modulus (GPa) = 18.13376 24.47653 21.30514
#
# Velocity S-wave (km/s) = 3.22617 3.74816 3.49692
# Velocity P-wave (km/s) = 4.68271 6.38459 5.59870
#
# Compressibility (1/GPa) = 0.07129801
#
# Stress axis : x y z
#
# Youngs Moduli (GPa) = 112.72300 35.53848 19.41664
#
# Poissons Ratio (x) = 0.27453 0.13558
# Poissons Ratio (y) = 0.87078 -0.11846
# Poissons Ratio (z) = 0.78713 -0.21681
#
# Static dielectric constant tensor:
#      x y z
#    x 1.693770 0.000000 0.000000 
#    y 0.000000 1.575460 0.000000 
#    z 0.000000 0.000000 1.586510 
# 
# From -- ./inp_files/35352.got.cif
#   From: 2010.05.17/outbox.cif.g08.bks.cpg/sg63_18_cif.got.tgz:35352.got - 2010.06.03 15:47:04.
