data_PCOD9472864
_publ_section_title
;
Structure prediction by ZEFSAII (Michael W. Deem and Ramdas Pophale) SiO2 
 PCOD9472864
Probable space group: C M C M
;
_chemical_formula_sum "Si O2"
_cell_formula_units_Z 96
_cell_length_a 7.833039
_cell_length_b 30.759322
_cell_length_c 19.929393
_cell_angle_alpha 90.000000
_cell_angle_beta 90.000000
_cell_angle_gamma 90.000000
_cell_volume 4801.767399
_symmetry_space_group_name_H-M "C M C M"
_symmetry_group_IT_number 63
_symmetry_cell_setting 'orthorhombic'
loop_
_space_group_symop_operation_xyz
x,y,z
-x,-y,1/2+z
x,-y,-z
-x,y,1/2-z
-x,-y,-z
x,y,1/2-z
-x,y,z
x,-y,1/2+z
1/2+x,1/2+y,z
1/2-x,1/2-y,1/2+z
1/2+x,1/2-y,-z
1/2-x,1/2+y,1/2-z
1/2-x,1/2-y,-z
1/2+x,1/2+y,1/2-z
1/2-x,1/2+y,z
1/2+x,1/2-y,1/2+z
loop_
_atom_site_type_symbol
_atom_site_label
_atom_site_fract_x
_atom_site_fract_y
_atom_site_fract_z
Si Si1 0.701370 0.612703 0.937321
Si Si2 0.791815 0.781642 0.826852
Si Si3 0.293518 0.182817 0.673321
Si Si4 0.698601 0.014743 0.572251
Si Si5 0.797942 0.056437 0.174670
Si Si6 0.790674 0.862592 0.914333
O O1 0.500000 0.604482 0.944109
O O2 0.730471 0.647895 0.879647
O O3 0.783138 0.566271 0.921158
O O4 0.764851 0.630567 0.009104
O O5 0.740701 0.791917 0.750000
O O6 0.738115 0.732297 0.842584
O O7 0.734226 0.818066 0.878994
O O8 0.000000 0.781845 0.827218
O O9 0.240205 0.173185 0.750000
O O10 0.500000 0.182360 0.672168
O O11 0.500000 0.002729 0.571827
O O12 0.772930 0.000000 0.500000
O O13 0.776480 0.987740 0.633149
O O14 0.726308 0.054548 0.250000
O O15 0.731374 0.096518 0.130212
O O16 0.000000 0.064323 0.180580
O O17 0.000000 0.862146 0.914577
#
# Coordination Sequence:
#
# PCOD9472864 Si02
#       6
#    16  16  16  16  16  16
#     4  11  22  35  56  82 110 143 178 224 277 324
#     4   8  14  28  52  79 108 144 182 219 263 316
#     4   9  19  36  56  78 107 144 186 229 267 313
#     4  11  23  39  58  78 106 146 185 222 271 326
#     4  10  20  35  58  86 113 142 178 224 274 324
#     4   9  17  30  51  82 114 141 175 219 266 321
#
# _framework density 19.992640000000002
#
# number of rings (size 3 to 8) (size 9 to 14) (size 15 to 20)
#    0.000    2.333    1.667    2.500    0.000    4.667 
#    0.000    0.000    0.000    2.000    0.000    2.333 
#    0.000    0.000    0.000    0.000    0.000    0.000 
#
# Total GULP energy -267962.799724 kJ/mol
# GULP energy per Si atom -5582.558328 kJ/mol
# Density = 1.994714 g / cm^3
# Si number density = 19.992640 Si / 1000 Ang^3
#
#
#
# Elastic Constant Matrix: (Units=GPa)
#
#
# Indices 1 2 3 4 5 6 
#
# 1 21.1977 -11.4998 -0.4349 0.0000 0.0000 0.0000
# 2 -11.4998 134.0276 93.2195 0.0000 0.0000 0.0000
# 3 -0.4349 93.2195 156.8173 0.0000 0.0000 0.0000
# 4 0.0000 0.0000 0.0000 34.7915 0.0000 0.0000
# 5 0.0000 0.0000 0.0000 0.0000 12.4997 0.0000
# 6 0.0000 0.0000 0.0000 0.0000 0.0000 -7.2023
#
#
#
# Elastic Compliance Matrix: (Units=1/GPa)
#
#
# Indices 1 2 3 4 5 6 
#
# 1 0.051049 0.007300 -0.004198 0.000000 0.000000 0.000000
# 2 0.007300 0.013764 -0.008162 0.000000 0.000000 0.000000
# 3 -0.004198 -0.008162 0.011217 0.000000 0.000000 0.000000
# 4 0.000000 0.000000 0.000000 0.028743 0.000000 0.000000
# 5 0.000000 0.000000 0.000000 0.000000 0.080002 0.000000
# 6 0.000000 0.000000 0.000000 0.000000 0.000000 -0.138845
#
#
# Mechanical properties :
#
#
# Convention : Reuss Voigt Hill
#
# Bulk Modulus (GPa) = 15.17211 52.73471 33.95341
# Shear Modulus (GPa) = 64.08660 23.40163 43.74411
#
# Velocity S-wave (km/s) = 5.66786 3.42499 4.68269
# Velocity P-wave (km/s) = 7.10199 6.48653 6.80122
#
# Compressibility (1/GPa) = 0.06591041
#
# Stress axis : x y z
#
# Youngs Moduli (GPa) = 19.58904 72.65192 89.15036
#
# Poissons Ratio (x) = -0.53034 0.37423
# Poissons Ratio (y) = -0.14299 0.72763
# Poissons Ratio (z) = 0.08223 0.59298
#
# Static dielectric constant tensor:
#      x y z
#    x 1.745390 0.000000 0.000000 
#    y 0.000000 1.665820 0.000000 
#    z 0.000000 0.000000 1.694890 
# 
# From -- ./inp_files/51399.got.cif
#   From: 2010.05.17/outbox.cif.g08.bks.cpg/sg63_26_cif.got.tgz:51399.got - 2010.06.03 15:47:04.
