data_PCOD9472502
_publ_section_title
;
Structure prediction by ZEFSAII (Michael W. Deem and Ramdas Pophale) SiO2 
 PCOD9472502
Probable space group: C M C M
;
_chemical_formula_sum "Si O2"
_cell_formula_units_Z 80
_cell_length_a 26.849747
_cell_length_b 16.643102
_cell_length_c 9.730612
_cell_angle_alpha 90.000000
_cell_angle_beta 90.000000
_cell_angle_gamma 90.000000
_cell_volume 4348.251229
_symmetry_space_group_name_H-M "C M C M"
_symmetry_group_IT_number 63
_symmetry_cell_setting 'orthorhombic'
loop_
_space_group_symop_operation_xyz
x,y,z
-x,-y,1/2+z
x,-y,-z
-x,y,1/2-z
-x,-y,-z
x,y,1/2-z
-x,y,z
x,-y,1/2+z
1/2+x,1/2+y,z
1/2-x,1/2-y,1/2+z
1/2+x,1/2-y,-z
1/2-x,1/2+y,1/2-z
1/2-x,1/2-y,-z
1/2+x,1/2+y,1/2-z
1/2-x,1/2+y,z
1/2+x,1/2-y,1/2+z
loop_
_atom_site_type_symbol
_atom_site_label
_atom_site_fract_x
_atom_site_fract_y
_atom_site_fract_z
Si Si1 0.145362 0.072770 0.910468
Si Si2 0.560939 0.066386 0.750000
Si Si3 0.441343 0.360806 0.906965
Si Si4 0.899843 0.313230 0.026179
Si Si5 0.058737 0.380221 0.750000
Si Si6 0.699412 0.744582 0.913855
O O1 0.139921 0.052340 0.750000
O O2 0.178106 0.153634 0.919112
O O3 0.092748 0.093772 0.982953
O O4 0.167305 0.000000 0.000000
O O5 0.500000 0.073313 0.750000
O O6 0.584542 0.112840 0.621426
O O7 0.575635 0.972983 0.750000
O O8 0.432761 0.389186 0.750000
O O9 0.500000 0.366666 0.936423
O O10 0.423813 0.267982 0.913876
O O11 0.923621 0.331707 0.880465
O O12 0.841890 0.298097 0.993294
O O13 0.000000 0.384702 0.750000
O O14 0.704038 0.765484 0.750000
O O15 0.750000 0.750000 0.000000
#
# Coordination Sequence:
#
# PCOD9472502 Si02
#       6
#    16   8  16  16   8  16
#     4  10  22  40  61  89 120 151 192 238 294 354
#     4  11  22  36  57  88 125 171 212 245 304 364
#     4  10  20  34  56  85 117 158 201 240 288 348
#     4  11  21  38  58  88 121 158 208 253 297 364
#     4  11  22  36  57  84 127 171 204 255 306 360
#     4  10  23  42  67  91 114 153 202 251 308 361
#
# _framework density 18.398199999999999
#
# number of rings (size 3 to 8) (size 9 to 14) (size 15 to 20)
#    0.000    1.600    2.000    3.000    2.800    4.000 
#    0.000    2.000    0.000    0.000    0.000    0.000 
#    0.000    0.000    0.000    0.000    0.000    0.000 
#
# Total GULP energy -223261.425359 kJ/mol
# GULP energy per Si atom -5581.535634 kJ/mol
# Density = 1.835632 g / cm^3
# Si number density = 18.398200 Si / 1000 Ang^3
#
#
#
# Elastic Constant Matrix: (Units=GPa)
#
#
# Indices 1 2 3 4 5 6 
#
# 1 106.8447 25.0373 53.0705 0.0000 0.0000 0.0000
# 2 25.0373 41.9511 13.7396 0.0000 0.0000 0.0000
# 3 53.0705 13.7396 136.2012 0.0000 0.0000 0.0000
# 4 0.0000 0.0000 0.0000 -464.9545 0.0000 0.0000
# 5 0.0000 0.0000 0.0000 0.0000 29.4604 0.0000
# 6 0.0000 0.0000 0.0000 0.0000 0.0000 15.9724
#
#
#
# Elastic Compliance Matrix: (Units=1/GPa)
#
#
# Indices 1 2 3 4 5 6 
#
# 1 0.013052 -0.006334 -0.004447 0.000000 0.000000 0.000000
# 2 -0.006334 0.027725 -0.000329 0.000000 0.000000 0.000000
# 3 -0.004447 -0.000329 0.009108 0.000000 0.000000 0.000000
# 4 0.000000 0.000000 0.000000 -0.002151 0.000000 0.000000
# 5 0.000000 0.000000 0.000000 0.000000 0.033944 0.000000
# 6 0.000000 0.000000 0.000000 0.000000 0.000000 0.062608
#
#
# Mechanical properties :
#
#
# Convention : Reuss Voigt Hill
#
# Bulk Modulus (GPa) = 36.14472 52.07687 44.11080
# Shear Modulus (GPa) = 28.45314 -71.02770 -21.28728
#
# Velocity S-wave (km/s) = 3.93685 -6.22010 -3.40521
# Velocity P-wave (km/s) = 6.35244 4.81864 2.92696
#
# Compressibility (1/GPa) = 0.02766656
#
# Stress axis : x y z
#
# Youngs Moduli (GPa) = 76.61457 36.06848 109.79369
#
# Poissons Ratio (x) = 0.22844 0.48824
# Poissons Ratio (y) = 0.48524 0.03612
# Poissons Ratio (z) = 0.34070 0.01187
#
# Static dielectric constant tensor:
#      x y z
#    x 1.618660 0.000000 0.000000 
#    y 0.000000 1.652060 0.000000 
#    z 0.000000 0.000000 1.745810 
# 
# From -- ./inp_files/12133.got.cif
#   From: 2010.05.17/outbox.cif.g08.bks.cpg/sg63_7_cif.got.tgz:12133.got - 2010.06.03 15:47:04.
