data_PCOD9472479
_publ_section_title
;
Structure prediction by ZEFSAII (Michael W. Deem and Ramdas Pophale) SiO2 
 PCOD9472479
Probable space group: C M C M
;
_chemical_formula_sum "Si O2"
_cell_formula_units_Z 96
_cell_length_a 23.578990
_cell_length_b 7.413076
_cell_length_c 27.413630
_cell_angle_alpha 90.000000
_cell_angle_beta 90.000000
_cell_angle_gamma 90.000000
_cell_volume 4791.706376
_symmetry_space_group_name_H-M "C M C M"
_symmetry_group_IT_number 63
_symmetry_cell_setting 'orthorhombic'
loop_
_space_group_symop_operation_xyz
x,y,z
-x,-y,1/2+z
x,-y,-z
-x,y,1/2-z
-x,-y,-z
x,y,1/2-z
-x,y,z
x,-y,1/2+z
1/2+x,1/2+y,z
1/2-x,1/2-y,1/2+z
1/2+x,1/2-y,-z
1/2-x,1/2+y,1/2-z
1/2-x,1/2-y,-z
1/2+x,1/2+y,1/2-z
1/2-x,1/2+y,z
1/2+x,1/2-y,1/2+z
loop_
_atom_site_type_symbol
_atom_site_label
_atom_site_fract_x
_atom_site_fract_y
_atom_site_fract_z
Si Si1 0.873652 0.564744 0.093476
Si Si2 0.836017 0.628994 0.305046
Si Si3 0.345986 0.648918 0.098127
Si Si4 0.292313 0.460518 0.695183
Si Si5 0.232056 0.612556 0.459406
Si Si6 0.432727 0.601835 0.948698
O O1 0.879853 0.587112 0.151686
O O2 0.866110 0.350752 0.083790
O O3 0.811642 0.651027 0.082531
O O4 0.914610 0.689285 0.060611
O O5 0.855689 0.587547 0.250000
O O6 0.775338 0.530395 0.313155
O O7 0.818789 0.840031 0.306663
O O8 0.322551 0.651205 0.152913
O O9 0.292351 0.573493 0.066194
O O10 0.397453 0.512351 0.090699
O O11 0.299940 0.386405 0.750000
O O12 0.196964 0.500000 0.500000
O O13 0.250000 0.750000 0.500000
O O14 0.500000 0.587092 0.943381
O O15 0.417450 0.500000 0.000000
#
# Coordination Sequence:
#
# PCOD9472479 Si02
#       6
#    16  16  16  16  16  16
#     4  12  24  39  64  94 125 166 210 263 320 379
#     4  10  20  35  56  89 134 171 203 251 315 388
#     4  12  23  39  65  92 127 168 208 263 319 383
#     4  10  20  34  55  90 134 171 204 248 314 391
#     4  12  23  35  53  90 132 161 200 251 321 384
#     4  11  27  48  66  88 124 171 223 268 311 372
#
# _framework density 20.034617999999998
#
# number of rings (size 3 to 8) (size 9 to 14) (size 15 to 20)
#    0.000    0.833    5.000    3.500    0.000    2.667 
#    0.000    1.667    0.000    2.000    0.000    2.333 
#    0.000    0.000    0.000    0.000    0.000    0.000 
#
# Total GULP energy -267204.903250 kJ/mol
# GULP energy per Si atom -5566.768818 kJ/mol
# Density = 1.998902 g / cm^3
# Si number density = 20.034618 Si / 1000 Ang^3
#
#
#
# Elastic Constant Matrix: (Units=GPa)
#
#
# Indices 1 2 3 4 5 6 
#
# 1 67.7160 13.5957 23.2455 0.0000 0.0000 0.0000
# 2 13.5957 67.2742 18.7464 0.0000 0.0000 0.0000
# 3 23.2455 18.7464 116.7365 0.0000 0.0000 0.0000
# 4 0.0000 0.0000 0.0000 27.8243 0.0000 0.0000
# 5 0.0000 0.0000 0.0000 0.0000 16.5738 0.0000
# 6 0.0000 0.0000 0.0000 0.0000 0.0000 20.3374
#
#
#
# Elastic Compliance Matrix: (Units=1/GPa)
#
#
# Indices 1 2 3 4 5 6 
#
# 1 0.016241 -0.002493 -0.002834 0.000000 0.000000 0.000000
# 2 -0.002493 0.015943 -0.002064 0.000000 0.000000 0.000000
# 3 -0.002834 -0.002064 0.009462 0.000000 0.000000 0.000000
# 4 0.000000 0.000000 0.000000 0.035940 0.000000 0.000000
# 5 0.000000 0.000000 0.000000 0.000000 0.060336 0.000000
# 6 0.000000 0.000000 0.000000 0.000000 0.000000 0.049171
#
#
# Mechanical properties :
#
#
# Convention : Reuss Voigt Hill
#
# Bulk Modulus (GPa) = 37.22214 40.32245 38.77229
# Shear Modulus (GPa) = 23.71594 26.02301 24.86948
#
# Velocity S-wave (km/s) = 3.44430 3.60794 3.52707
# Velocity P-wave (km/s) = 5.86829 6.12588 5.99847
#
# Compressibility (1/GPa) = 0.02686573
#
# Stress axis : x y z
#
# Youngs Moduli (GPa) = 61.57351 62.72183 105.68557
#
# Poissons Ratio (x) = 0.15634 0.29948
# Poissons Ratio (y) = 0.15347 0.21813
# Poissons Ratio (z) = 0.17448 0.12946
#
# Static dielectric constant tensor:
#      x y z
#    x 1.644780 0.000000 0.000000 
#    y 0.000000 2.871560 0.000000 
#    z 0.000000 0.000000 1.764850 
# 
# From -- ./inp_files/70270.got.cif
#   From: 2010.05.17/outbox.cif.g08.bks.cpg/sg63_36_cif.got.tgz:70270.got - 2010.06.03 15:47:04.
