data_PCOD9472762
_publ_section_title
;
Structure prediction by ZEFSAII (Michael W. Deem and Ramdas Pophale) SiO2 
 PCOD9472762
Probable space group: C M C M
;
_chemical_formula_sum "Si O2"
_cell_formula_units_Z 64
_cell_length_a 8.659674
_cell_length_b 15.067162
_cell_length_c 25.576234
_cell_angle_alpha 90.000000
_cell_angle_beta 90.000000
_cell_angle_gamma 90.000000
_cell_volume 3337.102893
_symmetry_space_group_name_H-M "C M C M"
_symmetry_group_IT_number 63
_symmetry_cell_setting 'orthorhombic'
loop_
_space_group_symop_operation_xyz
x,y,z
-x,-y,1/2+z
x,-y,-z
-x,y,1/2-z
-x,-y,-z
x,y,1/2-z
-x,y,z
x,-y,1/2+z
1/2+x,1/2+y,z
1/2-x,1/2-y,1/2+z
1/2+x,1/2-y,-z
1/2-x,1/2+y,1/2-z
1/2-x,1/2-y,-z
1/2+x,1/2+y,1/2-z
1/2-x,1/2+y,z
1/2+x,1/2-y,1/2+z
loop_
_atom_site_type_symbol
_atom_site_label
_atom_site_fract_x
_atom_site_fract_y
_atom_site_fract_z
Si Si1 0.322755 0.106330 0.250000
Si Si2 0.812196 0.406726 0.636746
Si Si3 0.315145 0.395695 0.139404
Si Si4 0.686268 0.754536 0.558152
Si Si5 0.177095 0.389651 0.250000
O O1 0.500000 0.138493 0.250000
O O2 0.255060 0.129592 0.306592
O O3 0.323638 0.998139 0.250000
O O4 0.752491 0.506396 0.630317
O O5 0.765968 0.342696 0.589758
O O6 0.000000 0.409210 0.639445
O O7 0.500000 0.400246 0.139989
O O8 0.265462 0.328736 0.093900
O O9 0.259611 0.363173 0.196425
O O10 0.500000 0.754339 0.555986
O O11 0.750000 0.750000 0.500000
O O12 0.000000 0.360402 0.250000
#
# Coordination Sequence:
#
# PCOD9472762 Si02
#       5
#     8  16  16  16   8
#     4   7  12  26  51  77 100 126 166 211 251 307
#     4   9  18  35  57  80 106 143 181 216 268 334
#     4  10  20  35  56  84 112 139 175 227 278 317
#     4  10  23  39  55  77 108 146 189 230 271 319
#     4   9  17  32  55  83 112 144 176 211 263 333
#
# _framework density 19.178311000000001
#
# number of rings (size 3 to 8) (size 9 to 14) (size 15 to 20)
#    0.000    2.750    0.000    2.625    0.000    5.000 
#    0.000    8.750    0.000    0.000    0.000    0.000 
#    0.000    0.000    0.000    0.000    0.000    0.000 
#
# Total GULP energy -178497.016745 kJ/mol
# GULP energy per Si atom -5578.031773 kJ/mol
# Density = 1.913466 g / cm^3
# Si number density = 19.178311 Si / 1000 Ang^3
#
#
#
# Elastic Constant Matrix: (Units=GPa)
#
#
# Indices 1 2 3 4 5 6 
#
# 1 26.9970 25.0276 38.9065 0.0000 0.0000 0.0000
# 2 25.0276 101.9703 94.8582 0.0000 0.0000 0.0000
# 3 38.9065 94.8582 225.2038 0.0000 0.0000 0.0000
# 4 0.0000 0.0000 0.0000 33.6382 0.0000 0.0000
# 5 0.0000 0.0000 0.0000 0.0000 35.2435 0.0000
# 6 0.0000 0.0000 0.0000 0.0000 0.0000 20.0597
#
#
#
# Elastic Compliance Matrix: (Units=1/GPa)
#
#
# Indices 1 2 3 4 5 6 
#
# 1 0.052434 -0.007305 -0.005982 0.000000 0.000000 0.000000
# 2 -0.007305 0.017143 -0.005959 0.000000 0.000000 0.000000
# 3 -0.005982 -0.005959 0.007984 0.000000 0.000000 0.000000
# 4 0.000000 0.000000 0.000000 0.029728 0.000000 0.000000
# 5 0.000000 0.000000 0.000000 0.000000 0.028374 0.000000
# 6 0.000000 0.000000 0.000000 0.000000 0.000000 0.049851
#
#
# Mechanical properties :
#
#
# Convention : Reuss Voigt Hill
#
# Bulk Modulus (GPa) = 25.59534 74.63953 50.11744
# Shear Modulus (GPa) = 21.09464 30.81354 25.95409
#
# Velocity S-wave (km/s) = 3.32010 4.01270 3.68272
# Velocity P-wave (km/s) = 5.29834 7.77639 6.65374
#
# Compressibility (1/GPa) = 0.03906961
#
# Stress axis : x y z
#
# Youngs Moduli (GPa) = 19.07175 58.33340 125.25532
#
# Poissons Ratio (x) = 0.42612 0.74923
# Poissons Ratio (y) = 0.13932 0.74636
# Poissons Ratio (z) = 0.11408 0.34759
#
# Static dielectric constant tensor:
#      x y z
#    x 1.658230 0.000000 0.000000 
#    y 0.000000 1.673010 0.000000 
#    z 0.000000 0.000000 1.667090 
# 
# From -- ./inp_files/59099.got.cif
#   From: 2010.05.17/outbox.cif.g08.bks.cpg/sg63_30_cif.got.tgz:59099.got - 2010.06.03 15:47:04.
