data_PCOD9472432
_publ_section_title
;
Structure prediction by ZEFSAII (Michael W. Deem and Ramdas Pophale) SiO2 
 PCOD9472432
Probable space group: C M C M
;
_chemical_formula_sum "Si O2"
_cell_formula_units_Z 96
_cell_length_a 8.940610
_cell_length_b 21.034393
_cell_length_c 28.719769
_cell_angle_alpha 90.000000
_cell_angle_beta 90.000000
_cell_angle_gamma 90.000000
_cell_volume 5401.048500
_symmetry_space_group_name_H-M "C M C M"
_symmetry_group_IT_number 63
_symmetry_cell_setting 'orthorhombic'
loop_
_space_group_symop_operation_xyz
x,y,z
-x,-y,1/2+z
x,-y,-z
-x,y,1/2-z
-x,-y,-z
x,y,1/2-z
-x,y,z
x,-y,1/2+z
1/2+x,1/2+y,z
1/2-x,1/2-y,1/2+z
1/2+x,1/2-y,-z
1/2-x,1/2+y,1/2-z
1/2-x,1/2-y,-z
1/2+x,1/2+y,1/2-z
1/2-x,1/2+y,z
1/2+x,1/2-y,1/2+z
loop_
_atom_site_type_symbol
_atom_site_label
_atom_site_fract_x
_atom_site_fract_y
_atom_site_fract_z
Si Si1 0.679526 0.874439 0.890881
Si Si2 0.821253 0.495658 0.445347
Si Si3 0.321156 0.623018 0.607349
Si Si4 0.678463 0.070785 0.696350
Si Si5 0.177979 0.068379 0.303628
Si Si6 0.319582 0.250149 0.448780
O O1 0.500000 0.872297 0.884465
O O2 0.757607 0.883045 0.841224
O O3 0.725186 0.812252 0.919606
O O4 0.714719 0.937736 0.920555
O O5 0.787120 0.500000 0.500000
O O6 0.735571 0.437992 0.421308
O O7 0.000000 0.484870 0.440304
O O8 0.500000 0.621505 0.611444
O O9 0.248983 0.617096 0.658326
O O10 0.277410 0.686614 0.579692
O O11 0.711701 0.088142 0.750000
O O12 0.500000 0.067758 0.690510
O O13 0.745383 0.000276 0.688357
O O14 0.208934 0.086564 0.250000
O O15 0.000000 0.061436 0.309189
O O16 0.500000 0.249139 0.453192
O O17 0.250000 0.250000 0.500000
#
# Coordination Sequence:
#
# PCOD9472432 Si02
#       6
#    16  16  16  16  16  16
#     4  10  20  36  57  81 111 149 192 230 274 335
#     4  10  20  34  55  81 108 143 188 236 281 331
#     4  11  22  36  56  84 116 147 186 236 286 334
#     4  10  20  35  57  84 113 148 189 230 279 340
#     4  10  20  34  55  85 117 146 180 229 288 338
#     4  10  23  41  59  82 113 154 194 231 280 335
#
# _framework density 17.774325999999999
#
# number of rings (size 3 to 8) (size 9 to 14) (size 15 to 20)
#    0.000    1.833    1.667    2.500    0.000    5.667 
#    0.000    0.833    0.000    5.000    0.000    0.000 
#    0.000    0.000    0.000    0.000    0.000    0.000 
#
# Total GULP energy -268108.753517 kJ/mol
# GULP energy per Si atom -5585.599032 kJ/mol
# Density = 1.773387 g / cm^3
# Si number density = 17.774326 Si / 1000 Ang^3
#
#
#
# Elastic Constant Matrix: (Units=GPa)
#
#
# Indices 1 2 3 4 5 6 
#
# 1 44.1585 54.3406 64.6949 0.0000 0.0000 0.0000
# 2 54.3406 139.7187 95.6329 0.0000 0.0000 0.0000
# 3 64.6949 95.6329 176.0582 0.0000 0.0000 0.0000
# 4 0.0000 0.0000 0.0000 32.9962 0.0000 0.0000
# 5 0.0000 0.0000 0.0000 0.0000 35.3778 0.0000
# 6 0.0000 0.0000 0.0000 0.0000 0.0000 24.3830
#
#
#
# Elastic Compliance Matrix: (Units=1/GPa)
#
#
# Indices 1 2 3 4 5 6 
#
# 1 0.061782 -0.013514 -0.015362 0.000000 0.000000 0.000000
# 2 -0.013514 0.014349 -0.002828 0.000000 0.000000 0.000000
# 3 -0.015362 -0.002828 0.012861 0.000000 0.000000 0.000000
# 4 0.000000 0.000000 0.000000 0.030307 0.000000 0.000000
# 5 0.000000 0.000000 0.000000 0.000000 0.028266 0.000000
# 6 0.000000 0.000000 0.000000 0.000000 0.000000 0.041012
#
#
# Mechanical properties :
#
#
# Convention : Reuss Voigt Hill
#
# Bulk Modulus (GPa) = 39.08736 87.69691 63.39214
# Shear Modulus (GPa) = 19.19279 28.23587 23.71433
#
# Velocity S-wave (km/s) = 3.28960 3.99002 3.65662
# Velocity P-wave (km/s) = 6.03882 8.40674 7.31917
#
# Compressibility (1/GPa) = 0.02558372
#
# Stress axis : x y z
#
# Youngs Moduli (GPa) = 16.18589 69.69034 77.75291
#
# Poissons Ratio (x) = 0.94180 1.19444
# Poissons Ratio (y) = 0.21874 0.21992
# Poissons Ratio (z) = 0.24865 0.19711
#
# Static dielectric constant tensor:
#      x y z
#    x 1.596760 0.000000 0.000000 
#    y 0.000000 1.580100 0.000000 
#    z 0.000000 0.000000 1.606590 
# 
# From -- ./inp_files/66904.got.cif
#   From: 2010.05.17/outbox.cif.g08.bks.cpg/sg63_34_cif.got.tgz:66904.got - 2010.06.03 15:47:04.
