data_PCOD9472642
_publ_section_title
;
Structure prediction by ZEFSAII (Michael W. Deem and Ramdas Pophale) SiO2 
 PCOD9472642
Probable space group: C M C M
;
_chemical_formula_sum "Si O2"
_cell_formula_units_Z 64
_cell_length_a 7.773594
_cell_length_b 26.051393
_cell_length_c 14.984604
_cell_angle_alpha 90.000000
_cell_angle_beta 90.000000
_cell_angle_gamma 90.000000
_cell_volume 3034.576395
_symmetry_space_group_name_H-M "C M C M"
_symmetry_group_IT_number 63
_symmetry_cell_setting 'orthorhombic'
loop_
_space_group_symop_operation_xyz
x,y,z
-x,-y,1/2+z
x,-y,-z
-x,y,1/2-z
-x,-y,-z
x,y,1/2-z
-x,y,z
x,-y,1/2+z
1/2+x,1/2+y,z
1/2-x,1/2-y,1/2+z
1/2+x,1/2-y,-z
1/2-x,1/2+y,1/2-z
1/2-x,1/2-y,-z
1/2+x,1/2+y,1/2-z
1/2-x,1/2+y,z
1/2+x,1/2-y,1/2+z
loop_
_atom_site_type_symbol
_atom_site_label
_atom_site_fract_x
_atom_site_fract_y
_atom_site_fract_z
Si Si1 0.293182 0.249372 0.394585
Si Si2 0.704382 0.137757 0.392151
Si Si3 0.204308 0.439998 0.250000
Si Si4 0.211522 0.443624 0.750000
Si Si5 0.795238 0.139471 0.598713
O O1 0.500000 0.248348 0.381602
O O2 0.250000 0.250000 0.500000
O O3 0.226010 0.193987 0.362981
O O4 0.230190 0.305286 0.363470
O O5 0.500000 0.139664 0.376148
O O6 0.768800 0.089820 0.335287
O O7 0.730155 0.131835 0.498010
O O8 0.273976 0.497951 0.250000
O O9 0.254859 0.407037 0.336271
O O10 0.000000 0.443699 0.250000
O O11 0.000000 0.445679 0.750000
O O12 0.000000 0.144117 0.592245
#
# Coordination Sequence:
#
# PCOD9472642 Si02
#       5
#    16  16   8   8  16
#     4   8  15  28  51  79 106 132 163 203 254 311
#     4   9  17  34  58  81 104 136 173 213 259 309
#     4  11  23  38  53  73 101 139 184 223 254 300
#     4   9  20  36  55  77 101 133 182 227 254 292
#     4  10  20  35  54  80 110 138 167 210 264 316
#
# _framework density 21.090257999999999
#
# number of rings (size 3 to 8) (size 9 to 14) (size 15 to 20)
#    0.000    2.750    0.000    1.125    0.000    3.000 
#    0.000   11.875    0.000    0.000    0.000    0.000 
#    0.000    0.000    0.000    0.000    0.000    0.000 
#
# Total GULP energy -178396.876708 kJ/mol
# GULP energy per Si atom -5574.902397 kJ/mol
# Density = 2.104226 g / cm^3
# Si number density = 21.090258 Si / 1000 Ang^3
#
#
#
# Elastic Constant Matrix: (Units=GPa)
#
#
# Indices 1 2 3 4 5 6 
#
# 1 22.0436 0.0684 -13.4920 0.0000 0.0000 0.0000
# 2 0.0684 258.9164 90.1275 0.0000 0.0000 0.0000
# 3 -13.4920 90.1275 96.8696 0.0000 0.0000 0.0000
# 4 0.0000 0.0000 0.0000 35.7744 0.0000 0.0000
# 5 0.0000 0.0000 0.0000 0.0000 153.9579 0.0000
# 6 0.0000 0.0000 0.0000 0.0000 0.0000 17.6664
#
#
#
# Elastic Compliance Matrix: (Units=1/GPa)
#
#
# Indices 1 2 3 4 5 6 
#
# 1 0.051936 -0.003744 0.010717 0.000000 0.000000 0.000000
# 2 -0.003744 0.005982 -0.006087 0.000000 0.000000 0.000000
# 3 0.010717 -0.006087 0.017480 0.000000 0.000000 0.000000
# 4 0.000000 0.000000 0.000000 0.027953 0.000000 0.000000
# 5 0.000000 0.000000 0.000000 0.000000 0.006495 0.000000
# 6 0.000000 0.000000 0.000000 0.000000 0.000000 0.056605
#
#
# Mechanical properties :
#
#
# Convention : Reuss Voigt Hill
#
# Bulk Modulus (GPa) = 12.95854 59.02638 35.99246
# Shear Modulus (GPa) = 26.26017 61.55479 43.90748
#
# Velocity S-wave (km/s) = 3.53247 5.40830 4.56772
# Velocity P-wave (km/s) = 4.77446 8.18828 6.70236
#
# Compressibility (1/GPa) = 0.07716921
#
# Stress axis : x y z
#
# Youngs Moduli (GPa) = 19.25444 167.16158 57.20949
#
# Poissons Ratio (x) = 0.62592 -0.61314
# Poissons Ratio (y) = 0.07210 0.34826
# Poissons Ratio (z) = -0.20636 1.01758
#
# Static dielectric constant tensor:
#      x y z
#    x 1.802960 0.000000 0.000000 
#    y 0.000000 1.811490 0.000000 
#    z 0.000000 0.000000 1.723440 
# 
# From -- ./inp_files/27570.got.cif
#   From: 2010.05.17/outbox.cif.g08.bks.cpg/sg63_14_cif.got.tgz:27570.got - 2010.06.03 15:47:04.
