data_PCOD9472657
_publ_section_title
;
Structure prediction by ZEFSAII (Michael W. Deem and Ramdas Pophale) SiO2 
 PCOD9472657
Probable space group: C M C M
;
_chemical_formula_sum "Si O2"
_cell_formula_units_Z 96
_cell_length_a 28.122173
_cell_length_b 21.307927
_cell_length_c 7.791688
_cell_angle_alpha 90.000000
_cell_angle_beta 90.000000
_cell_angle_gamma 90.000000
_cell_volume 4668.975873
_symmetry_space_group_name_H-M "C M C M"
_symmetry_group_IT_number 63
_symmetry_cell_setting 'orthorhombic'
loop_
_space_group_symop_operation_xyz
x,y,z
-x,-y,1/2+z
x,-y,-z
-x,y,1/2-z
-x,-y,-z
x,y,1/2-z
-x,y,z
x,-y,1/2+z
1/2+x,1/2+y,z
1/2-x,1/2-y,1/2+z
1/2+x,1/2-y,-z
1/2-x,1/2+y,1/2-z
1/2-x,1/2-y,-z
1/2+x,1/2+y,1/2-z
1/2-x,1/2+y,z
1/2+x,1/2-y,1/2+z
loop_
_atom_site_type_symbol
_atom_site_label
_atom_site_fract_x
_atom_site_fract_y
_atom_site_fract_z
Si Si1 0.945553 0.819839 0.960651
Si Si2 0.267404 0.429825 0.956577
Si Si3 0.105341 0.694080 0.545674
Si Si4 0.214469 0.306402 0.545280
Si Si5 0.945280 0.430379 0.043510
Si Si6 0.123878 0.070150 0.456230
O O1 0.944930 0.819903 0.750000
O O2 0.924445 0.753373 0.020107
O O3 0.911367 0.876058 0.018978
O O4 0.000000 0.828053 0.013640
O O5 0.268863 0.425512 0.750000
O O6 0.235446 0.372574 0.021323
O O7 0.321845 0.422876 0.020821
O O8 0.250667 0.500000 0.000000
O O9 0.097439 0.692845 0.750000
O O10 0.161102 0.704039 0.517610
O O11 0.086343 0.627342 0.477845
O O12 0.212358 0.310213 0.750000
O O13 0.250000 0.250000 0.500000
O O14 0.946740 0.426852 0.250000
O O15 0.000000 0.424846 0.981015
O O16 0.927454 0.500000 0.000000
O O17 0.125865 0.075272 0.250000
O O18 0.107553 0.000000 0.500000
#
# Coordination Sequence:
#
# PCOD9472657 Si02
#       6
#    16  16  16  16  16  16
#     4   9  17  31  53  77 101 134 175 214 251 298
#     4   9  19  35  54  76 103 136 173 213 257 309
#     4  10  20  35  55  78 104 135 176 222 264 309
#     4  11  23  38  56  79 107 139 177 219 266 318
#     4   9  18  33  54  79 107 141 179 219 265 317
#     4   9  17  31  51  74 100 130 165 205 250 298
#
# _framework density 20.561254000000002
#
# number of rings (size 3 to 8) (size 9 to 14) (size 15 to 20)
#    0.000    2.500    0.000    2.000    0.000    7.667 
#    0.000    7.500    0.000    2.500    0.000    0.000 
#    0.000    0.000    0.000    0.000    0.000    0.000 
#
# Total GULP energy -267986.735692 kJ/mol
# GULP energy per Si atom -5583.056994 kJ/mol
# Density = 2.051446 g / cm^3
# Si number density = 20.561254 Si / 1000 Ang^3
#
#
#
# Elastic Constant Matrix: (Units=GPa)
#
#
# Indices 1 2 3 4 5 6 
#
# 1 21.6580 -6.1079 -8.5370 0.0000 0.0000 0.0000
# 2 -6.1079 62.1018 -2.6173 0.0000 0.0000 0.0000
# 3 -8.5370 -2.6173 23.9143 0.0000 0.0000 0.0000
# 4 0.0000 0.0000 0.0000 24.9318 0.0000 0.0000
# 5 0.0000 0.0000 0.0000 0.0000 20.0887 0.0000
# 6 0.0000 0.0000 0.0000 0.0000 0.0000 41.2320
#
#
#
# Elastic Compliance Matrix: (Units=1/GPa)
#
#
# Indices 1 2 3 4 5 6 
#
# 1 0.056154 0.006397 0.020746 0.000000 0.000000 0.000000
# 2 0.006397 0.016906 0.004134 0.000000 0.000000 0.000000
# 3 0.020746 0.004134 0.049674 0.000000 0.000000 0.000000
# 4 0.000000 0.000000 0.000000 0.040109 0.000000 0.000000
# 5 0.000000 0.000000 0.000000 0.000000 0.049779 0.000000
# 6 0.000000 0.000000 0.000000 0.000000 0.000000 0.024253
#
#
# Mechanical properties :
#
#
# Convention : Reuss Voigt Hill
#
# Bulk Modulus (GPa) = 5.39695 8.12773 6.76234
# Shear Modulus (GPa) = 21.17888 25.57959 23.37924
#
# Velocity S-wave (km/s) = 3.21290 3.53096 3.37568
# Velocity P-wave (km/s) = 4.04897 4.53708 4.29996
#
# Compressibility (1/GPa) = 0.18528989
#
# Stress axis : x y z
#
# Youngs Moduli (GPa) = 17.80812 59.15049 20.13108
#
# Poissons Ratio (x) = -0.37840 -0.41765
# Poissons Ratio (y) = -0.11392 -0.08322
# Poissons Ratio (z) = -0.36945 -0.24453
#
# Static dielectric constant tensor:
#      x y z
#    x 1.668460 0.000000 0.000000 
#    y 0.000000 1.726250 0.000000 
#    z 0.000000 0.000000 1.781510 
# 
# From -- ./inp_files/10469.got.cif
#   From: 2010.05.17/outbox.cif.g08.bks.cpg/sg63_6_cif.got.tgz:10469.got - 2010.06.03 15:47:04.
