data_PCOD9472286
_publ_section_title
;
Structure prediction by ZEFSAII (Michael W. Deem and Ramdas Pophale) SiO2 
 PCOD9472286
Probable space group: C M C M
;
_chemical_formula_sum "Si O2"
_cell_formula_units_Z 96
_cell_length_a 14.371111
_cell_length_b 17.766968
_cell_length_c 18.300103
_cell_angle_alpha 90.000000
_cell_angle_beta 90.000000
_cell_angle_gamma 90.000000
_cell_volume 4672.584867
_symmetry_space_group_name_H-M "C M C M"
_symmetry_group_IT_number 63
_symmetry_cell_setting 'orthorhombic'
loop_
_space_group_symop_operation_xyz
x,y,z
-x,-y,1/2+z
x,-y,-z
-x,y,1/2-z
-x,-y,-z
x,y,1/2-z
-x,y,z
x,-y,1/2+z
1/2+x,1/2+y,z
1/2-x,1/2-y,1/2+z
1/2+x,1/2-y,-z
1/2-x,1/2+y,1/2-z
1/2-x,1/2-y,-z
1/2+x,1/2+y,1/2-z
1/2-x,1/2+y,z
1/2+x,1/2-y,1/2+z
loop_
_atom_site_type_symbol
_atom_site_label
_atom_site_fract_x
_atom_site_fract_y
_atom_site_fract_z
Si Si1 0.359239 0.726192 0.166751
Si Si2 0.101737 0.099052 0.053934
Si Si3 0.856601 0.678532 0.334619
Si Si4 0.801137 0.384293 0.335114
Si Si5 0.100448 0.841208 0.388548
Si Si6 0.192574 0.467105 0.578261
O O1 0.395478 0.724689 0.250000
O O2 0.401527 0.666320 0.112268
O O3 0.251740 0.701034 0.171559
O O4 0.355886 0.811069 0.135399
O O5 0.195885 0.052142 0.070585
O O6 0.000000 0.059815 0.057940
O O7 0.111334 0.135713 0.973411
O O8 0.888945 0.666934 0.250000
O O9 0.899838 0.751781 0.373033
O O10 0.857595 0.605842 0.387266
O O11 0.819349 0.383467 0.250000
O O12 0.691159 0.371873 0.348297
O O13 0.824445 0.463930 0.368021
O O14 0.000000 0.871079 0.363198
O O15 0.162654 0.500000 0.500000
#
# Coordination Sequence:
#
# PCOD9472286 Si02
#       6
#    16  16  16  16  16  16
#     4   8  17  33  53  74  99 134 179 222 255 295
#     4  10  21  34  51  77 110 141 174 212 253 311
#     4   9  19  34  53  76 102 133 176 220 255 303
#     4  10  20  34  53  78 105 134 173 217 257 307
#     4  10  20  34  54  79 104 134 172 217 262 305
#     4  11  21  33  53  78 107 143 172 208 258 313
#
# _framework density 20.545373000000001
#
# number of rings (size 3 to 8) (size 9 to 14) (size 15 to 20)
#    0.000    2.333    1.667    2.000    2.333    5.333 
#    0.000    0.000    0.000    1.500    0.000    2.333 
#    0.000    0.000    0.000    0.000    0.000    0.000 
#
# Total GULP energy -267554.374555 kJ/mol
# GULP energy per Si atom -5574.049470 kJ/mol
# Density = 2.049861 g / cm^3
# Si number density = 20.545373 Si / 1000 Ang^3
#
#
#
# Elastic Constant Matrix: (Units=GPa)
#
#
# Indices 1 2 3 4 5 6 
#
# 1 28.1987 -15.1004 -3.4098 0.0000 0.0000 0.0000
# 2 -15.1004 80.1300 14.7643 0.0000 0.0000 0.0000
# 3 -3.4098 14.7643 52.7549 0.0000 0.0000 0.0000
# 4 0.0000 0.0000 0.0000 43.1273 0.0000 0.0000
# 5 0.0000 0.0000 0.0000 0.0000 12.2627 0.0000
# 6 0.0000 0.0000 0.0000 0.0000 0.0000 4.8934
#
#
#
# Elastic Compliance Matrix: (Units=1/GPa)
#
#
# Indices 1 2 3 4 5 6 
#
# 1 0.039455 0.007344 0.000495 0.000000 0.000000 0.000000
# 2 0.007344 0.014525 -0.003590 0.000000 0.000000 0.000000
# 3 0.000495 -0.003590 0.019992 0.000000 0.000000 0.000000
# 4 0.000000 0.000000 0.000000 0.023187 0.000000 0.000000
# 5 0.000000 0.000000 0.000000 0.000000 0.081548 0.000000
# 6 0.000000 0.000000 0.000000 0.000000 0.000000 0.204356
#
#
# Mechanical properties :
#
#
# Convention : Reuss Voigt Hill
#
# Bulk Modulus (GPa) = 12.12563 17.06575 14.59569
# Shear Modulus (GPa) = 12.43604 23.04532 17.74068
#
# Velocity S-wave (km/s) = 2.46295 3.35278 2.94170
# Velocity P-wave (km/s) = 3.74204 4.82831 4.31946
#
# Compressibility (1/GPa) = 0.08246997
#
# Stress axis : x y z
#
# Youngs Moduli (GPa) = 25.34513 68.84550 50.01902
#
# Poissons Ratio (x) = -0.50561 -0.02475
# Poissons Ratio (y) = -0.18614 0.17959
# Poissons Ratio (z) = -0.01254 0.24719
#
# Static dielectric constant tensor:
#      x y z
#    x 1.793320 0.000000 0.000000 
#    y 0.000000 1.739910 0.000000 
#    z 0.000000 0.000000 1.730950 
# 
# From -- ./inp_files/45754.got.cif
#   From: 2010.05.17/outbox.cif.g08.bks.cpg/sg63_23_cif.got.tgz:45754.got - 2010.06.03 15:47:04.
