data_PCOD9472450
_publ_section_title
;
Structure prediction by ZEFSAII (Michael W. Deem and Ramdas Pophale) SiO2 
 PCOD9472450
Probable space group: C M C M
;
_chemical_formula_sum "Si O2"
_cell_formula_units_Z 96
_cell_length_a 7.659018
_cell_length_b 21.321650
_cell_length_c 27.612911
_cell_angle_alpha 90.000000
_cell_angle_beta 90.000000
_cell_angle_gamma 90.000000
_cell_volume 4509.268475
_symmetry_space_group_name_H-M "C M C M"
_symmetry_group_IT_number 63
_symmetry_cell_setting 'orthorhombic'
loop_
_space_group_symop_operation_xyz
x,y,z
-x,-y,1/2+z
x,-y,-z
-x,y,1/2-z
-x,-y,-z
x,y,1/2-z
-x,y,z
x,-y,1/2+z
1/2+x,1/2+y,z
1/2-x,1/2-y,1/2+z
1/2+x,1/2-y,-z
1/2-x,1/2+y,1/2-z
1/2-x,1/2-y,-z
1/2+x,1/2+y,1/2-z
1/2-x,1/2+y,z
1/2+x,1/2-y,1/2+z
loop_
_atom_site_type_symbol
_atom_site_label
_atom_site_fract_x
_atom_site_fract_y
_atom_site_fract_z
Si Si1 0.791825 0.187559 0.030108
Si Si2 0.703846 0.812683 0.642510
Si Si3 0.286425 0.436236 0.026510
Si Si4 0.293954 0.559990 0.304649
Si Si5 0.785953 0.938270 0.138077
Si Si6 0.786370 0.813134 0.305920
O O1 0.724233 0.190271 0.084823
O O2 0.000000 0.182327 0.033512
O O3 0.750000 0.250000 0.000000
O O4 0.727217 0.125752 0.001928
O O5 0.500000 0.814323 0.654212
O O6 0.777348 0.876085 0.665377
O O7 0.775803 0.749560 0.667089
O O8 0.500000 0.435397 0.026322
O O9 0.230351 0.436276 0.082281
O O10 0.231889 0.500000 0.000000
O O11 0.221921 0.565721 0.250000
O O12 0.500000 0.547850 0.299880
O O13 0.223399 0.500666 0.334475
O O14 0.731263 0.875881 0.166394
O O15 0.000000 0.939040 0.137603
O O16 0.732923 0.813484 0.250000
O O17 0.000000 0.813130 0.306879
#
# Coordination Sequence:
#
# PCOD9472450 Si02
#       6
#    16  16  16  16  16  16
#     4  11  22  37  58  83 111 142 178 224 275 327
#     4  11  22  36  55  79 109 146 184 222 268 323
#     4   9  17  30  51  78 106 138 178 222 265 313
#     4  10  20  34  55  83 111 139 174 220 273 323
#     4   9  16  29  51  78 105 134 175 225 269 310
#     4   9  17  30  50  76 103 134 179 230 269 306
#
# _framework density 21.289484999999999
#
# number of rings (size 3 to 8) (size 9 to 14) (size 15 to 20)
#    0.000    2.167    0.000    4.000    0.000    8.333 
#    0.000    0.000    0.000   15.000    0.000    0.000 
#    0.000    0.000    0.000    0.000    0.000    0.000 
#
# Total GULP energy -268274.756744 kJ/mol
# GULP energy per Si atom -5589.057432 kJ/mol
# Density = 2.124103 g / cm^3
# Si number density = 21.289485 Si / 1000 Ang^3
#
#
#
# Elastic Constant Matrix: (Units=GPa)
#
#
# Indices 1 2 3 4 5 6 
#
# 1 35.6024 -7.0049 -11.3800 0.0000 0.0000 0.0000
# 2 -7.0049 235.2207 133.6972 0.0000 0.0000 0.0000
# 3 -11.3800 133.6972 216.0590 0.0000 0.0000 0.0000
# 4 0.0000 0.0000 0.0000 35.4386 0.0000 0.0000
# 5 0.0000 0.0000 0.0000 0.0000 13.2770 0.0000
# 6 0.0000 0.0000 0.0000 0.0000 0.0000 19.5361
#
#
#
# Elastic Compliance Matrix: (Units=1/GPa)
#
#
# Indices 1 2 3 4 5 6 
#
# 1 0.028569 -0.000007 0.001509 0.000000 0.000000 0.000000
# 2 -0.000007 0.006558 -0.004058 0.000000 0.000000 0.000000
# 3 0.001509 -0.004058 0.007219 0.000000 0.000000 0.000000
# 4 0.000000 0.000000 0.000000 0.028218 0.000000 0.000000
# 5 0.000000 0.000000 0.000000 0.000000 0.075318 0.000000
# 6 0.000000 0.000000 0.000000 0.000000 0.000000 0.051187
#
#
# Mechanical properties :
#
#
# Convention : Reuss Voigt Hill
#
# Bulk Modulus (GPa) = 26.85756 79.72298 53.29027
# Shear Modulus (GPa) = 23.29992 38.42167 30.86079
#
# Velocity S-wave (km/s) = 3.31181 4.25281 3.81146
# Velocity P-wave (km/s) = 5.22177 7.85135 6.66748
#
# Compressibility (1/GPa) = 0.03723347
#
# Stress axis : x y z
#
# Youngs Moduli (GPa) = 35.00301 152.48895 138.52029
#
# Poissons Ratio (x) = 0.00106 -0.20903
# Poissons Ratio (y) = 0.00024 0.56217
# Poissons Ratio (z) = -0.05282 0.61886
#
# Static dielectric constant tensor:
#      x y z
#    x 1.829550 0.000000 0.000000 
#    y 0.000000 1.728970 0.000000 
#    z 0.000000 0.000000 1.711080 
# 
# From -- ./inp_files/66927.got.cif
#   From: 2010.05.17/outbox.cif.g08.bks.cpg/sg63_34_cif.got.tgz:66927.got - 2010.06.03 15:47:04.
