data_PCOD9472781
_publ_section_title
;
Structure prediction by ZEFSAII (Michael W. Deem and Ramdas Pophale) SiO2 
 PCOD9472781
Probable space group: C M C M
;
_chemical_formula_sum "Si O2"
_cell_formula_units_Z 112
_cell_length_a 22.892604
_cell_length_b 13.124503
_cell_length_c 19.895666
_cell_angle_alpha 90.000000
_cell_angle_beta 90.000000
_cell_angle_gamma 90.000000
_cell_volume 5977.733425
_symmetry_space_group_name_H-M "C M C M"
_symmetry_group_IT_number 63
_symmetry_cell_setting 'orthorhombic'
loop_
_space_group_symop_operation_xyz
x,y,z
-x,-y,1/2+z
x,-y,-z
-x,y,1/2-z
-x,-y,-z
x,y,1/2-z
-x,y,z
x,-y,1/2+z
1/2+x,1/2+y,z
1/2-x,1/2-y,1/2+z
1/2+x,1/2-y,-z
1/2-x,1/2+y,1/2-z
1/2-x,1/2-y,-z
1/2+x,1/2+y,1/2-z
1/2-x,1/2+y,z
1/2+x,1/2-y,1/2+z
loop_
_atom_site_type_symbol
_atom_site_label
_atom_site_fract_x
_atom_site_fract_y
_atom_site_fract_z
Si Si1 0.569231 0.233195 0.544119
Si Si2 0.869461 0.473559 0.420782
Si Si3 0.742085 0.312048 0.930100
Si Si4 0.361090 0.610466 0.674528
Si Si5 0.721171 0.136161 0.671129
Si Si6 0.122737 0.687528 0.099298
Si Si7 0.629079 0.440145 0.567408
O O1 0.500000 0.233357 0.539947
O O2 0.591761 0.128522 0.577207
O O3 0.597898 0.231465 0.470032
O O4 0.592943 0.336585 0.576876
O O5 0.854985 0.500000 0.500000
O O6 0.815444 0.444348 0.372694
O O7 0.901902 0.573788 0.392164
O O8 0.715834 0.240575 0.871357
O O9 0.808063 0.335316 0.908861
O O10 0.696871 0.403811 0.939384
O O11 0.750000 0.250000 0.000000
O O12 0.378705 0.589435 0.750000
O O13 0.290292 0.612944 0.670106
O O14 0.382912 0.722399 0.652504
O O15 0.380081 0.520656 0.626025
O O16 0.703577 0.142022 0.750000
O O17 0.612477 0.500000 0.500000
#
# Coordination Sequence:
#
# PCOD9472781 Si02
#       7
#    16  16  16  16  16  16  16
#     4  11  23  40  61  90 117 152 210 263 305 350
#     4  10  20  37  61  87 118 159 200 250 303 361
#     4  11  18  33  58  88 122 155 197 241 304 373
#     4  10  22  37  56  89 127 161 198 241 303 378
#     4  10  20  35  56  90 128 161 195 242 304 373
#     4  10  20  36  58  87 121 156 192 247 303 362
#     4  12  21  37  62  88 119 159 197 255 306 363
#
# _framework density 18.736198000000002
#
# number of rings (size 3 to 8) (size 9 to 14) (size 15 to 20)
#    0.000    1.429    4.286    2.571    0.000    6.286 
#    0.000    2.857    0.000    3.000    0.000    4.000 
#    0.000    0.000    0.000    0.000    0.000    0.000 
#
# Total GULP energy -312341.283278 kJ/mol
# GULP energy per Si atom -5577.522916 kJ/mol
# Density = 1.869355 g / cm^3
# Si number density = 18.736198 Si / 1000 Ang^3
#
#
#
# Elastic Constant Matrix: (Units=GPa)
#
#
# Indices 1 2 3 4 5 6 
#
# 1 46.8962 27.4959 23.8250 0.0000 0.0000 0.0000
# 2 27.4959 149.1422 73.9627 0.0000 0.0000 0.0000
# 3 23.8250 73.9627 112.7125 0.0000 0.0000 0.0000
# 4 0.0000 0.0000 0.0000 25.3700 0.0000 0.0000
# 5 0.0000 0.0000 0.0000 0.0000 1.8307 0.0000
# 6 0.0000 0.0000 0.0000 0.0000 0.0000 6.9528
#
#
#
# Elastic Compliance Matrix: (Units=1/GPa)
#
#
# Indices 1 2 3 4 5 6 
#
# 1 0.024715 -0.002914 -0.003312 0.000000 0.000000 0.000000
# 2 -0.002914 0.010283 -0.006132 0.000000 0.000000 0.000000
# 3 -0.003312 -0.006132 0.013596 0.000000 0.000000 0.000000
# 4 0.000000 0.000000 0.000000 0.039417 0.000000 0.000000
# 5 0.000000 0.000000 0.000000 0.000000 0.546238 0.000000
# 6 0.000000 0.000000 0.000000 0.000000 0.000000 0.143828
#
#
# Mechanical properties :
#
#
# Convention : Reuss Voigt Hill
#
# Bulk Modulus (GPa) = 41.87920 62.14646 52.01283
# Shear Modulus (GPa) = 6.16711 19.06183 12.61447
#
# Velocity S-wave (km/s) = 1.81623 3.19310 2.59755
# Velocity P-wave (km/s) = 5.17676 6.84366 6.06772
#
# Compressibility (1/GPa) = 0.02387820
#
# Stress axis : x y z
#
# Youngs Moduli (GPa) = 40.46158 97.24613 73.55073
#
# Poissons Ratio (x) = 0.28337 0.24360
# Poissons Ratio (y) = 0.11790 0.45101
# Poissons Ratio (z) = 0.13401 0.59631
#
# Static dielectric constant tensor:
#      x y z
#    x 1.648670 0.000000 0.000000 
#    y 0.000000 1.715170 0.000000 
#    z 0.000000 0.000000 1.636660 
# 
# From -- ./inp_files/57646.got.cif
#   From: 2010.05.17/outbox.cif.g08.bks.cpg/sg63_29_cif.got.tgz:57646.got - 2010.06.03 15:47:04.
