data_PCOD9472697
_publ_section_title
;
Structure prediction by ZEFSAII (Michael W. Deem and Ramdas Pophale) SiO2 
 PCOD9472697
Probable space group: C M C M
;
_chemical_formula_sum "Si O2"
_cell_formula_units_Z 96
_cell_length_a 30.703393
_cell_length_b 9.806213
_cell_length_c 18.865988
_cell_angle_alpha 90.000000
_cell_angle_beta 90.000000
_cell_angle_gamma 90.000000
_cell_volume 5680.247349
_symmetry_space_group_name_H-M "C M C M"
_symmetry_group_IT_number 63
_symmetry_cell_setting 'orthorhombic'
loop_
_space_group_symop_operation_xyz
x,y,z
-x,-y,1/2+z
x,-y,-z
-x,y,1/2-z
-x,-y,-z
x,y,1/2-z
-x,y,z
x,-y,1/2+z
1/2+x,1/2+y,z
1/2-x,1/2-y,1/2+z
1/2+x,1/2-y,-z
1/2-x,1/2+y,1/2-z
1/2-x,1/2-y,-z
1/2+x,1/2+y,1/2-z
1/2-x,1/2+y,z
1/2+x,1/2-y,1/2+z
loop_
_atom_site_type_symbol
_atom_site_label
_atom_site_fract_x
_atom_site_fract_y
_atom_site_fract_z
Si Si1 0.550997 0.579644 0.072495
Si Si2 0.949793 0.181757 0.665614
Si Si3 0.622671 0.866492 0.591743
Si Si4 0.786488 0.606889 0.166101
Si Si5 0.880795 0.682931 0.925134
Si Si6 0.203993 0.712980 0.665502
O O1 0.500000 0.615557 0.065558
O O2 0.556063 0.470516 0.135348
O O3 0.579798 0.712509 0.084516
O O4 0.563634 0.500000 0.000000
O O5 0.944402 0.185999 0.750000
O O6 0.914894 0.277871 0.627791
O O7 0.000000 0.221243 0.648464
O O8 0.669597 0.846156 0.627734
O O9 0.627211 0.828733 0.509264
O O10 0.610996 0.026987 0.598904
O O11 0.792075 0.629930 0.250000
O O12 0.782030 0.444624 0.154885
O O13 0.743391 0.688133 0.144313
O O14 0.838929 0.734152 0.881400
O O15 0.195103 0.731209 0.750000
#
# Coordination Sequence:
#
# PCOD9472697 Si02
#       6
#    16  16  16  16  16  16
#     4  10  20  37  57  79 110 146 181 223 272 324
#     4  10  21  37  57  82 111 144 183 225 271 325
#     4  10  20  35  55  81 112 144 182 225 272 330
#     4   9  18  34  53  74 105 143 181 223 273 324
#     4  10  21  35  55  82 110 143 182 225 275 326
#     4   9  19  35  53  75 104 139 180 225 271 323
#
# _framework density 16.900672
#
# number of rings (size 3 to 8) (size 9 to 14) (size 15 to 20)
#    0.000    2.333    1.667    0.500    0.000    4.000 
#    0.000    3.333    0.000    2.000    0.000    0.000 
#    0.000    0.000    0.000    0.000    0.000    0.000 
#
# Total GULP energy -267711.515407 kJ/mol
# GULP energy per Si atom -5577.323238 kJ/mol
# Density = 1.686221 g / cm^3
# Si number density = 16.900672 Si / 1000 Ang^3
#
#
#
# Elastic Constant Matrix: (Units=GPa)
#
#
# Indices 1 2 3 4 5 6 
#
# 1 130.7665 87.0079 58.1085 0.0000 0.0000 0.0000
# 2 87.0079 76.5363 39.8979 0.0000 0.0000 0.0000
# 3 58.1085 39.8979 59.1356 0.0000 0.0000 0.0000
# 4 0.0000 0.0000 0.0000 21.4754 0.0000 0.0000
# 5 0.0000 0.0000 0.0000 0.0000 30.4882 0.0000
# 6 0.0000 0.0000 0.0000 0.0000 0.0000 40.1836
#
#
#
# Elastic Compliance Matrix: (Units=1/GPa)
#
#
# Indices 1 2 3 4 5 6 
#
# 1 0.036215 -0.034890 -0.012046 0.000000 0.000000 0.000000
# 2 -0.034890 0.053768 -0.001992 0.000000 0.000000 0.000000
# 3 -0.012046 -0.001992 0.030091 0.000000 0.000000 0.000000
# 4 0.000000 0.000000 0.000000 0.046565 0.000000 0.000000
# 5 0.000000 0.000000 0.000000 0.000000 0.032800 0.000000
# 6 0.000000 0.000000 0.000000 0.000000 0.000000 0.024886
#
#
# Mechanical properties :
#
#
# Convention : Reuss Voigt Hill
#
# Bulk Modulus (GPa) = 45.01008 70.71853 57.86431
# Shear Modulus (GPa) = 15.17046 23.85773 19.51409
#
# Velocity S-wave (km/s) = 2.99929 3.76126 3.40168
# Velocity P-wave (km/s) = 6.21967 7.79726 7.05271
#
# Compressibility (1/GPa) = 0.02221725
#
# Stress axis : x y z
#
# Youngs Moduli (GPa) = 27.61277 18.59831 33.23230
#
# Poissons Ratio (x) = 0.64890 0.40032
# Poissons Ratio (y) = 0.96342 0.06620
# Poissons Ratio (z) = 0.33262 0.03705
#
# Static dielectric constant tensor:
#      x y z
#    x 1.543700 0.000000 0.000000 
#    y 0.000000 1.558480 0.000000 
#    z 0.000000 0.000000 1.567590 
# 
# From -- ./inp_files/58114.got.cif
#   From: 2010.05.17/outbox.cif.g08.bks.cpg/sg63_30_cif.got.tgz:58114.got - 2010.06.03 15:47:04.
