data_PCOD9472792
_publ_section_title
;
Structure prediction by ZEFSAII (Michael W. Deem and Ramdas Pophale) SiO2 
 PCOD9472792
Probable space group: C M C M
;
_chemical_formula_sum "Si O2"
_cell_formula_units_Z 72
_cell_length_a 15.900542
_cell_length_b 27.589916
_cell_length_c 7.816717
_cell_angle_alpha 90.000000
_cell_angle_beta 90.000000
_cell_angle_gamma 90.000000
_cell_volume 3429.151679
_symmetry_space_group_name_H-M "C M C M"
_symmetry_group_IT_number 63
_symmetry_cell_setting 'orthorhombic'
loop_
_space_group_symop_operation_xyz
x,y,z
-x,-y,1/2+z
x,-y,-z
-x,y,1/2-z
-x,-y,-z
x,y,1/2-z
-x,y,z
x,-y,1/2+z
1/2+x,1/2+y,z
1/2-x,1/2-y,1/2+z
1/2+x,1/2-y,-z
1/2-x,1/2+y,1/2-z
1/2-x,1/2-y,-z
1/2+x,1/2+y,1/2-z
1/2-x,1/2+y,z
1/2+x,1/2-y,1/2+z
loop_
_atom_site_type_symbol
_atom_site_label
_atom_site_fract_x
_atom_site_fract_y
_atom_site_fract_z
Si Si1 0.500000 0.287267 0.459346
Si Si2 0.000000 0.443662 0.956435
Si Si3 0.175571 0.055819 0.953725
Si Si4 0.661280 0.226133 0.456176
Si Si5 0.839485 0.616050 0.045516
Si Si6 0.500000 0.399553 0.459610
O O1 0.500000 0.287320 0.250000
O O2 0.583240 0.258724 0.516728
O O3 0.500000 0.343312 0.512203
O O4 0.083549 0.416509 0.020924
O O5 0.000000 0.440514 0.750000
O O6 0.000000 0.500000 0.000000
O O7 0.173353 0.059390 0.750000
O O8 0.084876 0.073959 0.019124
O O9 0.251151 0.089925 0.013798
O O10 0.190685 0.000000 0.000000
O O11 0.654989 0.224406 0.250000
O O12 0.750000 0.250000 0.500000
O O13 0.657834 0.170951 0.521760
O O14 0.850181 0.619292 0.250000
O O15 0.500000 0.400554 0.250000
#
# Coordination Sequence:
#
# PCOD9472792 Si02
#       6
#     8   8  16  16  16   8
#     4   9  17  33  56  80 107 144 183 216 260 324
#     4  10  21  37  56  78 107 142 181 222 268 321
#     4  11  22  37  57  81 109 143 181 224 271 321
#     4  10  20  35  57  82 110 144 182 222 266 317
#     4  10  21  37  56  81 111 144 181 222 268 320
#     4   9  19  34  54  80 109 142 181 220 264 319
#
# _framework density 20.996447
#
# number of rings (size 3 to 8) (size 9 to 14) (size 15 to 20)
#    0.000    2.000    0.000    3.667    0.000    8.000 
#    0.000    2.222    0.000    8.000    0.000    0.000 
#    0.000    0.000    0.000    0.000    0.000    0.000 
#
# Total GULP energy -201228.716717 kJ/mol
# GULP energy per Si atom -5589.686575 kJ/mol
# Density = 2.094866 g / cm^3
# Si number density = 20.996447 Si / 1000 Ang^3
#
#
#
# Elastic Constant Matrix: (Units=GPa)
#
#
# Indices 1 2 3 4 5 6 
#
# 1 72.7811 -15.9486 -3.0585 0.0000 0.0000 0.0000
# 2 -15.9486 85.4622 -0.2965 0.0000 0.0000 0.0000
# 3 -3.0585 -0.2965 25.0459 0.0000 0.0000 0.0000
# 4 0.0000 0.0000 0.0000 9.7532 0.0000 0.0000
# 5 0.0000 0.0000 0.0000 0.0000 22.5939 0.0000
# 6 0.0000 0.0000 0.0000 0.0000 0.0000 46.8450
#
#
#
# Elastic Compliance Matrix: (Units=1/GPa)
#
#
# Indices 1 2 3 4 5 6 
#
# 1 0.014406 0.002695 0.001791 0.000000 0.000000 0.000000
# 2 0.002695 0.012206 0.000474 0.000000 0.000000 0.000000
# 3 0.001791 0.000474 0.040151 0.000000 0.000000 0.000000
# 4 0.000000 0.000000 0.000000 0.102530 0.000000 0.000000
# 5 0.000000 0.000000 0.000000 0.000000 0.044260 0.000000
# 6 0.000000 0.000000 0.000000 0.000000 0.000000 0.021347
#
#
# Mechanical properties :
#
#
# Convention : Reuss Voigt Hill
#
# Bulk Modulus (GPa) = 13.04114 16.07575 14.55845
# Shear Modulus (GPa) = 19.95682 29.34461 24.65071
#
# Velocity S-wave (km/s) = 3.08634 3.74250 3.43015
# Velocity P-wave (km/s) = 4.35032 5.13304 4.75780
#
# Compressibility (1/GPa) = 0.07668042
#
# Stress axis : x y z
#
# Youngs Moduli (GPa) = 69.41763 81.92980 24.90595
#
# Poissons Ratio (x) = -0.22076 -0.04461
# Poissons Ratio (y) = -0.18705 -0.01179
# Poissons Ratio (z) = -0.12433 -0.03880
#
# Static dielectric constant tensor:
#      x y z
#    x 1.723430 0.000000 0.000000 
#    y 0.000000 1.725470 0.000000 
#    z 0.000000 0.000000 1.772350 
# 
# From -- ./inp_files/4691.got.cif
#   From: 2010.05.17/outbox.cif.g08.bks.cpg/sg63_3_cif.got.tgz:4691.got - 2010.06.03 15:47:04.
