data_PCOD9472973
_publ_section_title
;
Structure prediction by ZEFSAII (Michael W. Deem and Ramdas Pophale) SiO2 
 PCOD9472973
Probable space group: C M C M
;
_chemical_formula_sum "Si O2"
_cell_formula_units_Z 96
_cell_length_a 26.005938
_cell_length_b 24.378768
_cell_length_c 8.457792
_cell_angle_alpha 90.000000
_cell_angle_beta 90.000000
_cell_angle_gamma 90.000000
_cell_volume 5362.178632
_symmetry_space_group_name_H-M "C M C M"
_symmetry_group_IT_number 63
_symmetry_cell_setting 'orthorhombic'
loop_
_space_group_symop_operation_xyz
x,y,z
-x,-y,1/2+z
x,-y,-z
-x,y,1/2-z
-x,-y,-z
x,y,1/2-z
-x,y,z
x,-y,1/2+z
1/2+x,1/2+y,z
1/2-x,1/2-y,1/2+z
1/2+x,1/2-y,-z
1/2-x,1/2+y,1/2-z
1/2-x,1/2-y,-z
1/2+x,1/2+y,1/2-z
1/2-x,1/2+y,z
1/2+x,1/2-y,1/2+z
loop_
_atom_site_type_symbol
_atom_site_label
_atom_site_fract_x
_atom_site_fract_y
_atom_site_fract_z
Si Si1 0.941259 0.560817 0.941187
Si Si2 0.059047 0.939631 0.060786
Si Si3 0.651980 0.370240 0.939368
Si Si4 0.847287 0.634491 0.942753
Si Si5 0.250768 0.438144 0.060305
Si Si6 0.691372 0.251984 0.941402
O O1 0.940732 0.560073 0.750000
O O2 0.899726 0.605368 0.995725
O O3 0.000000 0.572051 0.992592
O O4 0.927077 0.500000 0.000000
O O5 0.060131 0.940442 0.250000
O O6 0.000000 0.930236 0.008377
O O7 0.098422 0.894444 0.999624
O O8 0.074715 0.000000 0.000000
O O9 0.651680 0.370646 0.750000
O O10 0.664633 0.308388 0.993880
O O11 0.697838 0.409256 0.998331
O O12 0.848009 0.634803 0.750000
O O13 0.798540 0.597586 0.991264
O O14 0.837788 0.696865 0.994503
O O15 0.252055 0.438379 0.250000
O O16 0.246796 0.500000 0.000000
O O17 0.692348 0.251849 0.750000
O O18 0.750000 0.250000 0.000000
#
# Coordination Sequence:
#
# PCOD9472973 Si02
#       6
#    16  16  16  16  16  16
#     4   9  17  31  52  76 103 135 170 210 258 310
#     4  10  21  38  60  83 109 142 179 220 269 323
#     4  11  22  35  54  80 109 139 178 221 265 321
#     4   9  18  33  52  75 103 136 174 217 264 311
#     4  11  21  33  51  74 106 139 172 219 269 321
#     4  10  20  36  55  76 104 140 182 221 263 316
#
# _framework density 17.903169999999999
#
# number of rings (size 3 to 8) (size 9 to 14) (size 15 to 20)
#    0.000    2.000    1.667    2.500    0.000    1.667 
#    0.000    2.500    0.000    3.000    0.000    2.333 
#    0.000    0.000    0.000    0.000    0.000    0.000 
#
# Total GULP energy -267992.102808 kJ/mol
# GULP energy per Si atom -5583.168808 kJ/mol
# Density = 1.786242 g / cm^3
# Si number density = 17.903170 Si / 1000 Ang^3
#
#
#
# Elastic Constant Matrix: (Units=GPa)
#
#
# Indices 1 2 3 4 5 6 
#
# 1 117.2616 94.4906 19.3671 0.0000 0.0000 0.0000
# 2 94.4906 180.0891 25.5740 0.0000 0.0000 0.0000
# 3 19.3671 25.5740 23.8118 0.0000 0.0000 0.0000
# 4 0.0000 0.0000 0.0000 10.9506 0.0000 0.0000
# 5 0.0000 0.0000 0.0000 0.0000 9.4256 0.0000
# 6 0.0000 0.0000 0.0000 0.0000 0.0000 26.0277
#
#
#
# Elastic Compliance Matrix: (Units=1/GPa)
#
#
# Indices 1 2 3 4 5 6 
#
# 1 0.015168 -0.007323 -0.004471 0.000000 0.000000 0.000000
# 2 -0.007323 0.010088 -0.004878 0.000000 0.000000 0.000000
# 3 -0.004471 -0.004878 0.050872 0.000000 0.000000 0.000000
# 4 0.000000 0.000000 0.000000 0.091320 0.000000 0.000000
# 5 0.000000 0.000000 0.000000 0.000000 0.106094 0.000000
# 6 0.000000 0.000000 0.000000 0.000000 0.000000 0.038421
#
#
# Mechanical properties :
#
#
# Convention : Reuss Voigt Hill
#
# Bulk Modulus (GPa) = 23.37434 66.66956 45.02195
# Shear Modulus (GPa) = 13.90560 21.39615 17.65087
#
# Velocity S-wave (km/s) = 2.78998 3.46078 3.14332
# Velocity P-wave (km/s) = 4.84386 7.29994 6.19484
#
# Compressibility (1/GPa) = 0.04278196
#
# Stress axis : x y z
#
# Youngs Moduli (GPa) = 65.92990 99.12742 19.65730
#
# Poissons Ratio (x) = 0.72594 0.08789
# Poissons Ratio (y) = 0.48283 0.09589
# Poissons Ratio (z) = 0.29478 0.48357
#
# Static dielectric constant tensor:
#      x y z
#    x 1.600530 0.000000 0.000000 
#    y 0.000000 1.596910 0.000000 
#    z 0.000000 0.000000 1.637660 
# 
# From -- ./inp_files/10425.got.cif
#   From: 2010.05.17/outbox.cif.g08.bks.cpg/sg63_6_cif.got.tgz:10425.got - 2010.06.03 15:47:04.
