data_PCOD9472715
_publ_section_title
;
Structure prediction by ZEFSAII (Michael W. Deem and Ramdas Pophale) SiO2 
 PCOD9472715
Probable space group: C M C M
;
_chemical_formula_sum "Si O2"
_cell_formula_units_Z 128
_cell_length_a 22.209075
_cell_length_b 9.774530
_cell_length_c 24.097633
_cell_angle_alpha 90.000000
_cell_angle_beta 90.000000
_cell_angle_gamma 90.000000
_cell_volume 5231.192968
_symmetry_space_group_name_H-M "C M C M"
_symmetry_group_IT_number 63
_symmetry_cell_setting 'orthorhombic'
loop_
_space_group_symop_operation_xyz
x,y,z
-x,-y,1/2+z
x,-y,-z
-x,y,1/2-z
-x,-y,-z
x,y,1/2-z
-x,y,z
x,-y,1/2+z
1/2+x,1/2+y,z
1/2-x,1/2-y,1/2+z
1/2+x,1/2-y,-z
1/2-x,1/2+y,1/2-z
1/2-x,1/2-y,-z
1/2+x,1/2+y,1/2-z
1/2-x,1/2+y,z
1/2+x,1/2-y,1/2+z
loop_
_atom_site_type_symbol
_atom_site_label
_atom_site_fract_x
_atom_site_fract_y
_atom_site_fract_z
Si Si1 0.930988 0.263073 0.311746
Si Si2 0.067710 0.252157 0.625239
Si Si3 0.749168 0.109271 0.078619
Si Si4 0.693494 0.856147 0.040168
Si Si5 0.068602 0.145801 0.988793
Si Si6 0.434281 0.115665 0.573079
Si Si7 0.183806 0.282678 0.814484
Si Si8 0.618183 0.479237 0.313721
O O1 0.920427 0.318609 0.250000
O O2 0.929309 0.368922 0.361306
O O3 0.000000 0.206622 0.312458
O O4 0.884016 0.140241 0.321997
O O5 0.208843 0.347290 0.524679
O O6 0.089984 0.241647 0.561802
O O7 0.072084 0.094719 0.645468
O O8 0.000000 0.303565 0.630145
O O9 0.806571 0.204243 0.065892
O O10 0.616006 0.177106 0.165554
O O11 0.746226 0.946319 0.069385
O O12 0.630833 0.932169 0.053262
O O13 0.774169 0.651879 0.139020
O O14 0.000000 0.115391 0.969931
O O15 0.064036 0.236162 0.043554
O O16 0.099030 0.000000 0.000000
O O17 0.500000 0.051667 0.559314
O O18 0.196069 0.315714 0.750000
O O19 0.177832 0.115388 0.819511
O O20 0.598554 0.457593 0.250000
#
# Coordination Sequence:
#
# PCOD9472715 Si02
#       8
#    16  16  16  16  16  16  16  16
#     4   9  16  27  45  72 115 168 213 254 305 376
#     4   9  15  24  41  70 113 161 205 252 315 380
#     4  10  22  46  68  93 124 161 222 264 313 380
#     4  10  23  44  72  96 122 168 215 272 320 372
#     4   9  16  25  40  73 118 162 208 258 315 376
#     4  10  20  35  55  87 126 160 204 259 322 390
#     4   9  19  33  54  83 119 159 202 263 324 385
#     4   8  15  24  41  71 110 159 206 248 301 361
#
# _framework density 24.468606000000001
#
# number of rings (size 3 to 8) (size 9 to 14) (size 15 to 20)
#    0.750    2.000    0.000    1.875    0.000    4.500 
#    4.500    3.750    0.000    0.000    0.000    0.875 
#    0.000    0.000    0.000    0.000    0.000    0.000 
#
# Total GULP energy -356452.960113 kJ/mol
# GULP energy per Si atom -5569.577502 kJ/mol
# Density = 2.441291 g / cm^3
# Si number density = 24.468606 Si / 1000 Ang^3
#
#
#
# Elastic Constant Matrix: (Units=GPa)
#
#
# Indices 1 2 3 4 5 6 
#
# 1 69.6272 23.9820 45.8944 0.0000 0.0000 0.0000
# 2 23.9820 43.8996 21.7476 0.0000 0.0000 0.0000
# 3 45.8944 21.7476 171.1719 0.0000 0.0000 0.0000
# 4 0.0000 0.0000 0.0000 31.6557 0.0000 0.0000
# 5 0.0000 0.0000 0.0000 0.0000 25.3530 0.0000
# 6 0.0000 0.0000 0.0000 0.0000 0.0000 18.5195
#
#
#
# Elastic Compliance Matrix: (Units=1/GPa)
#
#
# Indices 1 2 3 4 5 6 
#
# 1 0.020279 -0.008948 -0.004300 0.000000 0.000000 0.000000
# 2 -0.008948 0.028257 -0.001191 0.000000 0.000000 0.000000
# 3 -0.004300 -0.001191 0.007146 0.000000 0.000000 0.000000
# 4 0.000000 0.000000 0.000000 0.031590 0.000000 0.000000
# 5 0.000000 0.000000 0.000000 0.000000 0.039443 0.000000
# 6 0.000000 0.000000 0.000000 0.000000 0.000000 0.053997
#
#
# Mechanical properties :
#
#
# Convention : Reuss Voigt Hill
#
# Bulk Modulus (GPa) = 37.30752 51.99407 44.65079
# Shear Modulus (GPa) = 22.88066 27.97729 25.42897
#
# Velocity S-wave (km/s) = 3.06126 3.38508 3.22724
# Velocity P-wave (km/s) = 5.27023 6.04763 5.67226
#
# Compressibility (1/GPa) = 0.02680425
#
# Stress axis : x y z
#
# Youngs Moduli (GPa) = 49.31314 35.38902 139.93091
#
# Poissons Ratio (x) = 0.31665 0.60174
# Poissons Ratio (y) = 0.44124 0.16667
# Poissons Ratio (z) = 0.21206 0.04215
#
# Static dielectric constant tensor:
#      x y z
#    x 2.029630 0.000000 0.000000 
#    y 0.000000 2.018540 0.000000 
#    z 0.000000 0.000000 1.904720 
# 
# From -- ./inp_files/64789.got.cif
#   From: 2010.05.17/outbox.cif.g08.bks.cpg/sg63_33_cif.got.tgz:64789.got - 2010.06.03 15:47:04.
