data_PCOD9472483
_publ_section_title
;
Structure prediction by ZEFSAII (Michael W. Deem and Ramdas Pophale) SiO2 
 PCOD9472483
Probable space group: C M C M
;
_chemical_formula_sum "Si O2"
_cell_formula_units_Z 116
_cell_length_a 9.888916
_cell_length_b 33.209414
_cell_length_c 20.073460
_cell_angle_alpha 90.000000
_cell_angle_beta 90.000000
_cell_angle_gamma 90.000000
_cell_volume 6592.226748
_symmetry_space_group_name_H-M "C M C M"
_symmetry_group_IT_number 63
_symmetry_cell_setting 'orthorhombic'
loop_
_space_group_symop_operation_xyz
x,y,z
-x,-y,1/2+z
x,-y,-z
-x,y,1/2-z
-x,-y,-z
x,y,1/2-z
-x,y,z
x,-y,1/2+z
1/2+x,1/2+y,z
1/2-x,1/2-y,1/2+z
1/2+x,1/2-y,-z
1/2-x,1/2+y,1/2-z
1/2-x,1/2-y,-z
1/2+x,1/2+y,1/2-z
1/2-x,1/2+y,z
1/2+x,1/2-y,1/2+z
loop_
_atom_site_type_symbol
_atom_site_label
_atom_site_fract_x
_atom_site_fract_y
_atom_site_fract_z
Si Si1 0.155368 0.764410 0.096823
Si Si2 0.291282 0.394551 0.362913
Si Si3 0.000000 0.869455 0.250000
Si Si4 0.661980 0.513166 0.671269
Si Si5 0.846217 0.802994 0.948713
Si Si6 0.846247 0.104842 0.018481
Si Si7 0.338881 0.968550 0.561606
Si Si8 0.855655 0.322158 0.329427
O O1 0.236198 0.722600 0.091140
O O2 0.236308 0.794311 0.144258
O O3 0.000000 0.759243 0.116977
O O4 0.157058 0.785397 0.023973
O O5 0.385573 0.373275 0.308608
O O6 0.289718 0.441020 0.341738
O O7 0.342512 0.392367 0.438293
O O8 0.158681 0.367323 0.357772
O O9 0.675518 0.504306 0.750000
O O10 0.500000 0.511213 0.655282
O O11 0.754372 0.485753 0.624217
O O12 0.000000 0.796964 0.923813
O O13 0.820105 0.850617 0.952906
O O14 0.000000 0.092441 0.037665
O O15 0.734628 0.072751 0.040670
O O16 0.500000 0.964167 0.574624
O O17 0.324321 0.000000 0.500000
O O18 0.854901 0.323303 0.250000
O O19 0.000000 0.305056 0.352496
#
# Coordination Sequence:
#
# PCOD9472483 Si02
#       8
#    16  16   4  16  16  16  16  16
#     4  10  20  34  56  81 106 144 187 227 270 326
#     4  12  20  33  56  83 116 154 191 232 282 338
#     4  12  20  32  54  86 124 148 196 240 276 344
#     4  11  21  38  62  86 112 150 199 245 290 346
#     4   9  19  35  54  80 111 139 179 226 279 331
#     4  11  21  36  60  84 112 152 194 236 285 337
#     4  11  25  39  54  83 120 156 194 239 294 346
#     4  11  24  36  50  78 118 156 189 226 278 337
#
# _framework density 17.596482000000002
#
# number of rings (size 3 to 8) (size 9 to 14) (size 15 to 20)
#    0.000    1.241    5.517    0.828    0.966    3.310 
#    0.000    0.000    0.000    0.828    0.000    5.793 
#    0.000    0.000    0.000    0.000    0.000    0.000 
#
# Total GULP energy -323012.045742 kJ/mol
# GULP energy per Si atom -5569.173202 kJ/mol
# Density = 1.755643 g / cm^3
# Si number density = 17.596482 Si / 1000 Ang^3
#
#
#
# Elastic Constant Matrix: (Units=GPa)
#
#
# Indices 1 2 3 4 5 6 
#
# 1 156.1422 90.5956 55.5423 0.0000 0.0000 0.0000
# 2 90.5956 107.2148 39.7982 0.0000 0.0000 0.0000
# 3 55.5423 39.7982 64.9788 0.0000 0.0000 0.0000
# 4 0.0000 0.0000 0.0000 13.9758 0.0000 0.0000
# 5 0.0000 0.0000 0.0000 0.0000 0.6578 0.0000
# 6 0.0000 0.0000 0.0000 0.0000 0.0000 86.6490
#
#
#
# Elastic Compliance Matrix: (Units=1/GPa)
#
#
# Indices 1 2 3 4 5 6 
#
# 1 0.014281 -0.009753 -0.006233 0.000000 0.000000 0.000000
# 2 -0.009753 0.018733 -0.003137 0.000000 0.000000 0.000000
# 3 -0.006233 -0.003137 0.022639 0.000000 0.000000 0.000000
# 4 0.000000 0.000000 0.000000 0.071552 0.000000 0.000000
# 5 0.000000 0.000000 0.000000 0.000000 1.520298 0.000000
# 6 0.000000 0.000000 0.000000 0.000000 0.000000 0.011541
#
#
# Mechanical properties :
#
#
# Convention : Reuss Voigt Hill
#
# Bulk Modulus (GPa) = 57.45090 77.80090 67.62590
# Shear Modulus (GPa) = 2.93584 29.74982 16.34283
#
# Velocity S-wave (km/s) = 1.29308 4.11623 3.05086
# Velocity P-wave (km/s) = 5.91180 8.17931 7.13619
#
# Compressibility (1/GPa) = 0.01740617
#
# Stress axis : x y z
#
# Youngs Moduli (GPa) = 70.02535 53.38225 44.17245
#
# Poissons Ratio (x) = 0.52065 0.27533
# Poissons Ratio (y) = 0.68298 0.13855
# Poissons Ratio (z) = 0.43647 0.16744
#
# Static dielectric constant tensor:
#      x y z
#    x 1.776660 0.000000 0.000000 
#    y 0.000000 1.602310 0.000000 
#    z 0.000000 0.000000 1.573500 
# 
# From -- ./inp_files/60641.got.cif
#   From: 2010.05.17/outbox.cif.g08.bks.cpg/sg63_31_cif.got.tgz:60641.got - 2010.06.03 15:47:04.
