data_PCOD9472007
_publ_section_title
;
Structure prediction by ZEFSAII (Michael W. Deem and Ramdas Pophale) SiO2 
 PCOD9472007
Probable space group: C M C M
;
_chemical_formula_sum "Si O2"
_cell_formula_units_Z 112
_cell_length_a 12.233594
_cell_length_b 18.273810
_cell_length_c 29.756954
_cell_angle_alpha 90.000000
_cell_angle_beta 90.000000
_cell_angle_gamma 90.000000
_cell_volume 6652.297175
_symmetry_space_group_name_H-M "C M C M"
_symmetry_group_IT_number 63
_symmetry_cell_setting 'orthorhombic'
loop_
_space_group_symop_operation_xyz
x,y,z
-x,-y,1/2+z
x,-y,-z
-x,y,1/2-z
-x,-y,-z
x,y,1/2-z
-x,y,z
x,-y,1/2+z
1/2+x,1/2+y,z
1/2-x,1/2-y,1/2+z
1/2+x,1/2-y,-z
1/2-x,1/2+y,1/2-z
1/2-x,1/2-y,-z
1/2+x,1/2+y,1/2-z
1/2-x,1/2+y,z
1/2+x,1/2-y,1/2+z
loop_
_atom_site_type_symbol
_atom_site_label
_atom_site_fract_x
_atom_site_fract_y
_atom_site_fract_z
Si Si1 0.367617 0.358561 0.800070
Si Si2 0.756948 0.105284 0.613787
Si Si3 0.131532 0.971579 0.197295
Si Si4 0.621354 0.323079 0.464790
Si Si5 0.369368 0.254898 0.619111
Si Si6 0.629118 0.987269 0.946392
Si Si7 0.220770 0.330538 0.954661
O O1 0.327823 0.340849 0.750000
O O2 0.500000 0.356948 0.799057
O O3 0.339414 0.442745 0.810441
O O4 0.333702 0.300184 0.836925
O O5 0.804703 0.075499 0.660514
O O6 0.852574 0.139507 0.582703
O O7 0.673211 0.172188 0.620931
O O8 0.698226 0.042147 0.584625
O O9 0.155304 0.955029 0.250000
O O10 0.000000 0.964140 0.191512
O O11 0.500000 0.342060 0.480432
O O12 0.716297 0.346788 0.498961
O O13 0.635086 0.235260 0.461562
O O14 0.500000 0.256911 0.614791
O O15 0.312009 0.296145 0.577859
O O16 0.500000 0.997038 0.937843
O O17 0.666250 0.904116 0.937144
O O18 0.646281 0.000000 0.000000
#
# Coordination Sequence:
#
# PCOD9472007 Si02
#       7
#    16  16  16  16  16  16  16
#     4   8  15  30  51  73  97 129 169 210 258 312
#     4  11  21  34  52  79 109 140 179 218 268 323
#     4   9  18  34  57  82 109 142 176 215 265 320
#     4  10  20  34  51  73 101 133 173 224 267 305
#     4  10  20  33  52  77 106 139 176 225 271 312
#     4  11  22  37  54  74 105 143 182 221 266 329
#     4  10  20  35  52  73  97 138 183 217 259 320
#
# _framework density 16.836290000000002
#
# number of rings (size 3 to 8) (size 9 to 14) (size 15 to 20)
#    0.000    2.143    1.429    3.429    0.000    0.571 
#    0.000    2.857    0.000    1.286    0.000    0.000 
#    0.000    0.000    0.000    0.000    0.000    0.000 
#
# Total GULP energy -312232.040888 kJ/mol
# GULP energy per Si atom -5575.572159 kJ/mol
# Density = 1.679797 g / cm^3
# Si number density = 16.836290 Si / 1000 Ang^3
#
#
#
# Elastic Constant Matrix: (Units=GPa)
#
#
# Indices 1 2 3 4 5 6 
#
# 1 57.3378 24.2221 22.9547 0.0000 0.0000 0.0000
# 2 24.2221 76.4323 36.4417 0.0000 0.0000 0.0000
# 3 22.9547 36.4417 86.7896 0.0000 0.0000 0.0000
# 4 0.0000 0.0000 0.0000 30.4312 0.0000 0.0000
# 5 0.0000 0.0000 0.0000 0.0000 20.9568 0.0000
# 6 0.0000 0.0000 0.0000 0.0000 0.0000 13.3062
#
#
#
# Elastic Compliance Matrix: (Units=1/GPa)
#
#
# Indices 1 2 3 4 5 6 
#
# 1 0.020926 -0.004992 -0.003438 0.000000 0.000000 0.000000
# 2 -0.004992 0.017549 -0.006048 0.000000 0.000000 0.000000
# 3 -0.003438 -0.006048 0.014971 0.000000 0.000000 0.000000
# 4 0.000000 0.000000 0.000000 0.032861 0.000000 0.000000
# 5 0.000000 0.000000 0.000000 0.000000 0.047717 0.000000
# 6 0.000000 0.000000 0.000000 0.000000 0.000000 0.075153
#
#
# Mechanical properties :
#
#
# Convention : Reuss Voigt Hill
#
# Bulk Modulus (GPa) = 40.83564 43.08849 41.96207
# Shear Modulus (GPa) = 20.30056 22.06824 21.18440
#
# Velocity S-wave (km/s) = 3.47618 3.62436 3.55104
# Velocity P-wave (km/s) = 6.35759 6.56984 6.46459
#
# Compressibility (1/GPa) = 0.02448841
#
# Stress axis : x y z
#
# Youngs Moduli (GPa) = 47.78740 56.98237 66.79512
#
# Poissons Ratio (x) = 0.28447 0.22967
# Poissons Ratio (y) = 0.23857 0.40400
# Poissons Ratio (z) = 0.16432 0.34465
#
# Static dielectric constant tensor:
#      x y z
#    x 1.537600 0.000000 0.000000 
#    y 0.000000 1.559060 0.000000 
#    z 0.000000 0.000000 1.592280 
# 
# From -- ./inp_files/72855.got.cif
#   From: 2010.05.17/outbox.cif.g08.bks.cpg/sg63_37_cif.got.tgz:72855.got - 2010.06.03 15:47:04.
