data_PCOD9472114
_publ_section_title
;
Structure prediction by ZEFSAII (Michael W. Deem and Ramdas Pophale) SiO2 
 PCOD9472114
Probable space group: C M C M
;
_chemical_formula_sum "Si O2"
_cell_formula_units_Z 64
_cell_length_a 7.506260
_cell_length_b 18.372834
_cell_length_c 24.420105
_cell_angle_alpha 90.000000
_cell_angle_beta 90.000000
_cell_angle_gamma 90.000000
_cell_volume 3367.807668
_symmetry_space_group_name_H-M "C M C M"
_symmetry_group_IT_number 63
_symmetry_cell_setting 'orthorhombic'
loop_
_space_group_symop_operation_xyz
x,y,z
-x,-y,1/2+z
x,-y,-z
-x,y,1/2-z
-x,-y,-z
x,y,1/2-z
-x,y,z
x,-y,1/2+z
1/2+x,1/2+y,z
1/2-x,1/2-y,1/2+z
1/2+x,1/2-y,-z
1/2-x,1/2+y,1/2-z
1/2-x,1/2-y,-z
1/2+x,1/2+y,1/2-z
1/2-x,1/2+y,z
1/2+x,1/2-y,1/2+z
loop_
_atom_site_type_symbol
_atom_site_label
_atom_site_fract_x
_atom_site_fract_y
_atom_site_fract_z
Si Si1 0.000000 0.590085 0.185128
Si Si2 0.500000 0.082505 0.814895
Si Si3 0.716695 0.668515 0.112046
Si Si4 0.296012 0.579637 0.006230
Si Si5 0.201603 0.666298 0.598706
O O1 0.174283 0.626449 0.158370
O O2 0.000000 0.600645 0.250000
O O3 0.000000 0.503431 0.174160
O O4 0.500000 0.095463 0.750000
O O5 0.332746 0.120170 0.846025
O O6 0.500000 0.665371 0.119467
O O7 0.772273 0.630876 0.054699
O O8 0.770786 0.753368 0.110432
O O9 0.500000 0.566517 0.023196
O O10 0.209900 0.500000 0.000000
O O11 0.294506 0.620723 0.948445
O O12 0.000000 0.677493 0.576255
#
# Coordination Sequence:
#
# PCOD9472114 Si02
#       5
#     8   8  16  16  16
#     4  11  24  39  63  89 111 153 204 246 290 346
#     4   9  20  39  59  83 113 151 202 242 288 352
#     4  10  22  39  58  89 121 155 192 243 297 351
#     4  10  20  33  55  86 120 153 190 239 295 355
#     4   9  20  35  58  83 109 159 189 233 297 341
#
# _framework density 19.003458999999999
#
# number of rings (size 3 to 8) (size 9 to 14) (size 15 to 20)
#    0.750    1.500    0.000    2.250    3.500    2.000 
#    0.000    0.000    0.000    1.500    0.000    0.000 
#    0.000    0.000    0.000    0.000    0.000    0.000 
#
# Total GULP energy -178243.216061 kJ/mol
# GULP energy per Si atom -5570.100502 kJ/mol
# Density = 1.896021 g / cm^3
# Si number density = 19.003459 Si / 1000 Ang^3
#
#
#
# Elastic Constant Matrix: (Units=GPa)
#
#
# Indices 1 2 3 4 5 6 
#
# 1 57.3425 30.1395 21.6973 0.0000 0.0000 0.0000
# 2 30.1395 195.5378 103.7134 0.0000 0.0000 0.0000
# 3 21.6973 103.7134 133.9298 0.0000 0.0000 0.0000
# 4 0.0000 0.0000 0.0000 -74.3168 0.0000 0.0000
# 5 0.0000 0.0000 0.0000 0.0000 3.3177 0.0000
# 6 0.0000 0.0000 0.0000 0.0000 0.0000 -8.3116
#
#
#
# Elastic Compliance Matrix: (Units=1/GPa)
#
#
# Indices 1 2 3 4 5 6 
#
# 1 0.019126 -0.002214 -0.001384 0.000000 0.000000 0.000000
# 2 -0.002214 0.008935 -0.006561 0.000000 0.000000 0.000000
# 3 -0.001384 -0.006561 0.012771 0.000000 0.000000 0.000000
# 4 0.000000 0.000000 0.000000 -0.013456 0.000000 0.000000
# 5 0.000000 0.000000 0.000000 0.000000 0.301416 0.000000
# 6 0.000000 0.000000 0.000000 0.000000 0.000000 -0.120314
#
#
# Mechanical properties :
#
#
# Convention : Reuss Voigt Hill
#
# Bulk Modulus (GPa) = 48.74354 77.54563 63.14458
# Shear Modulus (GPa) = 21.21926 -0.44483 10.38722
#
# Velocity S-wave (km/s) = 3.34518 -0.48434 2.34048
# Velocity P-wave (km/s) = 6.37384 6.37039 6.37211
#
# Compressibility (1/GPa) = 0.02051554
#
# Stress axis : x y z
#
# Youngs Moduli (GPa) = 52.28358 111.91878 78.30107
#
# Poissons Ratio (x) = 0.24778 0.10838
# Poissons Ratio (y) = 0.11575 0.51370
# Poissons Ratio (z) = 0.07237 0.73425
#
# Static dielectric constant tensor:
#      x y z
#    x 1.701280 0.000000 0.000000 
#    y 0.000000 1.680400 0.000000 
#    z 0.000000 0.000000 1.621990 
# 
# From -- ./inp_files/59411.got.cif
#   From: 2010.05.17/outbox.cif.g08.bks.cpg/sg63_30_cif.got.tgz:59411.got - 2010.06.03 15:47:04.
