data_PCOD9472805
_publ_section_title
;
Structure prediction by ZEFSAII (Michael W. Deem and Ramdas Pophale) SiO2 
 PCOD9472805
Probable space group: C M C M
;
_chemical_formula_sum "Si O2"
_cell_formula_units_Z 96
_cell_length_a 8.512662
_cell_length_b 31.114036
_cell_length_c 19.642778
_cell_angle_alpha 90.000000
_cell_angle_beta 90.000000
_cell_angle_gamma 90.000000
_cell_volume 5202.650451
_symmetry_space_group_name_H-M "C M C M"
_symmetry_group_IT_number 63
_symmetry_cell_setting 'orthorhombic'
loop_
_space_group_symop_operation_xyz
x,y,z
-x,-y,1/2+z
x,-y,-z
-x,y,1/2-z
-x,-y,-z
x,y,1/2-z
-x,y,z
x,-y,1/2+z
1/2+x,1/2+y,z
1/2-x,1/2-y,1/2+z
1/2+x,1/2-y,-z
1/2-x,1/2+y,1/2-z
1/2-x,1/2-y,-z
1/2+x,1/2+y,1/2-z
1/2-x,1/2+y,z
1/2+x,1/2-y,1/2+z
loop_
_atom_site_type_symbol
_atom_site_label
_atom_site_fract_x
_atom_site_fract_y
_atom_site_fract_z
Si Si1 0.688609 0.863724 0.586185
Si Si2 0.310434 0.780887 0.671246
Si Si3 0.687964 0.186766 0.671522
Si Si4 0.811613 0.881794 0.064250
Si Si5 0.691356 0.520087 0.927643
Si Si6 0.809678 0.055158 0.328427
O O1 0.500000 0.864103 0.585139
O O2 0.740986 0.819727 0.622957
O O3 0.751074 0.867839 0.509787
O O4 0.747772 0.904073 0.630070
O O5 0.264145 0.789412 0.750000
O O6 0.500000 0.778672 0.669260
O O7 0.243604 0.734528 0.651358
O O8 0.739982 0.179940 0.750000
O O9 0.500000 0.185386 0.669728
O O10 0.754815 0.150985 0.621550
O O11 0.756543 0.930696 0.078355
O O12 0.000000 0.882098 0.062788
O O13 0.500000 0.520436 0.927947
O O14 0.740672 0.488209 0.867430
O O15 0.741169 0.500000 0.000000
O O16 0.758503 0.056124 0.250000
O O17 0.000000 0.056430 0.329798
#
# Coordination Sequence:
#
# PCOD9472805 Si02
#       6
#    16  16  16  16  16  16
#     4  11  22  36  56  84 119 152 185 231 289 344
#     4   9  19  37  59  81 109 149 193 233 277 335
#     4  10  22  40  60  84 115 147 184 235 289 339
#     4  11  22  37  61  86 112 150 194 236 280 334
#     4   9  17  34  57  80 109 145 189 236 279 327
#     4  10  20  35  57  84 112 146 192 241 285 336
#
# _framework density 18.452133
#
# number of rings (size 3 to 8) (size 9 to 14) (size 15 to 20)
#    0.000    2.000    1.667    2.000    0.000    4.667 
#    0.000    5.833    0.000    0.000    0.000    0.000 
#    0.000    0.000    0.000    0.000    0.000    0.000 
#
# Total GULP energy -268055.027557 kJ/mol
# GULP energy per Si atom -5584.479741 kJ/mol
# Density = 1.841014 g / cm^3
# Si number density = 18.452133 Si / 1000 Ang^3
#
#
#
# Elastic Constant Matrix: (Units=GPa)
#
#
# Indices 1 2 3 4 5 6 
#
# 1 24.1025 35.5375 29.5978 0.0000 0.0000 0.0000
# 2 35.5375 206.7141 124.1582 0.0000 0.0000 0.0000
# 3 29.5978 124.1582 148.7642 0.0000 0.0000 0.0000
# 4 0.0000 0.0000 0.0000 41.0570 0.0000 0.0000
# 5 0.0000 0.0000 0.0000 0.0000 26.7754 0.0000
# 6 0.0000 0.0000 0.0000 0.0000 0.0000 22.7458
#
#
#
# Elastic Compliance Matrix: (Units=1/GPa)
#
#
# Indices 1 2 3 4 5 6 
#
# 1 0.058565 -0.006155 -0.006515 0.000000 0.000000 0.000000
# 2 -0.006155 0.010347 -0.007411 0.000000 0.000000 0.000000
# 3 -0.006515 -0.007411 0.014203 0.000000 0.000000 0.000000
# 4 0.000000 0.000000 0.000000 0.024356 0.000000 0.000000
# 5 0.000000 0.000000 0.000000 0.000000 0.037348 0.000000
# 6 0.000000 0.000000 0.000000 0.000000 0.000000 0.043964
#
#
# Mechanical properties :
#
#
# Convention : Reuss Voigt Hill
#
# Bulk Modulus (GPa) = 23.28103 84.24087 53.76095
# Shear Modulus (GPa) = 20.55383 30.80146 25.67765
#
# Velocity S-wave (km/s) = 3.34113 4.09009 3.73444
# Velocity P-wave (km/s) = 5.24677 8.24973 6.91327
#
# Compressibility (1/GPa) = 0.04295343
#
# Stress axis : x y z
#
# Youngs Moduli (GPa) = 17.07500 96.64626 70.40586
#
# Poissons Ratio (x) = 0.59489 0.45868
# Poissons Ratio (y) = 0.10510 0.52177
# Poissons Ratio (z) = 0.11124 0.71624
#
# Static dielectric constant tensor:
#      x y z
#    x 1.633620 0.000000 0.000000 
#    y 0.000000 1.613740 0.000000 
#    z 0.000000 0.000000 1.613460 
# 
# From -- ./inp_files/51393.got.cif
#   From: 2010.05.17/outbox.cif.g08.bks.cpg/sg63_26_cif.got.tgz:51393.got - 2010.06.03 15:47:04.
