data_PCOD9472199
_publ_section_title
;
Structure prediction by ZEFSAII (Michael W. Deem and Ramdas Pophale) SiO2 
 PCOD9472199
Probable space group: C M C M
;
_chemical_formula_sum "Si O2"
_cell_formula_units_Z 72
_cell_length_a 13.432388
_cell_length_b 32.872901
_cell_length_c 7.395526
_cell_angle_alpha 90.000000
_cell_angle_beta 90.000000
_cell_angle_gamma 90.000000
_cell_volume 3265.580004
_symmetry_space_group_name_H-M "C M C M"
_symmetry_group_IT_number 63
_symmetry_cell_setting 'orthorhombic'
loop_
_space_group_symop_operation_xyz
x,y,z
-x,-y,1/2+z
x,-y,-z
-x,y,1/2-z
-x,-y,-z
x,y,1/2-z
-x,y,z
x,-y,1/2+z
1/2+x,1/2+y,z
1/2-x,1/2-y,1/2+z
1/2+x,1/2-y,-z
1/2-x,1/2+y,1/2-z
1/2-x,1/2-y,-z
1/2+x,1/2+y,1/2-z
1/2-x,1/2+y,z
1/2+x,1/2-y,1/2+z
loop_
_atom_site_type_symbol
_atom_site_label
_atom_site_fract_x
_atom_site_fract_y
_atom_site_fract_z
Si Si1 0.389572 0.772753 0.469578
Si Si2 0.000000 0.047630 0.465179
Si Si3 0.388129 0.952320 0.966096
Si Si4 0.685209 0.313298 0.543392
Si Si5 0.805867 0.904341 0.972379
O O1 0.382096 0.772708 0.250000
O O2 0.500000 0.785956 0.520135
O O3 0.369683 0.726395 0.533698
O O4 0.301222 0.800710 0.540089
O O5 0.898825 0.068395 0.531592
O O6 0.000000 0.053913 0.250000
O O7 0.000000 0.000000 0.500000
O O8 0.391768 0.947187 0.750000
O O9 0.500000 0.943834 0.036271
O O10 0.298627 0.923947 0.032659
O O11 0.366160 0.000000 0.000000
O O12 0.649265 0.316335 0.750000
O O13 0.676924 0.358133 0.464921
O O14 0.803022 0.903772 0.750000
#
# Coordination Sequence:
#
# PCOD9472199 Si02
#       5
#    16   8  16  16  16
#     4   9  18  32  50  71  99 131 160 199 250 300
#     4  10  20  34  52  74 102 132 168 206 248 296
#     4   9  17  30  47  67  92 121 154 192 236 283
#     4   9  18  32  50  73  96 125 167 204 242 290
#     4   9  18  31  50  74  96 124 162 204 239 283
#
# _framework density 22.04815
#
# number of rings (size 3 to 8) (size 9 to 14) (size 15 to 20)
#    0.000    2.889    0.000    0.667    1.556    1.333 
#    0.000    4.444    0.000    2.667    0.000    0.000 
#    0.000    0.000    0.000    0.000    0.000    0.000 
#
# Total GULP energy -200970.110062 kJ/mol
# GULP energy per Si atom -5582.503057 kJ/mol
# Density = 2.199797 g / cm^3
# Si number density = 22.048150 Si / 1000 Ang^3
#
#
#
# Elastic Constant Matrix: (Units=GPa)
#
#
# Indices 1 2 3 4 5 6 
#
# 1 78.7783 34.7391 -2.3040 0.0000 0.0000 0.0000
# 2 34.7391 131.7700 -4.4878 0.0000 0.0000 0.0000
# 3 -2.3040 -4.4878 77.2930 0.0000 0.0000 0.0000
# 4 0.0000 0.0000 0.0000 9.9857 0.0000 0.0000
# 5 0.0000 0.0000 0.0000 0.0000 -4.6406 0.0000
# 6 0.0000 0.0000 0.0000 0.0000 0.0000 -2.8002
#
#
#
# Elastic Compliance Matrix: (Units=1/GPa)
#
#
# Indices 1 2 3 4 5 6 
#
# 1 0.014367 -0.003781 0.000209 0.000000 0.000000 0.000000
# 2 -0.003781 0.008599 0.000387 0.000000 0.000000 0.000000
# 3 0.000209 0.000387 0.012966 0.000000 0.000000 0.000000
# 4 0.000000 0.000000 0.000000 0.100143 0.000000 0.000000
# 5 0.000000 0.000000 0.000000 0.000000 -0.215488 0.000000
# 6 0.000000 0.000000 0.000000 0.000000 0.000000 -0.357117
#
#
# Mechanical properties :
#
#
# Convention : Reuss Voigt Hill
#
# Bulk Modulus (GPa) = 33.82729 38.19288 36.01009
# Shear Modulus (GPa) = -11.89613 17.83524 2.96956
#
# Velocity S-wave (km/s) = -2.32535 2.84724 1.16180
# Velocity P-wave (km/s) = 2.85764 5.30746 4.26235
#
# Compressibility (1/GPa) = 0.02956193
#
# Stress axis : x y z
#
# Youngs Moduli (GPa) = 69.60354 116.29491 77.12212
#
# Poissons Ratio (x) = 0.43966 -0.01610
# Poissons Ratio (y) = 0.26314 -0.02981
# Poissons Ratio (z) = -0.01453 -0.04496
#
# Static dielectric constant tensor:
#      x y z
#    x 1.779240 0.000000 0.000000 
#    y 0.000000 1.789180 0.000000 
#    z 0.000000 0.000000 1.898720 
# 
# From -- ./inp_files/17569.got.cif
#   From: 2010.05.17/outbox.cif.g08.bks.cpg/sg63_9_cif.got.tgz:17569.got - 2010.06.03 15:47:04.
