data_PCOD9472372
_publ_section_title
;
Structure prediction by ZEFSAII (Michael W. Deem and Ramdas Pophale) SiO2 
 PCOD9472372
Probable space group: C M C M
;
_chemical_formula_sum "Si O2"
_cell_formula_units_Z 96
_cell_length_a 20.891677
_cell_length_b 28.679531
_cell_length_c 8.198082
_cell_angle_alpha 90.000000
_cell_angle_beta 90.000000
_cell_angle_gamma 90.000000
_cell_volume 4911.991489
_symmetry_space_group_name_H-M "C M C M"
_symmetry_group_IT_number 63
_symmetry_cell_setting 'orthorhombic'
loop_
_space_group_symop_operation_xyz
x,y,z
-x,-y,1/2+z
x,-y,-z
-x,y,1/2-z
-x,-y,-z
x,y,1/2-z
-x,y,z
x,-y,1/2+z
1/2+x,1/2+y,z
1/2-x,1/2-y,1/2+z
1/2+x,1/2-y,-z
1/2-x,1/2+y,1/2-z
1/2-x,1/2-y,-z
1/2+x,1/2+y,1/2-z
1/2-x,1/2+y,z
1/2+x,1/2-y,1/2+z
loop_
_atom_site_type_symbol
_atom_site_label
_atom_site_fract_x
_atom_site_fract_y
_atom_site_fract_z
Si Si1 0.926699 0.052159 0.445298
Si Si2 0.685604 0.724303 0.947502
Si Si3 0.072446 0.398148 0.553208
Si Si4 0.572518 0.208703 0.051109
Si Si5 0.300946 0.947688 0.444224
Si Si6 0.186872 0.117888 0.553674
O O1 0.926094 0.053593 0.250000
O O2 0.876995 0.089678 0.510983
O O3 0.000000 0.060208 0.501956
O O4 0.908054 0.000000 0.500000
O O5 0.683195 0.723476 0.750000
O O6 0.625075 0.754626 0.005841
O O7 0.685100 0.670988 0.006926
O O8 0.750000 0.750000 0.000000
O O9 0.072196 0.398583 0.750000
O O10 0.086355 0.344677 0.500667
O O11 0.128273 0.431706 0.494850
O O12 0.000000 0.410051 0.498978
O O13 0.573240 0.208796 0.250000
O O14 0.500000 0.220227 0.000594
O O15 0.297482 0.946844 0.250000
O O16 0.248045 0.911236 0.509293
O O17 0.286982 0.000000 0.500000
O O18 0.191900 0.119905 0.750000
#
# Coordination Sequence:
#
# PCOD9472372 Si02
#       6
#    16  16  16  16  16  16
#     4  10  21  37  58  83 110 142 180 222 271 326
#     4  10  20  34  54  80 109 141 178 220 265 312
#     4   9  18  34  56  80 105 135 173 214 258 312
#     4   8  15  30  53  79 105 136 174 210 247 300
#     4  11  23  37  53  75 104 137 176 219 264 315
#     4  10  22  37  54  80 111 144 183 224 266 318
#
# _framework density 19.544007000000001
#
# number of rings (size 3 to 8) (size 9 to 14) (size 15 to 20)
#    0.000    2.333    0.000    3.500    0.000    5.667 
#    0.000    1.667    0.000    1.500    0.000    0.000 
#    0.000    0.000    0.000    0.000    0.000    0.000 
#
# Total GULP energy -268014.572484 kJ/mol
# GULP energy per Si atom -5583.636927 kJ/mol
# Density = 1.949952 g / cm^3
# Si number density = 19.544007 Si / 1000 Ang^3
#
#
#
# Elastic Constant Matrix: (Units=GPa)
#
#
# Indices 1 2 3 4 5 6 
#
# 1 68.3312 30.9361 -3.6962 0.0000 0.0000 0.0000
# 2 30.9361 69.3512 -1.1153 0.0000 0.0000 0.0000
# 3 -3.6962 -1.1153 7.9152 0.0000 0.0000 0.0000
# 4 0.0000 0.0000 0.0000 6.3299 0.0000 0.0000
# 5 0.0000 0.0000 0.0000 0.0000 21.3620 0.0000
# 6 0.0000 0.0000 0.0000 0.0000 0.0000 7.9801
#
#
#
# Elastic Compliance Matrix: (Units=1/GPa)
#
#
# Indices 1 2 3 4 5 6 
#
# 1 0.018784 -0.008257 0.007608 0.000000 0.000000 0.000000
# 2 -0.008257 0.018082 -0.001308 0.000000 0.000000 0.000000
# 3 0.007608 -0.001308 0.129707 0.000000 0.000000 0.000000
# 4 0.000000 0.000000 0.000000 0.157980 0.000000 0.000000
# 5 0.000000 0.000000 0.000000 0.000000 0.046812 0.000000
# 6 0.000000 0.000000 0.000000 0.000000 0.000000 0.125312
#
#
# Mechanical properties :
#
#
# Convention : Reuss Voigt Hill
#
# Bulk Modulus (GPa) = 6.14778 21.98298 14.06538
# Shear Modulus (GPa) = 9.01208 15.09926 12.05567
#
# Velocity S-wave (km/s) = 2.14969 2.78254 2.48634
# Velocity P-wave (km/s) = 3.05189 4.64712 3.93127
#
# Compressibility (1/GPa) = 0.16266024
#
# Stress axis : x y z
#
# Youngs Moduli (GPa) = 53.23566 55.30486 7.70966
#
# Poissons Ratio (x) = 0.45665 -0.05866
# Poissons Ratio (y) = 0.43957 0.01008
# Poissons Ratio (z) = -0.40503 0.07233
#
# Static dielectric constant tensor:
#      x y z
#    x 1.679790 0.000000 0.000000 
#    y 0.000000 1.665320 0.000000 
#    z 0.000000 0.000000 1.681650 
# 
# From -- ./inp_files/8624.got.cif
#   From: 2010.05.17/outbox.cif.g08.bks.cpg/sg63_5_cif.got.tgz:8624.got - 2010.06.03 15:47:04.
