data_PCOD9472987
_publ_section_title
;
Structure prediction by ZEFSAII (Michael W. Deem and Ramdas Pophale) SiO2 
 PCOD9472987
Probable space group: C M C M
;
_chemical_formula_sum "Si O2"
_cell_formula_units_Z 96
_cell_length_a 7.757678
_cell_length_b 30.700666
_cell_length_c 20.086804
_cell_angle_alpha 90.000000
_cell_angle_beta 90.000000
_cell_angle_gamma 90.000000
_cell_volume 4783.991375
_symmetry_space_group_name_H-M "C M C M"
_symmetry_group_IT_number 63
_symmetry_cell_setting 'orthorhombic'
loop_
_space_group_symop_operation_xyz
x,y,z
-x,-y,1/2+z
x,-y,-z
-x,y,1/2-z
-x,-y,-z
x,y,1/2-z
-x,y,z
x,-y,1/2+z
1/2+x,1/2+y,z
1/2-x,1/2-y,1/2+z
1/2+x,1/2-y,-z
1/2-x,1/2+y,1/2-z
1/2-x,1/2-y,-z
1/2+x,1/2+y,1/2-z
1/2-x,1/2+y,z
1/2+x,1/2-y,1/2+z
loop_
_atom_site_type_symbol
_atom_site_label
_atom_site_fract_x
_atom_site_fract_y
_atom_site_fract_z
Si Si1 0.702695 0.867036 0.587963
Si Si2 0.208255 0.785176 0.674310
Si Si3 0.710703 0.185419 0.674410
Si Si4 0.706290 0.880209 0.061273
Si Si5 0.291377 0.519420 0.929199
Si Si6 0.795741 0.050683 0.324621
O O1 0.500000 0.875913 0.583894
O O2 0.729766 0.820297 0.621525
O O3 0.774576 0.870271 0.512996
O O4 0.776347 0.904280 0.635760
O O5 0.263790 0.796381 0.750000
O O6 0.262136 0.735433 0.660494
O O7 0.000000 0.786083 0.673936
O O8 0.764477 0.174370 0.750000
O O9 0.500000 0.184857 0.674451
O O10 0.772998 0.152037 0.618512
O O11 0.500000 0.873676 0.059241
O O12 0.740285 0.930511 0.077429
O O13 0.500000 0.517584 0.929707
O O14 0.225749 0.488413 0.870187
O O15 0.231551 0.500000 0.000000
O O16 0.723175 0.053000 0.250000
O O17 0.000000 0.042933 0.318775
#
# Coordination Sequence:
#
# PCOD9472987 Si02
#       6
#    16  16  16  16  16  16
#     4  11  22  33  49  78 113 140 168 212 264 313
#     4   9  18  34  56  77 100 137 181 218 254 304
#     4   8  16  34  57  78 102 136 178 218 256 307
#     4  10  21  35  54  80 108 138 172 213 262 313
#     4  10  20  36  56  76 101 136 175 213 259 311
#     4  10  21  37  56  77 102 136 179 219 255 307
#
# _framework density 20.066927
#
# number of rings (size 3 to 8) (size 9 to 14) (size 15 to 20)
#    0.000    2.333    1.667    2.000    0.000    5.667 
#    0.000    0.833    0.000    1.000    0.000    0.000 
#    0.000    0.000    0.000    0.000    0.000    0.000 
#
# Total GULP energy -267966.651718 kJ/mol
# GULP energy per Si atom -5582.638577 kJ/mol
# Density = 2.002125 g / cm^3
# Si number density = 20.066927 Si / 1000 Ang^3
#
#
#
# Elastic Constant Matrix: (Units=GPa)
#
#
# Indices 1 2 3 4 5 6 
#
# 1 24.2968 -9.7032 6.6368 0.0000 0.0000 0.0000
# 2 -9.7032 144.5133 122.1955 0.0000 0.0000 0.0000
# 3 6.6368 122.1955 203.9729 0.0000 0.0000 0.0000
# 4 0.0000 0.0000 0.0000 38.5693 0.0000 0.0000
# 5 0.0000 0.0000 0.0000 0.0000 11.6108 0.0000
# 6 0.0000 0.0000 0.0000 0.0000 0.0000 11.2981
#
#
#
# Elastic Compliance Matrix: (Units=1/GPa)
#
#
# Indices 1 2 3 4 5 6 
#
# 1 0.046605 0.008940 -0.006872 0.000000 0.000000 0.000000
# 2 0.008940 0.015739 -0.009719 0.000000 0.000000 0.000000
# 3 -0.006872 -0.009719 0.010949 0.000000 0.000000 0.000000
# 4 0.000000 0.000000 0.000000 0.025927 0.000000 0.000000
# 5 0.000000 0.000000 0.000000 0.000000 0.086127 0.000000
# 6 0.000000 0.000000 0.000000 0.000000 0.000000 0.088510
#
#
# Mechanical properties :
#
#
# Convention : Reuss Voigt Hill
#
# Bulk Modulus (GPa) = 17.24445 67.89346 42.56896
# Shear Modulus (GPa) = 16.20797 29.20591 22.70694
#
# Velocity S-wave (km/s) = 2.84508 3.81914 3.36752
# Velocity P-wave (km/s) = 4.40509 7.30443 6.03156
#
# Compressibility (1/GPa) = 0.05798968
#
# Stress axis : x y z
#
# Youngs Moduli (GPa) = 21.45679 63.53830 91.33300
#
# Poissons Ratio (x) = -0.56805 0.62767
# Poissons Ratio (y) = -0.19183 0.88771
# Poissons Ratio (z) = 0.14746 0.61756
#
# Static dielectric constant tensor:
#      x y z
#    x 1.753100 0.000000 0.000000 
#    y 0.000000 1.661000 0.000000 
#    z 0.000000 0.000000 1.719920 
# 
# From -- ./inp_files/51395.got.cif
#   From: 2010.05.17/outbox.cif.g08.bks.cpg/sg63_26_cif.got.tgz:51395.got - 2010.06.03 15:47:04.
