data_PCOD9472226
_publ_section_title
;
Structure prediction by ZEFSAII (Michael W. Deem and Ramdas Pophale) SiO2 
 PCOD9472226
Probable space group: C M C M
;
_chemical_formula_sum "Si O2"
_cell_formula_units_Z 80
_cell_length_a 14.314045
_cell_length_b 18.962659
_cell_length_c 17.872329
_cell_angle_alpha 90.000000
_cell_angle_beta 90.000000
_cell_angle_gamma 90.000000
_cell_volume 4851.128336
_symmetry_space_group_name_H-M "C M C M"
_symmetry_group_IT_number 63
_symmetry_cell_setting 'orthorhombic'
loop_
_space_group_symop_operation_xyz
x,y,z
-x,-y,1/2+z
x,-y,-z
-x,y,1/2-z
-x,-y,-z
x,y,1/2-z
-x,y,z
x,-y,1/2+z
1/2+x,1/2+y,z
1/2-x,1/2-y,1/2+z
1/2+x,1/2-y,-z
1/2-x,1/2+y,1/2-z
1/2-x,1/2-y,-z
1/2+x,1/2+y,1/2-z
1/2-x,1/2+y,z
1/2+x,1/2-y,1/2+z
loop_
_atom_site_type_symbol
_atom_site_label
_atom_site_fract_x
_atom_site_fract_y
_atom_site_fract_z
Si Si1 0.894597 0.563621 0.060543
Si Si2 0.220907 0.656293 0.549345
Si Si3 0.607547 0.578141 0.336887
Si Si4 0.773487 0.526649 0.837957
Si Si5 0.889545 0.203486 0.455890
O O1 0.852891 0.527786 0.134314
O O2 0.000000 0.589884 0.070237
O O3 0.896431 0.500000 0.000000
O O4 0.827550 0.621824 0.024199
O O5 0.220897 0.597367 0.613376
O O6 0.157798 0.723487 0.570073
O O7 0.325115 0.679408 0.525706
O O8 0.624294 0.598370 0.250000
O O9 0.500000 0.554991 0.343444
O O10 0.677387 0.514722 0.355149
O O11 0.620219 0.643866 0.392096
O O12 0.779627 0.540600 0.750000
O O13 0.000000 0.211723 0.472145
#
# Coordination Sequence:
#
# PCOD9472226 Si02
#       5
#    16  16  16  16  16
#     4   9  17  31  50  72 102 135 168 211 258 301
#     4  10  20  34  52  78 105 138 175 218 265 307
#     4   9  18  33  53  78 108 139 171 213 263 309
#     4  10  20  34  52  77 107 137 175 216 258 311
#     4  10  20  34  54  78 104 138 178 216 259 313
#
# _framework density 16.491008000000001
#
# number of rings (size 3 to 8) (size 9 to 14) (size 15 to 20)
#    0.000    2.400    2.000    0.600    0.000    2.800 
#    0.000    2.000    0.000    0.000    0.000    0.000 
#    0.000    0.000    0.000    0.000    0.000    0.000 
#
# Total GULP energy -222884.587111 kJ/mol
# GULP energy per Si atom -5572.114678 kJ/mol
# Density = 1.645347 g / cm^3
# Si number density = 16.491008 Si / 1000 Ang^3
#
#
#
# Elastic Constant Matrix: (Units=GPa)
#
#
# Indices 1 2 3 4 5 6 
#
# 1 127.0243 49.3221 46.5667 0.0000 0.0000 0.0000
# 2 49.3221 85.4421 48.6547 0.0000 0.0000 0.0000
# 3 46.5667 48.6547 64.8356 0.0000 0.0000 0.0000
# 4 0.0000 0.0000 0.0000 19.0971 0.0000 0.0000
# 5 0.0000 0.0000 0.0000 0.0000 18.9006 0.0000
# 6 0.0000 0.0000 0.0000 0.0000 0.0000 23.7089
#
#
#
# Elastic Compliance Matrix: (Units=1/GPa)
#
#
# Indices 1 2 3 4 5 6 
#
# 1 0.011191 -0.003288 -0.005570 0.000000 0.000000 0.000000
# 2 -0.003288 0.021403 -0.013700 0.000000 0.000000 0.000000
# 3 -0.005570 -0.013700 0.029705 0.000000 0.000000 0.000000
# 4 0.000000 0.000000 0.000000 0.052364 0.000000 0.000000
# 5 0.000000 0.000000 0.000000 0.000000 0.052908 0.000000
# 6 0.000000 0.000000 0.000000 0.000000 0.000000 0.042178
#
#
# Mechanical properties :
#
#
# Convention : Reuss Voigt Hill
#
# Bulk Modulus (GPa) = 58.19773 62.93212 60.56492
# Shear Modulus (GPa) = 19.18680 21.19189 20.18935
#
# Velocity S-wave (km/s) = 3.41467 3.58866 3.50274
# Velocity P-wave (km/s) = 7.13539 7.44417 7.29141
#
# Compressibility (1/GPa) = 0.01718280
#
# Stress axis : x y z
#
# Youngs Moduli (GPa) = 89.35437 46.72134 33.66396
#
# Poissons Ratio (x) = 0.15364 0.18752
# Poissons Ratio (y) = 0.29383 0.46120
# Poissons Ratio (z) = 0.49773 0.64009
#
# Static dielectric constant tensor:
#      x y z
#    x 1.569790 0.000000 0.000000 
#    y 0.000000 1.541420 0.000000 
#    z 0.000000 0.000000 1.538020 
# 
# From -- ./inp_files/31638.got.cif
#   From: 2010.05.17/outbox.cif.g08.bks.cpg/sg63_16_cif.got.tgz:31638.got - 2010.06.03 15:47:04.
