data_PCOD9472127
_publ_section_title
;
Structure prediction by ZEFSAII (Michael W. Deem and Ramdas Pophale) SiO2 
 PCOD9472127
Probable space group: C M C M
;
_chemical_formula_sum "Si O2"
_cell_formula_units_Z 68
_cell_length_a 19.009612
_cell_length_b 10.500136
_cell_length_c 17.852825
_cell_angle_alpha 90.000000
_cell_angle_beta 90.000000
_cell_angle_gamma 90.000000
_cell_volume 3563.486557
_symmetry_space_group_name_H-M "C M C M"
_symmetry_group_IT_number 63
_symmetry_cell_setting 'orthorhombic'
loop_
_space_group_symop_operation_xyz
x,y,z
-x,-y,1/2+z
x,-y,-z
-x,y,1/2-z
-x,-y,-z
x,y,1/2-z
-x,y,z
x,-y,1/2+z
1/2+x,1/2+y,z
1/2-x,1/2-y,1/2+z
1/2+x,1/2-y,-z
1/2-x,1/2+y,1/2-z
1/2-x,1/2-y,-z
1/2+x,1/2+y,1/2-z
1/2-x,1/2+y,z
1/2+x,1/2-y,1/2+z
loop_
_atom_site_type_symbol
_atom_site_label
_atom_site_fract_x
_atom_site_fract_y
_atom_site_fract_z
Si Si1 0.000000 0.655576 0.500358
Si Si2 0.000000 0.212045 0.750000
Si Si3 0.653851 0.020607 0.834428
Si Si4 0.613598 0.248534 0.382895
Si Si5 0.000000 0.636405 0.832944
Si Si6 0.259620 0.374850 0.449505
O O1 0.000000 0.500000 0.500000
O O2 0.932457 0.704309 0.454563
O O3 0.000000 0.704228 0.586372
O O4 0.938808 0.217958 0.815904
O O5 0.679516 0.039757 0.750000
O O6 0.570470 0.051685 0.834673
O O7 0.695427 0.108055 0.891921
O O8 0.659155 0.874099 0.858066
O O9 0.667387 0.358426 0.405297
O O10 0.000000 0.701865 0.750000
O O11 0.260965 0.500000 0.500000
O O12 0.250000 0.250000 0.500000
#
# Coordination Sequence:
#
# PCOD9472127 Si02
#       6
#     8   4  16  16   8  16
#     4  11  19  33  65  94 124 168 225 280 328 397
#     4  10  22  42  68 104 128 182 230 290 344 420
#     4  11  22  37  64 101 135 170 223 285 344 397
#     4  11  22  38  68 100 133 173 230 285 341 410
#     4  10  20  33  57  93 130 162 220 288 333 383
#     4  12  26  44  64 100 143 185 228 280 347 421
#
# _framework density 19.082433999999999
#
# number of rings (size 3 to 8) (size 9 to 14) (size 15 to 20)
#    0.000    0.941    5.882    2.118    3.294    0.000 
#    0.000    2.353    0.000    0.000   12.235    0.000 
#    0.000    0.000    0.000    0.000    0.000    0.000 
#
# Total GULP energy -189339.368021 kJ/mol
# GULP energy per Si atom -5568.804942 kJ/mol
# Density = 1.903900 g / cm^3
# Si number density = 19.082434 Si / 1000 Ang^3
#
#
#
# Elastic Constant Matrix: (Units=GPa)
#
#
# Indices 1 2 3 4 5 6 
#
# 1 93.8969 36.5694 58.7945 0.0000 0.0000 0.0000
# 2 36.5694 64.3571 47.9442 0.0000 0.0000 0.0000
# 3 58.7945 47.9442 188.6213 0.0000 0.0000 0.0000
# 4 0.0000 0.0000 0.0000 8.1937 0.0000 0.0000
# 5 0.0000 0.0000 0.0000 0.0000 42.6663 0.0000
# 6 0.0000 0.0000 0.0000 0.0000 0.0000 9.0135
#
#
#
# Elastic Compliance Matrix: (Units=1/GPa)
#
#
# Indices 1 2 3 4 5 6 
#
# 1 0.015014 -0.006223 -0.003098 0.000000 0.000000 0.000000
# 2 -0.006223 0.021747 -0.003588 0.000000 0.000000 0.000000
# 3 -0.003098 -0.003588 0.007179 0.000000 0.000000 0.000000
# 4 0.000000 0.000000 0.000000 0.122046 0.000000 0.000000
# 5 0.000000 0.000000 0.000000 0.000000 0.023438 0.000000
# 6 0.000000 0.000000 0.000000 0.000000 0.000000 0.110945
#
#
# Mechanical properties :
#
#
# Convention : Reuss Voigt Hill
#
# Bulk Modulus (GPa) = 55.18182 70.38795 62.78489
# Shear Modulus (GPa) = 15.04994 25.54584 20.29789
#
# Velocity S-wave (km/s) = 2.81139 3.66281 3.26497
# Velocity P-wave (km/s) = 6.28641 7.40639 6.86926
#
# Compressibility (1/GPa) = 0.01812191
#
# Stress axis : x y z
#
# Youngs Moduli (GPa) = 66.60672 45.98245 139.28932
#
# Poissons Ratio (x) = 0.28616 0.43152
# Poissons Ratio (y) = 0.41450 0.49977
# Poissons Ratio (z) = 0.20635 0.16499
#
# Static dielectric constant tensor:
#      x y z
#    x 1.672380 0.000000 0.000000 
#    y 0.000000 1.654860 0.000000 
#    z 0.000000 0.000000 1.704290 
# 
# From -- ./inp_files/46674.got.cif
#   From: 2010.05.17/outbox.cif.g08.bks.cpg/sg63_24_cif.got.tgz:46674.got - 2010.06.03 15:47:04.
