data_PCOD9472733
_publ_section_title
;
Structure prediction by ZEFSAII (Michael W. Deem and Ramdas Pophale) SiO2 
 PCOD9472733
Probable space group: C M C M
;
_chemical_formula_sum "Si O2"
_cell_formula_units_Z 80
_cell_length_a 13.125354
_cell_length_b 13.012969
_cell_length_c 24.202926
_cell_angle_alpha 90.000000
_cell_angle_beta 90.000000
_cell_angle_gamma 90.000000
_cell_volume 4133.855518
_symmetry_space_group_name_H-M "C M C M"
_symmetry_group_IT_number 63
_symmetry_cell_setting 'orthorhombic'
loop_
_space_group_symop_operation_xyz
x,y,z
-x,-y,1/2+z
x,-y,-z
-x,y,1/2-z
-x,-y,-z
x,y,1/2-z
-x,y,z
x,-y,1/2+z
1/2+x,1/2+y,z
1/2-x,1/2-y,1/2+z
1/2+x,1/2-y,-z
1/2-x,1/2+y,1/2-z
1/2-x,1/2-y,-z
1/2+x,1/2+y,1/2-z
1/2-x,1/2+y,z
1/2+x,1/2-y,1/2+z
loop_
_atom_site_type_symbol
_atom_site_label
_atom_site_fract_x
_atom_site_fract_y
_atom_site_fract_z
Si Si1 0.377201 0.232059 0.250000
Si Si2 0.114689 0.776897 0.558722
Si Si3 0.116122 0.629543 0.134188
Si Si4 0.377382 0.533068 0.750000
Si Si5 0.827991 0.826404 0.435910
Si Si6 0.179284 0.968659 0.871381
O O1 0.500000 0.238736 0.250000
O O2 0.350752 0.172938 0.305831
O O3 0.338739 0.348712 0.250000
O O4 0.135457 0.828437 0.498938
O O5 0.206175 0.695413 0.565626
O O6 0.128009 0.866663 0.603907
O O7 0.000000 0.735136 0.560468
O O8 0.123562 0.726560 0.093213
O O9 0.200210 0.546892 0.117890
O O10 0.000000 0.592635 0.136635
O O11 0.500000 0.533951 0.750000
O O12 0.341678 0.481618 0.693356
O O13 0.855630 0.928794 0.402867
#
# Coordination Sequence:
#
# PCOD9472733 Si02
#       6
#     8  16  16   8  16  16
#     4   9  17  32  54  76 104 142 180 221 271 321
#     4  10  22  38  57  81 113 148 182 225 275 328
#     4  10  20  35  56  81 109 144 185 228 274 327
#     4  11  21  34  57  84 110 144 183 225 274 325
#     4  10  21  37  56  82 112 144 185 227 274 326
#     4  11  22  36  57  85 111 143 184 229 272 324
#
# _framework density 19.352394
#
# number of rings (size 3 to 8) (size 9 to 14) (size 15 to 20)
#    0.000    1.800    2.000    2.400    0.000    4.000 
#    0.000    0.000    0.000    7.200    0.000    0.000 
#    0.000    0.000    0.000    0.000    0.000    0.000 
#
# Total GULP energy -223358.745998 kJ/mol
# GULP energy per Si atom -5583.968650 kJ/mol
# Density = 1.930835 g / cm^3
# Si number density = 19.352394 Si / 1000 Ang^3
#
#
#
# Elastic Constant Matrix: (Units=GPa)
#
#
# Indices 1 2 3 4 5 6 
#
# 1 93.0699 -8.5012 -20.1264 0.0000 0.0000 0.0000
# 2 -8.5012 32.0934 6.6605 0.0000 0.0000 0.0000
# 3 -20.1264 6.6605 74.4219 0.0000 0.0000 0.0000
# 4 0.0000 0.0000 0.0000 8.4233 0.0000 0.0000
# 5 0.0000 0.0000 0.0000 0.0000 17.7866 0.0000
# 6 0.0000 0.0000 0.0000 0.0000 0.0000 4.4981
#
#
#
# Elastic Compliance Matrix: (Units=1/GPa)
#
#
# Indices 1 2 3 4 5 6 
#
# 1 0.011601 0.002468 0.002916 0.000000 0.000000 0.000000
# 2 0.002468 0.032274 -0.002221 0.000000 0.000000 0.000000
# 3 0.002916 -0.002221 0.014424 0.000000 0.000000 0.000000
# 4 0.000000 0.000000 0.000000 0.118719 0.000000 0.000000
# 5 0.000000 0.000000 0.000000 0.000000 0.056222 0.000000
# 6 0.000000 0.000000 0.000000 0.000000 0.000000 0.222315
#
#
# Mechanical properties :
#
#
# Convention : Reuss Voigt Hill
#
# Bulk Modulus (GPa) = 15.47393 17.29454 16.38424
# Shear Modulus (GPa) = 10.62090 20.91175 15.76632
#
# Velocity S-wave (km/s) = 2.34522 3.29078 2.85739
# Velocity P-wave (km/s) = 3.91748 4.83684 4.40123
#
# Compressibility (1/GPa) = 0.06462483
#
# Stress axis : x y z
#
# Youngs Moduli (GPa) = 86.20181 30.98499 69.32710
#
# Poissons Ratio (x) = -0.07646 -0.20219
# Poissons Ratio (y) = -0.21272 0.15398
# Poissons Ratio (z) = -0.25140 0.06882
#
# Static dielectric constant tensor:
#      x y z
#    x 1.696910 0.000000 0.000000 
#    y 0.000000 1.639350 0.000000 
#    z 0.000000 0.000000 1.671740 
# 
# From -- ./inp_files/62589.got.cif
#   From: 2010.05.17/outbox.cif.g08.bks.cpg/sg63_32_cif.got.tgz:62589.got - 2010.06.03 15:47:04.
