data_PCOD9472988
_publ_section_title
;
Structure prediction by ZEFSAII (Michael W. Deem and Ramdas Pophale) SiO2 
 PCOD9472988
Probable space group: C M C M
;
_chemical_formula_sum "Si O2"
_cell_formula_units_Z 88
_cell_length_a 17.702883
_cell_length_b 30.633772
_cell_length_c 9.819747
_cell_angle_alpha 90.000000
_cell_angle_beta 90.000000
_cell_angle_gamma 90.000000
_cell_volume 5325.308518
_symmetry_space_group_name_H-M "C M C M"
_symmetry_group_IT_number 63
_symmetry_cell_setting 'orthorhombic'
loop_
_space_group_symop_operation_xyz
x,y,z
-x,-y,1/2+z
x,-y,-z
-x,y,1/2-z
-x,-y,-z
x,y,1/2-z
-x,y,z
x,-y,1/2+z
1/2+x,1/2+y,z
1/2-x,1/2-y,1/2+z
1/2+x,1/2-y,-z
1/2-x,1/2+y,1/2-z
1/2-x,1/2-y,-z
1/2+x,1/2+y,1/2-z
1/2-x,1/2+y,z
1/2+x,1/2-y,1/2+z
loop_
_atom_site_type_symbol
_atom_site_label
_atom_site_fract_x
_atom_site_fract_y
_atom_site_fract_z
Si Si1 0.909677 0.156315 0.250000
Si Si2 0.912916 0.721882 0.250000
Si Si3 0.186981 0.134581 0.986037
Si Si4 0.353208 0.454986 0.416690
Si Si5 0.808742 0.709338 0.995639
Si Si6 0.000000 0.953168 0.921245
Si Si7 0.085525 0.826866 0.250000
Si Si8 0.587827 0.761790 0.250000
O O1 0.859886 0.139773 0.375371
O O2 0.909395 0.208985 0.250000
O O3 0.000000 0.142977 0.250000
O O4 0.863145 0.707536 0.376151
O O5 0.914738 0.774665 0.250000
O O6 0.000000 0.707047 0.250000
O O7 0.204211 0.084833 0.941138
O O8 0.260026 0.165482 0.985786
O O9 0.130280 0.155232 0.877126
O O10 0.335057 0.500000 0.500000
O O11 0.365459 0.461520 0.250000
O O12 0.425271 0.435792 0.503279
O O13 0.865970 0.719686 0.875424
O O14 0.750000 0.750000 0.000000
O O15 0.000000 0.954966 0.750000
O O16 0.000000 0.000000 0.000000
O O17 0.000000 0.842909 0.250000
O O18 0.500000 0.774113 0.250000
#
# Coordination Sequence:
#
# PCOD9472988 Si02
#       8
#     8   8  16  16  16   8   8   8
#     4  11  23  35  50  82 113 149 194 231 274 323
#     4  11  22  38  58  80 117 155 194 229 272 330
#     4  12  24  35  56  78 110 151 187 240 282 329
#     4  11  24  39  55  77 106 145 192 237 285 335
#     4  12  21  37  56  84 115 150 187 233 280 331
#     4  10  20  36  56  76 102 144 186 236 278 322
#     4  11  21  35  52  80 109 153 196 231 272 327
#     4  11  22  38  58  80 117 153 190 231 274 326
#
# _framework density 16.524864999999998
#
# number of rings (size 3 to 8) (size 9 to 14) (size 15 to 20)
#    0.000    0.727    4.545    5.182    5.091    2.909 
#    0.000    0.000    0.000    0.000    0.000    0.000 
#    0.000    4.364    0.000    0.000    0.000    0.000 
#
# Total GULP energy -245083.906724 kJ/mol
# GULP energy per Si atom -5570.088789 kJ/mol
# Density = 1.648725 g / cm^3
# Si number density = 16.524865 Si / 1000 Ang^3
#
#
#
# Elastic Constant Matrix: (Units=GPa)
#
#
# Indices 1 2 3 4 5 6 
#
# 1 122.7404 55.2023 66.2306 0.0000 0.0000 0.0000
# 2 55.2023 111.4544 40.0066 0.0000 0.0000 0.0000
# 3 66.2306 40.0066 176.3385 0.0000 0.0000 0.0000
# 4 0.0000 0.0000 0.0000 6.6383 0.0000 0.0000
# 5 0.0000 0.0000 0.0000 0.0000 30.6331 0.0000
# 6 0.0000 0.0000 0.0000 0.0000 0.0000 26.1151
#
#
#
# Elastic Compliance Matrix: (Units=1/GPa)
#
#
# Indices 1 2 3 4 5 6 
#
# 1 0.012180 -0.004780 -0.003490 0.000000 0.000000 0.000000
# 2 -0.004780 0.011644 -0.000846 0.000000 0.000000 0.000000
# 3 -0.003490 -0.000846 0.007174 0.000000 0.000000 0.000000
# 4 0.000000 0.000000 0.000000 0.150642 0.000000 0.000000
# 5 0.000000 0.000000 0.000000 0.000000 0.032644 0.000000
# 6 0.000000 0.000000 0.000000 0.000000 0.000000 0.038292
#
#
# Mechanical properties :
#
#
# Convention : Reuss Voigt Hill
#
# Bulk Modulus (GPa) = 78.34220 81.49025 79.91622
# Shear Modulus (GPa) = 18.17756 29.28355 23.73056
#
# Velocity S-wave (km/s) = 3.32024 4.21419 3.79364
# Velocity P-wave (km/s) = 7.88735 8.54985 8.22527
#
# Compressibility (1/GPa) = 0.01276451
#
# Stress axis : x y z
#
# Youngs Moduli (GPa) = 82.09858 85.88445 139.39497
#
# Poissons Ratio (x) = 0.41053 0.48654
# Poissons Ratio (y) = 0.39243 0.11797
# Poissons Ratio (z) = 0.28656 0.07268
#
# Static dielectric constant tensor:
#      x y z
#    x 1.532680 0.000000 0.000000 
#    y 0.000000 1.630100 0.000000 
#    z 0.000000 0.000000 1.509370 
# 
# From -- ./inp_files/6967.got.cif
#   From: 2010.05.17/outbox.cif.g08.bks.cpg/sg63_4_cif.got.tgz:6967.got - 2010.06.03 15:47:04.
