data_PCOD9472758
_publ_section_title
;
Structure prediction by ZEFSAII (Michael W. Deem and Ramdas Pophale) SiO2 
 PCOD9472758
Probable space group: C M C M
;
_chemical_formula_sum "Si O2"
_cell_formula_units_Z 88
_cell_length_a 22.804711
_cell_length_b 25.122690
_cell_length_c 8.682810
_cell_angle_alpha 90.000000
_cell_angle_beta 90.000000
_cell_angle_gamma 90.000000
_cell_volume 4974.518039
_symmetry_space_group_name_H-M "C M C M"
_symmetry_group_IT_number 63
_symmetry_cell_setting 'orthorhombic'
loop_
_space_group_symop_operation_xyz
x,y,z
-x,-y,1/2+z
x,-y,-z
-x,y,1/2-z
-x,-y,-z
x,y,1/2-z
-x,y,z
x,-y,1/2+z
1/2+x,1/2+y,z
1/2-x,1/2-y,1/2+z
1/2+x,1/2-y,-z
1/2-x,1/2+y,1/2-z
1/2-x,1/2-y,-z
1/2+x,1/2+y,1/2-z
1/2-x,1/2+y,z
1/2+x,1/2-y,1/2+z
loop_
_atom_site_type_symbol
_atom_site_label
_atom_site_fract_x
_atom_site_fract_y
_atom_site_fract_z
Si Si1 0.281534 0.557876 0.565838
Si Si2 0.651761 0.942322 0.933987
Si Si3 0.069371 0.764194 0.066020
Si Si4 0.614780 0.372813 0.935019
Si Si5 0.500000 0.559485 0.435451
Si Si6 0.569152 0.148761 0.934080
O O1 0.299409 0.500000 0.500000
O O2 0.279772 0.555567 0.750000
O O3 0.216592 0.568751 0.500972
O O4 0.327931 0.600936 0.508157
O O5 0.654768 0.945029 0.750000
O O6 0.607442 0.896956 0.988375
O O7 0.633795 0.000000 0.000000
O O8 0.076588 0.763797 0.250000
O O9 0.000000 0.772076 0.031676
O O10 0.103965 0.813042 0.992190
O O11 0.086083 0.706984 0.997077
O O12 0.618795 0.373981 0.750000
O O13 0.558051 0.408006 0.982542
O O14 0.500000 0.500000 0.500000
O O15 0.500000 0.556783 0.250000
O O16 0.576482 0.147202 0.750000
O O17 0.500000 0.141264 0.968963
#
# Coordination Sequence:
#
# PCOD9472758 Si02
#       6
#    16  16  16  16   8  16
#     4  11  22  38  58  82 112 150 192 235 285 341
#     4  11  22  39  62  87 116 150 187 230 280 338
#     4  10  20  35  56  83 114 151 192 235 283 337
#     4  11  21  36  55  80 111 151 195 237 286 337
#     4  10  22  34  50  76 110 146 187 238 287 332
#     4  10  21  38  61  88 118 151 186 229 280 336
#
# _framework density 17.690155000000001
#
# number of rings (size 3 to 8) (size 9 to 14) (size 15 to 20)
#    0.000    1.455    0.909    6.545    0.000    5.091 
#    0.000    0.909    0.000    0.000    0.000    0.000 
#    0.000    0.000    0.000    0.000    0.000    0.000 
#
# Total GULP energy -245948.786924 kJ/mol
# GULP energy per Si atom -5589.745157 kJ/mol
# Density = 1.764989 g / cm^3
# Si number density = 17.690155 Si / 1000 Ang^3
#
#
#
# Elastic Constant Matrix: (Units=GPa)
#
#
# Indices 1 2 3 4 5 6 
#
# 1 76.9286 99.8050 61.0782 0.0000 0.0000 0.0000
# 2 99.8050 183.1375 84.1766 0.0000 0.0000 0.0000
# 3 61.0782 84.1766 126.4230 0.0000 0.0000 0.0000
# 4 0.0000 0.0000 0.0000 37.4623 0.0000 0.0000
# 5 0.0000 0.0000 0.0000 0.0000 26.9509 0.0000
# 6 0.0000 0.0000 0.0000 0.0000 0.0000 25.7364
#
#
#
# Elastic Compliance Matrix: (Units=1/GPa)
#
#
# Indices 1 2 3 4 5 6 
#
# 1 0.050245 -0.023380 -0.008708 0.000000 0.000000 0.000000
# 2 -0.023380 0.018747 -0.001187 0.000000 0.000000 0.000000
# 3 -0.008708 -0.001187 0.012907 0.000000 0.000000 0.000000
# 4 0.000000 0.000000 0.000000 0.026693 0.000000 0.000000
# 5 0.000000 0.000000 0.000000 0.000000 0.037104 0.000000
# 6 0.000000 0.000000 0.000000 0.000000 0.000000 0.038856
#
#
# Mechanical properties :
#
#
# Convention : Reuss Voigt Hill
#
# Bulk Modulus (GPa) = 65.14516 97.40097 81.27307
# Shear Modulus (GPa) = 19.51460 27.45855 23.48657
#
# Velocity S-wave (km/s) = 3.32495 3.94406 3.64766
# Velocity P-wave (km/s) = 7.18651 8.71320 7.98642
#
# Compressibility (1/GPa) = 0.01535033
#
# Stress axis : x y z
#
# Youngs Moduli (GPa) = 19.90265 53.34083 77.47535
#
# Poissons Ratio (x) = 1.24709 0.67462
# Poissons Ratio (y) = 0.46532 0.09199
# Poissons Ratio (z) = 0.17330 0.06333
#
# Static dielectric constant tensor:
#      x y z
#    x 1.584950 0.000000 0.000000 
#    y 0.000000 1.575190 0.000000 
#    z 0.000000 0.000000 1.588800 
# 
# From -- ./inp_files/10186.got.cif
#   From: 2010.05.17/outbox.cif.g08.bks.cpg/sg63_6_cif.got.tgz:10186.got - 2010.06.03 15:47:04.
