data_PCOD9472430
_publ_section_title
;
Structure prediction by ZEFSAII (Michael W. Deem and Ramdas Pophale) SiO2 
 PCOD9472430
Probable space group: C M C M
;
_chemical_formula_sum "Si O2"
_cell_formula_units_Z 80
_cell_length_a 26.711404
_cell_length_b 8.678406
_cell_length_c 18.583928
_cell_angle_alpha 90.000000
_cell_angle_beta 90.000000
_cell_angle_gamma 90.000000
_cell_volume 4307.985114
_symmetry_space_group_name_H-M "C M C M"
_symmetry_group_IT_number 63
_symmetry_cell_setting 'orthorhombic'
loop_
_space_group_symop_operation_xyz
x,y,z
-x,-y,1/2+z
x,-y,-z
-x,y,1/2-z
-x,-y,-z
x,y,1/2-z
-x,y,z
x,-y,1/2+z
1/2+x,1/2+y,z
1/2-x,1/2-y,1/2+z
1/2+x,1/2-y,-z
1/2-x,1/2+y,1/2-z
1/2-x,1/2-y,-z
1/2+x,1/2+y,1/2-z
1/2-x,1/2+y,z
1/2+x,1/2-y,1/2+z
loop_
_atom_site_type_symbol
_atom_site_label
_atom_site_fract_x
_atom_site_fract_y
_atom_site_fract_z
Si Si1 0.299410 0.434488 0.419820
Si Si2 0.194782 0.435632 0.918989
Si Si3 0.897354 0.041750 0.667703
Si Si4 0.595814 0.087647 0.333290
Si Si5 0.500000 0.363139 0.662970
Si Si6 0.000000 0.459606 0.415469
O O1 0.301238 0.500000 0.500000
O O2 0.246321 0.492499 0.389443
O O3 0.299742 0.249281 0.421952
O O4 0.348661 0.493816 0.379289
O O5 0.147092 0.469823 0.869441
O O6 0.187000 0.500000 0.000000
O O7 0.886317 0.999327 0.750000
O O8 0.904233 0.226332 0.664590
O O9 0.949494 0.960167 0.648392
O O10 0.591820 0.039262 0.250000
O O11 0.549141 0.030435 0.378916
O O12 0.500000 0.324822 0.750000
O O13 0.500000 0.217847 0.609942
O O14 0.000000 0.500000 0.500000
#
# Coordination Sequence:
#
# PCOD9472430 Si02
#       6
#    16  16  16  16   8   8
#     4  10  20  34  55  80 111 147 182 224 273 323
#     4  10  20  35  55  80 110 145 184 226 271 323
#     4   9  20  38  59  81 109 144 185 228 274 328
#     4  10  21  39  59  80 109 147 183 223 277 332
#     4  10  21  38  59  84 111 142 183 232 276 322
#     4  12  25  38  56  84 114 144 181 226 272 326
#
# _framework density 18.570166
#
# number of rings (size 3 to 8) (size 9 to 14) (size 15 to 20)
#    0.000    2.000    0.000    4.500    0.000    8.800 
#    0.000    1.500    0.000    0.000    0.000    0.000 
#    0.000    0.000    0.000    0.000    0.000    0.000 
#
# Total GULP energy -223273.511111 kJ/mol
# GULP energy per Si atom -5581.837778 kJ/mol
# Density = 1.852790 g / cm^3
# Si number density = 18.570166 Si / 1000 Ang^3
#
#
#
# Elastic Constant Matrix: (Units=GPa)
#
#
# Indices 1 2 3 4 5 6 
#
# 1 211.6280 51.4875 106.3375 0.0000 0.0000 0.0000
# 2 51.4875 40.6715 38.6847 0.0000 0.0000 0.0000
# 3 106.3375 38.6847 112.5645 0.0000 0.0000 0.0000
# 4 0.0000 0.0000 0.0000 23.2393 0.0000 0.0000
# 5 0.0000 0.0000 0.0000 0.0000 -2.0535 0.0000
# 6 0.0000 0.0000 0.0000 0.0000 0.0000 63.4341
#
#
#
# Elastic Compliance Matrix: (Units=1/GPa)
#
#
# Indices 1 2 3 4 5 6 
#
# 1 0.009707 -0.005298 -0.007349 0.000000 0.000000 0.000000
# 2 -0.005298 0.039419 -0.008542 0.000000 0.000000 0.000000
# 3 -0.007349 -0.008542 0.018762 0.000000 0.000000 0.000000
# 4 0.000000 0.000000 0.000000 0.043030 0.000000 0.000000
# 5 0.000000 0.000000 0.000000 0.000000 -0.486963 0.000000
# 6 0.000000 0.000000 0.000000 0.000000 0.000000 0.015764
#
#
# Mechanical properties :
#
#
# Convention : Reuss Voigt Hill
#
# Bulk Modulus (GPa) = 39.20118 84.20926 61.70522
# Shear Modulus (GPa) = -16.16043 28.14761 5.99359
#
# Velocity S-wave (km/s) = -2.95318 3.89748 1.79848
# Velocity P-wave (km/s) = 3.08663 8.10548 6.13294
#
# Compressibility (1/GPa) = 0.02550943
#
# Stress axis : x y z
#
# Youngs Moduli (GPa) = 103.01698 25.36842 53.29906
#
# Poissons Ratio (x) = 0.13441 0.39171
# Poissons Ratio (y) = 0.54582 0.45527
# Poissons Ratio (z) = 0.75710 0.21669
#
# Static dielectric constant tensor:
#      x y z
#    x 1.638770 0.000000 0.000000 
#    y 0.000000 1.644630 0.000000 
#    z 0.000000 0.000000 1.623820 
# 
# From -- ./inp_files/48878.got.cif
#   From: 2010.05.17/outbox.cif.g08.bks.cpg/sg63_25_cif.got.tgz:48878.got - 2010.06.03 15:47:04.
