data_PCOD9472862
_publ_section_title
;
Structure prediction by ZEFSAII (Michael W. Deem and Ramdas Pophale) SiO2 
 PCOD9472862
Probable space group: C M C M
;
_chemical_formula_sum "Si O2"
_cell_formula_units_Z 80
_cell_length_a 23.450326
_cell_length_b 6.096995
_cell_length_c 24.371331
_cell_angle_alpha 90.000000
_cell_angle_beta 90.000000
_cell_angle_gamma 90.000000
_cell_volume 3484.528103
_symmetry_space_group_name_H-M "C M C M"
_symmetry_group_IT_number 63
_symmetry_cell_setting 'orthorhombic'
loop_
_space_group_symop_operation_xyz
x,y,z
-x,-y,1/2+z
x,-y,-z
-x,y,1/2-z
-x,-y,-z
x,y,1/2-z
-x,y,z
x,-y,1/2+z
1/2+x,1/2+y,z
1/2-x,1/2-y,1/2+z
1/2+x,1/2-y,-z
1/2-x,1/2+y,1/2-z
1/2-x,1/2-y,-z
1/2+x,1/2+y,1/2-z
1/2-x,1/2+y,z
1/2+x,1/2-y,1/2+z
loop_
_atom_site_type_symbol
_atom_site_label
_atom_site_fract_x
_atom_site_fract_y
_atom_site_fract_z
Si Si1 0.740216 0.400513 0.660169
Si Si2 0.371966 0.471454 0.393177
Si Si3 0.178408 0.403947 0.945478
Si Si4 0.562685 0.858703 0.087164
Si Si5 0.565639 0.142774 0.312490
O O1 0.754096 0.154147 0.685276
O O2 0.675630 0.386884 0.637989
O O3 0.781532 0.423642 0.607433
O O4 0.425081 0.603464 0.416200
O O5 0.395294 0.302964 0.347835
O O6 0.340307 0.347780 0.442413
O O7 0.117807 0.528777 0.939090
O O8 0.205973 0.500000 0.000000
O O9 0.500000 0.924717 0.067056
O O10 0.564910 0.921862 0.151769
O O11 0.584782 0.115124 0.250000
O O12 0.500000 0.223465 0.311893
#
# Coordination Sequence:
#
# PCOD9472862 Si02
#       5
#    16  16  16  16  16
#     4  10  20  37  60  87 119 159 204 256 304 359
#     4  10  20  35  58  85 118 155 195 256 312 366
#     4  10  22  38  56  86 118 162 212 259 305 362
#     4  10  20  37  57  84 120 157 199 253 316 375
#     4   9  19  36  60  89 117 150 198 254 310 373
#
# _framework density 22.958632000000001
#
# number of rings (size 3 to 8) (size 9 to 14) (size 15 to 20)
#    0.000    2.200    2.000    0.600    0.000    6.000 
#    0.000    3.000    0.000   10.800    0.000    0.000 
#    0.000    0.000    0.000    0.000    0.000    0.000 
#
# Total GULP energy -222788.942413 kJ/mol
# GULP energy per Si atom -5569.723560 kJ/mol
# Density = 2.290638 g / cm^3
# Si number density = 22.958632 Si / 1000 Ang^3
#
#
#
# Elastic Constant Matrix: (Units=GPa)
#
#
# Indices 1 2 3 4 5 6 
#
# 1 98.5843 13.5410 12.0822 0.0000 0.0000 0.0000
# 2 13.5410 90.6605 12.6075 0.0000 0.0000 0.0000
# 3 12.0822 12.6075 88.3590 0.0000 0.0000 0.0000
# 4 0.0000 0.0000 0.0000 -0.2078 0.0000 0.0000
# 5 0.0000 0.0000 0.0000 0.0000 63.1305 0.0000
# 6 0.0000 0.0000 0.0000 0.0000 0.0000 38.2432
#
#
#
# Elastic Compliance Matrix: (Units=1/GPa)
#
#
# Indices 1 2 3 4 5 6 
#
# 1 0.010486 -0.001395 -0.001235 0.000000 0.000000 0.000000
# 2 -0.001395 0.011439 -0.001441 0.000000 0.000000 0.000000
# 3 -0.001235 -0.001441 0.011692 0.000000 0.000000 0.000000
# 4 0.000000 0.000000 0.000000 -4.812041 0.000000 0.000000
# 5 0.000000 0.000000 0.000000 0.000000 0.015840 0.000000
# 6 0.000000 0.000000 0.000000 0.000000 0.000000 0.026148
#
#
# Mechanical properties :
#
#
# Convention : Reuss Voigt Hill
#
# Bulk Modulus (GPa) = 39.25338 39.34060 39.29699
# Shear Modulus (GPa) = -1.05937 36.19139 17.56601
#
# Velocity S-wave (km/s) = -0.68002 3.97466 2.76907
# Velocity P-wave (km/s) = 4.06423 6.18357 5.23233
#
# Compressibility (1/GPa) = 0.02547552
#
# Stress axis : x y z
#
# Youngs Moduli (GPa) = 95.36074 87.42100 85.52849
#
# Poissons Ratio (x) = 0.12191 0.10562
# Poissons Ratio (y) = 0.13298 0.12329
# Poissons Ratio (z) = 0.11777 0.12602
#
# Static dielectric constant tensor:
#      x y z
#    x 1.842290 0.000000 0.000000 
#    y 0.000000 1.989910 0.000000 
#    z 0.000000 0.000000 1.837310 
# 
# From -- ./inp_files/70897.got.cif
#   From: 2010.05.17/outbox.cif.g08.bks.cpg/sg63_36_cif.got.tgz:70897.got - 2010.06.03 15:47:04.
