data_PCOD9472126
_publ_section_title
;
Structure prediction by ZEFSAII (Michael W. Deem and Ramdas Pophale) SiO2 
 PCOD9472126
Probable space group: C M C M
;
_chemical_formula_sum "Si O2"
_cell_formula_units_Z 112
_cell_length_a 22.895848
_cell_length_b 11.920803
_cell_length_c 21.270586
_cell_angle_alpha 90.000000
_cell_angle_beta 90.000000
_cell_angle_gamma 90.000000
_cell_volume 5805.527666
_symmetry_space_group_name_H-M "C M C M"
_symmetry_group_IT_number 63
_symmetry_cell_setting 'orthorhombic'
loop_
_space_group_symop_operation_xyz
x,y,z
-x,-y,1/2+z
x,-y,-z
-x,y,1/2-z
-x,-y,-z
x,y,1/2-z
-x,y,z
x,-y,1/2+z
1/2+x,1/2+y,z
1/2-x,1/2-y,1/2+z
1/2+x,1/2-y,-z
1/2-x,1/2+y,1/2-z
1/2-x,1/2-y,-z
1/2+x,1/2+y,1/2-z
1/2-x,1/2+y,z
1/2+x,1/2-y,1/2+z
loop_
_atom_site_type_symbol
_atom_site_label
_atom_site_fract_x
_atom_site_fract_y
_atom_site_fract_z
Si Si1 0.234140 0.402956 0.320305
Si Si2 0.932344 0.387843 0.673917
Si Si3 0.932171 0.880705 0.678199
Si Si4 0.872639 0.004501 0.933864
Si Si5 0.098894 0.637386 0.822869
Si Si6 0.754635 0.432377 0.938188
Si Si7 0.829028 0.239429 0.614837
O O1 0.241516 0.450117 0.250000
O O2 0.168917 0.354131 0.324308
O O3 0.236757 0.496131 0.374420
O O4 0.283710 0.310883 0.333927
O O5 0.925262 0.385063 0.750000
O O6 0.920561 0.516425 0.651676
O O7 0.883058 0.308394 0.643946
O O8 0.000000 0.357761 0.660030
O O9 0.907659 0.885755 0.750000
O O10 0.925740 0.753815 0.652174
O O11 0.000000 0.907624 0.682350
O O12 0.903015 0.963269 0.629102
O O13 0.852131 0.131017 0.921510
O O14 0.815403 0.925728 0.943252
O O15 0.906444 0.000000 0.000000
O O16 0.079250 0.635046 0.750000
O O17 0.790224 0.319055 0.929518
O O18 0.774590 0.500000 0.000000
#
# Coordination Sequence:
#
# PCOD9472126 Si02
#       7
#    16  16  16  16  16  16  16
#     4  10  20  33  57  90 123 155 195 246 304 365
#     4  10  20  35  58  90 127 162 199 249 311 370
#     4  10  21  38  61  87 116 155 205 251 295 358
#     4  10  24  41  59  86 119 159 201 248 307 370
#     4   9  17  33  58  88 119 155 196 250 304 354
#     4  10  22  39  60  87 120 159 197 251 307 370
#     4  11  22  38  60  87 120 159 202 253 308 368
#
# _framework density 19.291958000000001
#
# number of rings (size 3 to 8) (size 9 to 14) (size 15 to 20)
#    0.000    2.000    1.429    1.714    0.000   12.286 
#    0.000    1.429    0.000    0.429    0.000    0.000 
#    0.000    0.000    0.000    0.000    0.000    0.000 
#
# Total GULP energy -312292.460134 kJ/mol
# GULP energy per Si atom -5576.651074 kJ/mol
# Density = 1.924805 g / cm^3
# Si number density = 19.291958 Si / 1000 Ang^3
#
#
#
# Elastic Constant Matrix: (Units=GPa)
#
#
# Indices 1 2 3 4 5 6 
#
# 1 73.7813 43.3441 32.8963 0.0000 0.0000 0.0000
# 2 43.3441 107.9539 46.0858 0.0000 0.0000 0.0000
# 3 32.8963 46.0858 105.4997 0.0000 0.0000 0.0000
# 4 0.0000 0.0000 0.0000 8.6384 0.0000 0.0000
# 5 0.0000 0.0000 0.0000 0.0000 0.4485 0.0000
# 6 0.0000 0.0000 0.0000 0.0000 0.0000 11.9365
#
#
#
# Elastic Compliance Matrix: (Units=1/GPa)
#
#
# Indices 1 2 3 4 5 6 
#
# 1 0.018531 -0.006114 -0.003108 0.000000 0.000000 0.000000
# 2 -0.006114 0.013404 -0.003949 0.000000 0.000000 0.000000
# 3 -0.003108 -0.003949 0.012173 0.000000 0.000000 0.000000
# 4 0.000000 0.000000 0.000000 0.115762 0.000000 0.000000
# 5 0.000000 0.000000 0.000000 0.000000 2.229587 0.000000
# 6 0.000000 0.000000 0.000000 0.000000 0.000000 0.083777
#
#
# Mechanical properties :
#
#
# Convention : Reuss Voigt Hill
#
# Bulk Modulus (GPa) = 56.28392 59.09858 57.69125
# Shear Modulus (GPa) = 1.99561 15.19859 8.59710
#
# Velocity S-wave (km/s) = 1.01817 2.80986 2.11329
# Velocity P-wave (km/s) = 5.53357 6.42085 5.99365
#
# Compressibility (1/GPa) = 0.01776706
#
# Stress axis : x y z
#
# Youngs Moduli (GPa) = 53.96480 74.60680 82.15132
#
# Poissons Ratio (x) = 0.45611 0.25529
# Poissons Ratio (y) = 0.32992 0.32440
# Poissons Ratio (z) = 0.16770 0.29461
#
# Static dielectric constant tensor:
#      x y z
#    x 1.691310 0.000000 0.000000 
#    y 0.000000 1.684570 0.000000 
#    z 0.000000 0.000000 1.693230 
# 
# From -- ./inp_files/57576.got.cif
#   From: 2010.05.17/outbox.cif.g08.bks.cpg/sg63_29_cif.got.tgz:57576.got - 2010.06.03 15:47:04.
