data_PCOD9472806
_publ_section_title
;
Structure prediction by ZEFSAII (Michael W. Deem and Ramdas Pophale) SiO2 
 PCOD9472806
Probable space group: C M C M
;
_chemical_formula_sum "Si O2"
_cell_formula_units_Z 64
_cell_length_a 8.632762
_cell_length_b 39.207242
_cell_length_c 10.492179
_cell_angle_alpha 90.000000
_cell_angle_beta 90.000000
_cell_angle_gamma 90.000000
_cell_volume 3551.254134
_symmetry_space_group_name_H-M "C M C M"
_symmetry_group_IT_number 63
_symmetry_cell_setting 'orthorhombic'
loop_
_space_group_symop_operation_xyz
x,y,z
-x,-y,1/2+z
x,-y,-z
-x,y,1/2-z
-x,-y,-z
x,y,1/2-z
-x,y,z
x,-y,1/2+z
1/2+x,1/2+y,z
1/2-x,1/2-y,1/2+z
1/2+x,1/2-y,-z
1/2-x,1/2+y,1/2-z
1/2-x,1/2-y,-z
1/2+x,1/2+y,1/2-z
1/2-x,1/2+y,z
1/2+x,1/2-y,1/2+z
loop_
_atom_site_type_symbol
_atom_site_label
_atom_site_fract_x
_atom_site_fract_y
_atom_site_fract_z
Si Si1 0.188381 0.786980 0.750000
Si Si2 0.814774 0.396971 0.898511
Si Si3 0.185821 0.171582 0.500572
Si Si4 0.685930 0.208244 0.750000
Si Si5 0.687149 0.528236 0.397191
O O1 0.238606 0.806975 0.623593
O O2 0.239087 0.747721 0.750000
O O3 0.000000 0.787109 0.750000
O O4 0.771001 0.390639 0.750000
O O5 0.742320 0.367044 0.982057
O O6 0.753950 0.434638 0.930191
O O7 0.000000 0.396137 0.907983
O O8 0.252997 0.189134 0.625487
O O9 0.000000 0.172216 0.505226
O O10 0.500000 0.208019 0.750000
O O11 0.736666 0.500000 0.500000
O O12 0.732414 0.520285 0.250000
O O13 0.500000 0.530068 0.400204
#
# Coordination Sequence:
#
# PCOD9472806 Si02
#       5
#     8  16  16   8  16
#     4   9  20  37  61  85 110 145 192 237 281 337
#     4  10  20  35  57  84 112 147 189 233 280 332
#     4  11  21  38  60  84 112 150 193 234 281 339
#     4  11  23  39  55  83 120 149 182 237 293 339
#     4   9  18  34  56  81 109 143 183 227 273 328
#
# _framework density 18.021801
#
# number of rings (size 3 to 8) (size 9 to 14) (size 15 to 20)
#    0.000    2.000    1.250    2.625    0.000    1.500 
#    2.250    3.750    0.000    0.000    0.000    0.000 
#    0.000    0.000    0.000    0.000    0.000    0.000 
#
# Total GULP energy -178698.132845 kJ/mol
# GULP energy per Si atom -5584.316651 kJ/mol
# Density = 1.798078 g / cm^3
# Si number density = 18.021801 Si / 1000 Ang^3
#
#
#
# Elastic Constant Matrix: (Units=GPa)
#
#
# Indices 1 2 3 4 5 6 
#
# 1 35.6144 40.4180 35.3011 0.0000 0.0000 0.0000
# 2 40.4180 173.3847 104.0443 0.0000 0.0000 0.0000
# 3 35.3011 104.0443 145.8912 0.0000 0.0000 0.0000
# 4 0.0000 0.0000 0.0000 39.5703 0.0000 0.0000
# 5 0.0000 0.0000 0.0000 0.0000 16.6474 0.0000
# 6 0.0000 0.0000 0.0000 0.0000 0.0000 26.3616
#
#
#
# Elastic Compliance Matrix: (Units=1/GPa)
#
#
# Indices 1 2 3 4 5 6 
#
# 1 0.040436 -0.006214 -0.005353 0.000000 0.000000 0.000000
# 2 -0.006214 0.011037 -0.006368 0.000000 0.000000 0.000000
# 3 -0.005353 -0.006368 0.012691 0.000000 0.000000 0.000000
# 4 0.000000 0.000000 0.000000 0.025271 0.000000 0.000000
# 5 0.000000 0.000000 0.000000 0.000000 0.060070 0.000000
# 6 0.000000 0.000000 0.000000 0.000000 0.000000 0.037934
#
#
# Mechanical properties :
#
#
# Convention : Reuss Voigt Hill
#
# Bulk Modulus (GPa) = 35.34147 79.37967 57.36057
# Shear Modulus (GPa) = 21.48318 28.19098 24.83708
#
# Velocity S-wave (km/s) = 3.45638 3.95938 3.71640
# Velocity P-wave (km/s) = 5.96504 8.06501 7.09317
#
# Compressibility (1/GPa) = 0.02829537
#
# Stress axis : x y z
#
# Youngs Moduli (GPa) = 24.73022 90.60228 78.79722
#
# Poissons Ratio (x) = 0.56302 0.42177
# Poissons Ratio (y) = 0.15368 0.50176
# Poissons Ratio (z) = 0.13237 0.57693
#
# Static dielectric constant tensor:
#      x y z
#    x 1.600050 0.000000 0.000000 
#    y 0.000000 1.590430 0.000000 
#    z 0.000000 0.000000 1.600880 
# 
# From -- ./inp_files/16249.got.cif
#   From: 2010.05.17/outbox.cif.g08.bks.cpg/sg63_9_cif.got.tgz:16249.got - 2010.06.03 15:47:04.
