data_PCOD9472010
_publ_section_title
;
Structure prediction by ZEFSAII (Michael W. Deem and Ramdas Pophale) SiO2 
 PCOD9472010
Probable space group: C M C M
;
_chemical_formula_sum "Si O2"
_cell_formula_units_Z 80
_cell_length_a 8.663823
_cell_length_b 28.037069
_cell_length_c 18.974492
_cell_angle_alpha 90.000000
_cell_angle_beta 90.000000
_cell_angle_gamma 90.000000
_cell_volume 4609.059759
_symmetry_space_group_name_H-M "C M C M"
_symmetry_group_IT_number 63
_symmetry_cell_setting 'orthorhombic'
loop_
_space_group_symop_operation_xyz
x,y,z
-x,-y,1/2+z
x,-y,-z
-x,y,1/2-z
-x,-y,-z
x,y,1/2-z
-x,y,z
x,-y,1/2+z
1/2+x,1/2+y,z
1/2-x,1/2-y,1/2+z
1/2+x,1/2-y,-z
1/2-x,1/2+y,1/2-z
1/2-x,1/2-y,-z
1/2+x,1/2+y,1/2-z
1/2-x,1/2+y,z
1/2+x,1/2-y,1/2+z
loop_
_atom_site_type_symbol
_atom_site_label
_atom_site_fract_x
_atom_site_fract_y
_atom_site_fract_z
Si Si1 0.187634 0.072532 0.036939
Si Si2 0.813335 0.023551 0.890756
Si Si3 0.813527 0.180164 0.039604
Si Si4 0.315368 0.070130 0.750000
Si Si5 0.184409 0.772510 0.109160
Si Si6 0.315099 0.819559 0.250000
O O1 0.239154 0.126076 0.052740
O O2 0.000000 0.073022 0.037480
O O3 0.234983 0.030572 0.090195
O O4 0.232009 0.055707 0.958297
O O5 0.744998 0.043888 0.819523
O O6 0.000000 0.024435 0.886471
O O7 0.742694 0.219426 0.091281
O O8 0.000000 0.182182 0.045153
O O9 0.772702 0.195886 0.959660
O O10 0.500000 0.069864 0.750000
O O11 0.262282 0.125276 0.750000
O O12 0.255319 0.793692 0.179886
O O13 0.000000 0.772757 0.114818
O O14 0.500000 0.818815 0.250000
#
# Coordination Sequence:
#
# PCOD9472010 Si02
#       6
#    16  16  16   8  16   8
#     4   8  15  30  54  79  99 127 170 210 241 285
#     4   9  17  32  54  77 100 129 169 209 242 285
#     4   9  17  32  53  76 104 135 165 202 250 298
#     4  11  23  35  48  73 106 133 160 199 252 305
#     4  10  20  33  52  78 103 129 167 210 249 295
#     4  11  23  37  52  71 100 135 166 203 252 303
#
# _framework density 17.357118
#
# number of rings (size 3 to 8) (size 9 to 14) (size 15 to 20)
#    0.000    2.600    0.000    3.600    0.000    4.000 
#    0.000    5.000    0.000    2.400    0.000    0.000 
#    0.000    0.000    0.000    0.000    0.000    0.000 
#
# Total GULP energy -223123.888238 kJ/mol
# GULP energy per Si atom -5578.097206 kJ/mol
# Density = 1.731761 g / cm^3
# Si number density = 17.357118 Si / 1000 Ang^3
#
#
#
# Elastic Constant Matrix: (Units=GPa)
#
#
# Indices 1 2 3 4 5 6 
#
# 1 23.6429 37.8323 36.8457 0.0000 0.0000 0.0000
# 2 37.8323 191.1558 100.8169 0.0000 0.0000 0.0000
# 3 36.8457 100.8169 147.4578 0.0000 0.0000 0.0000
# 4 0.0000 0.0000 0.0000 15.9992 0.0000 0.0000
# 5 0.0000 0.0000 0.0000 0.0000 14.5393 0.0000
# 6 0.0000 0.0000 0.0000 0.0000 0.0000 21.3705
#
#
#
# Elastic Compliance Matrix: (Units=1/GPa)
#
#
# Indices 1 2 3 4 5 6 
#
# 1 0.076168 -0.007877 -0.013647 0.000000 0.000000 0.000000
# 2 -0.007877 0.008996 -0.004182 0.000000 0.000000 0.000000
# 3 -0.013647 -0.004182 0.013051 0.000000 0.000000 0.000000
# 4 0.000000 0.000000 0.000000 0.062503 0.000000 0.000000
# 5 0.000000 0.000000 0.000000 0.000000 0.068779 0.000000
# 6 0.000000 0.000000 0.000000 0.000000 0.000000 0.046793
#
#
# Mechanical properties :
#
#
# Convention : Reuss Voigt Hill
#
# Bulk Modulus (GPa) = 21.36631 79.24959 50.30795
# Shear Modulus (GPa) = 14.56432 22.83257 18.69845
#
# Velocity S-wave (km/s) = 2.89986 3.63086 3.28575
# Velocity P-wave (km/s) = 4.85271 7.95832 6.59104
#
# Compressibility (1/GPa) = 0.04680265
#
# Stress axis : x y z
#
# Youngs Moduli (GPa) = 13.12885 111.15844 76.62272
#
# Poissons Ratio (x) = 0.87564 1.04564
# Poissons Ratio (y) = 0.10342 0.32046
# Poissons Ratio (z) = 0.17916 0.46490
#
# Static dielectric constant tensor:
#      x y z
#    x 1.588490 0.000000 0.000000 
#    y 0.000000 1.596410 0.000000 
#    z 0.000000 0.000000 1.551560 
# 
# From -- ./inp_files/40595.got.cif
#   From: 2010.05.17/outbox.cif.g08.bks.cpg/sg63_21_cif.got.tgz:40595.got - 2010.06.03 15:47:04.
