data_PCOD9472736
_publ_section_title
;
Structure prediction by ZEFSAII (Michael W. Deem and Ramdas Pophale) SiO2 
 PCOD9472736
Probable space group: C M C M
;
_chemical_formula_sum "Si O2"
_cell_formula_units_Z 112
_cell_length_a 14.013792
_cell_length_b 29.224731
_cell_length_c 14.516579
_cell_angle_alpha 90.000000
_cell_angle_beta 90.000000
_cell_angle_gamma 90.000000
_cell_volume 5945.254789
_symmetry_space_group_name_H-M "C M C M"
_symmetry_group_IT_number 63
_symmetry_cell_setting 'orthorhombic'
loop_
_space_group_symop_operation_xyz
x,y,z
-x,-y,1/2+z
x,-y,-z
-x,y,1/2-z
-x,-y,-z
x,y,1/2-z
-x,y,z
x,-y,1/2+z
1/2+x,1/2+y,z
1/2-x,1/2-y,1/2+z
1/2+x,1/2-y,-z
1/2-x,1/2+y,1/2-z
1/2-x,1/2-y,-z
1/2+x,1/2+y,1/2-z
1/2-x,1/2+y,z
1/2+x,1/2-y,1/2+z
loop_
_atom_site_type_symbol
_atom_site_label
_atom_site_fract_x
_atom_site_fract_y
_atom_site_fract_z
Si Si1 0.885918 0.041912 0.858391
Si Si2 0.886803 0.116627 0.495648
Si Si3 0.288113 0.553763 0.358770
Si Si4 0.206262 0.722385 0.641660
Si Si5 0.886611 0.778116 0.477666
Si Si6 0.613319 0.876794 0.145782
Si Si7 0.392442 0.945999 0.979186
O O1 0.871344 0.050805 0.750000
O O2 0.000000 0.034119 0.871935
O O3 0.829772 0.996099 0.885333
O O4 0.853945 0.084718 0.919587
O O5 0.853724 0.092185 0.403515
O O6 0.860110 0.169232 0.501116
O O7 0.000000 0.115707 0.500388
O O8 0.288132 0.555823 0.250000
O O9 0.184729 0.561843 0.401108
O O10 0.194393 0.734413 0.750000
O O11 0.139663 0.748965 0.568386
O O12 0.313886 0.733041 0.605932
O O13 0.176203 0.668833 0.633481
O O14 0.000000 0.774368 0.456953
O O15 0.629806 0.894438 0.250000
O O16 0.500000 0.864275 0.139959
O O17 0.629836 0.915463 0.069140
O O18 0.500000 0.934142 0.950278
O O19 0.390120 0.000000 0.000000
#
# Coordination Sequence:
#
# PCOD9472736 Si02
#       7
#    16  16  16  16  16  16  16
#     4   9  18  33  54  80 108 139 178 222 267 319
#     4  10  20  35  56  81 111 144 176 216 269 326
#     4  11  22  34  50  73 106 149 191 226 262 312
#     4  10  21  38  61  86 112 144 182 225 273 327
#     4  10  22  38  57  85 117 146 180 225 275 327
#     4   9  18  35  61  87 107 134 177 228 279 329
#     4  10  21  36  53  75 105 139 177 225 277 323
#
# _framework density 18.838553000000001
#
# number of rings (size 3 to 8) (size 9 to 14) (size 15 to 20)
#    0.000    2.143    0.000    3.000    0.000    5.143 
#    0.000    7.857    0.000    0.000    0.000    4.000 
#    0.000    0.000    0.000    0.000    0.000    0.000 
#
# Total GULP energy -312559.598889 kJ/mol
# GULP energy per Si atom -5581.421409 kJ/mol
# Density = 1.879568 g / cm^3
# Si number density = 18.838553 Si / 1000 Ang^3
#
#
#
# Elastic Constant Matrix: (Units=GPa)
#
#
# Indices 1 2 3 4 5 6 
#
# 1 -13.8113 95.5037 53.8526 0.0000 0.0000 0.0000
# 2 95.5037 -19.8999 11.7299 0.0000 0.0000 0.0000
# 3 53.8526 11.7299 92.9566 0.0000 0.0000 0.0000
# 4 0.0000 0.0000 0.0000 38.8791 0.0000 0.0000
# 5 0.0000 0.0000 0.0000 0.0000 25.3477 0.0000
# 6 0.0000 0.0000 0.0000 0.0000 0.0000 13.8980
#
#
#
# Elastic Compliance Matrix: (Units=1/GPa)
#
#
# Indices 1 2 3 4 5 6 
#
# 1 0.003095 0.012844 -0.003414 0.000000 0.000000 0.000000
# 2 0.012844 0.006517 -0.008263 0.000000 0.000000 0.000000
# 3 -0.003414 -0.008263 0.013778 0.000000 0.000000 0.000000
# 4 0.000000 0.000000 0.000000 0.025721 0.000000 0.000000
# 5 0.000000 0.000000 0.000000 0.000000 0.039451 0.000000
# 6 0.000000 0.000000 0.000000 0.000000 0.000000 0.071953
#
#
# Mechanical properties :
#
#
# Convention : Reuss Voigt Hill
#
# Bulk Modulus (GPa) = 38.87491 42.37976 40.62734
# Shear Modulus (GPa) = 29.98376 8.83555 19.40965
#
# Velocity S-wave (km/s) = 3.99384 2.16802 3.21333
# Velocity P-wave (km/s) = 6.47675 5.36770 5.94813
#
# Compressibility (1/GPa) = 0.02572353
#
# Stress axis : x y z
#
# Youngs Moduli (GPa) = 323.05050 153.45208 72.57831
#
# Poissons Ratio (x) = -1.97087 0.24778
# Poissons Ratio (y) = -4.14911 0.59971
# Poissons Ratio (z) = 1.10289 1.26797
#
# Static dielectric constant tensor:
#      x y z
#    x 1.698430 0.000000 0.000000 
#    y 0.000000 1.603530 0.000000 
#    z 0.000000 0.000000 1.618280 
# 
# From -- ./inp_files/32546.got.cif
#   From: 2010.05.17/outbox.cif.g08.bks.cpg/sg63_17_cif.got.tgz:32546.got - 2010.06.03 15:47:04.
