data_PCOD9472220
_publ_section_title
;
Structure prediction by ZEFSAII (Michael W. Deem and Ramdas Pophale) SiO2 
 PCOD9472220
Probable space group: C M C M
;
_chemical_formula_sum "Si O2"
_cell_formula_units_Z 64
_cell_length_a 10.780444
_cell_length_b 26.282439
_cell_length_c 12.173542
_cell_angle_alpha 90.000000
_cell_angle_beta 90.000000
_cell_angle_gamma 90.000000
_cell_volume 3449.207101
_symmetry_space_group_name_H-M "C M C M"
_symmetry_group_IT_number 63
_symmetry_cell_setting 'orthorhombic'
loop_
_space_group_symop_operation_xyz
x,y,z
-x,-y,1/2+z
x,-y,-z
-x,y,1/2-z
-x,-y,-z
x,y,1/2-z
-x,y,z
x,-y,1/2+z
1/2+x,1/2+y,z
1/2-x,1/2-y,1/2+z
1/2+x,1/2-y,-z
1/2-x,1/2+y,1/2-z
1/2-x,1/2-y,-z
1/2+x,1/2+y,1/2-z
1/2-x,1/2+y,z
1/2+x,1/2-y,1/2+z
loop_
_atom_site_type_symbol
_atom_site_label
_atom_site_fract_x
_atom_site_fract_y
_atom_site_fract_z
Si Si1 0.000000 0.973260 0.874654
Si Si2 0.500000 0.286112 0.378664
Si Si3 0.248592 0.147861 0.624389
Si Si4 0.000000 0.600565 0.133029
Si Si5 0.500000 0.190638 0.959153
Si Si6 0.755017 0.556326 0.450181
O O1 0.872327 0.942451 0.882111
O O2 0.000000 0.998873 0.750000
O O3 0.000000 0.000000 0.000000
O O4 0.500000 0.268985 0.250000
O O5 0.623857 0.319723 0.394469
O O6 0.500000 0.240923 0.466816
O O7 0.248079 0.129846 0.750000
O O8 0.371440 0.182560 0.606434
O O9 0.249452 0.099320 0.544394
O O10 0.122957 0.567537 0.119378
O O11 0.000000 0.626883 0.250000
O O12 0.000000 0.642851 0.040766
O O13 0.766767 0.500000 0.500000
#
# Coordination Sequence:
#
# PCOD9472220 Si02
#       6
#     8   8  16   8   8  16
#     4  10  21  36  55  80 111 151 196 240 286 338
#     4  10  20  36  58  82 109 146 190 238 296 355
#     4  10  21  36  57  85 114 148 192 238 289 352
#     4  10  20  34  52  76 106 142 184 229 282 343
#     4  10  20  36  56  80 111 143 182 237 290 344
#     4  10  21  36  55  81 113 150 190 235 283 338
#
# _framework density 18.55499
#
# number of rings (size 3 to 8) (size 9 to 14) (size 15 to 20)
#    0.000    2.000    0.000    3.375    0.000    5.000 
#    0.000    1.250    0.000   10.500    0.000    0.000 
#    0.000    0.000    0.000    0.000    0.000    0.000 
#
# Total GULP energy -178234.728613 kJ/mol
# GULP energy per Si atom -5569.835269 kJ/mol
# Density = 1.851276 g / cm^3
# Si number density = 18.554990 Si / 1000 Ang^3
#
#
#
# Elastic Constant Matrix: (Units=GPa)
#
#
# Indices 1 2 3 4 5 6 
#
# 1 173.2750 31.6783 44.9489 0.0000 0.0000 0.0000
# 2 31.6783 66.8942 31.0491 0.0000 0.0000 0.0000
# 3 44.9489 31.0491 99.1360 0.0000 0.0000 0.0000
# 4 0.0000 0.0000 0.0000 17.7779 0.0000 0.0000
# 5 0.0000 0.0000 0.0000 0.0000 -10.1067 0.0000
# 6 0.0000 0.0000 0.0000 0.0000 0.0000 17.1877
#
#
#
# Elastic Compliance Matrix: (Units=1/GPa)
#
#
# Indices 1 2 3 4 5 6 
#
# 1 0.006781 -0.002088 -0.002421 0.000000 0.000000 0.000000
# 2 -0.002088 0.018134 -0.004733 0.000000 0.000000 0.000000
# 3 -0.002421 -0.004733 0.012667 0.000000 0.000000 0.000000
# 4 0.000000 0.000000 0.000000 0.056250 0.000000 0.000000
# 5 0.000000 0.000000 0.000000 0.000000 -0.098944 0.000000
# 6 0.000000 0.000000 0.000000 0.000000 0.000000 0.058181
#
#
# Mechanical properties :
#
#
# Convention : Reuss Voigt Hill
#
# Bulk Modulus (GPa) = 52.35694 61.62864 56.99279
# Shear Modulus (GPa) = 64.16982 20.41369 42.29176
#
# Velocity S-wave (km/s) = 5.88716 3.32048 4.77935
# Velocity P-wave (km/s) = 8.63076 6.92726 7.82550
#
# Compressibility (1/GPa) = 0.01909967
#
# Stress axis : x y z
#
# Youngs Moduli (GPa) = 147.47629 55.14362 78.94469
#
# Poissons Ratio (x) = 0.11511 0.19110
# Poissons Ratio (y) = 0.30786 0.37366
# Poissons Ratio (z) = 0.35699 0.26100
#
# Static dielectric constant tensor:
#      x y z
#    x 1.667510 0.000000 0.000000 
#    y 0.000000 1.602890 0.000000 
#    z 0.000000 0.000000 1.694080 
# 
# From -- ./inp_files/17405.got.cif
#   From: 2010.05.17/outbox.cif.g08.bks.cpg/sg63_9_cif.got.tgz:17405.got - 2010.06.03 15:47:04.
