data_PCOD9472105
_publ_section_title
;
Structure prediction by ZEFSAII (Michael W. Deem and Ramdas Pophale) SiO2 
 PCOD9472105
Probable space group: C M C M
;
_chemical_formula_sum "Si O2"
_cell_formula_units_Z 64
_cell_length_a 14.300687
_cell_length_b 16.305182
_cell_length_c 12.719851
_cell_angle_alpha 90.000000
_cell_angle_beta 90.000000
_cell_angle_gamma 90.000000
_cell_volume 2965.955127
_symmetry_space_group_name_H-M "C M C M"
_symmetry_group_IT_number 63
_symmetry_cell_setting 'orthorhombic'
loop_
_space_group_symop_operation_xyz
x,y,z
-x,-y,1/2+z
x,-y,-z
-x,y,1/2-z
-x,-y,-z
x,y,1/2-z
-x,y,z
x,-y,1/2+z
1/2+x,1/2+y,z
1/2-x,1/2-y,1/2+z
1/2+x,1/2-y,-z
1/2-x,1/2+y,1/2-z
1/2-x,1/2-y,-z
1/2+x,1/2+y,1/2-z
1/2-x,1/2+y,z
1/2+x,1/2-y,1/2+z
loop_
_atom_site_type_symbol
_atom_site_label
_atom_site_fract_x
_atom_site_fract_y
_atom_site_fract_z
Si Si1 0.608502 0.281491 0.864471
Si Si2 0.102797 0.089341 0.947731
Si Si3 0.806150 0.390827 0.414912
Si Si4 0.610142 0.936739 0.868141
O O1 0.628972 0.319531 0.750000
O O2 0.500000 0.255609 0.864309
O O3 0.666416 0.199155 0.879392
O O4 0.616867 0.344463 0.959557
O O5 0.198795 0.093111 0.884479
O O6 0.000000 0.103757 0.898394
O O7 0.100297 0.000000 0.000000
O O8 0.868339 0.465824 0.371778
O O9 0.826334 0.397409 0.540857
O O10 0.629112 0.906546 0.750000
O O11 0.500000 0.923276 0.891527
#
# Coordination Sequence:
#
# PCOD9472105 Si02
#       4
#    16  16  16  16
#     4  10  21  37  61  90 117 150 194 242 293 353
#     4  10  21  39  58  80 114 156 200 243 287 339
#     4  11  19  36  59  85 117 153 196 241 293 344
#     4  10  20  33  54  86 121 155 191 236 293 352
#
# _framework density 21.578209999999999
#
# number of rings (size 3 to 8) (size 9 to 14) (size 15 to 20)
#    0.000    1.750    2.500    4.500    0.000    3.000 
#    0.000    0.000    0.000    4.500    0.000   10.500 
#    0.000    0.000    0.000    0.000    0.000    0.000 
#
# Total GULP energy -178654.318640 kJ/mol
# GULP energy per Si atom -5582.947457 kJ/mol
# Density = 2.152910 g / cm^3
# Si number density = 21.578210 Si / 1000 Ang^3
#
#
#
# Elastic Constant Matrix: (Units=GPa)
#
#
# Indices 1 2 3 4 5 6 
#
# 1 130.1178 10.2865 9.0898 0.0000 0.0000 0.0000
# 2 10.2865 55.4212 -14.2501 0.0000 0.0000 0.0000
# 3 9.0898 -14.2501 68.1009 0.0000 0.0000 0.0000
# 4 0.0000 0.0000 0.0000 -19.9980 0.0000 0.0000
# 5 0.0000 0.0000 0.0000 0.0000 4.8268 0.0000
# 6 0.0000 0.0000 0.0000 0.0000 0.0000 42.3187
#
#
#
# Elastic Compliance Matrix: (Units=1/GPa)
#
#
# Indices 1 2 3 4 5 6 
#
# 1 0.007932 -0.001844 -0.001445 0.000000 0.000000 0.000000
# 2 -0.001844 0.019498 0.004326 0.000000 0.000000 0.000000
# 3 -0.001445 0.004326 0.015782 0.000000 0.000000 0.000000
# 4 0.000000 0.000000 0.000000 -0.050005 0.000000 0.000000
# 5 0.000000 0.000000 0.000000 0.000000 0.207176 0.000000
# 6 0.000000 0.000000 0.000000 0.000000 0.000000 0.023630
#
#
# Mechanical properties :
#
#
# Convention : Reuss Voigt Hill
#
# Bulk Modulus (GPa) = 22.08087 29.32140 25.70113
# Shear Modulus (GPa) = 21.09404 21.99708 21.54556
#
# Velocity S-wave (km/s) = 3.12999 3.19629 3.16331
# Velocity P-wave (km/s) = 4.82883 5.21916 5.02778
#
# Compressibility (1/GPa) = 0.04528808
#
# Stress axis : x y z
#
# Youngs Moduli (GPa) = 126.07155 51.28692 63.36283
#
# Poissons Ratio (x) = 0.09456 0.09153
# Poissons Ratio (y) = 0.23243 -0.27411
# Poissons Ratio (z) = 0.18211 -0.22187
#
# Static dielectric constant tensor:
#      x y z
#    x 1.803560 0.000000 0.000000 
#    y 0.000000 1.718970 0.000000 
#    z 0.000000 0.000000 1.862150 
# 
# From -- ./inp_files/31116.got.cif
#   From: 2010.05.17/outbox.cif.g08.bks.cpg/sg63_16_cif.got.tgz:31116.got - 2010.06.03 15:47:04.
