data_PCOD9472533
_publ_section_title
;
Structure prediction by ZEFSAII (Michael W. Deem and Ramdas Pophale) SiO2 
 PCOD9472533
Probable space group: C M C M
;
_chemical_formula_sum "Si O2"
_cell_formula_units_Z 80
_cell_length_a 24.905262
_cell_length_b 7.556552
_cell_length_c 17.102595
_cell_angle_alpha 90.000000
_cell_angle_beta 90.000000
_cell_angle_gamma 90.000000
_cell_volume 3218.672590
_symmetry_space_group_name_H-M "C M C M"
_symmetry_group_IT_number 63
_symmetry_cell_setting 'orthorhombic'
loop_
_space_group_symop_operation_xyz
x,y,z
-x,-y,1/2+z
x,-y,-z
-x,y,1/2-z
-x,-y,-z
x,y,1/2-z
-x,y,z
x,-y,1/2+z
1/2+x,1/2+y,z
1/2-x,1/2-y,1/2+z
1/2+x,1/2-y,-z
1/2-x,1/2+y,1/2-z
1/2-x,1/2-y,-z
1/2+x,1/2+y,1/2-z
1/2-x,1/2+y,z
1/2+x,1/2-y,1/2+z
loop_
_atom_site_type_symbol
_atom_site_label
_atom_site_fract_x
_atom_site_fract_y
_atom_site_fract_z
Si Si1 0.585920 0.300007 0.497968
Si Si2 0.212820 0.422471 0.338359
Si Si3 0.297695 0.743963 0.562302
Si Si4 0.061735 0.814602 0.334170
Si Si5 0.108018 0.798001 0.835961
O O1 0.563009 0.500000 0.500000
O O2 0.649566 0.314189 0.482171
O O3 0.566736 0.214316 0.416680
O O4 0.579532 0.226614 0.585310
O O5 0.215057 0.491092 0.250000
O O6 0.271729 0.370359 0.368266
O O7 0.191462 0.567553 0.398500
O O8 0.170116 0.262197 0.339647
O O9 0.250000 0.750000 0.500000
O O10 0.073842 0.725242 0.250000
O O11 0.000000 0.875215 0.330727
O O12 0.098942 0.989795 0.338735
O O13 0.087779 0.740223 0.750000
#
# Coordination Sequence:
#
# PCOD9472533 Si02
#       5
#    16  16  16  16  16
#     4  10  20  34  57  87 117 157 198 252 307 366
#     4  11  24  39  56  82 118 161 205 251 303 371
#     4  12  23  38  58  84 120 162 207 251 308 370
#     4   9  19  36  60  90 123 159 206 263 316 370
#     4   9  19  35  54  79 114 153 198 245 304 368
#
# _framework density 24.854965
#
# number of rings (size 3 to 8) (size 9 to 14) (size 15 to 20)
#    0.000    1.800    2.000    2.400    2.800    5.200 
#    0.000    0.000    0.000    1.200    0.000    9.800 
#    0.000    0.000    0.000    0.000    0.000    0.000 
#
# Total GULP energy -223275.172651 kJ/mol
# GULP energy per Si atom -5581.879316 kJ/mol
# Density = 2.479839 g / cm^3
# Si number density = 24.854965 Si / 1000 Ang^3
#
#
#
# Elastic Constant Matrix: (Units=GPa)
#
#
# Indices 1 2 3 4 5 6 
#
# 1 71.1436 11.6307 27.6812 0.0000 0.0000 0.0000
# 2 11.6307 56.1388 16.7155 0.0000 0.0000 0.0000
# 3 27.6812 16.7155 285.8412 0.0000 0.0000 0.0000
# 4 0.0000 0.0000 0.0000 21.6297 0.0000 0.0000
# 5 0.0000 0.0000 0.0000 0.0000 25.5798 0.0000
# 6 0.0000 0.0000 0.0000 0.0000 0.0000 3.0766
#
#
#
# Elastic Compliance Matrix: (Units=1/GPa)
#
#
# Indices 1 2 3 4 5 6 
#
# 1 0.015005 -0.002723 -0.001294 0.000000 0.000000 0.000000
# 2 -0.002723 0.018623 -0.000825 0.000000 0.000000 0.000000
# 3 -0.001294 -0.000825 0.003672 0.000000 0.000000 0.000000
# 4 0.000000 0.000000 0.000000 0.046233 0.000000 0.000000
# 5 0.000000 0.000000 0.000000 0.000000 0.039093 0.000000
# 6 0.000000 0.000000 0.000000 0.000000 0.000000 0.325032
#
#
# Mechanical properties :
#
#
# Convention : Reuss Voigt Hill
#
# Bulk Modulus (GPa) = 36.21268 58.35316 47.28292
# Shear Modulus (GPa) = 10.71702 33.86364 22.29033
#
# Velocity S-wave (km/s) = 2.07875 3.69514 2.99794
# Velocity P-wave (km/s) = 4.51252 6.46018 5.57210
#
# Compressibility (1/GPa) = 0.02761463
#
# Stress axis : x y z
#
# Youngs Moduli (GPa) = 66.64574 53.69719 272.33094
#
# Poissons Ratio (x) = 0.14624 0.35235
# Poissons Ratio (y) = 0.18150 0.22476
# Poissons Ratio (z) = 0.08623 0.04432
#
# Static dielectric constant tensor:
#      x y z
#    x 1.951910 0.000000 0.000000 
#    y 0.000000 1.972930 0.000000 
#    z 0.000000 0.000000 2.056640 
# 
# From -- ./inp_files/48736.got.cif
#   From: 2010.05.17/outbox.cif.g08.bks.cpg/sg63_25_cif.got.tgz:48736.got - 2010.06.03 15:47:04.
