data_PCOD9472200
_publ_section_title
;
Structure prediction by ZEFSAII (Michael W. Deem and Ramdas Pophale) SiO2 
 PCOD9472200
Probable space group: C M C M
;
_chemical_formula_sum "Si O2"
_cell_formula_units_Z 64
_cell_length_a 7.651363
_cell_length_b 21.028371
_cell_length_c 20.497779
_cell_angle_alpha 90.000000
_cell_angle_beta 90.000000
_cell_angle_gamma 90.000000
_cell_volume 3298.004497
_symmetry_space_group_name_H-M "C M C M"
_symmetry_group_IT_number 63
_symmetry_cell_setting 'orthorhombic'
loop_
_space_group_symop_operation_xyz
x,y,z
-x,-y,1/2+z
x,-y,-z
-x,y,1/2-z
-x,-y,-z
x,y,1/2-z
-x,y,z
x,-y,1/2+z
1/2+x,1/2+y,z
1/2-x,1/2-y,1/2+z
1/2+x,1/2-y,-z
1/2-x,1/2+y,1/2-z
1/2-x,1/2-y,-z
1/2+x,1/2+y,1/2-z
1/2-x,1/2+y,z
1/2+x,1/2-y,1/2+z
loop_
_atom_site_type_symbol
_atom_site_label
_atom_site_fract_x
_atom_site_fract_y
_atom_site_fract_z
Si Si1 0.292233 0.726459 0.926946
Si Si2 0.713199 0.585950 0.942312
Si Si3 0.213323 0.948692 0.590439
Si Si4 0.291823 0.665763 0.177159
O O1 0.500000 0.723398 0.922276
O O2 0.223571 0.654465 0.918538
O O3 0.233257 0.776302 0.872725
O O4 0.250000 0.750000 0.000000
O O5 0.500000 0.586507 0.940611
O O6 0.769910 0.522119 0.904927
O O7 0.761812 0.576303 0.018285
O O8 0.277500 0.898831 0.643827
O O9 0.000000 0.948791 0.591926
O O10 0.222268 0.677101 0.250000
O O11 0.500000 0.657288 0.182425
#
# Coordination Sequence:
#
# PCOD9472200 Si02
#       4
#    16  16  16  16
#     4  11  20  32  52  78 106 135 169 212 257 306
#     4   8  14  25  47  74  98 122 159 212 255 286
#     4   8  13  26  47  72  97 123 161 209 253 291
#     4  10  20  34  52  74 102 136 172 209 256 313
#
# _framework density 19.405674000000001
#
# number of rings (size 3 to 8) (size 9 to 14) (size 15 to 20)
#    0.000    2.750    2.500    2.250    0.000    0.500 
#    0.000    1.250    0.000    9.000    0.000    0.000 
#    0.000    0.000    0.000    0.000    0.000    0.000 
#
# Total GULP energy -178408.058177 kJ/mol
# GULP energy per Si atom -5575.251818 kJ/mol
# Density = 1.936151 g / cm^3
# Si number density = 19.405674 Si / 1000 Ang^3
#
#
#
# Elastic Constant Matrix: (Units=GPa)
#
#
# Indices 1 2 3 4 5 6 
#
# 1 36.5073 3.6492 3.8386 0.0000 0.0000 0.0000
# 2 3.6492 215.2448 106.8188 0.0000 0.0000 0.0000
# 3 3.8386 106.8188 140.4597 0.0000 0.0000 0.0000
# 4 0.0000 0.0000 0.0000 20.9142 0.0000 0.0000
# 5 0.0000 0.0000 0.0000 0.0000 12.0673 0.0000
# 6 0.0000 0.0000 0.0000 0.0000 0.0000 17.2726
#
#
#
# Elastic Compliance Matrix: (Units=1/GPa)
#
#
# Indices 1 2 3 4 5 6 
#
# 1 0.027474 -0.000150 -0.000637 0.000000 0.000000 0.000000
# 2 -0.000150 0.007463 -0.005671 0.000000 0.000000 0.000000
# 3 -0.000637 -0.005671 0.011450 0.000000 0.000000 0.000000
# 4 0.000000 0.000000 0.000000 0.047814 0.000000 0.000000
# 5 0.000000 0.000000 0.000000 0.000000 0.082868 0.000000
# 6 0.000000 0.000000 0.000000 0.000000 0.000000 0.057895
#
#
# Mechanical properties :
#
#
# Convention : Reuss Voigt Hill
#
# Bulk Modulus (GPa) = 29.87714 68.98057 49.42886
# Shear Modulus (GPa) = 19.30221 28.57784 23.94002
#
# Velocity S-wave (km/s) = 3.15726 3.84168 3.51616
# Velocity P-wave (km/s) = 5.35916 7.43652 6.48160
#
# Compressibility (1/GPa) = 0.03347040
#
# Stress axis : x y z
#
# Youngs Moduli (GPa) = 36.39845 133.99509 87.33634
#
# Poissons Ratio (x) = 0.02005 0.05564
# Poissons Ratio (y) = 0.00545 0.49532
# Poissons Ratio (z) = 0.02319 0.75995
#
# Static dielectric constant tensor:
#      x y z
#    x 1.746410 0.000000 0.000000 
#    y 0.000000 1.704650 0.000000 
#    z 0.000000 0.000000 1.635210 
# 
# From -- ./inp_files/39804.got.cif
#   From: 2010.05.17/outbox.cif.g08.bks.cpg/sg63_20_cif.got.tgz:39804.got - 2010.06.03 15:47:04.
