data_PCOD9472974
_publ_section_title
;
Structure prediction by ZEFSAII (Michael W. Deem and Ramdas Pophale) SiO2 
 PCOD9472974
Probable space group: C M C M
;
_chemical_formula_sum "Si O2"
_cell_formula_units_Z 96
_cell_length_a 7.531187
_cell_length_b 20.381901
_cell_length_c 29.829105
_cell_angle_alpha 90.000000
_cell_angle_beta 90.000000
_cell_angle_gamma 90.000000
_cell_volume 4578.764869
_symmetry_space_group_name_H-M "C M C M"
_symmetry_group_IT_number 63
_symmetry_cell_setting 'orthorhombic'
loop_
_space_group_symop_operation_xyz
x,y,z
-x,-y,1/2+z
x,-y,-z
-x,y,1/2-z
-x,-y,-z
x,y,1/2-z
-x,y,z
x,-y,1/2+z
1/2+x,1/2+y,z
1/2-x,1/2-y,1/2+z
1/2+x,1/2-y,-z
1/2-x,1/2+y,1/2-z
1/2-x,1/2-y,-z
1/2+x,1/2+y,1/2-z
1/2-x,1/2+y,z
1/2+x,1/2-y,1/2+z
loop_
_atom_site_type_symbol
_atom_site_label
_atom_site_fract_x
_atom_site_fract_y
_atom_site_fract_z
Si Si1 0.717093 0.743702 0.301487
Si Si2 0.203736 0.497603 0.868354
Si Si3 0.214126 0.944692 0.036604
Si Si4 0.706173 0.651846 0.118825
Si Si5 0.783704 0.392591 0.301564
Si Si6 0.787050 0.178455 0.018963
O O1 0.773688 0.730229 0.250000
O O2 0.500000 0.742172 0.300432
O O3 0.780308 0.692673 0.339091
O O4 0.770336 0.818327 0.313747
O O5 0.210041 0.533865 0.916041
O O6 0.287640 0.425963 0.872763
O O7 0.282120 0.548983 0.832871
O O8 0.000000 0.485018 0.855639
O O9 0.278206 0.876329 0.015915
O O10 0.000000 0.942891 0.041965
O O11 0.255121 0.000000 0.000000
O O12 0.500000 0.671845 0.116269
O O13 0.783135 0.667275 0.069501
O O14 0.734403 0.403521 0.250000
O O15 0.000000 0.392798 0.304126
O O16 0.000000 0.168815 0.021236
O O17 0.750000 0.250000 0.000000
#
# Coordination Sequence:
#
# PCOD9472974 Si02
#       6
#    16  16  16  16  16  16
#     4   8  15  30  54  79 101 133 178 220 256 306
#     4  11  22  33  54  84 108 137 178 225 265 305
#     4  10  20  39  58  73 104 148 180 208 263 322
#     4  10  20  36  55  76 108 143 175 213 263 320
#     4   8  16  32  52  77 108 138 172 216 267 317
#     4  10  22  37  55  78 106 141 175 217 264 313
#
# _framework density 20.966353000000002
#
# number of rings (size 3 to 8) (size 9 to 14) (size 15 to 20)
#    0.000    2.500    1.667    1.500    2.333    2.333 
#    0.000    0.000    0.000    1.500    0.000    4.667 
#    0.000    0.000    0.000    0.000    0.000    0.000 
#
# Total GULP energy -267929.150106 kJ/mol
# GULP energy per Si atom -5581.857294 kJ/mol
# Density = 2.091863 g / cm^3
# Si number density = 20.966353 Si / 1000 Ang^3
#
#
#
# Elastic Constant Matrix: (Units=GPa)
#
#
# Indices 1 2 3 4 5 6 
#
# 1 46.8594 -8.1855 -3.2087 0.0000 0.0000 0.0000
# 2 -8.1855 163.5875 98.7823 0.0000 0.0000 0.0000
# 3 -3.2087 98.7823 133.0044 0.0000 0.0000 0.0000
# 4 0.0000 0.0000 0.0000 47.1775 0.0000 0.0000
# 5 0.0000 0.0000 0.0000 0.0000 80.7056 0.0000
# 6 0.0000 0.0000 0.0000 0.0000 0.0000 12.4901
#
#
#
# Elastic Compliance Matrix: (Units=1/GPa)
#
#
# Indices 1 2 3 4 5 6 
#
# 1 0.021548 0.001386 -0.000509 0.000000 0.000000 0.000000
# 2 0.001386 0.011173 -0.008265 0.000000 0.000000 0.000000
# 3 -0.000509 -0.008265 0.013644 0.000000 0.000000 0.000000
# 4 0.000000 0.000000 0.000000 0.021197 0.000000 0.000000
# 5 0.000000 0.000000 0.000000 0.000000 0.012391 0.000000
# 6 0.000000 0.000000 0.000000 0.000000 0.000000 0.080064
#
#
# Mechanical properties :
#
#
# Convention : Reuss Voigt Hill
#
# Bulk Modulus (GPa) = 31.65720 57.58084 44.61902
# Shear Modulus (GPa) = 26.98008 45.14551 36.06279
#
# Velocity S-wave (km/s) = 3.59113 4.64533 4.15183
# Velocity P-wave (km/s) = 5.68566 7.50301 6.65665
#
# Compressibility (1/GPa) = 0.03158839
#
# Stress axis : x y z
#
# Youngs Moduli (GPa) = 46.40882 89.50217 73.28989
#
# Poissons Ratio (x) = -0.12403 0.03733
# Poissons Ratio (y) = -0.06431 0.60572
# Poissons Ratio (z) = 0.02364 0.73971
#
# Static dielectric constant tensor:
#      x y z
#    x 1.854830 0.000000 0.000000 
#    y 0.000000 1.717530 0.000000 
#    z 0.000000 0.000000 1.832980 
# 
# From -- ./inp_files/59930.got.cif
#   From: 2010.05.17/outbox.cif.g08.bks.cpg/sg63_30_cif.got.tgz:59930.got - 2010.06.03 15:47:04.
