data_PCOD9472379
_publ_section_title
;
Structure prediction by ZEFSAII (Michael W. Deem and Ramdas Pophale) SiO2 
 PCOD9472379
Probable space group: C M C M
;
_chemical_formula_sum "Si O2"
_cell_formula_units_Z 96
_cell_length_a 7.806568
_cell_length_b 20.420183
_cell_length_c 29.654157
_cell_angle_alpha 90.000000
_cell_angle_beta 90.000000
_cell_angle_gamma 90.000000
_cell_volume 4727.215047
_symmetry_space_group_name_H-M "C M C M"
_symmetry_group_IT_number 63
_symmetry_cell_setting 'orthorhombic'
loop_
_space_group_symop_operation_xyz
x,y,z
-x,-y,1/2+z
x,-y,-z
-x,y,1/2-z
-x,-y,-z
x,y,1/2-z
-x,y,z
x,-y,1/2+z
1/2+x,1/2+y,z
1/2-x,1/2-y,1/2+z
1/2+x,1/2-y,-z
1/2-x,1/2+y,1/2-z
1/2-x,1/2-y,-z
1/2+x,1/2+y,1/2-z
1/2-x,1/2+y,z
1/2+x,1/2-y,1/2+z
loop_
_atom_site_type_symbol
_atom_site_label
_atom_site_fract_x
_atom_site_fract_y
_atom_site_fract_z
Si Si1 0.198727 0.197349 0.537561
Si Si2 0.207924 0.428972 0.517995
Si Si3 0.290345 0.010886 0.301817
Si Si4 0.696182 0.752310 0.368655
Si Si5 0.708814 0.137769 0.698095
Si Si6 0.201513 0.604136 0.381482
O O1 0.250000 0.250000 0.500000
O O2 0.230723 0.126875 0.516016
O O3 0.299511 0.212534 0.582955
O O4 0.000000 0.206050 0.548547
O O5 0.259643 0.500000 0.500000
O O6 0.271111 0.413927 0.568854
O O7 0.000000 0.426244 0.518426
O O8 0.236438 0.024616 0.250000
O O9 0.500000 0.012272 0.301130
O O10 0.238508 0.936378 0.313893
O O11 0.228981 0.061735 0.339620
O O12 0.500000 0.739519 0.355435
O O13 0.773093 0.804137 0.333500
O O14 0.780347 0.681367 0.372920
O O15 0.755487 0.149066 0.750000
O O16 0.500000 0.137909 0.695281
O O17 0.000000 0.588493 0.383625
#
# Coordination Sequence:
#
# PCOD9472379 Si02
#       6
#    16  16  16  16  16  16
#     4  12  24  40  60  82 113 150 190 234 282 335
#     4  10  22  38  58  84 114 149 189 230 278 338
#     4   8  15  30  53  80 108 141 184 232 277 324
#     4  11  22  35  57  84 114 150 186 229 282 336
#     4   8  16  32  55  83 111 142 186 232 272 324
#     4  10  20  34  54  80 112 145 184 231 276 330
#
# _framework density 20.307939999999999
#
# number of rings (size 3 to 8) (size 9 to 14) (size 15 to 20)
#    0.000    2.167    1.667    3.000    2.333    1.000 
#    0.000    0.000    0.000    1.500    0.000    4.667 
#    0.000    0.000    0.000    0.000    0.000    0.000 
#
# Total GULP energy -267973.014901 kJ/mol
# GULP energy per Si atom -5582.771144 kJ/mol
# Density = 2.026172 g / cm^3
# Si number density = 20.307940 Si / 1000 Ang^3
#
#
#
# Elastic Constant Matrix: (Units=GPa)
#
#
# Indices 1 2 3 4 5 6 
#
# 1 31.5925 -6.0360 -8.7661 0.0000 0.0000 0.0000
# 2 -6.0360 149.3620 88.2108 0.0000 0.0000 0.0000
# 3 -8.7661 88.2108 122.2429 0.0000 0.0000 0.0000
# 4 0.0000 0.0000 0.0000 45.9173 0.0000 0.0000
# 5 0.0000 0.0000 0.0000 0.0000 3.7314 0.0000
# 6 0.0000 0.0000 0.0000 0.0000 0.0000 23.0793
#
#
#
# Elastic Compliance Matrix: (Units=1/GPa)
#
#
# Indices 1 2 3 4 5 6 
#
# 1 0.032297 -0.000109 0.002395 0.000000 0.000000 0.000000
# 2 -0.000109 0.011668 -0.008427 0.000000 0.000000 0.000000
# 3 0.002395 -0.008427 0.014433 0.000000 0.000000 0.000000
# 4 0.000000 0.000000 0.000000 0.021778 0.000000 0.000000
# 5 0.000000 0.000000 0.000000 0.000000 0.267997 0.000000
# 6 0.000000 0.000000 0.000000 0.000000 0.000000 0.043329
#
#
# Mechanical properties :
#
#
# Convention : Reuss Voigt Hill
#
# Bulk Modulus (GPa) = 21.68520 50.00165 35.84342
# Shear Modulus (GPa) = 11.92870 29.86485 20.89677
#
# Velocity S-wave (km/s) = 2.42624 3.83900 3.21128
# Velocity P-wave (km/s) = 4.30700 6.65776 5.60696
#
# Compressibility (1/GPa) = 0.04611440
#
# Stress axis : x y z
#
# Youngs Moduli (GPa) = 30.96293 85.70616 69.28407
#
# Poissons Ratio (x) = 0.00935 -0.16592
# Poissons Ratio (y) = 0.00338 0.58388
# Poissons Ratio (z) = -0.07415 0.72227
#
# Static dielectric constant tensor:
#      x y z
#    x 1.766550 0.000000 0.000000 
#    y 0.000000 1.684050 0.000000 
#    z 0.000000 0.000000 1.687460 
# 
# From -- ./inp_files/66885.got.cif
#   From: 2010.05.17/outbox.cif.g08.bks.cpg/sg63_34_cif.got.tgz:66885.got - 2010.06.03 15:47:04.
