data_PCOD9472753
_publ_section_title
;
Structure prediction by ZEFSAII (Michael W. Deem and Ramdas Pophale) SiO2 
 PCOD9472753
Probable space group: C M C M
;
_chemical_formula_sum "Si O2"
_cell_formula_units_Z 112
_cell_length_a 27.625271
_cell_length_b 11.576365
_cell_length_c 18.806327
_cell_angle_alpha 90.000000
_cell_angle_beta 90.000000
_cell_angle_gamma 90.000000
_cell_volume 6014.267518
_symmetry_space_group_name_H-M "C M C M"
_symmetry_group_IT_number 63
_symmetry_cell_setting 'orthorhombic'
loop_
_space_group_symop_operation_xyz
x,y,z
-x,-y,1/2+z
x,-y,-z
-x,y,1/2-z
-x,-y,-z
x,y,1/2-z
-x,y,z
x,-y,1/2+z
1/2+x,1/2+y,z
1/2-x,1/2-y,1/2+z
1/2+x,1/2-y,-z
1/2-x,1/2+y,1/2-z
1/2-x,1/2-y,-z
1/2+x,1/2+y,1/2-z
1/2-x,1/2+y,z
1/2+x,1/2-y,1/2+z
loop_
_atom_site_type_symbol
_atom_site_label
_atom_site_fract_x
_atom_site_fract_y
_atom_site_fract_z
Si Si1 0.556140 0.940930 0.670609
Si Si2 0.442469 0.583843 0.166442
Si Si3 0.232962 0.115064 0.913058
Si Si4 0.055849 0.329074 0.404933
Si Si5 0.876203 0.927200 0.072231
Si Si6 0.615985 0.163889 0.042387
Si Si7 0.229094 0.627700 0.071593
O O1 0.571851 0.909891 0.750000
O O2 0.500000 0.905117 0.661583
O O3 0.588852 0.889920 0.609214
O O4 0.557511 0.078429 0.658341
O O5 0.431141 0.592999 0.250000
O O6 0.500000 0.562380 0.159822
O O7 0.432051 0.703914 0.125954
O O8 0.412008 0.485476 0.127843
O O9 0.177616 0.085164 0.896404
O O10 0.242358 0.249532 0.889989
O O11 0.262719 0.998553 0.892328
O O12 0.239552 0.124128 0.998940
O O13 0.091642 0.368208 0.467564
O O14 0.000000 0.328064 0.431886
O O15 0.891900 0.800205 0.049908
O O16 0.874052 0.000000 0.000000
O O17 0.673018 0.137270 0.047736
#
# Coordination Sequence:
#
# PCOD9472753 Si02
#       7
#    16  16  16  16  16  16  16
#     4  10  22  39  55  76 116 160 190 228 292 354
#     4  10  22  38  58  84 115 155 196 231 281 349
#     4   9  18  32  51  80 114 146 180 230 289 343
#     4  10  20  35  56  82 115 148 192 243 283 332
#     4  11  20  37  56  84 118 145 183 237 286 336
#     4  11  22  33  57  91 113 142 193 247 286 333
#     4   9  18  31  52  82 115 144 181 239 285 345
#
# _framework density 18.622384
#
# number of rings (size 3 to 8) (size 9 to 14) (size 15 to 20)
#    0.000    2.000    2.857    1.286    4.000    4.857 
#    0.000    1.429    0.000    0.857    0.000    0.000 
#    0.000    0.000    0.000    0.000    0.000    0.000 
#
# Total GULP energy -312113.710297 kJ/mol
# GULP energy per Si atom -5573.459112 kJ/mol
# Density = 1.858000 g / cm^3
# Si number density = 18.622384 Si / 1000 Ang^3
#
#
#
# Elastic Constant Matrix: (Units=GPa)
#
#
# Indices 1 2 3 4 5 6 
#
# 1 44.1582 25.3430 32.6259 0.0000 0.0000 0.0000
# 2 25.3430 127.0886 20.4441 0.0000 0.0000 0.0000
# 3 32.6259 20.4441 62.4937 0.0000 0.0000 0.0000
# 4 0.0000 0.0000 0.0000 14.6445 0.0000 0.0000
# 5 0.0000 0.0000 0.0000 0.0000 1.5128 0.0000
# 6 0.0000 0.0000 0.0000 0.0000 0.0000 31.0920
#
#
#
# Elastic Compliance Matrix: (Units=1/GPa)
#
#
# Indices 1 2 3 4 5 6 
#
# 1 0.039467 -0.004809 -0.019031 0.000000 0.000000 0.000000
# 2 -0.004809 0.008892 -0.000398 0.000000 0.000000 0.000000
# 3 -0.019031 -0.000398 0.026067 0.000000 0.000000 0.000000
# 4 0.000000 0.000000 0.000000 0.068285 0.000000 0.000000
# 5 0.000000 0.000000 0.000000 0.000000 0.661031 0.000000
# 6 0.000000 0.000000 0.000000 0.000000 0.000000 0.032163
#
#
# Mechanical properties :
#
#
# Convention : Reuss Voigt Hill
#
# Bulk Modulus (GPa) = 38.53660 43.39628 40.96644
# Shear Modulus (GPa) = 5.59892 19.80502 12.70197
#
# Velocity S-wave (km/s) = 1.73582 3.26468 2.61450
# Velocity P-wave (km/s) = 4.97555 6.12901 5.58215
#
# Compressibility (1/GPa) = 0.02594936
#
# Stress axis : x y z
#
# Youngs Moduli (GPa) = 25.33789 112.46692 38.36203
#
# Poissons Ratio (x) = 0.54081 0.73007
# Poissons Ratio (y) = 0.12184 0.01528
# Poissons Ratio (z) = 0.48221 0.04480
#
# Static dielectric constant tensor:
#      x y z
#    x 1.645130 0.000000 0.000000 
#    y 0.000000 1.709840 0.000000 
#    z 0.000000 0.000000 1.589960 
# 
# From -- ./inp_files/57574.got.cif
#   From: 2010.05.17/outbox.cif.g08.bks.cpg/sg63_29_cif.got.tgz:57574.got - 2010.06.03 15:47:04.
