data_PCOD9472488
_publ_section_title
;
Structure prediction by ZEFSAII (Michael W. Deem and Ramdas Pophale) SiO2 
 PCOD9472488
Probable space group: C M C M
;
_chemical_formula_sum "Si O2"
_cell_formula_units_Z 96
_cell_length_a 17.049179
_cell_length_b 16.752027
_cell_length_c 15.207743
_cell_angle_alpha 90.000000
_cell_angle_beta 90.000000
_cell_angle_gamma 90.000000
_cell_volume 4343.457731
_symmetry_space_group_name_H-M "C M C M"
_symmetry_group_IT_number 63
_symmetry_cell_setting 'orthorhombic'
loop_
_space_group_symop_operation_xyz
x,y,z
-x,-y,1/2+z
x,-y,-z
-x,y,1/2-z
-x,-y,-z
x,y,1/2-z
-x,y,z
x,-y,1/2+z
1/2+x,1/2+y,z
1/2-x,1/2-y,1/2+z
1/2+x,1/2-y,-z
1/2-x,1/2+y,1/2-z
1/2-x,1/2-y,-z
1/2+x,1/2+y,1/2-z
1/2-x,1/2+y,z
1/2+x,1/2-y,1/2+z
loop_
_atom_site_type_symbol
_atom_site_label
_atom_site_fract_x
_atom_site_fract_y
_atom_site_fract_z
Si Si1 0.707431 0.831506 0.350606
Si Si2 0.387931 0.326998 0.153388
Si Si3 0.584513 0.932266 0.574621
Si Si4 0.913459 0.009148 0.104337
Si Si5 0.241676 0.488717 0.852920
Si Si6 0.583478 0.235900 0.976501
O O1 0.676519 0.836991 0.250000
O O2 0.796691 0.803903 0.346487
O O3 0.718881 0.922201 0.388787
O O4 0.654750 0.773221 0.409065
O O5 0.417446 0.299475 0.250000
O O6 0.402678 0.422041 0.148560
O O7 0.414642 0.296085 0.058425
O O8 0.500000 0.941643 0.622684
O O9 0.582928 0.848993 0.524965
O O10 0.586602 0.000000 0.500000
O O11 0.664574 0.937439 0.628622
O O12 0.826064 0.046199 0.117500
O O13 0.000000 0.041643 0.132937
O O14 0.918594 0.000000 0.000000
O O15 0.251102 0.501494 0.750000
O O16 0.500000 0.247544 0.929178
#
# Coordination Sequence:
#
# PCOD9472488 Si02
#       6
#    16  16  16  16  16  16
#     4   9  19  36  57  83 113 153 202 242 290 356
#     4  10  22  40  62  88 119 155 198 250 303 357
#     4  10  20  35  54  81 119 158 200 246 292 345
#     4  10  21  37  61  88 112 146 193 245 303 367
#     4  10  20  34  56  82 113 155 196 244 299 347
#     4  11  22  35  59  88 116 159 200 243 304 353
#
# _framework density 22.102207
#
# number of rings (size 3 to 8) (size 9 to 14) (size 15 to 20)
#    0.000    2.000    1.667    3.000    2.333    3.667 
#    0.000    3.333    0.000    1.000    0.000    4.667 
#    0.000    0.000    0.000    0.000    0.000    0.000 
#
# Total GULP energy -267257.738223 kJ/mol
# GULP energy per Si atom -5567.869546 kJ/mol
# Density = 2.205190 g / cm^3
# Si number density = 22.102207 Si / 1000 Ang^3
#
#
#
# Elastic Constant Matrix: (Units=GPa)
#
#
# Indices 1 2 3 4 5 6 
#
# 1 224.6047 -0.4034 52.7729 0.0000 0.0000 0.0000
# 2 -0.4034 20.1287 -1.2061 0.0000 0.0000 0.0000
# 3 52.7729 -1.2061 69.3077 0.0000 0.0000 0.0000
# 4 0.0000 0.0000 0.0000 22.4349 0.0000 0.0000
# 5 0.0000 0.0000 0.0000 0.0000 191.3476 0.0000
# 6 0.0000 0.0000 0.0000 0.0000 0.0000 12.0524
#
#
#
# Elastic Compliance Matrix: (Units=1/GPa)
#
#
# Indices 1 2 3 4 5 6 
#
# 1 0.005423 -0.000139 -0.004131 0.000000 0.000000 0.000000
# 2 -0.000139 0.049736 0.000971 0.000000 0.000000 0.000000
# 3 -0.004131 0.000971 0.017591 0.000000 0.000000 0.000000
# 4 0.000000 0.000000 0.000000 0.044573 0.000000 0.000000
# 5 0.000000 0.000000 0.000000 0.000000 0.005226 0.000000
# 6 0.000000 0.000000 0.000000 0.000000 0.000000 0.082971
#
#
# Mechanical properties :
#
#
# Convention : Reuss Voigt Hill
#
# Bulk Modulus (GPa) = 15.11684 46.26311 30.68997
# Shear Modulus (GPa) = 21.35216 62.69218 42.02217
#
# Velocity S-wave (km/s) = 3.11153 5.33163 4.36508
# Velocity P-wave (km/s) = 4.44558 7.67324 6.27064
#
# Compressibility (1/GPa) = 0.06615141
#
# Stress axis : x y z
#
# Youngs Moduli (GPa) = 184.40866 20.10628 56.84690
#
# Poissons Ratio (x) = 0.00279 0.23486
# Poissons Ratio (y) = 0.02561 -0.05521
# Poissons Ratio (z) = 0.76187 -0.01953
#
# Static dielectric constant tensor:
#      x y z
#    x 1.912970 0.000000 0.000000 
#    y 0.000000 1.844420 0.000000 
#    z 0.000000 0.000000 1.795240 
# 
# From -- ./inp_files/31899.got.cif
#   From: 2010.05.17/outbox.cif.g08.bks.cpg/sg63_16_cif.got.tgz:31899.got - 2010.06.03 15:47:04.
