data_PCOD9472185
_publ_section_title
;
Structure prediction by ZEFSAII (Michael W. Deem and Ramdas Pophale) SiO2 
 PCOD9472185
Probable space group: C M C M
;
_chemical_formula_sum "Si O2"
_cell_formula_units_Z 80
_cell_length_a 8.508014
_cell_length_b 28.238838
_cell_length_c 18.870305
_cell_angle_alpha 90.000000
_cell_angle_beta 90.000000
_cell_angle_gamma 90.000000
_cell_volume 4533.712094
_symmetry_space_group_name_H-M "C M C M"
_symmetry_group_IT_number 63
_symmetry_cell_setting 'orthorhombic'
loop_
_space_group_symop_operation_xyz
x,y,z
-x,-y,1/2+z
x,-y,-z
-x,y,1/2-z
-x,-y,-z
x,y,1/2-z
-x,y,z
x,-y,1/2+z
1/2+x,1/2+y,z
1/2-x,1/2-y,1/2+z
1/2+x,1/2-y,-z
1/2-x,1/2+y,1/2-z
1/2-x,1/2-y,-z
1/2+x,1/2+y,1/2-z
1/2-x,1/2+y,z
1/2+x,1/2-y,1/2+z
loop_
_atom_site_type_symbol
_atom_site_label
_atom_site_fract_x
_atom_site_fract_y
_atom_site_fract_z
Si Si1 0.189869 0.458565 0.830675
Si Si2 0.189112 0.700287 0.972394
Si Si3 0.190182 0.600964 0.462878
Si Si4 0.686984 0.556339 0.604881
Si Si5 0.309925 0.847308 0.170743
O O1 0.246364 0.452338 0.750000
O O2 0.240955 0.418483 0.886658
O O3 0.243184 0.508776 0.862130
O O4 0.000000 0.458109 0.829195
O O5 0.238451 0.688327 0.891735
O O6 0.000000 0.701351 0.974105
O O7 0.250000 0.750000 0.000000
O O8 0.240418 0.654528 0.018466
O O9 0.252135 0.567159 0.525556
O O10 0.000000 0.599841 0.466192
O O11 0.500000 0.553370 0.604225
O O12 0.741895 0.601426 0.650972
O O13 0.263508 0.833266 0.250000
O O14 0.500000 0.851074 0.168263
#
# Coordination Sequence:
#
# PCOD9472185 Si02
#       5
#    16  16  16  16  16
#     4  10  20  34  52  72  97 133 172 204 237 284
#     4   9  18  33  53  75  97 124 160 202 247 293
#     4   9  19  36  54  71  95 131 173 208 239 288
#     4  11  21  31  48  76 106 132 161 201 249 296
#     4   9  18  34  54  74  98 130 168 206 244 292
#
# _framework density 17.645585000000001
#
# number of rings (size 3 to 8) (size 9 to 14) (size 15 to 20)
#    0.000    2.400    0.000    4.200    0.000    9.600 
#    0.000    1.000    0.000    1.200    0.000    0.000 
#    0.000    0.000    0.000    0.000    0.000    0.000 
#
# Total GULP energy -223164.618008 kJ/mol
# GULP energy per Si atom -5579.115450 kJ/mol
# Density = 1.760542 g / cm^3
# Si number density = 17.645585 Si / 1000 Ang^3
#
#
#
# Elastic Constant Matrix: (Units=GPa)
#
#
# Indices 1 2 3 4 5 6 
#
# 1 5.8717 16.2595 25.7594 0.0000 0.0000 0.0000
# 2 16.2595 118.9866 111.5112 0.0000 0.0000 0.0000
# 3 25.7594 111.5112 187.0873 0.0000 0.0000 0.0000
# 4 0.0000 0.0000 0.0000 17.0505 0.0000 0.0000
# 5 0.0000 0.0000 0.0000 0.0000 6.8328 0.0000
# 6 0.0000 0.0000 0.0000 0.0000 0.0000 25.2704
#
#
#
# Elastic Compliance Matrix: (Units=1/GPa)
#
#
# Indices 1 2 3 4 5 6 
#
# 1 0.433027 -0.007469 -0.055170 0.000000 0.000000 0.000000
# 2 -0.007469 0.019169 -0.010397 0.000000 0.000000 0.000000
# 3 -0.055170 -0.010397 0.019138 0.000000 0.000000 0.000000
# 4 0.000000 0.000000 0.000000 0.058649 0.000000 0.000000
# 5 0.000000 0.000000 0.000000 0.000000 0.146353 0.000000
# 6 0.000000 0.000000 0.000000 0.000000 0.000000 0.039572
#
#
# Mechanical properties :
#
#
# Convention : Reuss Voigt Hill
#
# Bulk Modulus (GPa) = 3.07445 68.77844 35.92644
# Shear Modulus (GPa) = 5.15251 20.39176 12.77213
#
# Velocity S-wave (km/s) = 1.71065 3.40314 2.69330
# Velocity P-wave (km/s) = 2.37653 7.38269 5.48416
#
# Compressibility (1/GPa) = 0.32526153
#
# Stress axis : x y z
#
# Youngs Moduli (GPa) = 2.30933 52.16870 52.25148
#
# Poissons Ratio (x) = 0.38965 2.88273
# Poissons Ratio (y) = 0.01725 0.54325
# Poissons Ratio (z) = 0.12741 0.54239
#
# Static dielectric constant tensor:
#      x y z
#    x 1.605030 0.000000 0.000000 
#    y 0.000000 1.567290 0.000000 
#    z 0.000000 0.000000 1.624510 
# 
# From -- ./inp_files/40419.got.cif
#   From: 2010.05.17/outbox.cif.g08.bks.cpg/sg63_21_cif.got.tgz:40419.got - 2010.06.03 15:47:04.
