data_PCOD9472906
_publ_section_title
;
Structure prediction by ZEFSAII (Michael W. Deem and Ramdas Pophale) SiO2 
 PCOD9472906
Probable space group: C M C M
;
_chemical_formula_sum "Si O2"
_cell_formula_units_Z 112
_cell_length_a 13.652529
_cell_length_b 14.862318
_cell_length_c 28.818123
_cell_angle_alpha 90.000000
_cell_angle_beta 90.000000
_cell_angle_gamma 90.000000
_cell_volume 5847.434258
_symmetry_space_group_name_H-M "C M C M"
_symmetry_group_IT_number 63
_symmetry_cell_setting 'orthorhombic'
loop_
_space_group_symop_operation_xyz
x,y,z
-x,-y,1/2+z
x,-y,-z
-x,y,1/2-z
-x,-y,-z
x,y,1/2-z
-x,y,z
x,-y,1/2+z
1/2+x,1/2+y,z
1/2-x,1/2-y,1/2+z
1/2+x,1/2-y,-z
1/2-x,1/2+y,1/2-z
1/2-x,1/2-y,-z
1/2+x,1/2+y,1/2-z
1/2-x,1/2+y,z
1/2+x,1/2-y,1/2+z
loop_
_atom_site_type_symbol
_atom_site_label
_atom_site_fract_x
_atom_site_fract_y
_atom_site_fract_z
Si Si1 0.113152 0.205506 0.196917
Si Si2 0.729551 0.976556 0.386607
Si Si3 0.608619 0.922692 0.303091
Si Si4 0.884355 0.213202 0.016878
Si Si5 0.616916 0.086295 0.528220
Si Si6 0.754238 0.179644 0.107088
Si Si7 0.383365 0.346178 0.084686
O O1 0.140296 0.178315 0.250000
O O2 0.112669 0.314425 0.196282
O O3 0.184770 0.178095 0.155305
O O4 0.000000 0.176700 0.188719
O O5 0.692962 0.960118 0.335059
O O6 0.663905 0.916083 0.421088
O O7 0.838016 0.937719 0.394772
O O8 0.711531 0.079946 0.398463
O O9 0.617465 0.952062 0.250000
O O10 0.500000 0.949309 0.320466
O O11 0.863444 0.317891 0.004605
O O12 0.826140 0.192558 0.063336
O O13 0.000000 0.205684 0.026437
O O14 0.863245 0.156003 0.970883
O O15 0.500000 0.077987 0.532704
O O16 0.653914 0.000000 0.500000
O O17 0.675246 0.260576 0.105844
O O18 0.500000 0.338019 0.091251
#
# Coordination Sequence:
#
# PCOD9472906 Si02
#       7
#    16  16  16  16  16  16  16
#     4   9  18  36  64  92 114 140 187 253 309 349
#     4  12  24  35  61  87 119 162 201 244 293 370
#     4   9  18  37  65  92 115 142 188 252 311 354
#     4  10  21  39  61  82 114 155 202 253 299 346
#     4  10  20  35  59  89 116 145 193 252 304 353
#     4  12  23  37  62  86 117 163 205 243 294 369
#     4  11  25  42  56  83 128 168 201 249 300 354
#
# _framework density 19.153699
#
# number of rings (size 3 to 8) (size 9 to 14) (size 15 to 20)
#    0.000    1.571    2.857    3.000    2.000    6.286 
#    0.000    1.429    0.000    1.714    0.000    0.000 
#    0.000    0.000    0.000    0.000    0.000    0.000 
#
# Total GULP energy -312668.043368 kJ/mol
# GULP energy per Si atom -5583.357917 kJ/mol
# Density = 1.911010 g / cm^3
# Si number density = 19.153699 Si / 1000 Ang^3
#
#
#
# Elastic Constant Matrix: (Units=GPa)
#
#
# Indices 1 2 3 4 5 6 
#
# 1 52.4907 -17.0575 36.4272 0.0000 0.0000 0.0000
# 2 -17.0575 29.1906 -0.7131 0.0000 0.0000 0.0000
# 3 36.4272 -0.7131 86.6291 0.0000 0.0000 0.0000
# 4 0.0000 0.0000 0.0000 21.4360 0.0000 0.0000
# 5 0.0000 0.0000 0.0000 0.0000 36.2020 0.0000
# 6 0.0000 0.0000 0.0000 0.0000 0.0000 13.6500
#
#
#
# Elastic Compliance Matrix: (Units=1/GPa)
#
#
# Indices 1 2 3 4 5 6 
#
# 1 0.036296 0.020841 -0.015091 0.000000 0.000000 0.000000
# 2 0.020841 0.046231 -0.008383 0.000000 0.000000 0.000000
# 3 -0.015091 -0.008383 0.017820 0.000000 0.000000 0.000000
# 4 0.000000 0.000000 0.000000 0.046651 0.000000 0.000000
# 5 0.000000 0.000000 0.000000 0.000000 0.027623 0.000000
# 6 0.000000 0.000000 0.000000 0.000000 0.000000 0.073260
#
#
# Mechanical properties :
#
#
# Convention : Reuss Voigt Hill
#
# Bulk Modulus (GPa) = 10.51726 22.84707 16.68217
# Shear Modulus (GPa) = 17.55369 24.23452 20.89410
#
# Velocity S-wave (km/s) = 3.03060 3.56092 3.30641
# Velocity P-wave (km/s) = 4.21295 5.37224 4.82752
#
# Compressibility (1/GPa) = 0.09508177
#
# Stress axis : x y z
#
# Youngs Moduli (GPa) = 27.55113 21.63041 56.11645
#
# Poissons Ratio (x) = -0.45080 0.84684
# Poissons Ratio (y) = -0.57419 0.47042
# Poissons Ratio (z) = 0.41577 0.18133
#
# Static dielectric constant tensor:
#      x y z
#    x 1.686640 0.000000 0.000000 
#    y 0.000000 1.676740 0.000000 
#    z 0.000000 0.000000 1.670130 
# 
# From -- ./inp_files/69380.got.cif
#   From: 2010.05.17/outbox.cif.g08.bks.cpg/sg63_35_cif.got.tgz:69380.got - 2010.06.03 15:47:04.
