data_PCOD9472564
_publ_section_title
;
Structure prediction by ZEFSAII (Michael W. Deem and Ramdas Pophale) SiO2 
 PCOD9472564
Probable space group: C M C M
;
_chemical_formula_sum "Si O2"
_cell_formula_units_Z 96
_cell_length_a 15.694575
_cell_length_b 15.359381
_cell_length_c 22.503345
_cell_angle_alpha 90.000000
_cell_angle_beta 90.000000
_cell_angle_gamma 90.000000
_cell_volume 5424.632876
_symmetry_space_group_name_H-M "C M C M"
_symmetry_group_IT_number 63
_symmetry_cell_setting 'orthorhombic'
loop_
_space_group_symop_operation_xyz
x,y,z
-x,-y,1/2+z
x,-y,-z
-x,y,1/2-z
-x,-y,-z
x,y,1/2-z
-x,y,z
x,-y,1/2+z
1/2+x,1/2+y,z
1/2-x,1/2-y,1/2+z
1/2+x,1/2-y,-z
1/2-x,1/2+y,1/2-z
1/2-x,1/2-y,-z
1/2+x,1/2+y,1/2-z
1/2-x,1/2+y,z
1/2+x,1/2-y,1/2+z
loop_
_atom_site_type_symbol
_atom_site_label
_atom_site_fract_x
_atom_site_fract_y
_atom_site_fract_z
Si Si1 0.192939 0.224682 0.370205
Si Si2 0.098143 0.826854 0.508855
Si Si3 0.685682 0.061944 0.367775
Si Si4 0.252070 0.600125 0.567134
Si Si5 0.899930 0.720768 0.750000
Si Si6 0.600388 0.012240 0.750000
Si Si7 0.905092 0.626573 0.479990
O O1 0.133556 0.191788 0.424846
O O2 0.261662 0.149918 0.359016
O O3 0.237051 0.314002 0.392737
O O4 0.141706 0.243010 0.310153
O O5 0.164100 0.887029 0.472951
O O6 0.100657 0.731567 0.477583
O O7 0.000000 0.856634 0.509659
O O8 0.614229 0.084039 0.416867
O O9 0.747137 0.987176 0.394608
O O10 0.643792 0.026923 0.308243
O O11 0.170037 0.598259 0.523804
O O12 0.889163 0.616419 0.750000
O O13 0.000000 0.740347 0.750000
O O14 0.500000 0.993060 0.750000
O O15 0.000000 0.605294 0.501981
#
# Coordination Sequence:
#
# PCOD9472564 Si02
#       7
#    16  16  16  16   8   8  16
#     4  11  21  40  61  86 121 160 200 244 296 358
#     4  10  20  38  61  90 123 161 201 246 298 356
#     4  12  22  38  62  86 119 157 198 243 300 356
#     4  11  21  38  59  89 127 155 193 245 299 357
#     4  11  23  42  62  85 118 158 200 249 300 354
#     4  11  25  40  58  91 120 150 200 253 306 364
#     4  10  20  34  59  89 120 155 192 239 302 360
#
# _framework density 17.697050000000001
#
# number of rings (size 3 to 8) (size 9 to 14) (size 15 to 20)
#    0.000    1.167    5.000    3.000    0.000    2.667 
#    0.000    2.500    0.000    0.000    0.000    2.333 
#    0.000    0.000    0.000    0.000    0.000    0.000 
#
# Total GULP energy -268184.584331 kJ/mol
# GULP energy per Si atom -5587.178840 kJ/mol
# Density = 1.765677 g / cm^3
# Si number density = 17.697050 Si / 1000 Ang^3
#
#
#
# Elastic Constant Matrix: (Units=GPa)
#
#
# Indices 1 2 3 4 5 6 
#
# 1 102.0300 40.4881 43.2772 0.0000 0.0000 0.0000
# 2 40.4881 80.4586 40.8737 0.0000 0.0000 0.0000
# 3 43.2772 40.8737 118.9878 0.0000 0.0000 0.0000
# 4 0.0000 0.0000 0.0000 20.4746 0.0000 0.0000
# 5 0.0000 0.0000 0.0000 0.0000 15.9144 0.0000
# 6 0.0000 0.0000 0.0000 0.0000 0.0000 13.8188
#
#
#
# Elastic Compliance Matrix: (Units=1/GPa)
#
#
# Indices 1 2 3 4 5 6 
#
# 1 0.013088 -0.005049 -0.003026 0.000000 0.000000 0.000000
# 2 -0.005049 0.017004 -0.004005 0.000000 0.000000 0.000000
# 3 -0.003026 -0.004005 0.010880 0.000000 0.000000 0.000000
# 4 0.000000 0.000000 0.000000 0.048841 0.000000 0.000000
# 5 0.000000 0.000000 0.000000 0.000000 0.062836 0.000000
# 6 0.000000 0.000000 0.000000 0.000000 0.000000 0.072365
#
#
# Mechanical properties :
#
#
# Convention : Reuss Voigt Hill
#
# Bulk Modulus (GPa) = 59.47662 61.19492 60.33577
# Shear Modulus (GPa) = 19.62490 21.83071 20.72781
#
# Velocity S-wave (km/s) = 3.33368 3.51605 3.42608
# Velocity P-wave (km/s) = 6.96413 7.15106 7.05821
#
# Compressibility (1/GPa) = 0.01681333
#
# Stress axis : x y z
#
# Youngs Moduli (GPa) = 76.40548 58.81015 91.90814
#
# Poissons Ratio (x) = 0.29693 0.27811
# Poissons Ratio (y) = 0.38577 0.36806
# Poissons Ratio (z) = 0.23120 0.23551
#
# Static dielectric constant tensor:
#      x y z
#    x 1.591750 0.000000 0.000000 
#    y 0.000000 1.613770 0.000000 
#    z 0.000000 0.000000 1.584140 
# 
# From -- ./inp_files/54268.got.cif
#   From: 2010.05.17/outbox.cif.g08.bks.cpg/sg63_28_cif.got.tgz:54268.got - 2010.06.03 15:47:04.
