data_PCOD9472529
_publ_section_title
;
Structure prediction by ZEFSAII (Michael W. Deem and Ramdas Pophale) SiO2 
 PCOD9472529
Probable space group: C M C M
;
_chemical_formula_sum "Si O2"
_cell_formula_units_Z 112
_cell_length_a 13.398228
_cell_length_b 19.121635
_cell_length_c 26.300709
_cell_angle_alpha 90.000000
_cell_angle_beta 90.000000
_cell_angle_gamma 90.000000
_cell_volume 6738.137113
_symmetry_space_group_name_H-M "C M C M"
_symmetry_group_IT_number 63
_symmetry_cell_setting 'orthorhombic'
loop_
_space_group_symop_operation_xyz
x,y,z
-x,-y,1/2+z
x,-y,-z
-x,y,1/2-z
-x,-y,-z
x,y,1/2-z
-x,y,z
x,-y,1/2+z
1/2+x,1/2+y,z
1/2-x,1/2-y,1/2+z
1/2+x,1/2-y,-z
1/2-x,1/2+y,1/2-z
1/2-x,1/2-y,-z
1/2+x,1/2+y,1/2-z
1/2-x,1/2+y,z
1/2+x,1/2-y,1/2+z
loop_
_atom_site_type_symbol
_atom_site_label
_atom_site_fract_x
_atom_site_fract_y
_atom_site_fract_z
Si Si1 0.883058 0.942786 0.954799
Si Si2 0.262224 0.531971 0.876058
Si Si3 0.614764 0.069863 0.534308
Si Si4 0.880667 0.855565 0.309728
Si Si5 0.116905 0.290830 0.635530
Si Si6 0.384915 0.061772 0.189838
Si Si7 0.774858 0.320027 0.530552
O O1 0.818437 0.873668 0.966199
O O2 0.000000 0.926759 0.949438
O O3 0.837820 0.980325 0.905282
O O4 0.872466 0.000000 0.000000
O O5 0.192242 0.566214 0.919427
O O6 0.321668 0.588447 0.843238
O O7 0.190219 0.487160 0.840229
O O8 0.500000 0.071791 0.551603
O O9 0.641044 0.135435 0.498955
O O10 0.627343 0.000000 0.500000
O O11 0.854262 0.858913 0.250000
O O12 0.860422 0.778881 0.332792
O O13 0.000000 0.867659 0.313800
O O14 0.128090 0.359004 0.670589
O O15 0.185103 0.300249 0.586183
O O16 0.000000 0.287079 0.619859
O O17 0.369485 0.057635 0.250000
O O18 0.500000 0.041999 0.178661
O O19 0.750000 0.250000 0.500000
#
# Coordination Sequence:
#
# PCOD9472529 Si02
#       7
#    16  16  16  16  16  16  16
#     4  11  23  39  57  81 115 153 190 227 272 330
#     4  12  19  37  56  85 111 151 183 230 279 335
#     4  11  21  36  57  82 114 148 184 228 275 330
#     4  10  22  38  57  83 111 144 189 237 283 330
#     4  10  20  36  58  81 111 143 181 233 285 329
#     4  10  20  34  57  86 111 139 182 234 284 332
#     4  12  22  37  55  84 114 148 187 224 273 337
#
# _framework density 16.621804000000001
#
# number of rings (size 3 to 8) (size 9 to 14) (size 15 to 20)
#    0.000    1.143    4.286    3.000    0.000    5.143 
#    0.000    0.000    0.000    0.000    0.000    0.000 
#    0.000    0.000    0.000    0.000    0.000    0.000 
#
# Total GULP energy -312822.991368 kJ/mol
# GULP energy per Si atom -5586.124846 kJ/mol
# Density = 1.658397 g / cm^3
# Si number density = 16.621804 Si / 1000 Ang^3
#
#
#
# Elastic Constant Matrix: (Units=GPa)
#
#
# Indices 1 2 3 4 5 6 
#
# 1 94.1856 46.8191 63.5964 0.0000 0.0000 0.0000
# 2 46.8191 103.7016 58.4050 0.0000 0.0000 0.0000
# 3 63.5964 58.4050 113.9743 0.0000 0.0000 0.0000
# 4 0.0000 0.0000 0.0000 28.5551 0.0000 0.0000
# 5 0.0000 0.0000 0.0000 0.0000 32.5198 0.0000
# 6 0.0000 0.0000 0.0000 0.0000 0.0000 22.3218
#
#
#
# Elastic Compliance Matrix: (Units=1/GPa)
#
#
# Indices 1 2 3 4 5 6 
#
# 1 0.017872 -0.003447 -0.008206 0.000000 0.000000 0.000000
# 2 -0.003447 0.014220 -0.005363 0.000000 0.000000 0.000000
# 3 -0.008206 -0.005363 0.016101 0.000000 0.000000 0.000000
# 4 0.000000 0.000000 0.000000 0.035020 0.000000 0.000000
# 5 0.000000 0.000000 0.000000 0.000000 0.030750 0.000000
# 6 0.000000 0.000000 0.000000 0.000000 0.000000 0.044799
#
#
# Mechanical properties :
#
#
# Convention : Reuss Voigt Hill
#
# Bulk Modulus (GPa) = 70.62105 72.16693 71.39399
# Shear Modulus (GPa) = 25.31453 26.21541 25.76497
#
# Velocity S-wave (km/s) = 3.90676 3.97567 3.94136
# Velocity P-wave (km/s) = 7.93282 8.03653 7.98484
#
# Compressibility (1/GPa) = 0.01416008
#
# Stress axis : x y z
#
# Youngs Moduli (GPa) = 55.95483 70.32294 62.10787
#
# Poissons Ratio (x) = 0.24242 0.50964
# Poissons Ratio (y) = 0.19289 0.33311
# Poissons Ratio (z) = 0.45915 0.37717
#
# Static dielectric constant tensor:
#      x y z
#    x 1.553670 0.000000 0.000000 
#    y 0.000000 1.535830 0.000000 
#    z 0.000000 0.000000 1.595380 
# 
# From -- ./inp_files/69393.got.cif
#   From: 2010.05.17/outbox.cif.g08.bks.cpg/sg63_35_cif.got.tgz:69393.got - 2010.06.03 15:47:04.
