data_PCOD9472458
_publ_section_title
;
Structure prediction by ZEFSAII (Michael W. Deem and Ramdas Pophale) SiO2 
 PCOD9472458
Probable space group: C M C M
;
_chemical_formula_sum "Si O2"
_cell_formula_units_Z 72
_cell_length_a 17.684692
_cell_length_b 24.780111
_cell_length_c 7.562721
_cell_angle_alpha 90.000000
_cell_angle_beta 90.000000
_cell_angle_gamma 90.000000
_cell_volume 3314.200869
_symmetry_space_group_name_H-M "C M C M"
_symmetry_group_IT_number 63
_symmetry_cell_setting 'orthorhombic'
loop_
_space_group_symop_operation_xyz
x,y,z
-x,-y,1/2+z
x,-y,-z
-x,y,1/2-z
-x,-y,-z
x,y,1/2-z
-x,y,z
x,-y,1/2+z
1/2+x,1/2+y,z
1/2-x,1/2-y,1/2+z
1/2+x,1/2-y,-z
1/2-x,1/2+y,1/2-z
1/2-x,1/2-y,-z
1/2+x,1/2+y,1/2-z
1/2-x,1/2+y,z
1/2+x,1/2-y,1/2+z
loop_
_atom_site_type_symbol
_atom_site_label
_atom_site_fract_x
_atom_site_fract_y
_atom_site_fract_z
Si Si1 0.585453 0.437374 0.539350
Si Si2 0.416369 0.258252 0.035590
Si Si3 0.366958 0.137956 0.541492
Si Si4 0.200483 0.154741 0.545152
Si Si5 0.500000 0.063155 0.962801
O O1 0.601462 0.500000 0.500000
O O2 0.586067 0.430043 0.750000
O O3 0.500000 0.425882 0.474003
O O4 0.646941 0.397367 0.461174
O O5 0.415544 0.260169 0.250000
O O6 0.500000 0.276803 0.978010
O O7 0.349013 0.296308 0.967786
O O8 0.403581 0.196851 0.979513
O O9 0.358697 0.125603 0.750000
O O10 0.282315 0.142078 0.464948
O O11 0.425075 0.093698 0.468351
O O12 0.214333 0.169611 0.750000
O O13 0.500000 0.070217 0.750000
O O14 0.500000 0.000000 0.000000
#
# Coordination Sequence:
#
# PCOD9472458 Si02
#       5
#    16  16  16  16   8
#     4  10  21  37  57  81 111 149 189 230 280 337
#     4  10  20  34  55  83 115 150 187 229 285 345
#     4  10  21  38  58  81 112 148 188 237 289 340
#     4  10  21  36  56  84 116 149 188 235 287 343
#     4  10  22  40  60  82 108 146 193 240 289 340
#
# _framework density 21.724692999999998
#
# number of rings (size 3 to 8) (size 9 to 14) (size 15 to 20)
#    0.000    2.000    1.111    2.000    0.000    5.778 
#    0.000    2.222    0.000    0.000    0.000    0.000 
#    0.000    0.000    0.000    0.000    0.000    0.000 
#
# Total GULP energy -201139.093224 kJ/mol
# GULP energy per Si atom -5587.197034 kJ/mol
# Density = 2.167525 g / cm^3
# Si number density = 21.724693 Si / 1000 Ang^3
#
#
#
# Elastic Constant Matrix: (Units=GPa)
#
#
# Indices 1 2 3 4 5 6 
#
# 1 181.0617 94.6275 -0.0689 0.0000 0.0000 0.0000
# 2 94.6275 131.3140 -17.1359 0.0000 0.0000 0.0000
# 3 -0.0689 -17.1359 51.6065 0.0000 0.0000 0.0000
# 4 0.0000 0.0000 0.0000 24.7126 0.0000 0.0000
# 5 0.0000 0.0000 0.0000 0.0000 19.7742 0.0000
# 6 0.0000 0.0000 0.0000 0.0000 0.0000 250.2671
#
#
#
# Elastic Compliance Matrix: (Units=1/GPa)
#
#
# Indices 1 2 3 4 5 6 
#
# 1 0.009106 -0.006858 -0.002265 0.000000 0.000000 0.000000
# 2 -0.006858 0.013125 0.004349 0.000000 0.000000 0.000000
# 3 -0.002265 0.004349 0.020818 0.000000 0.000000 0.000000
# 4 0.000000 0.000000 0.000000 0.040465 0.000000 0.000000
# 5 0.000000 0.000000 0.000000 0.000000 0.050571 0.000000
# 6 0.000000 0.000000 0.000000 0.000000 0.000000 0.003996
#
#
# Mechanical properties :
#
#
# Convention : Reuss Voigt Hill
#
# Bulk Modulus (GPa) = 29.84919 57.64752 43.74835
# Shear Modulus (GPa) = 31.48704 78.05473 54.77088
#
# Velocity S-wave (km/s) = 3.81118 6.00059 5.02654
# Velocity P-wave (km/s) = 5.75642 8.63727 7.33958
#
# Compressibility (1/GPa) = 0.03350175
#
# Stress axis : x y z
#
# Youngs Moduli (GPa) = 109.81707 76.19318 48.03442
#
# Poissons Ratio (x) = 0.52250 0.10879
# Poissons Ratio (y) = 0.75308 -0.20889
# Poissons Ratio (z) = 0.24872 -0.33135
#
# Static dielectric constant tensor:
#      x y z
#    x 1.817330 0.000000 0.000000 
#    y 0.000000 1.730580 0.000000 
#    z 0.000000 0.000000 1.799480 
# 
# From -- ./inp_files/4600.got.cif
#   From: 2010.05.17/outbox.cif.g08.bks.cpg/sg63_3_cif.got.tgz:4600.got - 2010.06.03 15:47:04.
