data_PCOD9472511
_publ_section_title
;
Structure prediction by ZEFSAII (Michael W. Deem and Ramdas Pophale) SiO2 
 PCOD9472511
Probable space group: C M C M
;
_chemical_formula_sum "Si O2"
_cell_formula_units_Z 88
_cell_length_a 28.056391
_cell_length_b 19.903235
_cell_length_c 8.870584
_cell_angle_alpha 90.000000
_cell_angle_beta 90.000000
_cell_angle_gamma 90.000000
_cell_volume 4953.448920
_symmetry_space_group_name_H-M "C M C M"
_symmetry_group_IT_number 63
_symmetry_cell_setting 'orthorhombic'
loop_
_space_group_symop_operation_xyz
x,y,z
-x,-y,1/2+z
x,-y,-z
-x,y,1/2-z
-x,-y,-z
x,y,1/2-z
-x,y,z
x,-y,1/2+z
1/2+x,1/2+y,z
1/2-x,1/2-y,1/2+z
1/2+x,1/2-y,-z
1/2-x,1/2+y,1/2-z
1/2-x,1/2-y,-z
1/2+x,1/2+y,1/2-z
1/2-x,1/2+y,z
1/2+x,1/2-y,1/2+z
loop_
_atom_site_type_symbol
_atom_site_label
_atom_site_fract_x
_atom_site_fract_y
_atom_site_fract_z
Si Si1 0.912583 0.669358 0.569635
Si Si2 0.371099 0.427772 0.430424
Si Si3 0.055503 0.189919 0.570268
Si Si4 0.684944 0.194763 0.070320
Si Si5 0.207867 0.160709 0.070103
Si Si6 0.500000 0.073908 0.931891
O O1 0.908587 0.668360 0.750000
O O2 0.929438 0.742956 0.516162
O O3 0.860984 0.658035 0.496305
O O4 0.953033 0.616113 0.523058
O O5 0.381632 0.500000 0.500000
O O6 0.368941 0.432292 0.250000
O O7 0.411235 0.372700 0.471344
O O8 0.321674 0.398692 0.494725
O O9 0.061648 0.201954 0.750000
O O10 0.000000 0.175493 0.542218
O O11 0.680027 0.202555 0.250000
O O12 0.735539 0.159319 0.038995
O O13 0.688770 0.268779 0.996775
O O14 0.200950 0.160543 0.250000
O O15 0.500000 0.069903 0.750000
O O16 0.500000 0.000000 0.000000
#
# Coordination Sequence:
#
# PCOD9472511 Si02
#       6
#    16  16  16  16  16   8
#     4  11  21  36  59  88 119 150 192 240 286 342
#     4  11  23  38  57  82 117 158 201 243 293 351
#     4  10  21  37  58  85 115 151 197 242 289 345
#     4  10  20  34  56  87 116 147 189 236 289 343
#     4  10  20  35  56  83 116 150 190 240 290 340
#     4  10  24  42  60  88 119 152 191 232 289 351
#
# _framework density 17.7654
#
# number of rings (size 3 to 8) (size 9 to 14) (size 15 to 20)
#    0.000    1.636    2.727    2.182    0.000    4.727 
#    0.000    0.909    0.000    2.182    0.000    0.000 
#    0.000    0.000    0.000    0.000    0.000    0.000 
#
# Total GULP energy -245786.732002 kJ/mol
# GULP energy per Si atom -5586.062091 kJ/mol
# Density = 1.772496 g / cm^3
# Si number density = 17.765400 Si / 1000 Ang^3
#
#
#
# Elastic Constant Matrix: (Units=GPa)
#
#
# Indices 1 2 3 4 5 6 
#
# 1 147.4254 68.5212 55.6781 0.0000 0.0000 0.0000
# 2 68.5212 117.6038 47.8900 0.0000 0.0000 0.0000
# 3 55.6781 47.8900 56.8111 0.0000 0.0000 0.0000
# 4 0.0000 0.0000 0.0000 32.4702 0.0000 0.0000
# 5 0.0000 0.0000 0.0000 0.0000 29.5623 0.0000
# 6 0.0000 0.0000 0.0000 0.0000 0.0000 26.3289
#
#
#
# Elastic Compliance Matrix: (Units=1/GPa)
#
#
# Indices 1 2 3 4 5 6 
#
# 1 0.011517 -0.003219 -0.008574 0.000000 0.000000 0.000000
# 2 -0.003219 0.013847 -0.008518 0.000000 0.000000 0.000000
# 3 -0.008574 -0.008518 0.033186 0.000000 0.000000 0.000000
# 4 0.000000 0.000000 0.000000 0.030797 0.000000 0.000000
# 5 0.000000 0.000000 0.000000 0.000000 0.033827 0.000000
# 6 0.000000 0.000000 0.000000 0.000000 0.000000 0.037981
#
#
# Mechanical properties :
#
#
# Convention : Reuss Voigt Hill
#
# Bulk Modulus (GPa) = 55.77841 74.00208 64.89025
# Shear Modulus (GPa) = 24.06682 27.65568 25.86125
#
# Velocity S-wave (km/s) = 3.68462 3.94980 3.81951
# Velocity P-wave (km/s) = 7.04040 7.90866 7.48713
#
# Compressibility (1/GPa) = 0.01792808
#
# Stress axis : x y z
#
# Youngs Moduli (GPa) = 86.82448 72.21598 30.13326
#
# Poissons Ratio (x) = 0.23247 0.25837
# Poissons Ratio (y) = 0.27949 0.25668
# Poissons Ratio (z) = 0.74445 0.61514
#
# Static dielectric constant tensor:
#      x y z
#    x 1.625590 0.000000 0.000000 
#    y 0.000000 1.567240 0.000000 
#    z 0.000000 0.000000 1.591580 
# 
# From -- ./inp_files/14197.got.cif
#   From: 2010.05.17/outbox.cif.g08.bks.cpg/sg63_8_cif.got.tgz:14197.got - 2010.06.03 15:47:04.
