data_PCOD9472359
_publ_section_title
;
Structure prediction by ZEFSAII (Michael W. Deem and Ramdas Pophale) SiO2 
 PCOD9472359
Probable space group: C M C M
;
_chemical_formula_sum "Si O2"
_cell_formula_units_Z 88
_cell_length_a 19.753134
_cell_length_b 28.342772
_cell_length_c 8.492603
_cell_angle_alpha 90.000000
_cell_angle_beta 90.000000
_cell_angle_gamma 90.000000
_cell_volume 4754.656599
_symmetry_space_group_name_H-M "C M C M"
_symmetry_group_IT_number 63
_symmetry_cell_setting 'orthorhombic'
loop_
_space_group_symop_operation_xyz
x,y,z
-x,-y,1/2+z
x,-y,-z
-x,y,1/2-z
-x,-y,-z
x,y,1/2-z
-x,y,z
x,-y,1/2+z
1/2+x,1/2+y,z
1/2-x,1/2-y,1/2+z
1/2+x,1/2-y,-z
1/2-x,1/2+y,1/2-z
1/2-x,1/2-y,-z
1/2+x,1/2+y,1/2-z
1/2-x,1/2+y,z
1/2+x,1/2-y,1/2+z
loop_
_atom_site_type_symbol
_atom_site_label
_atom_site_fract_x
_atom_site_fract_y
_atom_site_fract_z
Si Si1 0.862175 0.096037 0.562214
Si Si2 0.317049 0.694496 0.065543
Si Si3 0.176578 0.652225 0.440248
Si Si4 0.576707 0.770380 0.560464
Si Si5 0.000000 0.052874 0.438954
Si Si6 0.720811 0.051295 0.936796
O O1 0.860501 0.105790 0.750000
O O2 0.849204 0.143442 0.465717
O O3 0.933392 0.076284 0.509788
O O4 0.800340 0.060511 0.526393
O O5 0.312766 0.705595 0.250000
O O6 0.240204 0.685168 0.004708
O O7 0.367443 0.731819 0.987787
O O8 0.180526 0.650974 0.250000
O O9 0.108224 0.679106 0.487685
O O10 0.184780 0.598711 0.498971
O O11 0.573680 0.769835 0.750000
O O12 0.500000 0.762095 0.501190
O O13 0.000000 0.055208 0.250000
O O14 0.000000 0.000000 0.500000
O O15 0.712924 0.051007 0.750000
O O16 0.699782 0.000000 0.000000
#
# Coordination Sequence:
#
# PCOD9472359 Si02
#       6
#    16  16  16  16   8  16
#     4  10  21  36  53  74 103 139 179 222 267 317
#     4  10  20  34  54  79 107 141 181 225 268 316
#     4   9  19  36  56  79 108 142 180 223 270 320
#     4  10  21  36  55  79 109 145 181 221 272 327
#     4  12  24  36  50  70 100 140 182 224 271 318
#     4  10  20  34  56  82 106 135 173 219 269 321
#
# _framework density 18.508171000000001
#
# number of rings (size 3 to 8) (size 9 to 14) (size 15 to 20)
#    0.000    2.000    0.000    3.545    1.273    5.455 
#    0.000    0.000    0.000    0.545    0.000    0.000 
#    0.000    0.000    0.000    0.000    0.000    0.000 
#
# Total GULP energy -245439.739007 kJ/mol
# GULP energy per Si atom -5578.175887 kJ/mol
# Density = 1.846605 g / cm^3
# Si number density = 18.508171 Si / 1000 Ang^3
#
#
#
# Elastic Constant Matrix: (Units=GPa)
#
#
# Indices 1 2 3 4 5 6 
#
# 1 68.1454 53.8026 13.4539 0.0000 0.0000 0.0000
# 2 53.8026 102.0162 15.2130 0.0000 0.0000 0.0000
# 3 13.4539 15.2130 23.9194 0.0000 0.0000 0.0000
# 4 0.0000 0.0000 0.0000 27.8197 0.0000 0.0000
# 5 0.0000 0.0000 0.0000 0.0000 16.7158 0.0000
# 6 0.0000 0.0000 0.0000 0.0000 0.0000 -3.8985
#
#
#
# Elastic Compliance Matrix: (Units=1/GPa)
#
#
# Indices 1 2 3 4 5 6 
#
# 1 0.026036 -0.012757 -0.006531 0.000000 0.000000 0.000000
# 2 -0.012757 0.017080 -0.003688 0.000000 0.000000 0.000000
# 3 -0.006531 -0.003688 0.047826 0.000000 0.000000 0.000000
# 4 0.000000 0.000000 0.000000 0.035946 0.000000 0.000000
# 5 0.000000 0.000000 0.000000 0.000000 0.059824 0.000000
# 6 0.000000 0.000000 0.000000 0.000000 0.000000 -0.256510
#
#
# Mechanical properties :
#
#
# Convention : Reuss Voigt Hill
#
# Bulk Modulus (GPa) = 22.22678 39.89114 31.05896
# Shear Modulus (GPa) = -564.98068 15.56817 -274.70626
#
# Velocity S-wave (km/s) = -17.49065 2.90341 -12.19617
# Velocity P-wave (km/s) = 19.89628 5.73060 13.47260
#
# Compressibility (1/GPa) = 0.04499076
#
# Stress axis : x y z
#
# Youngs Moduli (GPa) = 38.40810 58.54639 20.90926
#
# Poissons Ratio (x) = 0.74690 0.13655
# Poissons Ratio (y) = 0.48999 0.07711
# Poissons Ratio (z) = 0.25083 0.21590
#
# Static dielectric constant tensor:
#      x y z
#    x 1.679480 0.000000 0.000000 
#    y 0.000000 1.622410 0.000000 
#    z 0.000000 0.000000 1.621450 
# 
# From -- ./inp_files/6848.got.cif
#   From: 2010.05.17/outbox.cif.g08.bks.cpg/sg63_4_cif.got.tgz:6848.got - 2010.06.03 15:47:04.
