data_PCOD9472084
_publ_section_title
;
Structure prediction by ZEFSAII (Michael W. Deem and Ramdas Pophale) SiO2 
 PCOD9472084
Probable space group: C M C M
;
_chemical_formula_sum "Si O2"
_cell_formula_units_Z 96
_cell_length_a 7.709556
_cell_length_b 22.231271
_cell_length_c 23.985820
_cell_angle_alpha 90.000000
_cell_angle_beta 90.000000
_cell_angle_gamma 90.000000
_cell_volume 4111.007133
_symmetry_space_group_name_H-M "C M C M"
_symmetry_group_IT_number 63
_symmetry_cell_setting 'orthorhombic'
loop_
_space_group_symop_operation_xyz
x,y,z
-x,-y,1/2+z
x,-y,-z
-x,y,1/2-z
-x,-y,-z
x,y,1/2-z
-x,y,z
x,-y,1/2+z
1/2+x,1/2+y,z
1/2-x,1/2-y,1/2+z
1/2+x,1/2-y,-z
1/2-x,1/2+y,1/2-z
1/2-x,1/2-y,-z
1/2+x,1/2+y,1/2-z
1/2-x,1/2+y,z
1/2+x,1/2-y,1/2+z
loop_
_atom_site_type_symbol
_atom_site_label
_atom_site_fract_x
_atom_site_fract_y
_atom_site_fract_z
Si Si1 0.294960 0.595660 0.687254
Si Si2 0.289703 0.152180 0.313359
Si Si3 0.790426 0.471308 0.873257
Si Si4 0.698605 0.913347 0.982471
Si Si5 0.206305 0.340008 0.079637
Si Si6 0.797467 0.791677 0.924362
O O1 0.222079 0.597353 0.750000
O O2 0.500000 0.603342 0.691054
O O3 0.259877 0.531801 0.657745
O O4 0.229720 0.645419 0.644144
O O5 0.233759 0.161208 0.250000
O O6 0.500000 0.154901 0.314997
O O7 0.237930 0.086111 0.335991
O O8 0.218014 0.199046 0.357918
O O9 0.725557 0.459030 0.936657
O O10 0.000000 0.470675 0.877064
O O11 0.500000 0.932115 0.992734
O O12 0.700928 0.848438 0.951064
O O13 0.778689 0.894380 0.041606
O O14 0.274514 0.274459 0.062638
O O15 0.000000 0.337910 0.069289
O O16 0.000000 0.796052 0.939852
#
# Coordination Sequence:
#
# PCOD9472084 Si02
#       6
#    16  16  16  16  16  16
#     4  11  25  41  56  78 109 145 183 224 272 322
#     4   9  18  33  54  79 107 144 187 227 272 326
#     4   9  18  35  59  82 105 137 178 223 270 323
#     4   9  19  37  60  85 111 141 179 221 269 325
#     4  10  22  39  58  80 109 147 186 222 263 319
#     4  10  20  33  53  83 114 144 179 222 274 322
#
# _framework density 23.351941
#
# number of rings (size 3 to 8) (size 9 to 14) (size 15 to 20)
#    0.000    2.333    0.000    3.000    0.000    8.333 
#    0.000    6.667    0.000    0.000    0.000    0.000 
#    0.000    0.000    0.000    0.000    0.000    0.000 
#
# Total GULP energy -268176.697292 kJ/mol
# GULP energy per Si atom -5587.014527 kJ/mol
# Density = 2.329879 g / cm^3
# Si number density = 23.351941 Si / 1000 Ang^3
#
#
#
# Elastic Constant Matrix: (Units=GPa)
#
#
# Indices 1 2 3 4 5 6 
#
# 1 46.9808 5.5687 -1.6631 0.0000 0.0000 0.0000
# 2 5.5687 98.0581 36.3199 0.0000 0.0000 0.0000
# 3 -1.6631 36.3199 129.6020 0.0000 0.0000 0.0000
# 4 0.0000 0.0000 0.0000 19.0166 0.0000 0.0000
# 5 0.0000 0.0000 0.0000 0.0000 16.7696 0.0000
# 6 0.0000 0.0000 0.0000 0.0000 0.0000 17.7563
#
#
#
# Elastic Compliance Matrix: (Units=1/GPa)
#
#
# Indices 1 2 3 4 5 6 
#
# 1 0.021485 -0.001475 0.000689 0.000000 0.000000 0.000000
# 2 -0.001475 0.011481 -0.003236 0.000000 0.000000 0.000000
# 3 0.000689 -0.003236 0.008632 0.000000 0.000000 0.000000
# 4 0.000000 0.000000 0.000000 0.052586 0.000000 0.000000
# 5 0.000000 0.000000 0.000000 0.000000 0.059632 0.000000
# 6 0.000000 0.000000 0.000000 0.000000 0.000000 0.056318
#
#
# Mechanical properties :
#
#
# Convention : Reuss Voigt Hill
#
# Bulk Modulus (GPa) = 29.80463 39.45467 34.62965
# Shear Modulus (GPa) = 21.79967 26.33617 24.06792
#
# Velocity S-wave (km/s) = 3.05868 3.36191 3.21387
# Velocity P-wave (km/s) = 5.02643 5.65705 5.35104
#
# Compressibility (1/GPa) = 0.03355184
#
# Stress axis : x y z
#
# Youngs Moduli (GPa) = 46.54504 87.10415 115.85194
#
# Poissons Ratio (x) = 0.12851 -0.07984
# Poissons Ratio (y) = 0.06867 0.37493
# Poissons Ratio (z) = -0.03208 0.28189
#
# Static dielectric constant tensor:
#      x y z
#    x 1.875820 0.000000 0.000000 
#    y 0.000000 1.872520 0.000000 
#    z 0.000000 0.000000 1.931020 
# 
# From -- ./inp_files/59832.got.cif
#   From: 2010.05.17/outbox.cif.g08.bks.cpg/sg63_30_cif.got.tgz:59832.got - 2010.06.03 15:47:04.
