data_PCOD9472820
_publ_section_title
;
Structure prediction by ZEFSAII (Michael W. Deem and Ramdas Pophale) SiO2 
 PCOD9472820
Probable space group: C M C M
;
_chemical_formula_sum "Si O2"
_cell_formula_units_Z 116
_cell_length_a 28.701647
_cell_length_b 23.393495
_cell_length_c 8.618491
_cell_angle_alpha 90.000000
_cell_angle_beta 90.000000
_cell_angle_gamma 90.000000
_cell_volume 5786.729232
_symmetry_space_group_name_H-M "C M C M"
_symmetry_group_IT_number 63
_symmetry_cell_setting 'orthorhombic'
loop_
_space_group_symop_operation_xyz
x,y,z
-x,-y,1/2+z
x,-y,-z
-x,y,1/2-z
-x,-y,-z
x,y,1/2-z
-x,y,z
x,-y,1/2+z
1/2+x,1/2+y,z
1/2-x,1/2-y,1/2+z
1/2+x,1/2-y,-z
1/2-x,1/2+y,1/2-z
1/2-x,1/2-y,-z
1/2+x,1/2+y,1/2-z
1/2-x,1/2+y,z
1/2+x,1/2-y,1/2+z
loop_
_atom_site_type_symbol
_atom_site_label
_atom_site_fract_x
_atom_site_fract_y
_atom_site_fract_z
Si Si1 0.447691 0.674367 0.564335
Si Si2 0.581959 0.083529 0.433232
Si Si3 0.800406 0.269334 0.063659
Si Si4 0.816179 0.603852 0.063427
Si Si5 0.500000 0.000000 0.000000
Si Si6 0.219086 0.939036 0.434664
Si Si7 0.852191 0.153757 0.435483
Si Si8 0.945071 0.699199 0.575008
O O1 0.445488 0.677020 0.750000
O O2 0.500000 0.654417 0.520576
O O3 0.403480 0.640630 0.499871
O O4 0.441716 0.737750 0.494037
O O5 0.575166 0.071402 0.250000
O O6 0.635316 0.073089 0.480567
O O7 0.541550 0.048663 0.518345
O O8 0.575593 0.150642 0.466331
O O9 0.797882 0.273860 0.250000
O O10 0.836072 0.218335 0.022669
O O11 0.750000 0.250000 0.000000
O O12 0.814586 0.330529 0.995025
O O13 0.813773 0.604209 0.250000
O O14 0.771124 0.573326 0.994718
O O15 0.218874 0.939428 0.250000
O O16 0.185765 0.889215 0.496570
O O17 0.203443 0.000000 0.500000
O O18 0.852164 0.150026 0.250000
O O19 0.924985 0.697059 0.750000
O O20 0.000000 0.687017 0.585240
#
# Coordination Sequence:
#
# PCOD9472820 Si02
#       8
#    16  16  16  16   4  16  16  16
#     4  10  21  37  61  94 131 169 208 251 305 372
#     4  11  25  43  63  84 114 157 210 270 331 390
#     4  11  22  37  62  96 133 171 211 265 327 393
#     4  11  24  42  64  94 127 165 213 269 330 395
#     4  12  26  44  64  90 114 164 224 290 342 396
#     4  12  26  45  68  93 125 166 212 260 314 379
#     4  11  23  40  65  97 133 171 213 261 316 380
#     4  10  20  35  57  85 118 157 202 255 313 376
#
# _framework density 20.045866
#
# number of rings (size 3 to 8) (size 9 to 14) (size 15 to 20)
#    0.000    1.103    2.069    4.345    0.966    7.448 
#    0.000    0.000    0.000    0.414    0.000    0.000 
#    0.000    0.000    0.000    0.000    0.000    0.000 
#
# Total GULP energy -323788.876546 kJ/mol
# GULP energy per Si atom -5582.566837 kJ/mol
# Density = 2.000024 g / cm^3
# Si number density = 20.045866 Si / 1000 Ang^3
#
#
#
# Elastic Constant Matrix: (Units=GPa)
#
#
# Indices 1 2 3 4 5 6 
#
# 1 151.5805 16.7383 34.8034 0.0000 0.0000 0.0000
# 2 16.7383 50.8646 12.4097 0.0000 0.0000 0.0000
# 3 34.8034 12.4097 54.5983 0.0000 0.0000 0.0000
# 4 0.0000 0.0000 0.0000 16.7862 0.0000 0.0000
# 5 0.0000 0.0000 0.0000 0.0000 22.1187 0.0000
# 6 0.0000 0.0000 0.0000 0.0000 0.0000 8.2396
#
#
#
# Elastic Compliance Matrix: (Units=1/GPa)
#
#
# Indices 1 2 3 4 5 6 
#
# 1 0.007826 -0.001438 -0.004662 0.000000 0.000000 0.000000
# 2 -0.001438 0.021079 -0.003874 0.000000 0.000000 0.000000
# 3 -0.004662 -0.003874 0.022168 0.000000 0.000000 0.000000
# 4 0.000000 0.000000 0.000000 0.059573 0.000000 0.000000
# 5 0.000000 0.000000 0.000000 0.000000 0.045211 0.000000
# 6 0.000000 0.000000 0.000000 0.000000 0.000000 0.121365
#
#
# Mechanical properties :
#
#
# Convention : Reuss Voigt Hill
#
# Bulk Modulus (GPa) = 32.12942 42.77181 37.45061
# Shear Modulus (GPa) = 16.25782 22.30170 19.27976
#
# Velocity S-wave (km/s) = 2.85095 3.33908 3.10463
# Velocity P-wave (km/s) = 5.18652 6.02074 5.61913
#
# Compressibility (1/GPa) = 0.03112412
#
# Stress axis : x y z
#
# Youngs Moduli (GPa) = 127.77313 47.44168 45.11015
#
# Poissons Ratio (x) = 0.06822 0.21030
# Poissons Ratio (y) = 0.18374 0.17477
# Poissons Ratio (z) = 0.59568 0.18380
#
# Static dielectric constant tensor:
#      x y z
#    x 1.738890 0.000000 0.000000 
#    y 0.000000 1.609930 0.000000 
#    z 0.000000 0.000000 1.701070 
# 
# From -- ./inp_files/12945.got.cif
#   From: 2010.05.17/outbox.cif.g08.bks.cpg/sg63_7_cif.got.tgz:12945.got - 2010.06.03 15:47:04.
