data_PCOD9472304
_publ_section_title
;
Structure prediction by ZEFSAII (Michael W. Deem and Ramdas Pophale) SiO2 
 PCOD9472304
Probable space group: C M C M
;
_chemical_formula_sum "Si O2"
_cell_formula_units_Z 96
_cell_length_a 20.230480
_cell_length_b 30.466209
_cell_length_c 8.739641
_cell_angle_alpha 90.000000
_cell_angle_beta 90.000000
_cell_angle_gamma 90.000000
_cell_volume 5386.643050
_symmetry_space_group_name_H-M "C M C M"
_symmetry_group_IT_number 63
_symmetry_cell_setting 'orthorhombic'
loop_
_space_group_symop_operation_xyz
x,y,z
-x,-y,1/2+z
x,-y,-z
-x,y,1/2-z
-x,-y,-z
x,y,1/2-z
-x,y,z
x,-y,1/2+z
1/2+x,1/2+y,z
1/2-x,1/2-y,1/2+z
1/2+x,1/2-y,-z
1/2-x,1/2+y,1/2-z
1/2-x,1/2-y,-z
1/2+x,1/2+y,1/2-z
1/2-x,1/2+y,z
1/2+x,1/2-y,1/2+z
loop_
_atom_site_type_symbol
_atom_site_label
_atom_site_fract_x
_atom_site_fract_y
_atom_site_fract_z
Si Si1 0.715391 0.450864 0.933933
Si Si2 0.070646 0.950536 0.934573
Si Si3 0.075908 0.671193 0.430341
Si Si4 0.301735 0.124533 0.932925
Si Si5 0.211254 0.207964 0.567158
Si Si6 0.574741 0.731598 0.066954
O O1 0.719012 0.452355 0.750000
O O2 0.642259 0.432188 0.979420
O O3 0.720243 0.500000 0.000000
O O4 0.771128 0.419686 0.000853
O O5 0.070638 0.952597 0.750000
O O6 0.000000 0.929783 0.981794
O O7 0.070117 0.000000 0.000000
O O8 0.087797 0.678494 0.250000
O O9 0.127934 0.637131 0.496532
O O10 0.083376 0.717714 0.516136
O O11 0.000000 0.656941 0.450162
O O12 0.306340 0.122286 0.750000
O O13 0.252374 0.164588 0.973737
O O14 0.209837 0.212227 0.750000
O O15 0.250000 0.250000 0.500000
O O16 0.136579 0.206471 0.504903
O O17 0.578413 0.728695 0.250000
O O18 0.500000 0.718210 0.019442
#
# Coordination Sequence:
#
# PCOD9472304 Si02
#       6
#    16  16  16  16  16  16
#     4  10  20  35  56  80 109 144 183 230 278 329
#     4   8  14  26  46  72  99 129 168 213 261 311
#     4  10  20  34  55  82 109 140 180 224 271 327
#     4  11  23  37  55  81 111 145 184 227 275 329
#     4  11  22  35  54  79 110 146 184 228 275 326
#     4  10  20  34  53  78 110 148 187 227 274 328
#
# _framework density 17.821860000000001
#
# number of rings (size 3 to 8) (size 9 to 14) (size 15 to 20)
#    0.000    2.000    1.667    2.500    0.000    4.667 
#    0.000    0.833    0.000    3.500    0.000    0.000 
#    0.000    0.000    0.000    0.000    0.000    0.000 
#
# Total GULP energy -267782.712197 kJ/mol
# GULP energy per Si atom -5578.806504 kJ/mol
# Density = 1.778130 g / cm^3
# Si number density = 17.821860 Si / 1000 Ang^3
#
#
#
# Elastic Constant Matrix: (Units=GPa)
#
#
# Indices 1 2 3 4 5 6 
#
# 1 111.5934 32.6185 37.1295 0.0000 0.0000 0.0000
# 2 32.6185 48.5879 22.7827 0.0000 0.0000 0.0000
# 3 37.1295 22.7827 40.6674 0.0000 0.0000 0.0000
# 4 0.0000 0.0000 0.0000 22.1949 0.0000 0.0000
# 5 0.0000 0.0000 0.0000 0.0000 30.2819 0.0000
# 6 0.0000 0.0000 0.0000 0.0000 0.0000 15.8951
#
#
#
# Elastic Compliance Matrix: (Units=1/GPa)
#
#
# Indices 1 2 3 4 5 6 
#
# 1 0.013551 -0.004470 -0.009868 0.000000 0.000000 0.000000
# 2 -0.004470 0.029388 -0.012383 0.000000 0.000000 0.000000
# 3 -0.009868 -0.012383 0.040536 0.000000 0.000000 0.000000
# 4 0.000000 0.000000 0.000000 0.045055 0.000000 0.000000
# 5 0.000000 0.000000 0.000000 0.000000 0.033023 0.000000
# 6 0.000000 0.000000 0.000000 0.000000 0.000000 0.062912
#
#
# Mechanical properties :
#
#
# Convention : Reuss Voigt Hill
#
# Bulk Modulus (GPa) = 33.29543 42.87889 38.08716
# Shear Modulus (GPa) = 17.36599 20.89558 19.13078
#
# Velocity S-wave (km/s) = 3.12496 3.42785 3.27990
# Velocity P-wave (km/s) = 5.63413 6.30704 5.98006
#
# Compressibility (1/GPa) = 0.03003415
#
# Stress axis : x y z
#
# Youngs Moduli (GPa) = 73.79556 34.02699 24.66935
#
# Poissons Ratio (x) = 0.15211 0.24343
# Poissons Ratio (y) = 0.32988 0.30547
# Poissons Ratio (z) = 0.72820 0.42135
#
# Static dielectric constant tensor:
#      x y z
#    x 1.646310 0.000000 0.000000 
#    y 0.000000 1.612940 0.000000 
#    z 0.000000 0.000000 1.595520 
# 
# From -- ./inp_files/8574.got.cif
#   From: 2010.05.17/outbox.cif.g08.bks.cpg/sg63_5_cif.got.tgz:8574.got - 2010.06.03 15:47:04.
