data_PCOD9472222
_publ_section_title
;
Structure prediction by ZEFSAII (Michael W. Deem and Ramdas Pophale) SiO2 
 PCOD9472222
Probable space group: C M C M
;
_chemical_formula_sum "Si O2"
_cell_formula_units_Z 120
_cell_length_a 27.569120
_cell_length_b 28.010757
_cell_length_c 8.730722
_cell_angle_alpha 90.000000
_cell_angle_beta 90.000000
_cell_angle_gamma 90.000000
_cell_volume 6742.142222
_symmetry_space_group_name_H-M "C M C M"
_symmetry_group_IT_number 63
_symmetry_cell_setting 'orthorhombic'
loop_
_space_group_symop_operation_xyz
x,y,z
-x,-y,1/2+z
x,-y,-z
-x,y,1/2-z
-x,-y,-z
x,y,1/2-z
-x,y,z
x,-y,1/2+z
1/2+x,1/2+y,z
1/2-x,1/2-y,1/2+z
1/2+x,1/2-y,-z
1/2-x,1/2+y,1/2-z
1/2-x,1/2-y,-z
1/2+x,1/2+y,1/2-z
1/2-x,1/2+y,z
1/2+x,1/2-y,1/2+z
loop_
_atom_site_type_symbol
_atom_site_label
_atom_site_fract_x
_atom_site_fract_y
_atom_site_fract_z
Si Si1 0.798270 0.600313 0.067367
Si Si2 0.354495 0.801404 0.930266
Si Si3 0.295626 0.278722 0.569223
Si Si4 0.000000 0.053379 0.434055
Si Si5 0.890796 0.450083 0.068104
Si Si6 0.443934 0.147510 0.932553
Si Si7 0.695524 0.615542 0.567340
Si Si8 0.392699 0.553970 0.065277
O O1 0.793761 0.595967 0.250000
O O2 0.818613 0.653879 0.034076
O O3 0.839490 0.564987 0.005730
O O4 0.746491 0.593370 0.989263
O O5 0.349727 0.790883 0.750000
O O6 0.340100 0.756032 0.029957
O O7 0.407769 0.819571 0.972371
O O8 0.288635 0.284953 0.750000
O O9 0.250000 0.250000 0.500000
O O10 0.303075 0.330065 0.493068
O O11 0.053098 0.073267 0.478256
O O12 0.000000 0.051330 0.250000
O O13 0.000000 0.000000 0.500000
O O14 0.884889 0.453857 0.250000
O O15 0.927768 0.406932 0.035985
O O16 0.907462 0.500000 0.000000
O O17 0.436336 0.155445 0.750000
O O18 0.500000 0.154973 0.967945
O O19 0.693362 0.615010 0.750000
O O20 0.650061 0.586790 0.499242
O O21 0.389582 0.552159 0.250000
O O22 0.388329 0.500000 0.000000
#
# Coordination Sequence:
#
# PCOD9472222 Si02
#       8
#    16  16  16   8  16  16  16  16
#     4  10  20  35  54  76 106 143 183 226 277 335
#     4  10  20  35  57  83 110 141 182 230 281 337
#     4  12  23  37  59  86 115 149 186 229 276 332
#     4   8  16  32  58  84 108 142 182 224 268 322
#     4  10  20  34  52  76 108 145 188 234 286 342
#     4   9  19  36  57  80 108 145 189 236 287 343
#     4  12  24  37  56  85 118 151 188 231 278 330
#     4  10  20  37  59  86 117 150 189 230 276 330
#
# _framework density 17.798497000000001
#
# number of rings (size 3 to 8) (size 9 to 14) (size 15 to 20)
#    0.000    1.733    1.333    4.000    0.000    3.200 
#    0.000    2.667    1.467    0.000    0.000    0.000 
#    0.000    0.000    0.000    0.000    0.000    0.000 
#
# Total GULP energy -335004.355723 kJ/mol
# GULP energy per Si atom -5583.405929 kJ/mol
# Density = 1.775799 g / cm^3
# Si number density = 17.798497 Si / 1000 Ang^3
#
#
#
# Elastic Constant Matrix: (Units=GPa)
#
#
# Indices 1 2 3 4 5 6 
#
# 1 123.2941 23.1415 42.0615 0.0000 0.0000 0.0000
# 2 23.1415 48.8936 22.6257 0.0000 0.0000 0.0000
# 3 42.0615 22.6257 80.2343 0.0000 0.0000 0.0000
# 4 0.0000 0.0000 0.0000 30.4641 0.0000 0.0000
# 5 0.0000 0.0000 0.0000 0.0000 26.5194 0.0000
# 6 0.0000 0.0000 0.0000 0.0000 0.0000 16.8146
#
#
#
# Elastic Compliance Matrix: (Units=1/GPa)
#
#
# Indices 1 2 3 4 5 6 
#
# 1 0.010178 -0.002701 -0.004574 0.000000 0.000000 0.000000
# 2 -0.002701 0.024239 -0.005419 0.000000 0.000000 0.000000
# 3 -0.004574 -0.005419 0.016390 0.000000 0.000000 0.000000
# 4 0.000000 0.000000 0.000000 0.032826 0.000000 0.000000
# 5 0.000000 0.000000 0.000000 0.000000 0.037708 0.000000
# 6 0.000000 0.000000 0.000000 0.000000 0.000000 0.059472
#
#
# Mechanical properties :
#
#
# Convention : Reuss Voigt Hill
#
# Bulk Modulus (GPa) = 39.34217 47.56438 43.45328
# Shear Modulus (GPa) = 23.29121 25.73250 24.51185
#
# Velocity S-wave (km/s) = 3.62139 3.80645 3.71507
# Velocity P-wave (km/s) = 6.29588 6.78974 6.54747
#
# Compressibility (1/GPa) = 0.02541802
#
# Stress axis : x y z
#
# Youngs Moduli (GPa) = 98.25094 41.25642 61.01412
#
# Poissons Ratio (x) = 0.11142 0.27908
# Poissons Ratio (y) = 0.26534 0.33066
# Poissons Ratio (z) = 0.44941 0.22359
#
# Static dielectric constant tensor:
#      x y z
#    x 1.619160 0.000000 0.000000 
#    y 0.000000 1.592840 0.000000 
#    z 0.000000 0.000000 1.597850 
# 
# From -- ./inp_files/13197.got.cif
#   From: 2010.05.17/outbox.cif.g08.bks.cpg/sg63_7_cif.got.tgz:13197.got - 2010.06.03 15:47:04.
