data_PCOD9472793
_publ_section_title
;
Structure prediction by ZEFSAII (Michael W. Deem and Ramdas Pophale) SiO2 
 PCOD9472793
Probable space group: C M C M
;
_chemical_formula_sum "Si O2"
_cell_formula_units_Z 100
_cell_length_a 7.335721
_cell_length_b 23.295266
_cell_length_c 28.351595
_cell_angle_alpha 90.000000
_cell_angle_beta 90.000000
_cell_angle_gamma 90.000000
_cell_volume 4844.935232
_symmetry_space_group_name_H-M "C M C M"
_symmetry_group_IT_number 63
_symmetry_cell_setting 'orthorhombic'
loop_
_space_group_symop_operation_xyz
x,y,z
-x,-y,1/2+z
x,-y,-z
-x,y,1/2-z
-x,-y,-z
x,y,1/2-z
-x,y,z
x,-y,1/2+z
1/2+x,1/2+y,z
1/2-x,1/2-y,1/2+z
1/2+x,1/2-y,-z
1/2-x,1/2+y,1/2-z
1/2-x,1/2-y,-z
1/2+x,1/2+y,1/2-z
1/2-x,1/2+y,z
1/2+x,1/2-y,1/2+z
loop_
_atom_site_type_symbol
_atom_site_label
_atom_site_fract_x
_atom_site_fract_y
_atom_site_fract_z
Si Si1 0.715708 0.250833 0.556356
Si Si2 0.220634 0.067301 0.303722
Si Si3 0.210797 0.876926 0.425246
Si Si4 0.777013 0.132280 0.105598
Si Si5 0.500000 0.898074 0.250000
Si Si6 0.278165 0.564572 0.829330
Si Si7 0.277944 0.562413 0.482947
O O1 0.500000 0.252137 0.561464
O O2 0.750000 0.250000 0.500000
O O3 0.779689 0.191356 0.579041
O O4 0.785010 0.307293 0.583448
O O5 0.285959 0.074740 0.250000
O O6 0.282166 0.113748 0.342256
O O7 0.000000 0.070290 0.302264
O O8 0.263435 0.002898 0.321320
O O9 0.279586 0.912134 0.380626
O O10 0.285457 0.894007 0.476398
O O11 0.000000 0.894031 0.427659
O O12 0.720166 0.083432 0.068273
O O13 0.000000 0.133488 0.106286
O O14 0.339310 0.902120 0.290867
O O15 0.500000 0.571415 0.824068
O O16 0.220768 0.500000 0.500000
O O17 0.500000 0.562401 0.480675
#
# Coordination Sequence:
#
# PCOD9472793 Si02
#       7
#    16  16  16  16   4  16  16
#     4  11  21  35  56  78 112 152 200 240 290 352
#     4   9  16  31  56  82 112 144 186 238 291 342
#     4  10  20  35  57  82 113 147 187 236 294 354
#     4   9  17  29  50  80 108 147 195 236 279 345
#     4  12  22  36  64  86 126 152 202 236 288 356
#     4  10  21  37  60  90 118 154 193 241 299 353
#     4   9  15  26  48  80 110 139 181 231 280 343
#
# _framework density 20.64011
#
# number of rings (size 3 to 8) (size 9 to 14) (size 15 to 20)
#    0.000    2.240    2.400    1.680    1.120    3.840 
#    0.000    0.000    5.280    0.480    0.000    0.000 
#    0.000    0.000    0.000    0.000    0.000    0.000 
#
# Total GULP energy -278492.471987 kJ/mol
# GULP energy per Si atom -5569.849440 kJ/mol
# Density = 2.059313 g / cm^3
# Si number density = 20.640110 Si / 1000 Ang^3
#
#
#
# Elastic Constant Matrix: (Units=GPa)
#
#
# Indices 1 2 3 4 5 6 
#
# 1 83.1832 -13.1536 6.5231 0.0000 0.0000 0.0000
# 2 -13.1536 103.4860 78.2568 0.0000 0.0000 0.0000
# 3 6.5231 78.2568 188.5336 0.0000 0.0000 0.0000
# 4 0.0000 0.0000 0.0000 12.3358 0.0000 0.0000
# 5 0.0000 0.0000 0.0000 0.0000 1.8903 0.0000
# 6 0.0000 0.0000 0.0000 0.0000 0.0000 10.1858
#
#
#
# Elastic Compliance Matrix: (Units=1/GPa)
#
#
# Indices 1 2 3 4 5 6 
#
# 1 0.012592 0.002813 -0.001603 0.000000 0.000000 0.000000
# 2 0.002813 0.014712 -0.006204 0.000000 0.000000 0.000000
# 3 -0.001603 -0.006204 0.007935 0.000000 0.000000 0.000000
# 4 0.000000 0.000000 0.000000 0.081065 0.000000 0.000000
# 5 0.000000 0.000000 0.000000 0.000000 0.529010 0.000000
# 6 0.000000 0.000000 0.000000 0.000000 0.000000 0.098176
#
#
# Mechanical properties :
#
#
# Convention : Reuss Voigt Hill
#
# Bulk Modulus (GPa) = 39.60345 57.60619 48.60482
# Shear Modulus (GPa) = 6.56258 25.12080 15.84169
#
# Velocity S-wave (km/s) = 1.78506 3.49246 2.77342
# Velocity P-wave (km/s) = 4.84539 6.65082 5.81856
#
# Compressibility (1/GPa) = 0.02525033
#
# Stress axis : x y z
#
# Youngs Moduli (GPa) = 79.41429 67.97039 126.02737
#
# Poissons Ratio (x) = -0.19120 0.20206
# Poissons Ratio (y) = -0.22339 0.78189
# Poissons Ratio (z) = 0.12732 0.42170
#
# Static dielectric constant tensor:
#      x y z
#    x 1.865580 0.000000 0.000000 
#    y 0.000000 1.720430 0.000000 
#    z 0.000000 0.000000 1.748580 
# 
# From -- ./inp_files/71905.got.cif
#   From: 2010.05.17/outbox.cif.g08.bks.cpg/sg63_36_cif.got.tgz:71905.got - 2010.06.03 15:47:04.
