data_PCOD9472387
_publ_section_title
;
Structure prediction by ZEFSAII (Michael W. Deem and Ramdas Pophale) SiO2 
 PCOD9472387
Probable space group: C M C M
;
_chemical_formula_sum "Si O2"
_cell_formula_units_Z 80
_cell_length_a 8.510212
_cell_length_b 19.683505
_cell_length_c 26.255667
_cell_angle_alpha 90.000000
_cell_angle_beta 90.000000
_cell_angle_gamma 90.000000
_cell_volume 4398.107796
_symmetry_space_group_name_H-M "C M C M"
_symmetry_group_IT_number 63
_symmetry_cell_setting 'orthorhombic'
loop_
_space_group_symop_operation_xyz
x,y,z
-x,-y,1/2+z
x,-y,-z
-x,y,1/2-z
-x,-y,-z
x,y,1/2-z
-x,y,z
x,-y,1/2+z
1/2+x,1/2+y,z
1/2-x,1/2-y,1/2+z
1/2+x,1/2-y,-z
1/2-x,1/2+y,1/2-z
1/2-x,1/2-y,-z
1/2+x,1/2+y,1/2-z
1/2-x,1/2+y,z
1/2+x,1/2-y,1/2+z
loop_
_atom_site_type_symbol
_atom_site_label
_atom_site_fract_x
_atom_site_fract_y
_atom_site_fract_z
Si Si1 0.807574 0.201386 0.750000
Si Si2 0.190971 0.297080 0.841821
Si Si3 0.311516 0.451583 0.953822
Si Si4 0.311400 0.200015 0.043001
Si Si5 0.311593 0.046406 0.341732
Si Si6 0.188226 0.044732 0.750000
O O1 0.755561 0.243756 0.700407
O O2 0.756606 0.123127 0.750000
O O3 0.000000 0.201187 0.750000
O O4 0.237201 0.278960 0.899550
O O5 0.240174 0.375187 0.831595
O O6 0.000000 0.297396 0.840289
O O7 0.500000 0.453010 0.950608
O O8 0.254486 0.375411 0.964803
O O9 0.243132 0.471513 0.898760
O O10 0.261252 0.500000 0.000000
O O11 0.500000 0.197689 0.041827
O O12 0.250000 0.250000 0.000000
O O13 0.500000 0.045596 0.339832
O O14 0.246196 0.995756 0.299569
O O15 0.000000 0.045254 0.750000
#
# Coordination Sequence:
#
# PCOD9472387 Si02
#       6
#     8  16  16  16  16   8
#     4   9  17  31  51  75 102 131 168 214 262 313
#     4   8  16  32  54  76  97 131 178 219 259 312
#     4  10  21  37  57  81 110 144 183 228 279 336
#     4  10  20  34  54  81 111 144 183 225 272 327
#     4  10  20  36  58  79 104 141 183 226 270 323
#     4  11  22  33  51  81 112 141 174 218 272 327
#
# _framework density 18.189641999999999
#
# number of rings (size 3 to 8) (size 9 to 14) (size 15 to 20)
#    0.000    2.400    0.000    3.900    0.000    4.800 
#    0.000    4.000    0.000   15.600    0.000    0.000 
#    0.000    0.000    0.000    0.000    0.000    0.000 
#
# Total GULP energy -223221.821110 kJ/mol
# GULP energy per Si atom -5580.545528 kJ/mol
# Density = 1.814824 g / cm^3
# Si number density = 18.189642 Si / 1000 Ang^3
#
#
#
# Elastic Constant Matrix: (Units=GPa)
#
#
# Indices 1 2 3 4 5 6 
#
# 1 37.2901 31.4106 33.7814 0.0000 0.0000 0.0000
# 2 31.4106 141.9720 144.2496 0.0000 0.0000 0.0000
# 3 33.7814 144.2496 189.6598 0.0000 0.0000 0.0000
# 4 0.0000 0.0000 0.0000 39.2337 0.0000 0.0000
# 5 0.0000 0.0000 0.0000 0.0000 29.2726 0.0000
# 6 0.0000 0.0000 0.0000 0.0000 0.0000 26.4576
#
#
#
# Elastic Compliance Matrix: (Units=1/GPa)
#
#
# Indices 1 2 3 4 5 6 
#
# 1 0.033047 -0.005857 -0.001432 0.000000 0.000000 0.000000
# 2 -0.005857 0.032036 -0.023323 0.000000 0.000000 0.000000
# 3 -0.001432 -0.023323 0.023266 0.000000 0.000000 0.000000
# 4 0.000000 0.000000 0.000000 0.025488 0.000000 0.000000
# 5 0.000000 0.000000 0.000000 0.000000 0.034162 0.000000
# 6 0.000000 0.000000 0.000000 0.000000 0.000000 0.037796
#
#
# Mechanical properties :
#
#
# Convention : Reuss Voigt Hill
#
# Bulk Modulus (GPa) = 36.86343 87.53390 62.19866
# Shear Modulus (GPa) = 19.52663 29.62477 24.57570
#
# Velocity S-wave (km/s) = 3.27999 4.04005 3.67969
# Velocity P-wave (km/s) = 5.88682 8.36600 7.23342
#
# Compressibility (1/GPa) = 0.02712716
#
# Stress axis : x y z
#
# Youngs Moduli (GPa) = 30.25980 31.21464 42.98101
#
# Poissons Ratio (x) = 0.18282 0.06153
# Poissons Ratio (y) = 0.17723 1.00243
# Poissons Ratio (z) = 0.04332 0.72801
#
# Static dielectric constant tensor:
#      x y z
#    x 1.624940 0.000000 0.000000 
#    y 0.000000 1.601060 0.000000 
#    z 0.000000 0.000000 1.612760 
# 
# From -- ./inp_files/66698.got.cif
#   From: 2010.05.17/outbox.cif.g08.bks.cpg/sg63_34_cif.got.tgz:66698.got - 2010.06.03 15:47:04.
