data_PCOD9472554
_publ_section_title
;
Structure prediction by ZEFSAII (Michael W. Deem and Ramdas Pophale) SiO2 
 PCOD9472554
Probable space group: C M C M
;
_chemical_formula_sum "Si O2"
_cell_formula_units_Z 96
_cell_length_a 22.642044
_cell_length_b 13.328415
_cell_length_c 13.934713
_cell_angle_alpha 90.000000
_cell_angle_beta 90.000000
_cell_angle_gamma 90.000000
_cell_volume 4205.253346
_symmetry_space_group_name_H-M "C M C M"
_symmetry_group_IT_number 63
_symmetry_cell_setting 'orthorhombic'
loop_
_space_group_symop_operation_xyz
x,y,z
-x,-y,1/2+z
x,-y,-z
-x,y,1/2-z
-x,-y,-z
x,y,1/2-z
-x,y,z
x,-y,1/2+z
1/2+x,1/2+y,z
1/2-x,1/2-y,1/2+z
1/2+x,1/2-y,-z
1/2-x,1/2+y,1/2-z
1/2-x,1/2-y,-z
1/2+x,1/2+y,1/2-z
1/2-x,1/2+y,z
1/2+x,1/2-y,1/2+z
loop_
_atom_site_type_symbol
_atom_site_label
_atom_site_fract_x
_atom_site_fract_y
_atom_site_fract_z
Si Si1 0.307706 0.366003 0.954534
Si Si2 0.676583 0.855071 0.508834
Si Si3 0.064103 0.354285 0.861572
Si Si4 0.904129 0.581404 0.859815
Si Si5 0.500000 0.244403 0.867045
Si Si6 0.500000 0.475828 0.634213
Si Si7 0.629677 0.460725 0.361580
O O1 0.312135 0.247365 0.950224
O O2 0.345369 0.426365 0.876611
O O3 0.238304 0.389172 0.947123
O O4 0.333364 0.399403 0.059070
O O5 0.624112 0.830174 0.583281
O O6 0.651260 0.928001 0.428115
O O7 0.069096 0.324774 0.750000
O O8 0.062312 0.475872 0.865520
O O9 0.000000 0.316120 0.897171
O O10 0.887608 0.597524 0.750000
O O11 0.943895 0.675197 0.893031
O O12 0.500000 0.246523 0.750000
O O13 0.500000 0.359530 0.900966
O O14 0.500000 0.468876 0.750000
O O15 0.560477 0.533464 0.610221
O O16 0.635526 0.430047 0.250000
#
# Coordination Sequence:
#
# PCOD9472554 Si02
#       7
#    16  16  16  16   8   8  16
#     4  10  25  43  60  92 124 161 212 254 306 382
#     4  11  24  41  60  88 129 165 206 256 311 371
#     4  10  22  40  61  92 128 167 211 255 310 373
#     4  10  20  34  58  90 122 160 204 250 304 367
#     4   9  16  30  54  89 124 150 193 251 302 364
#     4   9  18  35  63  91 118 155 199 251 319 370
#     4  10  22  43  67  91 121 158 204 264 316 370
#
# _framework density 22.828589000000001
#
# number of rings (size 3 to 8) (size 9 to 14) (size 15 to 20)
#    0.000    2.000    0.833    1.500    5.833    6.000 
#    3.000    3.333    0.000    0.000    0.000    0.000 
#    0.000    0.000    0.000    0.000    0.000    0.000 
#
# Total GULP energy -268158.066524 kJ/mol
# GULP energy per Si atom -5586.626386 kJ/mol
# Density = 2.277663 g / cm^3
# Si number density = 22.828589 Si / 1000 Ang^3
#
#
#
# Elastic Constant Matrix: (Units=GPa)
#
#
# Indices 1 2 3 4 5 6 
#
# 1 187.8823 0.8105 46.7649 0.0000 0.0000 0.0000
# 2 0.8105 27.7096 0.1206 0.0000 0.0000 0.0000
# 3 46.7649 0.1206 79.4379 0.0000 0.0000 0.0000
# 4 0.0000 0.0000 0.0000 22.1436 0.0000 0.0000
# 5 0.0000 0.0000 0.0000 0.0000 12.1766 0.0000
# 6 0.0000 0.0000 0.0000 0.0000 0.0000 7.2699
#
#
#
# Elastic Compliance Matrix: (Units=1/GPa)
#
#
# Indices 1 2 3 4 5 6 
#
# 1 0.006237 -0.000166 -0.003671 0.000000 0.000000 0.000000
# 2 -0.000166 0.036093 0.000043 0.000000 0.000000 0.000000
# 3 -0.003671 0.000043 0.014750 0.000000 0.000000 0.000000
# 4 0.000000 0.000000 0.000000 0.045160 0.000000 0.000000
# 5 0.000000 0.000000 0.000000 0.000000 0.082125 0.000000
# 6 0.000000 0.000000 0.000000 0.000000 0.000000 0.137553
#
#
# Mechanical properties :
#
#
# Convention : Reuss Voigt Hill
#
# Bulk Modulus (GPa) = 20.20588 43.38021 31.79304
# Shear Modulus (GPa) = 14.45069 24.80694 19.62882
#
# Velocity S-wave (km/s) = 2.51870 3.30003 2.93548
# Velocity P-wave (km/s) = 4.16279 5.79345 5.04445
#
# Compressibility (1/GPa) = 0.04949055
#
# Stress axis : x y z
#
# Youngs Moduli (GPa) = 160.33219 27.70602 67.79763
#
# Poissons Ratio (x) = 0.00461 0.24892
# Poissons Ratio (y) = 0.02669 -0.00293
# Poissons Ratio (z) = 0.58866 -0.00120
#
# Static dielectric constant tensor:
#      x y z
#    x 1.855630 0.000000 0.000000 
#    y 0.000000 1.883500 0.000000 
#    z 0.000000 0.000000 1.821780 
# 
# From -- ./inp_files/35406.got.cif
#   From: 2010.05.17/outbox.cif.g08.bks.cpg/sg63_18_cif.got.tgz:35406.got - 2010.06.03 15:47:04.
