data_PCOD9472323
_publ_section_title
;
Structure prediction by ZEFSAII (Michael W. Deem and Ramdas Pophale) SiO2 
 PCOD9472323
Probable space group: C M C M
;
_chemical_formula_sum "Si O2"
_cell_formula_units_Z 80
_cell_length_a 7.929463
_cell_length_b 14.828226
_cell_length_c 31.673752
_cell_angle_alpha 90.000000
_cell_angle_beta 90.000000
_cell_angle_gamma 90.000000
_cell_volume 3724.195624
_symmetry_space_group_name_H-M "C M C M"
_symmetry_group_IT_number 63
_symmetry_cell_setting 'orthorhombic'
loop_
_space_group_symop_operation_xyz
x,y,z
-x,-y,1/2+z
x,-y,-z
-x,y,1/2-z
-x,-y,-z
x,y,1/2-z
-x,y,z
x,-y,1/2+z
1/2+x,1/2+y,z
1/2-x,1/2-y,1/2+z
1/2+x,1/2-y,-z
1/2-x,1/2+y,1/2-z
1/2-x,1/2-y,-z
1/2+x,1/2+y,1/2-z
1/2-x,1/2+y,z
1/2+x,1/2-y,1/2+z
loop_
_atom_site_type_symbol
_atom_site_label
_atom_site_fract_x
_atom_site_fract_y
_atom_site_fract_z
Si Si1 0.703465 0.247029 0.451284
Si Si2 0.200063 0.613260 0.795590
Si Si3 0.700386 0.896113 0.885809
Si Si4 0.198529 0.102292 0.887246
Si Si5 0.297943 0.895176 0.794946
O O1 0.500000 0.247807 0.449691
O O2 0.750000 0.250000 0.500000
O O3 0.765615 0.159067 0.425764
O O4 0.764406 0.331839 0.423550
O O5 0.267587 0.646067 0.750000
O O6 0.275454 0.642821 0.840193
O O7 0.221524 0.504163 0.795169
O O8 0.000000 0.630452 0.796700
O O9 0.500000 0.879380 0.883521
O O10 0.772334 0.865300 0.840182
O O11 0.723315 0.003060 0.889656
O O12 0.000000 0.090711 0.893174
O O13 0.227335 0.862108 0.750000
O O14 0.500000 0.878062 0.794506
#
# Coordination Sequence:
#
# PCOD9472323 Si02
#       5
#    16  16  16  16  16
#     4  10  23  40  56  76 104 137 177 225 274 323
#     4   8  14  27  49  76 106 143 181 209 243 305
#     4   9  18  35  56  77 103 139 180 213 250 317
#     4  10  20  34  53  81 112 137 168 219 275 314
#     4   7  10  20  43  72  97 124 162 203 237 279
#
# _framework density 21.481148999999998
#
# number of rings (size 3 to 8) (size 9 to 14) (size 15 to 20)
#    0.000    3.200    0.000    3.000    0.000    3.600 
#    0.000    5.000    0.000    3.600    0.000    0.000 
#    0.000    0.000    0.000    0.000    0.000    0.000 
#
# Total GULP energy -222951.183206 kJ/mol
# GULP energy per Si atom -5573.779580 kJ/mol
# Density = 2.143226 g / cm^3
# Si number density = 21.481149 Si / 1000 Ang^3
#
#
#
# Elastic Constant Matrix: (Units=GPa)
#
#
# Indices 1 2 3 4 5 6 
#
# 1 14.1736 -3.6804 11.2489 0.0000 0.0000 0.0000
# 2 -3.6804 77.8637 75.5748 0.0000 0.0000 0.0000
# 3 11.2489 75.5748 254.8362 0.0000 0.0000 0.0000
# 4 0.0000 0.0000 0.0000 44.3077 0.0000 0.0000
# 5 0.0000 0.0000 0.0000 0.0000 25.0013 0.0000
# 6 0.0000 0.0000 0.0000 0.0000 0.0000 10.2309
#
#
#
# Elastic Compliance Matrix: (Units=1/GPa)
#
#
# Indices 1 2 3 4 5 6 
#
# 1 0.078191 0.009894 -0.006386 0.000000 0.000000 0.000000
# 2 0.009894 0.019286 -0.006156 0.000000 0.000000 0.000000
# 3 -0.006386 -0.006156 0.006032 0.000000 0.000000 0.000000
# 4 0.000000 0.000000 0.000000 0.022569 0.000000 0.000000
# 5 0.000000 0.000000 0.000000 0.000000 0.039998 0.000000
# 6 0.000000 0.000000 0.000000 0.000000 0.000000 0.097743
#
#
# Mechanical properties :
#
#
# Convention : Reuss Voigt Hill
#
# Bulk Modulus (GPa) = 10.18206 57.01781 33.59993
# Shear Modulus (GPa) = 16.56442 33.49000 25.02721
#
# Velocity S-wave (km/s) = 2.77991 3.95275 3.41703
# Velocity P-wave (km/s) = 3.87997 6.88717 5.58960
#
# Compressibility (1/GPa) = 0.09821200
#
# Stress axis : x y z
#
# Youngs Moduli (GPa) = 12.78925 51.85162 165.79222
#
# Poissons Ratio (x) = -0.51300 1.05868
# Poissons Ratio (y) = -0.12653 1.02064
# Poissons Ratio (z) = 0.08167 0.31921
#
# Static dielectric constant tensor:
#      x y z
#    x 1.773400 0.000000 0.000000 
#    y 0.000000 1.811250 0.000000 
#    z 0.000000 0.000000 1.823010 
# 
# From -- ./inp_files/71586.got.cif
#   From: 2010.05.17/outbox.cif.g08.bks.cpg/sg63_36_cif.got.tgz:71586.got - 2010.06.03 15:47:04.
