data_PCOD9472102
_publ_section_title
;
Structure prediction by ZEFSAII (Michael W. Deem and Ramdas Pophale) SiO2 
 PCOD9472102
Probable space group: C M C M
;
_chemical_formula_sum "Si O2"
_cell_formula_units_Z 120
_cell_length_a 16.187106
_cell_length_b 17.401299
_cell_length_c 24.974595
_cell_angle_alpha 90.000000
_cell_angle_beta 90.000000
_cell_angle_gamma 90.000000
_cell_volume 7034.760790
_symmetry_space_group_name_H-M "C M C M"
_symmetry_group_IT_number 63
_symmetry_cell_setting 'orthorhombic'
loop_
_space_group_symop_operation_xyz
x,y,z
-x,-y,1/2+z
x,-y,-z
-x,y,1/2-z
-x,-y,-z
x,y,1/2-z
-x,y,z
x,-y,1/2+z
1/2+x,1/2+y,z
1/2-x,1/2-y,1/2+z
1/2+x,1/2-y,-z
1/2-x,1/2+y,1/2-z
1/2-x,1/2-y,-z
1/2+x,1/2+y,1/2-z
1/2-x,1/2+y,z
1/2+x,1/2-y,1/2+z
loop_
_atom_site_type_symbol
_atom_site_label
_atom_site_fract_x
_atom_site_fract_y
_atom_site_fract_z
Si Si1 0.152836 0.099393 0.813151
Si Si2 0.093777 0.370643 0.029550
Si Si3 0.284863 0.961324 0.395197
Si Si4 0.500000 0.497823 0.363862
Si Si5 0.365487 0.546674 0.449426
Si Si6 0.839998 0.789001 0.000394
Si Si7 0.099136 0.769102 0.384003
Si Si8 0.597259 0.905864 0.594190
O O1 0.164035 0.094529 0.750000
O O2 0.233683 0.072450 0.845869
O O3 0.133267 0.185381 0.833692
O O4 0.073693 0.049397 0.831629
O O5 0.161749 0.400177 0.070994
O O6 0.101013 0.278997 0.020897
O O7 0.000000 0.391112 0.045661
O O8 0.108831 0.406502 0.970477
O O9 0.217506 0.001617 0.433357
O O10 0.348571 0.028371 0.379693
O O11 0.428169 0.540531 0.400521
O O12 0.401335 0.500000 0.500000
O O13 0.345652 0.633594 0.466568
O O14 0.750000 0.750000 0.000000
O O15 0.865769 0.806932 0.061530
O O16 0.121259 0.679439 0.386764
O O17 0.000000 0.775446 0.386019
O O18 0.500000 0.916027 0.604034
#
# Coordination Sequence:
#
# PCOD9472102 Si02
#       8
#    16  16  16   8  16  16  16  16
#     4  11  23  40  58  76 101 141 193 249 299 340
#     4  10  20  33  54  84 119 162 184 211 262 350
#     4  11  21  35  53  80 113 151 192 223 274 336
#     4  10  22  34  52  78 102 140 180 230 291 348
#     4  11  21  30  49  79 116 150 180 225 277 339
#     4  11  20  32  52  82 125 155 184 222 269 341
#     4  10  20  33  55  82 108 142 183 230 279 332
#     4   9  18  33  55  86 119 146 176 218 271 339
#
# _framework density 17.058149
#
# number of rings (size 3 to 8) (size 9 to 14) (size 15 to 20)
#    0.000    1.600    0.667    8.000    1.867    1.067 
#    0.000    0.667    0.000    2.400    0.000    0.933 
#    0.000    0.000    0.000    0.000    0.000    0.000 
#
# Total GULP energy -334020.080974 kJ/mol
# GULP energy per Si atom -5567.001350 kJ/mol
# Density = 1.701932 g / cm^3
# Si number density = 17.058149 Si / 1000 Ang^3
#
#
#
# Elastic Constant Matrix: (Units=GPa)
#
#
# Indices 1 2 3 4 5 6 
#
# 1 100.2527 38.5191 42.9540 0.0000 0.0000 0.0000
# 2 38.5191 75.2332 47.9524 0.0000 0.0000 0.0000
# 3 42.9540 47.9524 55.2861 0.0000 0.0000 0.0000
# 4 0.0000 0.0000 0.0000 6.5718 0.0000 0.0000
# 5 0.0000 0.0000 0.0000 0.0000 13.2834 0.0000
# 6 0.0000 0.0000 0.0000 0.0000 0.0000 26.1244
#
#
#
# Elastic Compliance Matrix: (Units=1/GPa)
#
#
# Indices 1 2 3 4 5 6 
#
# 1 0.014963 -0.000562 -0.011138 0.000000 0.000000 0.000000
# 2 -0.000562 0.029746 -0.025364 0.000000 0.000000 0.000000
# 3 -0.011138 -0.025364 0.048741 0.000000 0.000000 0.000000
# 4 0.000000 0.000000 0.000000 0.152166 0.000000 0.000000
# 5 0.000000 0.000000 0.000000 0.000000 0.075282 0.000000
# 6 0.000000 0.000000 0.000000 0.000000 0.000000 0.038278
#
#
# Mechanical properties :
#
#
# Convention : Reuss Voigt Hill
#
# Bulk Modulus (GPa) = 51.75344 54.40256 53.07800
# Shear Modulus (GPa) = 11.37024 15.95234 13.66129
#
# Velocity S-wave (km/s) = 2.58458 3.06138 2.83303
# Velocity P-wave (km/s) = 6.26993 6.66766 6.47185
#
# Compressibility (1/GPa) = 0.01932239
#
# Stress axis : x y z
#
# Youngs Moduli (GPa) = 66.83252 33.61783 20.51671
#
# Poissons Ratio (x) = 0.01888 0.22852
# Poissons Ratio (y) = 0.03754 0.52038
# Poissons Ratio (z) = 0.74438 0.85268
#
# Static dielectric constant tensor:
#      x y z
#    x 1.602040 0.000000 0.000000 
#    y 0.000000 1.604010 0.000000 
#    z 0.000000 0.000000 1.556690 
# 
# From -- ./inp_files/55888.got.cif
#   From: 2010.05.17/outbox.cif.g08.bks.cpg/sg63_28_cif.got.tgz:55888.got - 2010.06.03 15:47:04.
