data_PCOD9472269
_publ_section_title
;
Structure prediction by ZEFSAII (Michael W. Deem and Ramdas Pophale) SiO2 
 PCOD9472269
Probable space group: C M C M
;
_chemical_formula_sum "Si O2"
_cell_formula_units_Z 80
_cell_length_a 7.593273
_cell_length_b 26.498628
_cell_length_c 18.706423
_cell_angle_alpha 90.000000
_cell_angle_beta 90.000000
_cell_angle_gamma 90.000000
_cell_volume 3763.943999
_symmetry_space_group_name_H-M "C M C M"
_symmetry_group_IT_number 63
_symmetry_cell_setting 'orthorhombic'
loop_
_space_group_symop_operation_xyz
x,y,z
-x,-y,1/2+z
x,-y,-z
-x,y,1/2-z
-x,-y,-z
x,y,1/2-z
-x,y,z
x,-y,1/2+z
1/2+x,1/2+y,z
1/2-x,1/2-y,1/2+z
1/2+x,1/2-y,-z
1/2-x,1/2+y,1/2-z
1/2-x,1/2-y,-z
1/2+x,1/2+y,1/2-z
1/2-x,1/2+y,z
1/2+x,1/2-y,1/2+z
loop_
_atom_site_type_symbol
_atom_site_label
_atom_site_fract_x
_atom_site_fract_y
_atom_site_fract_z
Si Si1 0.785243 0.815453 0.332459
Si Si2 0.213686 0.091339 0.929367
Si Si3 0.206350 0.398769 0.595204
Si Si4 0.785709 0.702371 0.166974
Si Si5 0.293494 0.501643 0.670126
O O1 0.732489 0.825055 0.250000
O O2 0.727629 0.859115 0.385891
O O3 0.727177 0.758892 0.353086
O O4 0.000000 0.815763 0.332690
O O5 0.278319 0.042084 0.886494
O O6 0.000000 0.090916 0.930452
O O7 0.270235 0.092630 0.011238
O O8 0.277811 0.344259 0.619620
O O9 0.281963 0.445477 0.639326
O O10 0.000000 0.398632 0.612001
O O11 0.738621 0.693838 0.250000
O O12 0.000000 0.703494 0.163632
O O13 0.217142 0.505139 0.750000
O O14 0.500000 0.514134 0.676221
#
# Coordination Sequence:
#
# PCOD9472269 Si02
#       5
#    16  16  16  16  16
#     4   8  14  28  52  77  98 126 168 213 253 295
#     4  10  20  34  53  77 103 130 164 209 257 300
#     4  11  22  34  50  75 107 140 170 200 242 300
#     4   8  15  29  49  73 100 130 167 209 248 290
#     4  10  21  37  56  76  98 127 167 214 258 298
#
# _framework density 21.254301000000002
#
# number of rings (size 3 to 8) (size 9 to 14) (size 15 to 20)
#    0.000    2.600    0.000    3.600    0.000    7.600 
#    0.000    0.000    0.000    3.000    0.000    5.600 
#    0.000    0.000    0.000    0.000    0.000    0.000 
#
# Total GULP energy -223344.442682 kJ/mol
# GULP energy per Si atom -5583.611067 kJ/mol
# Density = 2.120593 g / cm^3
# Si number density = 21.254301 Si / 1000 Ang^3
#
#
#
# Elastic Constant Matrix: (Units=GPa)
#
#
# Indices 1 2 3 4 5 6 
#
# 1 41.3348 -11.7647 -15.6670 0.0000 0.0000 0.0000
# 2 -11.7647 58.5611 -0.0894 0.0000 0.0000 0.0000
# 3 -15.6670 -0.0894 43.3360 0.0000 0.0000 0.0000
# 4 0.0000 0.0000 0.0000 -81.8640 0.0000 0.0000
# 5 0.0000 0.0000 0.0000 0.0000 4.3874 0.0000
# 6 0.0000 0.0000 0.0000 0.0000 0.0000 13.7157
#
#
#
# Elastic Compliance Matrix: (Units=1/GPa)
#
#
# Indices 1 2 3 4 5 6 
#
# 1 0.030035 0.006051 0.010871 0.000000 0.000000 0.000000
# 2 0.006051 0.018295 0.002225 0.000000 0.000000 0.000000
# 3 0.010871 0.002225 0.027010 0.000000 0.000000 0.000000
# 4 0.000000 0.000000 0.000000 -0.012215 0.000000 0.000000
# 5 0.000000 0.000000 0.000000 0.000000 0.227925 0.000000
# 6 0.000000 0.000000 0.000000 0.000000 0.000000 0.072909
#
#
# Mechanical properties :
#
#
# Convention : Reuss Voigt Hill
#
# Bulk Modulus (GPa) = 8.80019 9.79885 9.29952
# Shear Modulus (GPa) = 13.75348 -1.36865 6.19241
#
# Velocity S-wave (km/s) = 2.54656 -0.80333 1.70875
# Velocity P-wave (km/s) = 3.57715 1.93903 2.87714
#
# Compressibility (1/GPa) = 0.11363385
#
# Stress axis : x y z
#
# Youngs Moduli (GPa) = 33.29427 54.65942 37.02303
#
# Poissons Ratio (x) = -0.33072 -0.40248
# Poissons Ratio (y) = -0.20145 -0.08238
# Poissons Ratio (z) = -0.36194 -0.12163
#
# Static dielectric constant tensor:
#      x y z
#    x 1.827280 0.000000 0.000000 
#    y 0.000000 1.761290 0.000000 
#    z 0.000000 0.000000 1.719860 
# 
# From -- ./inp_files/40411.got.cif
#   From: 2010.05.17/outbox.cif.g08.bks.cpg/sg63_21_cif.got.tgz:40411.got - 2010.06.03 15:47:04.
