data_PCOD9472705
_publ_section_title
;
Structure prediction by ZEFSAII (Michael W. Deem and Ramdas Pophale) SiO2 
 PCOD9472705
Probable space group: C M C M
;
_chemical_formula_sum "Si O2"
_cell_formula_units_Z 100
_cell_length_a 7.529000
_cell_length_b 29.023083
_cell_length_c 22.069161
_cell_angle_alpha 90.000000
_cell_angle_beta 90.000000
_cell_angle_gamma 90.000000
_cell_volume 4822.438123
_symmetry_space_group_name_H-M "C M C M"
_symmetry_group_IT_number 63
_symmetry_cell_setting 'orthorhombic'
loop_
_space_group_symop_operation_xyz
x,y,z
-x,-y,1/2+z
x,-y,-z
-x,y,1/2-z
-x,-y,-z
x,y,1/2-z
-x,y,z
x,-y,1/2+z
1/2+x,1/2+y,z
1/2-x,1/2-y,1/2+z
1/2+x,1/2-y,-z
1/2-x,1/2+y,1/2-z
1/2-x,1/2-y,-z
1/2+x,1/2+y,1/2-z
1/2-x,1/2+y,z
1/2+x,1/2-y,1/2+z
loop_
_atom_site_type_symbol
_atom_site_label
_atom_site_fract_x
_atom_site_fract_y
_atom_site_fract_z
Si Si1 0.702709 0.778007 0.155006
Si Si2 0.000000 0.805856 0.250000
Si Si3 0.704371 0.322176 0.469431
Si Si4 0.710802 0.594703 0.182178
Si Si5 0.215622 0.571874 0.530213
Si Si6 0.713016 0.019075 0.091442
Si Si7 0.716245 0.319086 0.894311
O O1 0.500000 0.779964 0.177570
O O2 0.703598 0.798238 0.087009
O O3 0.758399 0.724517 0.147406
O O4 0.843515 0.803114 0.197176
O O5 0.500000 0.306718 0.468559
O O6 0.712099 0.377345 0.461037
O O7 0.779697 0.313041 0.536678
O O8 0.783818 0.597950 0.250000
O O9 0.500000 0.602785 0.185877
O O10 0.735955 0.544833 0.152375
O O11 0.781463 0.633941 0.136791
O O12 0.272344 0.550635 0.465363
O O13 0.271515 0.533209 0.579060
O O14 0.000000 0.574915 0.530455
O O15 0.500000 0.018176 0.088224
O O16 0.500000 0.321297 0.898554
#
# Coordination Sequence:
#
# PCOD9472705 Si02
#       7
#    16   4  16  16  16  16  16
#     4  11  24  44  67  89 129 171 204 265 322 363
#     4  12  26  48  64  98 120 162 234 256 296 402
#     4  11  20  37  62  96 126 155 210 266 309 378
#     4  10  20  35  55  81 118 159 202 246 309 383
#     4   9  18  33  56  83 115 154 197 248 320 373
#     4   9  18  34  53  81 115 151 199 253 303 378
#     4   9  20  37  60  89 124 166 201 250 319 381
#
# _framework density 20.7364
#
# number of rings (size 3 to 8) (size 9 to 14) (size 15 to 20)
#    0.000    2.080    2.400    2.160    1.120    0.960 
#    4.320    1.600    1.760    0.000    0.000    0.000 
#    0.000    0.000    0.000    0.000    0.000    0.000 
#
# Total GULP energy -278728.082014 kJ/mol
# GULP energy per Si atom -5574.561640 kJ/mol
# Density = 2.068920 g / cm^3
# Si number density = 20.736400 Si / 1000 Ang^3
#
#
#
# Elastic Constant Matrix: (Units=GPa)
#
#
# Indices 1 2 3 4 5 6 
#
# 1 80.0064 -3.2626 16.1630 0.0000 0.0000 0.0000
# 2 -3.2626 35.9281 -6.6504 0.0000 0.0000 0.0000
# 3 16.1630 -6.6504 98.9810 0.0000 0.0000 0.0000
# 4 0.0000 0.0000 0.0000 -10.2182 0.0000 0.0000
# 5 0.0000 0.0000 0.0000 0.0000 5.2163 0.0000
# 6 0.0000 0.0000 0.0000 0.0000 0.0000 -4.6337
#
#
#
# Elastic Compliance Matrix: (Units=1/GPa)
#
#
# Indices 1 2 3 4 5 6 
#
# 1 0.012948 0.000794 -0.002061 0.000000 0.000000 0.000000
# 2 0.000794 0.028233 0.001767 0.000000 0.000000 0.000000
# 3 -0.002061 0.001767 0.010558 0.000000 0.000000 0.000000
# 4 0.000000 0.000000 0.000000 -0.097865 0.000000 0.000000
# 5 0.000000 0.000000 0.000000 0.000000 0.191707 0.000000
# 6 0.000000 0.000000 0.000000 0.000000 0.000000 -0.215809
#
#
# Mechanical properties :
#
#
# Convention : Reuss Voigt Hill
#
# Bulk Modulus (GPa) = 18.96104 25.26840 22.11472
# Shear Modulus (GPa) = -93.19779 11.98391 -40.60694
#
# Velocity S-wave (km/s) = -6.71131 2.40660 -4.43001
# Velocity P-wave (km/s) = 7.13385 4.46478 3.93431
#
# Compressibility (1/GPa) = 0.05273971
#
# Stress axis : x y z
#
# Youngs Moduli (GPa) = 77.23353 35.42002 94.71293
#
# Poissons Ratio (x) = -0.02813 0.19520
# Poissons Ratio (y) = -0.06134 -0.16738
# Poissons Ratio (z) = 0.15917 -0.06259
#
# Static dielectric constant tensor:
#      x y z
#    x 1.781780 0.000000 0.000000 
#    y 0.000000 1.729030 0.000000 
#    z 0.000000 0.000000 1.738890 
# 
# From -- ./inp_files/51701.got.cif
#   From: 2010.05.17/outbox.cif.g08.bks.cpg/sg63_26_cif.got.tgz:51701.got - 2010.06.03 15:47:04.
