data_PCOD9472956
_publ_section_title
;
Structure prediction by ZEFSAII (Michael W. Deem and Ramdas Pophale) SiO2 
 PCOD9472956
Probable space group: C M C M
;
_chemical_formula_sum "Si O2"
_cell_formula_units_Z 64
_cell_length_a 22.418049
_cell_length_b 6.838429
_cell_length_c 15.578412
_cell_angle_alpha 90.000000
_cell_angle_beta 90.000000
_cell_angle_gamma 90.000000
_cell_volume 2388.236556
_symmetry_space_group_name_H-M "C M C M"
_symmetry_group_IT_number 63
_symmetry_cell_setting 'orthorhombic'
loop_
_space_group_symop_operation_xyz
x,y,z
-x,-y,1/2+z
x,-y,-z
-x,y,1/2-z
-x,-y,-z
x,y,1/2-z
-x,y,z
x,-y,1/2+z
1/2+x,1/2+y,z
1/2-x,1/2-y,1/2+z
1/2+x,1/2-y,-z
1/2-x,1/2+y,1/2-z
1/2-x,1/2-y,-z
1/2+x,1/2+y,1/2-z
1/2-x,1/2+y,z
1/2+x,1/2-y,1/2+z
loop_
_atom_site_type_symbol
_atom_site_label
_atom_site_fract_x
_atom_site_fract_y
_atom_site_fract_z
Si Si1 0.315049 0.398390 0.579280
Si Si2 0.564233 0.496701 0.851827
Si Si3 0.094416 0.578150 0.911329
Si Si4 0.357785 0.101832 0.250000
Si Si5 0.762623 0.755154 0.750000
O O1 0.283770 0.500000 0.500000
O O2 0.374056 0.532011 0.598157
O O3 0.275295 0.374789 0.662824
O O4 0.343246 0.185209 0.562498
O O5 0.570399 0.534015 0.750000
O O6 0.500000 0.577531 0.881861
O O7 0.562001 0.260994 0.866304
O O8 0.104103 0.420088 0.836497
O O9 0.068423 0.500000 0.000000
O O10 0.308515 0.270743 0.250000
O O11 0.314985 0.906658 0.250000
#
# Coordination Sequence:
#
# PCOD9472956 Si02
#       5
#    16  16  16   8   8
#     4   9  18  34  51  74 106 128 167 210 247 302
#     4   9  16  32  58  74  98 138 170 203 248 301
#     4   9  18  34  51  74 106 128 167 210 247 302
#     4  10  20  36  52  72  99 135 176 208 250 302
#     4  10  20  36  52  72  99 135 176 208 250 302
#
# _framework density 26.798016000000001
#
# number of rings (size 3 to 8) (size 9 to 14) (size 15 to 20)
#    1.500    1.250    2.500    0.000    0.000    4.000 
#    0.000    5.000    0.000    0.000    0.000    5.250 
#    0.000    0.000    0.000    0.000    0.000    0.000 
#
# Total GULP energy -178685.580383 kJ/mol
# GULP energy per Si atom -5583.924387 kJ/mol
# Density = 2.673702 g / cm^3
# Si number density = 26.798016 Si / 1000 Ang^3
#
#
#
# Elastic Constant Matrix: (Units=GPa)
#
#
# Indices 1 2 3 4 5 6 
#
# 1 113.2367 -13.4272 25.6167 0.0000 0.0000 0.0000
# 2 -13.4272 55.6065 30.7023 0.0000 0.0000 0.0000
# 3 25.6167 30.7023 145.9710 0.0000 0.0000 0.0000
# 4 0.0000 0.0000 0.0000 46.2334 0.0000 0.0000
# 5 0.0000 0.0000 0.0000 0.0000 -4.5096 0.0000
# 6 0.0000 0.0000 0.0000 0.0000 0.0000 -49.4764
#
#
#
# Elastic Compliance Matrix: (Units=1/GPa)
#
#
# Indices 1 2 3 4 5 6 
#
# 1 0.009848 0.003770 -0.002521 0.000000 0.000000 0.000000
# 2 0.003770 0.021790 -0.005245 0.000000 0.000000 0.000000
# 3 -0.002521 -0.005245 0.008396 0.000000 0.000000 0.000000
# 4 0.000000 0.000000 0.000000 0.021629 0.000000 0.000000
# 5 0.000000 0.000000 0.000000 0.000000 -0.221751 0.000000
# 6 0.000000 0.000000 0.000000 0.000000 0.000000 -0.020212
#
#
# Mechanical properties :
#
#
# Convention : Reuss Voigt Hill
#
# Bulk Modulus (GPa) = 31.20828 44.51089 37.85958
# Shear Modulus (GPa) = -30.93547 16.57767 -7.17890
#
# Velocity S-wave (km/s) = -3.40132 2.48990 -1.63851
# Velocity P-wave (km/s) = 1.93760 4.99119 3.25251
#
# Compressibility (1/GPa) = 0.03204278
#
# Stress axis : x y z
#
# Youngs Moduli (GPa) = 101.53843 45.89338 119.10060
#
# Poissons Ratio (x) = -0.17303 0.30029
# Poissons Ratio (y) = -0.38282 0.62464
# Poissons Ratio (z) = 0.25601 0.24070
#
# Static dielectric constant tensor:
#      x y z
#    x 2.064250 0.000000 0.000000 
#    y 0.000000 2.237470 0.000000 
#    z 0.000000 0.000000 2.037920 
# 
# From -- ./inp_files/37471.got.cif
#   From: 2010.05.17/outbox.cif.g08.bks.cpg/sg63_19_cif.got.tgz:37471.got - 2010.06.03 15:47:04.
