data_PCOD9472340
_publ_section_title
;
Structure prediction by ZEFSAII (Michael W. Deem and Ramdas Pophale) SiO2 
 PCOD9472340
Probable space group: C M C M
;
_chemical_formula_sum "Si O2"
_cell_formula_units_Z 80
_cell_length_a 7.370511
_cell_length_b 15.805767
_cell_length_c 30.356341
_cell_angle_alpha 90.000000
_cell_angle_beta 90.000000
_cell_angle_gamma 90.000000
_cell_volume 3536.409894
_symmetry_space_group_name_H-M "C M C M"
_symmetry_group_IT_number 63
_symmetry_cell_setting 'orthorhombic'
loop_
_space_group_symop_operation_xyz
x,y,z
-x,-y,1/2+z
x,-y,-z
-x,y,1/2-z
-x,-y,-z
x,y,1/2-z
-x,y,z
x,-y,1/2+z
1/2+x,1/2+y,z
1/2-x,1/2-y,1/2+z
1/2+x,1/2-y,-z
1/2-x,1/2+y,1/2-z
1/2-x,1/2-y,-z
1/2+x,1/2+y,1/2-z
1/2-x,1/2+y,z
1/2+x,1/2-y,1/2+z
loop_
_atom_site_type_symbol
_atom_site_label
_atom_site_fract_x
_atom_site_fract_y
_atom_site_fract_z
Si Si1 0.713790 0.125536 0.798146
Si Si2 0.218537 0.075346 0.202065
Si Si3 0.777746 0.678374 0.606050
Si Si4 0.219458 0.865065 0.892223
Si Si5 0.289898 0.975648 0.047169
O O1 0.788845 0.150396 0.750000
O O2 0.500000 0.146238 0.797045
O O3 0.785074 0.163265 0.843656
O O4 0.733114 0.023854 0.801534
O O5 0.282953 0.106075 0.250000
O O6 0.281340 0.121917 0.158224
O O7 0.000000 0.081100 0.202366
O O8 0.726218 0.772401 0.591510
O O9 0.713038 0.603830 0.574113
O O10 0.000000 0.674216 0.607308
O O11 0.000000 0.868396 0.892314
O O12 0.283591 0.942565 0.921669
O O13 0.500000 0.952959 0.038713
O O14 0.208136 0.000000 0.000000
#
# Coordination Sequence:
#
# PCOD9472340 Si02
#       5
#    16  16  16  16  16
#     4   9  16  28  50  75  99 134 175 208 243 296
#     4   9  17  29  47  73 104 134 164 202 250 298
#     4   9  18  33  52  76 105 133 167 211 255 304
#     4  10  20  34  54  78 104 135 170 211 255 303
#     4  10  21  38  57  75 101 136 171 215 269 314
#
# _framework density 22.621811999999998
#
# number of rings (size 3 to 8) (size 9 to 14) (size 15 to 20)
#    0.000    2.600    2.000    0.000    0.000    2.000 
#    0.000    6.000    0.000    0.000    0.000    5.600 
#    0.000    0.000    0.000    0.000    0.000    0.000 
#
# Total GULP energy -223353.448787 kJ/mol
# GULP energy per Si atom -5583.836220 kJ/mol
# Density = 2.257032 g / cm^3
# Si number density = 22.621812 Si / 1000 Ang^3
#
#
#
# Elastic Constant Matrix: (Units=GPa)
#
#
# Indices 1 2 3 4 5 6 
#
# 1 80.3135 -20.4670 -7.5163 0.0000 0.0000 0.0000
# 2 -20.4670 93.7223 29.2859 0.0000 0.0000 0.0000
# 3 -7.5163 29.2859 107.1739 0.0000 0.0000 0.0000
# 4 0.0000 0.0000 0.0000 -6.1359 0.0000 0.0000
# 5 0.0000 0.0000 0.0000 0.0000 8.5667 0.0000
# 6 0.0000 0.0000 0.0000 0.0000 0.0000 12.6369
#
#
#
# Elastic Compliance Matrix: (Units=1/GPa)
#
#
# Indices 1 2 3 4 5 6 
#
# 1 0.013187 0.002833 0.000151 0.000000 0.000000 0.000000
# 2 0.002833 0.012274 -0.003155 0.000000 0.000000 0.000000
# 3 0.000151 -0.003155 0.010203 0.000000 0.000000 0.000000
# 4 0.000000 0.000000 0.000000 -0.162975 0.000000 0.000000
# 5 0.000000 0.000000 0.000000 0.000000 0.116731 0.000000
# 6 0.000000 0.000000 0.000000 0.000000 0.000000 0.079133
#
#
# Mechanical properties :
#
#
# Convention : Reuss Voigt Hill
#
# Bulk Modulus (GPa) = 28.31159 31.53498 29.92329
# Shear Modulus (GPa) = 61.98026 21.67403 41.82715
#
# Velocity S-wave (km/s) = 5.24003 3.09868 4.30463
# Velocity P-wave (km/s) = 7.01091 5.17424 6.16140
#
# Compressibility (1/GPa) = 0.03532122
#
# Stress axis : x y z
#
# Youngs Moduli (GPa) = 75.83114 81.47040 98.00625
#
# Poissons Ratio (x) = -0.23078 -0.01478
# Poissons Ratio (y) = -0.21481 0.30925
# Poissons Ratio (z) = -0.01144 0.25707
#
# Static dielectric constant tensor:
#      x y z
#    x 1.745660 0.000000 0.000000 
#    y 0.000000 1.794490 0.000000 
#    z 0.000000 0.000000 1.833140 
# 
# From -- ./inp_files/68101.got.cif
#   From: 2010.05.17/outbox.cif.g08.bks.cpg/sg63_35_cif.got.tgz:68101.got - 2010.06.03 15:47:04.
