data_PCOD9472632
_publ_section_title
;
Structure prediction by ZEFSAII (Michael W. Deem and Ramdas Pophale) SiO2 
 PCOD9472632
Probable space group: C M C M
;
_chemical_formula_sum "Si O2"
_cell_formula_units_Z 96
_cell_length_a 15.760900
_cell_length_b 12.430062
_cell_length_c 24.405909
_cell_angle_alpha 90.000000
_cell_angle_beta 90.000000
_cell_angle_gamma 90.000000
_cell_volume 4781.336352
_symmetry_space_group_name_H-M "C M C M"
_symmetry_group_IT_number 63
_symmetry_cell_setting 'orthorhombic'
loop_
_space_group_symop_operation_xyz
x,y,z
-x,-y,1/2+z
x,-y,-z
-x,y,1/2-z
-x,-y,-z
x,y,1/2-z
-x,y,z
x,-y,1/2+z
1/2+x,1/2+y,z
1/2-x,1/2-y,1/2+z
1/2+x,1/2-y,-z
1/2-x,1/2+y,1/2-z
1/2-x,1/2-y,-z
1/2+x,1/2+y,1/2-z
1/2-x,1/2+y,z
1/2+x,1/2-y,1/2+z
loop_
_atom_site_type_symbol
_atom_site_label
_atom_site_fract_x
_atom_site_fract_y
_atom_site_fract_z
Si Si1 0.597884 0.148591 0.476534
Si Si2 0.220171 0.818872 0.812787
Si Si3 0.404179 0.485645 0.185732
Si Si4 0.399678 0.888629 0.190358
Si Si5 0.335193 0.687079 0.893766
Si Si6 0.329385 0.056318 0.921679
O O1 0.500000 0.118187 0.467402
O O2 0.617881 0.257409 0.444472
O O3 0.617567 0.141517 0.541130
O O4 0.658721 0.057738 0.450631
O O5 0.252747 0.826690 0.750000
O O6 0.149667 0.724095 0.812435
O O7 0.289001 0.777873 0.856287
O O8 0.169121 0.927363 0.826613
O O9 0.394276 0.456278 0.250000
O O10 0.500000 0.530038 0.179243
O O11 0.392263 0.383482 0.146869
O O12 0.379788 0.937641 0.250000
O O13 0.500000 0.872487 0.186927
O O14 0.367366 0.954709 0.138872
O O15 0.263282 0.606525 0.916546
#
# Coordination Sequence:
#
# PCOD9472632 Si02
#       6
#    16  16  16  16  16  16
#     4  11  22  38  58  79 107 144 183 219 264 324
#     4   9  18  32  52  78 108 144 182 220 266 320
#     4  10  20  35  54  78 112 150 182 216 267 327
#     4   9  16  29  52  81 108 134 172 222 269 313
#     4  11  21  35  55  82 108 138 181 232 269 307
#     4  10  21  37  57  79 106 142 180 219 267 322
#
# _framework density 20.078067999999998
#
# number of rings (size 3 to 8) (size 9 to 14) (size 15 to 20)
#    0.000    2.000    0.000    5.000    0.000    2.667 
#    0.000    1.667    0.000    4.000    0.000   17.500 
#    0.000    0.000    0.000    0.000    0.000    0.000 
#
# Total GULP energy -267911.016515 kJ/mol
# GULP energy per Si atom -5581.479511 kJ/mol
# Density = 2.003237 g / cm^3
# Si number density = 20.078068 Si / 1000 Ang^3
#
#
#
# Elastic Constant Matrix: (Units=GPa)
#
#
# Indices 1 2 3 4 5 6 
#
# 1 52.2097 11.3832 17.6320 0.0000 0.0000 0.0000
# 2 11.3832 31.2649 16.3815 0.0000 0.0000 0.0000
# 3 17.6320 16.3815 77.9151 0.0000 0.0000 0.0000
# 4 0.0000 0.0000 0.0000 34.4902 0.0000 0.0000
# 5 0.0000 0.0000 0.0000 0.0000 26.4286 0.0000
# 6 0.0000 0.0000 0.0000 0.0000 0.0000 12.0864
#
#
#
# Elastic Compliance Matrix: (Units=1/GPa)
#
#
# Indices 1 2 3 4 5 6 
#
# 1 0.021691 -0.005985 -0.003650 0.000000 0.000000 0.000000
# 2 -0.005985 0.037596 -0.006550 0.000000 0.000000 0.000000
# 3 -0.003650 -0.006550 0.015038 0.000000 0.000000 0.000000
# 4 0.000000 0.000000 0.000000 0.028994 0.000000 0.000000
# 5 0.000000 0.000000 0.000000 0.000000 0.037838 0.000000
# 6 0.000000 0.000000 0.000000 0.000000 0.000000 0.082738
#
#
# Mechanical properties :
#
#
# Convention : Reuss Voigt Hill
#
# Bulk Modulus (GPa) = 23.83561 28.02033 25.92797
# Shear Modulus (GPa) = 18.50144 22.33390 20.41767
#
# Velocity S-wave (km/s) = 3.03887 3.33881 3.19237
# Velocity P-wave (km/s) = 4.92039 5.37118 5.15072
#
# Compressibility (1/GPa) = 0.04195403
#
# Stress axis : x y z
#
# Youngs Moduli (GPa) = 46.10172 26.59873 66.49950
#
# Poissons Ratio (x) = 0.15919 0.24275
# Poissons Ratio (y) = 0.27591 0.43558
# Poissons Ratio (z) = 0.16829 0.17422
#
# Static dielectric constant tensor:
#      x y z
#    x 1.687450 0.000000 0.000000 
#    y 0.000000 1.704760 0.000000 
#    z 0.000000 0.000000 1.751890 
# 
# From -- ./inp_files/63678.got.cif
#   From: 2010.05.17/outbox.cif.g08.bks.cpg/sg63_32_cif.got.tgz:63678.got - 2010.06.03 15:47:04.
