data_PCOD9472639
_publ_section_title
;
Structure prediction by ZEFSAII (Michael W. Deem and Ramdas Pophale) SiO2 
 PCOD9472639
Probable space group: C M C M
;
_chemical_formula_sum "Si O2"
_cell_formula_units_Z 96
_cell_length_a 27.910198
_cell_length_b 21.064161
_cell_length_c 7.830239
_cell_angle_alpha 90.000000
_cell_angle_beta 90.000000
_cell_angle_gamma 90.000000
_cell_volume 4603.435909
_symmetry_space_group_name_H-M "C M C M"
_symmetry_group_IT_number 63
_symmetry_cell_setting 'orthorhombic'
loop_
_space_group_symop_operation_xyz
x,y,z
-x,-y,1/2+z
x,-y,-z
-x,y,1/2-z
-x,-y,-z
x,y,1/2-z
-x,y,z
x,-y,1/2+z
1/2+x,1/2+y,z
1/2-x,1/2-y,1/2+z
1/2+x,1/2-y,-z
1/2-x,1/2+y,1/2-z
1/2-x,1/2-y,-z
1/2+x,1/2+y,1/2-z
1/2-x,1/2+y,z
1/2+x,1/2-y,1/2+z
loop_
_atom_site_type_symbol
_atom_site_label
_atom_site_fract_x
_atom_site_fract_y
_atom_site_fract_z
Si Si1 0.053951 0.308079 0.953762
Si Si2 0.887785 0.567299 0.042888
Si Si3 0.324127 0.428037 0.543868
Si Si4 0.113932 0.811163 0.560025
Si Si5 0.714658 0.913946 0.944656
Si Si6 0.302276 0.233924 0.059693
O O1 0.052239 0.316568 0.750000
O O2 0.085944 0.367972 0.016748
O O3 0.000000 0.311777 0.022576
O O4 0.075558 0.237522 0.981267
O O5 0.883784 0.571767 0.250000
O O6 0.833717 0.561770 0.967201
O O7 0.912536 0.500000 0.000000
O O8 0.337874 0.500000 0.500000
O O9 0.322286 0.419398 0.750000
O O10 0.362832 0.375631 0.481536
O O11 0.268573 0.419009 0.481416
O O12 0.096888 0.827285 0.750000
O O13 0.160105 0.765311 0.563763
O O14 0.718812 0.939971 0.750000
O O15 0.699279 0.841006 0.932184
O O16 0.313154 0.258307 0.250000
O O17 0.250000 0.250000 0.000000
#
# Coordination Sequence:
#
# PCOD9472639 Si02
#       6
#    16  16  16  16  16  16
#     4  10  22  41  63  84 108 143 188 237 292 349
#     4  10  20  35  54  79 113 153 190 230 276 325
#     4  10  21  36  53  80 116 152 187 226 273 332
#     4  11  22  37  58  84 114 146 187 239 289 339
#     4   9  17  32  51  74 112 152 185 223 265 313
#     4  11  19  32  53  80 113 150 191 234 276 325
#
# _framework density 20.85399
#
# number of rings (size 3 to 8) (size 9 to 14) (size 15 to 20)
#    0.000    1.833    3.333    1.500    0.000    2.667 
#    0.000    0.000    0.000    0.500    0.000    0.000 
#    0.000    0.000    0.000    0.000    0.000    0.000 
#
# Total GULP energy -267235.284103 kJ/mol
# GULP energy per Si atom -5567.401752 kJ/mol
# Density = 2.080652 g / cm^3
# Si number density = 20.853990 Si / 1000 Ang^3
#
#
#
# Elastic Constant Matrix: (Units=GPa)
#
#
# Indices 1 2 3 4 5 6 
#
# 1 103.0639 59.9207 2.8824 0.0000 0.0000 0.0000
# 2 59.9207 159.2147 7.2195 0.0000 0.0000 0.0000
# 3 2.8824 7.2195 37.0364 0.0000 0.0000 0.0000
# 4 0.0000 0.0000 0.0000 19.3414 0.0000 0.0000
# 5 0.0000 0.0000 0.0000 0.0000 8.5500 0.0000
# 6 0.0000 0.0000 0.0000 0.0000 0.0000 12.9791
#
#
#
# Elastic Compliance Matrix: (Units=1/GPa)
#
#
# Indices 1 2 3 4 5 6 
#
# 1 0.012421 -0.004672 -0.000056 0.000000 0.000000 0.000000
# 2 -0.004672 0.008094 -0.001214 0.000000 0.000000 0.000000
# 3 -0.000056 -0.001214 0.027242 0.000000 0.000000 0.000000
# 4 0.000000 0.000000 0.000000 0.051702 0.000000 0.000000
# 5 0.000000 0.000000 0.000000 0.000000 0.116959 0.000000
# 6 0.000000 0.000000 0.000000 0.000000 0.000000 0.077047
#
#
# Mechanical properties :
#
#
# Convention : Reuss Voigt Hill
#
# Bulk Modulus (GPa) = 27.87685 48.81780 38.34732
# Shear Modulus (GPa) = 15.75765 23.46027 19.60896
#
# Velocity S-wave (km/s) = 2.75183 3.35771 3.06975
# Velocity P-wave (km/s) = 4.84700 6.20423 5.56713
#
# Compressibility (1/GPa) = 0.03587206
#
# Stress axis : x y z
#
# Youngs Moduli (GPa) = 80.51193 123.54556 36.70867
#
# Poissons Ratio (x) = 0.57720 0.00205
# Poissons Ratio (y) = 0.37615 0.04457
# Poissons Ratio (z) = 0.00450 0.15001
#
# Static dielectric constant tensor:
#      x y z
#    x 1.782540 0.000000 0.000000 
#    y 0.000000 1.780270 0.000000 
#    z 0.000000 0.000000 1.788300 
# 
# From -- ./inp_files/12383.got.cif
#   From: 2010.05.17/outbox.cif.g08.bks.cpg/sg63_7_cif.got.tgz:12383.got - 2010.06.03 15:47:04.
