data_PCOD9472925
_publ_section_title
;
Structure prediction by ZEFSAII (Michael W. Deem and Ramdas Pophale) SiO2 
 PCOD9472925
Probable space group: C M C M
;
_chemical_formula_sum "Si O2"
_cell_formula_units_Z 96
_cell_length_a 21.308610
_cell_length_b 9.696799
_cell_length_c 20.045316
_cell_angle_alpha 90.000000
_cell_angle_beta 90.000000
_cell_angle_gamma 90.000000
_cell_volume 4141.869595
_symmetry_space_group_name_H-M "C M C M"
_symmetry_group_IT_number 63
_symmetry_cell_setting 'orthorhombic'
loop_
_space_group_symop_operation_xyz
x,y,z
-x,-y,1/2+z
x,-y,-z
-x,y,1/2-z
-x,-y,-z
x,y,1/2-z
-x,y,z
x,-y,1/2+z
1/2+x,1/2+y,z
1/2-x,1/2-y,1/2+z
1/2+x,1/2-y,-z
1/2-x,1/2+y,1/2-z
1/2-x,1/2-y,-z
1/2+x,1/2+y,1/2-z
1/2-x,1/2+y,z
1/2+x,1/2-y,1/2+z
loop_
_atom_site_type_symbol
_atom_site_label
_atom_site_fract_x
_atom_site_fract_y
_atom_site_fract_z
Si Si1 0.595594 0.674691 0.321190
Si Si2 0.924440 0.857757 0.035276
Si Si3 0.928210 0.854022 0.178803
Si Si4 0.703160 0.004668 0.419956
Si Si5 0.068802 0.383595 0.432849
Si Si6 0.739978 0.258518 0.669444
O O1 0.582073 0.738760 0.250000
O O2 0.570535 0.520411 0.321775
O O3 0.566636 0.771215 0.375194
O O4 0.670347 0.673630 0.330216
O O5 0.896922 0.828432 0.108150
O O6 0.000000 0.878753 0.042729
O O7 0.916623 0.719050 0.993896
O O8 0.901119 0.000000 0.000000
O O9 0.899818 0.810782 0.250000
O O10 0.000000 0.801828 0.178065
O O11 0.719661 0.139522 0.376960
O O12 0.722465 0.000000 0.500000
O O13 0.628171 0.979055 0.420857
O O14 0.732463 0.881797 0.373881
O O15 0.000000 0.450258 0.436450
O O16 0.755497 0.241195 0.750000
#
# Coordination Sequence:
#
# PCOD9472925 Si02
#       6
#    16  16  16  16  16  16
#     4   9  17  30  51  86 125 166 217 275 333 394
#     4   9  15  26  45  75 118 166 216 266 326 397
#     4   9  15  24  42  72 114 159 208 270 333 390
#     4  11  24  45  69 104 139 180 234 292 344 407
#     4  10  20  35  59  93 132 178 222 273 341 415
#     4  10  22  44  71  97 134 181 232 285 347 413
#
# _framework density 23.177938000000001
#
# number of rings (size 3 to 8) (size 9 to 14) (size 15 to 20)
#    0.000    2.333    1.667    1.500    0.000    2.000 
#    9.000    0.000    0.000    1.000    0.000    1.167 
#    0.000    4.000    0.000    0.000    0.000    0.000 
#
# Total GULP energy -267710.090109 kJ/mol
# GULP energy per Si atom -5577.293544 kJ/mol
# Density = 2.312518 g / cm^3
# Si number density = 23.177938 Si / 1000 Ang^3
#
#
#
# Elastic Constant Matrix: (Units=GPa)
#
#
# Indices 1 2 3 4 5 6 
#
# 1 102.5409 58.1958 56.9953 0.0000 0.0000 0.0000
# 2 58.1958 88.9118 58.2378 0.0000 0.0000 0.0000
# 3 56.9953 58.2378 237.3115 0.0000 0.0000 0.0000
# 4 0.0000 0.0000 0.0000 23.9378 0.0000 0.0000
# 5 0.0000 0.0000 0.0000 0.0000 21.1061 0.0000
# 6 0.0000 0.0000 0.0000 0.0000 0.0000 10.1722
#
#
#
# Elastic Compliance Matrix: (Units=1/GPa)
#
#
# Indices 1 2 3 4 5 6 
#
# 1 0.015959 -0.009455 -0.001513 0.000000 0.000000 0.000000
# 2 -0.009455 0.019003 -0.002393 0.000000 0.000000 0.000000
# 3 -0.001513 -0.002393 0.005164 0.000000 0.000000 0.000000
# 4 0.000000 0.000000 0.000000 0.041775 0.000000 0.000000
# 5 0.000000 0.000000 0.000000 0.000000 0.047380 0.000000
# 6 0.000000 0.000000 0.000000 0.000000 0.000000 0.098307
#
#
# Mechanical properties :
#
#
# Convention : Reuss Voigt Hill
#
# Bulk Modulus (GPa) = 74.59423 86.18022 80.38723
# Shear Modulus (GPa) = 19.32165 28.06557 23.69361
#
# Velocity S-wave (km/s) = 2.89038 3.48354 3.20073
# Velocity P-wave (km/s) = 6.58728 7.31046 6.95827
#
# Compressibility (1/GPa) = 0.01340586
#
# Stress axis : x y z
#
# Youngs Moduli (GPa) = 62.66060 52.62362 193.63658
#
# Poissons Ratio (x) = 0.49755 0.29289
# Poissons Ratio (y) = 0.59245 0.46330
# Poissons Ratio (z) = 0.09478 0.12591
#
# Static dielectric constant tensor:
#      x y z
#    x 1.877590 0.000000 0.000000 
#    y 0.000000 1.822400 0.000000 
#    z 0.000000 0.000000 2.027130 
# 
# From -- ./inp_files/56566.got.cif
#   From: 2010.05.17/outbox.cif.g08.bks.cpg/sg63_29_cif.got.tgz:56566.got - 2010.06.03 15:47:04.
