data_PCOD9472457
_publ_section_title
;
Structure prediction by ZEFSAII (Michael W. Deem and Ramdas Pophale) SiO2 
 PCOD9472457
Probable space group: C M C M
;
_chemical_formula_sum "Si O2"
_cell_formula_units_Z 96
_cell_length_a 13.079503
_cell_length_b 21.443386
_cell_length_c 17.256032
_cell_angle_alpha 90.000000
_cell_angle_beta 90.000000
_cell_angle_gamma 90.000000
_cell_volume 4839.779132
_symmetry_space_group_name_H-M "C M C M"
_symmetry_group_IT_number 63
_symmetry_cell_setting 'orthorhombic'
loop_
_space_group_symop_operation_xyz
x,y,z
-x,-y,1/2+z
x,-y,-z
-x,y,1/2-z
-x,-y,-z
x,y,1/2-z
-x,y,z
x,-y,1/2+z
1/2+x,1/2+y,z
1/2-x,1/2-y,1/2+z
1/2+x,1/2-y,-z
1/2-x,1/2+y,1/2-z
1/2-x,1/2-y,-z
1/2+x,1/2+y,1/2-z
1/2-x,1/2+y,z
1/2+x,1/2-y,1/2+z
loop_
_atom_site_type_symbol
_atom_site_label
_atom_site_fract_x
_atom_site_fract_y
_atom_site_fract_z
Si Si1 0.839171 0.212533 0.542451
Si Si2 0.673141 0.487692 0.590373
Si Si3 0.661283 0.812482 0.662852
Si Si4 0.618619 0.383388 0.339235
Si Si5 0.888756 0.154102 0.382073
Si Si6 0.614867 0.042172 0.158477
O O1 0.750000 0.250000 0.500000
O O2 0.882786 0.265434 0.599488
O O3 0.813223 0.156792 0.601838
O O4 0.892935 0.179506 0.470264
O O5 0.653047 0.500000 0.500000
O O6 0.627532 0.544177 0.639503
O O7 0.629725 0.420340 0.614574
O O8 0.794428 0.486088 0.608027
O O9 0.635148 0.792817 0.750000
O O10 0.785770 0.816850 0.654950
O O11 0.622789 0.882833 0.650569
O O12 0.645840 0.373101 0.250000
O O13 0.500000 0.364444 0.351392
O O14 0.000000 0.167252 0.346116
O O15 0.633010 0.028709 0.250000
O O16 0.500000 0.021995 0.138474
#
# Coordination Sequence:
#
# PCOD9472457 Si02
#       6
#    16  16  16  16  16  16
#     4  10  20  35  55  78 109 148 190 233 279 332
#     4  11  21  35  57  82 117 151 188 233 285 339
#     4   9  19  35  55  80 108 142 185 233 283 333
#     4  11  23  37  58  89 120 152 190 234 287 343
#     4  10  20  34  55  83 115 150 186 228 280 340
#     4   9  19  36  56  78 106 142 185 234 286 339
#
# _framework density 19.835616000000002
#
# number of rings (size 3 to 8) (size 9 to 14) (size 15 to 20)
#    0.000    2.000    1.667    2.000    0.000    3.333 
#    0.000    1.667    0.000    1.000    0.000    0.000 
#    0.000    0.000    0.000    0.000    0.000    0.000 
#
# Total GULP energy -267690.167173 kJ/mol
# GULP energy per Si atom -5576.878483 kJ/mol
# Density = 1.979047 g / cm^3
# Si number density = 19.835616 Si / 1000 Ang^3
#
#
#
# Elastic Constant Matrix: (Units=GPa)
#
#
# Indices 1 2 3 4 5 6 
#
# 1 95.6789 13.8507 12.0113 0.0000 0.0000 0.0000
# 2 13.8507 74.7431 27.0007 0.0000 0.0000 0.0000
# 3 12.0113 27.0007 87.4537 0.0000 0.0000 0.0000
# 4 0.0000 0.0000 0.0000 7.1470 0.0000 0.0000
# 5 0.0000 0.0000 0.0000 0.0000 7.1352 0.0000
# 6 0.0000 0.0000 0.0000 0.0000 0.0000 169.7370
#
#
#
# Elastic Compliance Matrix: (Units=1/GPa)
#
#
# Indices 1 2 3 4 5 6 
#
# 1 0.010813 -0.001651 -0.000975 0.000000 0.000000 0.000000
# 2 -0.001651 0.015311 -0.004500 0.000000 0.000000 0.000000
# 3 -0.000975 -0.004500 0.012958 0.000000 0.000000 0.000000
# 4 0.000000 0.000000 0.000000 0.139918 0.000000 0.000000
# 5 0.000000 0.000000 0.000000 0.000000 0.140151 0.000000
# 6 0.000000 0.000000 0.000000 0.000000 0.000000 0.005891
#
#
# Mechanical properties :
#
#
# Convention : Reuss Voigt Hill
#
# Bulk Modulus (GPa) = 40.27714 40.40012 40.33863
# Shear Modulus (GPa) = 14.38548 50.47136 32.42842
#
# Velocity S-wave (km/s) = 2.69594 5.04976 4.04772
# Velocity P-wave (km/s) = 5.48091 7.37643 6.49816
#
# Compressibility (1/GPa) = 0.02482798
#
# Stress axis : x y z
#
# Youngs Moduli (GPa) = 92.48014 65.31281 77.17230
#
# Poissons Ratio (x) = 0.10786 0.07526
# Poissons Ratio (y) = 0.15273 0.34730
# Poissons Ratio (z) = 0.09019 0.29393
#
# Static dielectric constant tensor:
#      x y z
#    x 1.720480 0.000000 0.000000 
#    y 0.000000 1.682660 0.000000 
#    z 0.000000 0.000000 1.690090 
# 
# From -- ./inp_files/52859.got.cif
#   From: 2010.05.17/outbox.cif.g08.bks.cpg/sg63_27_cif.got.tgz:52859.got - 2010.06.03 15:47:04.
