data_PCOD9472320
_publ_section_title
;
Structure prediction by ZEFSAII (Michael W. Deem and Ramdas Pophale) SiO2 
 PCOD9472320
Probable space group: C M C M
;
_chemical_formula_sum "Si O2"
_cell_formula_units_Z 112
_cell_length_a 29.967806
_cell_length_b 5.271184
_cell_length_c 32.251962
_cell_angle_alpha 90.000000
_cell_angle_beta 90.000000
_cell_angle_gamma 90.000000
_cell_volume 5094.707608
_symmetry_space_group_name_H-M "C M C M"
_symmetry_group_IT_number 63
_symmetry_cell_setting 'orthorhombic'
loop_
_space_group_symop_operation_xyz
x,y,z
-x,-y,1/2+z
x,-y,-z
-x,y,1/2-z
-x,-y,-z
x,y,1/2-z
-x,y,z
x,-y,1/2+z
1/2+x,1/2+y,z
1/2-x,1/2-y,1/2+z
1/2+x,1/2-y,-z
1/2-x,1/2+y,1/2-z
1/2-x,1/2-y,-z
1/2+x,1/2+y,1/2-z
1/2-x,1/2+y,z
1/2+x,1/2-y,1/2+z
loop_
_atom_site_type_symbol
_atom_site_label
_atom_site_fract_x
_atom_site_fract_y
_atom_site_fract_z
Si Si1 0.919329 0.526243 0.045547
Si Si2 0.625303 0.378242 0.340393
Si Si3 0.771712 0.987017 0.450424
Si Si4 0.628416 0.541929 0.069655
Si Si5 0.547408 0.978055 0.631319
Si Si6 0.451492 0.626523 0.205127
Si Si7 0.779335 0.777803 0.299852
O O1 0.904899 0.817970 0.054293
O O2 0.949287 0.435958 0.083938
O O3 0.880008 0.314051 0.048293
O O4 0.939159 0.500000 0.000000
O O5 0.628238 0.565200 0.380194
O O6 0.593805 0.474861 0.303100
O O7 0.673836 0.300359 0.324241
O O8 0.593485 0.162526 0.359374
O O9 0.743165 0.756511 0.432755
O O10 0.823170 0.941650 0.442411
O O11 0.764480 0.000000 0.500000
O O12 0.500000 0.831382 0.634065
O O13 0.545733 0.190549 0.666098
O O14 0.447851 0.757774 0.250000
O O15 0.500000 0.488930 0.206439
O O16 0.788336 0.780579 0.250000
O O17 0.752134 0.520320 0.309136
#
# Coordination Sequence:
#
# PCOD9472320 Si02
#       7
#    16  16  16  16  16  16  16
#     4  11  22  40  64  91 127 176 220 269 329 395
#     4  11  23  40  66  92 133 175 221 270 342 394
#     4  10  20  34  53  80 115 156 204 264 325 379
#     4  11  23  38  61  91 126 165 221 274 326 398
#     4  10  23  42  64  98 137 172 225 285 334 404
#     4  10  21  39  65  96 131 170 215 271 334 401
#     4  10  24  43  65  96 133 175 226 280 329 395
#
# _framework density 21.983599000000002
#
# number of rings (size 3 to 8) (size 9 to 14) (size 15 to 20)
#    0.000    1.571    1.429    3.000    2.000    3.714 
#    0.000    1.429    0.000    2.571    0.000    0.000 
#    0.000    0.000    0.000    0.000    0.000    0.000 
#
# Total GULP energy -312191.205886 kJ/mol
# GULP energy per Si atom -5574.842962 kJ/mol
# Density = 2.193356 g / cm^3
# Si number density = 21.983599 Si / 1000 Ang^3
#
#
#
# Elastic Constant Matrix: (Units=GPa)
#
#
# Indices 1 2 3 4 5 6 
#
# 1 106.3763 33.1712 27.6897 0.0000 0.0000 0.0000
# 2 33.1712 50.4858 35.7896 0.0000 0.0000 0.0000
# 3 27.6897 35.7896 130.7944 0.0000 0.0000 0.0000
# 4 0.0000 0.0000 0.0000 16.1195 0.0000 0.0000
# 5 0.0000 0.0000 0.0000 0.0000 16.6258 0.0000
# 6 0.0000 0.0000 0.0000 0.0000 0.0000 30.1230
#
#
#
# Elastic Compliance Matrix: (Units=1/GPa)
#
#
# Indices 1 2 3 4 5 6 
#
# 1 0.011846 -0.007451 -0.000469 0.000000 0.000000 0.000000
# 2 -0.007451 0.029261 -0.006429 0.000000 0.000000 0.000000
# 3 -0.000469 -0.006429 0.009504 0.000000 0.000000 0.000000
# 4 0.000000 0.000000 0.000000 0.062037 0.000000 0.000000
# 5 0.000000 0.000000 0.000000 0.000000 0.060148 0.000000
# 6 0.000000 0.000000 0.000000 0.000000 0.000000 0.033197
#
#
# Mechanical properties :
#
#
# Convention : Reuss Voigt Hill
#
# Bulk Modulus (GPa) = 45.63588 53.43973 49.53780
# Shear Modulus (GPa) = 20.66155 25.30737 22.98446
#
# Velocity S-wave (km/s) = 3.06904 3.39660 3.23697
# Velocity P-wave (km/s) = 5.77606 6.30430 6.04595
#
# Compressibility (1/GPa) = 0.02191259
#
# Stress axis : x y z
#
# Youngs Moduli (GPa) = 84.41621 34.17543 105.21695
#
# Poissons Ratio (x) = 0.25463 0.04936
# Poissons Ratio (y) = 0.62897 0.67648
# Poissons Ratio (z) = 0.03960 0.21973
#
# Static dielectric constant tensor:
#      x y z
#    x 1.797400 0.000000 0.000000 
#    y 0.000000 1.829030 0.000000 
#    z 0.000000 0.000000 1.838260 
# 
# From -- ./inp_files/74519.got.cif
#   From: 2010.05.17/outbox.cif.g08.bks.cpg/sg63_38_cif.got.tgz:74519.got - 2010.06.03 15:47:04.
