data_PCOD9472446
_publ_section_title
;
Structure prediction by ZEFSAII (Michael W. Deem and Ramdas Pophale) SiO2 
 PCOD9472446
Probable space group: C M C M
;
_chemical_formula_sum "Si O2"
_cell_formula_units_Z 64
_cell_length_a 10.741917
_cell_length_b 19.857166
_cell_length_c 14.255174
_cell_angle_alpha 90.000000
_cell_angle_beta 90.000000
_cell_angle_gamma 90.000000
_cell_volume 3040.686049
_symmetry_space_group_name_H-M "C M C M"
_symmetry_group_IT_number 63
_symmetry_cell_setting 'orthorhombic'
loop_
_space_group_symop_operation_xyz
x,y,z
-x,-y,1/2+z
x,-y,-z
-x,y,1/2-z
-x,-y,-z
x,y,1/2-z
-x,y,z
x,-y,1/2+z
1/2+x,1/2+y,z
1/2-x,1/2-y,1/2+z
1/2+x,1/2-y,-z
1/2-x,1/2+y,1/2-z
1/2-x,1/2-y,-z
1/2+x,1/2+y,1/2-z
1/2-x,1/2+y,z
1/2+x,1/2-y,1/2+z
loop_
_atom_site_type_symbol
_atom_site_label
_atom_site_fract_x
_atom_site_fract_y
_atom_site_fract_z
Si Si1 0.641300 0.748115 0.140848
Si Si2 0.788014 0.611027 0.353170
Si Si3 0.863455 0.014431 0.610330
Si Si4 0.140542 0.392981 0.063078
O O1 0.644243 0.769475 0.250000
O O2 0.500000 0.725305 0.119349
O O3 0.733031 0.685531 0.132068
O O4 0.667034 0.814029 0.079923
O O5 0.850765 0.609082 0.250000
O O6 0.676710 0.556896 0.348083
O O7 0.855878 0.592932 0.450820
O O8 0.747509 0.065556 0.616753
O O9 0.000000 0.037964 0.642280
O O10 0.873055 0.000000 0.500000
O O11 0.000000 0.407201 0.097108
#
# Coordination Sequence:
#
# PCOD9472446 Si02
#       4
#    16  16  16  16
#     4   9  18  34  56  81 109 144 187 232 279 330
#     4  10  20  34  55  82 112 147 187 230 275 327
#     4   9  19  35  55  79 106 139 182 230 277 326
#     4  10  21  37  57  82 114 149 183 225 279 337
#
# _framework density 21.047881
#
# number of rings (size 3 to 8) (size 9 to 14) (size 15 to 20)
#    0.000    2.500    0.000    1.500    0.000    8.500 
#    0.000    1.250    0.000    1.500    0.000    0.000 
#    0.000    0.000    0.000    0.000    0.000    0.000 
#
# Total GULP energy -178310.659162 kJ/mol
# GULP energy per Si atom -5572.208099 kJ/mol
# Density = 2.099997 g / cm^3
# Si number density = 21.047881 Si / 1000 Ang^3
#
#
#
# Elastic Constant Matrix: (Units=GPa)
#
#
# Indices 1 2 3 4 5 6 
#
# 1 133.4266 62.4469 14.8662 0.0000 0.0000 0.0000
# 2 62.4469 74.5751 12.9897 0.0000 0.0000 0.0000
# 3 14.8662 12.9897 72.4578 0.0000 0.0000 0.0000
# 4 0.0000 0.0000 0.0000 106.8555 0.0000 0.0000
# 5 0.0000 0.0000 0.0000 0.0000 -5.9517 0.0000
# 6 0.0000 0.0000 0.0000 0.0000 0.0000 8.8209
#
#
#
# Elastic Compliance Matrix: (Units=1/GPa)
#
#
# Indices 1 2 3 4 5 6 
#
# 1 0.012360 -0.010227 -0.000702 0.000000 0.000000 0.000000
# 2 -0.010227 0.022304 -0.001900 0.000000 0.000000 0.000000
# 3 -0.000702 -0.001900 0.014286 0.000000 0.000000 0.000000
# 4 0.000000 0.000000 0.000000 0.009358 0.000000 0.000000
# 5 0.000000 0.000000 0.000000 0.000000 -0.168020 0.000000
# 6 0.000000 0.000000 0.000000 0.000000 0.000000 0.113367
#
#
# Mechanical properties :
#
#
# Convention : Reuss Voigt Hill
#
# Bulk Modulus (GPa) = 42.93660 51.22946 47.08303
# Shear Modulus (GPa) = 134.85009 34.62206 84.73608
#
# Velocity S-wave (km/s) = 8.01295 4.06016 6.35186
# Velocity P-wave (km/s) = 10.29823 6.80971 8.73000
#
# Compressibility (1/GPa) = 0.02329015
#
# Stress axis : x y z
#
# Youngs Moduli (GPa) = 80.90885 44.83452 69.99911
#
# Poissons Ratio (x) = 0.45853 0.04917
# Poissons Ratio (y) = 0.82747 0.13301
# Poissons Ratio (z) = 0.05683 0.08520
#
# Static dielectric constant tensor:
#      x y z
#    x 1.778650 0.000000 0.000000 
#    y 0.000000 1.720700 0.000000 
#    z 0.000000 0.000000 1.830660 
# 
# From -- ./inp_files/29122.got.cif
#   From: 2010.05.17/outbox.cif.g08.bks.cpg/sg63_15_cif.got.tgz:29122.got - 2010.06.03 15:47:04.
