data_PCOD9472111
_publ_section_title
;
Structure prediction by ZEFSAII (Michael W. Deem and Ramdas Pophale) SiO2 
 PCOD9472111
Probable space group: C M C M
;
_chemical_formula_sum "Si O2"
_cell_formula_units_Z 80
_cell_length_a 7.587380
_cell_length_b 27.795081
_cell_length_c 20.817937
_cell_angle_alpha 90.000000
_cell_angle_beta 90.000000
_cell_angle_gamma 90.000000
_cell_volume 4390.333074
_symmetry_space_group_name_H-M "C M C M"
_symmetry_group_IT_number 63
_symmetry_cell_setting 'orthorhombic'
loop_
_space_group_symop_operation_xyz
x,y,z
-x,-y,1/2+z
x,-y,-z
-x,y,1/2-z
-x,-y,-z
x,y,1/2-z
-x,y,z
x,-y,1/2+z
1/2+x,1/2+y,z
1/2-x,1/2-y,1/2+z
1/2+x,1/2-y,-z
1/2-x,1/2+y,1/2-z
1/2-x,1/2-y,-z
1/2+x,1/2+y,1/2-z
1/2-x,1/2+y,z
1/2+x,1/2-y,1/2+z
loop_
_atom_site_type_symbol
_atom_site_label
_atom_site_fract_x
_atom_site_fract_y
_atom_site_fract_z
Si Si1 0.797790 0.109358 0.628480
Si Si2 0.713976 0.216000 0.822912
Si Si3 0.211021 0.110874 0.475315
Si Si4 0.000000 0.461388 0.176605
Si Si5 0.289045 0.282447 0.562093
Si Si6 0.000000 0.464445 0.938798
O O1 0.773041 0.163063 0.655464
O O2 0.758819 0.110340 0.552211
O O3 0.667237 0.072777 0.662794
O O4 0.000000 0.094725 0.637100
O O5 0.770000 0.225784 0.750000
O O6 0.500000 0.215804 0.824180
O O7 0.777452 0.255040 0.874725
O O8 0.270449 0.163030 0.449271
O O9 0.328035 0.069226 0.444518
O O10 0.000000 0.104992 0.464929
O O11 0.000000 0.477795 0.250000
O O12 0.000000 0.504226 0.125422
O O13 0.500000 0.285241 0.567457
O O14 0.250000 0.250000 0.500000
O O15 0.000000 0.500000 0.000000
#
# Coordination Sequence:
#
# PCOD9472111 Si02
#       6
#    16  16  16   8  16   8
#     4  11  21  36  61  91 124 154 194 254 310 358
#     4  10  20  34  54  83 122 164 199 238 293 357
#     4  10  22  39  61  94 122 149 203 257 297 353
#     4  12  26  44  62  90 124 158 200 254 312 363
#     4  10  20  33  55  84 119 157 195 239 289 349
#     4  12  24  42  68  88 116 162 204 252 312 359
#
# _framework density 18.221851000000001
#
# number of rings (size 3 to 8) (size 9 to 14) (size 15 to 20)
#    0.000    1.400    5.000    0.600    1.400    2.800 
#    0.000    1.000    0.000    1.200    0.000    0.000 
#    0.000    0.000    0.000    0.000    0.000    0.000 
#
# Total GULP energy -223539.580652 kJ/mol
# GULP energy per Si atom -5588.489516 kJ/mol
# Density = 1.818038 g / cm^3
# Si number density = 18.221851 Si / 1000 Ang^3
#
#
#
# Elastic Constant Matrix: (Units=GPa)
#
#
# Indices 1 2 3 4 5 6 
#
# 1 66.9198 43.1367 46.7711 0.0000 0.0000 0.0000
# 2 43.1367 142.5173 82.5199 0.0000 0.0000 0.0000
# 3 46.7711 82.5199 159.9847 0.0000 0.0000 0.0000
# 4 0.0000 0.0000 0.0000 13.3563 0.0000 0.0000
# 5 0.0000 0.0000 0.0000 0.0000 12.6784 0.0000
# 6 0.0000 0.0000 0.0000 0.0000 0.0000 16.6431
#
#
#
# Elastic Compliance Matrix: (Units=1/GPa)
#
#
# Indices 1 2 3 4 5 6 
#
# 1 0.020149 -0.003833 -0.003914 0.000000 0.000000 0.000000
# 2 -0.003833 0.010734 -0.004416 0.000000 0.000000 0.000000
# 3 -0.003914 -0.004416 0.009673 0.000000 0.000000 0.000000
# 4 0.000000 0.000000 0.000000 0.074871 0.000000 0.000000
# 5 0.000000 0.000000 0.000000 0.000000 0.078875 0.000000
# 6 0.000000 0.000000 0.000000 0.000000 0.000000 0.060085
#
#
# Mechanical properties :
#
#
# Convention : Reuss Voigt Hill
#
# Bulk Modulus (GPa) = 61.61137 79.36415 70.48776
# Shear Modulus (GPa) = 17.59816 21.66848 19.63332
#
# Velocity S-wave (km/s) = 3.11106 3.45214 3.28603
# Velocity P-wave (km/s) = 6.84033 7.71613 7.29139
#
# Compressibility (1/GPa) = 0.01623077
#
# Stress axis : x y z
#
# Youngs Moduli (GPa) = 49.63008 93.16510 103.38579
#
# Poissons Ratio (x) = 0.35706 0.40462
# Poissons Ratio (y) = 0.19021 0.45655
# Poissons Ratio (z) = 0.19424 0.41141
#
# Static dielectric constant tensor:
#      x y z
#    x 1.629550 0.000000 0.000000 
#    y 0.000000 1.597740 0.000000 
#    z 0.000000 0.000000 1.612790 
# 
# From -- ./inp_files/50969.got.cif
#   From: 2010.05.17/outbox.cif.g08.bks.cpg/sg63_26_cif.got.tgz:50969.got - 2010.06.03 15:47:04.
