data_PCOD9472914
_publ_section_title
;
Structure prediction by ZEFSAII (Michael W. Deem and Ramdas Pophale) SiO2 
 PCOD9472914
Probable space group: C M C M
;
_chemical_formula_sum "Si O2"
_cell_formula_units_Z 80
_cell_length_a 8.898679
_cell_length_b 19.657272
_cell_length_c 23.036717
_cell_angle_alpha 90.000000
_cell_angle_beta 90.000000
_cell_angle_gamma 90.000000
_cell_volume 4029.669007
_symmetry_space_group_name_H-M "C M C M"
_symmetry_group_IT_number 63
_symmetry_cell_setting 'orthorhombic'
loop_
_space_group_symop_operation_xyz
x,y,z
-x,-y,1/2+z
x,-y,-z
-x,y,1/2-z
-x,-y,-z
x,y,1/2-z
-x,y,z
x,-y,1/2+z
1/2+x,1/2+y,z
1/2-x,1/2-y,1/2+z
1/2+x,1/2-y,-z
1/2-x,1/2+y,1/2-z
1/2-x,1/2-y,-z
1/2+x,1/2+y,1/2-z
1/2-x,1/2+y,z
1/2+x,1/2-y,1/2+z
loop_
_atom_site_type_symbol
_atom_site_label
_atom_site_fract_x
_atom_site_fract_y
_atom_site_fract_z
Si Si1 0.318117 0.429027 0.250000
Si Si2 0.818796 0.580180 0.250000
Si Si3 0.324802 0.533191 0.438772
Si Si4 0.321503 0.152002 0.370819
Si Si5 0.175454 0.107387 0.875385
Si Si6 0.822053 0.728178 0.938879
O O1 0.500000 0.434587 0.250000
O O2 0.252505 0.505207 0.250000
O O3 0.274240 0.389823 0.308610
O O4 0.777283 0.621684 0.308074
O O5 0.000000 0.572507 0.250000
O O6 0.282516 0.500000 0.500000
O O7 0.500000 0.555583 0.442985
O O8 0.223693 0.594876 0.417863
O O9 0.315765 0.471552 0.393242
O O10 0.500000 0.163643 0.371071
O O11 0.237201 0.219966 0.389803
O O12 0.268738 0.153906 0.918710
O O13 0.000000 0.127758 0.879796
O O14 0.000000 0.731553 0.943986
O O15 0.750000 0.750000 0.000000
#
# Coordination Sequence:
#
# PCOD9472914 Si02
#       6
#     8   8  16  16  16  16
#     4  10  20  37  64  93 125 167 207 253 308 367
#     4  10  22  39  62  93 129 165 205 259 308 359
#     4  10  20  35  59  90 122 159 206 256 308 367
#     4  11  23  40  63  91 125 165 208 255 309 366
#     4  10  21  38  61  91 127 165 207 254 309 368
#     4  12  26  44  65  90 124 164 207 258 314 373
#
# _framework density 19.852747999999998
#
# number of rings (size 3 to 8) (size 9 to 14) (size 15 to 20)
#    0.000    1.400    2.000    3.600    0.000    5.200 
#    0.000    4.000    0.000    0.000    0.000    0.000 
#    0.000    0.000    0.000    0.000    0.000    0.000 
#
# Total GULP energy -223635.820196 kJ/mol
# GULP energy per Si atom -5590.895505 kJ/mol
# Density = 1.980756 g / cm^3
# Si number density = 19.852748 Si / 1000 Ang^3
#
#
#
# Elastic Constant Matrix: (Units=GPa)
#
#
# Indices 1 2 3 4 5 6 
#
# 1 69.2475 21.1352 11.4212 0.0000 0.0000 0.0000
# 2 21.1352 43.2877 -14.3743 0.0000 0.0000 0.0000
# 3 11.4212 -14.3743 71.8256 0.0000 0.0000 0.0000
# 4 0.0000 0.0000 0.0000 29.5996 0.0000 0.0000
# 5 0.0000 0.0000 0.0000 0.0000 25.0343 0.0000
# 6 0.0000 0.0000 0.0000 0.0000 0.0000 34.1974
#
#
#
# Elastic Compliance Matrix: (Units=1/GPa)
#
#
# Indices 1 2 3 4 5 6 
#
# 1 0.018568 -0.010761 -0.005106 0.000000 0.000000 0.000000
# 2 -0.010761 0.030983 0.007912 0.000000 0.000000 0.000000
# 3 -0.005106 0.007912 0.016318 0.000000 0.000000 0.000000
# 4 0.000000 0.000000 0.000000 0.033784 0.000000 0.000000
# 5 0.000000 0.000000 0.000000 0.000000 0.039945 0.000000
# 6 0.000000 0.000000 0.000000 0.000000 0.000000 0.029242
#
#
# Mechanical properties :
#
#
# Convention : Reuss Voigt Hill
#
# Bulk Modulus (GPa) = 20.01730 24.52499 22.27115
# Shear Modulus (GPa) = 24.82587 28.84485 26.83536
#
# Velocity S-wave (km/s) = 3.54008 3.81588 3.68056
# Velocity P-wave (km/s) = 5.17825 5.63869 5.41337
#
# Compressibility (1/GPa) = 0.04995679
#
# Stress axis : x y z
#
# Youngs Moduli (GPa) = 53.85744 32.27622 61.28251
#
# Poissons Ratio (x) = 0.34733 0.31291
# Poissons Ratio (y) = 0.57957 -0.48484
# Poissons Ratio (z) = 0.27500 -0.25536
#
# Static dielectric constant tensor:
#      x y z
#    x 1.672650 0.000000 0.000000 
#    y 0.000000 1.680860 0.000000 
#    z 0.000000 0.000000 1.733480 
# 
# From -- ./inp_files/59531.got.cif
#   From: 2010.05.17/outbox.cif.g08.bks.cpg/sg63_30_cif.got.tgz:59531.got - 2010.06.03 15:47:04.
