data_PCOD9472482
_publ_section_title
;
Structure prediction by ZEFSAII (Michael W. Deem and Ramdas Pophale) SiO2 
 PCOD9472482
Probable space group: C M C M
;
_chemical_formula_sum "Si O2"
_cell_formula_units_Z 84
_cell_length_a 14.616839
_cell_length_b 24.445222
_cell_length_c 13.636552
_cell_angle_alpha 90.000000
_cell_angle_beta 90.000000
_cell_angle_gamma 90.000000
_cell_volume 4872.501954
_symmetry_space_group_name_H-M "C M C M"
_symmetry_group_IT_number 63
_symmetry_cell_setting 'orthorhombic'
loop_
_space_group_symop_operation_xyz
x,y,z
-x,-y,1/2+z
x,-y,-z
-x,y,1/2-z
-x,-y,-z
x,y,1/2-z
-x,y,z
x,-y,1/2+z
1/2+x,1/2+y,z
1/2-x,1/2-y,1/2+z
1/2+x,1/2-y,-z
1/2-x,1/2+y,1/2-z
1/2-x,1/2-y,-z
1/2+x,1/2+y,1/2-z
1/2-x,1/2+y,z
1/2+x,1/2-y,1/2+z
loop_
_atom_site_type_symbol
_atom_site_label
_atom_site_fract_x
_atom_site_fract_y
_atom_site_fract_z
Si Si1 0.500000 0.585886 0.250000
Si Si2 0.000000 0.778052 0.042549
Si Si3 0.000000 0.897379 0.965093
Si Si4 0.804885 0.664741 0.949923
Si Si5 0.313312 0.444797 0.046072
Si Si6 0.186769 0.261933 0.636368
Si Si7 0.000000 0.307917 0.369448
Si Si8 0.896477 0.978061 0.250000
O O1 0.500000 0.617814 0.350609
O O2 0.414950 0.543251 0.250000
O O3 0.088219 0.760230 0.103220
O O4 0.000000 0.747887 0.935915
O O5 0.000000 0.842575 0.027659
O O6 0.907872 0.930683 0.988694
O O7 0.752121 0.607541 0.949916
O O8 0.756125 0.712153 0.885573
O O9 0.907994 0.661977 0.908013
O O10 0.796931 0.688597 0.060608
O O11 0.344589 0.459039 0.154954
O O12 0.272143 0.500000 0.000000
O O13 0.190407 0.277317 0.750000
O O14 0.000000 0.301383 0.250000
O O15 0.000000 0.954516 0.250000
#
# Coordination Sequence:
#
# PCOD9472482 Si02
#       8
#     4   8   8  16  16  16   8   8
#     4  10  20  36  52  82 124 178 182 212 286 362
#     4  10  21  34  59  90 116 145 191 224 294 357
#     4  12  20  37  54  87 131 153 187 229 281 356
#     4  10  23  38  58  85 112 150 201 239 294 341
#     4  12  22  39  58  86 122 154 191 244 279 346
#     4  10  20  39  58  85 115 149 190 240 289 354
#     4  10  22  41  56  79 112 151 187 251 294 332
#     4  10  20  34  56  80 114 166 190 218 282 342
#
# _framework density 17.239602000000001
#
# number of rings (size 3 to 8) (size 9 to 14) (size 15 to 20)
#    0.286    1.143    4.762    1.143    3.333    0.000 
#    5.143    0.476    0.000    0.000    0.000    0.000 
#    0.000    0.000    0.000    0.000    0.000    0.000 
#
# Total GULP energy -234268.834332 kJ/mol
# GULP energy per Si atom -5577.829389 kJ/mol
# Density = 1.720036 g / cm^3
# Si number density = 17.239602 Si / 1000 Ang^3
#
#
#
# Elastic Constant Matrix: (Units=GPa)
#
#
# Indices 1 2 3 4 5 6 
#
# 1 99.9796 33.2370 23.4020 0.0000 0.0000 0.0000
# 2 33.2370 74.2852 23.5055 0.0000 0.0000 0.0000
# 3 23.4020 23.5055 141.9636 0.0000 0.0000 0.0000
# 4 0.0000 0.0000 0.0000 11.3041 0.0000 0.0000
# 5 0.0000 0.0000 0.0000 0.0000 15.3305 0.0000
# 6 0.0000 0.0000 0.0000 0.0000 0.0000 65.4893
#
#
#
# Elastic Compliance Matrix: (Units=1/GPa)
#
#
# Indices 1 2 3 4 5 6 
#
# 1 0.011923 -0.004973 -0.001142 0.000000 0.000000 0.000000
# 2 -0.004973 0.016280 -0.001876 0.000000 0.000000 0.000000
# 3 -0.001142 -0.001876 0.007543 0.000000 0.000000 0.000000
# 4 0.000000 0.000000 0.000000 0.088463 0.000000 0.000000
# 5 0.000000 0.000000 0.000000 0.000000 0.065229 0.000000
# 6 0.000000 0.000000 0.000000 0.000000 0.000000 0.015270
#
#
# Mechanical properties :
#
#
# Convention : Reuss Voigt Hill
#
# Bulk Modulus (GPa) = 50.59706 52.94640 51.77173
# Shear Modulus (GPa) = 21.99949 34.16371 28.08160
#
# Velocity S-wave (km/s) = 3.57613 4.45646 4.04034
# Velocity P-wave (km/s) = 6.81650 7.56695 7.20151
#
# Compressibility (1/GPa) = 0.01976399
#
# Stress axis : x y z
#
# Youngs Moduli (GPa) = 83.87445 61.42410 132.57519
#
# Poissons Ratio (x) = 0.30547 0.15140
# Poissons Ratio (y) = 0.41712 0.24868
# Poissons Ratio (z) = 0.09578 0.11522
#
# Static dielectric constant tensor:
#      x y z
#    x 1.592990 0.000000 0.000000 
#    y 0.000000 1.569390 0.000000 
#    z 0.000000 0.000000 1.588590 
# 
# From -- ./inp_files/19575.got.cif
#   From: 2010.05.17/outbox.cif.g08.bks.cpg/sg63_10_cif.got.tgz:19575.got - 2010.06.03 15:47:04.
