data_PCOD9472267
_publ_section_title
;
Structure prediction by ZEFSAII (Michael W. Deem and Ramdas Pophale) SiO2 
 PCOD9472267
Probable space group: C M C M
;
_chemical_formula_sum "Si O2"
_cell_formula_units_Z 80
_cell_length_a 7.376859
_cell_length_b 30.436622
_cell_length_c 16.304201
_cell_angle_alpha 90.000000
_cell_angle_beta 90.000000
_cell_angle_gamma 90.000000
_cell_volume 3660.727940
_symmetry_space_group_name_H-M "C M C M"
_symmetry_group_IT_number 63
_symmetry_cell_setting 'orthorhombic'
loop_
_space_group_symop_operation_xyz
x,y,z
-x,-y,1/2+z
x,-y,-z
-x,y,1/2-z
-x,-y,-z
x,y,1/2-z
-x,y,z
x,-y,1/2+z
1/2+x,1/2+y,z
1/2-x,1/2-y,1/2+z
1/2+x,1/2-y,-z
1/2-x,1/2+y,1/2-z
1/2-x,1/2-y,-z
1/2+x,1/2+y,1/2-z
1/2-x,1/2+y,z
1/2+x,1/2-y,1/2+z
loop_
_atom_site_type_symbol
_atom_site_label
_atom_site_fract_x
_atom_site_fract_y
_atom_site_fract_z
Si Si1 0.278286 0.485488 0.410212
Si Si2 0.220779 0.106514 0.656459
Si Si3 0.280200 0.795639 0.898423
Si Si4 0.285329 0.461284 0.750000
Si Si5 0.282056 0.857190 0.750000
Si Si6 0.711720 0.698050 0.590152
O O1 0.218644 0.500000 0.500000
O O2 0.500000 0.486847 0.409920
O O3 0.221818 0.435322 0.395490
O O4 0.217038 0.515779 0.333744
O O5 0.270178 0.098171 0.750000
O O6 0.289215 0.153855 0.628266
O O7 0.000000 0.107638 0.652036
O O8 0.500000 0.795144 0.897209
O O9 0.218751 0.830757 0.830947
O O10 0.215408 0.745592 0.882792
O O11 0.225660 0.805674 0.991726
O O12 0.500000 0.469881 0.750000
O O13 0.261546 0.408750 0.750000
O O14 0.500000 0.854258 0.750000
O O15 0.500000 0.699099 0.612975
#
# Coordination Sequence:
#
# PCOD9472267 Si02
#       6
#    16  16  16   8   8  16
#     4   9  17  29  46  72 105 130 152 198 261 304
#     4   9  16  27  46  74 102 126 157 200 249 299
#     4   9  19  35  50  70 102 136 167 202 245 295
#     4  10  20  34  53  77 101 127 168 216 251 294
#     4  10  22  36  51  69 101 143 172 198 245 302
#     4   9  18  31  53  78  99 125 165 210 247 291
#
# _framework density 21.853576
#
# number of rings (size 3 to 8) (size 9 to 14) (size 15 to 20)
#    0.000    2.800    1.000    0.000    4.200    0.800 
#    0.000    0.000    0.000    2.400    0.000    0.000 
#    0.000    0.000    0.000    0.000    0.000    0.000 
#
# Total GULP energy -223309.334468 kJ/mol
# GULP energy per Si atom -5582.733362 kJ/mol
# Density = 2.180384 g / cm^3
# Si number density = 21.853576 Si / 1000 Ang^3
#
#
#
# Elastic Constant Matrix: (Units=GPa)
#
#
# Indices 1 2 3 4 5 6 
#
# 1 76.4771 -1.1146 -3.5119 0.0000 0.0000 0.0000
# 2 -1.1146 130.2605 56.1257 0.0000 0.0000 0.0000
# 3 -3.5119 56.1257 84.4846 0.0000 0.0000 0.0000
# 4 0.0000 0.0000 0.0000 44.3885 0.0000 0.0000
# 5 0.0000 0.0000 0.0000 0.0000 3.1816 0.0000
# 6 0.0000 0.0000 0.0000 0.0000 0.0000 7.7055
#
#
#
# Elastic Compliance Matrix: (Units=1/GPa)
#
#
# Indices 1 2 3 4 5 6 
#
# 1 0.013104 -0.000172 0.000659 0.000000 0.000000 0.000000
# 2 -0.000172 0.010758 -0.007154 0.000000 0.000000 0.000000
# 3 0.000659 -0.007154 0.016616 0.000000 0.000000 0.000000
# 4 0.000000 0.000000 0.000000 0.022528 0.000000 0.000000
# 5 0.000000 0.000000 0.000000 0.000000 0.314309 0.000000
# 6 0.000000 0.000000 0.000000 0.000000 0.000000 0.129778
#
#
# Mechanical properties :
#
#
# Convention : Reuss Voigt Hill
#
# Bulk Modulus (GPa) = 36.84036 43.80227 40.32132
# Shear Modulus (GPa) = 9.44333 27.03665 18.23999
#
# Velocity S-wave (km/s) = 2.08100 3.52116 2.89216
# Velocity P-wave (km/s) = 4.76114 6.05132 5.44458
#
# Compressibility (1/GPa) = 0.02714414
#
# Stress axis : x y z
#
# Youngs Moduli (GPa) = 76.31513 92.95497 60.18134
#
# Poissons Ratio (x) = 0.01596 -0.03965
# Poissons Ratio (y) = 0.01311 0.43053
# Poissons Ratio (z) = -0.05028 0.66499
#
# Static dielectric constant tensor:
#      x y z
#    x 1.888400 0.000000 0.000000 
#    y 0.000000 1.775600 0.000000 
#    z 0.000000 0.000000 1.750170 
# 
# From -- ./inp_files/30065.got.cif
#   From: 2010.05.17/outbox.cif.g08.bks.cpg/sg63_16_cif.got.tgz:30065.got - 2010.06.03 15:47:04.
