data_PCOD9472903
_publ_section_title
;
Structure prediction by ZEFSAII (Michael W. Deem and Ramdas Pophale) SiO2 
 PCOD9472903
Probable space group: C M C M
;
_chemical_formula_sum "Si O2"
_cell_formula_units_Z 96
_cell_length_a 18.589220
_cell_length_b 14.907675
_cell_length_c 19.676555
_cell_angle_alpha 90.000000
_cell_angle_beta 90.000000
_cell_angle_gamma 90.000000
_cell_volume 5452.807264
_symmetry_space_group_name_H-M "C M C M"
_symmetry_group_IT_number 63
_symmetry_cell_setting 'orthorhombic'
loop_
_space_group_symop_operation_xyz
x,y,z
-x,-y,1/2+z
x,-y,-z
-x,y,1/2-z
-x,-y,-z
x,y,1/2-z
-x,y,z
x,-y,1/2+z
1/2+x,1/2+y,z
1/2-x,1/2-y,1/2+z
1/2+x,1/2-y,-z
1/2-x,1/2+y,1/2-z
1/2-x,1/2-y,-z
1/2+x,1/2+y,1/2-z
1/2-x,1/2+y,z
1/2+x,1/2-y,1/2+z
loop_
_atom_site_type_symbol
_atom_site_label
_atom_site_fract_x
_atom_site_fract_y
_atom_site_fract_z
Si Si1 0.819310 0.992598 0.829772
Si Si2 0.584368 0.907246 0.040037
Si Si3 0.174680 0.392742 0.327760
Si Si4 0.254150 0.300451 0.828703
Si Si5 0.084142 0.923963 0.057596
Si Si6 0.326307 0.243102 0.038807
O O1 0.836258 0.998825 0.750000
O O2 0.747212 0.050904 0.841983
O O3 0.882605 0.032222 0.874838
O O4 0.799115 0.889715 0.845632
O O5 0.500000 0.886823 0.042465
O O6 0.616620 0.914586 0.115491
O O7 0.626678 0.830163 0.000078
O O8 0.594960 0.000000 0.000000
O O9 0.152500 0.411919 0.250000
O O10 0.196708 0.288235 0.332394
O O11 0.229030 0.308815 0.750000
O O12 0.191949 0.286906 0.884109
O O13 0.131788 0.837214 0.039685
O O14 0.000000 0.900369 0.064839
O O15 0.090704 0.000000 0.000000
O O16 0.250000 0.250000 0.000000
#
# Coordination Sequence:
#
# PCOD9472903 Si02
#       6
#    16  16  16  16  16  16
#     4  10  20  37  60  85 114 148 193 240 287 348
#     4  11  24  40  58  86 122 156 194 239 293 358
#     4  10  20  38  61  88 115 149 197 246 294 345
#     4  10  20  35  59  88 114 144 194 248 291 343
#     4  11  24  38  54  82 120 157 193 234 289 357
#     4  12  21  37  63  86 113 154 195 248 297 343
#
# _framework density 17.605609999999999
#
# number of rings (size 3 to 8) (size 9 to 14) (size 15 to 20)
#    0.000    1.333    3.333    2.500    0.000    2.000 
#    0.000    0.000    0.000    5.500    0.000    0.000 
#    0.000    0.000    0.000    0.000    0.000    0.000 
#
# Total GULP energy -268127.392709 kJ/mol
# GULP energy per Si atom -5585.987348 kJ/mol
# Density = 1.756554 g / cm^3
# Si number density = 17.605610 Si / 1000 Ang^3
#
#
#
# Elastic Constant Matrix: (Units=GPa)
#
#
# Indices 1 2 3 4 5 6 
#
# 1 121.9458 66.9942 79.8581 0.0000 0.0000 0.0000
# 2 66.9942 75.6648 31.7664 0.0000 0.0000 0.0000
# 3 79.8581 31.7664 109.3816 0.0000 0.0000 0.0000
# 4 0.0000 0.0000 0.0000 21.9038 0.0000 0.0000
# 5 0.0000 0.0000 0.0000 0.0000 -0.1905 0.0000
# 6 0.0000 0.0000 0.0000 0.0000 0.0000 29.9980
#
#
#
# Elastic Compliance Matrix: (Units=1/GPa)
#
#
# Indices 1 2 3 4 5 6 
#
# 1 0.028765 -0.018964 -0.015493 0.000000 0.000000 0.000000
# 2 -0.018964 0.027554 0.005843 0.000000 0.000000 0.000000
# 3 -0.015493 0.005843 0.018757 0.000000 0.000000 0.000000
# 4 0.000000 0.000000 0.000000 0.045654 0.000000 0.000000
# 5 0.000000 0.000000 0.000000 0.000000 -5.249969 0.000000
# 6 0.000000 0.000000 0.000000 0.000000 0.000000 0.033336
#
#
# Mechanical properties :
#
#
# Convention : Reuss Voigt Hill
#
# Bulk Modulus (GPa) = 56.03092 73.80327 64.91710
# Shear Modulus (GPa) = -0.99350 18.90049 8.95350
#
# Velocity S-wave (km/s) = -0.75202 3.28006 2.25757
# Velocity P-wave (km/s) = 5.58038 7.50709 6.61427
#
# Compressibility (1/GPa) = 0.01784729
#
# Stress axis : x y z
#
# Youngs Moduli (GPa) = 34.76479 36.29258 53.31405
#
# Poissons Ratio (x) = 0.68825 0.82601
# Poissons Ratio (y) = 0.65928 -0.31152
# Poissons Ratio (z) = 0.53862 -0.21206
#
# Static dielectric constant tensor:
#      x y z
#    x 1.557580 0.000000 0.000000 
#    y 0.000000 1.593250 0.000000 
#    z 0.000000 0.000000 1.610990 
# 
# From -- ./inp_files/54180.got.cif
#   From: 2010.05.17/outbox.cif.g08.bks.cpg/sg63_28_cif.got.tgz:54180.got - 2010.06.03 15:47:04.
