data_PCOD9472981
_publ_section_title
;
Structure prediction by ZEFSAII (Michael W. Deem and Ramdas Pophale) SiO2 
 PCOD9472981
Probable space group: C M C M
;
_chemical_formula_sum "Si O2"
_cell_formula_units_Z 116
_cell_length_a 7.739823
_cell_length_b 24.213934
_cell_length_c 30.207208
_cell_angle_alpha 90.000000
_cell_angle_beta 90.000000
_cell_angle_gamma 90.000000
_cell_volume 5661.180074
_symmetry_space_group_name_H-M "C M C M"
_symmetry_group_IT_number 63
_symmetry_cell_setting 'orthorhombic'
loop_
_space_group_symop_operation_xyz
x,y,z
-x,-y,1/2+z
x,-y,-z
-x,y,1/2-z
-x,-y,-z
x,y,1/2-z
-x,y,z
x,-y,1/2+z
1/2+x,1/2+y,z
1/2-x,1/2-y,1/2+z
1/2+x,1/2-y,-z
1/2-x,1/2+y,1/2-z
1/2-x,1/2-y,-z
1/2+x,1/2+y,1/2-z
1/2-x,1/2+y,z
1/2+x,1/2-y,1/2+z
loop_
_atom_site_type_symbol
_atom_site_label
_atom_site_fract_x
_atom_site_fract_y
_atom_site_fract_z
Si Si1 0.797560 0.961368 0.199617
Si Si2 0.701255 0.980067 0.453328
Si Si3 0.798118 0.134009 0.516991
Si Si4 0.295443 0.045572 0.369254
Si Si5 0.000000 0.172827 0.750000
Si Si6 0.200914 0.655343 0.824535
Si Si7 0.708708 0.346163 0.582247
Si Si8 0.207527 0.720865 0.913853
O O1 0.731238 0.962353 0.250000
O O2 0.708852 0.911523 0.173239
O O3 0.000000 0.947124 0.202023
O O4 0.779462 0.019400 0.175131
O O5 0.500000 0.996749 0.453761
O O6 0.712241 0.914240 0.454330
O O7 0.779032 0.000000 0.500000
O O8 0.777366 0.009591 0.410496
O O9 0.729184 0.135848 0.466813
O O10 0.776416 0.191613 0.542108
O O11 0.000000 0.120661 0.514787
O O12 0.500000 0.037187 0.366040
O O13 0.261598 0.108804 0.381638
O O14 0.155281 0.171362 0.711607
O O15 0.247655 0.684115 0.870913
O O16 0.000000 0.670336 0.813730
O O17 0.500000 0.345575 0.580745
O O18 0.768236 0.283843 0.591171
O O19 0.000000 0.721985 0.917977
#
# Coordination Sequence:
#
# PCOD9472981 Si02
#       8
#    16  16  16  16   4  16  16  16
#     4  11  22  40  64  92 124 159 198 254 317 375
#     4  10  20  36  55  79 119 157 194 239 296 363
#     4  11  22  34  58  89 120 157 206 256 305 361
#     4  11  23  37  59  88 116 161 206 253 311 370
#     4  12  22  40  68  98 132 158 202 258 328 368
#     4  11  22  40  66  97 128 164 203 253 317 382
#     4  10  22  41  58  82 119 165 209 252 305 366
#     4  10  23  40  61  85 119 161 207 253 307 372
#
# _framework density 20.490428000000001
#
# number of rings (size 3 to 8) (size 9 to 14) (size 15 to 20)
#    0.000    1.379    2.759    2.690    0.966    6.621 
#    0.000    0.000    1.517    0.000    0.000    0.000 
#    0.000    0.000    0.000    0.000    0.000    0.000 
#
# Total GULP energy -323500.886373 kJ/mol
# GULP energy per Si atom -5577.601489 kJ/mol
# Density = 2.044379 g / cm^3
# Si number density = 20.490428 Si / 1000 Ang^3
#
#
#
# Elastic Constant Matrix: (Units=GPa)
#
#
# Indices 1 2 3 4 5 6 
#
# 1 63.3693 -8.6929 11.1042 0.0000 0.0000 0.0000
# 2 -8.6929 112.8290 36.6220 0.0000 0.0000 0.0000
# 3 11.1042 36.6220 61.1613 0.0000 0.0000 0.0000
# 4 0.0000 0.0000 0.0000 -1.9225 0.0000 0.0000
# 5 0.0000 0.0000 0.0000 0.0000 9.5803 0.0000
# 6 0.0000 0.0000 0.0000 0.0000 0.0000 17.8360
#
#
#
# Elastic Compliance Matrix: (Units=1/GPa)
#
#
# Indices 1 2 3 4 5 6 
#
# 1 0.017017 0.002872 -0.004809 0.000000 0.000000 0.000000
# 2 0.002872 0.011486 -0.007399 0.000000 0.000000 0.000000
# 3 -0.004809 -0.007399 0.021654 0.000000 0.000000 0.000000
# 4 0.000000 0.000000 0.000000 -0.520161 0.000000 0.000000
# 5 0.000000 0.000000 0.000000 0.000000 0.104381 0.000000
# 6 0.000000 0.000000 0.000000 0.000000 0.000000 0.056067
#
#
# Mechanical properties :
#
#
# Convention : Reuss Voigt Hill
#
# Bulk Modulus (GPa) = 31.76170 35.04736 33.40453
# Shear Modulus (GPa) = -17.83232 18.32050 0.24409
#
# Velocity S-wave (km/s) = -2.95324 2.99340 0.34552
# Velocity P-wave (km/s) = 1.97624 5.39339 4.06166
#
# Compressibility (1/GPa) = 0.03148446
#
# Stress axis : x y z
#
# Youngs Moduli (GPa) = 58.76389 87.06416 46.18157
#
# Poissons Ratio (x) = -0.25006 0.22210
# Poissons Ratio (y) = -0.16878 0.34169
# Poissons Ratio (z) = 0.28262 0.64418
#
# Static dielectric constant tensor:
#      x y z
#    x 1.752090 0.000000 0.000000 
#    y 0.000000 1.743190 0.000000 
#    z 0.000000 0.000000 1.286720 
# 
# From -- ./inp_files/72135.got.cif
#   From: 2010.05.17/outbox.cif.g08.bks.cpg/sg63_37_cif.got.tgz:72135.got - 2010.06.03 15:47:04.
