data_PCOD9472978
_publ_section_title
;
Structure prediction by ZEFSAII (Michael W. Deem and Ramdas Pophale) SiO2 
 PCOD9472978
Probable space group: C M C M
;
_chemical_formula_sum "Si O2"
_cell_formula_units_Z 116
_cell_length_a 30.213452
_cell_length_b 25.478714
_cell_length_c 8.109666
_cell_angle_alpha 90.000000
_cell_angle_beta 90.000000
_cell_angle_gamma 90.000000
_cell_volume 6242.820096
_symmetry_space_group_name_H-M "C M C M"
_symmetry_group_IT_number 63
_symmetry_cell_setting 'orthorhombic'
loop_
_space_group_symop_operation_xyz
x,y,z
-x,-y,1/2+z
x,-y,-z
-x,y,1/2-z
-x,-y,-z
x,y,1/2-z
-x,y,z
x,-y,1/2+z
1/2+x,1/2+y,z
1/2-x,1/2-y,1/2+z
1/2+x,1/2-y,-z
1/2-x,1/2+y,1/2-z
1/2-x,1/2-y,-z
1/2+x,1/2+y,1/2-z
1/2-x,1/2+y,z
1/2+x,1/2-y,1/2+z
loop_
_atom_site_type_symbol
_atom_site_label
_atom_site_fract_x
_atom_site_fract_y
_atom_site_fract_z
Si Si1 0.300816 0.748775 0.447214
Si Si2 0.566359 0.866529 0.450390
Si Si3 0.000000 0.604958 0.250000
Si Si4 0.331239 0.862692 0.053165
Si Si5 0.658210 0.558923 0.942662
Si Si6 0.549021 0.742828 0.053420
Si Si7 0.372168 0.332614 0.054682
Si Si8 0.242900 0.557425 0.442195
O O1 0.303489 0.746848 0.250000
O O2 0.250000 0.750000 0.500000
O O3 0.323791 0.802874 0.504231
O O4 0.327699 0.699391 0.513504
O O5 0.555595 0.875681 0.250000
O O6 0.538010 0.892692 0.597766
O O7 0.618126 0.879190 0.473102
O O8 0.560229 0.803814 0.479432
O O9 0.323623 0.863266 0.250000
O O10 0.294816 0.900252 0.974913
O O11 0.649480 0.558652 0.750000
O O12 0.632065 0.608567 0.017477
O O13 0.648399 0.500000 0.000000
O O14 0.710601 0.568960 0.969390
O O15 0.546839 0.738824 0.250000
O O16 0.500000 0.731910 0.983524
O O17 0.586600 0.702658 0.999806
O O18 0.375159 0.336913 0.250000
O O19 0.227481 0.500000 0.500000
O O20 0.253378 0.554849 0.250000
#
# Coordination Sequence:
#
# PCOD9472978 Si02
#       8
#    16  16   4  16  16  16  16  16
#     4  11  22  35  51  75 110 153 185 219 273 334
#     4  10  21  36  54  82 116 151 190 237 286 344
#     4  12  22  32  60  82 114 152 194 236 288 346
#     4  10  21  37  54  76 116 150 183 233 279 330
#     4  10  21  38  57  80 108 145 188 237 284 332
#     4  10  20  36  55  78 112 148 186 230 284 337
#     4  11  23  35  54  82 112 143 187 232 279 339
#     4  11  22  36  58  83 110 145 191 235 279 336
#
# _framework density 18.581344999999999
#
# number of rings (size 3 to 8) (size 9 to 14) (size 15 to 20)
#    0.000    1.517    2.069    4.345    1.931    6.897 
#    0.000    0.000    0.000    0.414    0.000    0.483 
#    0.000    0.000    0.000    0.000    0.000    0.000 
#
# Total GULP energy -323042.195180 kJ/mol
# GULP energy per Si atom -5569.693020 kJ/mol
# Density = 1.853905 g / cm^3
# Si number density = 18.581345 Si / 1000 Ang^3
#
#
#
# Elastic Constant Matrix: (Units=GPa)
#
#
# Indices 1 2 3 4 5 6 
#
# 1 41.2255 -12.1780 -7.3755 0.0000 0.0000 0.0000
# 2 -12.1780 32.6107 -9.1671 0.0000 0.0000 0.0000
# 3 -7.3755 -9.1671 37.3387 0.0000 0.0000 0.0000
# 4 0.0000 0.0000 0.0000 22.3243 0.0000 0.0000
# 5 0.0000 0.0000 0.0000 0.0000 30.9640 0.0000
# 6 0.0000 0.0000 0.0000 0.0000 0.0000 20.5256
#
#
#
# Elastic Compliance Matrix: (Units=1/GPa)
#
#
# Indices 1 2 3 4 5 6 
#
# 1 0.030009 0.013827 0.009322 0.000000 0.000000 0.000000
# 2 0.013827 0.039309 0.012382 0.000000 0.000000 0.000000
# 3 0.009322 0.012382 0.031663 0.000000 0.000000 0.000000
# 4 0.000000 0.000000 0.000000 0.044794 0.000000 0.000000
# 5 0.000000 0.000000 0.000000 0.000000 0.032296 0.000000
# 6 0.000000 0.000000 0.000000 0.000000 0.000000 0.048720
#
#
# Mechanical properties :
#
#
# Convention : Reuss Voigt Hill
#
# Bulk Modulus (GPa) = 5.81246 5.97043 5.89145
# Shear Modulus (GPa) = 23.46579 24.08913 23.77746
#
# Velocity S-wave (km/s) = 3.55754 3.60448 3.58109
# Velocity P-wave (km/s) = 4.47322 4.53246 4.50294
#
# Compressibility (1/GPa) = 0.17204412
#
# Stress axis : x y z
#
# Youngs Moduli (GPa) = 33.32320 25.43952 31.58234
#
# Poissons Ratio (x) = -0.35175 -0.29442
# Poissons Ratio (y) = -0.46076 -0.39105
# Poissons Ratio (z) = -0.31065 -0.31499
#
# Static dielectric constant tensor:
#      x y z
#    x 1.633810 0.000000 0.000000 
#    y 0.000000 1.672060 0.000000 
#    z 0.000000 0.000000 1.659400 
# 
# From -- ./inp_files/14729.got.cif
#   From: 2010.05.17/outbox.cif.g08.bks.cpg/sg63_8_cif.got.tgz:14729.got - 2010.06.03 15:47:04.
