data_PCOD9472242
_publ_section_title
;
Structure prediction by ZEFSAII (Michael W. Deem and Ramdas Pophale) SiO2 
 PCOD9472242
Probable space group: C M C M
;
_chemical_formula_sum "Si O2"
_cell_formula_units_Z 116
_cell_length_a 22.274643
_cell_length_b 15.025668
_cell_length_c 17.767330
_cell_angle_alpha 90.000000
_cell_angle_beta 90.000000
_cell_angle_gamma 90.000000
_cell_volume 5946.572384
_symmetry_space_group_name_H-M "C M C M"
_symmetry_group_IT_number 63
_symmetry_cell_setting 'orthorhombic'
loop_
_space_group_symop_operation_xyz
x,y,z
-x,-y,1/2+z
x,-y,-z
-x,y,1/2-z
-x,-y,-z
x,y,1/2-z
-x,y,z
x,-y,1/2+z
1/2+x,1/2+y,z
1/2-x,1/2-y,1/2+z
1/2+x,1/2-y,-z
1/2-x,1/2+y,1/2-z
1/2-x,1/2-y,-z
1/2+x,1/2+y,1/2-z
1/2-x,1/2+y,z
1/2+x,1/2-y,1/2+z
loop_
_atom_site_type_symbol
_atom_site_label
_atom_site_fract_x
_atom_site_fract_y
_atom_site_fract_z
Si Si1 0.500000 0.217932 0.750000
Si Si2 0.746581 0.504846 0.667102
Si Si3 0.405637 0.258293 0.618314
Si Si4 0.803185 0.363823 0.937731
Si Si5 0.892091 0.954081 0.663707
Si Si6 0.571021 0.647066 0.664946
Si Si7 0.569028 0.196688 0.049958
Si Si8 0.729828 0.194522 0.606458
O O1 0.447662 0.222016 0.683912
O O2 0.772410 0.485167 0.750000
O O3 0.779859 0.452552 0.601305
O O4 0.679113 0.467676 0.665592
O O5 0.747838 0.610658 0.654290
O O6 0.408874 0.365612 0.620124
O O7 0.426549 0.225886 0.536673
O O8 0.336181 0.229449 0.629823
O O9 0.875339 0.369254 0.938349
O O10 0.775561 0.277682 0.894041
O O11 0.778909 0.344704 0.021823
O O12 0.914279 0.942288 0.750000
O O13 0.916496 0.048028 0.635658
O O14 0.597640 0.655935 0.750000
O O15 0.500000 0.655407 0.673178
O O16 0.586876 0.721332 0.604498
O O17 0.500000 0.169123 0.066366
#
# Coordination Sequence:
#
# PCOD9472242 Si02
#       8
#     4  16  16  16  16  16  16  16
#     4  12  24  36  64  86 124 176 192 256 316 366
#     4  11  23  37  60  90 120 155 201 261 316 366
#     4  11  22  37  60  87 118 161 206 248 311 368
#     4  10  21  40  62  87 119 163 200 254 317 364
#     4  10  20  34  52  84 122 154 194 245 308 376
#     4   9  19  33  53  79 115 159 196 241 301 366
#     4  10  21  38  58  87 119 154 210 255 300 372
#     4  10  22  40  63  88 120 159 206 259 304 369
#
# _framework density 19.507034999999998
#
# number of rings (size 3 to 8) (size 9 to 14) (size 15 to 20)
#    0.000    1.793    2.759    1.241    1.931    1.655 
#    2.483    1.379    1.517    1.655    0.000    0.000 
#    0.000    0.000    0.000    0.000    0.000    0.000 
#
# Total GULP energy -323037.909933 kJ/mol
# GULP energy per Si atom -5569.619137 kJ/mol
# Density = 1.946264 g / cm^3
# Si number density = 19.507035 Si / 1000 Ang^3
#
#
#
# Elastic Constant Matrix: (Units=GPa)
#
#
# Indices 1 2 3 4 5 6 
#
# 1 75.7451 -2.7342 18.3688 0.0000 0.0000 0.0000
# 2 -2.7342 33.0071 13.4491 0.0000 0.0000 0.0000
# 3 18.3688 13.4491 64.0280 0.0000 0.0000 0.0000
# 4 0.0000 0.0000 0.0000 -320.1642 0.0000 0.0000
# 5 0.0000 0.0000 0.0000 0.0000 19.4836 0.0000
# 6 0.0000 0.0000 0.0000 0.0000 0.0000 17.3245
#
#
#
# Elastic Compliance Matrix: (Units=1/GPa)
#
#
# Indices 1 2 3 4 5 6 
#
# 1 0.014485 0.003164 -0.004820 0.000000 0.000000 0.000000
# 2 0.003164 0.033823 -0.008012 0.000000 0.000000 0.000000
# 3 -0.004820 -0.008012 0.018684 0.000000 0.000000 0.000000
# 4 0.000000 0.000000 0.000000 -0.003123 0.000000 0.000000
# 5 0.000000 0.000000 0.000000 0.000000 0.051325 0.000000
# 6 0.000000 0.000000 0.000000 0.000000 0.000000 0.057722
#
#
# Mechanical properties :
#
#
# Convention : Reuss Voigt Hill
#
# Bulk Modulus (GPa) = 20.98393 25.66085 23.32239
# Shear Modulus (GPa) = 24.02245 -47.09146 -11.53450
#
# Velocity S-wave (km/s) = 3.51305 -4.91865 -2.43430
# Velocity P-wave (km/s) = 5.21879 4.36742 2.02008
#
# Compressibility (1/GPa) = 0.04765552
#
# Stress axis : x y z
#
# Youngs Moduli (GPa) = 69.03535 29.56545 53.52173
#
# Poissons Ratio (x) = -0.09354 0.25799
# Poissons Ratio (y) = -0.21843 0.42883
# Poissons Ratio (z) = 0.33277 0.23689
#
# Static dielectric constant tensor:
#      x y z
#    x 1.711240 0.000000 0.000000 
#    y 0.000000 1.655800 0.000000 
#    z 0.000000 0.000000 1.703280 
# 
# From -- ./inp_files/48289.got.cif
#   From: 2010.05.17/outbox.cif.g08.bks.cpg/sg63_25_cif.got.tgz:48289.got - 2010.06.03 15:47:04.
