data_PCOD9472892
_publ_section_title
;
Structure prediction by ZEFSAII (Michael W. Deem and Ramdas Pophale) SiO2 
 PCOD9472892
Probable space group: C M C M
;
_chemical_formula_sum "Si O2"
_cell_formula_units_Z 104
_cell_length_a 7.590805
_cell_length_b 29.649754
_cell_length_c 20.365817
_cell_angle_alpha 90.000000
_cell_angle_beta 90.000000
_cell_angle_gamma 90.000000
_cell_volume 4583.642805
_symmetry_space_group_name_H-M "C M C M"
_symmetry_group_IT_number 63
_symmetry_cell_setting 'orthorhombic'
loop_
_space_group_symop_operation_xyz
x,y,z
-x,-y,1/2+z
x,-y,-z
-x,y,1/2-z
-x,-y,-z
x,y,1/2-z
-x,y,z
x,-y,1/2+z
1/2+x,1/2+y,z
1/2-x,1/2-y,1/2+z
1/2+x,1/2-y,-z
1/2-x,1/2+y,1/2-z
1/2-x,1/2-y,-z
1/2+x,1/2+y,1/2-z
1/2-x,1/2+y,z
1/2+x,1/2-y,1/2+z
loop_
_atom_site_type_symbol
_atom_site_label
_atom_site_fract_x
_atom_site_fract_y
_atom_site_fract_z
Si Si1 0.789153 0.268731 0.355698
Si Si2 0.791214 0.101745 0.876813
Si Si3 0.788370 0.502000 0.574700
Si Si4 0.784284 0.573555 0.323731
Si Si5 0.211698 0.329868 0.874773
Si Si6 0.749271 0.155676 0.750000
Si Si7 0.791858 0.679636 0.978007
O O1 0.753294 0.217097 0.339590
O O2 0.713854 0.305503 0.306540
O O3 0.724229 0.281287 0.429142
O O4 0.000000 0.276115 0.352030
O O5 0.751300 0.050360 0.893996
O O6 0.710981 0.119164 0.808776
O O7 0.732199 0.133585 0.936940
O O8 0.000000 0.107237 0.867768
O O9 0.720570 0.500000 0.500000
O O10 0.723714 0.461777 0.621392
O O11 0.000000 0.497206 0.571256
O O12 0.729570 0.561272 0.250000
O O13 0.726030 0.624265 0.341306
O O14 0.000000 0.573327 0.324413
O O15 0.000000 0.333557 0.878017
O O16 0.282937 0.325051 0.949251
O O17 0.000000 0.687713 0.985315
#
# Coordination Sequence:
#
# PCOD9472892 Si02
#       7
#    16  16  16  16  16   8  16
#     4  10  21  36  57  84 116 153 201 249 291 346
#     4  11  23  38  61  90 120 153 195 251 306 354
#     4  10  21  39  64  89 116 155 199 243 295 360
#     4   9  19  35  54  82 115 150 195 238 280 347
#     4  10  20  35  59  84 115 156 197 243 295 347
#     4  10  24  42  56  80 122 164 196 236 298 370
#     4   9  19  37  57  83 117 157 198 240 293 357
#
# _framework density 22.689375999999999
#
# number of rings (size 3 to 8) (size 9 to 14) (size 15 to 20)
#    0.000    2.154    0.000    2.308    2.154    8.308 
#    0.000    0.769    0.000    0.923    0.000    0.000 
#    0.000    0.000    0.000    0.000    0.000    0.000 
#
# Total GULP energy -289626.430606 kJ/mol
# GULP energy per Si atom -5569.739050 kJ/mol
# Density = 2.263773 g / cm^3
# Si number density = 22.689376 Si / 1000 Ang^3
#
#
#
# Elastic Constant Matrix: (Units=GPa)
#
#
# Indices 1 2 3 4 5 6 
#
# 1 52.5406 -10.3806 12.9945 0.0000 0.0000 0.0000
# 2 -10.3806 192.2834 84.7802 0.0000 0.0000 0.0000
# 3 12.9945 84.7802 166.7200 0.0000 0.0000 0.0000
# 4 0.0000 0.0000 0.0000 26.8263 0.0000 0.0000
# 5 0.0000 0.0000 0.0000 0.0000 43.2241 0.0000
# 6 0.0000 0.0000 0.0000 0.0000 0.0000 -4.1380
#
#
#
# Elastic Compliance Matrix: (Units=1/GPa)
#
#
# Indices 1 2 3 4 5 6 
#
# 1 0.020164 0.002296 -0.002739 0.000000 0.000000 0.000000
# 2 0.002296 0.006965 -0.003721 0.000000 0.000000 0.000000
# 3 -0.002739 -0.003721 0.008104 0.000000 0.000000 0.000000
# 4 0.000000 0.000000 0.000000 0.037277 0.000000 0.000000
# 5 0.000000 0.000000 0.000000 0.000000 0.023135 0.000000
# 6 0.000000 0.000000 0.000000 0.000000 0.000000 -0.241663
#
#
# Mechanical properties :
#
#
# Convention : Reuss Voigt Hill
#
# Bulk Modulus (GPa) = 37.16745 65.14804 51.15775
# Shear Modulus (GPa) = -38.84353 34.79248 -2.02552
#
# Velocity S-wave (km/s) = -4.14208 3.92015 -0.94586
# Velocity P-wave (km/s) = 2.54151 7.01893 4.62635
#
# Compressibility (1/GPa) = 0.02690526
#
# Stress axis : x y z
#
# Youngs Moduli (GPa) = 49.59304 143.57004 123.39945
#
# Poissons Ratio (x) = -0.32970 0.33804
# Poissons Ratio (y) = -0.11389 0.45916
# Poissons Ratio (z) = 0.13586 0.53422
#
# Static dielectric constant tensor:
#      x y z
#    x 1.893760 0.000000 0.000000 
#    y 0.000000 1.798840 0.000000 
#    z 0.000000 0.000000 1.843060 
# 
# From -- ./inp_files/51478.got.cif
#   From: 2010.05.17/outbox.cif.g08.bks.cpg/sg63_26_cif.got.tgz:51478.got - 2010.06.03 15:47:04.
