data_PCOD9472836
_publ_section_title
;
Structure prediction by ZEFSAII (Michael W. Deem and Ramdas Pophale) SiO2 
 PCOD9472836
Probable space group: C M C M
;
_chemical_formula_sum "Si O2"
_cell_formula_units_Z 64
_cell_length_a 15.444572
_cell_length_b 9.562977
_cell_length_c 19.765616
_cell_angle_alpha 90.000000
_cell_angle_beta 90.000000
_cell_angle_gamma 90.000000
_cell_volume 2919.304137
_symmetry_space_group_name_H-M "C M C M"
_symmetry_group_IT_number 63
_symmetry_cell_setting 'orthorhombic'
loop_
_space_group_symop_operation_xyz
x,y,z
-x,-y,1/2+z
x,-y,-z
-x,y,1/2-z
-x,-y,-z
x,y,1/2-z
-x,y,z
x,-y,1/2+z
1/2+x,1/2+y,z
1/2-x,1/2-y,1/2+z
1/2+x,1/2-y,-z
1/2-x,1/2+y,1/2-z
1/2-x,1/2-y,-z
1/2+x,1/2+y,1/2-z
1/2-x,1/2+y,z
1/2+x,1/2-y,1/2+z
loop_
_atom_site_type_symbol
_atom_site_label
_atom_site_fract_x
_atom_site_fract_y
_atom_site_fract_z
Si Si1 0.604969 0.085387 0.671746
Si Si2 0.169652 0.342793 0.471789
Si Si3 0.394404 0.243218 0.324268
Si Si4 0.596368 0.614059 0.951647
O O1 0.625401 0.126866 0.750000
O O2 0.500000 0.099550 0.664196
O O3 0.626473 0.919614 0.665106
O O4 0.652417 0.158841 0.608754
O O5 0.171213 0.500000 0.500000
O O6 0.250000 0.250000 0.500000
O O7 0.092555 0.258585 0.508012
O O8 0.365830 0.285703 0.250000
O O9 0.500000 0.248356 0.326583
O O10 0.360209 0.347297 0.381119
O O11 0.500000 0.559713 0.936325
O O12 0.638362 0.500000 0.000000
#
# Coordination Sequence:
#
# PCOD9472836 Si02
#       4
#    16  16  16  16
#     4   9  18  36  64  94 119 153 212 273 321 375
#     4  12  24  39  58  85 125 168 211 257 313 378
#     4   8  14  28  54  86 114 145 192 251 311 364
#     4  10  20  35  57  87 120 156 202 257 313 372
#
# _framework density 21.923031000000002
#
# number of rings (size 3 to 8) (size 9 to 14) (size 15 to 20)
#    0.000    2.250    2.500    3.000    0.000    1.000 
#    0.000    3.750    0.000    4.500    0.000    0.000 
#    0.000    0.000    0.000    0.000    0.000    0.000 
#
# Total GULP energy -178338.308919 kJ/mol
# GULP energy per Si atom -5573.072154 kJ/mol
# Density = 2.187313 g / cm^3
# Si number density = 21.923031 Si / 1000 Ang^3
#
#
#
# Elastic Constant Matrix: (Units=GPa)
#
#
# Indices 1 2 3 4 5 6 
#
# 1 66.6159 11.5648 25.6374 0.0000 0.0000 0.0000
# 2 11.5648 94.5143 60.5883 0.0000 0.0000 0.0000
# 3 25.6374 60.5883 240.3655 0.0000 0.0000 0.0000
# 4 0.0000 0.0000 0.0000 42.1314 0.0000 0.0000
# 5 0.0000 0.0000 0.0000 0.0000 16.3955 0.0000
# 6 0.0000 0.0000 0.0000 0.0000 0.0000 -34.7002
#
#
#
# Elastic Compliance Matrix: (Units=1/GPa)
#
#
# Indices 1 2 3 4 5 6 
#
# 1 0.015735 -0.001013 -0.001423 0.000000 0.000000 0.000000
# 2 -0.001013 0.012685 -0.003089 0.000000 0.000000 0.000000
# 3 -0.001423 -0.003089 0.005091 0.000000 0.000000 0.000000
# 4 0.000000 0.000000 0.000000 0.023735 0.000000 0.000000
# 5 0.000000 0.000000 0.000000 0.000000 0.060992 0.000000
# 6 0.000000 0.000000 0.000000 0.000000 0.000000 -0.028818
#
#
# Mechanical properties :
#
#
# Convention : Reuss Voigt Hill
#
# Bulk Modulus (GPa) = 44.52424 66.34187 55.43306
# Shear Modulus (GPa) = 46.31451 25.01234 35.66342
#
# Velocity S-wave (km/s) = 4.60128 3.38141 4.03768
# Velocity P-wave (km/s) = 6.97012 6.75072 6.86129
#
# Compressibility (1/GPa) = 0.02245967
#
# Stress axis : x y z
#
# Youngs Moduli (GPa) = 63.55284 78.83441 196.43180
#
# Poissons Ratio (x) = 0.07987 0.27950
# Poissons Ratio (y) = 0.06439 0.60685
# Poissons Ratio (z) = 0.09043 0.24355
#
# Static dielectric constant tensor:
#      x y z
#    x 1.895840 0.000000 0.000000 
#    y 0.000000 1.768980 0.000000 
#    z 0.000000 0.000000 1.857830 
# 
# From -- ./inp_files/46528.got.cif
#   From: 2010.05.17/outbox.cif.g08.bks.cpg/sg63_24_cif.got.tgz:46528.got - 2010.06.03 15:47:04.
