data_PCOD9472780
_publ_section_title
;
Structure prediction by ZEFSAII (Michael W. Deem and Ramdas Pophale) SiO2 
 PCOD9472780
Probable space group: C M C M
;
_chemical_formula_sum "Si O2"
_cell_formula_units_Z 112
_cell_length_a 13.612066
_cell_length_b 28.790645
_cell_length_c 13.964226
_cell_angle_alpha 90.000000
_cell_angle_beta 90.000000
_cell_angle_gamma 90.000000
_cell_volume 5472.582403
_symmetry_space_group_name_H-M "C M C M"
_symmetry_group_IT_number 63
_symmetry_cell_setting 'orthorhombic'
loop_
_space_group_symop_operation_xyz
x,y,z
-x,-y,1/2+z
x,-y,-z
-x,y,1/2-z
-x,-y,-z
x,y,1/2-z
-x,y,z
x,-y,1/2+z
1/2+x,1/2+y,z
1/2-x,1/2-y,1/2+z
1/2+x,1/2-y,-z
1/2-x,1/2+y,1/2-z
1/2-x,1/2-y,-z
1/2+x,1/2+y,1/2-z
1/2-x,1/2+y,z
1/2+x,1/2-y,1/2+z
loop_
_atom_site_type_symbol
_atom_site_label
_atom_site_fract_x
_atom_site_fract_y
_atom_site_fract_z
Si Si1 0.110483 0.835990 0.936065
Si Si2 0.112826 0.940693 0.862667
Si Si3 0.883870 0.365967 0.642017
Si Si4 0.777134 0.275060 0.598015
Si Si5 0.803242 0.550387 0.481927
Si Si6 0.385673 0.116570 0.861287
Si Si7 0.798626 0.175236 0.854509
O O1 0.113795 0.885531 0.884458
O O2 0.176011 0.800374 0.875791
O O3 0.000000 0.819195 0.943314
O O4 0.151063 0.841047 0.045902
O O5 0.135418 0.949256 0.750000
O O6 0.195521 0.958821 0.935945
O O7 0.000000 0.956720 0.880217
O O8 0.844442 0.363394 0.750000
O O9 0.849242 0.318775 0.590953
O O10 0.849465 0.413327 0.593316
O O11 0.000000 0.366198 0.644667
O O12 0.750000 0.250000 0.500000
O O13 0.815174 0.230486 0.653157
O O14 0.849734 0.500000 0.500000
O O15 0.822406 0.579000 0.579459
O O16 0.390607 0.103118 0.750000
O O17 0.500000 0.121061 0.895439
O O18 0.317310 0.162559 0.865327
O O19 0.829296 0.154749 0.750000
#
# Coordination Sequence:
#
# PCOD9472780 Si02
#       7
#    16  16  16  16  16  16  16
#     4  10  20  35  57  86 119 158 199 249 308 366
#     4  10  21  40  66  92 121 159 201 250 314 383
#     4  11  24  42  64  92 130 173 216 267 330 391
#     4  10  20  35  56  87 124 166 211 260 306 375
#     4  12  24  40  66  94 122 160 212 273 325 383
#     4  10  22  41  61  85 126 173 212 259 322 386
#     4  10  20  36  60  89 122 165 214 259 310 373
#
# _framework density 20.465658999999999
#
# number of rings (size 3 to 8) (size 9 to 14) (size 15 to 20)
#    0.000    1.571    2.857    2.143    0.000    6.286 
#    0.000    1.429    0.000    0.429    0.000    0.000 
#    0.000    0.000    0.000    0.000    0.000    0.000 
#
# Total GULP energy -311750.811756 kJ/mol
# GULP energy per Si atom -5566.978781 kJ/mol
# Density = 2.041908 g / cm^3
# Si number density = 20.465659 Si / 1000 Ang^3
#
#
#
# Elastic Constant Matrix: (Units=GPa)
#
#
# Indices 1 2 3 4 5 6 
#
# 1 103.7114 16.6680 18.2012 0.0000 0.0000 0.0000
# 2 16.6680 102.3750 15.3705 0.0000 0.0000 0.0000
# 3 18.2012 15.3705 86.7892 0.0000 0.0000 0.0000
# 4 0.0000 0.0000 0.0000 4.6638 0.0000 0.0000
# 5 0.0000 0.0000 0.0000 0.0000 30.3231 0.0000
# 6 0.0000 0.0000 0.0000 0.0000 0.0000 -10.6466
#
#
#
# Elastic Compliance Matrix: (Units=1/GPa)
#
#
# Indices 1 2 3 4 5 6 
#
# 1 0.010196 -0.001376 -0.001895 0.000000 0.000000 0.000000
# 2 -0.001376 0.010220 -0.001522 0.000000 0.000000 0.000000
# 3 -0.001895 -0.001522 0.012189 0.000000 0.000000 0.000000
# 4 0.000000 0.000000 0.000000 0.214417 0.000000 0.000000
# 5 0.000000 0.000000 0.000000 0.000000 0.032978 0.000000
# 6 0.000000 0.000000 0.000000 0.000000 0.000000 -0.093927
#
#
# Mechanical properties :
#
#
# Convention : Reuss Voigt Hill
#
# Bulk Modulus (GPa) = 43.43736 43.70611 43.57174
# Shear Modulus (GPa) = 24.59049 21.04379 22.81714
#
# Velocity S-wave (km/s) = 3.47010 3.21011 3.34263
# Velocity P-wave (km/s) = 6.10950 5.92806 6.01947
#
# Compressibility (1/GPa) = 0.02302165
#
# Stress axis : x y z
#
# Youngs Moduli (GPa) = 98.08043 97.84340 82.04134
#
# Poissons Ratio (x) = 0.13459 0.15544
# Poissons Ratio (y) = 0.13491 0.12483
# Poissons Ratio (z) = 0.18582 0.14888
#
# Static dielectric constant tensor:
#      x y z
#    x 1.774670 0.000000 0.000000 
#    y 0.000000 1.744700 0.000000 
#    z 0.000000 0.000000 1.839210 
# 
# From -- ./inp_files/32793.got.cif
#   From: 2010.05.17/outbox.cif.g08.bks.cpg/sg63_17_cif.got.tgz:32793.got - 2010.06.03 15:47:04.
