data_PCOD9472456
_publ_section_title
;
Structure prediction by ZEFSAII (Michael W. Deem and Ramdas Pophale) SiO2 
 PCOD9472456
Probable space group: C M C M
;
_chemical_formula_sum "Si O2"
_cell_formula_units_Z 96
_cell_length_a 20.917483
_cell_length_b 29.759722
_cell_length_c 8.252808
_cell_angle_alpha 90.000000
_cell_angle_beta 90.000000
_cell_angle_gamma 90.000000
_cell_volume 5137.360428
_symmetry_space_group_name_H-M "C M C M"
_symmetry_group_IT_number 63
_symmetry_cell_setting 'orthorhombic'
loop_
_space_group_symop_operation_xyz
x,y,z
-x,-y,1/2+z
x,-y,-z
-x,y,1/2-z
-x,-y,-z
x,y,1/2-z
-x,y,z
x,-y,1/2+z
1/2+x,1/2+y,z
1/2-x,1/2-y,1/2+z
1/2+x,1/2-y,-z
1/2-x,1/2+y,1/2-z
1/2-x,1/2-y,-z
1/2+x,1/2+y,1/2-z
1/2-x,1/2+y,z
1/2+x,1/2-y,1/2+z
loop_
_atom_site_type_symbol
_atom_site_label
_atom_site_fract_x
_atom_site_fract_y
_atom_site_fract_z
Si Si1 0.150123 0.216875 0.561117
Si Si2 0.573066 0.630805 0.055744
Si Si3 0.301164 0.905178 0.445345
Si Si4 0.208811 0.695435 0.056780
Si Si5 0.067911 0.551182 0.945212
Si Si6 0.331921 0.551266 0.055337
O O1 0.133650 0.216053 0.750000
O O2 0.107110 0.178537 0.480259
O O3 0.153720 0.269063 0.505054
O O4 0.224424 0.204295 0.534130
O O5 0.570495 0.626567 0.250000
O O6 0.500000 0.629606 0.993753
O O7 0.616510 0.588788 0.996707
O O8 0.300249 0.902345 0.250000
O O9 0.304498 0.855784 0.519195
O O10 0.365989 0.928544 0.503274
O O11 0.237681 0.931718 0.498261
O O12 0.218946 0.701810 0.250000
O O13 0.069078 0.553135 0.750000
O O14 0.000000 0.572094 0.999388
O O15 0.067055 0.500000 0.000000
O O16 0.332620 0.551681 0.250000
O O17 0.344182 0.500000 0.000000
#
# Coordination Sequence:
#
# PCOD9472456 Si02
#       6
#    16  16  16  16  16  16
#     4  10  20  35  57  84 111 143 185 228 275 332
#     4  10  22  40  60  82 113 154 195 238 291 346
#     4  11  21  34  56  85 114 147 187 232 281 336
#     4  10  20  34  55  83 114 144 178 226 277 330
#     4   9  19  35  53  75 105 142 183 224 269 326
#     4  11  23  38  57  82 114 149 191 243 291 342
#
# _framework density 18.686639
#
# number of rings (size 3 to 8) (size 9 to 14) (size 15 to 20)
#    0.000    1.833    1.667    2.500    0.000    6.000 
#    0.000    0.833    0.000    3.000    0.000    0.000 
#    0.000    0.000    0.000    0.000    0.000    0.000 
#
# Total GULP energy -267550.435579 kJ/mol
# GULP energy per Si atom -5573.967408 kJ/mol
# Density = 1.864411 g / cm^3
# Si number density = 18.686639 Si / 1000 Ang^3
#
#
#
# Elastic Constant Matrix: (Units=GPa)
#
#
# Indices 1 2 3 4 5 6 
#
# 1 127.1163 51.8304 4.7811 0.0000 0.0000 0.0000
# 2 51.8304 102.2431 2.9434 0.0000 0.0000 0.0000
# 3 4.7811 2.9434 22.5230 0.0000 0.0000 0.0000
# 4 0.0000 0.0000 0.0000 31.2303 0.0000 0.0000
# 5 0.0000 0.0000 0.0000 0.0000 17.1519 0.0000
# 6 0.0000 0.0000 0.0000 0.0000 0.0000 9.7443
#
#
#
# Elastic Compliance Matrix: (Units=1/GPa)
#
#
# Indices 1 2 3 4 5 6 
#
# 1 0.009964 -0.005009 -0.001461 0.000000 0.000000 0.000000
# 2 -0.005009 0.012336 -0.000549 0.000000 0.000000 0.000000
# 3 -0.001461 -0.000549 0.044781 0.000000 0.000000 0.000000
# 4 0.000000 0.000000 0.000000 0.032020 0.000000 0.000000
# 5 0.000000 0.000000 0.000000 0.000000 0.058303 0.000000
# 6 0.000000 0.000000 0.000000 0.000000 0.000000 0.102624
#
#
# Mechanical properties :
#
#
# Convention : Reuss Voigt Hill
#
# Bulk Modulus (GPa) = 18.85234 41.22135 30.03684
# Shear Modulus (GPa) = 17.13824 24.44714 20.79269
#
# Velocity S-wave (km/s) = 3.03172 3.62092 3.33934
# Velocity P-wave (km/s) = 4.72923 6.29195 5.56571
#
# Compressibility (1/GPa) = 0.05304381
#
# Stress axis : x y z
#
# Youngs Moduli (GPa) = 100.35964 81.06552 22.33099
#
# Poissons Ratio (x) = 0.40607 0.03262
# Poissons Ratio (y) = 0.50271 0.01225
# Poissons Ratio (z) = 0.14658 0.04449
#
# Static dielectric constant tensor:
#      x y z
#    x 1.656920 0.000000 0.000000 
#    y 0.000000 1.716210 0.000000 
#    z 0.000000 0.000000 1.642620 
# 
# From -- ./inp_files/8585.got.cif
#   From: 2010.05.17/outbox.cif.g08.bks.cpg/sg63_5_cif.got.tgz:8585.got - 2010.06.03 15:47:04.
