data_PCOD9472069
_publ_section_title
;
Structure prediction by ZEFSAII (Michael W. Deem and Ramdas Pophale) SiO2 
 PCOD9472069
Probable space group: C M C M
;
_chemical_formula_sum "Si O2"
_cell_formula_units_Z 64
_cell_length_a 8.195795
_cell_length_b 23.865702
_cell_length_c 14.343481
_cell_angle_alpha 90.000000
_cell_angle_beta 90.000000
_cell_angle_gamma 90.000000
_cell_volume 2805.561950
_symmetry_space_group_name_H-M "C M C M"
_symmetry_group_IT_number 63
_symmetry_cell_setting 'orthorhombic'
loop_
_space_group_symop_operation_xyz
x,y,z
-x,-y,1/2+z
x,-y,-z
-x,y,1/2-z
-x,-y,-z
x,y,1/2-z
-x,y,z
x,-y,1/2+z
1/2+x,1/2+y,z
1/2-x,1/2-y,1/2+z
1/2+x,1/2-y,-z
1/2-x,1/2+y,1/2-z
1/2-x,1/2-y,-z
1/2+x,1/2+y,1/2-z
1/2-x,1/2+y,z
1/2+x,1/2-y,1/2+z
loop_
_atom_site_type_symbol
_atom_site_label
_atom_site_fract_x
_atom_site_fract_y
_atom_site_fract_z
Si Si1 0.314097 0.642326 0.861490
Si Si2 0.000000 0.289633 0.363963
Si Si3 0.000000 0.840909 0.864441
Si Si4 0.814715 0.987368 0.109162
Si Si5 0.825807 0.602331 0.143372
O O1 0.322587 0.651789 0.750000
O O2 0.500000 0.651596 0.897411
O O3 0.166573 0.680663 0.897247
O O4 0.269868 0.576860 0.874663
O O5 0.000000 0.224217 0.387403
O O6 0.000000 0.293455 0.250000
O O7 0.163486 0.871313 0.899825
O O8 0.000000 0.846618 0.750000
O O9 0.000000 0.995044 0.145006
O O10 0.700252 0.035665 0.148040
O O11 0.817318 0.000000 0.000000
O O12 0.832233 0.623362 0.250000
O O13 0.000000 0.615057 0.098047
#
# Coordination Sequence:
#
# PCOD9472069 Si02
#       5
#    16   8   8  16  16
#     4   9  18  32  51  77 106 135 168 213 260 306
#     4   9  18  32  53  78 102 134 173 212 258 309
#     4   9  18  34  53  76 106 134 169 218 260 301
#     4  10  20  34  53  79 108 143 172 213 264 314
#     4  10  20  33  53  80 106 137 173 213 261 312
#
# _framework density 22.81183
#
# number of rings (size 3 to 8) (size 9 to 14) (size 15 to 20)
#    0.000    2.500    1.250    0.750    1.750    2.500 
#    0.000    5.000    0.000    1.500    0.000    0.000 
#    0.000    0.000    0.000    0.000    0.000    0.000 
#
# Total GULP energy -178753.282385 kJ/mol
# GULP energy per Si atom -5586.040075 kJ/mol
# Density = 2.275991 g / cm^3
# Si number density = 22.811830 Si / 1000 Ang^3
#
#
#
# Elastic Constant Matrix: (Units=GPa)
#
#
# Indices 1 2 3 4 5 6 
#
# 1 218.9744 123.1658 9.4166 0.0000 0.0000 0.0000
# 2 123.1658 128.8690 -9.4339 0.0000 0.0000 0.0000
# 3 9.4166 -9.4339 51.5806 0.0000 0.0000 0.0000
# 4 0.0000 0.0000 0.0000 -12.4793 0.0000 0.0000
# 5 0.0000 0.0000 0.0000 0.0000 11.8922 0.0000
# 6 0.0000 0.0000 0.0000 0.0000 0.0000 22.2188
#
#
#
# Elastic Compliance Matrix: (Units=1/GPa)
#
#
# Indices 1 2 3 4 5 6 
#
# 1 0.010573 -0.010385 -0.003830 0.000000 0.000000 0.000000
# 2 -0.010385 0.018066 0.005200 0.000000 0.000000 0.000000
# 3 -0.003830 0.005200 0.021037 0.000000 0.000000 0.000000
# 4 0.000000 0.000000 0.000000 -0.080133 0.000000 0.000000
# 5 0.000000 0.000000 0.000000 0.000000 0.084088 0.000000
# 6 0.000000 0.000000 0.000000 0.000000 0.000000 0.045007
#
#
# Mechanical properties :
#
#
# Convention : Reuss Voigt Hill
#
# Bulk Modulus (GPa) = 31.59861 71.74678 51.67269
# Shear Modulus (GPa) = 39.30286 22.74471 31.02378
#
# Velocity S-wave (km/s) = 4.15531 3.16105 3.69180
# Velocity P-wave (km/s) = 6.07487 6.69648 6.39323
#
# Compressibility (1/GPa) = 0.03164697
#
# Stress axis : x y z
#
# Youngs Moduli (GPa) = 94.58269 55.35229 47.53445
#
# Poissons Ratio (x) = 0.57484 0.18204
# Poissons Ratio (y) = 0.98226 -0.24719
# Poissons Ratio (z) = 0.36221 -0.28784
#
# Static dielectric constant tensor:
#      x y z
#    x 1.873850 0.000000 0.000000 
#    y 0.000000 1.782700 0.000000 
#    z 0.000000 0.000000 1.797700 
# 
# From -- ./inp_files/27571.got.cif
#   From: 2010.05.17/outbox.cif.g08.bks.cpg/sg63_14_cif.got.tgz:27571.got - 2010.06.03 15:47:04.
