data_PCOD9472079
_publ_section_title
;
Structure prediction by ZEFSAII (Michael W. Deem and Ramdas Pophale) SiO2 
 PCOD9472079
Probable space group: C M C M
;
_chemical_formula_sum "Si O2"
_cell_formula_units_Z 88
_cell_length_a 18.461600
_cell_length_b 27.894343
_cell_length_c 7.497614
_cell_angle_alpha 90.000000
_cell_angle_beta 90.000000
_cell_angle_gamma 90.000000
_cell_volume 3861.077792
_symmetry_space_group_name_H-M "C M C M"
_symmetry_group_IT_number 63
_symmetry_cell_setting 'orthorhombic'
loop_
_space_group_symop_operation_xyz
x,y,z
-x,-y,1/2+z
x,-y,-z
-x,y,1/2-z
-x,-y,-z
x,y,1/2-z
-x,y,z
x,-y,1/2+z
1/2+x,1/2+y,z
1/2-x,1/2-y,1/2+z
1/2+x,1/2-y,-z
1/2-x,1/2+y,1/2-z
1/2-x,1/2-y,-z
1/2+x,1/2+y,1/2-z
1/2-x,1/2+y,z
1/2+x,1/2-y,1/2+z
loop_
_atom_site_type_symbol
_atom_site_label
_atom_site_fract_x
_atom_site_fract_y
_atom_site_fract_z
Si Si1 0.328635 0.227686 0.535104
Si Si2 0.864421 0.621441 0.543220
Si Si3 0.415252 0.315638 0.547201
Si Si4 0.080661 0.076207 0.031462
Si Si5 0.737456 0.551825 0.038799
Si Si6 0.000000 0.557484 0.964619
O O1 0.336556 0.224518 0.750000
O O2 0.250000 0.250000 0.500000
O O3 0.348734 0.174587 0.466338
O O4 0.380095 0.269473 0.462378
O O5 0.884233 0.628704 0.750000
O O6 0.788996 0.592687 0.535796
O O7 0.928584 0.587020 0.469740
O O8 0.385457 0.319702 0.750000
O O9 0.500000 0.306698 0.558757
O O10 0.408156 0.368727 0.471308
O O11 0.078393 0.075182 0.250000
O O12 0.154497 0.051477 0.970426
O O13 0.000000 0.059959 0.972897
O O14 0.734347 0.559332 0.250000
O O15 0.770554 0.500000 0.000000
O O16 0.000000 0.559781 0.750000
O O17 0.000000 0.500000 0.000000
#
# Coordination Sequence:
#
# PCOD9472079 Si02
#       6
#    16  16  16  16  16   8
#     4  10  20  33  53  81 112 144 179 222 268 321
#     4  10  22  38  57  82 113 147 188 235 284 339
#     4   8  14  26  48  75 101 132 172 210 246 296
#     4   8  15  29  49  76 108 141 178 219 261 315
#     4  11  22  36  56  79 107 141 182 229 281 336
#     4  10  22  40  60  82 110 146 194 248 299 346
#
# _framework density 22.791563
#
# number of rings (size 3 to 8) (size 9 to 14) (size 15 to 20)
#    0.000    2.545    0.000    3.273    1.273    4.727 
#    0.000    0.000    0.000    2.182    0.000    7.636 
#    0.000    0.000    0.000    0.000    0.000    0.000 
#
# Total GULP energy -245297.656205 kJ/mol
# GULP energy per Si atom -5574.946732 kJ/mol
# Density = 2.273969 g / cm^3
# Si number density = 22.791563 Si / 1000 Ang^3
#
#
#
# Elastic Constant Matrix: (Units=GPa)
#
#
# Indices 1 2 3 4 5 6 
#
# 1 101.5393 68.3765 -2.8240 0.0000 0.0000 0.0000
# 2 68.3765 155.8989 -3.9889 0.0000 0.0000 0.0000
# 3 -2.8240 -3.9889 67.5777 0.0000 0.0000 0.0000
# 4 0.0000 0.0000 0.0000 5.0585 0.0000 0.0000
# 5 0.0000 0.0000 0.0000 0.0000 19.3246 0.0000
# 6 0.0000 0.0000 0.0000 0.0000 0.0000 40.8443
#
#
#
# Elastic Compliance Matrix: (Units=1/GPa)
#
#
# Indices 1 2 3 4 5 6 
#
# 1 0.013980 -0.006126 0.000223 0.000000 0.000000 0.000000
# 2 -0.006126 0.009108 0.000282 0.000000 0.000000 0.000000
# 3 0.000223 0.000282 0.014824 0.000000 0.000000 0.000000
# 4 0.000000 0.000000 0.000000 0.197685 0.000000 0.000000
# 5 0.000000 0.000000 0.000000 0.000000 0.051747 0.000000
# 6 0.000000 0.000000 0.000000 0.000000 0.000000 0.024483
#
#
# Mechanical properties :
#
#
# Convention : Reuss Voigt Hill
#
# Bulk Modulus (GPa) = 37.49701 49.79367 43.64534
# Shear Modulus (GPa) = 15.06205 30.60899 22.83552
#
# Velocity S-wave (km/s) = 2.57351 3.66867 3.16876
# Velocity P-wave (km/s) = 5.03175 6.31192 5.70784
#
# Compressibility (1/GPa) = 0.02666879
#
# Stress axis : x y z
#
# Youngs Moduli (GPa) = 71.53254 109.78964 67.45950
#
# Poissons Ratio (x) = 0.67254 -0.01502
# Poissons Ratio (y) = 0.43819 -0.01900
# Poissons Ratio (z) = -0.01592 -0.03092
#
# Static dielectric constant tensor:
#      x y z
#    x 1.229000 0.000000 0.000000 
#    y 0.000000 1.786540 0.000000 
#    z 0.000000 0.000000 1.886380 
# 
# From -- ./inp_files/6831.got.cif
#   From: 2010.05.17/outbox.cif.g08.bks.cpg/sg63_4_cif.got.tgz:6831.got - 2010.06.03 15:47:04.
