data_PCOD9472369
_publ_section_title
;
Structure prediction by ZEFSAII (Michael W. Deem and Ramdas Pophale) SiO2 
 PCOD9472369
Probable space group: C M C M
;
_chemical_formula_sum "Si O2"
_cell_formula_units_Z 64
_cell_length_a 23.882687
_cell_length_b 8.064256
_cell_length_c 16.777803
_cell_angle_alpha 90.000000
_cell_angle_beta 90.000000
_cell_angle_gamma 90.000000
_cell_volume 3231.339457
_symmetry_space_group_name_H-M "C M C M"
_symmetry_group_IT_number 63
_symmetry_cell_setting 'orthorhombic'
loop_
_space_group_symop_operation_xyz
x,y,z
-x,-y,1/2+z
x,-y,-z
-x,y,1/2-z
-x,-y,-z
x,y,1/2-z
-x,y,z
x,-y,1/2+z
1/2+x,1/2+y,z
1/2-x,1/2-y,1/2+z
1/2+x,1/2-y,-z
1/2-x,1/2+y,1/2-z
1/2-x,1/2-y,-z
1/2+x,1/2+y,1/2-z
1/2-x,1/2+y,z
1/2+x,1/2-y,1/2+z
loop_
_atom_site_type_symbol
_atom_site_label
_atom_site_fract_x
_atom_site_fract_y
_atom_site_fract_z
Si Si1 0.437733 0.048081 0.906040
Si Si2 0.865812 0.837126 0.950075
Si Si3 0.171392 0.639921 0.396625
Si Si4 0.277804 0.479190 0.342053
O O1 0.500000 0.029926 0.872174
O O2 0.414996 0.235975 0.907398
O O3 0.388653 0.932776 0.870535
O O4 0.440908 0.000000 0.000000
O O5 0.820561 0.900210 0.887287
O O6 0.838011 0.712828 0.014689
O O7 0.884639 0.000000 0.000000
O O8 0.218537 0.500183 0.386299
O O9 0.195872 0.796713 0.349340
O O10 0.270782 0.522564 0.250000
#
# Coordination Sequence:
#
# PCOD9472369 Si02
#       4
#    16  16  16  16
#     4   9  18  34  56  80 105 137 179 222 263 314
#     4   9  19  34  55  84 112 138 173 221 275 327
#     4  10  20  34  54  80 108 141 179 223 272 323
#     4  11  21  34  54  79 110 142 178 224 273 327
#
# _framework density 19.806028999999999
#
# number of rings (size 3 to 8) (size 9 to 14) (size 15 to 20)
#    0.000    2.250    0.000    3.000    0.000    7.500 
#    0.000    5.000    0.000    8.250    0.000    0.000 
#    0.000    0.000    0.000    0.000    0.000    0.000 
#
# Total GULP energy -178574.837779 kJ/mol
# GULP energy per Si atom -5580.463681 kJ/mol
# Density = 1.976095 g / cm^3
# Si number density = 19.806029 Si / 1000 Ang^3
#
#
#
# Elastic Constant Matrix: (Units=GPa)
#
#
# Indices 1 2 3 4 5 6 
#
# 1 179.8856 87.2335 19.0799 0.0000 0.0000 0.0000
# 2 87.2335 121.1410 34.0015 0.0000 0.0000 0.0000
# 3 19.0799 34.0015 34.9228 0.0000 0.0000 0.0000
# 4 0.0000 0.0000 0.0000 16.1085 0.0000 0.0000
# 5 0.0000 0.0000 0.0000 0.0000 -9.5191 0.0000
# 6 0.0000 0.0000 0.0000 0.0000 0.0000 24.7937
#
#
#
# Elastic Compliance Matrix: (Units=1/GPa)
#
#
# Indices 1 2 3 4 5 6 
#
# 1 0.008627 -0.006728 0.001837 0.000000 0.000000 0.000000
# 2 -0.006728 0.016606 -0.012492 0.000000 0.000000 0.000000
# 3 0.001837 -0.012492 0.039793 0.000000 0.000000 0.000000
# 4 0.000000 0.000000 0.000000 0.062079 0.000000 0.000000
# 5 0.000000 0.000000 0.000000 0.000000 -0.105052 0.000000
# 6 0.000000 0.000000 0.000000 0.000000 0.000000 0.040333
#
#
# Mechanical properties :
#
#
# Convention : Reuss Voigt Hill
#
# Bulk Modulus (GPa) = 33.04636 68.50882 50.77759
# Shear Modulus (GPa) = 46.62517 19.31891 32.97204
#
# Velocity S-wave (km/s) = 4.85716 3.12654 4.08456
# Velocity P-wave (km/s) = 6.94098 6.90642 6.92372
#
# Compressibility (1/GPa) = 0.03026052
#
# Stress axis : x y z
#
# Youngs Moduli (GPa) = 115.91790 60.22018 25.12984
#
# Poissons Ratio (x) = 0.40515 -0.04617
# Poissons Ratio (y) = 0.77987 0.31392
# Poissons Ratio (z) = -0.21295 0.75227
#
# Static dielectric constant tensor:
#      x y z
#    x 1.699490 0.000000 0.000000 
#    y 0.000000 1.776480 0.000000 
#    z 0.000000 0.000000 1.677190 
# 
# From -- ./inp_files/36178.got.cif
#   From: 2010.05.17/outbox.cif.g08.bks.cpg/sg63_19_cif.got.tgz:36178.got - 2010.06.03 15:47:04.
