data_PCOD9472785
_publ_section_title
;
Structure prediction by ZEFSAII (Michael W. Deem and Ramdas Pophale) SiO2 
 PCOD9472785
Probable space group: C M C M
;
_chemical_formula_sum "Si O2"
_cell_formula_units_Z 96
_cell_length_a 14.106601
_cell_length_b 32.684018
_cell_length_c 11.619081
_cell_angle_alpha 90.000000
_cell_angle_beta 90.000000
_cell_angle_gamma 90.000000
_cell_volume 5357.098145
_symmetry_space_group_name_H-M "C M C M"
_symmetry_group_IT_number 63
_symmetry_cell_setting 'orthorhombic'
loop_
_space_group_symop_operation_xyz
x,y,z
-x,-y,1/2+z
x,-y,-z
-x,y,1/2-z
-x,-y,-z
x,y,1/2-z
-x,y,z
x,-y,1/2+z
1/2+x,1/2+y,z
1/2-x,1/2-y,1/2+z
1/2+x,1/2-y,-z
1/2-x,1/2+y,1/2-z
1/2-x,1/2-y,-z
1/2+x,1/2+y,1/2-z
1/2-x,1/2+y,z
1/2+x,1/2-y,1/2+z
loop_
_atom_site_type_symbol
_atom_site_label
_atom_site_fract_x
_atom_site_fract_y
_atom_site_fract_z
Si Si1 0.614646 0.181601 0.250000
Si Si2 0.887176 0.548143 0.487857
Si Si3 0.777701 0.806316 0.112612
Si Si4 0.386434 0.523930 0.617172
Si Si5 0.887485 0.731965 0.479795
Si Si6 0.385097 0.911611 0.750000
Si Si7 0.263740 0.398685 0.115238
O O1 0.500000 0.179834 0.250000
O O2 0.640046 0.205904 0.134557
O O3 0.650276 0.134988 0.250000
O O4 0.868766 0.500000 0.500000
O O5 0.857923 0.563428 0.362089
O O6 0.827285 0.576766 0.570941
O O7 0.000000 0.554259 0.503549
O O8 0.795114 0.804975 0.250000
O O9 0.854368 0.777941 0.048654
O O10 0.777897 0.853066 0.068341
O O11 0.675900 0.786459 0.081796
O O12 0.355010 0.500000 0.500000
O O13 0.354060 0.511956 0.750000
O O14 0.500000 0.521421 0.619623
O O15 0.350947 0.570301 0.599203
O O16 0.000000 0.728900 0.498073
O O17 0.500000 0.909666 0.750000
O O18 0.250564 0.392588 0.250000
#
# Coordination Sequence:
#
# PCOD9472785 Si02
#       7
#     8  16  16  16  16   8  16
#     4   9  16  30  54  77  97 129 177 222 262 309
#     4  10  21  35  52  75 108 146 183 222 264 314
#     4  10  21  36  54  81 111 141 180 222 271 332
#     4   9  18  35  58  81 107 143 187 235 282 330
#     4  10  20  35  57  80 107 141 178 223 271 322
#     4   9  18  32  50  73  99 135 183 222 254 303
#     4  10  21  35  53  80 111 140 176 220 271 328
#
# _framework density 17.92015
#
# number of rings (size 3 to 8) (size 9 to 14) (size 15 to 20)
#    0.000    2.333    0.833    1.500    1.167    3.333 
#    1.500    3.333    0.000    0.000    0.000    2.333 
#    0.000    0.000    0.000    0.000    0.000    0.000 
#
# Total GULP energy -267409.147309 kJ/mol
# GULP energy per Si atom -5571.023902 kJ/mol
# Density = 1.787936 g / cm^3
# Si number density = 17.920150 Si / 1000 Ang^3
#
#
#
# Elastic Constant Matrix: (Units=GPa)
#
#
# Indices 1 2 3 4 5 6 
#
# 1 28.8565 0.8965 8.2566 0.0000 0.0000 0.0000
# 2 0.8965 132.2549 38.5059 0.0000 0.0000 0.0000
# 3 8.2566 38.5059 47.1981 0.0000 0.0000 0.0000
# 4 0.0000 0.0000 0.0000 24.1543 0.0000 0.0000
# 5 0.0000 0.0000 0.0000 0.0000 13.4557 0.0000
# 6 0.0000 0.0000 0.0000 0.0000 0.0000 37.7215
#
#
#
# Elastic Compliance Matrix: (Units=1/GPa)
#
#
# Indices 1 2 3 4 5 6 
#
# 1 0.036936 0.002139 -0.008206 0.000000 0.000000 0.000000
# 2 0.002139 0.010041 -0.008566 0.000000 0.000000 0.000000
# 3 -0.008206 -0.008566 0.029611 0.000000 0.000000 0.000000
# 4 0.000000 0.000000 0.000000 0.041401 0.000000 0.000000
# 5 0.000000 0.000000 0.000000 0.000000 0.074318 0.000000
# 6 0.000000 0.000000 0.000000 0.000000 0.000000 0.026510
#
#
# Mechanical properties :
#
#
# Convention : Reuss Voigt Hill
#
# Bulk Modulus (GPa) = 21.13215 33.73638 27.43427
# Shear Modulus (GPa) = 18.94973 25.77632 22.36302
#
# Velocity S-wave (km/s) = 3.25538 3.79674 3.53643
# Velocity P-wave (km/s) = 5.09392 6.17147 5.65840
#
# Compressibility (1/GPa) = 0.04732126
#
# Stress axis : x y z
#
# Youngs Moduli (GPa) = 27.07395 99.59647 33.77126
#
# Poissons Ratio (x) = -0.21303 0.27714
# Poissons Ratio (y) = -0.05791 0.28927
# Poissons Ratio (z) = 0.22218 0.85310
#
# Static dielectric constant tensor:
#      x y z
#    x 1.598530 0.000000 0.000000 
#    y 0.000000 1.622700 0.000000 
#    z 0.000000 0.000000 1.632700 
# 
# From -- ./inp_files/20000.got.cif
#   From: 2010.05.17/outbox.cif.g08.bks.cpg/sg63_10_cif.got.tgz:20000.got - 2010.06.03 15:47:04.
