data_PCOD9472685
_publ_section_title
;
Structure prediction by ZEFSAII (Michael W. Deem and Ramdas Pophale) SiO2 
 PCOD9472685
Probable space group: C M C M
;
_chemical_formula_sum "Si O2"
_cell_formula_units_Z 96
_cell_length_a 18.579238
_cell_length_b 9.755268
_cell_length_c 22.538770
_cell_angle_alpha 90.000000
_cell_angle_beta 90.000000
_cell_angle_gamma 90.000000
_cell_volume 4085.049419
_symmetry_space_group_name_H-M "C M C M"
_symmetry_group_IT_number 63
_symmetry_cell_setting 'orthorhombic'
loop_
_space_group_symop_operation_xyz
x,y,z
-x,-y,1/2+z
x,-y,-z
-x,y,1/2-z
-x,-y,-z
x,y,1/2-z
-x,y,z
x,-y,1/2+z
1/2+x,1/2+y,z
1/2-x,1/2-y,1/2+z
1/2+x,1/2-y,-z
1/2-x,1/2+y,1/2-z
1/2-x,1/2-y,-z
1/2+x,1/2+y,1/2-z
1/2-x,1/2+y,z
1/2+x,1/2-y,1/2+z
loop_
_atom_site_type_symbol
_atom_site_label
_atom_site_fract_x
_atom_site_fract_y
_atom_site_fract_z
Si Si1 0.080538 0.193239 0.369114
Si Si2 0.082419 0.854219 0.493647
Si Si3 0.416916 0.910509 0.947265
Si Si4 0.129259 0.093817 0.819741
Si Si5 0.211170 0.373638 0.182356
Si Si6 0.603527 0.906667 0.684149
O O1 0.079765 0.206619 0.440210
O O2 0.147737 0.280291 0.344539
O O3 0.000000 0.232626 0.346950
O O4 0.092508 0.032511 0.353069
O O5 0.116358 0.741098 0.451243
O O6 0.000000 0.882152 0.472156
O O7 0.119902 0.000000 0.500000
O O8 0.500000 0.889584 0.965222
O O9 0.420714 0.961745 0.880075
O O10 0.383593 0.000000 0.000000
O O11 0.134475 0.052393 0.750000
O O12 0.209533 0.122328 0.844058
O O13 0.092756 0.243634 0.819238
O O14 0.219376 0.325003 0.250000
O O15 0.184009 0.531716 0.183787
O O16 0.576906 0.950984 0.750000
#
# Coordination Sequence:
#
# PCOD9472685 Si02
#       6
#    16  16  16  16  16  16
#     4  11  22  37  62  93 120 153 207 267 308 352
#     4   9  18  33  54  80 112 153 196 240 302 373
#     4  10  20  35  55  79 113 157 197 237 299 375
#     4  10  21  38  60  86 121 166 206 245 310 385
#     4  10  21  38  59  84 120 166 207 245 305 382
#     4  10  21  36  58  86 114 153 206 257 300 354
#
# _framework density 23.500329000000001
#
# number of rings (size 3 to 8) (size 9 to 14) (size 15 to 20)
#    0.000    2.000    0.000    3.500    0.000    8.333 
#    0.000    3.333    0.000   20.000    0.000    0.000 
#    0.000    0.000    0.000    0.000    0.000    0.000 
#
# Total GULP energy -267449.512856 kJ/mol
# GULP energy per Si atom -5571.864851 kJ/mol
# Density = 2.344684 g / cm^3
# Si number density = 23.500329 Si / 1000 Ang^3
#
#
#
# Elastic Constant Matrix: (Units=GPa)
#
#
# Indices 1 2 3 4 5 6 
#
# 1 76.3008 7.8250 18.8156 0.0000 0.0000 0.0000
# 2 7.8250 84.9739 27.6983 0.0000 0.0000 0.0000
# 3 18.8156 27.6983 141.5242 0.0000 0.0000 0.0000
# 4 0.0000 0.0000 0.0000 40.3341 0.0000 0.0000
# 5 0.0000 0.0000 0.0000 0.0000 13.6275 0.0000
# 6 0.0000 0.0000 0.0000 0.0000 0.0000 22.5363
#
#
#
# Elastic Compliance Matrix: (Units=1/GPa)
#
#
# Indices 1 2 3 4 5 6 
#
# 1 0.013590 -0.000708 -0.001668 0.000000 0.000000 0.000000
# 2 -0.000708 0.012607 -0.002373 0.000000 0.000000 0.000000
# 3 -0.001668 -0.002373 0.007752 0.000000 0.000000 0.000000
# 4 0.000000 0.000000 0.000000 0.024793 0.000000 0.000000
# 5 0.000000 0.000000 0.000000 0.000000 0.073381 0.000000
# 6 0.000000 0.000000 0.000000 0.000000 0.000000 0.044373
#
#
# Mechanical properties :
#
#
# Convention : Reuss Voigt Hill
#
# Bulk Modulus (GPa) = 40.89847 45.71963 43.30905
# Shear Modulus (GPa) = 25.75397 31.86358 28.80878
#
# Velocity S-wave (km/s) = 3.31403 3.68622 3.50507
# Velocity P-wave (km/s) = 5.66435 6.13309 5.90337
#
# Compressibility (1/GPa) = 0.02445079
#
# Stress axis : x y z
#
# Youngs Moduli (GPa) = 73.58355 79.32044 128.99536
#
# Poissons Ratio (x) = 0.05613 0.21520
# Poissons Ratio (y) = 0.05207 0.30614
# Poissons Ratio (z) = 0.12276 0.18825
#
# Static dielectric constant tensor:
#      x y z
#    x 1.907170 0.000000 0.000000 
#    y 0.000000 2.014520 0.000000 
#    z 0.000000 0.000000 1.896530 
# 
# From -- ./inp_files/64984.got.cif
#   From: 2010.05.17/outbox.cif.g08.bks.cpg/sg63_33_cif.got.tgz:64984.got - 2010.06.03 15:47:04.
