data_PCOD9472213
_publ_section_title
;
Structure prediction by ZEFSAII (Michael W. Deem and Ramdas Pophale) SiO2 
 PCOD9472213
Probable space group: C M C M
;
_chemical_formula_sum "Si O2"
_cell_formula_units_Z 112
_cell_length_a 12.048346
_cell_length_b 17.028721
_cell_length_c 29.963088
_cell_angle_alpha 90.000000
_cell_angle_beta 90.000000
_cell_angle_gamma 90.000000
_cell_volume 6147.464518
_symmetry_space_group_name_H-M "C M C M"
_symmetry_group_IT_number 63
_symmetry_cell_setting 'orthorhombic'
loop_
_space_group_symop_operation_xyz
x,y,z
-x,-y,1/2+z
x,-y,-z
-x,y,1/2-z
-x,-y,-z
x,y,1/2-z
-x,y,z
x,-y,1/2+z
1/2+x,1/2+y,z
1/2-x,1/2-y,1/2+z
1/2+x,1/2-y,-z
1/2-x,1/2+y,1/2-z
1/2-x,1/2-y,-z
1/2+x,1/2+y,1/2-z
1/2-x,1/2+y,z
1/2+x,1/2-y,1/2+z
loop_
_atom_site_type_symbol
_atom_site_label
_atom_site_fract_x
_atom_site_fract_y
_atom_site_fract_z
Si Si1 0.629965 0.096386 0.698750
Si Si2 0.871662 0.048141 0.955939
Si Si3 0.370732 0.732413 0.976618
Si Si4 0.218410 0.250862 0.799642
Si Si5 0.876710 0.097506 0.298884
Si Si6 0.251312 0.513919 0.370154
Si Si7 0.876289 0.674259 0.115875
O O1 0.643916 0.065979 0.750000
O O2 0.500000 0.115909 0.693626
O O3 0.705609 0.174030 0.694787
O O4 0.667219 0.035337 0.660817
O O5 0.869816 0.139700 0.967476
O O6 0.794379 0.029680 0.913856
O O7 0.000000 0.025529 0.945804
O O8 0.837084 0.000000 0.000000
O O9 0.500000 0.749078 0.995222
O O10 0.365691 0.779253 0.930147
O O11 0.250000 0.750000 0.000000
O O12 0.165461 0.246517 0.750000
O O13 0.294907 0.328747 0.799735
O O14 0.143607 0.266604 0.842724
O O15 0.866597 0.059862 0.250000
O O16 0.000000 0.129376 0.303846
O O17 0.851189 0.035200 0.336763
O O18 0.202393 0.598696 0.383273
O O19 0.000000 0.642420 0.120103
#
# Coordination Sequence:
#
# PCOD9472213 Si02
#       7
#    16  16  16  16  16  16  16
#     4  10  20  34  52  75 105 140 178 222 269 316
#     4  10  21  37  58  82 108 139 178 227 281 332
#     4  10  21  40  62  83 110 144 182 229 282 335
#     4   9  18  33  53  75 101 137 181 221 259 309
#     4   9  17  30  49  74 103 135 173 217 260 304
#     4  11  20  33  53  78 108 141 178 214 265 328
#     4  10  21  36  54  78 110 144 177 218 270 326
#
# _framework density 18.218893000000001
#
# number of rings (size 3 to 8) (size 9 to 14) (size 15 to 20)
#    0.000    2.143    0.000    3.429    0.000    2.571 
#    0.000    7.143    0.000    5.571    0.000    0.000 
#    0.000    0.000    0.000    0.000    0.000    0.000 
#
# Total GULP energy -311823.014051 kJ/mol
# GULP energy per Si atom -5568.268108 kJ/mol
# Density = 1.817743 g / cm^3
# Si number density = 18.218893 Si / 1000 Ang^3
#
#
#
# Elastic Constant Matrix: (Units=GPa)
#
#
# Indices 1 2 3 4 5 6 
#
# 1 75.0358 8.6581 45.9703 0.0000 0.0000 0.0000
# 2 8.6581 58.2609 28.2370 0.0000 0.0000 0.0000
# 3 45.9703 28.2370 93.0639 0.0000 0.0000 0.0000
# 4 0.0000 0.0000 0.0000 28.5200 0.0000 0.0000
# 5 0.0000 0.0000 0.0000 0.0000 24.4586 0.0000
# 6 0.0000 0.0000 0.0000 0.0000 0.0000 -16.0994
#
#
#
# Elastic Compliance Matrix: (Units=1/GPa)
#
#
# Indices 1 2 3 4 5 6 
#
# 1 0.019318 0.002056 -0.010166 0.000000 0.000000 0.000000
# 2 0.002056 0.020342 -0.007188 0.000000 0.000000 0.000000
# 3 -0.010166 -0.007188 0.017948 0.000000 0.000000 0.000000
# 4 0.000000 0.000000 0.000000 0.035063 0.000000 0.000000
# 5 0.000000 0.000000 0.000000 0.000000 0.040885 0.000000
# 6 0.000000 0.000000 0.000000 0.000000 0.000000 -0.062114
#
#
# Mechanical properties :
#
#
# Convention : Reuss Voigt Hill
#
# Bulk Modulus (GPa) = 37.01975 43.56572 40.29274
# Shear Modulus (GPa) = 45.02763 16.94219 30.98491
#
# Velocity S-wave (km/s) = 4.97679 3.05277 4.12843
# Velocity P-wave (km/s) = 7.30672 6.03243 6.69994
#
# Compressibility (1/GPa) = 0.02701261
#
# Stress axis : x y z
#
# Youngs Moduli (GPa) = 51.76499 49.15859 55.71620
#
# Poissons Ratio (x) = -0.10109 0.56643
# Poissons Ratio (y) = -0.10645 0.40049
# Poissons Ratio (z) = 0.52626 0.35335
#
# Static dielectric constant tensor:
#      x y z
#    x 1.663910 0.000000 0.000000 
#    y 0.000000 1.594450 0.000000 
#    z 0.000000 0.000000 1.639720 
# 
# From -- ./inp_files/72847.got.cif
#   From: 2010.05.17/outbox.cif.g08.bks.cpg/sg63_37_cif.got.tgz:72847.got - 2010.06.03 15:47:04.
