data_PCOD9472270
_publ_section_title
;
Structure prediction by ZEFSAII (Michael W. Deem and Ramdas Pophale) SiO2 
 PCOD9472270
Probable space group: C M C M
;
_chemical_formula_sum "Si O2"
_cell_formula_units_Z 80
_cell_length_a 9.328786
_cell_length_b 26.786513
_cell_length_c 16.118400
_cell_angle_alpha 90.000000
_cell_angle_beta 90.000000
_cell_angle_gamma 90.000000
_cell_volume 4027.756820
_symmetry_space_group_name_H-M "C M C M"
_symmetry_group_IT_number 63
_symmetry_cell_setting 'orthorhombic'
loop_
_space_group_symop_operation_xyz
x,y,z
-x,-y,1/2+z
x,-y,-z
-x,y,1/2-z
-x,-y,-z
x,y,1/2-z
-x,y,z
x,-y,1/2+z
1/2+x,1/2+y,z
1/2-x,1/2-y,1/2+z
1/2+x,1/2-y,-z
1/2-x,1/2+y,1/2-z
1/2-x,1/2-y,-z
1/2+x,1/2+y,1/2-z
1/2-x,1/2+y,z
1/2+x,1/2-y,1/2+z
loop_
_atom_site_type_symbol
_atom_site_label
_atom_site_fract_x
_atom_site_fract_y
_atom_site_fract_z
Si Si1 0.169671 0.697016 0.400570
Si Si2 0.835523 0.100884 0.121317
Si Si3 0.329110 0.694673 0.923354
Si Si4 0.337878 0.413966 0.422130
Si Si5 0.837084 0.501545 0.344989
O O1 0.255476 0.652421 0.357441
O O2 0.228113 0.696961 0.495582
O O3 0.194114 0.754343 0.372487
O O4 0.000000 0.686862 0.398033
O O5 0.000000 0.101643 0.148559
O O6 0.752339 0.052406 0.151714
O O7 0.835576 0.095396 0.020915
O O8 0.500000 0.695192 0.947943
O O9 0.304370 0.640451 0.883340
O O10 0.500000 0.428537 0.398384
O O11 0.233069 0.458267 0.399237
O O12 0.836985 0.483758 0.250000
O O13 0.000000 0.511682 0.371110
#
# Coordination Sequence:
#
# PCOD9472270 Si02
#       5
#    16  16  16  16  16
#     4   9  15  25  45  73 104 134 162 198 245 290
#     4  10  20  34  53  77 103 131 166 206 247 297
#     4   8  15  27  44  71 105 134 162 198 241 292
#     4   9  18  33  53  77 103 131 165 203 242 291
#     4  11  24  38  51  71  99 130 167 211 255 298
#
# _framework density 19.862171
#
# number of rings (size 3 to 8) (size 9 to 14) (size 15 to 20)
#    0.000    2.600    0.000    3.600    0.000    8.800 
#    0.000    0.000    0.000    1.200    0.000    2.800 
#    0.000    0.000    0.000    0.000    0.000    0.000 
#
# Total GULP energy -222997.146518 kJ/mol
# GULP energy per Si atom -5574.928663 kJ/mol
# Density = 1.981696 g / cm^3
# Si number density = 19.862171 Si / 1000 Ang^3
#
#
#
# Elastic Constant Matrix: (Units=GPa)
#
#
# Indices 1 2 3 4 5 6 
#
# 1 124.8904 76.9590 15.1301 0.0000 0.0000 0.0000
# 2 76.9590 132.9609 24.9252 0.0000 0.0000 0.0000
# 3 15.1301 24.9252 20.0800 0.0000 0.0000 0.0000
# 4 0.0000 0.0000 0.0000 -13.1524 0.0000 0.0000
# 5 0.0000 0.0000 0.0000 0.0000 4.3536 0.0000
# 6 0.0000 0.0000 0.0000 0.0000 0.0000 41.4322
#
#
#
# Elastic Compliance Matrix: (Units=1/GPa)
#
#
# Indices 1 2 3 4 5 6 
#
# 1 0.012451 -0.007100 -0.000568 0.000000 0.000000 0.000000
# 2 -0.007100 0.013851 -0.011843 0.000000 0.000000 0.000000
# 3 -0.000568 -0.011843 0.064930 0.000000 0.000000 0.000000
# 4 0.000000 0.000000 0.000000 -0.076032 0.000000 0.000000
# 5 0.000000 0.000000 0.000000 0.000000 0.229694 0.000000
# 6 0.000000 0.000000 0.000000 0.000000 0.000000 0.024136
#
#
# Mechanical properties :
#
#
# Convention : Reuss Voigt Hill
#
# Bulk Modulus (GPa) = 19.15394 56.88444 38.01919
# Shear Modulus (GPa) = 15.36309 17.25448 16.30879
#
# Velocity S-wave (km/s) = 2.78418 2.95059 2.86859
# Velocity P-wave (km/s) = 4.47212 6.34899 5.49134
#
# Compressibility (1/GPa) = 0.05220859
#
# Stress axis : x y z
#
# Youngs Moduli (GPa) = 80.31369 72.19768 15.40127
#
# Poissons Ratio (x) = 0.51263 0.00875
# Poissons Ratio (y) = 0.57025 0.18240
# Poissons Ratio (z) = 0.04564 0.85504
#
# Static dielectric constant tensor:
#      x y z
#    x 1.681160 0.000000 0.000000 
#    y 0.000000 1.731580 0.000000 
#    z 0.000000 0.000000 1.835850 
# 
# From -- ./inp_files/40536.got.cif
#   From: 2010.05.17/outbox.cif.g08.bks.cpg/sg63_21_cif.got.tgz:40536.got - 2010.06.03 15:47:04.
