data_PCOD9472291
_publ_section_title
;
Structure prediction by ZEFSAII (Michael W. Deem and Ramdas Pophale) SiO2 
 PCOD9472291
Probable space group: C M C M
;
_chemical_formula_sum "Si O2"
_cell_formula_units_Z 96
_cell_length_a 15.712753
_cell_length_b 32.419298
_cell_length_c 9.000246
_cell_angle_alpha 90.000000
_cell_angle_beta 90.000000
_cell_angle_gamma 90.000000
_cell_volume 4584.693109
_symmetry_space_group_name_H-M "C M C M"
_symmetry_group_IT_number 63
_symmetry_cell_setting 'orthorhombic'
loop_
_space_group_symop_operation_xyz
x,y,z
-x,-y,1/2+z
x,-y,-z
-x,y,1/2-z
-x,-y,-z
x,y,1/2-z
-x,y,z
x,-y,1/2+z
1/2+x,1/2+y,z
1/2-x,1/2-y,1/2+z
1/2+x,1/2-y,-z
1/2-x,1/2+y,1/2-z
1/2-x,1/2-y,-z
1/2+x,1/2+y,1/2-z
1/2-x,1/2+y,z
1/2+x,1/2-y,1/2+z
loop_
_atom_site_type_symbol
_atom_site_label
_atom_site_fract_x
_atom_site_fract_y
_atom_site_fract_z
Si Si1 0.396468 0.787407 0.923831
Si Si2 0.337464 0.040455 0.926846
Si Si3 0.101872 0.621288 0.419358
Si Si4 0.399143 0.377075 0.084641
Si Si5 0.604432 0.704292 0.419964
Si Si6 0.849330 0.040727 0.427018
O O1 0.375924 0.781984 0.750000
O O2 0.500000 0.787200 0.934649
O O3 0.367095 0.833317 0.968608
O O4 0.366315 0.748202 0.016364
O O5 0.332252 0.035559 0.750000
O O6 0.377991 0.083704 0.973232
O O7 0.244890 0.042099 0.003055
O O8 0.380796 0.000000 0.000000
O O9 0.133660 0.613180 0.250000
O O10 0.000000 0.624215 0.409626
O O11 0.363922 0.385551 0.250000
O O12 0.500000 0.370900 0.098905
O O13 0.365031 0.334675 0.015586
O O14 0.388089 0.416116 0.978336
O O15 0.630492 0.699089 0.250000
O O16 0.500000 0.704355 0.423409
O O17 0.847769 0.036681 0.250000
O O18 0.891097 0.000000 0.500000
#
# Coordination Sequence:
#
# PCOD9472291 Si02
#       6
#    16  16  16  16  16  16
#     4   8  14  26  45  69  99 135 170 205 248 298
#     4  11  22  37  56  76 101 134 173 212 255 309
#     4   9  18  33  53  78 107 137 172 214 258 302
#     4  10  20  34  53  78 107 137 171 211 254 299
#     4   9  16  26  43  70 103 136 170 208 249 295
#     4  11  22  38  58  77 101 133 171 211 254 307
#
# _framework density 20.939243999999999
#
# number of rings (size 3 to 8) (size 9 to 14) (size 15 to 20)
#    0.000    2.333    0.000    6.000    0.000    4.667 
#    0.000    1.667    0.000    1.000    0.000    0.000 
#    0.000    0.000    0.000    0.000    0.000    0.000 
#
# Total GULP energy -267843.667449 kJ/mol
# GULP energy per Si atom -5580.076405 kJ/mol
# Density = 2.089159 g / cm^3
# Si number density = 20.939244 Si / 1000 Ang^3
#
#
#
# Elastic Constant Matrix: (Units=GPa)
#
#
# Indices 1 2 3 4 5 6 
#
# 1 13.4753 10.3044 7.9278 0.0000 0.0000 0.0000
# 2 10.3044 182.3474 101.4212 0.0000 0.0000 0.0000
# 3 7.9278 101.4212 177.0627 0.0000 0.0000 0.0000
# 4 0.0000 0.0000 0.0000 83.0966 0.0000 0.0000
# 5 0.0000 0.0000 0.0000 0.0000 14.3888 0.0000
# 6 0.0000 0.0000 0.0000 0.0000 0.0000 34.7990
#
#
#
# Elastic Compliance Matrix: (Units=1/GPa)
#
#
# Indices 1 2 3 4 5 6 
#
# 1 0.077803 -0.003609 -0.001416 0.000000 0.000000 0.000000
# 2 -0.003609 0.008215 -0.004544 0.000000 0.000000 0.000000
# 3 -0.001416 -0.004544 0.008314 0.000000 0.000000 0.000000
# 4 0.000000 0.000000 0.000000 0.012034 0.000000 0.000000
# 5 0.000000 0.000000 0.000000 0.000000 0.069499 0.000000
# 6 0.000000 0.000000 0.000000 0.000000 0.000000 0.028736
#
#
# Mechanical properties :
#
#
# Convention : Reuss Voigt Hill
#
# Bulk Modulus (GPa) = 13.29901 68.02134 40.66017
# Shear Modulus (GPa) = 20.09604 43.33900 31.71752
#
# Velocity S-wave (km/s) = 3.10131 4.55439 3.89619
# Velocity P-wave (km/s) = 4.38055 7.75965 6.30085
#
# Compressibility (1/GPa) = 0.07519356
#
# Stress axis : x y z
#
# Youngs Moduli (GPa) = 12.85298 121.72185 120.27829
#
# Poissons Ratio (x) = 0.43927 0.17037
# Poissons Ratio (y) = 0.04638 0.54657
# Poissons Ratio (z) = 0.01821 0.55313
#
# Static dielectric constant tensor:
#      x y z
#    x 1.809040 0.000000 0.000000 
#    y 0.000000 1.791500 0.000000 
#    z 0.000000 0.000000 1.728310 
# 
# From -- ./inp_files/8613.got.cif
#   From: 2010.05.17/outbox.cif.g08.bks.cpg/sg63_5_cif.got.tgz:8613.got - 2010.06.03 15:47:04.
