data_PCOD9472950
_publ_section_title
;
Structure prediction by ZEFSAII (Michael W. Deem and Ramdas Pophale) SiO2 
 PCOD9472950
Probable space group: C M C M
;
_chemical_formula_sum "Si O2"
_cell_formula_units_Z 96
_cell_length_a 13.681414
_cell_length_b 15.641431
_cell_length_c 20.739168
_cell_angle_alpha 90.000000
_cell_angle_beta 90.000000
_cell_angle_gamma 90.000000
_cell_volume 4438.117517
_symmetry_space_group_name_H-M "C M C M"
_symmetry_group_IT_number 63
_symmetry_cell_setting 'orthorhombic'
loop_
_space_group_symop_operation_xyz
x,y,z
-x,-y,1/2+z
x,-y,-z
-x,y,1/2-z
-x,-y,-z
x,y,1/2-z
-x,y,z
x,-y,1/2+z
1/2+x,1/2+y,z
1/2-x,1/2-y,1/2+z
1/2+x,1/2-y,-z
1/2-x,1/2+y,1/2-z
1/2-x,1/2-y,-z
1/2+x,1/2+y,1/2-z
1/2-x,1/2+y,z
1/2+x,1/2-y,1/2+z
loop_
_atom_site_type_symbol
_atom_site_label
_atom_site_fract_x
_atom_site_fract_y
_atom_site_fract_z
Si Si1 0.240172 0.567122 0.677194
Si Si2 0.109529 0.698972 0.052307
Si Si3 0.393785 0.605690 0.511449
Si Si4 0.386474 0.410661 0.855984
Si Si5 0.267921 0.226751 0.177382
Si Si6 0.679652 0.929673 0.047176
O O1 0.205219 0.556080 0.750000
O O2 0.324492 0.494563 0.666365
O O3 0.266667 0.669185 0.670341
O O4 0.159564 0.555134 0.621426
O O5 0.106969 0.797996 0.035272
O O6 0.170948 0.688747 0.117493
O O7 0.000000 0.667063 0.062364
O O8 0.152653 0.657176 0.987811
O O9 0.500000 0.571853 0.533487
O O10 0.385391 0.600413 0.434121
O O11 0.297641 0.566243 0.542686
O O12 0.500000 0.417939 0.836604
O O13 0.334353 0.324803 0.828754
O O14 0.306023 0.210030 0.250000
O O15 0.636645 0.000000 0.000000
#
# Coordination Sequence:
#
# PCOD9472950 Si02
#       6
#    16  16  16  16  16  16
#     4  11  24  39  62  96 136 176 216 268 333 402
#     4  11  23  40  63  91 126 170 225 280 326 392
#     4  10  20  35  62  93 119 158 208 266 327 384
#     4  11  23  42  69 103 138 174 223 281 337 396
#     4  11  23  41  65  94 136 185 222 270 344 407
#     4  12  21  38  63  88 124 167 213 268 327 392
#
# _framework density 21.630793000000001
#
# number of rings (size 3 to 8) (size 9 to 14) (size 15 to 20)
#    0.000    1.000    5.000    2.000    0.000    3.667 
#    0.000    1.667    0.000    2.500    0.000    2.333 
#    0.000    0.000    0.000    0.000    0.000    0.000 
#
# Total GULP energy -267739.364280 kJ/mol
# GULP energy per Si atom -5577.903423 kJ/mol
# Density = 2.158156 g / cm^3
# Si number density = 21.630793 Si / 1000 Ang^3
#
#
#
# Elastic Constant Matrix: (Units=GPa)
#
#
# Indices 1 2 3 4 5 6 
#
# 1 55.0556 34.8658 32.1736 0.0000 0.0000 0.0000
# 2 34.8658 89.1592 16.4893 0.0000 0.0000 0.0000
# 3 32.1736 16.4893 177.3260 0.0000 0.0000 0.0000
# 4 0.0000 0.0000 0.0000 29.2704 0.0000 0.0000
# 5 0.0000 0.0000 0.0000 0.0000 -1.9026 0.0000
# 6 0.0000 0.0000 0.0000 0.0000 0.0000 8.8085
#
#
#
# Elastic Compliance Matrix: (Units=1/GPa)
#
#
# Indices 1 2 3 4 5 6 
#
# 1 0.026579 -0.009668 -0.003923 0.000000 0.000000 0.000000
# 2 -0.009668 0.014929 0.000366 0.000000 0.000000 0.000000
# 3 -0.003923 0.000366 0.006317 0.000000 0.000000 0.000000
# 4 0.000000 0.000000 0.000000 0.034164 0.000000 0.000000
# 5 0.000000 0.000000 0.000000 0.000000 -0.525583 0.000000
# 6 0.000000 0.000000 0.000000 0.000000 0.000000 0.113527
#
#
# Mechanical properties :
#
#
# Convention : Reuss Voigt Hill
#
# Bulk Modulus (GPa) = 46.78609 54.28869 50.53739
# Shear Modulus (GPa) = -16.86389 23.10272 3.11941
#
# Velocity S-wave (km/s) = -2.79520 3.27165 1.20218
# Velocity P-wave (km/s) = 3.35541 6.27885 5.03402
#
# Compressibility (1/GPa) = 0.02137387
#
# Stress axis : x y z
#
# Youngs Moduli (GPa) = 37.62387 66.98404 158.29921
#
# Poissons Ratio (x) = 0.64761 0.62107
# Poissons Ratio (y) = 0.36375 -0.05793
# Poissons Ratio (z) = 0.14761 -0.02451
#
# Static dielectric constant tensor:
#      x y z
#    x 1.789190 0.000000 0.000000 
#    y 0.000000 2.040990 0.000000 
#    z 0.000000 0.000000 1.928610 
# 
# From -- ./inp_files/54220.got.cif
#   From: 2010.05.17/outbox.cif.g08.bks.cpg/sg63_28_cif.got.tgz:54220.got - 2010.06.03 15:47:04.
