data_PCOD9472791
_publ_section_title
;
Structure prediction by ZEFSAII (Michael W. Deem and Ramdas Pophale) SiO2 
 PCOD9472791
Probable space group: C M C M
;
_chemical_formula_sum "Si O2"
_cell_formula_units_Z 88
_cell_length_a 31.232853
_cell_length_b 18.111004
_cell_length_c 8.848091
_cell_angle_alpha 90.000000
_cell_angle_beta 90.000000
_cell_angle_gamma 90.000000
_cell_volume 5004.996340
_symmetry_space_group_name_H-M "C M C M"
_symmetry_group_IT_number 63
_symmetry_cell_setting 'orthorhombic'
loop_
_space_group_symop_operation_xyz
x,y,z
-x,-y,1/2+z
x,-y,-z
-x,y,1/2-z
-x,-y,-z
x,y,1/2-z
-x,y,z
x,-y,1/2+z
1/2+x,1/2+y,z
1/2-x,1/2-y,1/2+z
1/2+x,1/2-y,-z
1/2-x,1/2+y,1/2-z
1/2-x,1/2-y,-z
1/2+x,1/2+y,1/2-z
1/2-x,1/2+y,z
1/2+x,1/2-y,1/2+z
loop_
_atom_site_type_symbol
_atom_site_label
_atom_site_fract_x
_atom_site_fract_y
_atom_site_fract_z
Si Si1 0.049073 0.917794 0.068244
Si Si2 0.500000 0.080435 0.570673
Si Si3 0.082376 0.651973 0.072856
Si Si4 0.295794 0.231166 0.931178
Si Si5 0.383721 0.302708 0.568695
Si Si6 0.328050 0.921521 0.573327
O O1 0.052165 0.920416 0.250000
O O2 0.000000 0.891474 0.031034
O O3 0.087229 0.866946 0.003723
O O4 0.052899 0.000000 0.000000
O O5 0.500000 0.076524 0.750000
O O6 0.458690 0.121515 0.509157
O O7 0.500000 0.000000 0.500000
O O8 0.074518 0.666839 0.250000
O O9 0.120997 0.593268 0.063238
O O10 0.096283 0.726401 0.989980
O O11 0.293912 0.229565 0.750000
O O12 0.333353 0.290436 0.973016
O O13 0.250000 0.250000 0.000000
O O14 0.308392 0.149945 0.991451
O O15 0.386171 0.308768 0.750000
O O16 0.316072 0.920762 0.750000
O O17 0.317048 0.000000 0.500000
#
# Coordination Sequence:
#
# PCOD9472791 Si02
#       6
#    16   8  16  16  16  16
#     4  10  21  37  58  84 115 152 192 238 289 344
#     4  12  24  36  50  72 105 144 183 226 272 316
#     4  10  21  36  54  77 107 144 185 227 270 321
#     4  10  21  38  60  85 114 147 186 233 285 342
#     4  10  21  37  58  84 113 147 186 229 280 338
#     4  10  20  35  57  82 109 143 182 226 275 329
#
# _framework density 17.582431
#
# number of rings (size 3 to 8) (size 9 to 14) (size 15 to 20)
#    0.000    1.818    0.000    4.091    1.273    6.909 
#    0.000    0.909    0.000    4.364    0.000    0.000 
#    0.000    0.000    0.000    0.000    0.000    0.000 
#
# Total GULP energy -245522.759868 kJ/mol
# GULP energy per Si atom -5580.062724 kJ/mol
# Density = 1.754241 g / cm^3
# Si number density = 17.582431 Si / 1000 Ang^3
#
#
#
# Elastic Constant Matrix: (Units=GPa)
#
#
# Indices 1 2 3 4 5 6 
#
# 1 153.1702 67.8011 73.8859 0.0000 0.0000 0.0000
# 2 67.8011 86.6245 39.2901 0.0000 0.0000 0.0000
# 3 73.8859 39.2901 82.9638 0.0000 0.0000 0.0000
# 4 0.0000 0.0000 0.0000 36.8538 0.0000 0.0000
# 5 0.0000 0.0000 0.0000 0.0000 30.6946 0.0000
# 6 0.0000 0.0000 0.0000 0.0000 0.0000 12.5708
#
#
#
# Elastic Compliance Matrix: (Units=1/GPa)
#
#
# Indices 1 2 3 4 5 6 
#
# 1 0.013978 -0.006743 -0.009255 0.000000 0.000000 0.000000
# 2 -0.006743 0.017955 -0.002498 0.000000 0.000000 0.000000
# 3 -0.009255 -0.002498 0.021479 0.000000 0.000000 0.000000
# 4 0.000000 0.000000 0.000000 0.027134 0.000000 0.000000
# 5 0.000000 0.000000 0.000000 0.000000 0.032579 0.000000
# 6 0.000000 0.000000 0.000000 0.000000 0.000000 0.079549
#
#
# Mechanical properties :
#
#
# Convention : Reuss Voigt Hill
#
# Bulk Modulus (GPa) = 60.90298 76.07918 68.49108
# Shear Modulus (GPa) = 21.26403 25.47595 23.36999
#
# Velocity S-wave (km/s) = 3.48140 3.81063 3.64973
# Velocity P-wave (km/s) = 7.13260 7.91992 7.53655
#
# Compressibility (1/GPa) = 0.01641956
#
# Stress axis : x y z
#
# Youngs Moduli (GPa) = 71.54213 55.69611 46.55711
#
# Poissons Ratio (x) = 0.37553 0.43089
# Poissons Ratio (y) = 0.48238 0.11631
# Poissons Ratio (z) = 0.66213 0.13914
#
# Static dielectric constant tensor:
#      x y z
#    x 1.601390 0.000000 0.000000 
#    y 0.000000 1.563320 0.000000 
#    z 0.000000 0.000000 1.584870 
# 
# From -- ./inp_files/14141.got.cif
#   From: 2010.05.17/outbox.cif.g08.bks.cpg/sg63_8_cif.got.tgz:14141.got - 2010.06.03 15:47:04.
