data_PCOD9472982
_publ_section_title
;
Structure prediction by ZEFSAII (Michael W. Deem and Ramdas Pophale) SiO2 
 PCOD9472982
Probable space group: C M C M
;
_chemical_formula_sum "Si O2"
_cell_formula_units_Z 92
_cell_length_a 7.632113
_cell_length_b 27.942810
_cell_length_c 26.047718
_cell_angle_alpha 90.000000
_cell_angle_beta 90.000000
_cell_angle_gamma 90.000000
_cell_volume 5555.006239
_symmetry_space_group_name_H-M "C M C M"
_symmetry_group_IT_number 63
_symmetry_cell_setting 'orthorhombic'
loop_
_space_group_symop_operation_xyz
x,y,z
-x,-y,1/2+z
x,-y,-z
-x,y,1/2-z
-x,-y,-z
x,y,1/2-z
-x,y,z
x,-y,1/2+z
1/2+x,1/2+y,z
1/2-x,1/2-y,1/2+z
1/2+x,1/2-y,-z
1/2-x,1/2+y,1/2-z
1/2-x,1/2-y,-z
1/2+x,1/2+y,1/2-z
1/2-x,1/2+y,z
1/2+x,1/2-y,1/2+z
loop_
_atom_site_type_symbol
_atom_site_label
_atom_site_fract_x
_atom_site_fract_y
_atom_site_fract_z
Si Si1 0.000000 0.008203 0.155863
Si Si2 0.000000 0.916080 0.750000
Si Si3 0.705740 0.943100 0.007793
Si Si4 0.000000 0.912303 0.932177
Si Si5 0.794470 0.264509 0.811950
Si Si6 0.287941 0.344355 0.309256
Si Si7 0.000000 0.837082 0.842635
Si Si8 0.200463 0.563471 0.626906
O O1 0.168942 0.973912 0.153235
O O2 0.000000 0.042127 0.204973
O O3 0.000000 0.041652 0.105424
O O4 0.000000 0.874360 0.795353
O O5 0.500000 0.933049 0.998997
O O6 0.830675 0.915926 0.968518
O O7 0.748871 0.931773 0.066958
O O8 0.732798 0.000000 0.000000
O O9 0.000000 0.866677 0.895233
O O10 0.778444 0.268704 0.750000
O O11 0.741799 0.209884 0.824736
O O12 0.669529 0.303253 0.837275
O O13 0.000000 0.271158 0.824444
O O14 0.233233 0.351631 0.250000
O O15 0.500000 0.347003 0.310339
O O16 0.215119 0.385733 0.345020
O O17 0.000000 0.546012 0.628915
#
# Coordination Sequence:
#
# PCOD9472982 Si02
#       8
#     8   4  16   8  16  16   8  16
#     4  11  22  38  52  76 124 147 179 228 261 338
#     4  10  24  38  54  78 116 160 174 222 278 320
#     4  10  20  36  55  80 109 139 191 240 270 319
#     4  11  22  35  60  82 101 153 193 224 286 314
#     4   9  18  35  57  81 111 139 179 231 272 319
#     4   9  19  34  55  86 114 145 178 221 280 332
#     4  11  21  38  59  84 108 143 198 226 273 329
#     4  11  22  34  55  84 111 150 184 220 277 332
#
# _framework density 16.561639
#
# number of rings (size 3 to 8) (size 9 to 14) (size 15 to 20)
#    0.000    1.913    3.478    1.826    2.435    1.043 
#    0.000    3.478    0.000    1.043    0.000    0.000 
#    0.000    0.000    0.000    0.000    0.000    0.000 
#
# Total GULP energy -256197.104150 kJ/mol
# GULP energy per Si atom -5569.502264 kJ/mol
# Density = 1.652394 g / cm^3
# Si number density = 16.561639 Si / 1000 Ang^3
#
#
#
# Elastic Constant Matrix: (Units=GPa)
#
#
# Indices 1 2 3 4 5 6 
#
# 1 70.5431 56.9380 45.7301 0.0000 0.0000 0.0000
# 2 56.9380 128.6287 73.0111 0.0000 0.0000 0.0000
# 3 45.7301 73.0111 111.3641 0.0000 0.0000 0.0000
# 4 0.0000 0.0000 0.0000 27.8125 0.0000 0.0000
# 5 0.0000 0.0000 0.0000 0.0000 1.9851 0.0000
# 6 0.0000 0.0000 0.0000 0.0000 0.0000 15.1440
#
#
#
# Elastic Compliance Matrix: (Units=1/GPa)
#
#
# Indices 1 2 3 4 5 6 
#
# 1 0.023383 -0.007805 -0.004485 0.000000 0.000000 0.000000
# 2 -0.007805 0.014987 -0.006621 0.000000 0.000000 0.000000
# 3 -0.004485 -0.006621 0.015162 0.000000 0.000000 0.000000
# 4 0.000000 0.000000 0.000000 0.035955 0.000000 0.000000
# 5 0.000000 0.000000 0.000000 0.000000 0.503741 0.000000
# 6 0.000000 0.000000 0.000000 0.000000 0.000000 0.066033
#
#
# Mechanical properties :
#
#
# Convention : Reuss Voigt Hill
#
# Bulk Modulus (GPa) = 63.65056 73.54381 68.59719
# Shear Modulus (GPa) = 7.11928 17.97877 12.54902
#
# Velocity S-wave (km/s) = 2.07557 3.29837 2.75565
# Velocity P-wave (km/s) = 6.65281 7.68168 7.18568
#
# Compressibility (1/GPa) = 0.01571078
#
# Stress axis : x y z
#
# Youngs Moduli (GPa) = 42.76692 66.72390 65.95500
#
# Poissons Ratio (x) = 0.52076 0.29580
# Poissons Ratio (y) = 0.33378 0.43667
# Poissons Ratio (z) = 0.19180 0.44176
#
# Static dielectric constant tensor:
#      x y z
#    x 1.583200 0.000000 0.000000 
#    y 0.000000 1.535040 0.000000 
#    z 0.000000 0.000000 1.534420 
# 
# From -- ./inp_files/60356.got.cif
#   From: 2010.05.17/outbox.cif.g08.bks.cpg/sg63_31_cif.got.tgz:60356.got - 2010.06.03 15:47:04.
