data_PCOD9472475
_publ_section_title
;
Structure prediction by ZEFSAII (Michael W. Deem and Ramdas Pophale) SiO2 
 PCOD9472475
Probable space group: C M C M
;
_chemical_formula_sum "Si O2"
_cell_formula_units_Z 96
_cell_length_a 22.497412
_cell_length_b 25.336151
_cell_length_c 8.729662
_cell_angle_alpha 90.000000
_cell_angle_beta 90.000000
_cell_angle_gamma 90.000000
_cell_volume 4975.888375
_symmetry_space_group_name_H-M "C M C M"
_symmetry_group_IT_number 63
_symmetry_cell_setting 'orthorhombic'
loop_
_space_group_symop_operation_xyz
x,y,z
-x,-y,1/2+z
x,-y,-z
-x,y,1/2-z
-x,-y,-z
x,y,1/2-z
-x,y,z
x,-y,1/2+z
1/2+x,1/2+y,z
1/2-x,1/2-y,1/2+z
1/2+x,1/2-y,-z
1/2-x,1/2+y,1/2-z
1/2-x,1/2-y,-z
1/2+x,1/2+y,1/2-z
1/2-x,1/2+y,z
1/2+x,1/2-y,1/2+z
loop_
_atom_site_type_symbol
_atom_site_label
_atom_site_fract_x
_atom_site_fract_y
_atom_site_fract_z
Si Si1 0.222310 0.301863 0.070181
Si Si2 0.138902 0.444803 0.567035
Si Si3 0.266809 0.583846 0.929766
Si Si4 0.000000 0.256994 0.068895
Si Si5 0.500000 0.638948 0.565026
Si Si6 0.600801 0.444030 0.435396
Si Si7 0.401529 0.832783 0.568761
O O1 0.206929 0.295507 0.250000
O O2 0.265108 0.352609 0.059840
O O3 0.250000 0.250000 0.000000
O O4 0.164825 0.314970 0.970528
O O5 0.117551 0.500000 0.500000
O O6 0.138749 0.446201 0.750000
O O7 0.207323 0.436246 0.512679
O O8 0.099404 0.394257 0.518151
O O9 0.260907 0.569503 0.750000
O O10 0.330685 0.564145 0.986591
O O11 0.000000 0.251570 0.250000
O O12 0.000000 0.198294 0.998057
O O13 0.055381 0.292424 0.014765
O O14 0.500000 0.642308 0.750000
O O15 0.557730 0.604195 0.519016
O O16 0.579301 0.500000 0.500000
O O17 0.600609 0.445811 0.250000
O O18 0.413495 0.830787 0.750000
#
# Coordination Sequence:
#
# PCOD9472475 Si02
#       7
#    16  16  16   8   8  16  16
#     4  10  20  34  55  85 120 156 197 246 296 351
#     4  10  20  35  59  89 119 153 192 233 288 350
#     4   9  19  34  53  81 117 154 194 237 290 350
#     4  12  26  43  64  91 117 148 196 250 301 352
#     4  10  23  41  61  81 111 156 199 240 296 356
#     4  10  21  37  57  83 113 153 197 242 292 345
#     4  10  22  41  62  85 116 158 198 239 295 354
#
# _framework density 19.293036000000001
#
# number of rings (size 3 to 8) (size 9 to 14) (size 15 to 20)
#    0.000    2.000    0.000    3.000    2.333    5.333 
#    0.000    0.417    0.000    0.000    0.000    0.000 
#    0.000    0.000    0.000    0.000    0.000    0.000 
#
# Total GULP energy -267938.088905 kJ/mol
# GULP energy per Si atom -5582.043519 kJ/mol
# Density = 1.924912 g / cm^3
# Si number density = 19.293036 Si / 1000 Ang^3
#
#
#
# Elastic Constant Matrix: (Units=GPa)
#
#
# Indices 1 2 3 4 5 6 
#
# 1 63.6007 51.3503 12.9790 0.0000 0.0000 0.0000
# 2 51.3503 174.8655 38.9263 0.0000 0.0000 0.0000
# 3 12.9790 38.9263 36.7928 0.0000 0.0000 0.0000
# 4 0.0000 0.0000 0.0000 36.2217 0.0000 0.0000
# 5 0.0000 0.0000 0.0000 0.0000 23.1248 0.0000
# 6 0.0000 0.0000 0.0000 0.0000 0.0000 17.0225
#
#
#
# Elastic Compliance Matrix: (Units=1/GPa)
#
#
# Indices 1 2 3 4 5 6 
#
# 1 0.020646 -0.005810 -0.001136 0.000000 0.000000 0.000000
# 2 -0.005810 0.009115 -0.007594 0.000000 0.000000 0.000000
# 3 -0.001136 -0.007594 0.035615 0.000000 0.000000 0.000000
# 4 0.000000 0.000000 0.000000 0.027608 0.000000 0.000000
# 5 0.000000 0.000000 0.000000 0.000000 0.043244 0.000000
# 6 0.000000 0.000000 0.000000 0.000000 0.000000 0.058746
#
#
# Mechanical properties :
#
#
# Convention : Reuss Voigt Hill
#
# Bulk Modulus (GPa) = 27.55207 53.53001 40.54104
# Shear Modulus (GPa) = 21.17273 26.74066 23.95669
#
# Velocity S-wave (km/s) = 3.31634 3.72698 3.52764
# Velocity P-wave (km/s) = 5.38293 6.80636 6.13606
#
# Compressibility (1/GPa) = 0.03629492
#
# Stress axis : x y z
#
# Youngs Moduli (GPa) = 48.43614 109.70514 28.07810
#
# Poissons Ratio (x) = 0.63736 0.03191
# Poissons Ratio (y) = 0.28140 0.21324
# Poissons Ratio (z) = 0.05504 0.83315
#
# Static dielectric constant tensor:
#      x y z
#    x 1.673070 0.000000 0.000000 
#    y 0.000000 1.668590 0.000000 
#    z 0.000000 0.000000 1.654280 
# 
# From -- ./inp_files/10520.got.cif
#   From: 2010.05.17/outbox.cif.g08.bks.cpg/sg63_6_cif.got.tgz:10520.got - 2010.06.03 15:47:04.
