data_PCOD9472947
_publ_section_title
;
Structure prediction by ZEFSAII (Michael W. Deem and Ramdas Pophale) SiO2 
 PCOD9472947
Probable space group: C M C M
;
_chemical_formula_sum "Si O2"
_cell_formula_units_Z 116
_cell_length_a 20.683223
_cell_length_b 8.639345
_cell_length_c 32.956114
_cell_angle_alpha 90.000000
_cell_angle_beta 90.000000
_cell_angle_gamma 90.000000
_cell_volume 5888.911507
_symmetry_space_group_name_H-M "C M C M"
_symmetry_group_IT_number 63
_symmetry_cell_setting 'orthorhombic'
loop_
_space_group_symop_operation_xyz
x,y,z
-x,-y,1/2+z
x,-y,-z
-x,y,1/2-z
-x,-y,-z
x,y,1/2-z
-x,y,z
x,-y,1/2+z
1/2+x,1/2+y,z
1/2-x,1/2-y,1/2+z
1/2+x,1/2-y,-z
1/2-x,1/2+y,1/2-z
1/2-x,1/2-y,-z
1/2+x,1/2+y,1/2-z
1/2-x,1/2+y,z
1/2+x,1/2-y,1/2+z
loop_
_atom_site_type_symbol
_atom_site_label
_atom_site_fract_x
_atom_site_fract_y
_atom_site_fract_z
Si Si1 0.629056 0.007714 0.861165
Si Si2 0.211916 0.714307 0.916029
Si Si3 0.629373 0.240529 0.795224
Si Si4 0.000000 0.205207 0.750000
Si Si5 0.177490 0.958391 0.046067
Si Si6 0.602741 0.584356 0.811978
Si Si7 0.726757 0.769556 0.670358
Si Si8 0.426788 0.302437 0.101901
O O1 0.655927 0.103837 0.899275
O O2 0.599570 0.127673 0.829086
O O3 0.688255 0.930616 0.835210
O O4 0.588737 0.865833 0.878866
O O5 0.254964 0.634436 0.950394
O O6 0.257880 0.727735 0.876430
O O7 0.187432 0.882101 0.929056
O O8 0.624482 0.175246 0.750000
O O9 0.597936 0.409816 0.796490
O O10 0.704841 0.270487 0.807124
O O11 0.056351 0.191241 0.785457
O O12 0.122915 0.854673 0.067438
O O13 0.162051 0.000000 0.000000
O O14 0.675746 0.650261 0.810617
O O15 0.583261 0.587454 0.859115
O O16 0.500000 0.309002 0.087424
#
# Coordination Sequence:
#
# PCOD9472947 Si02
#       8
#    16  16  16   4  16  16  16  16
#     4  10  21  37  59  87 120 168 208 251 313 382
#     4  11  19  39  63  96 132 156 196 246 322 386
#     4  11  22  35  54  92 123 155 203 271 323 365
#     4  12  24  40  60  90 114 172 228 272 288 372
#     4  12  23  38  68 101 129 160 202 257 316 385
#     4  11  22  41  62  84 121 166 213 260 315 369
#     4  10  20  35  62  84 122 162 200 250 315 389
#     4  11  23  45  63  83 121 174 218 256 308 372
#
# _framework density 19.698038
#
# number of rings (size 3 to 8) (size 9 to 14) (size 15 to 20)
#    0.000    1.103    5.517    3.724    0.966    1.931 
#    4.966    0.690    0.000    1.655    0.000    0.000 
#    0.000    0.000    0.000    0.000    0.000    0.000 
#
# Total GULP energy -323386.940603 kJ/mol
# GULP energy per Si atom -5575.636907 kJ/mol
# Density = 1.965320 g / cm^3
# Si number density = 19.698038 Si / 1000 Ang^3
#
#
#
# Elastic Constant Matrix: (Units=GPa)
#
#
# Indices 1 2 3 4 5 6 
#
# 1 52.3584 14.8209 21.9104 0.0000 0.0000 0.0000
# 2 14.8209 89.0472 12.2507 0.0000 0.0000 0.0000
# 3 21.9104 12.2507 71.4906 0.0000 0.0000 0.0000
# 4 0.0000 0.0000 0.0000 10.4732 0.0000 0.0000
# 5 0.0000 0.0000 0.0000 0.0000 17.2791 0.0000
# 6 0.0000 0.0000 0.0000 0.0000 0.0000 2.5288
#
#
#
# Elastic Compliance Matrix: (Units=1/GPa)
#
#
# Indices 1 2 3 4 5 6 
#
# 1 0.022607 -0.002877 -0.006435 0.000000 0.000000 0.000000
# 2 -0.002877 0.011867 -0.001152 0.000000 0.000000 0.000000
# 3 -0.006435 -0.001152 0.016158 0.000000 0.000000 0.000000
# 4 0.000000 0.000000 0.000000 0.095482 0.000000 0.000000
# 5 0.000000 0.000000 0.000000 0.000000 0.057873 0.000000
# 6 0.000000 0.000000 0.000000 0.000000 0.000000 0.395443
#
#
# Mechanical properties :
#
#
# Convention : Reuss Voigt Hill
#
# Bulk Modulus (GPa) = 33.66710 34.54003 34.10357
# Shear Modulus (GPa) = 7.93324 16.98383 12.45854
#
# Velocity S-wave (km/s) = 2.00902 2.93953 2.51764
# Velocity P-wave (km/s) = 4.74450 5.39388 5.07958
#
# Compressibility (1/GPa) = 0.02970259
#
# Stress axis : x y z
#
# Youngs Moduli (GPa) = 44.23486 84.26482 61.89054
#
# Poissons Ratio (x) = 0.24245 0.39829
# Poissons Ratio (y) = 0.12727 0.07128
# Poissons Ratio (z) = 0.28467 0.09705
#
# Static dielectric constant tensor:
#      x y z
#    x 1.708220 0.000000 0.000000 
#    y 0.000000 1.743690 0.000000 
#    z 0.000000 0.000000 1.687170 
# 
# From -- ./inp_files/74317.got.cif
#   From: 2010.05.17/outbox.cif.g08.bks.cpg/sg63_38_cif.got.tgz:74317.got - 2010.06.03 15:47:04.
