data_PCOD9472237
_publ_section_title
;
Structure prediction by ZEFSAII (Michael W. Deem and Ramdas Pophale) SiO2 
 PCOD9472237
Probable space group: C M C M
;
_chemical_formula_sum "Si O2"
_cell_formula_units_Z 88
_cell_length_a 22.273808
_cell_length_b 23.748264
_cell_length_c 8.615216
_cell_angle_alpha 90.000000
_cell_angle_beta 90.000000
_cell_angle_gamma 90.000000
_cell_volume 4557.141465
_symmetry_space_group_name_H-M "C M C M"
_symmetry_group_IT_number 63
_symmetry_cell_setting 'orthorhombic'
loop_
_space_group_symop_operation_xyz
x,y,z
-x,-y,1/2+z
x,-y,-z
-x,y,1/2-z
-x,-y,-z
x,y,1/2-z
-x,y,z
x,-y,1/2+z
1/2+x,1/2+y,z
1/2-x,1/2-y,1/2+z
1/2+x,1/2-y,-z
1/2-x,1/2+y,1/2-z
1/2-x,1/2-y,-z
1/2+x,1/2+y,1/2-z
1/2-x,1/2+y,z
1/2+x,1/2-y,1/2+z
loop_
_atom_site_type_symbol
_atom_site_label
_atom_site_fract_x
_atom_site_fract_y
_atom_site_fract_z
Si Si1 0.874259 0.619314 0.060983
Si Si2 0.347631 0.649007 0.067374
Si Si3 0.000000 0.564153 0.438698
Si Si4 0.071920 0.940781 0.427422
Si Si5 0.316270 0.237057 0.066220
Si Si6 0.253859 0.939356 0.563433
O O1 0.875882 0.620991 0.250000
O O2 0.850379 0.680840 0.008774
O O3 0.821559 0.576076 0.015286
O O4 0.939574 0.597424 0.010820
O O5 0.341136 0.660617 0.250000
O O6 0.290221 0.611457 0.015589
O O7 0.403355 0.609151 0.031556
O O8 0.352513 0.706996 0.976349
O O9 0.000000 0.500000 0.500000
O O10 0.000000 0.562092 0.250000
O O11 0.093538 0.935450 0.250000
O O12 0.000000 0.940266 0.425515
O O13 0.091488 0.000000 0.500000
O O14 0.309485 0.230465 0.250000
O O15 0.250000 0.250000 0.000000
O O16 0.251273 0.941245 0.750000
O O17 0.235992 0.000000 0.500000
#
# Coordination Sequence:
#
# PCOD9472237 Si02
#       6
#    16  16   8  16  16  16
#     4   9  19  37  58  82 115 152 190 235 292 352
#     4  11  22  37  57  82 116 153 193 241 293 350
#     4  10  20  38  64  88 116 156 195 238 293 350
#     4  10  21  38  59  84 115 152 193 237 288 347
#     4  11  21  38  60  83 114 152 195 242 296 358
#     4  10  20  34  52  80 114 145 183 232 286 344
#
# _framework density 19.31035
#
# number of rings (size 3 to 8) (size 9 to 14) (size 15 to 20)
#    0.000    1.818    1.818    2.727    0.000    4.000 
#    1.636    1.818    0.000    0.000    0.000    0.000 
#    0.000    0.000    0.000    0.000    0.000    0.000 
#
# Total GULP energy -245625.420538 kJ/mol
# GULP energy per Si atom -5582.395921 kJ/mol
# Density = 1.926640 g / cm^3
# Si number density = 19.310350 Si / 1000 Ang^3
#
#
#
# Elastic Constant Matrix: (Units=GPa)
#
#
# Indices 1 2 3 4 5 6 
#
# 1 92.7215 50.7938 20.6244 0.0000 0.0000 0.0000
# 2 50.7938 134.9716 12.9104 0.0000 0.0000 0.0000
# 3 20.6244 12.9104 21.3493 0.0000 0.0000 0.0000
# 4 0.0000 0.0000 0.0000 31.4956 0.0000 0.0000
# 5 0.0000 0.0000 0.0000 0.0000 19.5398 0.0000
# 6 0.0000 0.0000 0.0000 0.0000 0.0000 23.3957
#
#
#
# Elastic Compliance Matrix: (Units=1/GPa)
#
#
# Indices 1 2 3 4 5 6 
#
# 1 0.016327 -0.004920 -0.012797 0.000000 0.000000 0.000000
# 2 -0.004920 0.009347 -0.000899 0.000000 0.000000 0.000000
# 3 -0.012797 -0.000899 0.059746 0.000000 0.000000 0.000000
# 4 0.000000 0.000000 0.000000 0.031750 0.000000 0.000000
# 5 0.000000 0.000000 0.000000 0.000000 0.051178 0.000000
# 6 0.000000 0.000000 0.000000 0.000000 0.000000 0.042743
#
#
# Mechanical properties :
#
#
# Convention : Reuss Voigt Hill
#
# Bulk Modulus (GPa) = 20.75245 46.41104 33.58174
# Shear Modulus (GPa) = 18.91179 25.86716 22.38947
#
# Velocity S-wave (km/s) = 3.13287 3.66396 3.40877
# Velocity P-wave (km/s) = 4.88432 6.47965 5.73770
#
# Compressibility (1/GPa) = 0.04818709
#
# Stress axis : x y z
#
# Youngs Moduli (GPa) = 61.24889 106.99127 16.73747
#
# Poissons Ratio (x) = 0.52642 0.21419
# Poissons Ratio (y) = 0.30136 0.01505
# Poissons Ratio (z) = 0.78381 0.09618
#
# Static dielectric constant tensor:
#      x y z
#    x 1.702360 0.000000 0.000000 
#    y 0.000000 1.668770 0.000000 
#    z 0.000000 0.000000 1.674390 
# 
# From -- ./inp_files/8202.got.cif
#   From: 2010.05.17/outbox.cif.g08.bks.cpg/sg63_5_cif.got.tgz:8202.got - 2010.06.03 15:47:04.
