data_PCOD9472612
_publ_section_title
;
Structure prediction by ZEFSAII (Michael W. Deem and Ramdas Pophale) SiO2 
 PCOD9472612
Probable space group: C M C M
;
_chemical_formula_sum "Si O2"
_cell_formula_units_Z 112
_cell_length_a 13.974603
_cell_length_b 24.649723
_cell_length_c 15.056651
_cell_angle_alpha 90.000000
_cell_angle_beta 90.000000
_cell_angle_gamma 90.000000
_cell_volume 5186.565970
_symmetry_space_group_name_H-M "C M C M"
_symmetry_group_IT_number 63
_symmetry_cell_setting 'orthorhombic'
loop_
_space_group_symop_operation_xyz
x,y,z
-x,-y,1/2+z
x,-y,-z
-x,y,1/2-z
-x,-y,-z
x,y,1/2-z
-x,y,z
x,-y,1/2+z
1/2+x,1/2+y,z
1/2-x,1/2-y,1/2+z
1/2+x,1/2-y,-z
1/2-x,1/2+y,1/2-z
1/2-x,1/2-y,-z
1/2+x,1/2+y,1/2-z
1/2-x,1/2+y,z
1/2+x,1/2-y,1/2+z
loop_
_atom_site_type_symbol
_atom_site_label
_atom_site_fract_x
_atom_site_fract_y
_atom_site_fract_z
Si Si1 0.887685 0.433646 0.642172
Si Si2 0.386792 0.494828 0.606719
Si Si3 0.391725 0.726480 0.144172
Si Si4 0.113745 0.114198 0.895948
Si Si5 0.299689 0.614612 0.092890
Si Si6 0.294560 0.834691 0.352691
Si Si7 0.888296 0.444584 0.357454
O O1 0.879508 0.430222 0.750000
O O2 0.814250 0.392359 0.597473
O O3 0.859670 0.495119 0.612401
O O4 0.000000 0.426002 0.620993
O O5 0.370897 0.500000 0.500000
O O6 0.500000 0.487871 0.619944
O O7 0.361221 0.554390 0.643275
O O8 0.336306 0.440675 0.640348
O O9 0.399485 0.733293 0.250000
O O10 0.500000 0.721656 0.108095
O O11 0.333100 0.671542 0.131331
O O12 0.338389 0.780033 0.107415
O O13 0.180195 0.160545 0.855532
O O14 0.000000 0.121421 0.888387
O O15 0.147031 0.113335 0.998193
O O16 0.324797 0.835729 0.250000
O O17 0.333211 0.891711 0.391014
O O18 0.880582 0.446542 0.250000
O O19 0.000000 0.437796 0.378862
#
# Coordination Sequence:
#
# PCOD9472612 Si02
#       7
#    16  16  16  16  16  16  16
#     4   9  18  32  51  77 108 140 174 213 259 315
#     4   8  15  29  50  76 106 140 174 211 262 317
#     4  10  21  36  55  80 106 133 170 216 263 314
#     4  10  21  36  55  79 106 139 180 226 270 312
#     4  11  19  33  55  77 107 143 176 211 260 318
#     4  10  20  35  54  75 102 139 179 220 270 321
#     4   8  14  28  52  78 102 132 173 221 268 311
#
# _framework density 21.594249999999999
#
# number of rings (size 3 to 8) (size 9 to 14) (size 15 to 20)
#    0.000    2.571    0.000    4.714    0.000    2.571 
#    0.000    2.857    0.000    8.143    0.000    0.000 
#    0.000    0.000    0.000    0.000    0.000    0.000 
#
# Total GULP energy -312383.600407 kJ/mol
# GULP energy per Si atom -5578.278579 kJ/mol
# Density = 2.154510 g / cm^3
# Si number density = 21.594250 Si / 1000 Ang^3
#
#
#
# Elastic Constant Matrix: (Units=GPa)
#
#
# Indices 1 2 3 4 5 6 
#
# 1 135.7342 113.0867 4.8324 0.0000 0.0000 0.0000
# 2 113.0867 134.2324 7.7277 0.0000 0.0000 0.0000
# 3 4.8324 7.7277 36.3025 0.0000 0.0000 0.0000
# 4 0.0000 0.0000 0.0000 11.3222 0.0000 0.0000
# 5 0.0000 0.0000 0.0000 0.0000 17.9673 0.0000
# 6 0.0000 0.0000 0.0000 0.0000 0.0000 32.1560
#
#
#
# Elastic Compliance Matrix: (Units=1/GPa)
#
#
# Indices 1 2 3 4 5 6 
#
# 1 0.024762 -0.020928 0.001159 0.000000 0.000000 0.000000
# 2 -0.020928 0.025230 -0.002585 0.000000 0.000000 0.000000
# 3 0.001159 -0.002585 0.027942 0.000000 0.000000 0.000000
# 4 0.000000 0.000000 0.000000 0.088322 0.000000 0.000000
# 5 0.000000 0.000000 0.000000 0.000000 0.055657 0.000000
# 6 0.000000 0.000000 0.000000 0.000000 0.000000 0.031098
#
#
# Mechanical properties :
#
#
# Convention : Reuss Voigt Hill
#
# Bulk Modulus (GPa) = 30.09694 61.95142 46.02418
# Shear Modulus (GPa) = 16.19193 24.33060 20.26126
#
# Velocity S-wave (km/s) = 2.74127 3.36030 3.06644
# Velocity P-wave (km/s) = 4.89766 6.61866 5.82210
#
# Compressibility (1/GPa) = 0.03322597
#
# Stress axis : x y z
#
# Youngs Moduli (GPa) = 40.38369 39.63529 35.78806
#
# Poissons Ratio (x) = 0.82950 -0.04147
# Poissons Ratio (y) = 0.84516 0.09251
# Poissons Ratio (z) = -0.04680 0.10245
#
# Static dielectric constant tensor:
#      x y z
#    x 1.802050 0.000000 0.000000 
#    y 0.000000 1.802880 0.000000 
#    z 0.000000 0.000000 1.850070 
# 
# From -- ./inp_files/53133.got.cif
#   From: 2010.05.17/outbox.cif.g08.bks.cpg/sg63_27_cif.got.tgz:53133.got - 2010.06.03 15:47:04.
