data_PCOD9472148
_publ_section_title
;
Structure prediction by ZEFSAII (Michael W. Deem and Ramdas Pophale) SiO2 
 PCOD9472148
Probable space group: C M C M
;
_chemical_formula_sum "Si O2"
_cell_formula_units_Z 80
_cell_length_a 18.705949
_cell_length_b 29.567972
_cell_length_c 9.637101
_cell_angle_alpha 90.000000
_cell_angle_beta 90.000000
_cell_angle_gamma 90.000000
_cell_volume 5330.251423
_symmetry_space_group_name_H-M "C M C M"
_symmetry_group_IT_number 63
_symmetry_cell_setting 'orthorhombic'
loop_
_space_group_symop_operation_xyz
x,y,z
-x,-y,1/2+z
x,-y,-z
-x,y,1/2-z
-x,-y,-z
x,y,1/2-z
-x,y,z
x,-y,1/2+z
1/2+x,1/2+y,z
1/2-x,1/2-y,1/2+z
1/2+x,1/2-y,-z
1/2-x,1/2+y,1/2-z
1/2-x,1/2-y,-z
1/2+x,1/2+y,1/2-z
1/2-x,1/2+y,z
1/2+x,1/2-y,1/2+z
loop_
_atom_site_type_symbol
_atom_site_label
_atom_site_fract_x
_atom_site_fract_y
_atom_site_fract_z
Si Si1 0.000000 0.255351 0.082495
Si Si2 0.086110 0.032580 0.750000
Si Si3 0.262147 0.683732 0.908567
Si Si4 0.000000 0.830174 0.400073
Si Si5 0.867223 0.105909 0.543595
Si Si6 0.358571 0.227756 0.414116
Si Si7 0.914330 0.925052 0.750000
O O1 0.000000 0.259202 0.250000
O O2 0.070662 0.275078 0.007925
O O3 0.000000 0.203302 0.029676
O O4 0.121370 0.058385 0.879396
O O5 0.000000 0.040307 0.750000
O O6 0.096697 0.979099 0.750000
O O7 0.235685 0.689371 0.750000
O O8 0.296282 0.634294 0.925675
O O9 0.324474 0.721658 0.926966
O O10 0.201401 0.695220 0.019730
O O11 0.068493 0.862097 0.405236
O O12 0.000000 0.805180 0.250000
O O13 0.879484 0.097071 0.383416
O O14 0.370831 0.219605 0.250000
O O15 0.000000 0.917375 0.750000
#
# Coordination Sequence:
#
# PCOD9472148 Si02
#       7
#     8   8  16   8  16  16   8
#     4  12  24  34  52  73 103 131 166 210 248 292
#     4  11  20  36  50  67  96 137 173 216 263 299
#     4  10  20  34  50  70  97 130 169 208 250 296
#     4  12  20  32  47  70  93 133 180 209 249 294
#     4  12  20  33  51  68  96 134 173 217 255 295
#     4  10  21  35  52  73  99 128 163 207 252 293
#     4  11  24  32  46  73 100 127 177 224 257 295
#
# _framework density 15.008672000000001
#
# number of rings (size 3 to 8) (size 9 to 14) (size 15 to 20)
#    0.000    1.000    6.000    2.100    2.800    2.400 
#    0.000    0.000    0.000    0.000    0.000    0.000 
#    0.000    0.000    0.000    5.400    0.000    0.100 
#
# Total GULP energy -223236.963951 kJ/mol
# GULP energy per Si atom -5580.924099 kJ/mol
# Density = 1.497451 g / cm^3
# Si number density = 15.008672 Si / 1000 Ang^3
#
#
#
# Elastic Constant Matrix: (Units=GPa)
#
#
# Indices 1 2 3 4 5 6 
#
# 1 69.6245 20.6884 46.5126 0.0000 0.0000 0.0000
# 2 20.6884 44.0804 20.5392 0.0000 0.0000 0.0000
# 3 46.5126 20.5392 152.5016 0.0000 0.0000 0.0000
# 4 0.0000 0.0000 0.0000 29.7092 0.0000 0.0000
# 5 0.0000 0.0000 0.0000 0.0000 21.7527 0.0000
# 6 0.0000 0.0000 0.0000 0.0000 0.0000 15.3690
#
#
#
# Elastic Compliance Matrix: (Units=1/GPa)
#
#
# Indices 1 2 3 4 5 6 
#
# 1 0.019840 -0.006927 -0.005118 0.000000 0.000000 0.000000
# 2 -0.006927 0.026623 -0.001473 0.000000 0.000000 0.000000
# 3 -0.005118 -0.001473 0.008317 0.000000 0.000000 0.000000
# 4 0.000000 0.000000 0.000000 0.033660 0.000000 0.000000
# 5 0.000000 0.000000 0.000000 0.000000 0.045971 0.000000
# 6 0.000000 0.000000 0.000000 0.000000 0.000000 0.065066
#
#
# Mechanical properties :
#
#
# Convention : Reuss Voigt Hill
#
# Bulk Modulus (GPa) = 36.04393 49.07633 42.56013
# Shear Modulus (GPa) = 21.20789 25.26394 23.23591
#
# Velocity S-wave (km/s) = 3.76312 4.10724 3.93894
# Velocity P-wave (km/s) = 6.55355 7.43386 7.00754
#
# Compressibility (1/GPa) = 0.02774392
#
# Stress axis : x y z
#
# Youngs Moduli (GPa) = 50.40242 37.56127 120.23902
#
# Poissons Ratio (x) = 0.26018 0.61542
# Poissons Ratio (y) = 0.34913 0.17711
# Poissons Ratio (z) = 0.25798 0.05533
#
# Static dielectric constant tensor:
#      x y z
#    x 1.494880 0.000000 0.000000 
#    y 0.000000 1.488960 0.000000 
#    z 0.000000 0.000000 1.498590 
# 
# From -- ./inp_files/6756.got.cif
#   From: 2010.05.17/outbox.cif.g08.bks.cpg/sg63_4_cif.got.tgz:6756.got - 2010.06.03 15:47:04.
