data_PCOD9472696
_publ_section_title
;
Structure prediction by ZEFSAII (Michael W. Deem and Ramdas Pophale) SiO2 
 PCOD9472696
Probable space group: C M C M
;
_chemical_formula_sum "Si O2"
_cell_formula_units_Z 80
_cell_length_a 15.267291
_cell_length_b 17.994056
_cell_length_c 14.041370
_cell_angle_alpha 90.000000
_cell_angle_beta 90.000000
_cell_angle_gamma 90.000000
_cell_volume 3857.452036
_symmetry_space_group_name_H-M "C M C M"
_symmetry_group_IT_number 63
_symmetry_cell_setting 'orthorhombic'
loop_
_space_group_symop_operation_xyz
x,y,z
-x,-y,1/2+z
x,-y,-z
-x,y,1/2-z
-x,-y,-z
x,y,1/2-z
-x,y,z
x,-y,1/2+z
1/2+x,1/2+y,z
1/2-x,1/2-y,1/2+z
1/2+x,1/2-y,-z
1/2-x,1/2+y,1/2-z
1/2-x,1/2-y,-z
1/2+x,1/2+y,1/2-z
1/2-x,1/2+y,z
1/2+x,1/2-y,1/2+z
loop_
_atom_site_type_symbol
_atom_site_label
_atom_site_fract_x
_atom_site_fract_y
_atom_site_fract_z
Si Si1 0.900305 0.404970 0.864667
Si Si2 0.400237 0.395565 0.135061
Si Si3 0.148233 0.746119 0.027386
Si Si4 0.902277 0.166007 0.359172
Si Si5 0.279451 0.529771 0.134648
O O1 0.893765 0.391098 0.750000
O O2 0.879645 0.329239 0.921197
O O3 0.822255 0.461606 0.890528
O O4 0.000000 0.429204 0.884044
O O5 0.398070 0.393443 0.250000
O O6 0.500000 0.414781 0.106431
O O7 0.376694 0.315078 0.094892
O O8 0.330775 0.457090 0.101134
O O9 0.250000 0.750000 0.000000
O O10 0.101133 0.763737 0.927735
O O11 0.883053 0.186129 0.250000
O O12 0.832793 0.104263 0.391413
O O13 0.000000 0.132911 0.362296
O O14 0.283906 0.527445 0.250000
#
# Coordination Sequence:
#
# PCOD9472696 Si02
#       5
#    16  16  16  16  16
#     4  10  20  37  62  88 117 156 202 249 295 351
#     4  10  21  38  63  94 124 152 191 249 304 351
#     4  12  23  36  56  86 124 158 196 242 294 352
#     4  10  20  35  55  80 115 156 195 238 292 354
#     4   9  18  35  58  88 120 152 192 238 296 355
#
# _framework density 20.739079
#
# number of rings (size 3 to 8) (size 9 to 14) (size 15 to 20)
#    0.000    1.800    2.000    3.000    0.000    5.600 
#    0.000    2.000    0.000    4.800    0.000    2.800 
#    0.000    0.000    0.000    0.000    0.000    0.000 
#
# Total GULP energy -223476.676777 kJ/mol
# GULP energy per Si atom -5586.916919 kJ/mol
# Density = 2.069188 g / cm^3
# Si number density = 20.739079 Si / 1000 Ang^3
#
#
#
# Elastic Constant Matrix: (Units=GPa)
#
#
# Indices 1 2 3 4 5 6 
#
# 1 181.4754 47.1364 31.6736 0.0000 0.0000 0.0000
# 2 47.1364 68.7166 27.5559 0.0000 0.0000 0.0000
# 3 31.6736 27.5559 79.6929 0.0000 0.0000 0.0000
# 4 0.0000 0.0000 0.0000 23.8980 0.0000 0.0000
# 5 0.0000 0.0000 0.0000 0.0000 23.2666 0.0000
# 6 0.0000 0.0000 0.0000 0.0000 0.0000 25.5711
#
#
#
# Elastic Compliance Matrix: (Units=1/GPa)
#
#
# Indices 1 2 3 4 5 6 
#
# 1 0.006814 -0.004165 -0.001268 0.000000 0.000000 0.000000
# 2 -0.004165 0.019442 -0.005067 0.000000 0.000000 0.000000
# 3 -0.001268 -0.005067 0.014804 0.000000 0.000000 0.000000
# 4 0.000000 0.000000 0.000000 0.041844 0.000000 0.000000
# 5 0.000000 0.000000 0.000000 0.000000 0.042980 0.000000
# 6 0.000000 0.000000 0.000000 0.000000 0.000000 0.039107
#
#
# Mechanical properties :
#
#
# Convention : Reuss Voigt Hill
#
# Bulk Modulus (GPa) = 49.85258 60.29073 55.07166
# Shear Modulus (GPa) = 25.95016 29.44841 27.69929
#
# Velocity S-wave (km/s) = 3.54117 3.77231 3.65856
# Velocity P-wave (km/s) = 6.38827 6.93599 6.66775
#
# Compressibility (1/GPa) = 0.02005914
#
# Stress axis : x y z
#
# Youngs Moduli (GPa) = 146.76579 51.43589 67.54908
#
# Poissons Ratio (x) = 0.21425 0.08563
# Poissons Ratio (y) = 0.61134 0.34227
# Poissons Ratio (z) = 0.18606 0.26062
#
# Static dielectric constant tensor:
#      x y z
#    x 1.807390 0.000000 0.000000 
#    y 0.000000 1.701130 0.000000 
#    z 0.000000 0.000000 1.786980 
# 
# From -- ./inp_files/31677.got.cif
#   From: 2010.05.17/outbox.cif.g08.bks.cpg/sg63_16_cif.got.tgz:31677.got - 2010.06.03 15:47:04.
