data_PCOD9472224
_publ_section_title
;
Structure prediction by ZEFSAII (Michael W. Deem and Ramdas Pophale) SiO2 
 PCOD9472224
Probable space group: C M C M
;
_chemical_formula_sum "Si O2"
_cell_formula_units_Z 80
_cell_length_a 32.386622
_cell_length_b 15.208381
_cell_length_c 8.931357
_cell_angle_alpha 90.000000
_cell_angle_beta 90.000000
_cell_angle_gamma 90.000000
_cell_volume 4399.122802
_symmetry_space_group_name_H-M "C M C M"
_symmetry_group_IT_number 63
_symmetry_cell_setting 'orthorhombic'
loop_
_space_group_symop_operation_xyz
x,y,z
-x,-y,1/2+z
x,-y,-z
-x,y,1/2-z
-x,-y,-z
x,y,1/2-z
-x,y,z
x,-y,1/2+z
1/2+x,1/2+y,z
1/2-x,1/2-y,1/2+z
1/2+x,1/2-y,-z
1/2-x,1/2+y,1/2-z
1/2-x,1/2-y,-z
1/2+x,1/2+y,1/2-z
1/2-x,1/2+y,z
1/2+x,1/2-y,1/2+z
loop_
_atom_site_type_symbol
_atom_site_label
_atom_site_fract_x
_atom_site_fract_y
_atom_site_fract_z
Si Si1 0.385890 0.275992 0.571406
Si Si2 0.724151 0.126974 0.081031
Si Si3 0.197073 0.168393 0.918201
Si Si4 0.867744 0.589148 0.068918
Si Si5 0.951075 0.094899 0.572575
O O1 0.386605 0.268229 0.750000
O O2 0.343514 0.324266 0.519522
O O3 0.385999 0.179329 0.496210
O O4 0.423708 0.332524 0.509150
O O5 0.731051 0.094966 0.250000
O O6 0.714666 0.231718 0.089864
O O7 0.680716 0.091411 0.022558
O O8 0.764917 0.113338 0.984127
O O9 0.185940 0.141064 0.750000
O O10 0.869592 0.589911 0.250000
O O11 0.886066 0.500000 0.000000
O O12 0.942047 0.093438 0.750000
O O13 0.000000 0.111866 0.553791
O O14 0.942258 0.000000 0.500000
#
# Coordination Sequence:
#
# PCOD9472224 Si02
#       5
#    16  16  16  16  16
#     4  11  21  34  55  81 111 146 183 223 269 322
#     4   8  15  27  43  65  95 133 177 223 269 314
#     4   9  16  27  45  69  98 133 176 223 268 314
#     4  10  20  34  52  76 108 146 190 234 274 319
#     4  10  21  39  63  89 115 140 169 210 263 325
#
# _framework density 18.185442999999999
#
# number of rings (size 3 to 8) (size 9 to 14) (size 15 to 20)
#    0.000    2.400    0.000    4.800    0.000    6.800 
#    0.000    1.000    0.000    3.000    0.000    0.000 
#    0.000    0.000    0.000    0.000    0.000    0.000 
#
# Total GULP energy -223091.409655 kJ/mol
# GULP energy per Si atom -5577.285241 kJ/mol
# Density = 1.814405 g / cm^3
# Si number density = 18.185443 Si / 1000 Ang^3
#
#
#
# Elastic Constant Matrix: (Units=GPa)
#
#
# Indices 1 2 3 4 5 6 
#
# 1 62.2207 58.4883 55.6706 0.0000 0.0000 0.0000
# 2 58.4883 101.9735 55.6829 0.0000 0.0000 0.0000
# 3 55.6706 55.6829 109.0055 0.0000 0.0000 0.0000
# 4 0.0000 0.0000 0.0000 23.2949 0.0000 0.0000
# 5 0.0000 0.0000 0.0000 0.0000 27.2160 0.0000
# 6 0.0000 0.0000 0.0000 0.0000 0.0000 12.3737
#
#
#
# Elastic Compliance Matrix: (Units=1/GPa)
#
#
# Indices 1 2 3 4 5 6 
#
# 1 0.046495 -0.019002 -0.014039 0.000000 0.000000 0.000000
# 2 -0.019002 0.021366 -0.001210 0.000000 0.000000 0.000000
# 3 -0.014039 -0.001210 0.016962 0.000000 0.000000 0.000000
# 4 0.000000 0.000000 0.000000 0.042928 0.000000 0.000000
# 5 0.000000 0.000000 0.000000 0.000000 0.036743 0.000000
# 6 0.000000 0.000000 0.000000 0.000000 0.000000 0.080817
#
#
# Mechanical properties :
#
#
# Convention : Reuss Voigt Hill
#
# Bulk Modulus (GPa) = 61.26923 68.09815 64.68369
# Shear Modulus (GPa) = 15.66166 19.46744 17.56455
#
# Velocity S-wave (km/s) = 2.93784 3.27539 3.11120
# Velocity P-wave (km/s) = 6.72847 7.19945 6.96794
#
# Compressibility (1/GPa) = 0.01632141
#
# Stress axis : x y z
#
# Youngs Moduli (GPa) = 21.50785 46.80386 58.95645
#
# Poissons Ratio (x) = 0.88935 0.82768
# Poissons Ratio (y) = 0.40869 0.07132
# Poissons Ratio (z) = 0.30195 0.05662
#
# Static dielectric constant tensor:
#      x y z
#    x 1.607990 0.000000 0.000000 
#    y 0.000000 1.655730 0.000000 
#    z 0.000000 0.000000 1.623680 
# 
# From -- ./inp_files/14051.got.cif
#   From: 2010.05.17/outbox.cif.g08.bks.cpg/sg63_8_cif.got.tgz:14051.got - 2010.06.03 15:47:04.
