data_PCOD9472824
_publ_section_title
;
Structure prediction by ZEFSAII (Michael W. Deem and Ramdas Pophale) SiO2 
 PCOD9472824
Probable space group: C M C M
;
_chemical_formula_sum "Si O2"
_cell_formula_units_Z 96
_cell_length_a 18.770539
_cell_length_b 15.204001
_cell_length_c 18.996757
_cell_angle_alpha 90.000000
_cell_angle_beta 90.000000
_cell_angle_gamma 90.000000
_cell_volume 5421.433070
_symmetry_space_group_name_H-M "C M C M"
_symmetry_group_IT_number 63
_symmetry_cell_setting 'orthorhombic'
loop_
_space_group_symop_operation_xyz
x,y,z
-x,-y,1/2+z
x,-y,-z
-x,y,1/2-z
-x,-y,-z
x,y,1/2-z
-x,y,z
x,-y,1/2+z
1/2+x,1/2+y,z
1/2-x,1/2-y,1/2+z
1/2+x,1/2-y,-z
1/2-x,1/2+y,1/2-z
1/2-x,1/2-y,-z
1/2+x,1/2+y,1/2-z
1/2-x,1/2+y,z
1/2+x,1/2-y,1/2+z
loop_
_atom_site_type_symbol
_atom_site_label
_atom_site_fract_x
_atom_site_fract_y
_atom_site_fract_z
Si Si1 0.000000 0.795195 0.669001
Si Si2 0.284354 0.670236 0.833184
Si Si3 0.248652 0.376243 0.668211
Si Si4 0.419035 0.606366 0.580106
Si Si5 0.344278 0.043650 0.665955
Si Si6 0.000000 0.415099 0.167722
Si Si7 0.111894 0.097630 0.082813
O O1 0.932145 0.834839 0.629934
O O2 0.000000 0.823162 0.750000
O O3 0.000000 0.690392 0.666576
O O4 0.292212 0.650806 0.750000
O O5 0.269625 0.773936 0.840643
O O6 0.357383 0.646123 0.871794
O O7 0.217063 0.611566 0.859746
O O8 0.273324 0.388342 0.750000
O O9 0.184304 0.444647 0.657972
O O10 0.308676 0.401539 0.612374
O O11 0.500000 0.637758 0.592797
O O12 0.417599 0.501029 0.590914
O O13 0.397890 0.621765 0.498712
O O14 0.349549 0.062418 0.750000
O O15 0.423990 0.055153 0.636497
O O16 0.000000 0.444457 0.250000
#
# Coordination Sequence:
#
# PCOD9472824 Si02
#       7
#     8  16  16  16  16   8  16
#     4  11  20  31  55  87 110 139 187 243 293 334
#     4  10  21  37  58  86 114 146 191 234 277 339
#     4  10  20  35  57  86 114 147 193 234 277 341
#     4  11  22  39  56  79 119 155 187 234 285 349
#     4   9  17  33  54  79 114 145 176 231 285 328
#     4   9  18  32  53  81 111 142 179 232 293 331
#     4  11  20  36  57  81 113 151 188 234 290 341
#
# _framework density 17.707495999999999
#
# number of rings (size 3 to 8) (size 9 to 14) (size 15 to 20)
#    0.000    1.833    3.333    2.000    0.000    4.333 
#    1.500    0.000    0.000    0.000    0.000    2.333 
#    0.000    0.000    0.000    0.000    0.000    0.000 
#
# Total GULP energy -267664.183089 kJ/mol
# GULP energy per Si atom -5576.337148 kJ/mol
# Density = 1.766719 g / cm^3
# Si number density = 17.707496 Si / 1000 Ang^3
#
#
#
# Elastic Constant Matrix: (Units=GPa)
#
#
# Indices 1 2 3 4 5 6 
#
# 1 165.9032 40.5042 51.2363 0.0000 0.0000 0.0000
# 2 40.5042 61.7280 23.5139 0.0000 0.0000 0.0000
# 3 51.2363 23.5139 34.0803 0.0000 0.0000 0.0000
# 4 0.0000 0.0000 0.0000 9.7211 0.0000 0.0000
# 5 0.0000 0.0000 0.0000 0.0000 21.1289 0.0000
# 6 0.0000 0.0000 0.0000 0.0000 0.0000 -3.1456
#
#
#
# Elastic Compliance Matrix: (Units=1/GPa)
#
#
# Indices 1 2 3 4 5 6 
#
# 1 0.011326 -0.001283 -0.016143 0.000000 0.000000 0.000000
# 2 -0.001283 0.022121 -0.013334 0.000000 0.000000 0.000000
# 3 -0.016143 -0.013334 0.062812 0.000000 0.000000 0.000000
# 4 0.000000 0.000000 0.000000 0.102869 0.000000 0.000000
# 5 0.000000 0.000000 0.000000 0.000000 0.047329 0.000000
# 6 0.000000 0.000000 0.000000 0.000000 0.000000 -0.317906
#
#
# Mechanical properties :
#
#
# Convention : Reuss Voigt Hill
#
# Bulk Modulus (GPa) = 28.78566 54.69111 41.73839
# Shear Modulus (GPa) = 3031.94222 15.30470 1523.62346
#
# Velocity S-wave (km/s) = 41.42407 2.94310 29.36508
# Velocity P-wave (km/s) = 48.00239 6.51936 34.25443
#
# Compressibility (1/GPa) = 0.03473952
#
# Stress axis : x y z
#
# Youngs Moduli (GPa) = 88.29093 45.20558 15.92061
#
# Poissons Ratio (x) = 0.05798 0.25700
# Poissons Ratio (y) = 0.11325 0.21229
# Poissons Ratio (z) = 1.42526 0.60278
#
# Static dielectric constant tensor:
#      x y z
#    x 1.527160 0.000000 0.000000 
#    y 0.000000 1.590760 0.000000 
#    z 0.000000 0.000000 1.595410 
# 
# From -- ./inp_files/54263.got.cif
#   From: 2010.05.17/outbox.cif.g08.bks.cpg/sg63_28_cif.got.tgz:54263.got - 2010.06.03 15:47:04.
