data_PCOD9472215
_publ_section_title
;
Structure prediction by ZEFSAII (Michael W. Deem and Ramdas Pophale) SiO2 
 PCOD9472215
Probable space group: C M C M
;
_chemical_formula_sum "Si O2"
_cell_formula_units_Z 80
_cell_length_a 27.486828
_cell_length_b 18.999627
_cell_length_c 8.786784
_cell_angle_alpha 90.000000
_cell_angle_beta 90.000000
_cell_angle_gamma 90.000000
_cell_volume 4588.805502
_symmetry_space_group_name_H-M "C M C M"
_symmetry_group_IT_number 63
_symmetry_cell_setting 'orthorhombic'
loop_
_space_group_symop_operation_xyz
x,y,z
-x,-y,1/2+z
x,-y,-z
-x,y,1/2-z
-x,-y,-z
x,y,1/2-z
-x,y,z
x,-y,1/2+z
1/2+x,1/2+y,z
1/2-x,1/2-y,1/2+z
1/2+x,1/2-y,-z
1/2-x,1/2+y,1/2-z
1/2-x,1/2-y,-z
1/2+x,1/2+y,1/2-z
1/2-x,1/2+y,z
1/2+x,1/2-y,1/2+z
loop_
_atom_site_type_symbol
_atom_site_label
_atom_site_fract_x
_atom_site_fract_y
_atom_site_fract_z
Si Si1 0.941788 0.075220 0.069907
Si Si2 0.800194 0.278092 0.066892
Si Si3 0.653565 0.925125 0.432494
Si Si4 0.054504 0.648258 0.933790
Si Si5 0.897796 0.215212 0.931623
O O1 0.931940 0.076631 0.250000
O O2 0.000000 0.082912 0.048369
O O3 0.915665 0.139735 0.988289
O O4 0.927561 0.000000 0.000000
O O5 0.800167 0.273531 0.250000
O O6 0.812012 0.359442 0.024807
O O7 0.750000 0.250000 0.000000
O O8 0.845245 0.233806 0.001089
O O9 0.653802 0.930038 0.250000
O O10 0.598592 0.903025 0.480491
O O11 0.667404 0.000000 0.500000
O O12 0.056956 0.655276 0.750000
O O13 0.000000 0.624979 0.974724
O O14 0.066355 0.724057 0.005401
O O15 0.896181 0.218145 0.750000
#
# Coordination Sequence:
#
# PCOD9472215 Si02
#       5
#    16  16  16  16  16
#     4  10  20  34  52  75 106 143 179 218 266 317
#     4  10  21  39  60  81 104 133 173 219 267 316
#     4   9  19  34  53  78 108 139 171 210 257 309
#     4   9  18  33  51  73 105 144 181 217 258 302
#     4  11  21  33  52  78 106 137 176 219 263 315
#
# _framework density 17.433730000000001
#
# number of rings (size 3 to 8) (size 9 to 14) (size 15 to 20)
#    0.000    2.200    0.000    4.800    0.000    8.400 
#    0.000    1.000    0.000    2.400    0.000    0.000 
#    0.000    0.000    0.000    0.000    0.000    0.000 
#
# Total GULP energy -223262.696026 kJ/mol
# GULP energy per Si atom -5581.567401 kJ/mol
# Density = 1.739405 g / cm^3
# Si number density = 17.433730 Si / 1000 Ang^3
#
#
#
# Elastic Constant Matrix: (Units=GPa)
#
#
# Indices 1 2 3 4 5 6 
#
# 1 89.8800 43.7052 35.1821 0.0000 0.0000 0.0000
# 2 43.7052 123.3897 39.8514 0.0000 0.0000 0.0000
# 3 35.1821 39.8514 55.0096 0.0000 0.0000 0.0000
# 4 0.0000 0.0000 0.0000 33.4054 0.0000 0.0000
# 5 0.0000 0.0000 0.0000 0.0000 25.6943 0.0000
# 6 0.0000 0.0000 0.0000 0.0000 0.0000 9.4758
#
#
#
# Elastic Compliance Matrix: (Units=1/GPa)
#
#
# Indices 1 2 3 4 5 6 
#
# 1 0.015657 -0.003018 -0.007828 0.000000 0.000000 0.000000
# 2 -0.003018 0.011161 -0.006156 0.000000 0.000000 0.000000
# 3 -0.007828 -0.006156 0.027644 0.000000 0.000000 0.000000
# 4 0.000000 0.000000 0.000000 0.029935 0.000000 0.000000
# 5 0.000000 0.000000 0.000000 0.000000 0.038919 0.000000
# 6 0.000000 0.000000 0.000000 0.000000 0.000000 0.105532
#
#
# Mechanical properties :
#
#
# Convention : Reuss Voigt Hill
#
# Bulk Modulus (GPa) = 48.87393 56.19520 52.53456
# Shear Modulus (GPa) = 18.54102 23.68447 21.11274
#
# Velocity S-wave (km/s) = 3.26469 3.68984 3.48376
# Velocity P-wave (km/s) = 6.50430 7.10330 6.81039
#
# Compressibility (1/GPa) = 0.02046081
#
# Stress axis : x y z
#
# Youngs Moduli (GPa) = 63.86749 89.59386 36.17366
#
# Poissons Ratio (x) = 0.27038 0.28315
# Poissons Ratio (y) = 0.19274 0.22268
# Poissons Ratio (z) = 0.49993 0.55152
#
# Static dielectric constant tensor:
#      x y z
#    x 1.588310 0.000000 0.000000 
#    y 0.000000 1.573370 0.000000 
#    z 0.000000 0.000000 1.580760 
# 
# From -- ./inp_files/11979.got.cif
#   From: 2010.05.17/outbox.cif.g08.bks.cpg/sg63_6_cif.got.tgz:11979.got - 2010.06.03 15:47:04.
