data_PCOD9472865
_publ_section_title
;
Structure prediction by ZEFSAII (Michael W. Deem and Ramdas Pophale) SiO2 
 PCOD9472865
Probable space group: C M C M
;
_chemical_formula_sum "Si O2"
_cell_formula_units_Z 80
_cell_length_a 8.905932
_cell_length_b 25.843159
_cell_length_c 18.633447
_cell_angle_alpha 90.000000
_cell_angle_beta 90.000000
_cell_angle_gamma 90.000000
_cell_volume 4288.626026
_symmetry_space_group_name_H-M "C M C M"
_symmetry_group_IT_number 63
_symmetry_cell_setting 'orthorhombic'
loop_
_space_group_symop_operation_xyz
x,y,z
-x,-y,1/2+z
x,-y,-z
-x,y,1/2-z
-x,-y,-z
x,y,1/2-z
-x,y,z
x,-y,1/2+z
1/2+x,1/2+y,z
1/2-x,1/2-y,1/2+z
1/2+x,1/2-y,-z
1/2-x,1/2+y,1/2-z
1/2-x,1/2-y,-z
1/2+x,1/2+y,1/2-z
1/2-x,1/2+y,z
1/2+x,1/2-y,1/2+z
loop_
_atom_site_type_symbol
_atom_site_label
_atom_site_fract_x
_atom_site_fract_y
_atom_site_fract_z
Si Si1 0.321396 0.194981 0.587652
Si Si2 0.320270 0.686386 0.432894
Si Si3 0.819281 0.910706 0.666390
Si Si4 0.179294 0.897750 0.332876
Si Si5 0.179888 0.507262 0.916800
O O1 0.500000 0.187927 0.592977
O O2 0.287029 0.255968 0.595990
O O3 0.265536 0.179930 0.507907
O O4 0.239171 0.158185 0.643643
O O5 0.500000 0.684235 0.446856
O O6 0.281928 0.641498 0.376997
O O7 0.778087 0.906949 0.750000
O O8 0.000000 0.917600 0.662471
O O9 0.741303 0.959190 0.628841
O O10 0.217981 0.908713 0.250000
O O11 0.252513 0.940493 0.384048
O O12 0.000000 0.899652 0.340226
O O13 0.000000 0.509252 0.912779
O O14 0.223533 0.500000 0.000000
#
# Coordination Sequence:
#
# PCOD9472865 Si02
#       5
#    16  16  16  16  16
#     4  10  20  35  58  86 114 147 189 234 277 324
#     4   9  19  36  58  83 114 152 189 227 273 327
#     4  10  21  37  57  82 112 146 184 224 270 328
#     4  11  24  40  58  82 113 149 188 230 279 335
#     4  11  24  40  59  84 111 141 182 230 279 333
#
# _framework density 18.653994000000001
#
# number of rings (size 3 to 8) (size 9 to 14) (size 15 to 20)
#    0.000    1.800    0.000    3.600    0.000   11.600 
#    0.000    2.000    0.000    0.000    0.000    0.000 
#    0.000    0.000    0.000    0.000    0.000    0.000 
#
# Total GULP energy -223561.330215 kJ/mol
# GULP energy per Si atom -5589.033255 kJ/mol
# Density = 1.861154 g / cm^3
# Si number density = 18.653994 Si / 1000 Ang^3
#
#
#
# Elastic Constant Matrix: (Units=GPa)
#
#
# Indices 1 2 3 4 5 6 
#
# 1 26.4622 21.0978 25.6894 0.0000 0.0000 0.0000
# 2 21.0978 59.6488 19.3666 0.0000 0.0000 0.0000
# 3 25.6894 19.3666 57.0357 0.0000 0.0000 0.0000
# 4 0.0000 0.0000 0.0000 -0.7467 0.0000 0.0000
# 5 0.0000 0.0000 0.0000 0.0000 28.5168 0.0000
# 6 0.0000 0.0000 0.0000 0.0000 0.0000 34.1312
#
#
#
# Elastic Compliance Matrix: (Units=1/GPa)
#
#
# Indices 1 2 3 4 5 6 
#
# 1 0.083292 -0.019421 -0.030921 0.000000 0.000000 0.000000
# 2 -0.019421 0.023370 0.000812 0.000000 0.000000 0.000000
# 3 -0.030921 0.000812 0.031184 0.000000 0.000000 0.000000
# 4 0.000000 0.000000 0.000000 -1.339236 0.000000 0.000000
# 5 0.000000 0.000000 0.000000 0.000000 0.035067 0.000000
# 6 0.000000 0.000000 0.000000 0.000000 0.000000 0.029299
#
#
# Mechanical properties :
#
#
# Convention : Reuss Voigt Hill
#
# Bulk Modulus (GPa) = 25.78227 30.60604 28.19416
# Shear Modulus (GPa) = -4.87788 17.51312 6.31762
#
# Velocity S-wave (km/s) = -1.61883 3.06737 1.84231
# Velocity P-wave (km/s) = 3.21826 5.38404 4.43537
#
# Compressibility (1/GPa) = 0.03878634
#
# Stress axis : x y z
#
# Youngs Moduli (GPa) = 12.00601 42.78911 32.06755
#
# Poissons Ratio (x) = 0.83101 0.99156
# Poissons Ratio (y) = 0.23317 -0.02604
# Poissons Ratio (z) = 0.37124 -0.03474
#
# Static dielectric constant tensor:
#      x y z
#    x 1.624200 0.000000 0.000000 
#    y 0.000000 1.626520 0.000000 
#    z 0.000000 0.000000 1.619210 
# 
# From -- ./inp_files/40535.got.cif
#   From: 2010.05.17/outbox.cif.g08.bks.cpg/sg63_21_cif.got.tgz:40535.got - 2010.06.03 15:47:04.
