data_PCOD9472473
_publ_section_title
;
Structure prediction by ZEFSAII (Michael W. Deem and Ramdas Pophale) SiO2 
 PCOD9472473
Probable space group: C M C M
;
_chemical_formula_sum "Si O2"
_cell_formula_units_Z 88
_cell_length_a 14.496208
_cell_length_b 17.758313
_cell_length_c 19.186307
_cell_angle_alpha 90.000000
_cell_angle_beta 90.000000
_cell_angle_gamma 90.000000
_cell_volume 4939.096456
_symmetry_space_group_name_H-M "C M C M"
_symmetry_group_IT_number 63
_symmetry_cell_setting 'orthorhombic'
loop_
_space_group_symop_operation_xyz
x,y,z
-x,-y,1/2+z
x,-y,-z
-x,y,1/2-z
-x,-y,-z
x,y,1/2-z
-x,y,z
x,-y,1/2+z
1/2+x,1/2+y,z
1/2-x,1/2-y,1/2+z
1/2+x,1/2-y,-z
1/2-x,1/2+y,1/2-z
1/2-x,1/2-y,-z
1/2+x,1/2+y,1/2-z
1/2-x,1/2+y,z
1/2+x,1/2-y,1/2+z
loop_
_atom_site_type_symbol
_atom_site_label
_atom_site_fract_x
_atom_site_fract_y
_atom_site_fract_z
Si Si1 0.605362 0.354780 0.573094
Si Si2 0.609823 0.226489 0.044000
Si Si3 0.601921 0.855219 0.326532
Si Si4 0.167263 0.000000 0.000000
Si Si5 0.847277 0.427486 0.038139
Si Si6 0.246831 0.779909 0.831738
O O1 0.500000 0.340023 0.595190
O O2 0.627922 0.294454 0.511105
O O3 0.611973 0.439374 0.543985
O O4 0.680801 0.342977 0.633416
O O5 0.500000 0.226034 0.056969
O O6 0.667950 0.231821 0.115358
O O7 0.637777 0.148461 0.005824
O O8 0.609591 0.889099 0.250000
O O9 0.500000 0.819444 0.332128
O O10 0.611072 0.914800 0.386931
O O11 0.681297 0.793635 0.334744
O O12 0.239293 0.050898 0.955686
O O13 0.888461 0.500000 0.000000
O O14 0.269566 0.793471 0.750000
#
# Coordination Sequence:
#
# PCOD9472473 Si02
#       6
#    16  16  16   8  16  16
#     4  11  21  37  62  89 118 153 200 246 288 346
#     4  11  22  38  62  85 114 156 200 246 289 345
#     4  10  20  34  55  85 118 152 190 237 295 350
#     4  10  21  36  57  86 116 154 195 240 293 336
#     4  10  20  36  57  84 117 151 196 240 285 340
#     4  11  21  36  58  87 122 153 190 242 296 352
#
# _framework density 17.817024
#
# number of rings (size 3 to 8) (size 9 to 14) (size 15 to 20)
#    0.545    0.909    3.636    3.000    0.000    2.909 
#    0.000    3.636    0.000    1.091    0.000    2.545 
#    0.000    0.000    0.000    0.000    0.000    0.000 
#
# Total GULP energy -245249.267477 kJ/mol
# GULP energy per Si atom -5573.846988 kJ/mol
# Density = 1.777647 g / cm^3
# Si number density = 17.817024 Si / 1000 Ang^3
#
#
#
# Elastic Constant Matrix: (Units=GPa)
#
#
# Indices 1 2 3 4 5 6 
#
# 1 93.1644 21.9360 52.8868 0.0000 0.0000 0.0000
# 2 21.9360 88.3651 47.9036 0.0000 0.0000 0.0000
# 3 52.8868 47.9036 139.1740 0.0000 0.0000 0.0000
# 4 0.0000 0.0000 0.0000 21.3347 0.0000 0.0000
# 5 0.0000 0.0000 0.0000 0.0000 112.0757 0.0000
# 6 0.0000 0.0000 0.0000 0.0000 0.0000 17.1330
#
#
#
# Elastic Compliance Matrix: (Units=1/GPa)
#
#
# Indices 1 2 3 4 5 6 
#
# 1 0.013722 -0.000713 -0.004969 0.000000 0.000000 0.000000
# 2 -0.000713 0.013950 -0.004531 0.000000 0.000000 0.000000
# 3 -0.004969 -0.004531 0.010633 0.000000 0.000000 0.000000
# 4 0.000000 0.000000 0.000000 0.046872 0.000000 0.000000
# 5 0.000000 0.000000 0.000000 0.000000 0.008923 0.000000
# 6 0.000000 0.000000 0.000000 0.000000 0.000000 0.058367
#
#
# Mechanical properties :
#
#
# Convention : Reuss Voigt Hill
#
# Bulk Modulus (GPa) = 55.92834 62.90629 59.41731
# Shear Modulus (GPa) = 27.95611 43.30716 35.63164
#
# Velocity S-wave (km/s) = 3.96544 4.93552 4.47684
# Velocity P-wave (km/s) = 7.24050 8.23788 7.75524
#
# Compressibility (1/GPa) = 0.01788002
#
# Stress axis : x y z
#
# Youngs Moduli (GPa) = 72.87332 71.68604 94.04600
#
# Poissons Ratio (x) = 0.05108 0.46735
# Poissons Ratio (y) = 0.05193 0.42609
# Poissons Ratio (z) = 0.36213 0.32479
#
# Static dielectric constant tensor:
#      x y z
#    x 1.644300 0.000000 0.000000 
#    y 0.000000 1.604510 0.000000 
#    z 0.000000 0.000000 1.604840 
# 
# From -- ./inp_files/44122.got.cif
#   From: 2010.05.17/outbox.cif.g08.bks.cpg/sg63_23_cif.got.tgz:44122.got - 2010.06.03 15:47:04.
