data_PCOD9472469
_publ_section_title
;
Structure prediction by ZEFSAII (Michael W. Deem and Ramdas Pophale) SiO2 
 PCOD9472469
Probable space group: C M C M
;
_chemical_formula_sum "Si O2"
_cell_formula_units_Z 64
_cell_length_a 8.944826
_cell_length_b 22.416473
_cell_length_c 16.247201
_cell_angle_alpha 90.000000
_cell_angle_beta 90.000000
_cell_angle_gamma 90.000000
_cell_volume 3257.749839
_symmetry_space_group_name_H-M "C M C M"
_symmetry_group_IT_number 63
_symmetry_cell_setting 'orthorhombic'
loop_
_space_group_symop_operation_xyz
x,y,z
-x,-y,1/2+z
x,-y,-z
-x,y,1/2-z
-x,-y,-z
x,y,1/2-z
-x,y,z
x,-y,1/2+z
1/2+x,1/2+y,z
1/2-x,1/2-y,1/2+z
1/2+x,1/2-y,-z
1/2-x,1/2+y,1/2-z
1/2-x,1/2-y,-z
1/2+x,1/2+y,1/2-z
1/2-x,1/2+y,z
1/2+x,1/2-y,1/2+z
loop_
_atom_site_type_symbol
_atom_site_label
_atom_site_fract_x
_atom_site_fract_y
_atom_site_fract_z
Si Si1 0.166463 0.260694 0.383331
Si Si2 0.179331 0.054978 0.250000
Si Si3 0.173326 0.314913 0.750000
Si Si4 0.678072 0.954846 0.923471
Si Si5 0.832716 0.845321 0.487999
O O1 0.282974 0.226880 0.325878
O O2 0.150668 0.214834 0.458969
O O3 0.229951 0.324096 0.412700
O O4 0.000000 0.266433 0.347135
O O5 0.228446 0.124972 0.250000
O O6 0.247259 0.029232 0.335464
O O7 0.000000 0.050442 0.250000
O O8 0.000000 0.331705 0.750000
O O9 0.500000 0.947827 0.911297
O O10 0.752587 0.893815 0.955316
O O11 0.701512 0.000000 0.000000
O O12 0.000000 0.865392 0.464514
#
# Coordination Sequence:
#
# PCOD9472469 Si02
#       5
#    16   8   8  16  16
#     4  10  20  34  55  84 120 155 192 242 300 361
#     4  12  24  40  63  92 123 160 208 260 312 370
#     4  12  22  34  57  88 123 158 200 252 304 366
#     4  11  24  42  65  92 124 165 211 261 315 370
#     4  10  20  35  57  85 118 155 196 243 299 361
#
# _framework density 19.645461999999998
#
# number of rings (size 3 to 8) (size 9 to 14) (size 15 to 20)
#    0.000    1.250    2.500    4.500    0.000    4.000 
#    0.000    1.250    0.000    4.500    0.000    0.000 
#    0.000    0.000    0.000    0.000    0.000    0.000 
#
# Total GULP energy -178464.591199 kJ/mol
# GULP energy per Si atom -5577.018475 kJ/mol
# Density = 1.960075 g / cm^3
# Si number density = 19.645462 Si / 1000 Ang^3
#
#
#
# Elastic Constant Matrix: (Units=GPa)
#
#
# Indices 1 2 3 4 5 6 
#
# 1 160.6375 41.4588 56.7966 0.0000 0.0000 0.0000
# 2 41.4588 34.6696 34.2378 0.0000 0.0000 0.0000
# 3 56.7966 34.2378 90.3345 0.0000 0.0000 0.0000
# 4 0.0000 0.0000 0.0000 18.8996 0.0000 0.0000
# 5 0.0000 0.0000 0.0000 0.0000 55.4024 0.0000
# 6 0.0000 0.0000 0.0000 0.0000 0.0000 11.2709
#
#
#
# Elastic Compliance Matrix: (Units=1/GPa)
#
#
# Indices 1 2 3 4 5 6 
#
# 1 0.009380 -0.008618 -0.002631 0.000000 0.000000 0.000000
# 2 -0.008618 0.054016 -0.015054 0.000000 0.000000 0.000000
# 3 -0.002631 -0.015054 0.018430 0.000000 0.000000 0.000000
# 4 0.000000 0.000000 0.000000 0.052911 0.000000 0.000000
# 5 0.000000 0.000000 0.000000 0.000000 0.018050 0.000000
# 6 0.000000 0.000000 0.000000 0.000000 0.000000 0.088724
#
#
# Mechanical properties :
#
#
# Convention : Reuss Voigt Hill
#
# Bulk Modulus (GPa) = 34.22416 61.18088 47.70252
# Shear Modulus (GPa) = 16.45507 27.32447 21.88977
#
# Velocity S-wave (km/s) = 2.89727 3.73350 3.34165
# Velocity P-wave (km/s) = 5.35266 7.05659 6.26284
#
# Compressibility (1/GPa) = 0.02921913
#
# Stress axis : x y z
#
# Youngs Moduli (GPa) = 106.61308 18.51287 54.25991
#
# Poissons Ratio (x) = 0.15955 0.14275
# Poissons Ratio (y) = 0.91883 0.81684
# Poissons Ratio (z) = 0.28049 0.27870
#
# Static dielectric constant tensor:
#      x y z
#    x 1.718810 0.000000 0.000000 
#    y 0.000000 1.654790 0.000000 
#    z 0.000000 0.000000 1.849230 
# 
# From -- ./inp_files/39894.got.cif
#   From: 2010.05.17/outbox.cif.g08.bks.cpg/sg63_20_cif.got.tgz:39894.got - 2010.06.03 15:47:04.
