data_PCOD9472818
_publ_section_title
;
Structure prediction by ZEFSAII (Michael W. Deem and Ramdas Pophale) SiO2 
 PCOD9472818
Probable space group: C M C M
;
_chemical_formula_sum "Si O2"
_cell_formula_units_Z 96
_cell_length_a 8.676524
_cell_length_b 25.630287
_cell_length_c 24.308800
_cell_angle_alpha 90.000000
_cell_angle_beta 90.000000
_cell_angle_gamma 90.000000
_cell_volume 5405.834707
_symmetry_space_group_name_H-M "C M C M"
_symmetry_group_IT_number 63
_symmetry_cell_setting 'orthorhombic'
loop_
_space_group_symop_operation_xyz
x,y,z
-x,-y,1/2+z
x,-y,-z
-x,y,1/2-z
-x,-y,-z
x,y,1/2-z
-x,y,z
x,-y,1/2+z
1/2+x,1/2+y,z
1/2-x,1/2-y,1/2+z
1/2+x,1/2-y,-z
1/2-x,1/2+y,1/2-z
1/2-x,1/2-y,-z
1/2+x,1/2+y,1/2-z
1/2-x,1/2+y,z
1/2+x,1/2-y,1/2+z
loop_
_atom_site_type_symbol
_atom_site_label
_atom_site_fract_x
_atom_site_fract_y
_atom_site_fract_z
Si Si1 0.313693 0.166232 0.937130
Si Si2 0.312350 0.773477 0.250000
Si Si3 0.313857 0.268048 0.868240
Si Si4 0.185828 0.024904 0.058711
Si Si5 0.684266 0.140633 0.061003
Si Si6 0.815186 0.929216 0.134566
Si Si7 0.184991 0.395160 0.250000
O O1 0.500000 0.162942 0.934306
O O2 0.266939 0.220135 0.908033
O O3 0.245314 0.117956 0.903322
O O4 0.266262 0.161893 0.000723
O O5 0.500000 0.896008 0.250000
O O6 0.262621 0.745744 0.193707
O O7 0.265320 0.834197 0.250000
O O8 0.500000 0.270134 0.868344
O O9 0.249839 0.321415 0.892532
O O10 0.257603 0.081584 0.066212
O O11 0.000000 0.029989 0.058253
O O12 0.229385 0.983594 0.105751
O O13 0.231913 0.000000 0.000000
O O14 0.500000 0.141489 0.062719
O O15 0.747097 0.921828 0.195011
O O16 0.000000 0.926855 0.136641
O O17 0.500000 0.773479 0.250000
#
# Coordination Sequence:
#
# PCOD9472818 Si02
#       7
#    16   8  16  16  16  16   8
#     4  10  20  35  57  85 118 154 188 233 291 349
#     4   9  18  35  60  83 106 149 196 230 275 349
#     4  10  20  37  58  81 114 154 195 233 288 354
#     4  10  21  39  60  83 114 153 192 233 287 347
#     4  11  23  36  55  87 120 152 194 239 290 344
#     4  11  22  36  59  90 118 147 194 241 283 338
#     4  11  21  39  62  85 120 153 190 236 291 347
#
# _framework density 17.758590999999999
#
# number of rings (size 3 to 8) (size 9 to 14) (size 15 to 20)
#    0.000    1.667    3.333    1.750    0.000    3.000 
#    0.000    1.250    0.000    2.000    0.000    0.000 
#    0.000    0.000    0.000    0.000    0.000    0.000 
#
# Total GULP energy -268136.340781 kJ/mol
# GULP energy per Si atom -5586.173766 kJ/mol
# Density = 1.771817 g / cm^3
# Si number density = 17.758591 Si / 1000 Ang^3
#
#
#
# Elastic Constant Matrix: (Units=GPa)
#
#
# Indices 1 2 3 4 5 6 
#
# 1 17.7163 34.2024 33.3710 0.0000 0.0000 0.0000
# 2 34.2024 165.8652 99.0002 0.0000 0.0000 0.0000
# 3 33.3710 99.0002 168.0095 0.0000 0.0000 0.0000
# 4 0.0000 0.0000 0.0000 34.4780 0.0000 0.0000
# 5 0.0000 0.0000 0.0000 0.0000 26.7882 0.0000
# 6 0.0000 0.0000 0.0000 0.0000 0.0000 26.8294
#
#
#
# Elastic Compliance Matrix: (Units=1/GPa)
#
#
# Indices 1 2 3 4 5 6 
#
# 1 0.109621 -0.014821 -0.013040 0.000000 0.000000 0.000000
# 2 -0.014821 0.011304 -0.003717 0.000000 0.000000 0.000000
# 3 -0.013040 -0.003717 0.010732 0.000000 0.000000 0.000000
# 4 0.000000 0.000000 0.000000 0.029004 0.000000 0.000000
# 5 0.000000 0.000000 0.000000 0.000000 0.037330 0.000000
# 6 0.000000 0.000000 0.000000 0.000000 0.000000 0.037273
#
#
# Mechanical properties :
#
#
# Convention : Reuss Voigt Hill
#
# Bulk Modulus (GPa) = 14.59838 76.08203 45.34020
# Shear Modulus (GPa) = 15.56402 29.95361 22.75882
#
# Velocity S-wave (km/s) = 2.96365 4.11141 3.58378
# Velocity P-wave (km/s) = 4.46646 8.09158 6.53540
#
# Compressibility (1/GPa) = 0.06850077
#
# Stress axis : x y z
#
# Youngs Moduli (GPa) = 9.12232 88.46643 93.17650
#
# Poissons Ratio (x) = 1.31119 1.21503
# Poissons Ratio (y) = 0.13520 0.34633
# Poissons Ratio (z) = 0.11896 0.32882
#
# Static dielectric constant tensor:
#      x y z
#    x 1.597570 0.000000 0.000000 
#    y 0.000000 1.571740 0.000000 
#    z 0.000000 0.000000 1.598030 
# 
# From -- ./inp_files/59980.got.cif
#   From: 2010.05.17/outbox.cif.g08.bks.cpg/sg63_30_cif.got.tgz:59980.got - 2010.06.03 15:47:04.
