data_PCOD9472013
_publ_section_title
;
Structure prediction by ZEFSAII (Michael W. Deem and Ramdas Pophale) SiO2 
 PCOD9472013
Probable space group: C M C M
;
_chemical_formula_sum "Si O2"
_cell_formula_units_Z 96
_cell_length_a 13.632930
_cell_length_b 19.669724
_cell_length_c 14.163082
_cell_angle_alpha 90.000000
_cell_angle_beta 90.000000
_cell_angle_gamma 90.000000
_cell_volume 3797.914998
_symmetry_space_group_name_H-M "C M C M"
_symmetry_group_IT_number 63
_symmetry_cell_setting 'orthorhombic'
loop_
_space_group_symop_operation_xyz
x,y,z
-x,-y,1/2+z
x,-y,-z
-x,y,1/2-z
-x,-y,-z
x,y,1/2-z
-x,y,z
x,-y,1/2+z
1/2+x,1/2+y,z
1/2-x,1/2-y,1/2+z
1/2+x,1/2-y,-z
1/2-x,1/2+y,1/2-z
1/2-x,1/2-y,-z
1/2+x,1/2+y,1/2-z
1/2-x,1/2+y,z
1/2+x,1/2-y,1/2+z
loop_
_atom_site_type_symbol
_atom_site_label
_atom_site_fract_x
_atom_site_fract_y
_atom_site_fract_z
Si Si1 0.102653 0.158740 0.051371
Si Si2 0.324201 0.325619 0.359558
Si Si3 0.799285 0.324129 0.638000
Si Si4 0.105533 0.988805 0.888188
Si Si5 0.171080 0.476706 0.643068
Si Si6 0.607048 0.119858 0.864752
O O1 0.116495 0.137368 0.942018
O O2 0.000000 0.195508 0.062312
O O3 0.200341 0.194448 0.083193
O O4 0.100955 0.093070 0.118247
O O5 0.340559 0.345011 0.250000
O O6 0.357329 0.246437 0.369950
O O7 0.209009 0.340467 0.382408
O O8 0.779228 0.331925 0.750000
O O9 0.833350 0.399200 0.603819
O O10 0.215021 0.002534 0.852638
O O11 0.000000 0.014797 0.852143
O O12 0.107789 0.000000 0.000000
O O13 0.133613 0.469686 0.750000
O O14 0.118098 0.541829 0.599632
O O15 0.604147 0.117415 0.750000
O O16 0.500000 0.146014 0.896550
#
# Coordination Sequence:
#
# PCOD9472013 Si02
#       6
#    16  16  16  16  16  16
#     4  10  20  33  52  78 108 142 177 220 273 328
#     4  10  20  35  55  79 109 145 185 229 276 327
#     4   9  19  35  55  78 106 143 184 228 277 324
#     4   9  17  29  46  69  98 132 167 206 259 319
#     4   9  17  31  51  74 101 133 171 219 273 325
#     4   9  18  33  54  79 106 141 186 233 279 324
#
# _framework density 25.277027
#
# number of rings (size 3 to 8) (size 9 to 14) (size 15 to 20)
#    0.000    2.667    0.000    1.500    0.000    1.667 
#    0.000    5.833    0.000   21.500    0.000    0.000 
#    0.000    0.000    0.000    0.000    0.000    0.000 
#
# Total GULP energy -267427.736092 kJ/mol
# GULP energy per Si atom -5571.411169 kJ/mol
# Density = 2.521950 g / cm^3
# Si number density = 25.277027 Si / 1000 Ang^3
#
#
#
# Elastic Constant Matrix: (Units=GPa)
#
#
# Indices 1 2 3 4 5 6 
#
# 1 69.2813 19.8433 2.6900 0.0000 0.0000 0.0000
# 2 19.8433 133.1663 13.5182 0.0000 0.0000 0.0000
# 3 2.6900 13.5182 62.4289 0.0000 0.0000 0.0000
# 4 0.0000 0.0000 0.0000 27.9963 0.0000 0.0000
# 5 0.0000 0.0000 0.0000 0.0000 36.7304 0.0000
# 6 0.0000 0.0000 0.0000 0.0000 0.0000 9.9356
#
#
#
# Elastic Compliance Matrix: (Units=1/GPa)
#
#
# Indices 1 2 3 4 5 6 
#
# 1 0.015079 -0.002230 -0.000167 0.000000 0.000000 0.000000
# 2 -0.002230 0.008008 -0.001638 0.000000 0.000000 0.000000
# 3 -0.000167 -0.001638 0.016380 0.000000 0.000000 0.000000
# 4 0.000000 0.000000 0.000000 0.035719 0.000000 0.000000
# 5 0.000000 0.000000 0.000000 0.000000 0.027225 0.000000
# 6 0.000000 0.000000 0.000000 0.000000 0.000000 0.100648
#
#
# Mechanical properties :
#
#
# Convention : Reuss Voigt Hill
#
# Bulk Modulus (GPa) = 31.84964 37.44216 34.64590
# Shear Modulus (GPa) = 22.56368 30.18746 26.37557
#
# Velocity S-wave (km/s) = 2.99098 3.45956 3.23377
# Velocity P-wave (km/s) = 4.95535 5.55004 5.26111
#
# Compressibility (1/GPa) = 0.03139753
#
# Stress axis : x y z
#
# Youngs Moduli (GPa) = 66.31693 124.87545 61.04974
#
# Poissons Ratio (x) = 0.27847 0.01019
# Poissons Ratio (y) = 0.14789 0.10000
# Poissons Ratio (z) = 0.01107 0.20454
#
# Static dielectric constant tensor:
#      x y z
#    x 2.035550 0.000000 0.000000 
#    y 0.000000 2.097320 0.000000 
#    z 0.000000 0.000000 1.971770 
# 
# From -- ./inp_files/31916.got.cif
#   From: 2010.05.17/outbox.cif.g08.bks.cpg/sg63_16_cif.got.tgz:31916.got - 2010.06.03 15:47:04.
