data_PCOD9472620
_publ_section_title
;
Structure prediction by ZEFSAII (Michael W. Deem and Ramdas Pophale) SiO2 
 PCOD9472620
Probable space group: C M C M
;
_chemical_formula_sum "Si O2"
_cell_formula_units_Z 72
_cell_length_a 12.993263
_cell_length_b 12.272856
_cell_length_c 21.841298
_cell_angle_alpha 90.000000
_cell_angle_beta 90.000000
_cell_angle_gamma 90.000000
_cell_volume 3482.910480
_symmetry_space_group_name_H-M "C M C M"
_symmetry_group_IT_number 63
_symmetry_cell_setting 'orthorhombic'
loop_
_space_group_symop_operation_xyz
x,y,z
-x,-y,1/2+z
x,-y,-z
-x,y,1/2-z
-x,-y,-z
x,y,1/2-z
-x,y,z
x,-y,1/2+z
1/2+x,1/2+y,z
1/2-x,1/2-y,1/2+z
1/2+x,1/2-y,-z
1/2-x,1/2+y,1/2-z
1/2-x,1/2-y,-z
1/2+x,1/2+y,1/2-z
1/2-x,1/2+y,z
1/2+x,1/2-y,1/2+z
loop_
_atom_site_type_symbol
_atom_site_label
_atom_site_fract_x
_atom_site_fract_y
_atom_site_fract_z
Si Si1 0.191344 0.137156 0.097189
Si Si2 0.707007 0.000000 0.500000
Si Si3 0.822647 0.055034 0.680299
Si Si4 0.384017 0.121383 0.884827
Si Si5 0.385537 0.199491 0.321315
O O1 0.132356 0.250735 0.100000
O O2 0.297998 0.156361 0.134233
O O3 0.139979 0.037474 0.133891
O O4 0.221909 0.093045 0.030592
O O5 0.640382 0.946189 0.446376
O O6 0.830227 0.016937 0.750000
O O7 0.704458 0.085709 0.662831
O O8 0.881256 0.169266 0.674405
O O9 0.500000 0.103444 0.863412
O O10 0.364333 0.172199 0.250000
O O11 0.500000 0.161225 0.337212
#
# Coordination Sequence:
#
# PCOD9472620 Si02
#       5
#    16   8  16  16  16
#     4  10  20  35  54  76 104 135 171 214 258 304
#     4  10  21  38  53  72 102 138 173 216 261 304
#     4   9  19  35  53  76 107 137 165 205 256 306
#     4  10  21  36  55  78 104 136 174 214 255 303
#     4   9  18  33  53  76 101 133 172 209 250 304
#
# _framework density 20.672366
#
# number of rings (size 3 to 8) (size 9 to 14) (size 15 to 20)
#    0.000    2.444    0.000    1.667    0.000    6.667 
#    0.000    0.556    0.000    0.000    0.000    0.000 
#    0.000    0.000    0.000    0.000    0.000    0.000 
#
# Total GULP energy -201071.943807 kJ/mol
# GULP energy per Si atom -5585.331772 kJ/mol
# Density = 2.062531 g / cm^3
# Si number density = 20.672366 Si / 1000 Ang^3
#
#
#
# Elastic Constant Matrix: (Units=GPa)
#
#
# Indices 1 2 3 4 5 6 
#
# 1 69.1579 1.9499 9.6818 0.0000 0.0000 0.0000
# 2 1.9499 88.5803 -6.8234 0.0000 0.0000 0.0000
# 3 9.6818 -6.8234 40.2751 0.0000 0.0000 0.0000
# 4 0.0000 0.0000 0.0000 25.0240 0.0000 0.0000
# 5 0.0000 0.0000 0.0000 0.0000 3.7827 0.0000
# 6 0.0000 0.0000 0.0000 0.0000 0.0000 -7.2055
#
#
#
# Elastic Compliance Matrix: (Units=1/GPa)
#
#
# Indices 1 2 3 4 5 6 
#
# 1 0.014996 -0.000616 -0.003709 0.000000 0.000000 0.000000
# 2 -0.000616 0.011464 0.002090 0.000000 0.000000 0.000000
# 3 -0.003709 0.002090 0.026075 0.000000 0.000000 0.000000
# 4 0.000000 0.000000 0.000000 0.039962 0.000000 0.000000
# 5 0.000000 0.000000 0.000000 0.000000 0.264362 0.000000
# 6 0.000000 0.000000 0.000000 0.000000 0.000000 -0.138782
#
#
# Mechanical properties :
#
#
# Convention : Reuss Voigt Hill
#
# Bulk Modulus (GPa) = 20.80506 23.07000 21.93753
# Shear Modulus (GPa) = 20.95839 17.20056 19.07947
#
# Velocity S-wave (km/s) = 3.18753 2.88767 3.04130
# Velocity P-wave (km/s) = 4.86140 4.72252 4.79246
#
# Compressibility (1/GPa) = 0.04806523
#
# Stress axis : x y z
#
# Youngs Moduli (GPa) = 66.68306 87.23140 38.35082
#
# Poissons Ratio (x) = 0.05372 0.14226
# Poissons Ratio (y) = 0.04107 -0.08016
# Poissons Ratio (z) = 0.24735 -0.18233
#
# Static dielectric constant tensor:
#      x y z
#    x 1.729680 0.000000 0.000000 
#    y 0.000000 1.767810 0.000000 
#    z 0.000000 0.000000 1.697530 
# 
# From -- ./inp_files/62470.got.cif
#   From: 2010.05.17/outbox.cif.g08.bks.cpg/sg63_32_cif.got.tgz:62470.got - 2010.06.03 15:47:04.
