data_PCOD9472593
_publ_section_title
;
Structure prediction by ZEFSAII (Michael W. Deem and Ramdas Pophale) SiO2 
 PCOD9472593
Probable space group: C M C M
;
_chemical_formula_sum "Si O2"
_cell_formula_units_Z 104
_cell_length_a 21.122197
_cell_length_b 32.611591
_cell_length_c 8.658771
_cell_angle_alpha 90.000000
_cell_angle_beta 90.000000
_cell_angle_gamma 90.000000
_cell_volume 5964.407803
_symmetry_space_group_name_H-M "C M C M"
_symmetry_group_IT_number 63
_symmetry_cell_setting 'orthorhombic'
loop_
_space_group_symop_operation_xyz
x,y,z
-x,-y,1/2+z
x,-y,-z
-x,y,1/2-z
-x,-y,-z
x,y,1/2-z
-x,y,z
x,-y,1/2+z
1/2+x,1/2+y,z
1/2-x,1/2-y,1/2+z
1/2+x,1/2-y,-z
1/2-x,1/2+y,1/2-z
1/2-x,1/2-y,-z
1/2+x,1/2+y,1/2-z
1/2-x,1/2+y,z
1/2+x,1/2-y,1/2+z
loop_
_atom_site_type_symbol
_atom_site_label
_atom_site_fract_x
_atom_site_fract_y
_atom_site_fract_z
Si Si1 0.571439 0.819715 0.936019
Si Si2 0.806924 0.629078 0.062341
Si Si3 0.130177 0.925519 0.570740
Si Si4 0.678721 0.667281 0.069829
Si Si5 0.000000 0.045602 0.933300
Si Si6 0.071699 0.771507 0.563067
Si Si7 0.759236 0.456353 0.433403
O O1 0.574484 0.815217 0.750000
O O2 0.500000 0.833254 0.976250
O O3 0.626306 0.851157 0.981583
O O4 0.581531 0.775120 0.010062
O O5 0.802556 0.626888 0.250000
O O6 0.749190 0.658632 0.006469
O O7 0.795558 0.583455 0.999226
O O8 0.129299 0.061644 0.250000
O O9 0.146668 0.877435 0.565028
O O10 0.186469 0.949320 0.485573
O O11 0.062992 0.933042 0.494942
O O12 0.687557 0.678799 0.250000
O O13 0.628841 0.699852 0.003293
O O14 0.000000 0.044591 0.750000
O O15 0.000000 0.000000 0.000000
O O16 0.071907 0.773552 0.750000
O O17 0.000000 0.783912 0.513174
O O18 0.781160 0.500000 0.500000
O O19 0.763344 0.456820 0.250000
#
# Coordination Sequence:
#
# PCOD9472593 Si02
#       7
#    16  16  16  16   8  16  16
#     4   9  18  33  52  74 102 135 168 205 256 311
#     4   9  18  34  53  74 101 133 170 210 254 308
#     4  10  20  35  53  72  98 135 175 217 263 310
#     4   8  16  30  49  71  96 129 171 212 255 302
#     4  12  24  36  48  68  96 130 176 224 270 314
#     4   9  17  29  47  70  98 133 174 213 249 300
#     4  11  21  35  55  78 104 131 164 206 253 307
#
# _framework density 17.436769000000002
#
# number of rings (size 3 to 8) (size 9 to 14) (size 15 to 20)
#    0.000    2.462    0.000    3.923    1.077    1.231 
#    0.000    3.846    0.000    0.462    0.000    0.000 
#    0.000    0.000    0.000    0.000    0.000    0.000 
#
# Total GULP energy -289929.639430 kJ/mol
# GULP energy per Si atom -5575.569989 kJ/mol
# Density = 1.739708 g / cm^3
# Si number density = 17.436769 Si / 1000 Ang^3
#
#
#
# Elastic Constant Matrix: (Units=GPa)
#
#
# Indices 1 2 3 4 5 6 
#
# 1 141.3428 81.6756 36.9993 0.0000 0.0000 0.0000
# 2 81.6756 87.3779 25.4750 0.0000 0.0000 0.0000
# 3 36.9993 25.4750 50.5096 0.0000 0.0000 0.0000
# 4 0.0000 0.0000 0.0000 26.1860 0.0000 0.0000
# 5 0.0000 0.0000 0.0000 0.0000 17.1572 0.0000
# 6 0.0000 0.0000 0.0000 0.0000 0.0000 21.7012
#
#
#
# Elastic Compliance Matrix: (Units=1/GPa)
#
#
# Indices 1 2 3 4 5 6 
#
# 1 0.016404 -0.013870 -0.005021 0.000000 0.000000 0.000000
# 2 -0.013870 0.025144 -0.002522 0.000000 0.000000 0.000000
# 3 -0.005021 -0.002522 0.024748 0.000000 0.000000 0.000000
# 4 0.000000 0.000000 0.000000 0.038188 0.000000 0.000000
# 5 0.000000 0.000000 0.000000 0.000000 0.058284 0.000000
# 6 0.000000 0.000000 0.000000 0.000000 0.000000 0.046080
#
#
# Mechanical properties :
#
#
# Convention : Reuss Voigt Hill
#
# Bulk Modulus (GPa) = 42.60521 63.05890 52.83206
# Shear Modulus (GPa) = 19.26794 22.01424 20.64109
#
# Velocity S-wave (km/s) = 3.32779 3.55705 3.44433
# Velocity P-wave (km/s) = 6.26520 7.28786 6.79580
#
# Compressibility (1/GPa) = 0.02347131
#
# Stress axis : x y z
#
# Youngs Moduli (GPa) = 60.96107 39.77054 40.40697
#
# Poissons Ratio (x) = 0.55160 0.20288
# Poissons Ratio (y) = 0.84550 0.10191
# Poissons Ratio (z) = 0.30608 0.10030
#
# Static dielectric constant tensor:
#      x y z
#    x 1.610980 0.000000 0.000000 
#    y 0.000000 1.569730 0.000000 
#    z 0.000000 0.000000 1.589870 
# 
# From -- ./inp_files/9111.got.cif
#   From: 2010.05.17/outbox.cif.g08.bks.cpg/sg63_5_cif.got.tgz:9111.got - 2010.06.03 15:47:04.
