data_PCOD9472834
_publ_section_title
;
Structure prediction by ZEFSAII (Michael W. Deem and Ramdas Pophale) SiO2 
 PCOD9472834
Probable space group: C M C M
;
_chemical_formula_sum "Si O2"
_cell_formula_units_Z 104
_cell_length_a 21.156152
_cell_length_b 27.564858
_cell_length_c 9.124714
_cell_angle_alpha 90.000000
_cell_angle_beta 90.000000
_cell_angle_gamma 90.000000
_cell_volume 5321.225937
_symmetry_space_group_name_H-M "C M C M"
_symmetry_group_IT_number 63
_symmetry_cell_setting 'orthorhombic'
loop_
_space_group_symop_operation_xyz
x,y,z
-x,-y,1/2+z
x,-y,-z
-x,y,1/2-z
-x,-y,-z
x,y,1/2-z
-x,y,z
x,-y,1/2+z
1/2+x,1/2+y,z
1/2-x,1/2-y,1/2+z
1/2+x,1/2-y,-z
1/2-x,1/2+y,1/2-z
1/2-x,1/2-y,-z
1/2+x,1/2+y,1/2-z
1/2-x,1/2+y,z
1/2+x,1/2-y,1/2+z
loop_
_atom_site_type_symbol
_atom_site_label
_atom_site_fract_x
_atom_site_fract_y
_atom_site_fract_z
Si Si1 0.173888 0.547417 0.418721
Si Si2 0.397804 0.620050 0.921122
Si Si3 0.072362 0.607605 0.576683
Si Si4 0.000000 0.947112 0.573624
Si Si5 0.766428 0.859923 0.579317
Si Si6 0.836586 0.299559 0.422525
Si Si7 0.930093 0.231655 0.579066
O O1 0.198687 0.500000 0.500000
O O2 0.163321 0.535742 0.250000
O O3 0.109301 0.565679 0.492280
O O4 0.221956 0.592441 0.428094
O O5 0.395612 0.605217 0.750000
O O6 0.428216 0.673574 0.927187
O O7 0.439383 0.582684 0.014253
O O8 0.328614 0.627500 0.988360
O O9 0.073276 0.597092 0.750000
O O10 0.112421 0.656863 0.556305
O O11 0.000000 0.613366 0.529070
O O12 0.000000 0.949966 0.750000
O O13 0.000000 0.000000 0.500000
O O14 0.780551 0.849857 0.750000
O O15 0.726029 0.816257 0.508143
O O16 0.823455 0.294586 0.250000
O O17 0.872579 0.253346 0.487236
O O18 0.922808 0.245961 0.750000
O O19 0.000000 0.248138 0.528141
#
# Coordination Sequence:
#
# PCOD9472834 Si02
#       7
#    16  16  16   8  16  16  16
#     4  10  21  36  55  78 107 143 188 239 292 352
#     4  11  23  43  67  93 125 160 199 247 302 361
#     4   9  18  33  52  76 110 148 190 241 291 343
#     4  12  26  46  72 100 130 164 204 254 311 374
#     4  10  22  40  60  86 119 157 202 250 303 367
#     4  10  20  35  57  87 119 158 205 250 299 354
#     4  10  21  38  60  87 123 163 201 246 300 359
#
# _framework density 19.544367999999999
#
# number of rings (size 3 to 8) (size 9 to 14) (size 15 to 20)
#    0.000    1.846    0.769    3.000    0.000    6.462 
#    0.000    1.538    0.000    0.000    0.000    0.000 
#    0.000    0.000    0.000    0.000    0.000    0.000 
#
# Total GULP energy -290542.929618 kJ/mol
# GULP energy per Si atom -5587.364031 kJ/mol
# Density = 1.949988 g / cm^3
# Si number density = 19.544368 Si / 1000 Ang^3
#
#
#
# Elastic Constant Matrix: (Units=GPa)
#
#
# Indices 1 2 3 4 5 6 
#
# 1 118.5783 18.0063 62.0612 0.0000 0.0000 0.0000
# 2 18.0063 67.4917 51.2594 0.0000 0.0000 0.0000
# 3 62.0612 51.2594 121.1806 0.0000 0.0000 0.0000
# 4 0.0000 0.0000 0.0000 32.3785 0.0000 0.0000
# 5 0.0000 0.0000 0.0000 0.0000 30.2997 0.0000
# 6 0.0000 0.0000 0.0000 0.0000 0.0000 5.5793
#
#
#
# Elastic Compliance Matrix: (Units=1/GPa)
#
#
# Indices 1 2 3 4 5 6 
#
# 1 0.011722 0.002110 -0.006896 0.000000 0.000000 0.000000
# 2 0.002110 0.022210 -0.010475 0.000000 0.000000 0.000000
# 3 -0.006896 -0.010475 0.016215 0.000000 0.000000 0.000000
# 4 0.000000 0.000000 0.000000 0.030885 0.000000 0.000000
# 5 0.000000 0.000000 0.000000 0.000000 0.033004 0.000000
# 6 0.000000 0.000000 0.000000 0.000000 0.000000 0.179234
#
#
# Mechanical properties :
#
#
# Convention : Reuss Voigt Hill
#
# Bulk Modulus (GPa) = 50.95762 63.32272 57.14017
# Shear Modulus (GPa) = 15.13630 25.37975 20.25803
#
# Velocity S-wave (km/s) = 2.78593 3.60748 3.22299
# Velocity P-wave (km/s) = 6.03970 7.05845 6.56885
#
# Compressibility (1/GPa) = 0.01962415
#
# Stress axis : x y z
#
# Youngs Moduli (GPa) = 85.31021 45.02568 61.67234
#
# Poissons Ratio (x) = -0.09500 0.42528
# Poissons Ratio (y) = -0.18000 0.64603
# Poissons Ratio (z) = 0.58828 0.47165
#
# Static dielectric constant tensor:
#      x y z
#    x 1.677430 0.000000 0.000000 
#    y 0.000000 1.684190 0.000000 
#    z 0.000000 0.000000 1.660330 
# 
# From -- ./inp_files/8818.got.cif
#   From: 2010.05.17/outbox.cif.g08.bks.cpg/sg63_5_cif.got.tgz:8818.got - 2010.06.03 15:47:04.
