data_PCOD9472338
_publ_section_title
;
Structure prediction by ZEFSAII (Michael W. Deem and Ramdas Pophale) SiO2 
 PCOD9472338
Probable space group: C M C M
;
_chemical_formula_sum "Si O2"
_cell_formula_units_Z 96
_cell_length_a 12.357878
_cell_length_b 26.161449
_cell_length_c 16.657105
_cell_angle_alpha 90.000000
_cell_angle_beta 90.000000
_cell_angle_gamma 90.000000
_cell_volume 5385.241964
_symmetry_space_group_name_H-M "C M C M"
_symmetry_group_IT_number 63
_symmetry_cell_setting 'orthorhombic'
loop_
_space_group_symop_operation_xyz
x,y,z
-x,-y,1/2+z
x,-y,-z
-x,y,1/2-z
-x,-y,-z
x,y,1/2-z
-x,y,z
x,-y,1/2+z
1/2+x,1/2+y,z
1/2-x,1/2-y,1/2+z
1/2+x,1/2-y,-z
1/2-x,1/2+y,1/2-z
1/2-x,1/2-y,-z
1/2+x,1/2+y,1/2-z
1/2-x,1/2+y,z
1/2+x,1/2-y,1/2+z
loop_
_atom_site_type_symbol
_atom_site_label
_atom_site_fract_x
_atom_site_fract_y
_atom_site_fract_z
Si Si1 0.000000 0.454030 0.657061
Si Si2 0.876279 0.086421 0.153652
Si Si3 0.624360 0.217132 0.652213
Si Si4 0.500000 0.831521 0.843429
Si Si5 0.738264 0.185435 0.151243
Si Si6 0.625479 0.898092 0.346817
Si Si7 0.277525 0.000477 0.594209
O O1 0.108404 0.473903 0.616222
O O2 0.000000 0.471643 0.750000
O O3 0.000000 0.392944 0.656456
O O4 0.880427 0.090516 0.250000
O O5 0.803627 0.134631 0.125707
O O6 0.000000 0.088625 0.123648
O O7 0.816137 0.033664 0.133278
O O8 0.626308 0.216992 0.750000
O O9 0.500000 0.226707 0.628653
O O10 0.700269 0.263261 0.626172
O O11 0.653824 0.159542 0.626785
O O12 0.500000 0.814646 0.750000
O O13 0.614712 0.814666 0.878604
O O14 0.735466 0.183890 0.250000
O O15 0.625438 0.899119 0.250000
O O16 0.500000 0.908479 0.372121
O O17 0.706036 0.941515 0.376847
O O18 0.260963 0.000000 0.500000
#
# Coordination Sequence:
#
# PCOD9472338 Si02
#       7
#     8  16  16   8  16  16  16
#     4  11  19  33  53  77 105 133 167 211 259 307
#     4  10  20  34  54  77  99 131 172 214 260 306
#     4   8  14  25  44  71  98 126 164 210 251 287
#     4   9  16  25  45  75 103 129 154 195 263 311
#     4   9  15  26  46  75 103 124 158 211 260 302
#     4   9  17  30  50  73 100 137 174 210 250 295
#     4  12  23  33  50  77 107 138 170 214 262 312
#
# _framework density 17.826497
#
# number of rings (size 3 to 8) (size 9 to 14) (size 15 to 20)
#    0.000    2.333    2.500    3.250    0.000    2.333 
#    0.000    0.000    1.833    1.000    0.000    0.000 
#    0.000    0.000    0.000    0.000    0.000    0.000 
#
# Total GULP energy -267610.208407 kJ/mol
# GULP energy per Si atom -5575.212675 kJ/mol
# Density = 1.778592 g / cm^3
# Si number density = 17.826497 Si / 1000 Ang^3
#
#
#
# Elastic Constant Matrix: (Units=GPa)
#
#
# Indices 1 2 3 4 5 6 
#
# 1 146.7267 87.2714 6.3425 0.0000 0.0000 0.0000
# 2 87.2714 134.2091 7.4826 0.0000 0.0000 0.0000
# 3 6.3425 7.4826 5.1446 0.0000 0.0000 0.0000
# 4 0.0000 0.0000 0.0000 -9.2933 0.0000 0.0000
# 5 0.0000 0.0000 0.0000 0.0000 5.3589 0.0000
# 6 0.0000 0.0000 0.0000 0.0000 0.0000 25.5271
#
#
#
# Elastic Compliance Matrix: (Units=1/GPa)
#
#
# Indices 1 2 3 4 5 6 
#
# 1 0.011171 -0.007070 -0.003490 0.000000 0.000000 0.000000
# 2 -0.007070 0.012583 -0.009585 0.000000 0.000000 0.000000
# 3 -0.003490 -0.009585 0.212623 0.000000 0.000000 0.000000
# 4 0.000000 0.000000 0.000000 -0.107604 0.000000 0.000000
# 5 0.000000 0.000000 0.000000 0.000000 0.186605 0.000000
# 6 0.000000 0.000000 0.000000 0.000000 0.000000 0.039174
#
#
# Mechanical properties :
#
#
# Convention : Reuss Voigt Hill
#
# Bulk Modulus (GPa) = 5.09976 54.25260 29.67618
# Shear Modulus (GPa) = 10.86474 16.65078 13.75776
#
# Velocity S-wave (km/s) = 2.47143 3.05953 2.78107
# Velocity P-wave (km/s) = 3.31827 6.55597 5.19575
#
# Compressibility (1/GPa) = 0.19608758
#
# Stress axis : x y z
#
# Youngs Moduli (GPa) = 89.51584 79.47479 4.70316
#
# Poissons Ratio (x) = 0.56186 0.01641
# Poissons Ratio (y) = 0.63285 0.04508
# Poissons Ratio (z) = 0.31240 0.76177
#
# Static dielectric constant tensor:
#      x y z
#    x 1.599210 0.000000 0.000000 
#    y 0.000000 1.617290 0.000000 
#    z 0.000000 0.000000 1.596950 
# 
# From -- ./inp_files/42732.got.cif
#   From: 2010.05.17/outbox.cif.g08.bks.cpg/sg63_22_cif.got.tgz:42732.got - 2010.06.03 15:47:04.
