data_PCOD9472347
_publ_section_title
;
Structure prediction by ZEFSAII (Michael W. Deem and Ramdas Pophale) SiO2 
 PCOD9472347
Probable space group: C M C M
;
_chemical_formula_sum "Si O2"
_cell_formula_units_Z 56
_cell_length_a 10.945640
_cell_length_b 8.831950
_cell_length_c 30.022209
_cell_angle_alpha 90.000000
_cell_angle_beta 90.000000
_cell_angle_gamma 90.000000
_cell_volume 2902.287330
_symmetry_space_group_name_H-M "C M C M"
_symmetry_group_IT_number 63
_symmetry_cell_setting 'orthorhombic'
loop_
_space_group_symop_operation_xyz
x,y,z
-x,-y,1/2+z
x,-y,-z
-x,y,1/2-z
-x,-y,-z
x,y,1/2-z
-x,y,z
x,-y,1/2+z
1/2+x,1/2+y,z
1/2-x,1/2-y,1/2+z
1/2+x,1/2-y,-z
1/2-x,1/2+y,1/2-z
1/2-x,1/2-y,-z
1/2+x,1/2+y,1/2-z
1/2-x,1/2+y,z
1/2+x,1/2-y,1/2+z
loop_
_atom_site_type_symbol
_atom_site_label
_atom_site_fract_x
_atom_site_fract_y
_atom_site_fract_z
Si Si1 0.202120 0.500000 0.000000
Si Si2 0.640733 0.843189 0.156032
Si Si3 0.635868 0.719190 0.441620
Si Si4 0.137181 0.021711 0.302301
O O1 0.280638 0.591812 0.036457
O O2 0.135059 0.366567 0.026505
O O3 0.500000 0.904587 0.154342
O O4 0.671246 0.776107 0.107309
O O5 0.748585 0.952995 0.171291
O O6 0.639395 0.701340 0.189512
O O7 0.500000 0.655478 0.437944
O O8 0.149805 0.987608 0.250000
O O9 0.000000 0.969666 0.316739
#
# Coordination Sequence:
#
# PCOD9472347 Si02
#       4
#     8  16  16  16
#     4  10  20  34  54  78 106 140 176 216 264 316
#     4  10  21  37  57  81 110 143 180 223 269 319
#     4  10  20  35  54  78 107 139 177 219 264 314
#     4  10  21  37  56  80 109 140 178 223 269 320
#
# _framework density 19.295126
#
# number of rings (size 3 to 8) (size 9 to 14) (size 15 to 20)
#    0.000    2.000    0.000    3.429    0.000    2.857 
#    0.000    7.143    0.000    0.000    0.000    0.000 
#    0.000    0.000    0.000    0.000    0.000    0.000 
#
# Total GULP energy -156122.006527 kJ/mol
# GULP energy per Si atom -5575.785947 kJ/mol
# Density = 1.925121 g / cm^3
# Si number density = 19.295126 Si / 1000 Ang^3
#
#
#
# Elastic Constant Matrix: (Units=GPa)
#
#
# Indices 1 2 3 4 5 6 
#
# 1 72.0565 27.8805 15.3890 0.0000 0.0000 0.0000
# 2 27.8805 39.3309 -9.9249 0.0000 0.0000 0.0000
# 3 15.3890 -9.9249 54.2730 0.0000 0.0000 0.0000
# 4 0.0000 0.0000 0.0000 28.6002 0.0000 0.0000
# 5 0.0000 0.0000 0.0000 0.0000 85.3262 0.0000
# 6 0.0000 0.0000 0.0000 0.0000 0.0000 11.2108
#
#
#
# Elastic Compliance Matrix: (Units=1/GPa)
#
#
# Indices 1 2 3 4 5 6 
#
# 1 0.023486 -0.019215 -0.010173 0.000000 0.000000 0.000000
# 2 -0.019215 0.042377 0.013198 0.000000 0.000000 0.000000
# 3 -0.010173 0.013198 0.023723 0.000000 0.000000 0.000000
# 4 0.000000 0.000000 0.000000 0.034965 0.000000 0.000000
# 5 0.000000 0.000000 0.000000 0.000000 0.011720 0.000000
# 6 0.000000 0.000000 0.000000 0.000000 0.000000 0.089199
#
#
# Mechanical properties :
#
#
# Convention : Reuss Voigt Hill
#
# Bulk Modulus (GPa) = 17.48108 25.81663 21.64885
# Shear Modulus (GPa) = 18.05580 33.84852 25.95216
#
# Velocity S-wave (km/s) = 3.06235 4.19292 3.67142
# Velocity P-wave (km/s) = 4.64581 6.07040 5.40524
#
# Compressibility (1/GPa) = 0.05720471
#
# Stress axis : x y z
#
# Youngs Moduli (GPa) = 42.57934 23.59778 42.15236
#
# Poissons Ratio (x) = 0.45344 0.42882
# Poissons Ratio (y) = 0.81818 -0.55632
# Poissons Ratio (z) = 0.43317 -0.31144
#
# Static dielectric constant tensor:
#      x y z
#    x 1.676230 0.000000 0.000000 
#    y 0.000000 1.643860 0.000000 
#    z 0.000000 0.000000 1.688720 
# 
# From -- ./inp_files/67822.got.cif
#   From: 2010.05.17/outbox.cif.g08.bks.cpg/sg63_34_cif.got.tgz:67822.got - 2010.06.03 15:47:04.
