data_PCOD9472610
_publ_section_title
;
Structure prediction by ZEFSAII (Michael W. Deem and Ramdas Pophale) SiO2 
 PCOD9472610
Probable space group: C M C M
;
_chemical_formula_sum "Si O2"
_cell_formula_units_Z 80
_cell_length_a 7.666050
_cell_length_b 28.173661
_cell_length_c 19.016776
_cell_angle_alpha 90.000000
_cell_angle_beta 90.000000
_cell_angle_gamma 90.000000
_cell_volume 4107.256476
_symmetry_space_group_name_H-M "C M C M"
_symmetry_group_IT_number 63
_symmetry_cell_setting 'orthorhombic'
loop_
_space_group_symop_operation_xyz
x,y,z
-x,-y,1/2+z
x,-y,-z
-x,y,1/2-z
-x,-y,-z
x,y,1/2-z
-x,y,z
x,-y,1/2+z
1/2+x,1/2+y,z
1/2-x,1/2-y,1/2+z
1/2+x,1/2-y,-z
1/2-x,1/2+y,1/2-z
1/2-x,1/2-y,-z
1/2+x,1/2+y,1/2-z
1/2-x,1/2+y,z
1/2+x,1/2-y,1/2+z
loop_
_atom_site_type_symbol
_atom_site_label
_atom_site_fract_x
_atom_site_fract_y
_atom_site_fract_z
Si Si1 0.288796 0.060474 0.888869
Si Si2 0.706499 0.099098 0.037595
Si Si3 0.792550 0.839187 0.326539
Si Si4 0.713727 0.041685 0.170141
Si Si5 0.207548 0.802267 0.473809
O O1 0.500000 0.060014 0.890684
O O2 0.234035 0.105076 0.841736
O O3 0.232705 0.010393 0.857319
O O4 0.224729 0.071636 0.968220
O O5 0.500000 0.089614 0.038194
O O6 0.773922 0.079289 0.111431
O O7 0.730590 0.154857 0.023510
O O8 0.719490 0.826636 0.250000
O O9 0.720916 0.812525 0.395288
O O10 0.000000 0.830220 0.324399
O O11 0.772285 0.050141 0.250000
O O12 0.500000 0.042181 0.171765
O O13 0.250000 0.750000 0.500000
O O14 0.000000 0.806973 0.470534
#
# Coordination Sequence:
#
# PCOD9472610 Si02
#       5
#    16  16  16  16  16
#     4   9  16  27  46  71  97 125 158 194 229 267
#     4   9  17  30  48  69  94 125 159 194 232 274
#     4   9  18  32  49  71  97 121 148 187 235 282
#     4   9  16  26  43  69  99 130 163 194 223 263
#     4  10  20  35  54  72  91 118 153 193 236 282
#
# _framework density 19.477720999999999
#
# number of rings (size 3 to 8) (size 9 to 14) (size 15 to 20)
#    0.000    2.800    0.000    1.800    0.000    4.400 
#    0.000    2.000    0.000   12.600    0.000    0.000 
#    0.000    0.000    0.000    0.000    0.000    0.000 
#
# Total GULP energy -223084.487869 kJ/mol
# GULP energy per Si atom -5577.112197 kJ/mol
# Density = 1.943339 g / cm^3
# Si number density = 19.477721 Si / 1000 Ang^3
#
#
#
# Elastic Constant Matrix: (Units=GPa)
#
#
# Indices 1 2 3 4 5 6 
#
# 1 30.4574 -15.4859 0.3387 0.0000 0.0000 0.0000
# 2 -15.4859 96.4395 95.1658 0.0000 0.0000 0.0000
# 3 0.3387 95.1658 176.3525 0.0000 0.0000 0.0000
# 4 0.0000 0.0000 0.0000 13.7976 0.0000 0.0000
# 5 0.0000 0.0000 0.0000 0.0000 9.2730 0.0000
# 6 0.0000 0.0000 0.0000 0.0000 0.0000 17.1410
#
#
#
# Elastic Compliance Matrix: (Units=1/GPa)
#
#
# Indices 1 2 3 4 5 6 
#
# 1 0.039982 0.013895 -0.007575 0.000000 0.000000 0.000000
# 2 0.013895 0.027010 -0.014602 0.000000 0.000000 0.000000
# 3 -0.007575 -0.014602 0.013565 0.000000 0.000000 0.000000
# 4 0.000000 0.000000 0.000000 0.072476 0.000000 0.000000
# 5 0.000000 0.000000 0.000000 0.000000 0.107840 0.000000
# 6 0.000000 0.000000 0.000000 0.000000 0.000000 0.058340
#
#
# Mechanical properties :
#
#
# Convention : Reuss Voigt Hill
#
# Bulk Modulus (GPa) = 15.62680 51.47628 33.55154
# Shear Modulus (GPa) = 14.00141 22.92438 18.46289
#
# Velocity S-wave (km/s) = 2.68403 3.43440 3.08214
# Velocity P-wave (km/s) = 4.20068 6.49711 5.47075
#
# Compressibility (1/GPa) = 0.06399262
#
# Stress axis : x y z
#
# Youngs Moduli (GPa) = 25.01126 37.02385 73.72050
#
# Poissons Ratio (x) = -0.51446 0.55845
# Poissons Ratio (y) = -0.34754 1.07647
# Poissons Ratio (z) = 0.18946 0.54062
#
# Static dielectric constant tensor:
#      x y z
#    x 1.780890 0.000000 0.000000 
#    y 0.000000 1.571840 0.000000 
#    z 0.000000 0.000000 1.721400 
# 
# From -- ./inp_files/40417.got.cif
#   From: 2010.05.17/outbox.cif.g08.bks.cpg/sg63_21_cif.got.tgz:40417.got - 2010.06.03 15:47:04.
