data_PCOD9472847
_publ_section_title
;
Structure prediction by ZEFSAII (Michael W. Deem and Ramdas Pophale) SiO2 
 PCOD9472847
Probable space group: C M C M
;
_chemical_formula_sum "Si O2"
_cell_formula_units_Z 116
_cell_length_a 12.774838
_cell_length_b 26.274818
_cell_length_c 17.876800
_cell_angle_alpha 90.000000
_cell_angle_beta 90.000000
_cell_angle_gamma 90.000000
_cell_volume 6000.464896
_symmetry_space_group_name_H-M "C M C M"
_symmetry_group_IT_number 63
_symmetry_cell_setting 'orthorhombic'
loop_
_space_group_symop_operation_xyz
x,y,z
-x,-y,1/2+z
x,-y,-z
-x,y,1/2-z
-x,-y,-z
x,y,1/2-z
-x,y,z
x,-y,1/2+z
1/2+x,1/2+y,z
1/2-x,1/2-y,1/2+z
1/2+x,1/2-y,-z
1/2-x,1/2+y,1/2-z
1/2-x,1/2-y,-z
1/2+x,1/2+y,1/2-z
1/2-x,1/2+y,z
1/2+x,1/2-y,1/2+z
loop_
_atom_site_type_symbol
_atom_site_label
_atom_site_fract_x
_atom_site_fract_y
_atom_site_fract_z
Si Si1 0.164795 0.434548 0.372070
Si Si2 0.000000 0.399229 0.250000
Si Si3 0.382271 0.616717 0.839460
Si Si4 0.113924 0.616963 0.476595
Si Si5 0.327669 0.052009 0.336765
Si Si6 0.884213 0.894314 0.838360
Si Si7 0.213524 0.805440 0.566487
Si Si8 0.880917 0.773004 0.415898
O O1 0.286189 0.419116 0.362248
O O2 0.133023 0.422655 0.456878
O O3 0.147516 0.493409 0.351561
O O4 0.091924 0.402837 0.315595
O O5 0.378877 0.622602 0.750000
O O6 0.500000 0.598062 0.859452
O O7 0.369502 0.671890 0.877720
O O8 0.118695 0.588425 0.397016
O O9 0.204459 0.658681 0.477786
O O10 0.000000 0.640732 0.486519
O O11 0.352338 0.064030 0.250000
O O12 0.204288 0.063137 0.349624
O O13 0.886033 0.884109 0.750000
O O14 0.849506 0.843198 0.880334
O O15 0.000000 0.910076 0.862866
O O16 0.139651 0.779722 0.504835
O O17 0.288447 0.765180 0.608360
O O18 0.000000 0.755378 0.401361
#
# Coordination Sequence:
#
# PCOD9472847 Si02
#       8
#    16   4  16  16  16  16  16  16
#     4  12  22  39  57  87 118 156 201 239 297 347
#     4  12  24  36  64  80 122 168 192 242 298 344
#     4  10  21  38  60  84 114 153 195 245 291 348
#     4  11  23  36  57  84 117 152 196 242 288 351
#     4  10  22  37  56  83 115 153 195 240 288 350
#     4   9  19  37  59  81 111 148 187 232 286 336
#     4  10  20  36  57  83 111 147 184 236 282 350
#     4  10  20  35  58  82 109 145 186 232 291 342
#
# _framework density 19.331835000000002
#
# number of rings (size 3 to 8) (size 9 to 14) (size 15 to 20)
#    0.000    1.655    3.448    1.241    0.966    1.931 
#    0.000    1.379    1.517    4.966    0.000    0.000 
#    0.000    0.000    0.000    0.000    0.000    0.000 
#
# Total GULP energy -323131.006195 kJ/mol
# GULP energy per Si atom -5571.224245 kJ/mol
# Density = 1.928784 g / cm^3
# Si number density = 19.331835 Si / 1000 Ang^3
#
#
#
# Elastic Constant Matrix: (Units=GPa)
#
#
# Indices 1 2 3 4 5 6 
#
# 1 94.5785 -7.4209 14.2889 0.0000 0.0000 0.0000
# 2 -7.4209 21.5660 5.5851 0.0000 0.0000 0.0000
# 3 14.2889 5.5851 53.9528 0.0000 0.0000 0.0000
# 4 0.0000 0.0000 0.0000 11.8223 0.0000 0.0000
# 5 0.0000 0.0000 0.0000 0.0000 15.9507 0.0000
# 6 0.0000 0.0000 0.0000 0.0000 0.0000 0.8856
#
#
#
# Elastic Compliance Matrix: (Units=1/GPa)
#
#
# Indices 1 2 3 4 5 6 
#
# 1 0.011492 0.004873 -0.003548 0.000000 0.000000 0.000000
# 2 0.004873 0.049713 -0.006437 0.000000 0.000000 0.000000
# 3 -0.003548 -0.006437 0.020141 0.000000 0.000000 0.000000
# 4 0.000000 0.000000 0.000000 0.084586 0.000000 0.000000
# 5 0.000000 0.000000 0.000000 0.000000 0.062693 0.000000
# 6 0.000000 0.000000 0.000000 0.000000 0.000000 1.129162
#
#
# Mechanical properties :
#
#
# Convention : Reuss Voigt Hill
#
# Bulk Modulus (GPa) = 14.06029 21.66705 17.86367
# Shear Modulus (GPa) = 3.59268 16.24132 9.91700
#
# Velocity S-wave (km/s) = 1.36472 2.90165 2.26738
# Velocity P-wave (km/s) = 3.12605 4.73903 4.01439
#
# Compressibility (1/GPa) = 0.07112228
#
# Stress axis : x y z
#
# Youngs Moduli (GPa) = 87.02001 20.11535 49.65073
#
# Poissons Ratio (x) = -0.09802 0.17616
# Poissons Ratio (y) = -0.42406 0.31960
# Poissons Ratio (z) = 0.30874 0.12948
#
# Static dielectric constant tensor:
#      x y z
#    x 1.713930 0.000000 0.000000 
#    y 0.000000 1.656370 0.000000 
#    z 0.000000 0.000000 1.654420 
# 
# From -- ./inp_files/42855.got.cif
#   From: 2010.05.17/outbox.cif.g08.bks.cpg/sg63_22_cif.got.tgz:42855.got - 2010.06.03 15:47:04.
