data_PCOD9472990
_publ_section_title
;
Structure prediction by ZEFSAII (Michael W. Deem and Ramdas Pophale) SiO2 
 PCOD9472990
Probable space group: C M C M
;
_chemical_formula_sum "Si O2"
_cell_formula_units_Z 88
_cell_length_a 17.607418
_cell_length_b 31.303675
_cell_length_c 7.541488
_cell_angle_alpha 90.000000
_cell_angle_beta 90.000000
_cell_angle_gamma 90.000000
_cell_volume 4156.693907
_symmetry_space_group_name_H-M "C M C M"
_symmetry_group_IT_number 63
_symmetry_cell_setting 'orthorhombic'
loop_
_space_group_symop_operation_xyz
x,y,z
-x,-y,1/2+z
x,-y,-z
-x,y,1/2-z
-x,-y,-z
x,y,1/2-z
-x,y,z
x,-y,1/2+z
1/2+x,1/2+y,z
1/2-x,1/2-y,1/2+z
1/2+x,1/2-y,-z
1/2-x,1/2+y,1/2-z
1/2-x,1/2-y,-z
1/2+x,1/2+y,1/2-z
1/2-x,1/2+y,z
1/2+x,1/2-y,1/2+z
loop_
_atom_site_type_symbol
_atom_site_label
_atom_site_fract_x
_atom_site_fract_y
_atom_site_fract_z
Si Si1 0.414343 0.953041 0.461860
Si Si2 0.408994 0.708040 0.549402
Si Si3 0.306515 0.121964 0.967053
Si Si4 0.586889 0.803057 0.456847
Si Si5 0.366236 0.385586 0.032493
Si Si6 0.000000 0.050923 0.962756
O O1 0.418864 0.948284 0.250000
O O2 0.500000 0.950637 0.533688
O O3 0.361709 0.915631 0.527452
O O4 0.383560 0.000000 0.500000
O O5 0.378245 0.708746 0.750000
O O6 0.500000 0.708233 0.555512
O O7 0.388595 0.753595 0.467621
O O8 0.388409 0.662198 0.471124
O O9 0.303456 0.123097 0.750000
O O10 0.347666 0.165661 0.027729
O O11 0.221225 0.110723 0.022186
O O12 0.579594 0.814107 0.250000
O O13 0.500000 0.807612 0.531716
O O14 0.370307 0.385506 0.250000
O O15 0.425431 0.422344 0.974620
O O16 0.000000 0.054168 0.750000
O O17 0.000000 0.000000 0.000000
#
# Coordination Sequence:
#
# PCOD9472990 Si02
#       6
#    16  16  16  16  16   8
#     4   9  17  30  48  68  90 120 155 189 227 275
#     4   9  16  29  49  69  91 124 163 196 228 276
#     4   9  17  29  47  70  95 124 158 193 231 281
#     4   9  17  29  46  70  98 127 157 193 234 275
#     4   9  17  31  51  71  92 123 160 194 232 283
#     4  10  20  36  56  76  96 122 160 204 247 290
#
# _framework density 21.170672
#
# number of rings (size 3 to 8) (size 9 to 14) (size 15 to 20)
#    0.000    2.909    0.909    0.545    0.000    3.636 
#    0.000    1.818    0.000    6.545    0.000    0.000 
#    0.000    0.000    0.000    0.000    0.000    0.000 
#
# Total GULP energy -245166.777716 kJ/mol
# GULP energy per Si atom -5571.972221 kJ/mol
# Density = 2.112249 g / cm^3
# Si number density = 21.170672 Si / 1000 Ang^3
#
#
#
# Elastic Constant Matrix: (Units=GPa)
#
#
# Indices 1 2 3 4 5 6 
#
# 1 109.5052 108.5911 8.3960 0.0000 0.0000 0.0000
# 2 108.5911 195.0122 -0.4564 0.0000 0.0000 0.0000
# 3 8.3960 -0.4564 46.5647 0.0000 0.0000 0.0000
# 4 0.0000 0.0000 0.0000 21.4629 0.0000 0.0000
# 5 0.0000 0.0000 0.0000 0.0000 -6.3000 0.0000
# 6 0.0000 0.0000 0.0000 0.0000 0.0000 5.4009
#
#
#
# Elastic Compliance Matrix: (Units=1/GPa)
#
#
# Indices 1 2 3 4 5 6 
#
# 1 0.021084 -0.011749 -0.003917 0.000000 0.000000 0.000000
# 2 -0.011749 0.011676 0.002233 0.000000 0.000000 0.000000
# 3 -0.003917 0.002233 0.022204 0.000000 0.000000 0.000000
# 4 0.000000 0.000000 0.000000 0.046592 0.000000 0.000000
# 5 0.000000 0.000000 0.000000 0.000000 -0.158730 0.000000
# 6 0.000000 0.000000 0.000000 0.000000 0.000000 0.185153
#
#
# Mechanical properties :
#
#
# Convention : Reuss Voigt Hill
#
# Bulk Modulus (GPa) = 35.59158 64.90484 50.24821
# Shear Modulus (GPa) = 30.44881 19.74953 25.09917
#
# Velocity S-wave (km/s) = 3.79655 3.05761 3.44694
# Velocity P-wave (km/s) = 6.00555 6.57189 6.29509
#
# Compressibility (1/GPa) = 0.02809653
#
# Stress axis : x y z
#
# Youngs Moduli (GPa) = 47.43007 85.64791 45.03777
#
# Poissons Ratio (x) = 1.00632 0.17640
# Poissons Ratio (y) = 0.55728 -0.10057
# Poissons Ratio (z) = 0.18577 -0.19125
#
# Static dielectric constant tensor:
#      x y z
#    x 1.758250 0.000000 0.000000 
#    y 0.000000 1.752120 0.000000 
#    z 0.000000 0.000000 1.828920 
# 
# From -- ./inp_files/6798.got.cif
#   From: 2010.05.17/outbox.cif.g08.bks.cpg/sg63_4_cif.got.tgz:6798.got - 2010.06.03 15:47:04.
