data_PCOD9472030
_publ_section_title
;
Structure prediction by ZEFSAII (Michael W. Deem and Ramdas Pophale) SiO2 
 PCOD9472030
Probable space group: C M C M
;
_chemical_formula_sum "Si O2"
_cell_formula_units_Z 96
_cell_length_a 23.437587
_cell_length_b 26.536439
_cell_length_c 8.308767
_cell_angle_alpha 90.000000
_cell_angle_beta 90.000000
_cell_angle_gamma 90.000000
_cell_volume 5167.638448
_symmetry_space_group_name_H-M "C M C M"
_symmetry_group_IT_number 63
_symmetry_cell_setting 'orthorhombic'
loop_
_space_group_symop_operation_xyz
x,y,z
-x,-y,1/2+z
x,-y,-z
-x,y,1/2-z
-x,-y,-z
x,y,1/2-z
-x,y,z
x,-y,1/2+z
1/2+x,1/2+y,z
1/2-x,1/2-y,1/2+z
1/2+x,1/2-y,-z
1/2-x,1/2+y,1/2-z
1/2-x,1/2-y,-z
1/2+x,1/2+y,1/2-z
1/2-x,1/2+y,z
1/2+x,1/2-y,1/2+z
loop_
_atom_site_type_symbol
_atom_site_label
_atom_site_fract_x
_atom_site_fract_y
_atom_site_fract_z
Si Si1 0.688500 0.943190 0.556089
Si Si2 0.124930 0.153195 0.565970
Si Si3 0.067203 0.743874 0.056426
Si Si4 0.148495 0.655217 0.938159
Si Si5 0.178931 0.944047 0.558839
Si Si6 0.262508 0.695135 0.434977
O O1 0.686099 0.939874 0.750000
O O2 0.643822 0.904022 0.477494
O O3 0.755239 0.933144 0.503181
O O4 0.676724 0.000000 0.500000
O O5 0.106916 0.146816 0.750000
O O6 0.089156 0.200889 0.498023
O O7 0.132478 0.097921 0.490252
O O8 0.189539 0.172691 0.548711
O O9 0.077616 0.742586 0.250000
O O10 0.000000 0.739656 0.027382
O O11 0.100434 0.696296 0.981386
O O12 0.162379 0.661484 0.750000
O O13 0.202586 0.667952 0.049098
O O14 0.182113 0.943902 0.750000
O O15 0.164339 0.000000 0.500000
O O16 0.282498 0.694125 0.250000
O O17 0.250000 0.750000 0.500000
#
# Coordination Sequence:
#
# PCOD9472030 Si02
#       6
#    16  16  16  16  16  16
#     4  10  20  34  53  80 117 154 188 225 272 332
#     4  11  21  34  56  82 113 148 185 229 281 339
#     4  10  23  42  61  81 109 148 192 238 287 336
#     4  12  23  35  56  83 115 151 187 230 279 336
#     4  10  20  33  52  79 116 153 187 225 273 331
#     4  12  22  33  50  79 114 148 183 224 278 339
#
# _framework density 18.577152000000002
#
# number of rings (size 3 to 8) (size 9 to 14) (size 15 to 20)
#    0.000    1.167    3.333    4.500    0.000    2.333 
#    0.000    0.000    0.000    1.000    0.000    0.000 
#    0.000    0.000    0.000    0.000    0.000    0.000 
#
# Total GULP energy -267603.300111 kJ/mol
# GULP energy per Si atom -5575.068752 kJ/mol
# Density = 1.853487 g / cm^3
# Si number density = 18.577152 Si / 1000 Ang^3
#
#
#
# Elastic Constant Matrix: (Units=GPa)
#
#
# Indices 1 2 3 4 5 6 
#
# 1 46.1534 34.0377 4.2065 0.0000 0.0000 0.0000
# 2 34.0377 152.7650 21.1304 0.0000 0.0000 0.0000
# 3 4.2065 21.1304 53.3868 0.0000 0.0000 0.0000
# 4 0.0000 0.0000 0.0000 27.5787 0.0000 0.0000
# 5 0.0000 0.0000 0.0000 0.0000 14.1947 0.0000
# 6 0.0000 0.0000 0.0000 0.0000 0.0000 8.6068
#
#
#
# Elastic Compliance Matrix: (Units=1/GPa)
#
#
# Indices 1 2 3 4 5 6 
#
# 1 0.025931 -0.005813 0.000258 0.000000 0.000000 0.000000
# 2 -0.005813 0.008228 -0.002799 0.000000 0.000000 0.000000
# 3 0.000258 -0.002799 0.019819 0.000000 0.000000 0.000000
# 4 0.000000 0.000000 0.000000 0.036260 0.000000 0.000000
# 5 0.000000 0.000000 0.000000 0.000000 0.070449 0.000000
# 6 0.000000 0.000000 0.000000 0.000000 0.000000 0.116187
#
#
# Mechanical properties :
#
#
# Convention : Reuss Voigt Hill
#
# Bulk Modulus (GPa) = 26.83187 41.22827 34.03007
# Shear Modulus (GPa) = 16.33964 22.93810 19.63887
#
# Velocity S-wave (km/s) = 2.96895 3.51771 3.25491
# Velocity P-wave (km/s) = 5.12130 6.22416 5.69947
#
# Compressibility (1/GPa) = 0.03726912
#
# Stress axis : x y z
#
# Youngs Moduli (GPa) = 38.56444 121.53058 50.45751
#
# Poissons Ratio (x) = 0.70649 -0.01300
# Poissons Ratio (y) = 0.22419 0.14122
# Poissons Ratio (z) = -0.00994 0.34013
#
# Static dielectric constant tensor:
#      x y z
#    x 1.614380 0.000000 0.000000 
#    y 0.000000 1.679580 0.000000 
#    z 0.000000 0.000000 1.650320 
# 
# From -- ./inp_files/8554.got.cif
#   From: 2010.05.17/outbox.cif.g08.bks.cpg/sg63_5_cif.got.tgz:8554.got - 2010.06.03 15:47:04.
