data_PCOD9472422
_publ_section_title
;
Structure prediction by ZEFSAII (Michael W. Deem and Ramdas Pophale) SiO2 
 PCOD9472422
Probable space group: C M C M
;
_chemical_formula_sum "Si O2"
_cell_formula_units_Z 64
_cell_length_a 8.329724
_cell_length_b 15.085425
_cell_length_c 19.533605
_cell_angle_alpha 90.000000
_cell_angle_beta 90.000000
_cell_angle_gamma 90.000000
_cell_volume 2454.542538
_symmetry_space_group_name_H-M "C M C M"
_symmetry_group_IT_number 63
_symmetry_cell_setting 'orthorhombic'
loop_
_space_group_symop_operation_xyz
x,y,z
-x,-y,1/2+z
x,-y,-z
-x,y,1/2-z
-x,-y,-z
x,y,1/2-z
-x,y,z
x,-y,1/2+z
1/2+x,1/2+y,z
1/2-x,1/2-y,1/2+z
1/2+x,1/2-y,-z
1/2-x,1/2+y,1/2-z
1/2-x,1/2-y,-z
1/2+x,1/2+y,1/2-z
1/2-x,1/2+y,z
1/2+x,1/2-y,1/2+z
loop_
_atom_site_type_symbol
_atom_site_label
_atom_site_fract_x
_atom_site_fract_y
_atom_site_fract_z
Si Si1 0.177001 0.356110 0.946408
Si Si2 0.500000 0.563400 0.320811
Si Si3 0.807306 0.727392 0.669098
Si Si4 0.820007 0.474259 0.141834
Si Si5 0.000000 0.896768 0.520811
O O1 0.211330 0.298291 0.877442
O O2 0.175460 0.460152 0.923529
O O3 0.332514 0.348425 0.995075
O O4 0.000000 0.336335 0.974574
O O5 0.500000 0.616336 0.250000
O O6 0.335522 0.509368 0.319570
O O7 0.500000 0.601713 0.396746
O O8 0.759456 0.728005 0.750000
O O9 0.787339 0.629677 0.637443
O O10 0.000000 0.740147 0.665582
O O11 0.000000 0.483623 0.172035
O O12 0.000000 0.000000 0.500000
#
# Coordination Sequence:
#
# PCOD9472422 Si02
#       5
#    16   8  16  16   8
#     4  10  21  38  60  87 114 159 204 254 298 363
#     4  10  20  34  60  90 115 152 203 246 295 356
#     4  10  20  34  54  85 126 165 199 245 304 361
#     4   9  20  37  55  83 124 163 198 246 302 358
#     4  10  22  42  64  88 121 160 200 250 311 362
#
# _framework density 26.074107000000001
#
# number of rings (size 3 to 8) (size 9 to 14) (size 15 to 20)
#    0.000    2.250    1.250    0.750    1.750    7.500 
#    0.000    7.500    0.000    6.000    0.000    0.000 
#    0.000    0.000    0.000    0.000    0.000    0.000 
#
# Total GULP energy -178636.902477 kJ/mol
# GULP energy per Si atom -5582.403202 kJ/mol
# Density = 2.601476 g / cm^3
# Si number density = 26.074107 Si / 1000 Ang^3
#
#
#
# Elastic Constant Matrix: (Units=GPa)
#
#
# Indices 1 2 3 4 5 6 
#
# 1 221.7714 33.3045 31.8195 0.0000 0.0000 0.0000
# 2 33.3045 152.2413 35.3255 0.0000 0.0000 0.0000
# 3 31.8195 35.3255 116.6861 0.0000 0.0000 0.0000
# 4 0.0000 0.0000 0.0000 19.7835 0.0000 0.0000
# 5 0.0000 0.0000 0.0000 0.0000 68.5313 0.0000
# 6 0.0000 0.0000 0.0000 0.0000 0.0000 24.2094
#
#
#
# Elastic Compliance Matrix: (Units=1/GPa)
#
#
# Indices 1 2 3 4 5 6 
#
# 1 0.004782 -0.000800 -0.001062 0.000000 0.000000 0.000000
# 2 -0.000800 0.007199 -0.001961 0.000000 0.000000 0.000000
# 3 -0.001062 -0.001961 0.009453 0.000000 0.000000 0.000000
# 4 0.000000 0.000000 0.000000 0.050547 0.000000 0.000000
# 5 0.000000 0.000000 0.000000 0.000000 0.014592 0.000000
# 6 0.000000 0.000000 0.000000 0.000000 0.000000 0.041306
#
#
# Mechanical properties :
#
#
# Convention : Reuss Voigt Hill
#
# Bulk Modulus (GPa) = 72.52668 76.84419 74.68543
# Shear Modulus (GPa) = 35.68371 48.52147 42.10259
#
# Velocity S-wave (km/s) = 3.70340 4.31850 4.02273
# Velocity P-wave (km/s) = 6.79433 7.37573 7.09099
#
# Compressibility (1/GPa) = 0.01378803
#
# Stress axis : x y z
#
# Youngs Moduli (GPa) = 209.13574 138.91735 105.78325
#
# Poissons Ratio (x) = 0.11108 0.11232
# Poissons Ratio (y) = 0.16723 0.20746
# Poissons Ratio (z) = 0.22206 0.27245
#
# Static dielectric constant tensor:
#      x y z
#    x 2.118450 0.000000 0.000000 
#    y 0.000000 2.101330 0.000000 
#    z 0.000000 0.000000 2.053300 
# 
# From -- ./inp_files/50393.got.cif
#   From: 2010.05.17/outbox.cif.g08.bks.cpg/sg63_26_cif.got.tgz:50393.got - 2010.06.03 15:47:04.
