data_PCOD9472459
_publ_section_title
;
Structure prediction by ZEFSAII (Michael W. Deem and Ramdas Pophale) SiO2 
 PCOD9472459
Probable space group: C M C M
;
_chemical_formula_sum "Si O2"
_cell_formula_units_Z 116
_cell_length_a 7.757728
_cell_length_b 24.621464
_cell_length_c 31.637158
_cell_angle_alpha 90.000000
_cell_angle_beta 90.000000
_cell_angle_gamma 90.000000
_cell_volume 6042.906637
_symmetry_space_group_name_H-M "C M C M"
_symmetry_group_IT_number 63
_symmetry_cell_setting 'orthorhombic'
loop_
_space_group_symop_operation_xyz
x,y,z
-x,-y,1/2+z
x,-y,-z
-x,y,1/2-z
-x,-y,-z
x,y,1/2-z
-x,y,z
x,-y,1/2+z
1/2+x,1/2+y,z
1/2-x,1/2-y,1/2+z
1/2+x,1/2-y,-z
1/2-x,1/2+y,1/2-z
1/2-x,1/2-y,-z
1/2+x,1/2+y,1/2-z
1/2-x,1/2+y,z
1/2+x,1/2-y,1/2+z
loop_
_atom_site_type_symbol
_atom_site_label
_atom_site_fract_x
_atom_site_fract_y
_atom_site_fract_z
Si Si1 0.797577 0.845199 0.049491
Si Si2 0.707438 0.900349 0.812082
Si Si3 0.000000 0.939109 0.750000
Si Si4 0.799193 0.179853 0.458060
Si Si5 0.197192 0.740346 0.887310
Si Si6 0.295018 0.225555 0.204177
Si Si7 0.205041 0.574289 0.410143
Si Si8 0.292161 0.970226 0.456610
O O1 0.712873 0.817512 0.090065
O O2 0.777331 0.909838 0.047772
O O3 0.000000 0.832801 0.051775
O O4 0.724827 0.820242 0.005475
O O5 0.500000 0.908074 0.802793
O O6 0.754139 0.837621 0.801803
O O7 0.731362 0.909949 0.861787
O O8 0.844698 0.935386 0.786273
O O9 0.719356 0.217912 0.421480
O O10 0.789468 0.118648 0.440545
O O11 0.000000 0.195159 0.462714
O O12 0.258238 0.743168 0.839216
O O13 0.000000 0.757688 0.884150
O O14 0.224724 0.244593 0.250000
O O15 0.500000 0.225802 0.207301
O O16 0.259592 0.512991 0.420482
O O17 0.000000 0.577429 0.419048
O O18 0.500000 0.965160 0.457031
O O19 0.240509 0.000000 0.500000
#
# Coordination Sequence:
#
# PCOD9472459 Si02
#       8
#    16  16   4  16  16  16  16  16
#     4  11  23  38  54  79 113 154 195 241 287 335
#     4  10  21  35  53  85 121 151 191 235 293 358
#     4  12  22  32  60  82 114 164 182 244 294 362
#     4  10  21  34  53  80 115 151 192 230 280 343
#     4  11  23  36  55  81 113 150 192 237 282 350
#     4  10  20  35  55  81 114 148 182 232 290 349
#     4  10  20  34  55  83 115 151 184 233 287 337
#     4  10  20  36  58  82 109 147 193 236 279 332
#
# _framework density 19.196059000000002
#
# number of rings (size 3 to 8) (size 9 to 14) (size 15 to 20)
#    0.000    1.655    3.448    1.448    1.931    2.207 
#    0.000    0.000    0.000    0.000    1.793    0.000 
#    0.000    0.000    0.000    0.000    0.000    0.000 
#
# Total GULP energy -323036.399640 kJ/mol
# GULP energy per Si atom -5569.593097 kJ/mol
# Density = 1.915237 g / cm^3
# Si number density = 19.196059 Si / 1000 Ang^3
#
#
#
# Elastic Constant Matrix: (Units=GPa)
#
#
# Indices 1 2 3 4 5 6 
#
# 1 43.2092 -2.5950 20.0410 0.0000 0.0000 0.0000
# 2 -2.5950 71.4683 43.0469 0.0000 0.0000 0.0000
# 3 20.0410 43.0469 156.3689 0.0000 0.0000 0.0000
# 4 0.0000 0.0000 0.0000 26.1451 0.0000 0.0000
# 5 0.0000 0.0000 0.0000 0.0000 19.3623 0.0000
# 6 0.0000 0.0000 0.0000 0.0000 0.0000 17.5330
#
#
#
# Elastic Compliance Matrix: (Units=1/GPa)
#
#
# Indices 1 2 3 4 5 6 
#
# 1 0.025293 0.003442 -0.004189 0.000000 0.000000 0.000000
# 2 0.003442 0.017242 -0.005188 0.000000 0.000000 0.000000
# 3 -0.004189 -0.005188 0.008360 0.000000 0.000000 0.000000
# 4 0.000000 0.000000 0.000000 0.038248 0.000000 0.000000
# 5 0.000000 0.000000 0.000000 0.000000 0.051647 0.000000
# 6 0.000000 0.000000 0.000000 0.000000 0.000000 0.057035
#
#
# Mechanical properties :
#
#
# Convention : Reuss Voigt Hill
#
# Bulk Modulus (GPa) = 25.62493 43.55914 34.59203
# Shear Modulus (GPa) = 22.45136 26.64495 24.54816
#
# Velocity S-wave (km/s) = 3.42363 3.72969 3.57993
# Velocity P-wave (km/s) = 5.38575 6.42560 5.92852
#
# Compressibility (1/GPa) = 0.03902450
#
# Stress axis : x y z
#
# Youngs Moduli (GPa) = 39.53684 57.99874 119.61549
#
# Poissons Ratio (x) = -0.19961 0.50108
# Poissons Ratio (y) = -0.13607 0.62051
# Poissons Ratio (z) = 0.16562 0.30087
#
# Static dielectric constant tensor:
#      x y z
#    x 1.712700 0.000000 0.000000 
#    y 0.000000 1.661490 0.000000 
#    z 0.000000 0.000000 1.721540 
# 
# From -- ./inp_files/72098.got.cif
#   From: 2010.05.17/outbox.cif.g08.bks.cpg/sg63_37_cif.got.tgz:72098.got - 2010.06.03 15:47:04.
