data_PCOD9472395
_publ_section_title
;
Structure prediction by ZEFSAII (Michael W. Deem and Ramdas Pophale) SiO2 
 PCOD9472395
Probable space group: C M C M
;
_chemical_formula_sum "Si O2"
_cell_formula_units_Z 56
_cell_length_a 10.108697
_cell_length_b 23.348285
_cell_length_c 10.758300
_cell_angle_alpha 90.000000
_cell_angle_beta 90.000000
_cell_angle_gamma 90.000000
_cell_volume 2539.181911
_symmetry_space_group_name_H-M "C M C M"
_symmetry_group_IT_number 63
_symmetry_cell_setting 'orthorhombic'
loop_
_space_group_symop_operation_xyz
x,y,z
-x,-y,1/2+z
x,-y,-z
-x,y,1/2-z
-x,-y,-z
x,y,1/2-z
-x,y,z
x,-y,1/2+z
1/2+x,1/2+y,z
1/2-x,1/2-y,1/2+z
1/2+x,1/2-y,-z
1/2-x,1/2+y,1/2-z
1/2-x,1/2-y,-z
1/2+x,1/2+y,1/2-z
1/2-x,1/2+y,z
1/2+x,1/2-y,1/2+z
loop_
_atom_site_type_symbol
_atom_site_label
_atom_site_fract_x
_atom_site_fract_y
_atom_site_fract_z
Si Si1 0.649560 0.970627 0.250000
Si Si2 0.772976 0.000000 0.500000
Si Si3 0.356150 0.629320 0.023908
Si Si4 0.859225 0.873249 0.250000
Si Si5 0.659295 0.782567 0.604082
O O1 0.500000 0.954468 0.250000
O O2 0.687504 0.002421 0.375398
O O3 0.735124 0.913606 0.250000
O O4 0.848880 0.939339 0.502944
O O5 0.500000 0.643027 0.081617
O O6 0.358196 0.655935 0.883792
O O7 0.228857 0.654364 0.092548
O O8 0.000000 0.906383 0.250000
O O9 0.675256 0.765488 0.750000
O O10 0.500000 0.782808 0.576799
O O11 0.750000 0.750000 0.500000
#
# Coordination Sequence:
#
# PCOD9472395 Si02
#       5
#     8   8  16   8  16
#     4  10  20  34  54  81 120 169 220 268 320 380
#     4  10  22  38  60  96 134 180 220 270 330 400
#     4  10  21  40  67  99 136 179 225 276 335 403
#     4   8  18  36  58  87 126 169 214 262 318 388
#     4  11  27  49  73 103 137 176 227 289 349 412
#
# _framework density 22.054345999999999
#
# number of rings (size 3 to 8) (size 9 to 14) (size 15 to 20)
#    0.000    2.000    0.000    1.714    4.000    9.143 
#    0.000    0.000    0.000    0.000    0.000    0.000 
#    0.000    0.000    0.000    0.000    0.000    0.000 
#
# Total GULP energy -155883.772164 kJ/mol
# GULP energy per Si atom -5567.277577 kJ/mol
# Density = 2.200415 g / cm^3
# Si number density = 22.054346 Si / 1000 Ang^3
#
#
#
# Elastic Constant Matrix: (Units=GPa)
#
#
# Indices 1 2 3 4 5 6 
#
# 1 212.2087 54.9592 86.0168 0.0000 0.0000 0.0000
# 2 54.9592 95.6960 33.8380 0.0000 0.0000 0.0000
# 3 86.0168 33.8380 144.6811 0.0000 0.0000 0.0000
# 4 0.0000 0.0000 0.0000 4.1229 0.0000 0.0000
# 5 0.0000 0.0000 0.0000 0.0000 39.3322 0.0000
# 6 0.0000 0.0000 0.0000 0.0000 0.0000 26.6875
#
#
#
# Elastic Compliance Matrix: (Units=1/GPa)
#
#
# Indices 1 2 3 4 5 6 
#
# 1 0.006792 -0.002696 -0.003407 0.000000 0.000000 0.000000
# 2 -0.002696 0.012462 -0.001312 0.000000 0.000000 0.000000
# 3 -0.003407 -0.001312 0.009244 0.000000 0.000000 0.000000
# 4 0.000000 0.000000 0.000000 0.242549 0.000000 0.000000
# 5 0.000000 0.000000 0.000000 0.000000 0.025424 0.000000
# 6 0.000000 0.000000 0.000000 0.000000 0.000000 0.037471
#
#
# Mechanical properties :
#
#
# Convention : Reuss Voigt Hill
#
# Bulk Modulus (GPa) = 73.16407 89.13486 81.14947
# Shear Modulus (GPa) = 14.15115 32.54664 23.34890
#
# Velocity S-wave (km/s) = 2.53583 3.84571 3.25729
# Velocity P-wave (km/s) = 6.46687 7.76035 7.14295
#
# Compressibility (1/GPa) = 0.01366791
#
# Stress axis : x y z
#
# Youngs Moduli (GPa) = 147.24038 80.24528 108.17431
#
# Poissons Ratio (x) = 0.21631 0.36859
# Poissons Ratio (y) = 0.39691 0.14192
# Poissons Ratio (z) = 0.50170 0.10528
#
# Static dielectric constant tensor:
#      x y z
#    x 1.781520 0.000000 0.000000 
#    y 0.000000 1.964530 0.000000 
#    z 0.000000 0.000000 1.820870 
# 
# From -- ./inp_files/15971.got.cif
#   From: 2010.05.17/outbox.cif.g08.bks.cpg/sg63_8_cif.got.tgz:15971.got - 2010.06.03 15:47:04.
