data_PCOD9472095
_publ_section_title
;
Structure prediction by ZEFSAII (Michael W. Deem and Ramdas Pophale) SiO2 
 PCOD9472095
Probable space group: C M C M
;
_chemical_formula_sum "Si O2"
_cell_formula_units_Z 116
_cell_length_a 28.393625
_cell_length_b 28.972014
_cell_length_c 7.920259
_cell_angle_alpha 90.000000
_cell_angle_beta 90.000000
_cell_angle_gamma 90.000000
_cell_volume 6515.367427
_symmetry_space_group_name_H-M "C M C M"
_symmetry_group_IT_number 63
_symmetry_cell_setting 'orthorhombic'
loop_
_space_group_symop_operation_xyz
x,y,z
-x,-y,1/2+z
x,-y,-z
-x,y,1/2-z
-x,-y,-z
x,y,1/2-z
-x,y,z
x,-y,1/2+z
1/2+x,1/2+y,z
1/2-x,1/2-y,1/2+z
1/2+x,1/2-y,-z
1/2-x,1/2+y,1/2-z
1/2-x,1/2-y,-z
1/2+x,1/2+y,1/2-z
1/2-x,1/2+y,z
1/2+x,1/2-y,1/2+z
loop_
_atom_site_type_symbol
_atom_site_label
_atom_site_fract_x
_atom_site_fract_y
_atom_site_fract_z
Si Si1 0.736833 0.301971 0.545740
Si Si2 0.355065 0.353833 0.550350
Si Si3 0.947442 0.198604 0.548929
Si Si4 0.926329 0.694204 0.042603
Si Si5 0.798122 0.449037 0.049705
Si Si6 0.671581 0.146645 0.450461
Si Si7 0.809082 0.051445 0.950978
Si Si8 0.500000 0.832151 0.250000
O O1 0.735558 0.304871 0.750000
O O2 0.750000 0.250000 0.500000
O O3 0.686732 0.320768 0.480126
O O4 0.779439 0.333656 0.478379
O O5 0.353424 0.349516 0.750000
O O6 0.406379 0.336602 0.498107
O O7 0.341402 0.406289 0.507353
O O8 0.951096 0.196902 0.750000
O O9 0.932546 0.251139 0.508087
O O10 0.000000 0.189905 0.477489
O O11 0.935442 0.687304 0.250000
O O12 0.873764 0.676529 0.004510
O O13 0.959693 0.670251 0.903949
O O14 0.795014 0.447275 0.250000
O O15 0.744564 0.442840 0.979472
O O16 0.814397 0.500000 0.000000
O O17 0.830725 0.407224 0.992754
O O18 0.675268 0.150404 0.250000
O O19 0.806536 0.053207 0.750000
O O20 0.825178 0.000000 0.000000
#
# Coordination Sequence:
#
# PCOD9472095 Si02
#       8
#    16  16  16  16  16  16  16   4
#     4  10  21  35  49  73 111 153 183 219 270 333
#     4  11  22  34  54  82 110 144 188 231 279 339
#     4  10  21  39  58  77 110 147 190 240 288 336
#     4  10  22  38  58  86 116 153 195 243 295 338
#     4  10  20  33  54  81 112 148 187 230 278 339
#     4  10  20  36  55  78 117 151 184 229 281 339
#     4  10  20  35  55  79 109 148 187 231 279 336
#     4  12  22  36  64  82 118 148 198 252 282 346
#
# _framework density 17.804061000000001
#
# number of rings (size 3 to 8) (size 9 to 14) (size 15 to 20)
#    0.000    1.793    2.069    2.276    1.931    4.138 
#    0.000    0.000    0.000    0.414    0.000    0.483 
#    0.000    0.000    0.000    0.000    0.000    0.000 
#
# Total GULP energy -322877.252290 kJ/mol
# GULP energy per Si atom -5566.849177 kJ/mol
# Density = 1.776354 g / cm^3
# Si number density = 17.804061 Si / 1000 Ang^3
#
#
#
# Elastic Constant Matrix: (Units=GPa)
#
#
# Indices 1 2 3 4 5 6 
#
# 1 110.8183 61.2818 28.2592 0.0000 0.0000 0.0000
# 2 61.2818 92.6544 -3.9315 0.0000 0.0000 0.0000
# 3 28.2592 -3.9315 25.1279 0.0000 0.0000 0.0000
# 4 0.0000 0.0000 0.0000 24.8273 0.0000 0.0000
# 5 0.0000 0.0000 0.0000 0.0000 24.0616 0.0000
# 6 0.0000 0.0000 0.0000 0.0000 0.0000 8.7856
#
#
#
# Elastic Compliance Matrix: (Units=1/GPa)
#
#
# Indices 1 2 3 4 5 6 
#
# 1 0.031119 -0.022215 -0.038473 0.000000 0.000000 0.000000
# 2 -0.022215 0.026723 0.029164 0.000000 0.000000 0.000000
# 3 -0.038473 0.029164 0.087626 0.000000 0.000000 0.000000
# 4 0.000000 0.000000 0.000000 0.040278 0.000000 0.000000
# 5 0.000000 0.000000 0.000000 0.000000 0.041560 0.000000
# 6 0.000000 0.000000 0.000000 0.000000 0.000000 0.113823
#
#
# Mechanical properties :
#
#
# Convention : Reuss Voigt Hill
#
# Bulk Modulus (GPa) = 12.13269 44.42439 28.27854
# Shear Modulus (GPa) = 11.58345 21.06763 16.32554
#
# Velocity S-wave (km/s) = 2.55347 3.44365 3.03141
# Velocity P-wave (km/s) = 3.93992 6.38887 5.30757
#
# Compressibility (1/GPa) = 0.08242194
#
# Stress axis : x y z
#
# Youngs Moduli (GPa) = 32.13469 37.42086 11.41209
#
# Poissons Ratio (x) = 0.83129 0.43905
# Poissons Ratio (y) = 0.71386 -0.33282
# Poissons Ratio (z) = 1.23631 -1.09134
#
# Static dielectric constant tensor:
#      x y z
#    x 1.742000 0.000000 0.000000 
#    y 0.000000 1.523000 0.000000 
#    z 0.000000 0.000000 1.636010 
# 
# From -- ./inp_files/10920.got.cif
#   From: 2010.05.17/outbox.cif.g08.bks.cpg/sg63_6_cif.got.tgz:10920.got - 2010.06.03 15:47:04.
