data_PCOD9472835
_publ_section_title
;
Structure prediction by ZEFSAII (Michael W. Deem and Ramdas Pophale) SiO2 
 PCOD9472835
Probable space group: C M C M
;
_chemical_formula_sum "Si O2"
_cell_formula_units_Z 88
_cell_length_a 19.793885
_cell_length_b 25.044348
_cell_length_c 8.925636
_cell_angle_alpha 90.000000
_cell_angle_beta 90.000000
_cell_angle_gamma 90.000000
_cell_volume 4424.660408
_symmetry_space_group_name_H-M "C M C M"
_symmetry_group_IT_number 63
_symmetry_cell_setting 'orthorhombic'
loop_
_space_group_symop_operation_xyz
x,y,z
-x,-y,1/2+z
x,-y,-z
-x,y,1/2-z
-x,-y,-z
x,y,1/2-z
-x,y,z
x,-y,1/2+z
1/2+x,1/2+y,z
1/2-x,1/2-y,1/2+z
1/2+x,1/2-y,-z
1/2-x,1/2+y,1/2-z
1/2-x,1/2-y,-z
1/2+x,1/2+y,1/2-z
1/2-x,1/2+y,z
1/2+x,1/2-y,1/2+z
loop_
_atom_site_type_symbol
_atom_site_label
_atom_site_fract_x
_atom_site_fract_y
_atom_site_fract_z
Si Si1 0.269725 0.555521 0.424672
Si Si2 0.606875 0.054902 0.077227
Si Si3 0.175642 0.756765 0.930935
Si Si4 0.629589 0.366149 0.070755
Si Si5 0.500000 0.559961 0.930740
Si Si6 0.573559 0.165552 0.929113
O O1 0.291512 0.500000 0.500000
O O2 0.289802 0.557772 0.250000
O O3 0.188673 0.557935 0.431755
O O4 0.303920 0.602279 0.517832
O O5 0.587336 0.054154 0.250000
O O6 0.579803 0.107375 0.998536
O O7 0.585646 0.000000 0.000000
O O8 0.179954 0.759605 0.750000
O O9 0.132636 0.704940 0.976898
O O10 0.250000 0.750000 0.000000
O O11 0.136396 0.808873 0.991700
O O12 0.628271 0.359268 0.250000
O O13 0.565809 0.404047 0.028609
O O14 0.500000 0.553830 0.750000
O O15 0.500000 0.500000 0.000000
O O16 0.577696 0.160437 0.750000
O O17 0.500000 0.188659 0.967323
#
# Coordination Sequence:
#
# PCOD9472835 Si02
#       6
#    16  16  16  16   8  16
#     4  10  20  35  57  87 120 155 200 251 306 363
#     4  10  21  37  60  89 120 155 196 242 297 357
#     4  11  24  42  66  93 123 161 207 258 315 374
#     4  11  23  39  60  87 122 162 208 258 313 373
#     4  10  24  42  60  88 126 168 213 264 319 380
#     4  10  23  42  62  86 119 157 199 246 297 356
#
# _framework density 19.888534
#
# number of rings (size 3 to 8) (size 9 to 14) (size 15 to 20)
#    0.000    1.636    0.000    3.818    1.273   10.182 
#    0.000    0.000    0.000    0.000    0.000    0.000 
#    0.000    0.000    0.000    0.000    0.000    0.000 
#
# Total GULP energy -245905.474897 kJ/mol
# GULP energy per Si atom -5588.760793 kJ/mol
# Density = 1.984327 g / cm^3
# Si number density = 19.888534 Si / 1000 Ang^3
#
#
#
# Elastic Constant Matrix: (Units=GPa)
#
#
# Indices 1 2 3 4 5 6 
#
# 1 102.7938 68.4533 48.2685 0.0000 0.0000 0.0000
# 2 68.4533 149.7085 38.4921 0.0000 0.0000 0.0000
# 3 48.2685 38.4921 45.0787 0.0000 0.0000 0.0000
# 4 0.0000 0.0000 0.0000 41.6224 0.0000 0.0000
# 5 0.0000 0.0000 0.0000 0.0000 21.4332 0.0000
# 6 0.0000 0.0000 0.0000 0.0000 0.0000 18.8013
#
#
#
# Elastic Compliance Matrix: (Units=1/GPa)
#
#
# Indices 1 2 3 4 5 6 
#
# 1 0.022341 -0.005208 -0.019475 0.000000 0.000000 0.000000
# 2 -0.005208 0.009773 -0.002768 0.000000 0.000000 0.000000
# 3 -0.019475 -0.002768 0.045400 0.000000 0.000000 0.000000
# 4 0.000000 0.000000 0.000000 0.024026 0.000000 0.000000
# 5 0.000000 0.000000 0.000000 0.000000 0.046657 0.000000
# 6 0.000000 0.000000 0.000000 0.000000 0.000000 0.053188
#
#
# Mechanical properties :
#
#
# Convention : Reuss Voigt Hill
#
# Bulk Modulus (GPa) = 44.22498 67.55653 55.89076
# Shear Modulus (GPa) = 18.95199 25.86250 22.40725
#
# Velocity S-wave (km/s) = 3.09027 3.60998 3.36019
# Velocity P-wave (km/s) = 5.91758 7.17058 6.57400
#
# Compressibility (1/GPa) = 0.02261165
#
# Stress axis : x y z
#
# Youngs Moduli (GPa) = 44.76015 102.32523 22.02626
#
# Poissons Ratio (x) = 0.53292 0.42896
# Poissons Ratio (y) = 0.23312 0.06097
# Poissons Ratio (z) = 0.87171 0.28326
#
# Static dielectric constant tensor:
#      x y z
#    x 1.718200 0.000000 0.000000 
#    y 0.000000 1.634480 0.000000 
#    z 0.000000 0.000000 1.665070 
# 
# From -- ./inp_files/10185.got.cif
#   From: 2010.05.17/outbox.cif.g08.bks.cpg/sg63_6_cif.got.tgz:10185.got - 2010.06.03 15:47:04.
