data_PCOD9472690
_publ_section_title
;
Structure prediction by ZEFSAII (Michael W. Deem and Ramdas Pophale) SiO2 
 PCOD9472690
Probable space group: C M C M
;
_chemical_formula_sum "Si O2"
_cell_formula_units_Z 88
_cell_length_a 22.965794
_cell_length_b 25.162911
_cell_length_c 8.758854
_cell_angle_alpha 90.000000
_cell_angle_beta 90.000000
_cell_angle_gamma 90.000000
_cell_volume 5061.621121
_symmetry_space_group_name_H-M "C M C M"
_symmetry_group_IT_number 63
_symmetry_cell_setting 'orthorhombic'
loop_
_space_group_symop_operation_xyz
x,y,z
-x,-y,1/2+z
x,-y,-z
-x,y,1/2-z
-x,-y,-z
x,y,1/2-z
-x,y,z
x,-y,1/2+z
1/2+x,1/2+y,z
1/2-x,1/2-y,1/2+z
1/2+x,1/2-y,-z
1/2-x,1/2+y,1/2-z
1/2-x,1/2-y,-z
1/2+x,1/2+y,1/2-z
1/2-x,1/2+y,z
1/2+x,1/2-y,1/2+z
loop_
_atom_site_type_symbol
_atom_site_label
_atom_site_fract_x
_atom_site_fract_y
_atom_site_fract_z
Si Si1 0.431637 0.149830 0.432686
Si Si2 0.851185 0.442008 0.433474
Si Si3 0.282768 0.557388 0.933308
Si Si4 0.500000 0.559506 0.066738
Si Si5 0.069447 0.235852 0.431401
Si Si6 0.892263 0.873604 0.066505
O O1 0.426273 0.150658 0.250000
O O2 0.500000 0.141838 0.471045
O O3 0.393148 0.103026 0.501923
O O4 0.414056 0.207095 0.500015
O O5 0.866127 0.500000 0.500000
O O6 0.854591 0.443447 0.250000
O O7 0.783834 0.430801 0.478892
O O8 0.283585 0.553470 0.750000
O O9 0.330408 0.600801 0.978050
O O10 0.299011 0.500000 0.000000
O O11 0.500000 0.557944 0.250000
O O12 0.500000 0.500000 0.000000
O O13 0.443539 0.591302 0.007466
O O14 0.079027 0.235362 0.250000
O O15 0.101062 0.186464 0.509422
O O16 0.000000 0.228883 0.458544
O O17 0.898160 0.875552 0.250000
#
# Coordination Sequence:
#
# PCOD9472690 Si02
#       6
#    16  16  16   8  16  16
#     4  10  21  37  58  84 112 142 179 222 271 325
#     4  10  20  37  59  83 112 143 179 221 270 327
#     4   9  20  36  55  79 107 143 183 225 272 326
#     4  12  24  36  50  76 110 144 185 234 281 324
#     4  10  20  35  55  80 110 144 183 226 274 326
#     4  11  21  35  55  79 108 144 185 228 276 325
#
# _framework density 17.385735
#
# number of rings (size 3 to 8) (size 9 to 14) (size 15 to 20)
#    0.000    1.818    0.909    3.545    0.000    5.818 
#    0.000    0.909    0.000    0.000    0.000    0.000 
#    0.000    0.000    0.000    0.000    0.000    0.000 
#
# Total GULP energy -245753.863586 kJ/mol
# GULP energy per Si atom -5585.315081 kJ/mol
# Density = 1.734616 g / cm^3
# Si number density = 17.385735 Si / 1000 Ang^3
#
#
#
# Elastic Constant Matrix: (Units=GPa)
#
#
# Indices 1 2 3 4 5 6 
#
# 1 89.3311 106.4965 49.4477 0.0000 0.0000 0.0000
# 2 106.4965 192.9542 70.1732 0.0000 0.0000 0.0000
# 3 49.4477 70.1732 67.9343 0.0000 0.0000 0.0000
# 4 0.0000 0.0000 0.0000 38.0757 0.0000 0.0000
# 5 0.0000 0.0000 0.0000 0.0000 19.8870 0.0000
# 6 0.0000 0.0000 0.0000 0.0000 0.0000 22.6840
#
#
#
# Elastic Compliance Matrix: (Units=1/GPa)
#
#
# Indices 1 2 3 4 5 6 
#
# 1 0.035913 -0.016521 -0.009075 0.000000 0.000000 0.000000
# 2 -0.016521 0.015901 -0.004400 0.000000 0.000000 0.000000
# 3 -0.009075 -0.004400 0.025870 0.000000 0.000000 0.000000
# 4 0.000000 0.000000 0.000000 0.026263 0.000000 0.000000
# 5 0.000000 0.000000 0.000000 0.000000 0.050284 0.000000
# 6 0.000000 0.000000 0.000000 0.000000 0.000000 0.044084
#
#
# Mechanical properties :
#
#
# Convention : Reuss Voigt Hill
#
# Bulk Modulus (GPa) = 56.51897 89.16159 72.84028
# Shear Modulus (GPa) = 18.92466 24.40283 21.66374
#
# Velocity S-wave (km/s) = 3.30285 3.75055 3.53379
# Velocity P-wave (km/s) = 6.86473 8.37563 7.65753
#
# Compressibility (1/GPa) = 0.01769317
#
# Stress axis : x y z
#
# Youngs Moduli (GPa) = 27.84481 62.88823 38.65448
#
# Poissons Ratio (x) = 1.03899 0.35078
# Poissons Ratio (y) = 0.46003 0.17007
# Poissons Ratio (z) = 0.25268 0.27670
#
# Static dielectric constant tensor:
#      x y z
#    x 1.584340 0.000000 0.000000 
#    y 0.000000 1.555380 0.000000 
#    z 0.000000 0.000000 1.579780 
# 
# From -- ./inp_files/10230.got.cif
#   From: 2010.05.17/outbox.cif.g08.bks.cpg/sg63_6_cif.got.tgz:10230.got - 2010.06.03 15:47:04.
