data_PCOD9472327
_publ_section_title
;
Structure prediction by ZEFSAII (Michael W. Deem and Ramdas Pophale) SiO2 
 PCOD9472327
Probable space group: C M C M
;
_chemical_formula_sum "Si O2"
_cell_formula_units_Z 116
_cell_length_a 7.506001
_cell_length_b 29.614981
_cell_length_c 24.700208
_cell_angle_alpha 90.000000
_cell_angle_beta 90.000000
_cell_angle_gamma 90.000000
_cell_volume 5490.611138
_symmetry_space_group_name_H-M "C M C M"
_symmetry_group_IT_number 63
_symmetry_cell_setting 'orthorhombic'
loop_
_space_group_symop_operation_xyz
x,y,z
-x,-y,1/2+z
x,-y,-z
-x,y,1/2-z
-x,-y,-z
x,y,1/2-z
-x,y,z
x,-y,1/2+z
1/2+x,1/2+y,z
1/2-x,1/2-y,1/2+z
1/2+x,1/2-y,-z
1/2-x,1/2+y,1/2-z
1/2-x,1/2-y,-z
1/2+x,1/2+y,1/2-z
1/2-x,1/2+y,z
1/2+x,1/2-y,1/2+z
loop_
_atom_site_type_symbol
_atom_site_label
_atom_site_fract_x
_atom_site_fract_y
_atom_site_fract_z
Si Si1 0.209228 0.088828 0.390243
Si Si2 0.204275 0.927608 0.155127
Si Si3 0.500000 0.940054 0.250000
Si Si4 0.293315 0.239223 0.101705
Si Si5 0.295351 0.840140 0.100370
Si Si6 0.783818 0.664183 0.021477
Si Si7 0.283494 0.336503 0.811447
Si Si8 0.283198 0.503774 0.562217
O O1 0.229065 0.122344 0.441241
O O2 0.281480 0.117481 0.339945
O O3 0.000000 0.082147 0.379677
O O4 0.283056 0.040275 0.405409
O O5 0.342951 0.938451 0.202251
O O6 0.204967 0.874192 0.141682
O O7 0.258058 0.952719 0.098720
O O8 0.000000 0.941579 0.167947
O O9 0.500000 0.248418 0.091102
O O10 0.208134 0.287182 0.114018
O O11 0.220554 0.210302 0.050706
O O12 0.276419 0.205073 0.151769
O O13 0.500000 0.855058 0.098417
O O14 0.220203 0.842255 0.039420
O O15 0.000000 0.666196 0.021095
O O16 0.225177 0.332710 0.750000
O O17 0.500000 0.336679 0.812779
O O18 0.220666 0.500000 0.500000
O O19 0.500000 0.502008 0.559358
#
# Coordination Sequence:
#
# PCOD9472327 Si02
#       8
#    16  16   4  16  16  16  16  16
#     4   9  17  32  55  84 116 152 195 239 294 364
#     4  11  24  45  71  94 127 172 216 270 328 378
#     4  12  26  52  66  90 128 168 226 282 316 370
#     4  10  20  34  53  81 116 154 199 245 310 385
#     4  11  21  37  58  87 119 155 205 257 309 375
#     4   9  19  33  53  84 125 160 191 244 309 377
#     4   9  18  34  53  75 105 146 194 247 299 353
#     4   9  18  35  62  98 131 160 202 255 316 391
#
# _framework density 21.126974000000001
#
# number of rings (size 3 to 8) (size 9 to 14) (size 15 to 20)
#    0.000    2.207    0.690    2.276    0.000    3.034 
#    3.724    0.345    0.000    0.000    0.000    0.000 
#    0.000    0.000    0.000    0.000    0.000    0.000 
#
# Total GULP energy -323277.641141 kJ/mol
# GULP energy per Si atom -5573.752433 kJ/mol
# Density = 2.107889 g / cm^3
# Si number density = 21.126974 Si / 1000 Ang^3
#
#
#
# Elastic Constant Matrix: (Units=GPa)
#
#
# Indices 1 2 3 4 5 6 
#
# 1 92.7476 -1.8645 17.6273 0.0000 0.0000 0.0000
# 2 -1.8645 63.8152 -13.7033 0.0000 0.0000 0.0000
# 3 17.6273 -13.7033 82.4727 0.0000 0.0000 0.0000
# 4 0.0000 0.0000 0.0000 6.7849 0.0000 0.0000
# 5 0.0000 0.0000 0.0000 0.0000 19.2983 0.0000
# 6 0.0000 0.0000 0.0000 0.0000 0.0000 60.1714
#
#
#
# Elastic Compliance Matrix: (Units=1/GPa)
#
#
# Indices 1 2 3 4 5 6 
#
# 1 0.011241 -0.000194 -0.002435 0.000000 0.000000 0.000000
# 2 -0.000194 0.016253 0.002742 0.000000 0.000000 0.000000
# 3 -0.002435 0.002742 0.013101 0.000000 0.000000 0.000000
# 4 0.000000 0.000000 0.000000 0.147387 0.000000 0.000000
# 5 0.000000 0.000000 0.000000 0.000000 0.051818 0.000000
# 6 0.000000 0.000000 0.000000 0.000000 0.000000 0.016619
#
#
# Mechanical properties :
#
#
# Convention : Reuss Voigt Hill
#
# Bulk Modulus (GPa) = 24.49708 27.01717 25.75713
# Shear Modulus (GPa) = 18.53217 33.04931 25.79074
#
# Velocity S-wave (km/s) = 2.96494 3.95944 3.49771
# Velocity P-wave (km/s) = 4.83130 5.80677 5.34135
#
# Compressibility (1/GPa) = 0.04082119
#
# Stress axis : x y z
#
# Youngs Moduli (GPa) = 88.96162 61.52558 76.32858
#
# Poissons Ratio (x) = 0.01196 0.18585
# Poissons Ratio (y) = 0.01730 -0.20930
# Poissons Ratio (z) = 0.21661 -0.16871
#
# Static dielectric constant tensor:
#      x y z
#    x 1.810170 0.000000 0.000000 
#    y 0.000000 1.753630 0.000000 
#    z 0.000000 0.000000 1.735410 
# 
# From -- ./inp_files/60479.got.cif
#   From: 2010.05.17/outbox.cif.g08.bks.cpg/sg63_31_cif.got.tgz:60479.got - 2010.06.03 15:47:04.
