data_PCOD9472296
_publ_section_title
;
Structure prediction by ZEFSAII (Michael W. Deem and Ramdas Pophale) SiO2 
 PCOD9472296
Probable space group: C M C M
;
_chemical_formula_sum "Si O2"
_cell_formula_units_Z 104
_cell_length_a 21.930547
_cell_length_b 28.711515
_cell_length_c 7.666541
_cell_angle_alpha 90.000000
_cell_angle_beta 90.000000
_cell_angle_gamma 90.000000
_cell_volume 4827.308296
_symmetry_space_group_name_H-M "C M C M"
_symmetry_group_IT_number 63
_symmetry_cell_setting 'orthorhombic'
loop_
_space_group_symop_operation_xyz
x,y,z
-x,-y,1/2+z
x,-y,-z
-x,y,1/2-z
-x,-y,-z
x,y,1/2-z
-x,y,z
x,-y,1/2+z
1/2+x,1/2+y,z
1/2-x,1/2-y,1/2+z
1/2+x,1/2-y,-z
1/2-x,1/2+y,1/2-z
1/2-x,1/2-y,-z
1/2+x,1/2+y,1/2-z
1/2-x,1/2+y,z
1/2+x,1/2-y,1/2+z
loop_
_atom_site_type_symbol
_atom_site_label
_atom_site_fract_x
_atom_site_fract_y
_atom_site_fract_z
Si Si1 0.315729 0.692709 0.952843
Si Si2 0.123912 0.946164 0.958081
Si Si3 0.739503 0.945808 0.540751
Si Si4 0.065638 0.855209 0.453581
Si Si5 0.621331 0.108247 0.040188
Si Si6 0.318837 0.799268 0.458480
Si Si7 0.500000 0.944854 0.960117
O O1 0.312434 0.678702 0.750000
O O2 0.373688 0.667200 0.034568
O O3 0.247950 0.683882 0.026363
O O4 0.327691 0.747997 0.964778
O O5 0.122904 0.940854 0.750000
O O6 0.192536 0.934072 0.024146
O O7 0.076344 0.910349 0.036595
O O8 0.112706 0.000000 0.000000
O O9 0.741008 0.940487 0.750000
O O10 0.682846 0.916418 0.471398
O O11 0.728999 0.000000 0.500000
O O12 0.064245 0.841145 0.250000
O O13 0.000000 0.842702 0.530900
O O14 0.621094 0.103679 0.250000
O O15 0.560852 0.081822 0.975913
O O16 0.629999 0.162653 0.999036
O O17 0.314550 0.793747 0.250000
O O18 0.500000 0.941208 0.750000
O O19 0.500000 0.000000 0.000000
#
# Coordination Sequence:
#
# PCOD9472296 Si02
#       7
#    16  16  16  16  16  16   8
#     4   9  19  37  58  81 110 141 174 218 270 325
#     4  10  20  34  53  78 107 139 175 218 264 308
#     4   9  18  31  50  76 104 135 173 218 266 313
#     4  10  21  37  56  78 104 138 177 213 256 311
#     4  10  20  35  53  77 108 143 181 222 272 328
#     4  10  20  34  57  85 108 136 176 222 272 318
#     4  10  22  38  56  78 108 150 192 230 277 334
#
# _framework density 21.544096
#
# number of rings (size 3 to 8) (size 9 to 14) (size 15 to 20)
#    0.000    2.308    0.000    2.308    0.000    3.692 
#    1.385    0.000    0.000    0.000    0.000    0.000 
#    0.000    0.000    0.000    0.000    0.000    0.000 
#
# Total GULP energy -290331.673003 kJ/mol
# GULP energy per Si atom -5583.301404 kJ/mol
# Density = 2.149506 g / cm^3
# Si number density = 21.544096 Si / 1000 Ang^3
#
#
#
# Elastic Constant Matrix: (Units=GPa)
#
#
# Indices 1 2 3 4 5 6 
#
# 1 102.0734 62.2517 0.7329 0.0000 0.0000 0.0000
# 2 62.2517 80.0649 -13.0360 0.0000 0.0000 0.0000
# 3 0.7329 -13.0360 48.8655 0.0000 0.0000 0.0000
# 4 0.0000 0.0000 0.0000 24.0227 0.0000 0.0000
# 5 0.0000 0.0000 0.0000 0.0000 0.6515 0.0000
# 6 0.0000 0.0000 0.0000 0.0000 0.0000 -94.4436
#
#
#
# Elastic Compliance Matrix: (Units=1/GPa)
#
#
# Indices 1 2 3 4 5 6 
#
# 1 0.019552 -0.015943 -0.004546 0.000000 0.000000 0.000000
# 2 -0.015943 0.026056 0.007190 0.000000 0.000000 0.000000
# 3 -0.004546 0.007190 0.022451 0.000000 0.000000 0.000000
# 4 0.000000 0.000000 0.000000 0.041627 0.000000 0.000000
# 5 0.000000 0.000000 0.000000 0.000000 1.535006 0.000000
# 6 0.000000 0.000000 0.000000 0.000000 0.000000 -0.010588
#
#
# Mechanical properties :
#
#
# Convention : Reuss Voigt Hill
#
# Bulk Modulus (GPa) = 24.11850 36.76676 30.44263
# Shear Modulus (GPa) = 2.98593 -1.88354 0.55119
#
# Velocity S-wave (km/s) = 1.17855 -0.93604 0.50636
# Velocity P-wave (km/s) = 3.61541 3.99182 3.80827
#
# Compressibility (1/GPa) = 0.04146195
#
# Stress axis : x y z
#
# Youngs Moduli (GPa) = 51.14459 38.37871 44.54212
#
# Poissons Ratio (x) = 0.61185 0.20250
# Poissons Ratio (y) = 0.81537 -0.32027
# Poissons Ratio (z) = 0.23252 -0.27595
#
# Static dielectric constant tensor:
#      x y z
#    x 1.816840 0.000000 0.000000 
#    y 0.000000 1.758450 0.000000 
#    z 0.000000 0.000000 1.792150 
# 
# From -- ./inp_files/8720.got.cif
#   From: 2010.05.17/outbox.cif.g08.bks.cpg/sg63_5_cif.got.tgz:8720.got - 2010.06.03 15:47:04.
