data_PCOD9472290
_publ_section_title
;
Structure prediction by ZEFSAII (Michael W. Deem and Ramdas Pophale) SiO2 
 PCOD9472290
Probable space group: C M C M
;
_chemical_formula_sum "Si O2"
_cell_formula_units_Z 80
_cell_length_a 9.159190
_cell_length_b 27.131219
_cell_length_c 15.536947
_cell_angle_alpha 90.000000
_cell_angle_beta 90.000000
_cell_angle_gamma 90.000000
_cell_volume 3860.931170
_symmetry_space_group_name_H-M "C M C M"
_symmetry_group_IT_number 63
_symmetry_cell_setting 'orthorhombic'
loop_
_space_group_symop_operation_xyz
x,y,z
-x,-y,1/2+z
x,-y,-z
-x,y,1/2-z
-x,-y,-z
x,y,1/2-z
-x,y,z
x,-y,1/2+z
1/2+x,1/2+y,z
1/2-x,1/2-y,1/2+z
1/2+x,1/2-y,-z
1/2-x,1/2+y,1/2-z
1/2-x,1/2-y,-z
1/2+x,1/2+y,1/2-z
1/2-x,1/2+y,z
1/2+x,1/2-y,1/2+z
loop_
_atom_site_type_symbol
_atom_site_label
_atom_site_fract_x
_atom_site_fract_y
_atom_site_fract_z
Si Si1 0.831024 0.138847 0.354440
Si Si2 0.337901 0.170597 0.850247
Si Si3 0.822214 0.968636 0.850234
Si Si4 0.330641 0.575866 0.855981
Si Si5 0.673641 0.762824 0.589464
O O1 0.832268 0.136683 0.250000
O O2 0.781433 0.084756 0.386990
O O3 0.731115 0.183974 0.381767
O O4 0.000000 0.147496 0.381427
O O5 0.355032 0.158948 0.750000
O O6 0.500000 0.180175 0.886826
O O7 0.261153 0.122269 0.888519
O O8 0.236881 0.218459 0.853528
O O9 0.775756 0.968526 0.750000
O O10 0.000000 0.969140 0.850621
O O11 0.777754 0.021867 0.886537
O O12 0.328869 0.574715 0.750000
O O13 0.500000 0.582204 0.880684
O O14 0.500000 0.761388 0.586372
O O15 0.750000 0.750000 0.500000
#
# Coordination Sequence:
#
# PCOD9472290 Si02
#       5
#    16  16  16  16  16
#     4   9  17  32  55  81 108 137 169 206 249 299
#     4  10  20  34  53  78 107 137 169 207 252 300
#     4   7  11  22  44  74 105 135 165 198 239 290
#     4   8  13  24  45  74 105 135 168 203 239 285
#     4  12  25  39  54  72  98 133 173 216 262 308
#
# _framework density 20.720389999999998
#
# number of rings (size 3 to 8) (size 9 to 14) (size 15 to 20)
#    0.000    2.800    0.000    5.400    0.000    4.000 
#    0.000    1.000    0.000    4.800    0.000    8.400 
#    0.000    0.000    0.000    0.000    0.000    0.000 
#
# Total GULP energy -222945.865206 kJ/mol
# GULP energy per Si atom -5573.646630 kJ/mol
# Density = 2.067323 g / cm^3
# Si number density = 20.720390 Si / 1000 Ang^3
#
#
#
# Elastic Constant Matrix: (Units=GPa)
#
#
# Indices 1 2 3 4 5 6 
#
# 1 127.3947 86.9519 7.0794 0.0000 0.0000 0.0000
# 2 86.9519 192.7656 2.4867 0.0000 0.0000 0.0000
# 3 7.0794 2.4867 11.3349 0.0000 0.0000 0.0000
# 4 0.0000 0.0000 0.0000 -40.2677 0.0000 0.0000
# 5 0.0000 0.0000 0.0000 0.0000 14.3787 0.0000
# 6 0.0000 0.0000 0.0000 0.0000 0.0000 35.0152
#
#
#
# Elastic Compliance Matrix: (Units=1/GPa)
#
#
# Indices 1 2 3 4 5 6 
#
# 1 0.011760 -0.005225 -0.006199 0.000000 0.000000 0.000000
# 2 -0.005225 0.007524 0.001613 0.000000 0.000000 0.000000
# 3 -0.006199 0.001613 0.091741 0.000000 0.000000 0.000000
# 4 0.000000 0.000000 0.000000 -0.024834 0.000000 0.000000
# 5 0.000000 0.000000 0.000000 0.000000 0.069547 0.000000
# 6 0.000000 0.000000 0.000000 0.000000 0.000000 0.028559
#
#
# Mechanical properties :
#
#
# Convention : Reuss Voigt Hill
#
# Bulk Modulus (GPa) = 10.94053 58.28124 34.61089
# Shear Modulus (GPa) = 21.33221 17.49039 19.41130
#
# Velocity S-wave (km/s) = 3.21211 2.90852 3.06407
# Velocity P-wave (km/s) = 4.36444 6.28234 5.40908
#
# Compressibility (1/GPa) = 0.09140322
#
# Stress axis : x y z
#
# Youngs Moduli (GPa) = 85.03252 132.91482 10.90022
#
# Poissons Ratio (x) = 0.69445 0.06757
# Poissons Ratio (y) = 0.44428 -0.01758
# Poissons Ratio (z) = 0.52710 -0.21435
#
# Static dielectric constant tensor:
#      x y z
#    x 1.721190 0.000000 0.000000 
#    y 0.000000 1.813070 0.000000 
#    z 0.000000 0.000000 1.848810 
# 
# From -- ./inp_files/40493.got.cif
#   From: 2010.05.17/outbox.cif.g08.bks.cpg/sg63_21_cif.got.tgz:40493.got - 2010.06.03 15:47:04.
