data_PCOD9472077
_publ_section_title
;
Structure prediction by ZEFSAII (Michael W. Deem and Ramdas Pophale) SiO2 
 PCOD9472077
Probable space group: C M C M
;
_chemical_formula_sum "Si O2"
_cell_formula_units_Z 116
_cell_length_a 25.601188
_cell_length_b 29.324011
_cell_length_c 7.614478
_cell_angle_alpha 90.000000
_cell_angle_beta 90.000000
_cell_angle_gamma 90.000000
_cell_volume 5716.413403
_symmetry_space_group_name_H-M "C M C M"
_symmetry_group_IT_number 63
_symmetry_cell_setting 'orthorhombic'
loop_
_space_group_symop_operation_xyz
x,y,z
-x,-y,1/2+z
x,-y,-z
-x,y,1/2-z
-x,-y,-z
x,y,1/2-z
-x,y,z
x,-y,1/2+z
1/2+x,1/2+y,z
1/2-x,1/2-y,1/2+z
1/2+x,1/2-y,-z
1/2-x,1/2+y,1/2-z
1/2-x,1/2-y,-z
1/2+x,1/2+y,1/2-z
1/2-x,1/2+y,z
1/2+x,1/2-y,1/2+z
loop_
_atom_site_type_symbol
_atom_site_label
_atom_site_fract_x
_atom_site_fract_y
_atom_site_fract_z
Si Si1 0.557213 0.384360 0.958705
Si Si2 0.150208 0.947534 0.539156
Si Si3 0.780700 0.796383 0.039833
Si Si4 0.500000 0.844866 0.250000
Si Si5 0.421034 0.815169 0.547231
Si Si6 0.231517 0.552156 0.458977
Si Si7 0.601167 0.712581 0.538283
Si Si8 0.687791 0.143945 0.953895
O O1 0.555958 0.393150 0.750000
O O2 0.500000 0.396622 0.030678
O O3 0.606241 0.413127 0.030219
O O4 0.567606 0.330827 0.984130
O O5 0.152785 0.942430 0.750000
O O6 0.209209 0.939824 0.471378
O O7 0.136274 0.000000 0.500000
O O8 0.785540 0.801281 0.250000
O O9 0.839578 0.794437 0.970243
O O10 0.742621 0.836202 0.974220
O O11 0.750000 0.750000 0.000000
O O12 0.454874 0.842090 0.406025
O O13 0.439237 0.817357 0.750000
O O14 0.420337 0.762071 0.487084
O O15 0.361770 0.833671 0.544828
O O16 0.217852 0.500000 0.500000
O O17 0.232282 0.557410 0.250000
O O18 0.192336 0.589738 0.531990
O O19 0.602874 0.713487 0.750000
O O20 0.684074 0.157313 0.750000
#
# Coordination Sequence:
#
# PCOD9472077 Si02
#       8
#    16  16  16   4  16  16  16  16
#     4  10  22  36  53  75 104 147 202 256 308 362
#     4   9  19  36  55  79 109 148 193 247 309 371
#     4  10  20  33  53  80 116 156 194 242 297 364
#     4  12  26  44  64  86 122 164 210 256 306 354
#     4  11  24  41  63  90 121 161 209 257 304 360
#     4  10  20  35  58  87 121 155 191 240 304 371
#     4  10  22  37  53  80 115 153 203 251 304 361
#     4  11  21  36  59  90 125 161 201 245 304 369
#
# _framework density 20.292444
#
# number of rings (size 3 to 8) (size 9 to 14) (size 15 to 20)
#    0.000    1.793    2.069    1.862    1.931    2.759 
#    0.000    0.000    0.000    0.000    0.000    0.483 
#    0.000    0.000    0.000    0.000    0.000    0.000 
#
# Total GULP energy -323472.897630 kJ/mol
# GULP energy per Si atom -5577.118925 kJ/mol
# Density = 2.024626 g / cm^3
# Si number density = 20.292444 Si / 1000 Ang^3
#
#
#
# Elastic Constant Matrix: (Units=GPa)
#
#
# Indices 1 2 3 4 5 6 
#
# 1 27.0866 2.9917 5.5469 0.0000 0.0000 0.0000
# 2 2.9917 77.5258 -11.4258 0.0000 0.0000 0.0000
# 3 5.5469 -11.4258 70.7427 0.0000 0.0000 0.0000
# 4 0.0000 0.0000 0.0000 20.3158 0.0000 0.0000
# 5 0.0000 0.0000 0.0000 0.0000 61.9130 0.0000
# 6 0.0000 0.0000 0.0000 0.0000 0.0000 25.2261
#
#
#
# Elastic Compliance Matrix: (Units=1/GPa)
#
#
# Indices 1 2 3 4 5 6 
#
# 1 0.037804 -0.001942 -0.003278 0.000000 0.000000 0.000000
# 2 -0.001942 0.013313 0.002303 0.000000 0.000000 0.000000
# 3 -0.003278 0.002303 0.014765 0.000000 0.000000 0.000000
# 4 0.000000 0.000000 0.000000 0.049223 0.000000 0.000000
# 5 0.000000 0.000000 0.000000 0.000000 0.016152 0.000000
# 6 0.000000 0.000000 0.000000 0.000000 0.000000 0.039641
#
#
# Mechanical properties :
#
#
# Convention : Reuss Voigt Hill
#
# Bulk Modulus (GPa) = 16.65346 18.84230 17.74788
# Shear Modulus (GPa) = 25.41317 33.37382 29.39349
#
# Velocity S-wave (km/s) = 3.54269 4.05982 3.81004
# Velocity P-wave (km/s) = 4.99587 5.59301 5.30285
#
# Compressibility (1/GPa) = 0.06004759
#
# Stress axis : x y z
#
# Youngs Moduli (GPa) = 26.45201 75.11336 67.72944
#
# Poissons Ratio (x) = 0.14587 0.22201
# Poissons Ratio (y) = 0.05137 -0.15595
# Poissons Ratio (z) = 0.08671 -0.17295
#
# Static dielectric constant tensor:
#      x y z
#    x 1.750180 0.000000 0.000000 
#    y 0.000000 1.704240 0.000000 
#    z 0.000000 0.000000 1.729460 
# 
# From -- ./inp_files/10913.got.cif
#   From: 2010.05.17/outbox.cif.g08.bks.cpg/sg63_6_cif.got.tgz:10913.got - 2010.06.03 15:47:04.
