data_PCOD9472807
_publ_section_title
;
Structure prediction by ZEFSAII (Michael W. Deem and Ramdas Pophale) SiO2 
 PCOD9472807
Probable space group: C M C M
;
_chemical_formula_sum "Si O2"
_cell_formula_units_Z 64
_cell_length_a 9.096656
_cell_length_b 21.161437
_cell_length_c 17.903118
_cell_angle_alpha 90.000000
_cell_angle_beta 90.000000
_cell_angle_gamma 90.000000
_cell_volume 3446.320010
_symmetry_space_group_name_H-M "C M C M"
_symmetry_group_IT_number 63
_symmetry_cell_setting 'orthorhombic'
loop_
_space_group_symop_operation_xyz
x,y,z
-x,-y,1/2+z
x,-y,-z
-x,y,1/2-z
-x,-y,-z
x,y,1/2-z
-x,y,z
x,-y,1/2+z
1/2+x,1/2+y,z
1/2-x,1/2-y,1/2+z
1/2+x,1/2-y,-z
1/2-x,1/2+y,1/2-z
1/2-x,1/2-y,-z
1/2+x,1/2+y,1/2-z
1/2-x,1/2+y,z
1/2+x,1/2-y,1/2+z
loop_
_atom_site_type_symbol
_atom_site_label
_atom_site_fract_x
_atom_site_fract_y
_atom_site_fract_z
Si Si1 0.175034 0.742573 0.080219
Si Si2 0.668645 0.857193 0.159786
Si Si3 0.324449 0.625779 0.339217
Si Si4 0.830928 0.016874 0.840885
O O1 0.229558 0.801874 0.129070
O O2 0.234312 0.678751 0.118275
O O3 0.000000 0.741868 0.074261
O O4 0.250000 0.750000 0.000000
O O5 0.672140 0.855932 0.250000
O O6 0.500000 0.847374 0.136007
O O7 0.728606 0.925619 0.134902
O O8 0.299558 0.631180 0.250000
O O9 0.500000 0.634363 0.351229
O O10 0.286782 0.554051 0.363270
O O11 0.830864 0.016394 0.750000
O O12 0.000000 0.027958 0.864258
#
# Coordination Sequence:
#
# PCOD9472807 Si02
#       4
#    16  16  16  16
#     4  12  25  39  55  76 107 145 185 228 271 320
#     4  10  20  35  57  84 113 143 177 220 267 316
#     4   9  18  35  59  85 113 143 176 218 268 321
#     4   8  15  30  54  83 112 141 174 214 262 316
#
# _framework density 18.570533999999999
#
# number of rings (size 3 to 8) (size 9 to 14) (size 15 to 20)
#    0.000    2.250    0.000    5.250    0.000    6.000 
#    0.000    3.750    0.000    7.500    0.000    0.000 
#    0.000    0.000    0.000    0.000    0.000    0.000 
#
# Total GULP energy -178637.632045 kJ/mol
# GULP energy per Si atom -5582.426001 kJ/mol
# Density = 1.852827 g / cm^3
# Si number density = 18.570534 Si / 1000 Ang^3
#
#
#
# Elastic Constant Matrix: (Units=GPa)
#
#
# Indices 1 2 3 4 5 6 
#
# 1 100.2813 66.9982 29.5102 0.0000 0.0000 0.0000
# 2 66.9982 128.0822 24.0168 0.0000 0.0000 0.0000
# 3 29.5102 24.0168 20.7982 0.0000 0.0000 0.0000
# 4 0.0000 0.0000 0.0000 -17.8292 0.0000 0.0000
# 5 0.0000 0.0000 0.0000 0.0000 25.1797 0.0000
# 6 0.0000 0.0000 0.0000 0.0000 0.0000 40.5100
#
#
#
# Elastic Compliance Matrix: (Units=1/GPa)
#
#
# Indices 1 2 3 4 5 6 
#
# 1 0.021004 -0.006891 -0.021845 0.000000 0.000000 0.000000
# 2 -0.006891 0.012226 -0.004341 0.000000 0.000000 0.000000
# 3 -0.021845 -0.004341 0.084089 0.000000 0.000000 0.000000
# 4 0.000000 0.000000 0.000000 -0.056088 0.000000 0.000000
# 5 0.000000 0.000000 0.000000 0.000000 0.039714 0.000000
# 6 0.000000 0.000000 0.000000 0.000000 0.000000 0.024685
#
#
# Mechanical properties :
#
#
# Convention : Reuss Voigt Hill
#
# Bulk Modulus (GPa) = 19.54426 54.46800 37.00613
# Shear Modulus (GPa) = 23.94173 18.14787 21.04480
#
# Velocity S-wave (km/s) = 3.59448 3.12948 3.37001
# Velocity P-wave (km/s) = 5.27013 6.51553 5.92564
#
# Compressibility (1/GPa) = 0.05116591
#
# Stress axis : x y z
#
# Youngs Moduli (GPa) = 47.60937 81.79350 11.89212
#
# Poissons Ratio (x) = 0.56363 0.25979
# Poissons Ratio (y) = 0.32807 0.05162
# Poissons Ratio (z) = 1.04004 0.35503
#
# Static dielectric constant tensor:
#      x y z
#    x 1.619950 0.000000 0.000000 
#    y 0.000000 1.635970 0.000000 
#    z 0.000000 0.000000 1.634320 
# 
# From -- ./inp_files/39825.got.cif
#   From: 2010.05.17/outbox.cif.g08.bks.cpg/sg63_20_cif.got.tgz:39825.got - 2010.06.03 15:47:04.
