data_PCOD9472670
_publ_section_title
;
Structure prediction by ZEFSAII (Michael W. Deem and Ramdas Pophale) SiO2 
 PCOD9472670
Probable space group: C M C M
;
_chemical_formula_sum "Si O2"
_cell_formula_units_Z 116
_cell_length_a 27.005471
_cell_length_b 8.455084
_cell_length_c 23.275097
_cell_angle_alpha 90.000000
_cell_angle_beta 90.000000
_cell_angle_gamma 90.000000
_cell_volume 5314.484961
_symmetry_space_group_name_H-M "C M C M"
_symmetry_group_IT_number 63
_symmetry_cell_setting 'orthorhombic'
loop_
_space_group_symop_operation_xyz
x,y,z
-x,-y,1/2+z
x,-y,-z
-x,y,1/2-z
-x,-y,-z
x,y,1/2-z
-x,y,z
x,-y,1/2+z
1/2+x,1/2+y,z
1/2-x,1/2-y,1/2+z
1/2+x,1/2-y,-z
1/2-x,1/2+y,1/2-z
1/2-x,1/2-y,-z
1/2+x,1/2+y,1/2-z
1/2-x,1/2+y,z
1/2+x,1/2-y,1/2+z
loop_
_atom_site_type_symbol
_atom_site_label
_atom_site_fract_x
_atom_site_fract_y
_atom_site_fract_z
Si Si1 0.943461 0.858491 0.577381
Si Si2 0.500000 0.735311 0.250000
Si Si3 0.443759 0.783385 0.842966
Si Si4 0.287468 0.295096 0.319620
Si Si5 0.560124 0.167199 0.475455
Si Si6 0.073831 0.632631 0.837764
Si Si7 0.185528 0.442025 0.180642
Si Si8 0.378628 0.498910 0.316731
O O1 0.925686 0.822215 0.513021
O O2 0.945847 0.675752 0.599812
O O3 0.906531 0.929946 0.625838
O O4 0.000000 0.924396 0.578118
O O5 0.456767 0.747012 0.298774
O O6 0.500000 0.725405 0.840303
O O7 0.426985 0.803404 0.909013
O O8 0.441847 0.959250 0.817980
O O9 0.409106 0.663589 0.810778
O O10 0.286554 0.286871 0.250000
O O11 0.232018 0.337194 0.338686
O O12 0.307374 0.123865 0.339434
O O13 0.323702 0.441205 0.333422
O O14 0.500000 0.162374 0.477118
O O15 0.579774 0.000000 0.500000
O O16 0.132905 0.632055 0.835877
O O17 0.185842 0.445723 0.250000
O O18 0.375326 0.565182 0.250000
#
# Coordination Sequence:
#
# PCOD9472670 Si02
#       8
#    16   4  16  16  16  16  16  16
#     4  11  23  38  55  84 119 159 198 240 295 348
#     4  12  24  32  52  88 132 156 200 222 276 376
#     4  11  21  36  58  84 113 158 196 238 292 344
#     4   9  20  37  54  78 109 149 197 243 284 337
#     4   9  18  36  59  81 109 146 205 260 284 328
#     4  12  22  34  56  85 116 161 194 236 285 351
#     4  10  20  35  55  78 111 150 198 242 285 341
#     4  11  25  38  54  83 127 157 189 236 297 361
#
# _framework density 21.827138999999999
#
# number of rings (size 3 to 8) (size 9 to 14) (size 15 to 20)
#    0.000    1.517    4.828    0.414    3.862    1.655 
#    0.000    2.069    0.000    0.000    0.000    5.793 
#    0.000    0.000    0.000    0.000    0.000    0.000 
#
# Total GULP energy -322905.897893 kJ/mol
# GULP energy per Si atom -5567.343067 kJ/mol
# Density = 2.177746 g / cm^3
# Si number density = 21.827139 Si / 1000 Ang^3
#
#
#
# Elastic Constant Matrix: (Units=GPa)
#
#
# Indices 1 2 3 4 5 6 
#
# 1 149.7870 13.7740 11.6627 0.0000 0.0000 0.0000
# 2 13.7740 48.1790 0.4267 0.0000 0.0000 0.0000
# 3 11.6627 0.4267 66.4563 0.0000 0.0000 0.0000
# 4 0.0000 0.0000 0.0000 25.2340 0.0000 0.0000
# 5 0.0000 0.0000 0.0000 0.0000 7.0549 0.0000
# 6 0.0000 0.0000 0.0000 0.0000 0.0000 24.8794
#
#
#
# Elastic Compliance Matrix: (Units=1/GPa)
#
#
# Indices 1 2 3 4 5 6 
#
# 1 0.006952 -0.001977 -0.001207 0.000000 0.000000 0.000000
# 2 -0.001977 0.021319 0.000210 0.000000 0.000000 0.000000
# 3 -0.001207 0.000210 0.015258 0.000000 0.000000 0.000000
# 4 0.000000 0.000000 0.000000 0.039629 0.000000 0.000000
# 5 0.000000 0.000000 0.000000 0.000000 0.141745 0.000000
# 6 0.000000 0.000000 0.000000 0.000000 0.000000 0.040194
#
#
# Mechanical properties :
#
#
# Convention : Reuss Voigt Hill
#
# Bulk Modulus (GPa) = 26.60924 35.12769 30.86847
# Shear Modulus (GPa) = 17.63219 27.33758 22.48489
#
# Velocity S-wave (km/s) = 2.84528 3.54285 3.21305
# Velocity P-wave (km/s) = 4.79704 5.73273 5.28563
#
# Compressibility (1/GPa) = 0.03758093
#
# Stress axis : x y z
#
# Youngs Moduli (GPa) = 143.84490 46.90602 65.53938
#
# Poissons Ratio (x) = 0.09272 0.07913
# Poissons Ratio (y) = 0.28435 -0.01376
# Poissons Ratio (z) = 0.17367 -0.00985
#
# Static dielectric constant tensor:
#      x y z
#    x 1.790000 0.000000 0.000000 
#    y 0.000000 1.976900 0.000000 
#    z 0.000000 0.000000 1.875510 
# 
# From -- ./inp_files/65509.got.cif
#   From: 2010.05.17/outbox.cif.g08.bks.cpg/sg63_33_cif.got.tgz:65509.got - 2010.06.03 15:47:04.
