data_PCOD9472476
_publ_section_title
;
Structure prediction by ZEFSAII (Michael W. Deem and Ramdas Pophale) SiO2 
 PCOD9472476
Probable space group: C M C M
;
_chemical_formula_sum "Si O2"
_cell_formula_units_Z 112
_cell_length_a 23.930748
_cell_length_b 13.816576
_cell_length_c 17.397709
_cell_angle_alpha 90.000000
_cell_angle_beta 90.000000
_cell_angle_gamma 90.000000
_cell_volume 5752.395875
_symmetry_space_group_name_H-M "C M C M"
_symmetry_group_IT_number 63
_symmetry_cell_setting 'orthorhombic'
loop_
_space_group_symop_operation_xyz
x,y,z
-x,-y,1/2+z
x,-y,-z
-x,y,1/2-z
-x,-y,-z
x,y,1/2-z
-x,y,z
x,-y,1/2+z
1/2+x,1/2+y,z
1/2-x,1/2-y,1/2+z
1/2+x,1/2-y,-z
1/2-x,1/2+y,1/2-z
1/2-x,1/2-y,-z
1/2+x,1/2+y,1/2-z
1/2-x,1/2+y,z
1/2+x,1/2-y,1/2+z
loop_
_atom_site_type_symbol
_atom_site_label
_atom_site_fract_x
_atom_site_fract_y
_atom_site_fract_z
Si Si1 0.565305 0.488761 0.588629
Si Si2 0.369158 0.867388 0.576950
Si Si3 0.157506 0.338680 0.102121
Si Si4 0.662098 0.626897 0.159184
Si Si5 0.738379 0.011197 0.408600
Si Si6 0.435017 0.967898 0.338016
Si Si7 0.935426 0.201762 0.658534
O O1 0.583391 0.500000 0.500000
O O2 0.500000 0.462282 0.588613
O O3 0.602089 0.409984 0.631255
O O4 0.571343 0.591933 0.630383
O O5 0.362236 0.853568 0.485929
O O6 0.308880 0.906440 0.603996
O O7 0.392088 0.770962 0.615908
O O8 0.411850 0.951926 0.602921
O O9 0.173846 0.229204 0.118747
O O10 0.209067 0.411557 0.117135
O O11 0.105106 0.375546 0.152230
O O12 0.664000 0.639580 0.250000
O O13 0.706322 0.545535 0.133313
O O14 0.748543 0.000000 0.500000
O O15 0.429736 0.004927 0.250000
O O16 0.500000 0.946599 0.351956
O O17 0.928297 0.207734 0.750000
O O18 0.000000 0.230926 0.640712
#
# Coordination Sequence:
#
# PCOD9472476 Si02
#       7
#    16  16  16  16  16  16  16
#     4  10  22  41  63  86 115 154 198 241 284 337
#     4  10  20  36  60  87 115 153 198 243 292 345
#     4  10  23  41  59  85 120 155 196 244 292 348
#     4  12  25  39  61  89 117 153 191 235 293 353
#     4   9  22  42  62  84 113 151 195 245 291 339
#     4  10  20  35  57  86 122 161 199 245 297 345
#     4  10  20  34  55  86 122 156 195 247 297 341
#
# _framework density 19.470148999999999
#
# number of rings (size 3 to 8) (size 9 to 14) (size 15 to 20)
#    0.000    1.857    0.000    4.286    0.000   11.143 
#    0.000    0.000    0.000    0.000    0.000    0.000 
#    0.000    0.000    0.000    0.000    0.000    0.000 
#
# Total GULP energy -312847.490574 kJ/mol
# GULP energy per Si atom -5586.562332 kJ/mol
# Density = 1.942583 g / cm^3
# Si number density = 19.470149 Si / 1000 Ang^3
#
#
#
# Elastic Constant Matrix: (Units=GPa)
#
#
# Indices 1 2 3 4 5 6 
#
# 1 50.3156 28.1168 24.6167 0.0000 0.0000 0.0000
# 2 28.1168 77.2258 29.6651 0.0000 0.0000 0.0000
# 3 24.6167 29.6651 66.3917 0.0000 0.0000 0.0000
# 4 0.0000 0.0000 0.0000 25.9523 0.0000 0.0000
# 5 0.0000 0.0000 0.0000 0.0000 47.6567 0.0000
# 6 0.0000 0.0000 0.0000 0.0000 0.0000 47.5065
#
#
#
# Elastic Compliance Matrix: (Units=1/GPa)
#
#
# Indices 1 2 3 4 5 6 
#
# 1 0.027317 -0.007309 -0.006862 0.000000 0.000000 0.000000
# 2 -0.007309 0.017588 -0.005148 0.000000 0.000000 0.000000
# 3 -0.006862 -0.005148 0.019907 0.000000 0.000000 0.000000
# 4 0.000000 0.000000 0.000000 0.038532 0.000000 0.000000
# 5 0.000000 0.000000 0.000000 0.000000 0.020983 0.000000
# 6 0.000000 0.000000 0.000000 0.000000 0.000000 0.021050
#
#
# Mechanical properties :
#
#
# Convention : Reuss Voigt Hill
#
# Bulk Modulus (GPa) = 38.21041 39.85892 39.03466
# Shear Modulus (GPa) = 25.94152 31.65874 28.80013
#
# Velocity S-wave (km/s) = 3.65413 4.03676 3.85020
# Velocity P-wave (km/s) = 6.12138 6.49950 6.31327
#
# Compressibility (1/GPa) = 0.02617088
#
# Stress axis : x y z
#
# Youngs Moduli (GPa) = 36.60782 56.85690 50.23363
#
# Poissons Ratio (x) = 0.41559 0.34472
# Poissons Ratio (y) = 0.26758 0.25863
# Poissons Ratio (z) = 0.25122 0.29272
#
# Static dielectric constant tensor:
#      x y z
#    x 1.672570 0.000000 0.000000 
#    y 0.000000 1.666260 0.000000 
#    z 0.000000 0.000000 1.669350 
# 
# From -- ./inp_files/36915.got.cif
#   From: 2010.05.17/outbox.cif.g08.bks.cpg/sg63_19_cif.got.tgz:36915.got - 2010.06.03 15:47:04.
