data_PCOD9472678
_publ_section_title
;
Structure prediction by ZEFSAII (Michael W. Deem and Ramdas Pophale) SiO2 
 PCOD9472678
Probable space group: C M C M
;
_chemical_formula_sum "Si O2"
_cell_formula_units_Z 64
_cell_length_a 8.110795
_cell_length_b 25.697991
_cell_length_c 13.099763
_cell_angle_alpha 90.000000
_cell_angle_beta 90.000000
_cell_angle_gamma 90.000000
_cell_volume 2730.398495
_symmetry_space_group_name_H-M "C M C M"
_symmetry_group_IT_number 63
_symmetry_cell_setting 'orthorhombic'
loop_
_space_group_symop_operation_xyz
x,y,z
-x,-y,1/2+z
x,-y,-z
-x,y,1/2-z
-x,-y,-z
x,y,1/2-z
-x,y,z
x,-y,1/2+z
1/2+x,1/2+y,z
1/2-x,1/2-y,1/2+z
1/2+x,1/2-y,-z
1/2-x,1/2+y,1/2-z
1/2-x,1/2-y,-z
1/2+x,1/2+y,1/2-z
1/2-x,1/2+y,z
1/2+x,1/2-y,1/2+z
loop_
_atom_site_type_symbol
_atom_site_label
_atom_site_fract_x
_atom_site_fract_y
_atom_site_fract_z
Si Si1 0.697408 0.709177 0.358395
Si Si2 0.311118 0.934214 0.414744
Si Si3 0.698296 0.677534 0.919395
Si Si4 0.691232 0.455728 0.636809
O O1 0.761835 0.689057 0.250000
O O2 0.500000 0.703064 0.358660
O O3 0.757522 0.683407 0.462686
O O4 0.737755 0.770405 0.366210
O O5 0.500000 0.945442 0.389608
O O6 0.261020 0.877203 0.378201
O O7 0.286681 0.935722 0.537741
O O8 0.203501 0.981546 0.371919
O O9 0.500000 0.677918 0.916550
O O10 0.748897 0.440493 0.750000
O O11 0.500000 0.439538 0.626275
#
# Coordination Sequence:
#
# PCOD9472678 Si02
#       4
#    16  16  16  16
#     4   9  19  36  56  78 105 138 177 221 268 316
#     4  11  22  36  56  81 111 144 178 220 267 317
#     4  10  20  35  55  79 108 141 178 219 265 317
#     4  10  21  38  59  81 107 140 179 223 269 318
#
# _framework density 23.439800000000002
#
# number of rings (size 3 to 8) (size 9 to 14) (size 15 to 20)
#    0.000    2.000    0.000    5.250    0.000    5.500 
#    0.000    2.500    0.000    0.000    0.000    0.000 
#    0.000    0.000    0.000    0.000    0.000    0.000 
#
# Total GULP energy -178950.288704 kJ/mol
# GULP energy per Si atom -5592.196522 kJ/mol
# Density = 2.338645 g / cm^3
# Si number density = 23.439800 Si / 1000 Ang^3
#
#
#
# Elastic Constant Matrix: (Units=GPa)
#
#
# Indices 1 2 3 4 5 6 
#
# 1 30.2285 -12.9775 6.6681 0.0000 0.0000 0.0000
# 2 -12.9775 109.8802 -8.2055 0.0000 0.0000 0.0000
# 3 6.6681 -8.2055 115.9265 0.0000 0.0000 0.0000
# 4 0.0000 0.0000 0.0000 -3.4085 0.0000 0.0000
# 5 0.0000 0.0000 0.0000 0.0000 10.5685 0.0000
# 6 0.0000 0.0000 0.0000 0.0000 0.0000 21.5372
#
#
#
# Elastic Compliance Matrix: (Units=1/GPa)
#
#
# Indices 1 2 3 4 5 6 
#
# 1 0.035194 0.004027 -0.001739 0.000000 0.000000 0.000000
# 2 0.004027 0.009610 0.000449 0.000000 0.000000 0.000000
# 3 -0.001739 0.000449 0.008758 0.000000 0.000000 0.000000
# 4 0.000000 0.000000 0.000000 -0.293385 0.000000 0.000000
# 5 0.000000 0.000000 0.000000 0.000000 0.094621 0.000000
# 6 0.000000 0.000000 0.000000 0.000000 0.000000 0.046431
#
#
# Mechanical properties :
#
#
# Convention : Reuss Voigt Hill
#
# Bulk Modulus (GPa) = 16.93954 25.22285 21.08120
# Shear Modulus (GPa) = -59.12567 23.77612 -17.67478
#
# Velocity S-wave (km/s) = -5.02785 3.18834 -2.74898
# Velocity P-wave (km/s) = 5.14423 4.93336 1.03079
#
# Compressibility (1/GPa) = 0.05903347
#
# Stress axis : x y z
#
# Youngs Moduli (GPa) = 28.41413 104.05944 114.18194
#
# Poissons Ratio (x) = -0.41902 0.19860
# Poissons Ratio (y) = -0.11441 -0.05122
# Poissons Ratio (z) = 0.04942 -0.04668
#
# Static dielectric constant tensor:
#      x y z
#    x 1.802660 0.000000 0.000000 
#    y 0.000000 1.865330 0.000000 
#    z 0.000000 0.000000 1.934900 
# 
# From -- ./inp_files/27505.got.cif
#   From: 2010.05.17/outbox.cif.g08.bks.cpg/sg63_14_cif.got.tgz:27505.got - 2010.06.03 15:47:04.
