data_PCOD9472336
_publ_section_title
;
Structure prediction by ZEFSAII (Michael W. Deem and Ramdas Pophale) SiO2 
 PCOD9472336
Probable space group: C M C M
;
_chemical_formula_sum "Si O2"
_cell_formula_units_Z 72
_cell_length_a 15.849480
_cell_length_b 26.475377
_cell_length_c 7.536162
_cell_angle_alpha 90.000000
_cell_angle_beta 90.000000
_cell_angle_gamma 90.000000
_cell_volume 3162.331520
_symmetry_space_group_name_H-M "C M C M"
_symmetry_group_IT_number 63
_symmetry_cell_setting 'orthorhombic'
loop_
_space_group_symop_operation_xyz
x,y,z
-x,-y,1/2+z
x,-y,-z
-x,y,1/2-z
-x,-y,-z
x,y,1/2-z
-x,y,z
x,-y,1/2+z
1/2+x,1/2+y,z
1/2-x,1/2-y,1/2+z
1/2+x,1/2-y,-z
1/2-x,1/2+y,1/2-z
1/2-x,1/2-y,-z
1/2+x,1/2+y,1/2-z
1/2-x,1/2+y,z
1/2+x,1/2-y,1/2+z
loop_
_atom_site_type_symbol
_atom_site_label
_atom_site_fract_x
_atom_site_fract_y
_atom_site_fract_z
Si Si1 0.500000 0.253846 0.466752
Si Si2 0.000000 0.440494 0.037280
Si Si3 0.146756 0.056543 0.962727
Si Si4 0.678359 0.208679 0.461280
Si Si5 0.820880 0.594309 0.955607
Si Si6 0.500000 0.370120 0.467292
O O1 0.500000 0.253367 0.250000
O O2 0.586311 0.227119 0.525168
O O3 0.500000 0.312180 0.523420
O O4 0.912986 0.416866 0.965734
O O5 0.000000 0.431814 0.250000
O O6 0.000000 0.500000 0.000000
O O7 0.150437 0.062462 0.750000
O O8 0.240973 0.065234 0.035308
O O9 0.081890 0.098823 0.027219
O O10 0.116940 0.000000 0.000000
O O11 0.673610 0.202861 0.250000
O O12 0.750000 0.250000 0.500000
O O13 0.698279 0.153771 0.537818
O O14 0.826014 0.578253 0.750000
O O15 0.500000 0.369988 0.250000
#
# Coordination Sequence:
#
# PCOD9472336 Si02
#       6
#     8   8  16  16  16   8
#     4   9  19  36  57  80 109 146 185 220 268 333
#     4  10  21  36  56  81 111 146 185 232 283 333
#     4  10  20  34  54  77 104 138 175 217 265 315
#     4  11  22  37  59  85 112 146 186 230 277 330
#     4  10  21  37  55  78 109 145 182 224 274 327
#     4   9  17  32  53  75 101 136 173 212 259 314
#
# _framework density 22.768011999999999
#
# number of rings (size 3 to 8) (size 9 to 14) (size 15 to 20)
#    0.000    2.000    0.000    3.667    0.000    5.333 
#    0.000    1.667    0.000    2.667    0.000    0.000 
#    0.000    0.000    0.000    0.000    0.000    0.000 
#
# Total GULP energy -201293.154338 kJ/mol
# GULP energy per Si atom -5591.476509 kJ/mol
# Density = 2.271619 g / cm^3
# Si number density = 22.768012 Si / 1000 Ang^3
#
#
#
# Elastic Constant Matrix: (Units=GPa)
#
#
# Indices 1 2 3 4 5 6 
#
# 1 97.8815 -7.9653 5.4085 0.0000 0.0000 0.0000
# 2 -7.9653 65.5042 -23.7973 0.0000 0.0000 0.0000
# 3 5.4085 -23.7973 61.8443 0.0000 0.0000 0.0000
# 4 0.0000 0.0000 0.0000 26.3638 0.0000 0.0000
# 5 0.0000 0.0000 0.0000 0.0000 -1.2574 0.0000
# 6 0.0000 0.0000 0.0000 0.0000 0.0000 55.0710
#
#
#
# Elastic Compliance Matrix: (Units=1/GPa)
#
#
# Indices 1 2 3 4 5 6 
#
# 1 0.010331 0.001079 -0.000488 0.000000 0.000000 0.000000
# 2 0.001079 0.017860 0.006778 0.000000 0.000000 0.000000
# 3 -0.000488 0.006778 0.018820 0.000000 0.000000 0.000000
# 4 0.000000 0.000000 0.000000 0.037931 0.000000 0.000000
# 5 0.000000 0.000000 0.000000 0.000000 -0.795273 0.000000
# 6 0.000000 0.000000 0.000000 0.000000 0.000000 0.018158
#
#
# Mechanical properties :
#
#
# Convention : Reuss Voigt Hill
#
# Bulk Modulus (GPa) = 16.19476 19.16911 17.68194
# Shear Modulus (GPa) = -7.28516 32.80775 12.76129
#
# Velocity S-wave (km/s) = -1.79072 3.80011 2.37004
# Velocity P-wave (km/s) = 1.68903 5.26233 3.90800
#
# Compressibility (1/GPa) = 0.06174836
#
# Stress axis : x y z
#
# Youngs Moduli (GPa) = 96.79409 55.99171 53.13365
#
# Poissons Ratio (x) = -0.06041 0.02595
# Poissons Ratio (y) = -0.10443 -0.36014
# Poissons Ratio (z) = 0.04727 -0.37951
#
# Static dielectric constant tensor:
#      x y z
#    x 1.856770 0.000000 0.000000 
#    y 0.000000 1.758130 0.000000 
#    z 0.000000 0.000000 1.841160 
# 
# From -- ./inp_files/4693.got.cif
#   From: 2010.05.17/outbox.cif.g08.bks.cpg/sg63_3_cif.got.tgz:4693.got - 2010.06.03 15:47:04.
