data_PCOD9472619
_publ_section_title
;
Structure prediction by ZEFSAII (Michael W. Deem and Ramdas Pophale) SiO2 
 PCOD9472619
Probable space group: C M C M
;
_chemical_formula_sum "Si O2"
_cell_formula_units_Z 64
_cell_length_a 7.703851
_cell_length_b 36.769770
_cell_length_c 10.684455
_cell_angle_alpha 90.000000
_cell_angle_beta 90.000000
_cell_angle_gamma 90.000000
_cell_volume 3026.573060
_symmetry_space_group_name_H-M "C M C M"
_symmetry_group_IT_number 63
_symmetry_cell_setting 'orthorhombic'
loop_
_space_group_symop_operation_xyz
x,y,z
-x,-y,1/2+z
x,-y,-z
-x,y,1/2-z
-x,-y,-z
x,y,1/2-z
-x,y,z
x,-y,1/2+z
1/2+x,1/2+y,z
1/2-x,1/2-y,1/2+z
1/2+x,1/2-y,-z
1/2-x,1/2+y,1/2-z
1/2-x,1/2-y,-z
1/2+x,1/2+y,1/2-z
1/2-x,1/2+y,z
1/2+x,1/2-y,1/2+z
loop_
_atom_site_type_symbol
_atom_site_label
_atom_site_fract_x
_atom_site_fract_y
_atom_site_fract_z
Si Si1 0.290007 0.416077 0.250000
Si Si2 0.708763 0.207469 0.000694
Si Si3 0.792720 0.582816 0.250000
Si Si4 0.792566 0.958821 0.494881
Si Si5 0.207911 0.331103 0.250000
Si Si6 0.712983 0.166340 0.250000
O O1 0.500000 0.417629 0.250000
O O2 0.225925 0.436313 0.375339
O O3 0.241297 0.373921 0.250000
O O4 0.500000 0.203891 0.000971
O O5 0.776246 0.187934 0.875605
O O6 0.750000 0.250000 0.000000
O O7 0.771601 0.187433 0.125869
O O8 0.738043 0.561857 0.124759
O O9 0.729042 0.624464 0.250000
O O10 0.000000 0.584179 0.250000
O O11 0.000000 0.961528 0.477810
O O12 0.723146 0.000000 0.500000
O O13 0.000000 0.325888 0.250000
O O14 0.500000 0.166324 0.250000
#
# Coordination Sequence:
#
# PCOD9472619 Si02
#       6
#     8  16   8  16   8   8
#     4  10  21  36  58  85 109 144 193 233 271 329
#     4  10  20  35  54  76 103 138 177 217 267 323
#     4  11  22  37  59  86 114 147 188 231 277 331
#     4  10  21  39  60  82 113 151 187 228 281 334
#     4  10  21  36  54  77 109 144 175 219 281 333
#     4   9  19  35  53  74 106 143 172 209 269 327
#
# _framework density 21.146028000000001
#
# number of rings (size 3 to 8) (size 9 to 14) (size 15 to 20)
#    0.000    2.000    0.000    3.375    0.000    6.500 
#    0.000    3.750    0.000    0.000    0.000    0.000 
#    0.000    0.000    0.000    0.000    0.000    0.000 
#
# Total GULP energy -178885.328373 kJ/mol
# GULP energy per Si atom -5590.166512 kJ/mol
# Density = 2.109790 g / cm^3
# Si number density = 21.146028 Si / 1000 Ang^3
#
#
#
# Elastic Constant Matrix: (Units=GPa)
#
#
# Indices 1 2 3 4 5 6 
#
# 1 29.5116 -8.3966 -0.0030 0.0000 0.0000 0.0000
# 2 -8.3966 241.3206 154.4830 0.0000 0.0000 0.0000
# 3 -0.0030 154.4830 257.4584 0.0000 0.0000 0.0000
# 4 0.0000 0.0000 0.0000 50.5086 0.0000 0.0000
# 5 0.0000 0.0000 0.0000 0.0000 -24.8317 0.0000
# 6 0.0000 0.0000 0.0000 0.0000 0.0000 26.2096
#
#
#
# Elastic Compliance Matrix: (Units=1/GPa)
#
#
# Indices 1 2 3 4 5 6 
#
# 1 0.034438 0.001945 -0.001167 0.000000 0.000000 0.000000
# 2 0.001945 0.006838 -0.004103 0.000000 0.000000 0.000000
# 3 -0.001167 -0.004103 0.006346 0.000000 0.000000 0.000000
# 4 0.000000 0.000000 0.000000 0.019799 0.000000 0.000000
# 5 0.000000 0.000000 0.000000 0.000000 -0.040271 0.000000
# 6 0.000000 0.000000 0.000000 0.000000 0.000000 0.038154
#
#
# Mechanical properties :
#
#
# Convention : Reuss Voigt Hill
#
# Bulk Modulus (GPa) = 24.40624 91.16194 57.78409
# Shear Modulus (GPa) = 58.40366 35.85777 47.13071
#
# Velocity S-wave (km/s) = 5.26110 4.12238 4.72616
# Velocity P-wave (km/s) = 6.96221 8.11560 7.56093
#
# Compressibility (1/GPa) = 0.04097314
#
# Stress axis : x y z
#
# Youngs Moduli (GPa) = 29.03748 146.23803 157.57731
#
# Poissons Ratio (x) = -0.28446 0.18385
# Poissons Ratio (y) = -0.05648 0.64655
# Poissons Ratio (z) = 0.03388 0.60003
#
# Static dielectric constant tensor:
#      x y z
#    x 1.784010 0.000000 0.000000 
#    y 0.000000 1.708920 0.000000 
#    z 0.000000 0.000000 1.744880 
# 
# From -- ./inp_files/16288.got.cif
#   From: 2010.05.17/outbox.cif.g08.bks.cpg/sg63_9_cif.got.tgz:16288.got - 2010.06.03 15:47:04.
