data_PCOD9472150
_publ_section_title
;
Structure prediction by ZEFSAII (Michael W. Deem and Ramdas Pophale) SiO2 
 PCOD9472150
Probable space group: C M C M
;
_chemical_formula_sum "Si O2"
_cell_formula_units_Z 72
_cell_length_a 13.733736
_cell_length_b 32.450098
_cell_length_c 7.450919
_cell_angle_alpha 90.000000
_cell_angle_beta 90.000000
_cell_angle_gamma 90.000000
_cell_volume 3320.584602
_symmetry_space_group_name_H-M "C M C M"
_symmetry_group_IT_number 63
_symmetry_cell_setting 'orthorhombic'
loop_
_space_group_symop_operation_xyz
x,y,z
-x,-y,1/2+z
x,-y,-z
-x,y,1/2-z
-x,-y,-z
x,y,1/2-z
-x,y,z
x,-y,1/2+z
1/2+x,1/2+y,z
1/2-x,1/2-y,1/2+z
1/2+x,1/2-y,-z
1/2-x,1/2+y,1/2-z
1/2-x,1/2-y,-z
1/2+x,1/2+y,1/2-z
1/2-x,1/2+y,z
1/2+x,1/2-y,1/2+z
loop_
_atom_site_type_symbol
_atom_site_label
_atom_site_fract_x
_atom_site_fract_y
_atom_site_fract_z
Si Si1 0.197712 0.688074 0.532909
Si Si2 0.500000 0.048274 0.964206
Si Si3 0.194758 0.406096 0.030083
Si Si4 0.890904 0.951346 0.035196
Si Si5 0.604081 0.728172 0.538929
O O1 0.198252 0.688217 0.750000
O O2 0.182764 0.641387 0.475159
O O3 0.301762 0.705049 0.465135
O O4 0.121237 0.722917 0.478076
O O5 0.500000 0.054760 0.750000
O O6 0.600311 0.068493 0.030918
O O7 0.500000 0.000000 0.000000
O O8 0.196483 0.407085 0.250000
O O9 0.297639 0.425644 0.969512
O O10 0.893637 0.945767 0.250000
O O11 0.000000 0.940499 0.967138
O O12 0.875791 0.000000 0.000000
O O13 0.602134 0.718319 0.750000
O O14 0.500000 0.716560 0.460756
#
# Coordination Sequence:
#
# PCOD9472150 Si02
#       5
#    16   8  16  16  16
#     4   9  18  32  50  72  94 124 165 198 235 285
#     4  10  20  34  50  70  98 128 162 200 240 284
#     4   9  18  31  49  72  95 122 159 201 235 277
#     4   9  17  30  48  69  93 121 154 192 236 284
#     4   9  18  32  49  70  99 128 154 195 245 290
#
# _framework density 21.682929000000001
#
# number of rings (size 3 to 8) (size 9 to 14) (size 15 to 20)
#    0.000    2.889    0.000    0.667    1.556    1.333 
#    0.000    6.667    0.000    0.000    0.000    3.111 
#    0.000    0.000    0.000    0.000    0.000    0.000 
#
# Total GULP energy -200902.411296 kJ/mol
# GULP energy per Si atom -5580.622536 kJ/mol
# Density = 2.163358 g / cm^3
# Si number density = 21.682929 Si / 1000 Ang^3
#
#
#
# Elastic Constant Matrix: (Units=GPa)
#
#
# Indices 1 2 3 4 5 6 
#
# 1 129.1386 41.6808 2.6054 0.0000 0.0000 0.0000
# 2 41.6808 98.1295 -12.2393 0.0000 0.0000 0.0000
# 3 2.6054 -12.2393 66.5489 0.0000 0.0000 0.0000
# 4 0.0000 0.0000 0.0000 20.6199 0.0000 0.0000
# 5 0.0000 0.0000 0.0000 0.0000 -4.2212 0.0000
# 6 0.0000 0.0000 0.0000 0.0000 0.0000 1.8204
#
#
#
# Elastic Compliance Matrix: (Units=1/GPa)
#
#
# Indices 1 2 3 4 5 6 
#
# 1 0.009050 -0.003979 -0.001086 0.000000 0.000000 0.000000
# 2 -0.003979 0.012180 0.002396 0.000000 0.000000 0.000000
# 3 -0.001086 0.002396 0.015510 0.000000 0.000000 0.000000
# 4 0.000000 0.000000 0.000000 0.048497 0.000000 0.000000
# 5 0.000000 0.000000 0.000000 0.000000 -0.236898 0.000000
# 6 0.000000 0.000000 0.000000 0.000000 0.000000 0.549330
#
#
# Mechanical properties :
#
#
# Convention : Reuss Voigt Hill
#
# Bulk Modulus (GPa) = 31.84741 39.76784 35.80763
# Shear Modulus (GPa) = 12.09265 21.09515 16.59390
#
# Velocity S-wave (km/s) = 2.36414 3.12251 2.76940
# Velocity P-wave (km/s) = 4.70870 5.60183 5.17457
#
# Compressibility (1/GPa) = 0.03139972
#
# Stress axis : x y z
#
# Youngs Moduli (GPa) = 110.49790 82.10362 64.47582
#
# Poissons Ratio (x) = 0.32673 0.07003
# Poissons Ratio (y) = 0.43972 -0.15447
# Poissons Ratio (z) = 0.12002 -0.19671
#
# Static dielectric constant tensor:
#      x y z
#    x 1.795630 0.000000 0.000000 
#    y 0.000000 1.737990 0.000000 
#    z 0.000000 0.000000 1.836070 
# 
# From -- ./inp_files/4639.got.cif
#   From: 2010.05.17/outbox.cif.g08.bks.cpg/sg63_3_cif.got.tgz:4639.got - 2010.06.03 15:47:04.
