data_PCOD9472052
_publ_section_title
;
Structure prediction by ZEFSAII (Michael W. Deem and Ramdas Pophale) SiO2 
 PCOD9472052
Probable space group: C M C M
;
_chemical_formula_sum "Si O2"
_cell_formula_units_Z 88
_cell_length_a 14.267545
_cell_length_b 23.066052
_cell_length_c 15.182044
_cell_angle_alpha 90.000000
_cell_angle_beta 90.000000
_cell_angle_gamma 90.000000
_cell_volume 4996.348964
_symmetry_space_group_name_H-M "C M C M"
_symmetry_group_IT_number 63
_symmetry_cell_setting 'orthorhombic'
loop_
_space_group_symop_operation_xyz
x,y,z
-x,-y,1/2+z
x,-y,-z
-x,y,1/2-z
-x,-y,-z
x,y,1/2-z
-x,y,z
x,-y,1/2+z
1/2+x,1/2+y,z
1/2-x,1/2-y,1/2+z
1/2+x,1/2-y,-z
1/2-x,1/2+y,1/2-z
1/2-x,1/2-y,-z
1/2+x,1/2+y,1/2-z
1/2-x,1/2+y,z
1/2+x,1/2-y,1/2+z
loop_
_atom_site_type_symbol
_atom_site_label
_atom_site_fract_x
_atom_site_fract_y
_atom_site_fract_z
Si Si1 0.312812 0.300140 0.250000
Si Si2 0.388751 0.483190 0.897903
Si Si3 0.110686 0.927285 0.250000
Si Si4 0.111423 0.707610 0.110404
Si Si5 0.603309 0.727962 0.068331
Si Si6 0.773894 0.131283 0.353302
Si Si7 0.600108 0.201717 0.750000
O O1 0.368077 0.359765 0.250000
O O2 0.339896 0.258491 0.331778
O O3 0.205280 0.321924 0.250000
O O4 0.500000 0.468508 0.880059
O O5 0.359200 0.537239 0.836582
O O6 0.319253 0.430524 0.874726
O O7 0.382435 0.500000 0.000000
O O8 0.000000 0.932055 0.250000
O O9 0.164907 0.647727 0.132154
O O10 0.000000 0.705247 0.129191
O O11 0.124366 0.727149 0.009320
O O12 0.500000 0.703210 0.048480
O O13 0.675006 0.676466 0.082108
O O14 0.598897 0.760197 0.161620
O O15 0.794492 0.143666 0.250000
O O16 0.500000 0.168057 0.750000
#
# Coordination Sequence:
#
# PCOD9472052 Si02
#       7
#     8  16   8  16  16  16   8
#     4  12  22  37  57  80 119 160 184 228 291 360
#     4  10  23  40  58  85 114 148 194 243 288 344
#     4  10  22  38  55  79 113 149 193 232 279 343
#     4  11  23  36  55  88 122 154 194 235 287 354
#     4  10  20  33  52  82 117 149 184 232 287 344
#     4  12  21  36  60  84 116 155 195 244 296 340
#     4  10  20  35  52  81 114 145 187 234 280 337
#
# _framework density 17.612860000000001
#
# number of rings (size 3 to 8) (size 9 to 14) (size 15 to 20)
#    0.000    1.273    4.545    1.909    2.545    0.727 
#    0.000    0.000    0.000    1.636    0.000    0.000 
#    0.000    0.000    0.000    0.000    0.000    0.000 
#
# Total GULP energy -245150.224772 kJ/mol
# GULP energy per Si atom -5571.596018 kJ/mol
# Density = 1.757277 g / cm^3
# Si number density = 17.612860 Si / 1000 Ang^3
#
#
#
# Elastic Constant Matrix: (Units=GPa)
#
#
# Indices 1 2 3 4 5 6 
#
# 1 86.7814 31.5753 25.6737 0.0000 0.0000 0.0000
# 2 31.5753 73.8941 29.1373 0.0000 0.0000 0.0000
# 3 25.6737 29.1373 95.9214 0.0000 0.0000 0.0000
# 4 0.0000 0.0000 0.0000 21.1903 0.0000 0.0000
# 5 0.0000 0.0000 0.0000 0.0000 18.1013 0.0000
# 6 0.0000 0.0000 0.0000 0.0000 0.0000 33.2473
#
#
#
# Elastic Compliance Matrix: (Units=1/GPa)
#
#
# Indices 1 2 3 4 5 6 
#
# 1 0.014041 -0.005133 -0.002199 0.000000 0.000000 0.000000
# 2 -0.005133 0.017251 -0.003866 0.000000 0.000000 0.000000
# 3 -0.002199 -0.003866 0.012188 0.000000 0.000000 0.000000
# 4 0.000000 0.000000 0.000000 0.047191 0.000000 0.000000
# 5 0.000000 0.000000 0.000000 0.000000 0.055245 0.000000
# 6 0.000000 0.000000 0.000000 0.000000 0.000000 0.030078
#
#
# Mechanical properties :
#
#
# Convention : Reuss Voigt Hill
#
# Bulk Modulus (GPa) = 47.42952 47.70772 47.56862
# Shear Modulus (GPa) = 24.34060 25.85516 25.09788
#
# Velocity S-wave (km/s) = 3.72153 3.83557 3.77898
# Velocity P-wave (km/s) = 6.74194 6.83821 6.79025
#
# Compressibility (1/GPa) = 0.02108392
#
# Stress axis : x y z
#
# Youngs Moduli (GPa) = 71.21819 57.96872 82.04638
#
# Poissons Ratio (x) = 0.29754 0.18043
# Poissons Ratio (y) = 0.36555 0.31721
# Poissons Ratio (z) = 0.15661 0.22412
#
# Static dielectric constant tensor:
#      x y z
#    x 1.686530 0.000000 0.000000 
#    y 0.000000 1.556330 0.000000 
#    z 0.000000 0.000000 1.629090 
# 
# From -- ./inp_files/32135.got.cif
#   From: 2010.05.17/outbox.cif.g08.bks.cpg/sg63_17_cif.got.tgz:32135.got - 2010.06.03 15:47:04.
