data_PCOD9472184
_publ_section_title
;
Structure prediction by ZEFSAII (Michael W. Deem and Ramdas Pophale) SiO2 
 PCOD9472184
Probable space group: C M C M
;
_chemical_formula_sum "Si O2"
_cell_formula_units_Z 96
_cell_length_a 13.843479
_cell_length_b 16.978340
_cell_length_c 24.002693
_cell_angle_alpha 90.000000
_cell_angle_beta 90.000000
_cell_angle_gamma 90.000000
_cell_volume 5641.575999
_symmetry_space_group_name_H-M "C M C M"
_symmetry_group_IT_number 63
_symmetry_cell_setting 'orthorhombic'
loop_
_space_group_symop_operation_xyz
x,y,z
-x,-y,1/2+z
x,-y,-z
-x,y,1/2-z
-x,-y,-z
x,y,1/2-z
-x,y,z
x,-y,1/2+z
1/2+x,1/2+y,z
1/2-x,1/2-y,1/2+z
1/2+x,1/2-y,-z
1/2-x,1/2+y,1/2-z
1/2-x,1/2-y,-z
1/2+x,1/2+y,1/2-z
1/2-x,1/2+y,z
1/2+x,1/2-y,1/2+z
loop_
_atom_site_type_symbol
_atom_site_label
_atom_site_fract_x
_atom_site_fract_y
_atom_site_fract_z
Si Si1 0.887640 0.680492 0.481760
Si Si2 0.257515 0.414012 0.914405
Si Si3 0.612027 0.632028 0.515674
Si Si4 0.888152 0.138361 0.184662
Si Si5 0.887358 0.327231 0.314549
Si Si6 0.212575 0.408647 0.415686
O O1 0.819236 0.653357 0.431137
O O2 0.878452 0.773657 0.492857
O O3 0.849684 0.632521 0.535400
O O4 0.000000 0.663460 0.471386
O O5 0.312061 0.401080 0.856471
O O6 0.204078 0.497459 0.916779
O O7 0.338545 0.409744 0.962885
O O8 0.500000 0.612282 0.521120
O O9 0.676550 0.610117 0.568793
O O10 0.872865 0.120282 0.250000
O O11 0.878920 0.232965 0.177924
O O12 0.000000 0.118238 0.170786
O O13 0.865792 0.344888 0.250000
O O14 0.820988 0.372493 0.357741
O O15 0.000000 0.347219 0.324988
#
# Coordination Sequence:
#
# PCOD9472184 Si02
#       6
#    16  16  16  16  16  16
#     4  10  20  34  52  72  97 132 171 205 238 285
#     4  11  21  31  49  75 104 132 157 199 253 299
#     4  10  20  34  52  72  97 132 171 205 238 285
#     4   9  18  34  56  77  96 125 167 209 244 283
#     4   9  18  34  56  77  96 125 167 209 244 283
#     4  11  21  31  49  75 104 132 157 199 253 299
#
# _framework density 17.016521999999998
#
# number of rings (size 3 to 8) (size 9 to 14) (size 15 to 20)
#    0.000    2.000    0.000    8.000    0.000    7.333 
#    0.000    0.000    0.000    1.000    0.000    4.667 
#    0.000    0.000    0.000    0.000    0.000    0.000 
#
# Total GULP energy -267927.059765 kJ/mol
# GULP energy per Si atom -5581.813745 kJ/mol
# Density = 1.697779 g / cm^3
# Si number density = 17.016522 Si / 1000 Ang^3
#
#
#
# Elastic Constant Matrix: (Units=GPa)
#
#
# Indices 1 2 3 4 5 6 
#
# 1 60.3752 -4.8018 24.3790 0.0000 0.0000 0.0000
# 2 -4.8018 30.2178 14.4946 0.0000 0.0000 0.0000
# 3 24.3790 14.4946 65.9750 0.0000 0.0000 0.0000
# 4 0.0000 0.0000 0.0000 2.0866 0.0000 0.0000
# 5 0.0000 0.0000 0.0000 0.0000 28.0432 0.0000
# 6 0.0000 0.0000 0.0000 0.0000 0.0000 -4.8918
#
#
#
# Elastic Compliance Matrix: (Units=1/GPa)
#
#
# Indices 1 2 3 4 5 6 
#
# 1 0.021031 0.007902 -0.009507 0.000000 0.000000 0.000000
# 2 0.007902 0.039961 -0.011699 0.000000 0.000000 0.000000
# 3 -0.009507 -0.011699 0.021241 0.000000 0.000000 0.000000
# 4 0.000000 0.000000 0.000000 0.479252 0.000000 0.000000
# 5 0.000000 0.000000 0.000000 0.000000 0.035659 0.000000
# 6 0.000000 0.000000 0.000000 0.000000 0.000000 -0.204425
#
#
# Mechanical properties :
#
#
# Convention : Reuss Voigt Hill
#
# Bulk Modulus (GPa) = 17.97814 24.96798 21.47306
# Shear Modulus (GPa) = 11.41898 13.21402 12.31650
#
# Velocity S-wave (km/s) = 2.59328 2.78967 2.69327
# Velocity P-wave (km/s) = 4.42209 5.00809 4.72418
#
# Compressibility (1/GPa) = 0.05562310
#
# Stress axis : x y z
#
# Youngs Moduli (GPa) = 47.54986 25.02466 47.07939
#
# Poissons Ratio (x) = -0.19775 0.44760
# Poissons Ratio (y) = -0.37575 0.55080
# Poissons Ratio (z) = 0.45207 0.29277
#
# Static dielectric constant tensor:
#      x y z
#    x 1.574280 0.000000 0.000000 
#    y 0.000000 1.581800 0.000000 
#    z 0.000000 0.000000 1.563330 
# 
# From -- ./inp_files/54162.got.cif
#   From: 2010.05.17/outbox.cif.g08.bks.cpg/sg63_28_cif.got.tgz:54162.got - 2010.06.03 15:47:04.
