data_PCOD9472314
_publ_section_title
;
Structure prediction by ZEFSAII (Michael W. Deem and Ramdas Pophale) SiO2 
 PCOD9472314
Probable space group: C M C M
;
_chemical_formula_sum "Si O2"
_cell_formula_units_Z 112
_cell_length_a 29.367430
_cell_length_b 14.289860
_cell_length_c 14.633764
_cell_angle_alpha 90.000000
_cell_angle_beta 90.000000
_cell_angle_gamma 90.000000
_cell_volume 6141.153644
_symmetry_space_group_name_H-M "C M C M"
_symmetry_group_IT_number 63
_symmetry_cell_setting 'orthorhombic'
loop_
_space_group_symop_operation_xyz
x,y,z
-x,-y,1/2+z
x,-y,-z
-x,y,1/2-z
-x,-y,-z
x,y,1/2-z
-x,y,z
x,-y,1/2+z
1/2+x,1/2+y,z
1/2-x,1/2-y,1/2+z
1/2+x,1/2-y,-z
1/2-x,1/2+y,1/2-z
1/2-x,1/2-y,-z
1/2+x,1/2+y,1/2-z
1/2-x,1/2+y,z
1/2+x,1/2-y,1/2+z
loop_
_atom_site_type_symbol
_atom_site_label
_atom_site_fract_x
_atom_site_fract_y
_atom_site_fract_z
Si Si1 0.202852 0.791087 0.462358
Si Si2 0.447618 0.320656 0.643850
Si Si3 0.774760 0.021090 0.646558
Si Si4 0.307339 0.105471 0.356316
Si Si5 0.639922 0.579755 0.077006
Si Si6 0.092319 0.460780 0.642908
Si Si7 0.446274 0.866714 0.470501
O O1 0.250000 0.750000 0.500000
O O2 0.216716 0.882737 0.405269
O O3 0.184109 0.704123 0.404614
O O4 0.165137 0.829696 0.532885
O O5 0.443790 0.289936 0.750000
O O6 0.500000 0.354583 0.631647
O O7 0.407611 0.393530 0.622650
O O8 0.440391 0.234471 0.574644
O O9 0.761379 0.042661 0.750000
O O10 0.735293 0.954235 0.606361
O O11 0.821803 0.964026 0.642526
O O12 0.297085 0.125480 0.250000
O O13 0.353118 0.045258 0.361478
O O14 0.632647 0.500000 0.000000
O O15 0.078907 0.450816 0.750000
O O16 0.075605 0.557308 0.597978
O O17 0.073365 0.382753 0.572231
O O18 0.500000 0.885849 0.474823
#
# Coordination Sequence:
#
# PCOD9472314 Si02
#       7
#    16  16  16  16  16  16  16
#     4  11  21  35  55  79 109 146 187 230 280 329
#     4  10  21  38  60  85 113 145 186 240 295 344
#     4  10  21  37  54  77 109 145 184 228 275 331
#     4  10  21  36  52  77 112 147 188 232 275 331
#     4  10  21  37  57  83 110 144 187 231 284 343
#     4  10  20  34  53  79 114 153 190 232 283 339
#     4  10  21  36  55  83 114 147 191 239 285 340
#
# _framework density 18.237615000000002
#
# number of rings (size 3 to 8) (size 9 to 14) (size 15 to 20)
#    0.000    1.857    1.429    3.000    0.000    5.429 
#    0.000    1.429    0.000    0.857    0.000    0.000 
#    0.000    0.000    0.000    0.000    0.000    0.000 
#
# Total GULP energy -312284.226099 kJ/mol
# GULP energy per Si atom -5576.504037 kJ/mol
# Density = 1.819611 g / cm^3
# Si number density = 18.237615 Si / 1000 Ang^3
#
#
#
# Elastic Constant Matrix: (Units=GPa)
#
#
# Indices 1 2 3 4 5 6 
#
# 1 108.4564 48.2978 37.1038 0.0000 0.0000 0.0000
# 2 48.2978 61.5647 21.5216 0.0000 0.0000 0.0000
# 3 37.1038 21.5216 92.7740 0.0000 0.0000 0.0000
# 4 0.0000 0.0000 0.0000 19.9852 0.0000 0.0000
# 5 0.0000 0.0000 0.0000 0.0000 30.2717 0.0000
# 6 0.0000 0.0000 0.0000 0.0000 0.0000 29.8971
#
#
#
# Elastic Compliance Matrix: (Units=1/GPa)
#
#
# Indices 1 2 3 4 5 6 
#
# 1 0.015204 -0.010667 -0.003606 0.000000 0.000000 0.000000
# 2 -0.010667 0.025161 -0.001571 0.000000 0.000000 0.000000
# 3 -0.003606 -0.001571 0.012585 0.000000 0.000000 0.000000
# 4 0.000000 0.000000 0.000000 0.050037 0.000000 0.000000
# 5 0.000000 0.000000 0.000000 0.000000 0.033034 0.000000
# 6 0.000000 0.000000 0.000000 0.000000 0.000000 0.033448
#
#
# Mechanical properties :
#
#
# Convention : Reuss Voigt Hill
#
# Bulk Modulus (GPa) = 47.03114 52.96015 49.99565
# Shear Modulus (GPa) = 24.01018 26.42225 25.21622
#
# Velocity S-wave (km/s) = 3.63232 3.81041 3.72243
# Velocity P-wave (km/s) = 6.59057 6.96139 6.77852
#
# Compressibility (1/GPa) = 0.02126251
#
# Stress axis : x y z
#
# Youngs Moduli (GPa) = 65.77068 39.74470 79.45673
#
# Poissons Ratio (x) = 0.42397 0.28654
# Poissons Ratio (y) = 0.70159 0.12479
# Poissons Ratio (z) = 0.23718 0.06242
#
# Static dielectric constant tensor:
#      x y z
#    x 1.629280 0.000000 0.000000 
#    y 0.000000 1.615290 0.000000 
#    z 0.000000 0.000000 1.655550 
# 
# From -- ./inp_files/37936.got.cif
#   From: 2010.05.17/outbox.cif.g08.bks.cpg/sg63_19_cif.got.tgz:37936.got - 2010.06.03 15:47:04.
