data_PCOD9472708
_publ_section_title
;
Structure prediction by ZEFSAII (Michael W. Deem and Ramdas Pophale) SiO2 
 PCOD9472708
Probable space group: C M C M
;
_chemical_formula_sum "Si O2"
_cell_formula_units_Z 92
_cell_length_a 22.230576
_cell_length_b 28.234677
_cell_length_c 8.923620
_cell_angle_alpha 90.000000
_cell_angle_beta 90.000000
_cell_angle_gamma 90.000000
_cell_volume 5601.116522
_symmetry_space_group_name_H-M "C M C M"
_symmetry_group_IT_number 63
_symmetry_cell_setting 'orthorhombic'
loop_
_space_group_symop_operation_xyz
x,y,z
-x,-y,1/2+z
x,-y,-z
-x,y,1/2-z
-x,-y,-z
x,y,1/2-z
-x,y,z
x,-y,1/2+z
1/2+x,1/2+y,z
1/2-x,1/2-y,1/2+z
1/2+x,1/2-y,-z
1/2-x,1/2+y,1/2-z
1/2-x,1/2-y,-z
1/2+x,1/2+y,1/2-z
1/2-x,1/2+y,z
1/2+x,1/2-y,1/2+z
loop_
_atom_site_type_symbol
_atom_site_label
_atom_site_fract_x
_atom_site_fract_y
_atom_site_fract_z
Si Si1 0.680205 0.693237 0.427827
Si Si2 0.624457 0.784767 0.916041
Si Si3 0.746114 0.449431 0.570160
Si Si4 0.000000 0.719800 0.250000
Si Si5 0.500000 0.551639 0.926602
Si Si6 0.704133 0.145271 0.928963
Si Si7 0.616698 0.406490 0.574236
O O1 0.690555 0.699125 0.250000
O O2 0.650034 0.739198 0.498654
O O3 0.741755 0.678816 0.510715
O O4 0.636587 0.647815 0.447338
O O5 0.653908 0.787743 0.750000
O O6 0.554037 0.780613 0.878525
O O7 0.643748 0.830861 0.008564
O O8 0.761502 0.500000 0.500000
O O9 0.753149 0.449301 0.750000
O O10 0.783463 0.406349 0.498680
O O11 0.675923 0.437368 0.537541
O O12 0.500000 0.546488 0.750000
O O13 0.500000 0.500000 0.000000
O O14 0.440461 0.578904 0.979239
O O15 0.705353 0.143318 0.750000
O O16 0.602967 0.413700 0.750000
#
# Coordination Sequence:
#
# PCOD9472708 Si02
#       7
#    16  16  16   4   8  16  16
#     4  10  20  35  56  83 112 148 186 236 288 333
#     4  10  20  38  56  80 111 147 188 225 275 330
#     4  10  20  35  55  82 114 145 177 230 289 339
#     4   8  24  38  58  76 112 154 186 220 274 334
#     4  12  24  35  50  68  93 139 196 239 280 323
#     4  11  21  34  57  87 115 148 189 232 282 337
#     4   9  20  36  51  71 103 143 187 231 278 326
#
# _framework density 16.425295999999999
#
# number of rings (size 3 to 8) (size 9 to 14) (size 15 to 20)
#    0.522    1.391    0.000    6.000    0.000    6.261 
#    1.565    2.609    0.000    0.000    0.000    0.609 
#    0.000    0.000    0.000    0.000    0.000    0.000 
#
# Total GULP energy -256147.032004 kJ/mol
# GULP energy per Si atom -5568.413739 kJ/mol
# Density = 1.638791 g / cm^3
# Si number density = 16.425296 Si / 1000 Ang^3
#
#
#
# Elastic Constant Matrix: (Units=GPa)
#
#
# Indices 1 2 3 4 5 6 
#
# 1 62.0379 49.1679 34.5876 0.0000 0.0000 0.0000
# 2 49.1679 100.3668 53.1693 0.0000 0.0000 0.0000
# 3 34.5876 53.1693 99.6480 0.0000 0.0000 0.0000
# 4 0.0000 0.0000 0.0000 29.9283 0.0000 0.0000
# 5 0.0000 0.0000 0.0000 0.0000 26.6584 0.0000
# 6 0.0000 0.0000 0.0000 0.0000 0.0000 3.0221
#
#
#
# Elastic Compliance Matrix: (Units=1/GPa)
#
#
# Indices 1 2 3 4 5 6 
#
# 1 0.027078 -0.011551 -0.003235 0.000000 0.000000 0.000000
# 2 -0.011551 0.018817 -0.006031 0.000000 0.000000 0.000000
# 3 -0.003235 -0.006031 0.014376 0.000000 0.000000 0.000000
# 4 0.000000 0.000000 0.000000 0.033413 0.000000 0.000000
# 5 0.000000 0.000000 0.000000 0.000000 0.037512 0.000000
# 6 0.000000 0.000000 0.000000 0.000000 0.000000 0.330897
#
#
# Mechanical properties :
#
#
# Convention : Reuss Voigt Hill
#
# Bulk Modulus (GPa) = 53.65825 59.54472 56.60149
# Shear Modulus (GPa) = 9.80510 20.26362 15.03436
#
# Velocity S-wave (km/s) = 2.44591 3.51619 3.02870
# Velocity P-wave (km/s) = 6.38088 7.26742 6.83853
#
# Compressibility (1/GPa) = 0.01863646
#
# Stress axis : x y z
#
# Youngs Moduli (GPa) = 36.93091 53.14372 69.55948
#
# Poissons Ratio (x) = 0.61386 0.22505
# Poissons Ratio (y) = 0.42659 0.41950
# Poissons Ratio (z) = 0.11948 0.32050
#
# Static dielectric constant tensor:
#      x y z
#    x 1.537310 0.000000 0.000000 
#    y 0.000000 1.553950 0.000000 
#    z 0.000000 0.000000 1.552240 
# 
# From -- ./inp_files/8696.got.cif
#   From: 2010.05.17/outbox.cif.g08.bks.cpg/sg63_5_cif.got.tgz:8696.got - 2010.06.03 15:47:04.
