data_PCOD9472328
_publ_section_title
;
Structure prediction by ZEFSAII (Michael W. Deem and Ramdas Pophale) SiO2 
 PCOD9472328
Probable space group: C M C M
;
_chemical_formula_sum "Si O2"
_cell_formula_units_Z 96
_cell_length_a 21.905447
_cell_length_b 9.838031
_cell_length_c 24.702705
_cell_angle_alpha 90.000000
_cell_angle_beta 90.000000
_cell_angle_gamma 90.000000
_cell_volume 5323.592671
_symmetry_space_group_name_H-M "C M C M"
_symmetry_group_IT_number 63
_symmetry_cell_setting 'orthorhombic'
loop_
_space_group_symop_operation_xyz
x,y,z
-x,-y,1/2+z
x,-y,-z
-x,y,1/2-z
-x,-y,-z
x,y,1/2-z
-x,y,z
x,-y,1/2+z
1/2+x,1/2+y,z
1/2-x,1/2-y,1/2+z
1/2+x,1/2-y,-z
1/2-x,1/2+y,1/2-z
1/2-x,1/2-y,-z
1/2+x,1/2+y,1/2-z
1/2-x,1/2+y,z
1/2+x,1/2-y,1/2+z
loop_
_atom_site_type_symbol
_atom_site_label
_atom_site_fract_x
_atom_site_fract_y
_atom_site_fract_z
Si Si1 0.286535 0.365941 0.466364
Si Si2 0.818265 0.979389 0.313468
Si Si3 0.700692 0.028370 0.629275
Si Si4 0.122919 0.246065 0.184416
Si Si5 0.000000 0.616293 0.814504
Si Si6 0.000000 0.290888 0.817274
Si Si7 0.871344 0.257727 0.622216
O O1 0.304815 0.500000 0.500000
O O2 0.250000 0.250000 0.500000
O O3 0.236430 0.423264 0.423849
O O4 0.345868 0.303962 0.435015
O O5 0.820048 0.971842 0.250000
O O6 0.867897 0.090134 0.332039
O O7 0.753384 0.033855 0.333138
O O8 0.830730 0.832148 0.337150
O O9 0.674375 0.158998 0.659404
O O10 0.649246 0.914714 0.621093
O O11 0.126115 0.253445 0.250000
O O12 0.059991 0.310201 0.164525
O O13 0.000000 0.639589 0.750000
O O14 0.000000 0.454939 0.821054
O O15 0.060675 0.245410 0.851187
O O16 0.000000 0.258754 0.750000
#
# Coordination Sequence:
#
# PCOD9472328 Si02
#       7
#    16  16  16  16   8   8  16
#     4  11  23  42  65  91 118 157 203 266 328 368
#     4  10  21  33  51  84 124 157 193 249 308 366
#     4  11  21  35  59  88 116 152 200 248 309 381
#     4  10  20  34  53  81 118 157 195 238 291 360
#     4   9  18  33  55  77 109 159 201 229 271 343
#     4  11  22  39  62  90 128 171 205 245 299 373
#     4  11  23  38  60  90 120 160 211 251 308 376
#
# _framework density 18.032934999999998
#
# number of rings (size 3 to 8) (size 9 to 14) (size 15 to 20)
#    0.000    1.500    3.333    3.000    2.333    4.000 
#    0.000    2.083    0.000    3.000    0.000    0.000 
#    0.000    0.000    0.000    0.000    0.000    0.000 
#
# Total GULP energy -267205.521494 kJ/mol
# GULP energy per Si atom -5566.781698 kJ/mol
# Density = 1.799189 g / cm^3
# Si number density = 18.032935 Si / 1000 Ang^3
#
#
#
# Elastic Constant Matrix: (Units=GPa)
#
#
# Indices 1 2 3 4 5 6 
#
# 1 88.1140 12.6550 22.2533 0.0000 0.0000 0.0000
# 2 12.6550 80.6803 33.3411 0.0000 0.0000 0.0000
# 3 22.2533 33.3411 38.3471 0.0000 0.0000 0.0000
# 4 0.0000 0.0000 0.0000 16.8607 0.0000 0.0000
# 5 0.0000 0.0000 0.0000 0.0000 30.8816 0.0000
# 6 0.0000 0.0000 0.0000 0.0000 0.0000 53.7573
#
#
#
# Elastic Compliance Matrix: (Units=1/GPa)
#
#
# Indices 1 2 3 4 5 6 
#
# 1 0.013453 0.001742 -0.009321 0.000000 0.000000 0.000000
# 2 0.001742 0.019571 -0.018027 0.000000 0.000000 0.000000
# 3 -0.009321 -0.018027 0.047161 0.000000 0.000000 0.000000
# 4 0.000000 0.000000 0.000000 0.059310 0.000000 0.000000
# 5 0.000000 0.000000 0.000000 0.000000 0.032382 0.000000
# 6 0.000000 0.000000 0.000000 0.000000 0.000000 0.018602
#
#
# Mechanical properties :
#
#
# Convention : Reuss Voigt Hill
#
# Bulk Modulus (GPa) = 34.51663 38.18225 36.34944
# Shear Modulus (GPa) = 19.89271 29.55937 24.72604
#
# Velocity S-wave (km/s) = 3.32495 4.05308 3.70693
# Velocity P-wave (km/s) = 5.82433 6.56680 6.20668
#
# Compressibility (1/GPa) = 0.02897154
#
# Stress axis : x y z
#
# Youngs Moduli (GPa) = 74.33338 51.09592 21.20411
#
# Poissons Ratio (x) = -0.08901 0.19765
# Poissons Ratio (y) = -0.12948 0.38225
# Poissons Ratio (z) = 0.69289 0.92111
#
# Static dielectric constant tensor:
#      x y z
#    x 1.649230 0.000000 0.000000 
#    y 0.000000 1.614080 0.000000 
#    z 0.000000 0.000000 1.633430 
# 
# From -- ./inp_files/70656.got.cif
#   From: 2010.05.17/outbox.cif.g08.bks.cpg/sg63_36_cif.got.tgz:70656.got - 2010.06.03 15:47:04.
