data_PCOD9472175
_publ_section_title
;
Structure prediction by ZEFSAII (Michael W. Deem and Ramdas Pophale) SiO2 
 PCOD9472175
Probable space group: C M C M
;
_chemical_formula_sum "Si O2"
_cell_formula_units_Z 116
_cell_length_a 28.172723
_cell_length_b 26.207032
_cell_length_c 7.481551
_cell_angle_alpha 90.000000
_cell_angle_beta 90.000000
_cell_angle_gamma 90.000000
_cell_volume 5523.804570
_symmetry_space_group_name_H-M "C M C M"
_symmetry_group_IT_number 63
_symmetry_cell_setting 'orthorhombic'
loop_
_space_group_symop_operation_xyz
x,y,z
-x,-y,1/2+z
x,-y,-z
-x,y,1/2-z
-x,-y,-z
x,y,1/2-z
-x,y,z
x,-y,1/2+z
1/2+x,1/2+y,z
1/2-x,1/2-y,1/2+z
1/2+x,1/2-y,-z
1/2-x,1/2+y,1/2-z
1/2-x,1/2-y,-z
1/2+x,1/2+y,1/2-z
1/2-x,1/2+y,z
1/2+x,1/2-y,1/2+z
loop_
_atom_site_type_symbol
_atom_site_label
_atom_site_fract_x
_atom_site_fract_y
_atom_site_fract_z
Si Si1 0.304765 0.743385 0.053248
Si Si2 0.651839 0.149404 0.459882
Si Si3 0.575507 0.405548 0.967003
Si Si4 0.679221 0.439914 0.537751
Si Si5 0.097264 0.206595 0.032137
Si Si6 0.552775 0.813310 0.034347
Si Si7 0.282667 0.059828 0.035737
Si Si8 0.500000 0.442046 0.250000
O O1 0.301069 0.720662 0.250000
O O2 0.347896 0.710954 0.964876
O O3 0.250000 0.750000 0.000000
O O4 0.327150 0.800162 0.052057
O O5 0.662700 0.156027 0.250000
O O6 0.595331 0.149495 0.481209
O O7 0.677186 0.098498 0.527768
O O8 0.569260 0.413919 0.750000
O O9 0.630007 0.416017 0.020010
O O10 0.569834 0.345358 0.008383
O O11 0.541079 0.437841 0.091090
O O12 0.676475 0.500000 0.500000
O O13 0.680524 0.431431 0.750000
O O14 0.730632 0.423574 0.465803
O O15 0.099884 0.208369 0.250000
O O16 0.069113 0.256876 0.973338
O O17 0.551850 0.812108 0.250000
O O18 0.500000 0.825665 0.970977
O O19 0.281377 0.063952 0.250000
O O20 0.290329 0.000000 0.000000
#
# Coordination Sequence:
#
# PCOD9472175 Si02
#       8
#    16  16  16  16  16  16  16   4
#     4  10  20  34  51  76 110 151 187 226 278 335
#     4  10  20  34  52  80 117 145 180 231 279 336
#     4  10  22  41  61  81 112 149 186 239 296 340
#     4   9  19  36  61  82 106 141 180 227 285 348
#     4   8  17  34  54  74 104 145 186 223 277 332
#     4   9  18  34  56  79 106 150 192 227 271 323
#     4   9  19  35  57  86 113 147 184 225 285 337
#     4  12  26  40  58  90 110 140 194 246 280 354
#
# _framework density 21.000019000000002
#
# number of rings (size 3 to 8) (size 9 to 14) (size 15 to 20)
#    0.000    2.621    0.000    1.862    3.862    1.379 
#    6.207    0.345    0.000    0.414    0.000    0.000 
#    0.000    0.000    0.000    0.000    0.000    0.000 
#
# Total GULP energy -322875.582394 kJ/mol
# GULP energy per Si atom -5566.820386 kJ/mol
# Density = 2.095222 g / cm^3
# Si number density = 21.000019 Si / 1000 Ang^3
#
#
#
# Elastic Constant Matrix: (Units=GPa)
#
#
# Indices 1 2 3 4 5 6 
#
# 1 147.3036 35.0456 11.8604 0.0000 0.0000 0.0000
# 2 35.0456 26.7507 -3.8453 0.0000 0.0000 0.0000
# 3 11.8604 -3.8453 75.1083 0.0000 0.0000 0.0000
# 4 0.0000 0.0000 0.0000 9.9449 0.0000 0.0000
# 5 0.0000 0.0000 0.0000 0.0000 21.8044 0.0000
# 6 0.0000 0.0000 0.0000 0.0000 0.0000 6.8019
#
#
#
# Elastic Compliance Matrix: (Units=1/GPa)
#
#
# Indices 1 2 3 4 5 6 
#
# 1 0.010250 -0.013762 -0.002323 0.000000 0.000000 0.000000
# 2 -0.013762 0.056138 0.005047 0.000000 0.000000 0.000000
# 3 -0.002323 0.005047 0.013939 0.000000 0.000000 0.000000
# 4 0.000000 0.000000 0.000000 0.100554 0.000000 0.000000
# 5 0.000000 0.000000 0.000000 0.000000 0.045862 0.000000
# 6 0.000000 0.000000 0.000000 0.000000 0.000000 0.147017
#
#
# Mechanical properties :
#
#
# Convention : Reuss Voigt Hill
#
# Bulk Modulus (GPa) = 17.16723 37.25378 27.21050
# Shear Modulus (GPa) = 12.04084 21.45036 16.74560
#
# Velocity S-wave (km/s) = 2.39712 3.19947 2.82691
# Velocity P-wave (km/s) = 3.98173 5.60600 4.86217
#
# Compressibility (1/GPa) = 0.05825052
#
# Stress axis : x y z
#
# Youngs Moduli (GPa) = 97.56091 17.81339 71.73926
#
# Poissons Ratio (x) = 0.24515 0.16666
# Poissons Ratio (y) = 1.34266 -0.36209
# Poissons Ratio (z) = 0.22665 -0.08991
#
# Static dielectric constant tensor:
#      x y z
#    x 1.784070 0.000000 0.000000 
#    y 0.000000 1.748130 0.000000 
#    z 0.000000 0.000000 1.893640 
# 
# From -- ./inp_files/13190.got.cif
#   From: 2010.05.17/outbox.cif.g08.bks.cpg/sg63_7_cif.got.tgz:13190.got - 2010.06.03 15:47:04.
