data_PCOD9472526
_publ_section_title
;
Structure prediction by ZEFSAII (Michael W. Deem and Ramdas Pophale) SiO2 
 PCOD9472526
Probable space group: C M C M
;
_chemical_formula_sum "Si O2"
_cell_formula_units_Z 84
_cell_length_a 12.647345
_cell_length_b 12.283585
_cell_length_c 27.702064
_cell_angle_alpha 90.000000
_cell_angle_beta 90.000000
_cell_angle_gamma 90.000000
_cell_volume 4303.646876
_symmetry_space_group_name_H-M "C M C M"
_symmetry_group_IT_number 63
_symmetry_cell_setting 'orthorhombic'
loop_
_space_group_symop_operation_xyz
x,y,z
-x,-y,1/2+z
x,-y,-z
-x,y,1/2-z
-x,-y,-z
x,y,1/2-z
-x,y,z
x,-y,1/2+z
1/2+x,1/2+y,z
1/2-x,1/2-y,1/2+z
1/2+x,1/2-y,-z
1/2-x,1/2+y,1/2-z
1/2-x,1/2-y,-z
1/2+x,1/2+y,1/2-z
1/2-x,1/2+y,z
1/2+x,1/2-y,1/2+z
loop_
_atom_site_type_symbol
_atom_site_label
_atom_site_fract_x
_atom_site_fract_y
_atom_site_fract_z
Si Si1 0.789825 0.241231 0.571121
Si Si2 0.161253 0.371438 0.838820
Si Si3 0.119475 0.123762 0.017933
Si Si4 0.000000 0.660280 0.250000
Si Si5 0.616635 0.303582 0.806899
Si Si6 0.116658 0.606506 0.618202
O O1 0.847956 0.281224 0.619090
O O2 0.864372 0.203614 0.527883
O O3 0.710609 0.338157 0.554528
O O4 0.710799 0.141654 0.583201
O O5 0.284565 0.374355 0.823625
O O6 0.128952 0.486775 0.860838
O O7 0.091592 0.343814 0.792587
O O8 0.000000 0.134658 0.037640
O O9 0.132534 0.000000 0.000000
O O10 0.625150 0.280504 0.750000
O O11 0.500000 0.352663 0.815668
O O12 0.621659 0.192473 0.837583
O O13 0.000000 0.617402 0.595524
#
# Coordination Sequence:
#
# PCOD9472526 Si02
#       6
#    16  16  16   4  16  16
#     4  10  22  39  59  89 121 154 195 251 295 364
#     4  11  22  37  59  86 121 156 205 246 306 354
#     4  10  21  39  64  89 119 154 195 240 308 366
#     4  12  24  36  58  92 120 166 194 258 304 362
#     4   9  19  34  55  77 106 148 200 249 290 343
#     4  10  20  34  57  83 113 157 201 240 288 348
#
# _framework density 19.518332000000001
#
# number of rings (size 3 to 8) (size 9 to 14) (size 15 to 20)
#    0.000    1.905    1.905    1.714    2.667    0.762 
#    0.000    0.952    2.095    6.286    0.000    0.000 
#    0.000    0.000    0.000    0.000    0.000    0.000 
#
# Total GULP energy -233886.824282 kJ/mol
# GULP energy per Si atom -5568.733911 kJ/mol
# Density = 1.947391 g / cm^3
# Si number density = 19.518332 Si / 1000 Ang^3
#
#
#
# Elastic Constant Matrix: (Units=GPa)
#
#
# Indices 1 2 3 4 5 6 
#
# 1 89.3048 28.2586 13.5808 0.0000 0.0000 0.0000
# 2 28.2586 46.0393 3.9924 0.0000 0.0000 0.0000
# 3 13.5808 3.9924 66.7245 0.0000 0.0000 0.0000
# 4 0.0000 0.0000 0.0000 7.8263 0.0000 0.0000
# 5 0.0000 0.0000 0.0000 0.0000 3.0802 0.0000
# 6 0.0000 0.0000 0.0000 0.0000 0.0000 5.1440
#
#
#
# Elastic Compliance Matrix: (Units=1/GPa)
#
#
# Indices 1 2 3 4 5 6 
#
# 1 0.014267 -0.008549 -0.002392 0.000000 0.000000 0.000000
# 2 -0.008549 0.026957 0.000127 0.000000 0.000000 0.000000
# 3 -0.002392 0.000127 0.015466 0.000000 0.000000 0.000000
# 4 0.000000 0.000000 0.000000 0.127774 0.000000 0.000000
# 5 0.000000 0.000000 0.000000 0.000000 0.324653 0.000000
# 6 0.000000 0.000000 0.000000 0.000000 0.000000 0.194402
#
#
# Mechanical properties :
#
#
# Convention : Reuss Voigt Hill
#
# Bulk Modulus (GPa) = 28.52154 32.63690 30.57922
# Shear Modulus (GPa) = 6.78578 13.62589 10.20583
#
# Velocity S-wave (km/s) = 1.86659 2.64504 2.28915
# Velocity P-wave (km/s) = 4.39203 5.10742 4.76318
#
# Compressibility (1/GPa) = 0.03506122
#
# Stress axis : x y z
#
# Youngs Moduli (GPa) = 70.09346 37.09595 64.65675
#
# Poissons Ratio (x) = 0.31715 0.15467
# Poissons Ratio (y) = 0.59925 -0.00822
# Poissons Ratio (z) = 0.16768 -0.00472
#
# Static dielectric constant tensor:
#      x y z
#    x 1.704310 0.000000 0.000000 
#    y 0.000000 1.655210 0.000000 
#    z 0.000000 0.000000 1.669780 
# 
# From -- ./inp_files/72622.got.cif
#   From: 2010.05.17/outbox.cif.g08.bks.cpg/sg63_37_cif.got.tgz:72622.got - 2010.06.03 15:47:04.
