data_PCOD9472544
_publ_section_title
;
Structure prediction by ZEFSAII (Michael W. Deem and Ramdas Pophale) SiO2 
 PCOD9472544
Probable space group: C M C M
;
_chemical_formula_sum "Si O2"
_cell_formula_units_Z 104
_cell_length_a 20.558888
_cell_length_b 8.394878
_cell_length_c 28.566429
_cell_angle_alpha 90.000000
_cell_angle_beta 90.000000
_cell_angle_gamma 90.000000
_cell_volume 4930.261601
_symmetry_space_group_name_H-M "C M C M"
_symmetry_group_IT_number 63
_symmetry_cell_setting 'orthorhombic'
loop_
_space_group_symop_operation_xyz
x,y,z
-x,-y,1/2+z
x,-y,-z
-x,y,1/2-z
-x,-y,-z
x,y,1/2-z
-x,y,z
x,-y,1/2+z
1/2+x,1/2+y,z
1/2-x,1/2-y,1/2+z
1/2+x,1/2-y,-z
1/2-x,1/2+y,1/2-z
1/2-x,1/2-y,-z
1/2+x,1/2+y,1/2-z
1/2-x,1/2+y,z
1/2+x,1/2-y,1/2+z
loop_
_atom_site_type_symbol
_atom_site_label
_atom_site_fract_x
_atom_site_fract_y
_atom_site_fract_z
Si Si1 0.117412 0.645714 0.964392
Si Si2 0.500000 0.627289 0.454206
Si Si3 0.223257 0.089085 0.049241
Si Si4 0.705084 0.919457 0.196186
Si Si5 0.392635 0.563470 0.895347
Si Si6 0.854833 0.585584 0.391197
Si Si7 0.155456 0.059193 0.303803
O O1 0.057749 0.759592 0.976024
O O2 0.183197 0.748778 0.960404
O O3 0.107249 0.563200 0.913912
O O4 0.121019 0.500000 0.000000
O O5 0.555937 0.514580 0.429784
O O6 0.177401 0.986600 0.083567
O O7 0.208761 0.388265 0.924226
O O8 0.228574 0.000000 0.000000
O O9 0.689850 0.962008 0.250000
O O10 0.670046 0.033758 0.159501
O O11 0.782572 0.941577 0.190928
O O12 0.683124 0.737600 0.188187
O O13 0.395193 0.752927 0.891881
O O14 0.395381 0.486296 0.843735
O O15 0.132513 0.050097 0.250000
#
# Coordination Sequence:
#
# PCOD9472544 Si02
#       7
#    16   8  16  16  16  16  16
#     4  11  24  43  65  91 121 168 217 265 313 374
#     4  10  25  46  64  82 120 166 218 264 304 358
#     4  11  23  40  62  93 129 160 196 253 321 385
#     4  10  20  34  57  92 130 165 199 244 307 385
#     4  11  23  40  62  89 124 164 207 257 313 367
#     4  12  23  37  64  96 128 161 202 260 324 387
#     4  10  20  36  59  90 128 167 207 251 308 376
#
# _framework density 21.094214000000001
#
# number of rings (size 3 to 8) (size 9 to 14) (size 15 to 20)
#    0.000    1.231    1.538    5.308    0.000    4.308 
#    0.000   13.462    0.000    0.923    0.000    1.077 
#    0.000    0.000    0.000    0.000    0.000    0.000 
#
# Total GULP energy -289968.085784 kJ/mol
# GULP energy per Si atom -5576.309342 kJ/mol
# Density = 2.104620 g / cm^3
# Si number density = 21.094214 Si / 1000 Ang^3
#
#
#
# Elastic Constant Matrix: (Units=GPa)
#
#
# Indices 1 2 3 4 5 6 
#
# 1 35.2404 6.3590 11.5872 0.0000 0.0000 0.0000
# 2 6.3590 105.4585 57.5679 0.0000 0.0000 0.0000
# 3 11.5872 57.5679 92.4554 0.0000 0.0000 0.0000
# 4 0.0000 0.0000 0.0000 34.4316 0.0000 0.0000
# 5 0.0000 0.0000 0.0000 0.0000 -6.2410 0.0000
# 6 0.0000 0.0000 0.0000 0.0000 0.0000 -38.5859
#
#
#
# Elastic Compliance Matrix: (Units=1/GPa)
#
#
# Indices 1 2 3 4 5 6 
#
# 1 0.029605 0.000364 -0.003937 0.000000 0.000000 0.000000
# 2 0.000364 0.014370 -0.008993 0.000000 0.000000 0.000000
# 3 -0.003937 -0.008993 0.016909 0.000000 0.000000 0.000000
# 4 0.000000 0.000000 0.000000 0.029043 0.000000 0.000000
# 5 0.000000 0.000000 0.000000 0.000000 -0.160232 0.000000
# 6 0.000000 0.000000 0.000000 0.000000 0.000000 -0.025916
#
#
# Mechanical properties :
#
#
# Convention : Reuss Voigt Hill
#
# Bulk Modulus (GPa) = 27.97051 42.68696 35.32873
# Shear Modulus (GPa) = -84.49962 8.43028 -38.03467
#
# Velocity S-wave (km/s) = -6.33602 2.00129 -4.25088
# Velocity P-wave (km/s) = 6.34337 5.06167 2.70350
#
# Compressibility (1/GPa) = 0.03575194
#
# Stress axis : x y z
#
# Youngs Moduli (GPa) = 33.77771 69.59177 59.14043
#
# Poissons Ratio (x) = -0.02533 0.23283
# Poissons Ratio (y) = -0.01229 0.53184
# Poissons Ratio (z) = 0.13298 0.62583
#
# Static dielectric constant tensor:
#      x y z
#    x 1.745740 0.000000 0.000000 
#    y 0.000000 1.793840 0.000000 
#    z 0.000000 0.000000 1.811860 
# 
# From -- ./inp_files/70676.got.cif
#   From: 2010.05.17/outbox.cif.g08.bks.cpg/sg63_36_cif.got.tgz:70676.got - 2010.06.03 15:47:04.
