data_PCOD9472189
_publ_section_title
;
Structure prediction by ZEFSAII (Michael W. Deem and Ramdas Pophale) SiO2 
 PCOD9472189
Probable space group: C M C M
;
_chemical_formula_sum "Si O2"
_cell_formula_units_Z 96
_cell_length_a 7.619048
_cell_length_b 31.150726
_cell_length_c 19.701420
_cell_angle_alpha 90.000000
_cell_angle_beta 90.000000
_cell_angle_gamma 90.000000
_cell_volume 4675.912891
_symmetry_space_group_name_H-M "C M C M"
_symmetry_group_IT_number 63
_symmetry_cell_setting 'orthorhombic'
loop_
_space_group_symop_operation_xyz
x,y,z
-x,-y,1/2+z
x,-y,-z
-x,y,1/2-z
-x,-y,-z
x,y,1/2-z
-x,y,z
x,-y,1/2+z
1/2+x,1/2+y,z
1/2-x,1/2-y,1/2+z
1/2+x,1/2-y,-z
1/2-x,1/2+y,1/2-z
1/2-x,1/2-y,-z
1/2+x,1/2+y,1/2-z
1/2-x,1/2+y,z
1/2+x,1/2-y,1/2+z
loop_
_atom_site_type_symbol
_atom_site_label
_atom_site_fract_x
_atom_site_fract_y
_atom_site_fract_z
Si Si1 0.711739 0.456728 0.172895
Si Si2 0.292440 0.944566 0.673077
Si Si3 0.289999 0.702915 0.173128
Si Si4 0.215642 0.120939 0.578841
Si Si5 0.704377 0.369505 0.926254
Si Si6 0.788774 0.800841 0.327138
O O1 0.773079 0.447432 0.250000
O O2 0.500000 0.454882 0.174100
O O3 0.761934 0.505540 0.156350
O O4 0.773465 0.421511 0.119267
O O5 0.223865 0.937241 0.750000
O O6 0.500000 0.936769 0.674064
O O7 0.213520 0.912322 0.618751
O O8 0.220544 0.696501 0.250000
O O9 0.500000 0.696615 0.176844
O O10 0.218055 0.668958 0.119112
O O11 0.258030 0.752237 0.153485
O O12 0.278025 0.123370 0.501347
O O13 0.271538 0.162818 0.621118
O O14 0.000000 0.119914 0.578735
O O15 0.500000 0.358445 0.936973
O O16 0.724351 0.808242 0.250000
O O17 0.000000 0.803462 0.325116
#
# Coordination Sequence:
#
# PCOD9472189 Si02
#       6
#    16  16  16  16  16  16
#     4   9  17  32  55  77  97 127 167 206 244 290
#     4  10  21  36  53  74 100 128 162 206 250 292
#     4   9  18  32  49  70  96 127 165 206 246 291
#     4   9  18  32  51  76 102 129 165 206 244 288
#     4  10  20  34  52  73 100 134 168 202 243 293
#     4   9  17  31  52  75  99 129 165 205 248 291
#
# _framework density 20.530750999999999
#
# number of rings (size 3 to 8) (size 9 to 14) (size 15 to 20)
#    0.000    2.667    0.000    1.500    0.000    5.667 
#    0.000    7.500    0.000    4.000    0.000    0.000 
#    0.000    0.000    0.000    0.000    0.000    0.000 
#
# Total GULP energy -267934.650919 kJ/mol
# GULP energy per Si atom -5581.971894 kJ/mol
# Density = 2.048402 g / cm^3
# Si number density = 20.530751 Si / 1000 Ang^3
#
#
#
# Elastic Constant Matrix: (Units=GPa)
#
#
# Indices 1 2 3 4 5 6 
#
# 1 38.9099 -12.7160 -2.0498 0.0000 0.0000 0.0000
# 2 -12.7160 131.3187 121.6862 0.0000 0.0000 0.0000
# 3 -2.0498 121.6862 157.2554 0.0000 0.0000 0.0000
# 4 0.0000 0.0000 0.0000 -56.7121 0.0000 0.0000
# 5 0.0000 0.0000 0.0000 0.0000 3.7097 0.0000
# 6 0.0000 0.0000 0.0000 0.0000 0.0000 -25.8246
#
#
#
# Elastic Compliance Matrix: (Units=1/GPa)
#
#
# Indices 1 2 3 4 5 6 
#
# 1 0.028130 0.008426 -0.006153 0.000000 0.000000 0.000000
# 2 0.008426 0.029437 -0.022669 0.000000 0.000000 0.000000
# 3 -0.006153 -0.022669 0.023820 0.000000 0.000000 0.000000
# 4 0.000000 0.000000 0.000000 -0.017633 0.000000 0.000000
# 5 0.000000 0.000000 0.000000 0.000000 0.269564 0.000000
# 6 0.000000 0.000000 0.000000 0.000000 0.000000 -0.038723
#
#
# Mechanical properties :
#
#
# Convention : Reuss Voigt Hill
#
# Bulk Modulus (GPa) = 24.63386 60.14719 42.39052
# Shear Modulus (GPa) = 14.32992 -1.06117 6.63438
#
# Velocity S-wave (km/s) = 2.64479 -0.71971 1.79957
# Velocity P-wave (km/s) = 4.62072 5.35435 5.00101
#
# Compressibility (1/GPa) = 0.04059453
#
# Stress axis : x y z
#
# Youngs Moduli (GPa) = 35.54937 33.97069 41.98079
#
# Poissons Ratio (x) = -0.28624 0.25833
# Poissons Ratio (y) = -0.29954 0.95166
# Poissons Ratio (z) = 0.21875 0.77008
#
# Static dielectric constant tensor:
#      x y z
#    x 1.780240 0.000000 0.000000 
#    y 0.000000 1.691160 0.000000 
#    z 0.000000 0.000000 1.727400 
# 
# From -- ./inp_files/51263.got.cif
#   From: 2010.05.17/outbox.cif.g08.bks.cpg/sg63_26_cif.got.tgz:51263.got - 2010.06.03 15:47:04.
