data_PCOD9472779
_publ_section_title
;
Structure prediction by ZEFSAII (Michael W. Deem and Ramdas Pophale) SiO2 
 PCOD9472779
Probable space group: C M C M
;
_chemical_formula_sum "Si O2"
_cell_formula_units_Z 116
_cell_length_a 8.891361
_cell_length_b 24.059754
_cell_length_c 27.508768
_cell_angle_alpha 90.000000
_cell_angle_beta 90.000000
_cell_angle_gamma 90.000000
_cell_volume 5884.784541
_symmetry_space_group_name_H-M "C M C M"
_symmetry_group_IT_number 63
_symmetry_cell_setting 'orthorhombic'
loop_
_space_group_symop_operation_xyz
x,y,z
-x,-y,1/2+z
x,-y,-z
-x,y,1/2-z
-x,-y,-z
x,y,1/2-z
-x,y,z
x,-y,1/2+z
1/2+x,1/2+y,z
1/2-x,1/2-y,1/2+z
1/2+x,1/2-y,-z
1/2-x,1/2+y,1/2-z
1/2-x,1/2-y,-z
1/2+x,1/2+y,1/2-z
1/2-x,1/2+y,z
1/2+x,1/2-y,1/2+z
loop_
_atom_site_type_symbol
_atom_site_label
_atom_site_fract_x
_atom_site_fract_y
_atom_site_fract_z
Si Si1 0.179588 0.194954 0.475002
Si Si2 0.178578 0.302609 0.631450
Si Si3 0.679901 0.114038 0.549734
Si Si4 0.175977 0.069630 0.806046
Si Si5 0.323814 0.678061 0.860667
Si Si6 0.000000 0.943510 0.750000
Si Si7 0.664484 0.591492 0.345027
Si Si8 0.676819 0.993058 0.106769
O O1 0.250000 0.250000 0.500000
O O2 0.241496 0.193011 0.420591
O O3 0.237163 0.140966 0.504169
O O4 0.000000 0.198800 0.476755
O O5 0.214896 0.241235 0.651358
O O6 0.236080 0.354192 0.662596
O O7 0.000000 0.306340 0.625079
O O8 0.500000 0.115565 0.543190
O O9 0.726500 0.153126 0.595322
O O10 0.723269 0.050878 0.564886
O O11 0.200849 0.056839 0.750000
O O12 0.189971 0.135249 0.816416
O O13 0.285946 0.040009 0.843424
O O14 0.000000 0.054874 0.817059
O O15 0.500000 0.676844 0.876431
O O16 0.128592 0.938351 0.706232
O O17 0.500000 0.609903 0.363129
O O18 0.736349 0.550288 0.384553
O O19 0.500000 0.003478 0.101674
#
# Coordination Sequence:
#
# PCOD9472779 Si02
#       8
#    16  16  16  16  16   4  16  16
#     4  12  23  36  59  90 124 163 208 250 291 359
#     4  11  22  38  61  88 121 159 202 253 305 357
#     4  10  20  35  56  86 123 155 195 246 305 358
#     4   9  18  32  52  78 110 147 188 235 297 363
#     4   9  18  33  53  79 112 151 191 239 297 359
#     4   8  24  44  66  84 114 156 222 248 296 368
#     4  10  22  42  63  84 114 155 203 247 302 358
#     4  10  21  36  58  86 118 150 192 253 308 358
#
# _framework density 19.711850999999999
#
# number of rings (size 3 to 8) (size 9 to 14) (size 15 to 20)
#    0.414    1.517    1.379    2.897    0.966    2.483 
#    1.241    1.724    0.000    4.138    0.000    0.000 
#    0.000    0.000    0.000    0.000    0.000    0.000 
#
# Total GULP energy -323092.991618 kJ/mol
# GULP energy per Si atom -5570.568821 kJ/mol
# Density = 1.966699 g / cm^3
# Si number density = 19.711851 Si / 1000 Ang^3
#
#
#
# Elastic Constant Matrix: (Units=GPa)
#
#
# Indices 1 2 3 4 5 6 
#
# 1 64.9563 16.8690 1.0424 0.0000 0.0000 0.0000
# 2 16.8690 80.1823 -2.8606 0.0000 0.0000 0.0000
# 3 1.0424 -2.8606 23.6792 0.0000 0.0000 0.0000
# 4 0.0000 0.0000 0.0000 16.0272 0.0000 0.0000
# 5 0.0000 0.0000 0.0000 0.0000 3.5391 0.0000
# 6 0.0000 0.0000 0.0000 0.0000 0.0000 31.0548
#
#
#
# Elastic Compliance Matrix: (Units=1/GPa)
#
#
# Indices 1 2 3 4 5 6 
#
# 1 0.016315 -0.003473 -0.001138 0.000000 0.000000 0.000000
# 2 -0.003473 0.013265 0.001755 0.000000 0.000000 0.000000
# 3 -0.001138 0.001755 0.042493 0.000000 0.000000 0.000000
# 4 0.000000 0.000000 0.000000 0.062394 0.000000 0.000000
# 5 0.000000 0.000000 0.000000 0.000000 0.282556 0.000000
# 6 0.000000 0.000000 0.000000 0.000000 0.000000 0.032201
#
#
# Mechanical properties :
#
#
# Convention : Reuss Voigt Hill
#
# Bulk Modulus (GPa) = 15.06876 22.10216 18.58546
# Shear Modulus (GPa) = 10.48096 20.37537 15.42816
#
# Velocity S-wave (km/s) = 2.30838 3.21855 2.80069
# Velocity P-wave (km/s) = 3.84265 5.00490 4.46178
#
# Compressibility (1/GPa) = 0.06636246
#
# Stress axis : x y z
#
# Youngs Moduli (GPa) = 61.29271 75.38709 23.53312
#
# Poissons Ratio (x) = 0.26182 0.02678
# Poissons Ratio (y) = 0.21287 -0.04131
# Poissons Ratio (z) = 0.06974 -0.13233
#
# Static dielectric constant tensor:
#      x y z
#    x 1.683010 0.000000 0.000000 
#    y 0.000000 1.760380 0.000000 
#    z 0.000000 0.000000 1.667760 
# 
# From -- ./inp_files/72072.got.cif
#   From: 2010.05.17/outbox.cif.g08.bks.cpg/sg63_37_cif.got.tgz:72072.got - 2010.06.03 15:47:04.
