data_PCOD9472057
_publ_section_title
;
Structure prediction by ZEFSAII (Michael W. Deem and Ramdas Pophale) SiO2 
 PCOD9472057
Probable space group: C M C M
;
_chemical_formula_sum "Si O2"
_cell_formula_units_Z 64
_cell_length_a 13.457797
_cell_length_b 9.108479
_cell_length_c 23.591547
_cell_angle_alpha 90.000000
_cell_angle_beta 90.000000
_cell_angle_gamma 90.000000
_cell_volume 2891.853279
_symmetry_space_group_name_H-M "C M C M"
_symmetry_group_IT_number 63
_symmetry_cell_setting 'orthorhombic'
loop_
_space_group_symop_operation_xyz
x,y,z
-x,-y,1/2+z
x,-y,-z
-x,y,1/2-z
-x,-y,-z
x,y,1/2-z
-x,y,z
x,-y,1/2+z
1/2+x,1/2+y,z
1/2-x,1/2-y,1/2+z
1/2+x,1/2-y,-z
1/2-x,1/2+y,1/2-z
1/2-x,1/2-y,-z
1/2+x,1/2+y,1/2-z
1/2-x,1/2+y,z
1/2+x,1/2-y,1/2+z
loop_
_atom_site_type_symbol
_atom_site_label
_atom_site_fract_x
_atom_site_fract_y
_atom_site_fract_z
Si Si1 0.390400 0.923309 0.940214
Si Si2 0.267232 0.317973 0.870088
Si Si3 0.385643 0.341185 0.518769
Si Si4 0.615989 0.423617 0.317719
O O1 0.500000 0.963535 0.920562
O O2 0.311431 0.940051 0.892001
O O3 0.386390 0.755544 0.962186
O O4 0.373841 0.000000 0.000000
O O5 0.324237 0.276316 0.928739
O O6 0.345662 0.412118 0.833545
O O7 0.196476 0.195045 0.841814
O O8 0.348007 0.500000 0.500000
O O9 0.500000 0.355307 0.537423
O O10 0.615748 0.408078 0.250000
O O11 0.500000 0.401363 0.337459
#
# Coordination Sequence:
#
# PCOD9472057 Si02
#       4
#    16  16  16  16
#     4  10  20  33  52  86 128 162 198 244 296 366
#     4  12  21  39  67  91 123 170 211 255 315 374
#     4  10  20  34  56  91 131 167 203 245 300 371
#     4  11  26  46  66  92 124 160 213 275 325 372
#
# _framework density 22.131135
#
# number of rings (size 3 to 8) (size 9 to 14) (size 15 to 20)
#    0.000    1.250    0.000    6.750    0.000    2.000 
#    0.000    3.750    0.000    9.000    0.000    0.000 
#    0.000    0.000    0.000    0.000    0.000    0.000 
#
# Total GULP energy -178582.423161 kJ/mol
# GULP energy per Si atom -5580.700724 kJ/mol
# Density = 2.208076 g / cm^3
# Si number density = 22.131135 Si / 1000 Ang^3
#
#
#
# Elastic Constant Matrix: (Units=GPa)
#
#
# Indices 1 2 3 4 5 6 
#
# 1 170.7234 18.1165 44.7785 0.0000 0.0000 0.0000
# 2 18.1165 71.7167 11.1057 0.0000 0.0000 0.0000
# 3 44.7785 11.1057 80.8463 0.0000 0.0000 0.0000
# 4 0.0000 0.0000 0.0000 24.2289 0.0000 0.0000
# 5 0.0000 0.0000 0.0000 0.0000 34.4838 0.0000
# 6 0.0000 0.0000 0.0000 0.0000 0.0000 31.1769
#
#
#
# Elastic Compliance Matrix: (Units=1/GPa)
#
#
# Indices 1 2 3 4 5 6 
#
# 1 0.006950 -0.001185 -0.003687 0.000000 0.000000 0.000000
# 2 -0.001185 0.014449 -0.001329 0.000000 0.000000 0.000000
# 3 -0.003687 -0.001329 0.014594 0.000000 0.000000 0.000000
# 4 0.000000 0.000000 0.000000 0.041273 0.000000 0.000000
# 5 0.000000 0.000000 0.000000 0.000000 0.028999 0.000000
# 6 0.000000 0.000000 0.000000 0.000000 0.000000 0.032075
#
#
# Mechanical properties :
#
#
# Convention : Reuss Voigt Hill
#
# Bulk Modulus (GPa) = 42.38662 52.36533 47.37597
# Shear Modulus (GPa) = 31.52503 34.59695 33.06099
#
# Velocity S-wave (km/s) = 3.77830 3.95811 3.86925
# Velocity P-wave (km/s) = 6.18289 6.67844 6.43544
#
# Compressibility (1/GPa) = 0.02359235
#
# Stress axis : x y z
#
# Youngs Moduli (GPa) = 143.88203 69.21000 68.52297
#
# Poissons Ratio (x) = 0.08200 0.25263
# Poissons Ratio (y) = 0.17047 0.09104
# Poissons Ratio (z) = 0.53046 0.09195
#
# Static dielectric constant tensor:
#      x y z
#    x 1.908860 0.000000 0.000000 
#    y 0.000000 1.962600 0.000000 
#    z 0.000000 0.000000 1.771110 
# 
# From -- ./inp_files/62344.got.cif
#   From: 2010.05.17/outbox.cif.g08.bks.cpg/sg63_32_cif.got.tgz:62344.got - 2010.06.03 15:47:04.
