data_PCOD9472451
_publ_section_title
;
Structure prediction by ZEFSAII (Michael W. Deem and Ramdas Pophale) SiO2 
 PCOD9472451
Probable space group: C M C M
;
_chemical_formula_sum "Si O2"
_cell_formula_units_Z 80
_cell_length_a 8.768108
_cell_length_b 15.344324
_cell_length_c 31.029588
_cell_angle_alpha 90.000000
_cell_angle_beta 90.000000
_cell_angle_gamma 90.000000
_cell_volume 4174.742181
_symmetry_space_group_name_H-M "C M C M"
_symmetry_group_IT_number 63
_symmetry_cell_setting 'orthorhombic'
loop_
_space_group_symop_operation_xyz
x,y,z
-x,-y,1/2+z
x,-y,-z
-x,y,1/2-z
-x,-y,-z
x,y,1/2-z
-x,y,z
x,-y,1/2+z
1/2+x,1/2+y,z
1/2-x,1/2-y,1/2+z
1/2+x,1/2-y,-z
1/2-x,1/2+y,1/2-z
1/2-x,1/2-y,-z
1/2+x,1/2+y,1/2-z
1/2-x,1/2+y,z
1/2+x,1/2-y,1/2+z
loop_
_atom_site_type_symbol
_atom_site_label
_atom_site_fract_x
_atom_site_fract_y
_atom_site_fract_z
Si Si1 0.814144 0.625293 0.700731
Si Si2 0.314277 0.279393 0.862024
Si Si3 0.329406 0.269657 0.544794
Si Si4 0.326197 0.521274 0.453105
Si Si5 0.317433 0.972742 0.636594
O O1 0.761012 0.623069 0.750000
O O2 0.769102 0.712783 0.675343
O O3 0.767208 0.541370 0.672878
O O4 0.000000 0.624811 0.701289
O O5 0.500000 0.283794 0.864000
O O6 0.261007 0.243279 0.908937
O O7 0.251639 0.376724 0.855826
O O8 0.500000 0.233151 0.542260
O O9 0.250000 0.250000 0.500000
O O10 0.336049 0.374223 0.548592
O O11 0.258860 0.500000 0.500000
O O12 0.500000 0.485787 0.451827
O O13 0.235646 0.494629 0.410625
O O14 0.500000 0.966660 0.636936
#
# Coordination Sequence:
#
# PCOD9472451 Si02
#       5
#    16  16  16  16  16
#     4   9  19  36  58  82 108 143 183 223 275 329
#     4   9  19  37  56  75 107 147 183 217 263 329
#     4   9  18  30  47  72 101 134 172 213 257 308
#     4   9  19  35  52  73 105 145 180 213 264 325
#     4  10  20  34  55  83 111 139 178 230 276 316
#
# _framework density 19.162860999999999
#
# number of rings (size 3 to 8) (size 9 to 14) (size 15 to 20)
#    0.000    2.800    0.000    1.800    2.800    4.400 
#    0.000    2.000    0.000    4.200    0.000    0.000 
#    0.000    0.000    0.000    0.000    0.000    0.000 
#
# Total GULP energy -222936.284517 kJ/mol
# GULP energy per Si atom -5573.407113 kJ/mol
# Density = 1.911925 g / cm^3
# Si number density = 19.162861 Si / 1000 Ang^3
#
#
#
# Elastic Constant Matrix: (Units=GPa)
#
#
# Indices 1 2 3 4 5 6 
#
# 1 23.6097 19.7641 36.7724 0.0000 0.0000 0.0000
# 2 19.7641 84.1738 85.9034 0.0000 0.0000 0.0000
# 3 36.7724 85.9034 223.5405 0.0000 0.0000 0.0000
# 4 0.0000 0.0000 0.0000 35.6898 0.0000 0.0000
# 5 0.0000 0.0000 0.0000 0.0000 22.4902 0.0000
# 6 0.0000 0.0000 0.0000 0.0000 0.0000 15.3120
#
#
#
# Elastic Compliance Matrix: (Units=1/GPa)
#
#
# Indices 1 2 3 4 5 6 
#
# 1 0.059030 -0.006499 -0.007213 0.000000 0.000000 0.000000
# 2 -0.006499 0.020261 -0.006717 0.000000 0.000000 0.000000
# 3 -0.007213 -0.006717 0.008241 0.000000 0.000000 0.000000
# 4 0.000000 0.000000 0.000000 0.028019 0.000000 0.000000
# 5 0.000000 0.000000 0.000000 0.000000 0.044464 0.000000
# 6 0.000000 0.000000 0.000000 0.000000 0.000000 0.065308
#
#
# Mechanical properties :
#
#
# Convention : Reuss Voigt Hill
#
# Bulk Modulus (GPa) = 21.42501 68.46709 44.94605
# Shear Modulus (GPa) = 17.74683 27.29066 22.51874
#
# Velocity S-wave (km/s) = 3.04650 3.77788 3.43173
# Velocity P-wave (km/s) = 4.85589 7.40516 6.26163
#
# Compressibility (1/GPa) = 0.04667443
#
# Stress axis : x y z
#
# Youngs Moduli (GPa) = 16.94046 49.35550 121.34138
#
# Poissons Ratio (x) = 0.32077 0.87522
# Poissons Ratio (y) = 0.11010 0.81504
# Poissons Ratio (z) = 0.12219 0.33152
#
# Static dielectric constant tensor:
#      x y z
#    x 1.684570 0.000000 0.000000 
#    y 0.000000 1.657690 0.000000 
#    z 0.000000 0.000000 1.693450 
# 
# From -- ./inp_files/66616.got.cif
#   From: 2010.05.17/outbox.cif.g08.bks.cpg/sg63_34_cif.got.tgz:66616.got - 2010.06.03 15:47:04.
