data_PCOD9472384
_publ_section_title
;
Structure prediction by ZEFSAII (Michael W. Deem and Ramdas Pophale) SiO2 
 PCOD9472384
Probable space group: C M C M
;
_chemical_formula_sum "Si O2"
_cell_formula_units_Z 80
_cell_length_a 9.787959
_cell_length_b 14.332115
_cell_length_c 30.311666
_cell_angle_alpha 90.000000
_cell_angle_beta 90.000000
_cell_angle_gamma 90.000000
_cell_volume 4252.185798
_symmetry_space_group_name_H-M "C M C M"
_symmetry_group_IT_number 63
_symmetry_cell_setting 'orthorhombic'
loop_
_space_group_symop_operation_xyz
x,y,z
-x,-y,1/2+z
x,-y,-z
-x,y,1/2-z
-x,-y,-z
x,y,1/2-z
-x,y,z
x,-y,1/2+z
1/2+x,1/2+y,z
1/2-x,1/2-y,1/2+z
1/2+x,1/2-y,-z
1/2-x,1/2+y,1/2-z
1/2-x,1/2-y,-z
1/2+x,1/2+y,1/2-z
1/2-x,1/2+y,z
1/2+x,1/2-y,1/2+z
loop_
_atom_site_type_symbol
_atom_site_label
_atom_site_fract_x
_atom_site_fract_y
_atom_site_fract_z
Si Si1 0.339043 0.626749 0.882959
Si Si2 0.343372 0.849048 0.879540
Si Si3 0.843355 0.146766 0.298760
Si Si4 0.839300 0.507460 0.948257
Si Si5 0.343970 0.873885 0.300099
O O1 0.500000 0.604118 0.882394
O O2 0.324660 0.738870 0.887172
O O3 0.258556 0.578339 0.922705
O O4 0.263961 0.599022 0.837307
O O5 0.500000 0.863105 0.865652
O O6 0.247212 0.881733 0.839911
O O7 0.320364 0.908879 0.923372
O O8 0.793046 0.119167 0.250000
O O9 0.844447 0.260347 0.299357
O O10 0.000000 0.115782 0.303494
O O11 0.000000 0.533923 0.943244
O O12 0.809795 0.500000 0.000000
O O13 0.311791 0.903678 0.250000
O O14 0.500000 0.903166 0.310927
#
# Coordination Sequence:
#
# PCOD9472384 Si02
#       5
#    16  16  16  16  16
#     4  10  20  34  54  81 110 136 168 216 267 310
#     4   9  19  35  54  78 107 137 171 213 261 310
#     4   8  14  26  47  76 107 138 172 208 248 299
#     4  10  22  40  58  75 100 137 179 220 264 319
#     4   8  14  27  49  76 106 141 177 208 244 300
#
# _framework density 18.813853000000002
#
# number of rings (size 3 to 8) (size 9 to 14) (size 15 to 20)
#    0.000    3.000    0.000    1.800    0.000    3.600 
#    0.000    5.000    0.000    1.200    0.000    0.000 
#    0.000    0.000    0.000    0.000    0.000    0.000 
#
# Total GULP energy -223160.931403 kJ/mol
# GULP energy per Si atom -5579.023285 kJ/mol
# Density = 1.877103 g / cm^3
# Si number density = 18.813853 Si / 1000 Ang^3
#
#
#
# Elastic Constant Matrix: (Units=GPa)
#
#
# Indices 1 2 3 4 5 6 
#
# 1 119.4878 53.1190 123.7596 0.0000 0.0000 0.0000
# 2 53.1190 64.3563 47.0810 0.0000 0.0000 0.0000
# 3 123.7596 47.0810 192.4173 0.0000 0.0000 0.0000
# 4 0.0000 0.0000 0.0000 33.6115 0.0000 0.0000
# 5 0.0000 0.0000 0.0000 0.0000 56.5702 0.0000
# 6 0.0000 0.0000 0.0000 0.0000 0.0000 16.2172
#
#
#
# Elastic Compliance Matrix: (Units=1/GPa)
#
#
# Indices 1 2 3 4 5 6 
#
# 1 0.033315 -0.014399 -0.017904 0.000000 0.000000 0.000000
# 2 -0.014399 0.025150 0.003108 0.000000 0.000000 0.000000
# 3 -0.017904 0.003108 0.015952 0.000000 0.000000 0.000000
# 4 0.000000 0.000000 0.000000 0.029752 0.000000 0.000000
# 5 0.000000 0.000000 0.000000 0.000000 0.017677 0.000000
# 6 0.000000 0.000000 0.000000 0.000000 0.000000 0.061663
#
#
# Mechanical properties :
#
#
# Convention : Reuss Voigt Hill
#
# Bulk Modulus (GPa) = 62.40135 91.57562 76.98849
# Shear Modulus (GPa) = 20.22309 31.43323 25.82816
#
# Velocity S-wave (km/s) = 3.28213 4.09191 3.70919
# Velocity P-wave (km/s) = 6.89949 8.43239 7.70416
#
# Compressibility (1/GPa) = 0.01602529
#
# Stress axis : x y z
#
# Youngs Moduli (GPa) = 30.01692 39.76129 62.68704
#
# Poissons Ratio (x) = 0.57254 1.12235
# Poissons Ratio (y) = 0.43222 -0.19481
# Poissons Ratio (z) = 0.53743 -0.12356
#
# Static dielectric constant tensor:
#      x y z
#    x 1.639120 0.000000 0.000000 
#    y 0.000000 1.694730 0.000000 
#    z 0.000000 0.000000 1.618190 
# 
# From -- ./inp_files/71565.got.cif
#   From: 2010.05.17/outbox.cif.g08.bks.cpg/sg63_36_cif.got.tgz:71565.got - 2010.06.03 15:47:04.
