data_PCOD9472773
_publ_section_title
;
Structure prediction by ZEFSAII (Michael W. Deem and Ramdas Pophale) SiO2 
 PCOD9472773
Probable space group: C M C M
;
_chemical_formula_sum "Si O2"
_cell_formula_units_Z 96
_cell_length_a 23.312343
_cell_length_b 7.504685
_cell_length_c 24.586952
_cell_angle_alpha 90.000000
_cell_angle_beta 90.000000
_cell_angle_gamma 90.000000
_cell_volume 4301.531283
_symmetry_space_group_name_H-M "C M C M"
_symmetry_group_IT_number 63
_symmetry_cell_setting 'orthorhombic'
loop_
_space_group_symop_operation_xyz
x,y,z
-x,-y,1/2+z
x,-y,-z
-x,y,1/2-z
-x,-y,-z
x,y,1/2-z
-x,y,z
x,-y,1/2+z
1/2+x,1/2+y,z
1/2-x,1/2-y,1/2+z
1/2+x,1/2-y,-z
1/2-x,1/2+y,1/2-z
1/2-x,1/2-y,-z
1/2+x,1/2+y,1/2-z
1/2-x,1/2+y,z
1/2+x,1/2-y,1/2+z
loop_
_atom_site_type_symbol
_atom_site_label
_atom_site_fract_x
_atom_site_fract_y
_atom_site_fract_z
Si Si1 0.680690 0.381935 0.053136
Si Si2 0.732427 0.315930 0.618817
Si Si3 0.815071 0.515676 0.690227
Si Si4 0.068255 0.000379 0.311248
Si Si5 0.566069 0.232107 0.090247
Si Si6 0.565398 0.088998 0.839201
O O1 0.692432 0.519106 0.103152
O O2 0.729532 0.236960 0.066575
O O3 0.618198 0.291393 0.052164
O O4 0.687784 0.500000 0.000000
O O5 0.777750 0.354919 0.667031
O O6 0.694766 0.157627 0.642178
O O7 0.794590 0.569149 0.750000
O O8 0.883171 0.496681 0.693016
O O9 0.094414 0.988015 0.250000
O O10 0.076872 0.199467 0.335659
O O11 0.000000 0.987552 0.304412
O O12 0.080083 0.846127 0.354871
O O13 0.500000 0.275302 0.074083
O O14 0.567696 0.021559 0.104355
O O15 0.500000 0.061465 0.818772
#
# Coordination Sequence:
#
# PCOD9472773 Si02
#       6
#    16  16  16  16  16  16
#     4  11  22  41  64  85 112 156 205 256 307 349
#     4  10  23  40  59  88 118 150 201 252 294 353
#     4  11  21  37  60  87 122 158 190 233 298 363
#     4   9  18  32  52  81 118 159 195 229 284 356
#     4  10  21  38  59  89 123 153 195 252 303 363
#     4  10  20  35  56  84 121 157 195 239 288 348
#
# _framework density 22.317634000000002
#
# number of rings (size 3 to 8) (size 9 to 14) (size 15 to 20)
#    0.000    1.833    1.667    2.500    0.000    2.667 
#    0.000    5.833    0.000    0.000    0.000    7.000 
#    0.000    0.000    0.000    0.000    0.000    0.000 
#
# Total GULP energy -267406.482625 kJ/mol
# GULP energy per Si atom -5570.968388 kJ/mol
# Density = 2.226684 g / cm^3
# Si number density = 22.317634 Si / 1000 Ang^3
#
#
#
# Elastic Constant Matrix: (Units=GPa)
#
#
# Indices 1 2 3 4 5 6 
#
# 1 101.4454 5.4144 11.8610 0.0000 0.0000 0.0000
# 2 5.4144 48.9291 -5.1813 0.0000 0.0000 0.0000
# 3 11.8610 -5.1813 23.2997 0.0000 0.0000 0.0000
# 4 0.0000 0.0000 0.0000 14.0869 0.0000 0.0000
# 5 0.0000 0.0000 0.0000 0.0000 3.9108 0.0000
# 6 0.0000 0.0000 0.0000 0.0000 0.0000 23.4851
#
#
#
# Elastic Compliance Matrix: (Units=1/GPa)
#
#
# Indices 1 2 3 4 5 6 
#
# 1 0.010633 -0.001792 -0.005811 0.000000 0.000000 0.000000
# 2 -0.001792 0.021233 0.005634 0.000000 0.000000 0.000000
# 3 -0.005811 0.005634 0.047130 0.000000 0.000000 0.000000
# 4 0.000000 0.000000 0.000000 0.070988 0.000000 0.000000
# 5 0.000000 0.000000 0.000000 0.000000 0.255700 0.000000
# 6 0.000000 0.000000 0.000000 0.000000 0.000000 0.042580
#
#
# Mechanical properties :
#
#
# Convention : Reuss Voigt Hill
#
# Bulk Modulus (GPa) = 13.32326 21.98472 17.65399
# Shear Modulus (GPa) = 10.47734 19.06858 14.77296
#
# Velocity S-wave (km/s) = 2.16906 2.92621 2.57561
# Velocity P-wave (km/s) = 3.50084 4.61402 4.09543
#
# Compressibility (1/GPa) = 0.07505672
#
# Stress axis : x y z
#
# Youngs Moduli (GPa) = 94.05036 47.09731 21.21790
#
# Poissons Ratio (x) = 0.08440 0.12330
# Poissons Ratio (y) = 0.16853 -0.11954
# Poissons Ratio (z) = 0.54654 -0.26534
#
# Static dielectric constant tensor:
#      x y z
#    x 1.838470 0.000000 0.000000 
#    y 0.000000 1.852630 0.000000 
#    z 0.000000 0.000000 1.824320 
# 
# From -- ./inp_files/64966.got.cif
#   From: 2010.05.17/outbox.cif.g08.bks.cpg/sg63_33_cif.got.tgz:64966.got - 2010.06.03 15:47:04.
