data_PCOD9472645
_publ_section_title
;
Structure prediction by ZEFSAII (Michael W. Deem and Ramdas Pophale) SiO2 
 PCOD9472645
Probable space group: C M C M
;
_chemical_formula_sum "Si O2"
_cell_formula_units_Z 96
_cell_length_a 24.166762
_cell_length_b 10.900648
_cell_length_c 17.362774
_cell_angle_alpha 90.000000
_cell_angle_beta 90.000000
_cell_angle_gamma 90.000000
_cell_volume 4573.933996
_symmetry_space_group_name_H-M "C M C M"
_symmetry_group_IT_number 63
_symmetry_cell_setting 'orthorhombic'
loop_
_space_group_symop_operation_xyz
x,y,z
-x,-y,1/2+z
x,-y,-z
-x,y,1/2-z
-x,-y,-z
x,y,1/2-z
-x,y,z
x,-y,1/2+z
1/2+x,1/2+y,z
1/2-x,1/2-y,1/2+z
1/2+x,1/2-y,-z
1/2-x,1/2+y,1/2-z
1/2-x,1/2-y,-z
1/2+x,1/2+y,1/2-z
1/2-x,1/2+y,z
1/2+x,1/2-y,1/2+z
loop_
_atom_site_type_symbol
_atom_site_label
_atom_site_fract_x
_atom_site_fract_y
_atom_site_fract_z
Si Si1 0.500000 0.445732 0.656913
Si Si2 0.822464 0.586446 0.841839
Si Si3 0.788213 0.791856 0.105997
Si Si4 0.119186 0.849425 0.658375
Si Si5 0.386071 0.153873 0.160172
Si Si6 0.000000 0.230267 0.844842
Si Si7 0.290065 0.395463 0.553666
O O1 0.500000 0.450635 0.750000
O O2 0.556007 0.374270 0.636204
O O3 0.500000 0.587427 0.630241
O O4 0.818767 0.571575 0.750000
O O5 0.758882 0.611926 0.867795
O O6 0.857811 0.711525 0.856187
O O7 0.856507 0.468712 0.873004
O O8 0.842954 0.766834 0.153553
O O9 0.752660 0.667052 0.110046
O O10 0.805478 0.802002 0.015882
O O11 0.126146 0.873939 0.750000
O O12 0.157586 0.933573 0.603899
O O13 0.395707 0.127175 0.250000
O O14 0.444828 0.199005 0.128519
O O15 0.000000 0.228325 0.750000
O O16 0.266145 0.500000 0.500000
#
# Coordination Sequence:
#
# PCOD9472645 Si02
#       7
#     8  16  16  16  16   8  16
#     4   9  18  35  57  83 111 146 189 240 292 334
#     4   9  18  34  57  88 116 149 197 240 282 337
#     4  10  20  35  54  80 116 152 186 235 290 341
#     4   9  19  36  58  81 110 146 190 237 282 337
#     4  10  20  35  56  83 117 154 194 236 282 342
#     4   9  20  35  52  82 118 156 193 231 290 344
#     4  10  21  35  53  81 112 146 187 229 287 342
#
# _framework density 20.988496999999999
#
# number of rings (size 3 to 8) (size 9 to 14) (size 15 to 20)
#    0.000    2.500    0.000    1.500    2.333    1.333 
#    0.000    5.417    0.000    1.000    0.000   12.250 
#    0.000    0.000    0.000    0.000    0.000    0.000 
#
# Total GULP energy -267204.272703 kJ/mol
# GULP energy per Si atom -5566.755681 kJ/mol
# Density = 2.094073 g / cm^3
# Si number density = 20.988497 Si / 1000 Ang^3
#
#
#
# Elastic Constant Matrix: (Units=GPa)
#
#
# Indices 1 2 3 4 5 6 
#
# 1 150.0740 47.4841 20.7181 0.0000 0.0000 0.0000
# 2 47.4841 84.0083 5.9732 0.0000 0.0000 0.0000
# 3 20.7181 5.9732 22.8404 0.0000 0.0000 0.0000
# 4 0.0000 0.0000 0.0000 17.6434 0.0000 0.0000
# 5 0.0000 0.0000 0.0000 0.0000 7.6288 0.0000
# 6 0.0000 0.0000 0.0000 0.0000 0.0000 22.9390
#
#
#
# Elastic Compliance Matrix: (Units=1/GPa)
#
#
# Indices 1 2 3 4 5 6 
#
# 1 0.009106 -0.004646 -0.007045 0.000000 0.000000 0.000000
# 2 -0.004646 0.014500 0.000422 0.000000 0.000000 0.000000
# 3 -0.007045 0.000422 0.050062 0.000000 0.000000 0.000000
# 4 0.000000 0.000000 0.000000 0.056679 0.000000 0.000000
# 5 0.000000 0.000000 0.000000 0.000000 0.131083 0.000000
# 6 0.000000 0.000000 0.000000 0.000000 0.000000 0.043594
#
#
# Mechanical properties :
#
#
# Convention : Reuss Voigt Hill
#
# Bulk Modulus (GPa) = 19.55775 45.03038 32.29406
# Shear Modulus (GPa) = 14.50945 21.82538 18.16741
#
# Velocity S-wave (km/s) = 2.63212 3.22821 2.94528
# Velocity P-wave (km/s) = 4.30998 5.94949 5.19482
#
# Compressibility (1/GPa) = 0.05113061
#
# Stress axis : x y z
#
# Youngs Moduli (GPa) = 109.81804 68.96717 19.97527
#
# Poissons Ratio (x) = 0.32043 0.14072
# Poissons Ratio (y) = 0.51022 -0.00844
# Poissons Ratio (z) = 0.77365 -0.02913
#
# Static dielectric constant tensor:
#      x y z
#    x 1.766830 0.000000 0.000000 
#    y 0.000000 1.903370 0.000000 
#    z 0.000000 0.000000 1.757950 
# 
# From -- ./inp_files/56580.got.cif
#   From: 2010.05.17/outbox.cif.g08.bks.cpg/sg63_29_cif.got.tgz:56580.got - 2010.06.03 15:47:04.
