data_PCOD9472899
_publ_section_title
;
Structure prediction by ZEFSAII (Michael W. Deem and Ramdas Pophale) SiO2 
 PCOD9472899
Probable space group: C M C M
;
_chemical_formula_sum "Si O2"
_cell_formula_units_Z 96
_cell_length_a 8.283017
_cell_length_b 20.585274
_cell_length_c 29.578902
_cell_angle_alpha 90.000000
_cell_angle_beta 90.000000
_cell_angle_gamma 90.000000
_cell_volume 5043.444583
_symmetry_space_group_name_H-M "C M C M"
_symmetry_group_IT_number 63
_symmetry_cell_setting 'orthorhombic'
loop_
_space_group_symop_operation_xyz
x,y,z
-x,-y,1/2+z
x,-y,-z
-x,y,1/2-z
-x,-y,-z
x,y,1/2-z
-x,y,z
x,-y,1/2+z
1/2+x,1/2+y,z
1/2-x,1/2-y,1/2+z
1/2+x,1/2-y,-z
1/2-x,1/2+y,1/2-z
1/2-x,1/2-y,-z
1/2+x,1/2+y,1/2-z
1/2-x,1/2+y,z
1/2+x,1/2-y,1/2+z
loop_
_atom_site_type_symbol
_atom_site_label
_atom_site_fract_x
_atom_site_fract_y
_atom_site_fract_z
Si Si1 0.807088 0.254323 0.302199
Si Si2 0.696766 0.441653 0.967005
Si Si3 0.693096 0.887926 0.801817
Si Si4 0.195019 0.143968 0.622829
Si Si5 0.304751 0.683148 0.521952
Si Si6 0.804975 0.994434 0.871091
O O1 0.747827 0.262860 0.250000
O O2 0.755145 0.182343 0.318207
O O3 0.746446 0.308944 0.336615
O O4 0.000000 0.256724 0.301189
O O5 0.500000 0.439784 0.965853
O O6 0.752372 0.459236 0.916952
O O7 0.742643 0.500000 0.000000
O O8 0.752017 0.374963 0.989328
O O9 0.749175 0.894106 0.750000
O O10 0.500000 0.886289 0.802621
O O11 0.752158 0.949034 0.830210
O O12 0.250088 0.170155 0.573588
O O13 0.250513 0.069396 0.629955
O O14 0.000000 0.142767 0.621690
O O15 0.500000 0.681623 0.522906
O O16 0.250000 0.750000 0.500000
O O17 0.000000 0.996248 0.872245
#
# Coordination Sequence:
#
# PCOD9472899 Si02
#       6
#    16  16  16  16  16  16
#     4  10  22  40  61  83 109 145 190 237 283 337
#     4   9  16  33  58  80 108 147 187 225 269 321
#     4  10  22  40  60  83 114 148 182 229 288 342
#     4  10  21  37  57  84 118 152 188 232 282 336
#     4  10  21  36  55  82 115 149 188 232 277 330
#     4  10  20  35  59  87 113 148 191 231 274 330
#
# _framework density 19.034610000000001
#
# number of rings (size 3 to 8) (size 9 to 14) (size 15 to 20)
#    0.000    2.167    1.667    1.000    2.333    4.000 
#    0.000    3.333    0.000    1.000    0.000    0.000 
#    0.000    0.000    0.000    0.000    0.000    0.000 
#
# Total GULP energy -267900.055369 kJ/mol
# GULP energy per Si atom -5581.251154 kJ/mol
# Density = 1.899129 g / cm^3
# Si number density = 19.034610 Si / 1000 Ang^3
#
#
#
# Elastic Constant Matrix: (Units=GPa)
#
#
# Indices 1 2 3 4 5 6 
#
# 1 12.3213 19.4397 16.0182 0.0000 0.0000 0.0000
# 2 19.4397 209.8973 109.8146 0.0000 0.0000 0.0000
# 3 16.0182 109.8146 122.4273 0.0000 0.0000 0.0000
# 4 0.0000 0.0000 0.0000 41.4500 0.0000 0.0000
# 5 0.0000 0.0000 0.0000 0.0000 17.0971 0.0000
# 6 0.0000 0.0000 0.0000 0.0000 0.0000 30.4144
#
#
#
# Elastic Compliance Matrix: (Units=1/GPa)
#
#
# Indices 1 2 3 4 5 6 
#
# 1 0.100054 -0.004555 -0.009005 0.000000 0.000000 0.000000
# 2 -0.004555 0.009184 -0.007642 0.000000 0.000000 0.000000
# 3 -0.009005 -0.007642 0.016201 0.000000 0.000000 0.000000
# 4 0.000000 0.000000 0.000000 0.024125 0.000000 0.000000
# 5 0.000000 0.000000 0.000000 0.000000 0.058489 0.000000
# 6 0.000000 0.000000 0.000000 0.000000 0.000000 0.032879
#
#
# Mechanical properties :
#
#
# Convention : Reuss Voigt Hill
#
# Bulk Modulus (GPa) = 12.04314 70.57677 41.30995
# Shear Modulus (GPa) = 16.07631 31.08386 23.58008
#
# Velocity S-wave (km/s) = 2.90932 4.04545 3.52348
# Velocity P-wave (km/s) = 4.19836 7.67981 6.18893
#
# Compressibility (1/GPa) = 0.08303484
#
# Stress axis : x y z
#
# Youngs Moduli (GPa) = 9.99459 108.88057 61.72395
#
# Poissons Ratio (x) = 0.49598 0.55582
# Poissons Ratio (y) = 0.04553 0.47171
# Poissons Ratio (z) = 0.09000 0.83208
#
# Static dielectric constant tensor:
#      x y z
#    x 1.672720 0.000000 0.000000 
#    y 0.000000 1.646570 0.000000 
#    z 0.000000 0.000000 1.605650 
# 
# From -- ./inp_files/66977.got.cif
#   From: 2010.05.17/outbox.cif.g08.bks.cpg/sg63_34_cif.got.tgz:66977.got - 2010.06.03 15:47:04.
