data_PCOD9472936
_publ_section_title
;
Structure prediction by ZEFSAII (Michael W. Deem and Ramdas Pophale) SiO2 
 PCOD9472936
Probable space group: C M C M
;
_chemical_formula_sum "Si O2"
_cell_formula_units_Z 112
_cell_length_a 15.301860
_cell_length_b 23.633873
_cell_length_c 14.637820
_cell_angle_alpha 90.000000
_cell_angle_beta 90.000000
_cell_angle_gamma 90.000000
_cell_volume 5293.653661
_symmetry_space_group_name_H-M "C M C M"
_symmetry_group_IT_number 63
_symmetry_cell_setting 'orthorhombic'
loop_
_space_group_symop_operation_xyz
x,y,z
-x,-y,1/2+z
x,-y,-z
-x,y,1/2-z
-x,-y,-z
x,y,1/2-z
-x,y,z
x,-y,1/2+z
1/2+x,1/2+y,z
1/2-x,1/2-y,1/2+z
1/2+x,1/2-y,-z
1/2-x,1/2+y,1/2-z
1/2-x,1/2-y,-z
1/2+x,1/2+y,1/2-z
1/2-x,1/2+y,z
1/2+x,1/2-y,1/2+z
loop_
_atom_site_type_symbol
_atom_site_label
_atom_site_fract_x
_atom_site_fract_y
_atom_site_fract_z
Si Si1 0.288340 0.522587 0.102109
Si Si2 0.753852 0.836166 0.450455
Si Si3 0.396020 0.589081 0.645502
Si Si4 0.404717 0.114265 0.648652
Si Si5 0.233460 0.784394 0.643376
Si Si6 0.595205 0.628924 0.357476
Si Si7 0.406176 0.985858 0.608296
O O1 0.344219 0.471155 0.146002
O O2 0.343257 0.579752 0.105286
O O3 0.189679 0.536528 0.135092
O O4 0.278585 0.500000 0.000000
O O5 0.843260 0.868649 0.422251
O O6 0.674016 0.873839 0.417532
O O7 0.733020 0.820364 0.555726
O O8 0.748371 0.779321 0.389190
O O9 0.390079 0.611283 0.750000
O O10 0.500000 0.581968 0.624231
O O11 0.387315 0.137650 0.750000
O O12 0.500000 0.135155 0.617517
O O13 0.409588 0.047047 0.654178
O O14 0.261393 0.793180 0.750000
O O15 0.134125 0.807899 0.638465
O O16 0.590189 0.615785 0.250000
O O17 0.500000 0.625790 0.399645
O O18 0.500000 0.956140 0.628013
O O19 0.406581 0.000000 0.500000
#
# Coordination Sequence:
#
# PCOD9472936 Si02
#       7
#    16  16  16  16  16  16  16
#     4  11  21  33  56  87 123 168 211 254 310 371
#     4  11  22  40  66  90 121 160 202 257 317 368
#     4  11  23  38  60  92 129 169 213 260 314 379
#     4  10  20  35  60  92 120 150 199 261 314 359
#     4  10  23  41  62  88 120 162 208 252 304 370
#     4  10  22  39  58  84 122 163 201 247 303 365
#     4   9  19  34  53  81 120 161 199 247 307 366
#
# _framework density 21.157409000000001
#
# number of rings (size 3 to 8) (size 9 to 14) (size 15 to 20)
#    0.000    1.714    1.429    3.000    2.000    5.143 
#    0.000    3.571    0.000    2.143    0.000    2.000 
#    0.000    0.000    0.000    0.000    0.000    0.000 
#
# Total GULP energy -311888.145536 kJ/mol
# GULP energy per Si atom -5569.431170 kJ/mol
# Density = 2.110925 g / cm^3
# Si number density = 21.157409 Si / 1000 Ang^3
#
#
#
# Elastic Constant Matrix: (Units=GPa)
#
#
# Indices 1 2 3 4 5 6 
#
# 1 178.9343 47.4283 38.7954 0.0000 0.0000 0.0000
# 2 47.4283 84.8504 19.2911 0.0000 0.0000 0.0000
# 3 38.7954 19.2911 124.4669 0.0000 0.0000 0.0000
# 4 0.0000 0.0000 0.0000 27.2059 0.0000 0.0000
# 5 0.0000 0.0000 0.0000 0.0000 14.9160 0.0000
# 6 0.0000 0.0000 0.0000 0.0000 0.0000 13.3336
#
#
#
# Elastic Compliance Matrix: (Units=1/GPa)
#
#
# Indices 1 2 3 4 5 6 
#
# 1 0.006855 -0.003468 -0.001599 0.000000 0.000000 0.000000
# 2 -0.003468 0.013970 -0.001084 0.000000 0.000000 0.000000
# 3 -0.001599 -0.001084 0.008701 0.000000 0.000000 0.000000
# 4 0.000000 0.000000 0.000000 0.036757 0.000000 0.000000
# 5 0.000000 0.000000 0.000000 0.000000 0.067042 0.000000
# 6 0.000000 0.000000 0.000000 0.000000 0.000000 0.074998
#
#
# Mechanical properties :
#
#
# Convention : Reuss Voigt Hill
#
# Bulk Modulus (GPa) = 58.06145 66.58681 62.32413
# Shear Modulus (GPa) = 22.08809 29.94023 26.01416
#
# Velocity S-wave (km/s) = 3.23459 3.76589 3.51030
# Velocity P-wave (km/s) = 6.43834 7.10279 6.77871
#
# Compressibility (1/GPa) = 0.01722313
#
# Stress axis : x y z
#
# Youngs Moduli (GPa) = 145.88894 71.57991 114.93291
#
# Poissons Ratio (x) = 0.24823 0.18378
# Poissons Ratio (y) = 0.50593 0.12463
# Poissons Ratio (z) = 0.23328 0.07762
#
# Static dielectric constant tensor:
#      x y z
#    x 1.844600 0.000000 0.000000 
#    y 0.000000 1.751870 0.000000 
#    z 0.000000 0.000000 1.956670 
# 
# From -- ./inp_files/32342.got.cif
#   From: 2010.05.17/outbox.cif.g08.bks.cpg/sg63_17_cif.got.tgz:32342.got - 2010.06.03 15:47:04.
