data_PCOD9472492
_publ_section_title
;
Structure prediction by ZEFSAII (Michael W. Deem and Ramdas Pophale) SiO2 
 PCOD9472492
Probable space group: C M C M
;
_chemical_formula_sum "Si O2"
_cell_formula_units_Z 96
_cell_length_a 7.830020
_cell_length_b 21.089087
_cell_length_c 27.614898
_cell_angle_alpha 90.000000
_cell_angle_beta 90.000000
_cell_angle_gamma 90.000000
_cell_volume 4559.992131
_symmetry_space_group_name_H-M "C M C M"
_symmetry_group_IT_number 63
_symmetry_cell_setting 'orthorhombic'
loop_
_space_group_symop_operation_xyz
x,y,z
-x,-y,1/2+z
x,-y,-z
-x,y,1/2-z
-x,-y,-z
x,y,1/2-z
-x,y,z
x,-y,1/2+z
1/2+x,1/2+y,z
1/2-x,1/2-y,1/2+z
1/2+x,1/2-y,-z
1/2-x,1/2+y,1/2-z
1/2-x,1/2-y,-z
1/2+x,1/2+y,1/2-z
1/2-x,1/2+y,z
1/2+x,1/2-y,1/2+z
loop_
_atom_site_type_symbol
_atom_site_label
_atom_site_fract_x
_atom_site_fract_y
_atom_site_fract_z
Si Si1 0.698327 0.181523 0.020451
Si Si2 0.792459 0.820109 0.632617
Si Si3 0.300814 0.443673 0.033061
Si Si4 0.291387 0.558649 0.305300
Si Si5 0.793122 0.930379 0.142362
Si Si6 0.704608 0.799913 0.305115
O O1 0.500000 0.171934 0.010202
O O2 0.730420 0.180543 0.077718
O O3 0.750000 0.250000 0.000000
O O4 0.791651 0.122978 0.994717
O O5 0.738039 0.883366 0.660769
O O6 0.732412 0.758773 0.662590
O O7 0.000000 0.819387 0.631177
O O8 0.500000 0.460742 0.040376
O O9 0.228698 0.435946 0.087124
O O10 0.224986 0.500000 0.000000
O O11 0.235054 0.566768 0.250000
O O12 0.500000 0.558877 0.304986
O O13 0.236490 0.491599 0.327301
O O14 0.740437 0.865723 0.168198
O O15 0.000000 0.930460 0.141548
O O16 0.771581 0.799539 0.250000
O O17 0.500000 0.792535 0.302100
#
# Coordination Sequence:
#
# PCOD9472492 Si02
#       6
#    16  16  16  16  16  16
#     4  12  25  40  59  84 115 151 192 238 288 342
#     4  10  20  37  60  83 109 144 187 234 281 331
#     4  10  21  39  62  87 116 151 191 235 285 340
#     4   9  17  32  57  86 112 142 184 229 272 325
#     4  10  20  34  56  84 111 143 184 228 274 327
#     4  10  21  36  55  81 112 146 183 225 277 335
#
# _framework density 21.052667
#
# number of rings (size 3 to 8) (size 9 to 14) (size 15 to 20)
#    0.000    1.833    0.000    4.500    0.000   10.000 
#    0.000    2.500    0.000    2.500    0.000    0.000 
#    0.000    0.000    0.000    0.000    0.000    0.000 
#
# Total GULP energy -268330.847013 kJ/mol
# GULP energy per Si atom -5590.225979 kJ/mol
# Density = 2.100475 g / cm^3
# Si number density = 21.052667 Si / 1000 Ang^3
#
#
#
# Elastic Constant Matrix: (Units=GPa)
#
#
# Indices 1 2 3 4 5 6 
#
# 1 25.0659 -25.5021 -17.5579 0.0000 0.0000 0.0000
# 2 -25.5021 110.7176 27.3554 0.0000 0.0000 0.0000
# 3 -17.5579 27.3554 135.0913 0.0000 0.0000 0.0000
# 4 0.0000 0.0000 0.0000 45.0232 0.0000 0.0000
# 5 0.0000 0.0000 0.0000 0.0000 12.7328 0.0000
# 6 0.0000 0.0000 0.0000 0.0000 0.0000 19.0130
#
#
#
# Elastic Compliance Matrix: (Units=1/GPa)
#
#
# Indices 1 2 3 4 5 6 
#
# 1 0.054932 0.011462 0.004818 0.000000 0.000000 0.000000
# 2 0.011462 0.011899 -0.000920 0.000000 0.000000 0.000000
# 3 0.004818 -0.000920 0.008215 0.000000 0.000000 0.000000
# 4 0.000000 0.000000 0.000000 0.022211 0.000000 0.000000
# 5 0.000000 0.000000 0.000000 0.000000 0.078537 0.000000
# 6 0.000000 0.000000 0.000000 0.000000 0.000000 0.052596
#
#
# Mechanical properties :
#
#
# Convention : Reuss Voigt Hill
#
# Bulk Modulus (GPa) = 9.45470 26.60728 18.03099
# Shear Modulus (GPa) = 21.46625 34.45910 27.96268
#
# Velocity S-wave (km/s) = 3.19665 4.05013 3.64844
# Velocity P-wave (km/s) = 4.25741 5.87685 5.13141
#
# Compressibility (1/GPa) = 0.10576748
#
# Stress axis : x y z
#
# Youngs Moduli (GPa) = 18.20446 84.03787 121.72971
#
# Poissons Ratio (x) = -0.96326 -0.58655
# Poissons Ratio (y) = -0.20866 0.11197
# Poissons Ratio (z) = -0.08772 0.07730
#
# Static dielectric constant tensor:
#      x y z
#    x 1.797030 0.000000 0.000000 
#    y 0.000000 1.717010 0.000000 
#    z 0.000000 0.000000 1.730830 
# 
# From -- ./inp_files/66911.got.cif
#   From: 2010.05.17/outbox.cif.g08.bks.cpg/sg63_34_cif.got.tgz:66911.got - 2010.06.03 15:47:04.
