data_PCOD9472938
_publ_section_title
;
Structure prediction by ZEFSAII (Michael W. Deem and Ramdas Pophale) SiO2 
 PCOD9472938
Probable space group: C M C M
;
_chemical_formula_sum "Si O2"
_cell_formula_units_Z 84
_cell_length_a 14.648072
_cell_length_b 10.156265
_cell_length_c 25.140557
_cell_angle_alpha 90.000000
_cell_angle_beta 90.000000
_cell_angle_gamma 90.000000
_cell_volume 3740.153147
_symmetry_space_group_name_H-M "C M C M"
_symmetry_group_IT_number 63
_symmetry_cell_setting 'orthorhombic'
loop_
_space_group_symop_operation_xyz
x,y,z
-x,-y,1/2+z
x,-y,-z
-x,y,1/2-z
-x,-y,-z
x,y,1/2-z
-x,y,z
x,-y,1/2+z
1/2+x,1/2+y,z
1/2-x,1/2-y,1/2+z
1/2+x,1/2-y,-z
1/2-x,1/2+y,1/2-z
1/2-x,1/2-y,-z
1/2+x,1/2+y,1/2-z
1/2-x,1/2+y,z
1/2+x,1/2-y,1/2+z
loop_
_atom_site_type_symbol
_atom_site_label
_atom_site_fract_x
_atom_site_fract_y
_atom_site_fract_z
Si Si1 0.607299 0.767806 0.055759
Si Si2 0.833372 0.308165 0.174899
Si Si3 0.000000 0.241079 0.250000
Si Si4 0.891969 0.314916 0.940857
Si Si5 0.895919 0.013711 0.905796
Si Si6 0.222769 0.576973 0.343394
O O1 0.500000 0.800319 0.060250
O O2 0.654849 0.806107 0.110619
O O3 0.613401 0.608521 0.053418
O O4 0.641495 0.832684 0.001439
O O5 0.823934 0.460871 0.189067
O O6 0.747105 0.213704 0.184993
O O7 0.920084 0.248786 0.203913
O O8 0.836110 0.390044 0.895914
O O9 0.000000 0.348726 0.938293
O O10 0.884199 0.158874 0.928928
O O11 0.819584 0.984136 0.862066
O O12 0.000000 0.005783 0.884897
#
# Coordination Sequence:
#
# PCOD9472938 Si02
#       6
#    16  16   4  16  16  16
#     4   9  18  36  62  95 134 183 229 262 316 400
#     4  11  25  45  71  96 129 172 226 280 337 391
#     4  12  28  52  80  92 120 176 230 290 350 382
#     4  10  20  35  60  98 146 184 214 261 324 398
#     4   9  18  35  58  89 137 187 219 252 313 390
#     4  11  23  42  66 105 136 173 217 272 327 406
#
# _framework density 22.458973
#
# number of rings (size 3 to 8) (size 9 to 14) (size 15 to 20)
#    0.000    1.905    2.857    0.571    2.667    6.857 
#    6.857    1.905    0.000    1.143    0.000    0.000 
#    0.000    0.000    0.000    0.000    0.000    0.000 
#
# Total GULP energy -234165.427350 kJ/mol
# GULP energy per Si atom -5575.367318 kJ/mol
# Density = 2.240786 g / cm^3
# Si number density = 22.458973 Si / 1000 Ang^3
#
#
#
# Elastic Constant Matrix: (Units=GPa)
#
#
# Indices 1 2 3 4 5 6 
#
# 1 68.1771 9.2074 32.3232 0.0000 0.0000 0.0000
# 2 9.2074 112.6342 30.1768 0.0000 0.0000 0.0000
# 3 32.3232 30.1768 106.8076 0.0000 0.0000 0.0000
# 4 0.0000 0.0000 0.0000 -61.2947 0.0000 0.0000
# 5 0.0000 0.0000 0.0000 0.0000 -214.5195 0.0000
# 6 0.0000 0.0000 0.0000 0.0000 0.0000 12.9875
#
#
#
# Elastic Compliance Matrix: (Units=1/GPa)
#
#
# Indices 1 2 3 4 5 6 
#
# 1 0.017125 -0.000012 -0.005179 0.000000 0.000000 0.000000
# 2 -0.000012 0.009605 -0.002710 0.000000 0.000000 0.000000
# 3 -0.005179 -0.002710 0.011696 0.000000 0.000000 0.000000
# 4 0.000000 0.000000 0.000000 -0.016315 0.000000 0.000000
# 5 0.000000 0.000000 0.000000 0.000000 -0.004662 0.000000
# 6 0.000000 0.000000 0.000000 0.000000 0.000000 0.076997
#
#
# Mechanical properties :
#
#
# Convention : Reuss Voigt Hill
#
# Bulk Modulus (GPa) = 44.20295 47.89262 46.04779
# Shear Modulus (GPa) = 42.44814 -38.17126 2.13844
#
# Velocity S-wave (km/s) = 4.35216 -4.12709 0.97684
# Velocity P-wave (km/s) = 6.70667 1.15747 4.67118
#
# Compressibility (1/GPa) = 0.02262292
#
# Stress axis : x y z
#
# Youngs Moduli (GPa) = 58.39508 104.10811 85.50194
#
# Poissons Ratio (x) = 0.00128 0.44281
# Poissons Ratio (y) = 0.00072 0.23172
# Poissons Ratio (z) = 0.30243 0.28215
#
# Static dielectric constant tensor:
#      x y z
#    x 1.818470 0.000000 0.000000 
#    y 0.000000 1.902500 0.000000 
#    z 0.000000 0.000000 1.829580 
# 
# From -- ./inp_files/62659.got.cif
#   From: 2010.05.17/outbox.cif.g08.bks.cpg/sg63_32_cif.got.tgz:62659.got - 2010.06.03 15:47:04.
