data_PCOD9472718
_publ_section_title
;
Structure prediction by ZEFSAII (Michael W. Deem and Ramdas Pophale) SiO2 
 PCOD9472718
Probable space group: C M C M
;
_chemical_formula_sum "Si O2"
_cell_formula_units_Z 96
_cell_length_a 7.558031
_cell_length_b 21.328346
_cell_length_c 27.643917
_cell_angle_alpha 90.000000
_cell_angle_beta 90.000000
_cell_angle_gamma 90.000000
_cell_volume 4456.207720
_symmetry_space_group_name_H-M "C M C M"
_symmetry_group_IT_number 63
_symmetry_cell_setting 'orthorhombic'
loop_
_space_group_symop_operation_xyz
x,y,z
-x,-y,1/2+z
x,-y,-z
-x,y,1/2-z
-x,-y,-z
x,y,1/2-z
-x,y,z
x,-y,1/2+z
1/2+x,1/2+y,z
1/2-x,1/2-y,1/2+z
1/2+x,1/2-y,-z
1/2-x,1/2+y,1/2-z
1/2-x,1/2-y,-z
1/2+x,1/2+y,1/2-z
1/2-x,1/2+y,z
1/2+x,1/2-y,1/2+z
loop_
_atom_site_type_symbol
_atom_site_label
_atom_site_fract_x
_atom_site_fract_y
_atom_site_fract_z
Si Si1 0.713484 0.068412 0.305356
Si Si2 0.289120 0.305302 0.863588
Si Si3 0.211688 0.443280 0.141544
Si Si4 0.212836 0.061691 0.527913
Si Si5 0.212493 0.814749 0.527056
Si Si6 0.283147 0.816800 0.305924
O O1 0.777092 0.069261 0.250000
O O2 0.500000 0.064986 0.303938
O O3 0.759509 0.131906 0.333166
O O4 0.779381 0.007137 0.333981
O O5 0.500000 0.296370 0.867927
O O6 0.218532 0.312374 0.918031
O O7 0.221635 0.244198 0.835359
O O8 0.246813 0.441003 0.084580
O O9 0.276668 0.380637 0.168208
O O10 0.000000 0.443553 0.147879
O O11 0.279919 0.125334 0.502847
O O12 0.000000 0.061817 0.523522
O O13 0.278969 0.000000 0.500000
O O14 0.250000 0.750000 0.500000
O O15 0.000000 0.821398 0.529674
O O16 0.228815 0.814456 0.250000
O O17 0.500000 0.816549 0.306226
#
# Coordination Sequence:
#
# PCOD9472718 Si02
#       6
#    16  16  16  16  16  16
#     4  10  21  36  54  79 110 140 171 214 269 320
#     4  10  20  35  56  80 105 138 180 219 257 310
#     4  10  20  35  56  79 103 135 176 218 258 307
#     4  10  21  37  55  76 106 141 174 214 264 311
#     4  10  21  36  55  80 109 141 178 221 267 315
#     4   9  17  31  53  79 104 132 170 215 258 301
#
# _framework density 21.542984000000001
#
# number of rings (size 3 to 8) (size 9 to 14) (size 15 to 20)
#    0.000    2.167    0.000    3.000    0.000    8.000 
#    0.000    0.833    0.000    2.500    0.000    0.000 
#    0.000    0.000    0.000    0.000    0.000    0.000 
#
# Total GULP energy -268339.763262 kJ/mol
# GULP energy per Si atom -5590.411735 kJ/mol
# Density = 2.149395 g / cm^3
# Si number density = 21.542984 Si / 1000 Ang^3
#
#
#
# Elastic Constant Matrix: (Units=GPa)
#
#
# Indices 1 2 3 4 5 6 
#
# 1 46.7653 -7.6088 -9.0729 0.0000 0.0000 0.0000
# 2 -7.6088 224.5466 126.0371 0.0000 0.0000 0.0000
# 3 -9.0729 126.0371 222.9729 0.0000 0.0000 0.0000
# 4 0.0000 0.0000 0.0000 48.9384 0.0000 0.0000
# 5 0.0000 0.0000 0.0000 0.0000 16.0409 0.0000
# 6 0.0000 0.0000 0.0000 0.0000 0.0000 -0.0286
#
#
#
# Elastic Compliance Matrix: (Units=1/GPa)
#
#
# Indices 1 2 3 4 5 6 
#
# 1 0.021572 0.000349 0.000681 0.000000 0.000000 0.000000
# 2 0.000349 0.006529 -0.003676 0.000000 0.000000 0.000000
# 3 0.000681 -0.003676 0.006591 0.000000 0.000000 0.000000
# 4 0.000000 0.000000 0.000000 0.020434 0.000000 0.000000
# 5 0.000000 0.000000 0.000000 0.000000 0.062341 0.000000
# 6 0.000000 0.000000 0.000000 0.000000 0.000000-34.955846
#
#
# Mechanical properties :
#
#
# Convention : Reuss Voigt Hill
#
# Bulk Modulus (GPa) = 34.01583 79.22171 56.61877
# Shear Modulus (GPa) = -0.14358 38.65211 19.25426
#
# Velocity S-wave (km/s) = -0.25844 4.24038 2.99283
# Velocity P-wave (km/s) = 3.96673 7.79923 6.18720
#
# Compressibility (1/GPa) = 0.02939808
#
# Stress axis : x y z
#
# Youngs Moduli (GPa) = 46.35597 153.17060 151.73297
#
# Poissons Ratio (x) = -0.05346 -0.10325
# Poissons Ratio (y) = -0.01618 0.55780
# Poissons Ratio (z) = -0.03155 0.56308
#
# Static dielectric constant tensor:
#      x y z
#    x 1.845620 0.000000 0.000000 
#    y 0.000000 1.735270 0.000000 
#    z 0.000000 0.000000 1.731530 
# 
# From -- ./inp_files/66902.got.cif
#   From: 2010.05.17/outbox.cif.g08.bks.cpg/sg63_34_cif.got.tgz:66902.got - 2010.06.03 15:47:04.
