data_PCOD9472163
_publ_section_title
;
Structure prediction by ZEFSAII (Michael W. Deem and Ramdas Pophale) SiO2 
 PCOD9472163
Probable space group: C M C M
;
_chemical_formula_sum "Si O2"
_cell_formula_units_Z 96
_cell_length_a 23.634002
_cell_length_b 22.042566
_cell_length_c 8.991996
_cell_angle_alpha 90.000000
_cell_angle_beta 90.000000
_cell_angle_gamma 90.000000
_cell_volume 4684.416724
_symmetry_space_group_name_H-M "C M C M"
_symmetry_group_IT_number 63
_symmetry_cell_setting 'orthorhombic'
loop_
_space_group_symop_operation_xyz
x,y,z
-x,-y,1/2+z
x,-y,-z
-x,y,1/2-z
-x,-y,-z
x,y,1/2-z
-x,y,z
x,-y,1/2+z
1/2+x,1/2+y,z
1/2-x,1/2-y,1/2+z
1/2+x,1/2-y,-z
1/2-x,1/2+y,1/2-z
1/2-x,1/2-y,-z
1/2+x,1/2+y,1/2-z
1/2-x,1/2+y,z
1/2+x,1/2-y,1/2+z
loop_
_atom_site_type_symbol
_atom_site_label
_atom_site_fract_x
_atom_site_fract_y
_atom_site_fract_z
Si Si1 0.932967 0.306750 0.082061
Si Si2 0.407771 0.562380 0.076288
Si Si3 0.932950 0.561145 0.928791
Si Si4 0.730680 0.439484 0.577958
Si Si5 0.277211 0.309102 0.569946
Si Si6 0.099078 0.185041 0.572858
O O1 0.910697 0.293582 0.250000
O O2 0.909681 0.372104 0.028056
O O3 0.000000 0.316205 0.097345
O O4 0.926571 0.249091 0.976839
O O5 0.422539 0.563980 0.250000
O O6 0.338472 0.561540 0.066750
O O7 0.427189 0.500000 0.000000
O O8 0.427751 0.623673 0.994955
O O9 0.929142 0.557733 0.750000
O O10 0.000000 0.561185 0.969360
O O11 0.908052 0.500000 0.000000
O O12 0.751290 0.500000 0.500000
O O13 0.744854 0.444245 0.750000
O O14 0.750732 0.373484 0.524157
O O15 0.278387 0.306660 0.750000
O O16 0.250000 0.250000 0.500000
O O17 0.339555 0.311852 0.502579
O O18 0.101843 0.179807 0.750000
#
# Coordination Sequence:
#
# PCOD9472163 Si02
#       6
#    16  16  16  16  16  16
#     4   9  18  33  51  71  98 132 166 201 244 292
#     4   9  16  28  46  69  96 125 160 202 244 286
#     4   8  14  25  43  67  93 121 155 196 241 286
#     4   8  15  26  43  67  93 120 153 193 234 278
#     4  10  20  34  51  73 100 130 164 202 245 293
#     4  11  21  32  49  74 102 132 165 202 245 292
#
# _framework density 20.493480000000002
#
# number of rings (size 3 to 8) (size 9 to 14) (size 15 to 20)
#    0.000    2.833    0.000    4.500    0.000    5.667 
#    0.000    1.667    0.000    1.500    0.000    7.000 
#    0.000    0.000    0.000    0.000    0.000    0.000 
#
# Total GULP energy -267438.253967 kJ/mol
# GULP energy per Si atom -5571.630291 kJ/mol
# Density = 2.044684 g / cm^3
# Si number density = 20.493480 Si / 1000 Ang^3
#
#
#
# Elastic Constant Matrix: (Units=GPa)
#
#
# Indices 1 2 3 4 5 6 
#
# 1 15.0928 22.3327 8.7271 0.0000 0.0000 0.0000
# 2 22.3327 245.6000 89.9098 0.0000 0.0000 0.0000
# 3 8.7271 89.9098 92.3276 0.0000 0.0000 0.0000
# 4 0.0000 0.0000 0.0000 42.5731 0.0000 0.0000
# 5 0.0000 0.0000 0.0000 0.0000 10.3835 0.0000
# 6 0.0000 0.0000 0.0000 0.0000 0.0000 14.3405
#
#
#
# Elastic Compliance Matrix: (Units=1/GPa)
#
#
# Indices 1 2 3 4 5 6 
#
# 1 0.076587 -0.006704 -0.000711 0.000000 0.000000 0.000000
# 2 -0.006704 0.006914 -0.006099 0.000000 0.000000 0.000000
# 3 -0.000711 -0.006099 0.016838 0.000000 0.000000 0.000000
# 4 0.000000 0.000000 0.000000 0.023489 0.000000 0.000000
# 5 0.000000 0.000000 0.000000 0.000000 0.096307 0.000000
# 6 0.000000 0.000000 0.000000 0.000000 0.000000 0.069733
#
#
# Mechanical properties :
#
#
# Convention : Reuss Voigt Hill
#
# Bulk Modulus (GPa) = 13.64054 66.10663 39.87358
# Shear Modulus (GPa) = 14.64843 28.92947 21.78895
#
# Velocity S-wave (km/s) = 2.67645 3.76126 3.26423
# Velocity P-wave (km/s) = 4.02761 7.15473 5.80568
#
# Compressibility (1/GPa) = 0.07331087
#
# Stress axis : x y z
#
# Youngs Moduli (GPa) = 13.05699 144.63115 59.38998
#
# Poissons Ratio (x) = 0.96960 0.04222
# Poissons Ratio (y) = 0.08753 0.36224
# Poissons Ratio (z) = 0.00928 0.88216
#
# Static dielectric constant tensor:
#      x y z
#    x 1.867160 0.000000 0.000000 
#    y 0.000000 1.807580 0.000000 
#    z 0.000000 0.000000 1.729430 
# 
# From -- ./inp_files/12393.got.cif
#   From: 2010.05.17/outbox.cif.g08.bks.cpg/sg63_7_cif.got.tgz:12393.got - 2010.06.03 15:47:04.
