data_PCOD9472448
_publ_section_title
;
Structure prediction by ZEFSAII (Michael W. Deem and Ramdas Pophale) SiO2 
 PCOD9472448
Probable space group: C M C M
;
_chemical_formula_sum "Si O2"
_cell_formula_units_Z 128
_cell_length_a 16.575390
_cell_length_b 17.485941
_cell_length_c 21.713873
_cell_angle_alpha 90.000000
_cell_angle_beta 90.000000
_cell_angle_gamma 90.000000
_cell_volume 6293.468426
_symmetry_space_group_name_H-M "C M C M"
_symmetry_group_IT_number 63
_symmetry_cell_setting 'orthorhombic'
loop_
_space_group_symop_operation_xyz
x,y,z
-x,-y,1/2+z
x,-y,-z
-x,y,1/2-z
-x,-y,-z
x,y,1/2-z
-x,y,z
x,-y,1/2+z
1/2+x,1/2+y,z
1/2-x,1/2-y,1/2+z
1/2+x,1/2-y,-z
1/2-x,1/2+y,1/2-z
1/2-x,1/2-y,-z
1/2+x,1/2+y,1/2-z
1/2-x,1/2+y,z
1/2+x,1/2-y,1/2+z
loop_
_atom_site_type_symbol
_atom_site_label
_atom_site_fract_x
_atom_site_fract_y
_atom_site_fract_z
Si Si1 0.742340 0.588790 0.513717
Si Si2 0.586873 0.754112 0.824028
Si Si3 0.090733 0.663424 0.552654
Si Si4 0.171942 0.095817 0.849747
Si Si5 0.374873 0.429161 0.820563
Si Si6 0.337023 0.165012 0.819438
Si Si7 0.087294 0.847296 0.556783
Si Si8 0.243528 0.319104 0.677113
O O1 0.757625 0.500000 0.500000
O O2 0.828873 0.632018 0.518006
O O3 0.698031 0.594319 0.579527
O O4 0.672298 0.620932 0.468875
O O5 0.581476 0.764482 0.750000
O O6 0.500000 0.768160 0.851736
O O7 0.616514 0.668259 0.835193
O O8 0.656370 0.807689 0.851246
O O9 0.104970 0.641710 0.624972
O O10 0.090499 0.755895 0.550175
O O11 0.000000 0.638100 0.533346
O O12 0.258086 0.110815 0.817173
O O13 0.125645 0.019133 0.831286
O O14 0.398805 0.411171 0.750000
O O15 0.416582 0.379649 0.873349
O O16 0.282670 0.400926 0.829345
O O17 0.370701 0.171007 0.750000
O O18 0.300994 0.248167 0.840074
O O19 0.000000 0.871897 0.527801
O O20 0.235110 0.306548 0.750000
#
# Coordination Sequence:
#
# PCOD9472448 Si02
#       8
#    16  16  16  16  16  16  16  16
#     4  11  23  43  65  83 114 161 202 248 300 343
#     4   9  17  31  52  80 114 150 191 238 283 336
#     4  10  22  39  63  91 118 153 200 253 298 353
#     4  10  20  34  55  82 114 155 201 239 284 346
#     4  11  20  34  57  86 120 156 190 236 295 356
#     4   9  16  31  55  84 117 152 190 235 291 355
#     4  11  24  41  60  88 122 155 197 243 299 364
#     4   8  15  28  49  75 106 149 190 225 276 343
#
# _framework density 20.338545
#
# number of rings (size 3 to 8) (size 9 to 14) (size 15 to 20)
#    0.000    2.125    2.500    2.250    0.000    2.000 
#    0.000    1.250    0.000    3.000    0.000    3.500 
#    0.000    0.000    0.000    0.000    0.000    0.000 
#
# Total GULP energy -356412.109616 kJ/mol
# GULP energy per Si atom -5568.939213 kJ/mol
# Density = 2.029225 g / cm^3
# Si number density = 20.338545 Si / 1000 Ang^3
#
#
#
# Elastic Constant Matrix: (Units=GPa)
#
#
# Indices 1 2 3 4 5 6 
#
# 1 147.3696 22.6739 30.5157 0.0000 0.0000 0.0000
# 2 22.6739 29.5104 4.6172 0.0000 0.0000 0.0000
# 3 30.5157 4.6172 74.9277 0.0000 0.0000 0.0000
# 4 0.0000 0.0000 0.0000 37.8335 0.0000 0.0000
# 5 0.0000 0.0000 0.0000 0.0000 7.7645 0.0000
# 6 0.0000 0.0000 0.0000 0.0000 0.0000 -9.8032
#
#
#
# Elastic Compliance Matrix: (Units=1/GPa)
#
#
# Indices 1 2 3 4 5 6 
#
# 1 0.008323 -0.005922 -0.003025 0.000000 0.000000 0.000000
# 2 -0.005922 0.038429 0.000044 0.000000 0.000000 0.000000
# 3 -0.003025 0.000044 0.014575 0.000000 0.000000 0.000000
# 4 0.000000 0.000000 0.000000 0.026432 0.000000 0.000000
# 5 0.000000 0.000000 0.000000 0.000000 0.128792 0.000000
# 6 0.000000 0.000000 0.000000 0.000000 0.000000 -0.102008
#
#
# Mechanical properties :
#
#
# Convention : Reuss Voigt Hill
#
# Bulk Modulus (GPa) = 22.97685 40.82459 31.90072
# Shear Modulus (GPa) = 34.04686 20.09235 27.06961
#
# Velocity S-wave (km/s) = 4.09590 3.14649 3.65218
# Velocity P-wave (km/s) = 5.80433 5.77206 5.78822
#
# Compressibility (1/GPa) = 0.04352207
#
# Stress axis : x y z
#
# Youngs Moduli (GPa) = 120.14757 26.02181 68.60858
#
# Poissons Ratio (x) = 0.15409 0.20753
# Poissons Ratio (y) = 0.71147 -0.00299
# Poissons Ratio (z) = 0.36343 -0.00113
#
# Static dielectric constant tensor:
#      x y z
#    x 1.796760 0.000000 0.000000 
#    y 0.000000 1.698400 0.000000 
#    z 0.000000 0.000000 1.775330 
# 
# From -- ./inp_files/64052.got.cif
#   From: 2010.05.17/outbox.cif.g08.bks.cpg/sg63_33_cif.got.tgz:64052.got - 2010.06.03 15:47:04.
