data_PCOD9472137
_publ_section_title
;
Structure prediction by ZEFSAII (Michael W. Deem and Ramdas Pophale) SiO2 
 PCOD9472137
Probable space group: C M C M
;
_chemical_formula_sum "Si O2"
_cell_formula_units_Z 60
_cell_length_a 30.879199
_cell_length_b 5.298732
_cell_length_c 17.183783
_cell_angle_alpha 90.000000
_cell_angle_beta 90.000000
_cell_angle_gamma 90.000000
_cell_volume 2811.620883
_symmetry_space_group_name_H-M "C M C M"
_symmetry_group_IT_number 63
_symmetry_cell_setting 'orthorhombic'
loop_
_space_group_symop_operation_xyz
x,y,z
-x,-y,1/2+z
x,-y,-z
-x,y,1/2-z
-x,-y,-z
x,y,1/2-z
-x,y,z
x,-y,1/2+z
1/2+x,1/2+y,z
1/2-x,1/2-y,1/2+z
1/2+x,1/2-y,-z
1/2-x,1/2+y,1/2-z
1/2-x,1/2-y,-z
1/2+x,1/2+y,1/2-z
1/2-x,1/2+y,z
1/2+x,1/2-y,1/2+z
loop_
_atom_site_type_symbol
_atom_site_label
_atom_site_fract_x
_atom_site_fract_y
_atom_site_fract_z
Si Si1 0.450140 0.221776 0.341624
Si Si2 0.078736 0.232055 0.081035
Si Si3 0.731859 0.203368 0.412143
Si Si4 0.000000 0.500000 0.500000
Si Si5 0.846597 0.500000 0.000000
O O1 0.453744 0.267781 0.250000
O O2 0.500000 0.181759 0.374062
O O3 0.427757 0.462242 0.380072
O O4 0.425690 0.960892 0.356862
O O5 0.038679 0.296502 0.025375
O O6 0.122824 0.283559 0.035037
O O7 0.750000 0.250000 0.500000
O O8 0.740868 0.474913 0.374706
O O9 0.683466 0.112018 0.431039
#
# Coordination Sequence:
#
# PCOD9472137 Si02
#       5
#    16  16  16   4   8
#     4  11  22  38  53  66  90 136 187 212 236 280
#     4  11  22  33  53  73 102 130 162 209 254 295
#     4   8  15  28  47  66 104 134 155 182 229 310
#     4  10  20  34  46  74 104 126 152 188 268 304
#     4   9  20  31  48  82 108 128 152 203 256 309
#
# _framework density 21.340004
#
# number of rings (size 3 to 8) (size 9 to 14) (size 15 to 20)
#    0.000    2.400    2.667    0.800    0.000   16.000 
#    0.000    0.000    0.000    0.000    0.000    0.000 
#    0.000  192.000    0.000    0.000    0.000    0.000 
#
# Total GULP energy -167034.931829 kJ/mol
# GULP energy per Si atom -5567.831061 kJ/mol
# Density = 2.129143 g / cm^3
# Si number density = 21.340004 Si / 1000 Ang^3
#
#
#
# Elastic Constant Matrix: (Units=GPa)
#
#
# Indices 1 2 3 4 5 6 
#
# 1 121.5680 34.5235 15.4257 0.0000 0.0000 0.0000
# 2 34.5235 182.4906 26.2431 0.0000 0.0000 0.0000
# 3 15.4257 26.2431 43.4986 0.0000 0.0000 0.0000
# 4 0.0000 0.0000 0.0000 24.8816 0.0000 0.0000
# 5 0.0000 0.0000 0.0000 0.0000 -4.7558 0.0000
# 6 0.0000 0.0000 0.0000 0.0000 0.0000 -19.4974
#
#
#
# Elastic Compliance Matrix: (Units=1/GPa)
#
#
# Indices 1 2 3 4 5 6 
#
# 1 0.008906 -0.001348 -0.002345 0.000000 0.000000 0.000000
# 2 -0.001348 0.006204 -0.003265 0.000000 0.000000 0.000000
# 3 -0.002345 -0.003265 0.025791 0.000000 0.000000 0.000000
# 4 0.000000 0.000000 0.000000 0.040190 0.000000 0.000000
# 5 0.000000 0.000000 0.000000 0.000000 -0.210271 0.000000
# 6 0.000000 0.000000 0.000000 0.000000 0.000000 -0.051289
#
#
# Mechanical properties :
#
#
# Convention : Reuss Voigt Hill
#
# Bulk Modulus (GPa) = 37.05755 55.54909 46.30332
# Shear Modulus (GPa) = -31.73450 18.21669 -6.75890
#
# Velocity S-wave (km/s) = -3.86046 2.92488 -1.78161
# Velocity P-wave (km/s) = 1.57096 6.12320 4.18483
#
# Compressibility (1/GPa) = 0.02698505
#
# Stress axis : x y z
#
# Youngs Moduli (GPa) = 112.28207 161.18064 38.77339
#
# Poissons Ratio (x) = 0.21721 0.09094
# Poissons Ratio (y) = 0.15131 0.12660
# Poissons Ratio (z) = 0.26334 0.52628
#
# Static dielectric constant tensor:
#      x y z
#    x 1.804140 0.000000 0.000000 
#    y 0.000000 2.149930 0.000000 
#    z 0.000000 0.000000 -0.656180 
# 
# From -- ./inp_files/49282.got.cif
#   From: 2010.05.17/outbox.cif.g08.bks.cpg/sg63_25_cif.got.tgz:49282.got - 2010.06.03 15:47:04.
