data_PCOD9472214
_publ_section_title
;
Structure prediction by ZEFSAII (Michael W. Deem and Ramdas Pophale) SiO2 
 PCOD9472214
Probable space group: C M C M
;
_chemical_formula_sum "Si O2"
_cell_formula_units_Z 80
_cell_length_a 27.321717
_cell_length_b 10.244775
_cell_length_c 16.599390
_cell_angle_alpha 90.000000
_cell_angle_beta 90.000000
_cell_angle_gamma 90.000000
_cell_volume 4646.249656
_symmetry_space_group_name_H-M "C M C M"
_symmetry_group_IT_number 63
_symmetry_cell_setting 'orthorhombic'
loop_
_space_group_symop_operation_xyz
x,y,z
-x,-y,1/2+z
x,-y,-z
-x,y,1/2-z
-x,-y,-z
x,y,1/2-z
-x,y,z
x,-y,1/2+z
1/2+x,1/2+y,z
1/2-x,1/2-y,1/2+z
1/2+x,1/2-y,-z
1/2-x,1/2+y,1/2-z
1/2-x,1/2-y,-z
1/2+x,1/2+y,1/2-z
1/2-x,1/2+y,z
1/2+x,1/2-y,1/2+z
loop_
_atom_site_type_symbol
_atom_site_label
_atom_site_fract_x
_atom_site_fract_y
_atom_site_fract_z
Si Si1 0.052270 0.218837 0.153666
Si Si2 0.158210 0.533903 0.345989
Si Si3 0.841334 0.777102 0.653218
Si Si4 0.553642 0.982336 0.596251
Si Si5 0.751064 0.875467 0.943381
O O1 0.052136 0.200655 0.250000
O O2 0.105306 0.173036 0.123833
O O3 0.052422 0.373983 0.136203
O O4 0.000000 0.167358 0.121660
O O5 0.163653 0.547284 0.250000
O O6 0.162328 0.378323 0.366180
O O7 0.103784 0.579704 0.371839
O O8 0.200998 0.606712 0.393454
O O9 0.840003 0.786107 0.750000
O O10 0.796774 0.855093 0.615695
O O11 0.500000 0.920900 0.613253
O O12 0.557473 0.000000 0.500000
O O13 0.750000 0.750000 0.000000
O O14 0.757393 0.000000 0.000000
#
# Coordination Sequence:
#
# PCOD9472214 Si02
#       5
#    16  16  16  16  16
#     4   8  14  26  46  72 100 131 168 211 255 302
#     4  10  20  34  52  75 106 141 179 218 261 315
#     4   9  18  33  53  77 105 136 173 215 260 313
#     4   9  16  25  43  73 107 137 166 208 262 313
#     4  12  23  37  54  76 106 139 176 221 264 314
#
# _framework density 17.218188000000001
#
# number of rings (size 3 to 8) (size 9 to 14) (size 15 to 20)
#    0.000    2.400    2.000    3.000    2.800    1.200 
#    0.000    0.000    0.000    0.600    0.000    0.000 
#    0.000    3.200    0.000    0.000    0.000    0.000 
#
# Total GULP energy -222684.985384 kJ/mol
# GULP energy per Si atom -5567.124635 kJ/mol
# Density = 1.717900 g / cm^3
# Si number density = 17.218188 Si / 1000 Ang^3
#
#
#
# Elastic Constant Matrix: (Units=GPa)
#
#
# Indices 1 2 3 4 5 6 
#
# 1 223.0198 38.3359 58.3765 0.0000 0.0000 0.0000
# 2 38.3359 43.0052 22.7134 0.0000 0.0000 0.0000
# 3 58.3765 22.7134 38.0748 0.0000 0.0000 0.0000
# 4 0.0000 0.0000 0.0000 17.3595 0.0000 0.0000
# 5 0.0000 0.0000 0.0000 0.0000 28.4011 0.0000
# 6 0.0000 0.0000 0.0000 0.0000 0.0000 23.0013
#
#
#
# Elastic Compliance Matrix: (Units=1/GPa)
#
#
# Indices 1 2 3 4 5 6 
#
# 1 0.007513 -0.000896 -0.010985 0.000000 0.000000 0.000000
# 2 -0.000896 0.034056 -0.018943 0.000000 0.000000 0.000000
# 3 -0.010985 -0.018943 0.054407 0.000000 0.000000 0.000000
# 4 0.000000 0.000000 0.000000 0.057605 0.000000 0.000000
# 5 0.000000 0.000000 0.000000 0.000000 0.035210 0.000000
# 6 0.000000 0.000000 0.000000 0.000000 0.000000 0.043476
#
#
# Mechanical properties :
#
#
# Convention : Reuss Voigt Hill
#
# Bulk Modulus (GPa) = 29.12989 60.32794 44.72892
# Shear Modulus (GPa) = 16.37426 26.06397 21.21912
#
# Velocity S-wave (km/s) = 3.08715 3.89491 3.51432
# Velocity P-wave (km/s) = 5.44630 7.43912 6.51930
#
# Compressibility (1/GPa) = 0.03432900
#
# Stress axis : x y z
#
# Youngs Moduli (GPa) = 133.09804 29.36323 18.38011
#
# Poissons Ratio (x) = 0.02630 0.20191
# Poissons Ratio (y) = 0.11922 0.34817
# Poissons Ratio (z) = 1.46209 0.55622
#
# Static dielectric constant tensor:
#      x y z
#    x 1.664020 0.000000 0.000000 
#    y 0.000000 1.535700 0.000000 
#    z 0.000000 0.000000 1.583180 
# 
# From -- ./inp_files/37696.got.cif
#   From: 2010.05.17/outbox.cif.g08.bks.cpg/sg63_19_cif.got.tgz:37696.got - 2010.06.03 15:47:04.
