data_PCOD9472434
_publ_section_title
;
Structure prediction by ZEFSAII (Michael W. Deem and Ramdas Pophale) SiO2 
 PCOD9472434
Probable space group: C M C M
;
_chemical_formula_sum "Si O2"
_cell_formula_units_Z 72
_cell_length_a 16.263249
_cell_length_b 27.915609
_cell_length_c 8.901596
_cell_angle_alpha 90.000000
_cell_angle_beta 90.000000
_cell_angle_gamma 90.000000
_cell_volume 4041.311233
_symmetry_space_group_name_H-M "C M C M"
_symmetry_group_IT_number 63
_symmetry_cell_setting 'orthorhombic'
loop_
_space_group_symop_operation_xyz
x,y,z
-x,-y,1/2+z
x,-y,-z
-x,y,1/2-z
-x,-y,-z
x,y,1/2-z
-x,y,z
x,-y,1/2+z
1/2+x,1/2+y,z
1/2-x,1/2-y,1/2+z
1/2+x,1/2-y,-z
1/2-x,1/2+y,1/2-z
1/2-x,1/2-y,-z
1/2+x,1/2+y,1/2-z
1/2-x,1/2+y,z
1/2+x,1/2-y,1/2+z
loop_
_atom_site_type_symbol
_atom_site_label
_atom_site_fract_x
_atom_site_fract_y
_atom_site_fract_z
Si Si1 0.256183 0.802332 0.569864
Si Si2 0.593877 0.858455 0.071580
Si Si3 0.155310 0.894019 0.928001
Si Si4 0.000000 0.053400 0.929083
Si Si5 0.671199 0.051888 0.427782
O O1 0.255743 0.799863 0.750000
O O2 0.250000 0.750000 0.500000
O O3 0.340967 0.825489 0.513359
O O4 0.184209 0.840359 0.526584
O O5 0.609352 0.856829 0.250000
O O6 0.500000 0.844141 0.043832
O O7 0.610287 0.911689 0.010393
O O8 0.135396 0.893410 0.750000
O O9 0.236970 0.926434 0.947521
O O10 0.080120 0.917268 0.016398
O O11 0.000000 0.048798 0.750000
O O12 0.000000 0.000000 0.000000
O O13 0.654367 0.050685 0.250000
O O14 0.666788 0.000000 0.500000
#
# Coordination Sequence:
#
# PCOD9472434 Si02
#       5
#    16  16  16   8  16
#     4  10  21  39  63  86 111 146 185 232 286 338
#     4  10  21  37  57  82 112 146 184 227 275 328
#     4   9  20  38  57  80 111 147 187 232 281 334
#     4  12  24  36  56  84 116 154 192 236 287 340
#     4  10  20  34  55  81 110 148 188 228 277 330
#
# _framework density 17.815999000000001
#
# number of rings (size 3 to 8) (size 9 to 14) (size 15 to 20)
#    0.000    2.000    0.000    5.000    0.000    9.333 
#    2.000    0.000    0.000    0.000    0.000    0.000 
#    0.000    0.000    0.000    0.000    0.000    0.000 
#
# Total GULP energy -201003.457244 kJ/mol
# GULP energy per Si atom -5583.429368 kJ/mol
# Density = 1.777545 g / cm^3
# Si number density = 17.815999 Si / 1000 Ang^3
#
#
#
# Elastic Constant Matrix: (Units=GPa)
#
#
# Indices 1 2 3 4 5 6 
#
# 1 86.9977 53.7344 59.5847 0.0000 0.0000 0.0000
# 2 53.7344 167.4754 58.8737 0.0000 0.0000 0.0000
# 3 59.5847 58.8737 86.0110 0.0000 0.0000 0.0000
# 4 0.0000 0.0000 0.0000 37.4360 0.0000 0.0000
# 5 0.0000 0.0000 0.0000 0.0000 30.7370 0.0000
# 6 0.0000 0.0000 0.0000 0.0000 0.0000 11.3277
#
#
#
# Elastic Compliance Matrix: (Units=1/GPa)
#
#
# Indices 1 2 3 4 5 6 
#
# 1 0.022522 -0.002293 -0.014032 0.000000 0.000000 0.000000
# 2 -0.002293 0.008097 -0.003953 0.000000 0.000000 0.000000
# 3 -0.014032 -0.003953 0.024054 0.000000 0.000000 0.000000
# 4 0.000000 0.000000 0.000000 0.026712 0.000000 0.000000
# 5 0.000000 0.000000 0.000000 0.000000 0.032534 0.000000
# 6 0.000000 0.000000 0.000000 0.000000 0.000000 0.088279
#
#
# Mechanical properties :
#
#
# Convention : Reuss Voigt Hill
#
# Bulk Modulus (GPa) = 70.85250 76.09665 73.47457
# Shear Modulus (GPa) = 20.20527 27.11954 23.66240
#
# Velocity S-wave (km/s) = 3.37131 3.90577 3.64834
# Velocity P-wave (km/s) = 7.41685 7.94640 7.68619
#
# Compressibility (1/GPa) = 0.01411383
#
# Stress axis : x y z
#
# Youngs Moduli (GPa) = 44.40157 123.50927 41.57393
#
# Poissons Ratio (x) = 0.28323 0.58338
# Poissons Ratio (y) = 0.10182 0.16436
# Poissons Ratio (z) = 0.62306 0.48828
#
# Static dielectric constant tensor:
#      x y z
#    x 1.594150 0.000000 0.000000 
#    y 0.000000 1.679990 0.000000 
#    z 0.000000 0.000000 1.598820 
# 
# From -- ./inp_files/4632.got.cif
#   From: 2010.05.17/outbox.cif.g08.bks.cpg/sg63_3_cif.got.tgz:4632.got - 2010.06.03 15:47:04.
