data_PCOD9472351
_publ_section_title
;
Structure prediction by ZEFSAII (Michael W. Deem and Ramdas Pophale) SiO2 
 PCOD9472351
Probable space group: C M C M
;
_chemical_formula_sum "Si O2"
_cell_formula_units_Z 64
_cell_length_a 27.659168
_cell_length_b 11.457565
_cell_length_c 8.852787
_cell_angle_alpha 90.000000
_cell_angle_beta 90.000000
_cell_angle_gamma 90.000000
_cell_volume 2805.507649
_symmetry_space_group_name_H-M "C M C M"
_symmetry_group_IT_number 63
_symmetry_cell_setting 'orthorhombic'
loop_
_space_group_symop_operation_xyz
x,y,z
-x,-y,1/2+z
x,-y,-z
-x,y,1/2-z
-x,-y,-z
x,y,1/2-z
-x,y,z
x,-y,1/2+z
1/2+x,1/2+y,z
1/2-x,1/2-y,1/2+z
1/2+x,1/2-y,-z
1/2-x,1/2+y,1/2-z
1/2-x,1/2-y,-z
1/2+x,1/2+y,1/2-z
1/2-x,1/2+y,z
1/2+x,1/2-y,1/2+z
loop_
_atom_site_type_symbol
_atom_site_label
_atom_site_fract_x
_atom_site_fract_y
_atom_site_fract_z
Si Si1 0.181957 0.645546 0.921713
Si Si2 0.916688 0.377904 0.572731
Si Si3 0.284067 0.601650 0.420286
Si Si4 0.941660 0.875339 0.576519
O O1 0.172976 0.604115 0.750000
O O2 0.184033 0.784681 0.917697
O O3 0.140828 0.614035 0.039582
O O4 0.235773 0.617445 0.979810
O O5 0.936664 0.500000 0.500000
O O6 0.927485 0.377140 0.750000
O O7 0.930481 0.251137 0.501586
O O8 0.312794 0.500000 0.500000
O O9 0.269523 0.574711 0.250000
O O10 0.923643 0.871703 0.750000
O O11 0.000000 0.879872 0.580053
O O12 0.926896 0.000000 0.500000
#
# Coordination Sequence:
#
# PCOD9472351 Si02
#       4
#    16  16  16  16
#     4  10  21  37  55  78 112 152 197 247 301 361
#     4  12  25  41  63  91 126 165 207 255 307 365
#     4  10  20  34  54  78 107 147 195 247 301 358
#     4  10  22  43  70  98 128 162 201 246 300 363
#
# _framework density 22.812270000000002
#
# number of rings (size 3 to 8) (size 9 to 14) (size 15 to 20)
#    0.000    1.500    0.000    5.250    0.000    6.000 
#    0.000    2.500    0.000    0.000    0.000    0.000 
#    0.000    0.000    0.000    0.000    0.000    0.000 
#
# Total GULP energy -178558.616355 kJ/mol
# GULP energy per Si atom -5579.956761 kJ/mol
# Density = 2.276035 g / cm^3
# Si number density = 22.812270 Si / 1000 Ang^3
#
#
#
# Elastic Constant Matrix: (Units=GPa)
#
#
# Indices 1 2 3 4 5 6 
#
# 1 55.2014 13.8487 3.5644 0.0000 0.0000 0.0000
# 2 13.8487 231.0028 111.4235 0.0000 0.0000 0.0000
# 3 3.5644 111.4235 183.3435 0.0000 0.0000 0.0000
# 4 0.0000 0.0000 0.0000 49.0026 0.0000 0.0000
# 5 0.0000 0.0000 0.0000 0.0000 31.3825 0.0000
# 6 0.0000 0.0000 0.0000 0.0000 0.0000 -46.6088
#
#
#
# Elastic Compliance Matrix: (Units=1/GPa)
#
#
# Indices 1 2 3 4 5 6 
#
# 1 0.018417 -0.001318 0.000443 0.000000 0.000000 0.000000
# 2 -0.001318 0.006218 -0.003754 0.000000 0.000000 0.000000
# 3 0.000443 -0.003754 0.007727 0.000000 0.000000 0.000000
# 4 0.000000 0.000000 0.000000 0.020407 0.000000 0.000000
# 5 0.000000 0.000000 0.000000 0.000000 0.031865 0.000000
# 6 0.000000 0.000000 0.000000 0.000000 0.000000 -0.021455
#
#
# Mechanical properties :
#
#
# Convention : Reuss Voigt Hill
#
# Bulk Modulus (GPa) = 43.27925 80.80230 62.04078
# Shear Modulus (GPa) = 62.39207 29.46932 45.93070
#
# Velocity S-wave (km/s) = 5.23542 3.59809 4.49198
# Velocity P-wave (km/s) = 7.45381 7.26354 7.35929
#
# Compressibility (1/GPa) = 0.02310576
#
# Stress axis : x y z
#
# Youngs Moduli (GPa) = 54.29624 160.81180 129.42017
#
# Poissons Ratio (x) = 0.21190 -0.05730
# Poissons Ratio (y) = 0.07155 0.48578
# Poissons Ratio (z) = -0.02404 0.60361
#
# Static dielectric constant tensor:
#      x y z
#    x 1.842130 0.000000 0.000000 
#    y 0.000000 2.045770 0.000000 
#    z 0.000000 0.000000 1.823610 
# 
# From -- ./inp_files/13733.got.cif
#   From: 2010.05.17/outbox.cif.g08.bks.cpg/sg63_7_cif.got.tgz:13733.got - 2010.06.03 15:47:04.
