data_PCOD9472874
_publ_section_title
;
Structure prediction by ZEFSAII (Michael W. Deem and Ramdas Pophale) SiO2 
 PCOD9472874
Probable space group: C M C M
;
_chemical_formula_sum "Si O2"
_cell_formula_units_Z 88
_cell_length_a 21.700191
_cell_length_b 10.328574
_cell_length_c 20.287900
_cell_angle_alpha 90.000000
_cell_angle_beta 90.000000
_cell_angle_gamma 90.000000
_cell_volume 4547.168182
_symmetry_space_group_name_H-M "C M C M"
_symmetry_group_IT_number 63
_symmetry_cell_setting 'orthorhombic'
loop_
_space_group_symop_operation_xyz
x,y,z
-x,-y,1/2+z
x,-y,-z
-x,y,1/2-z
-x,-y,-z
x,y,1/2-z
-x,y,z
x,-y,1/2+z
1/2+x,1/2+y,z
1/2-x,1/2-y,1/2+z
1/2+x,1/2-y,-z
1/2-x,1/2+y,1/2-z
1/2-x,1/2-y,-z
1/2+x,1/2+y,1/2-z
1/2-x,1/2+y,z
1/2+x,1/2-y,1/2+z
loop_
_atom_site_type_symbol
_atom_site_label
_atom_site_fract_x
_atom_site_fract_y
_atom_site_fract_z
Si Si1 0.130440 0.667093 0.101835
Si Si2 0.304364 0.000000 0.000000
Si Si3 0.169209 0.583412 0.822911
Si Si4 0.628480 0.355024 0.831078
Si Si5 0.711737 0.580320 0.883929
Si Si6 0.000000 0.716752 0.169798
Si Si7 0.500000 0.526733 0.172246
O O1 0.161971 0.557403 0.146884
O O2 0.161642 0.807479 0.107428
O O3 0.060832 0.671707 0.129789
O O4 0.150377 0.608636 0.030924
O O5 0.257426 0.938631 0.053745
O O6 0.144514 0.574573 0.750000
O O7 0.135236 0.706781 0.853806
O O8 0.241043 0.619240 0.826309
O O9 0.634233 0.361361 0.750000
O O10 0.679520 0.446605 0.863744
O O11 0.562775 0.411175 0.852875
O O12 0.000000 0.684450 0.250000
O O13 0.000000 0.872742 0.165763
O O14 0.500000 0.555577 0.250000
#
# Coordination Sequence:
#
# PCOD9472874 Si02
#       7
#    16   8  16  16  16   8   8
#     4  11  23  39  61  87 119 159 200 247 295 351
#     4  10  24  41  60  85 116 160 206 250 292 340
#     4  10  21  34  54  90 126 155 191 242 306 362
#     4  10  20  35  58  87 120 155 192 241 301 363
#     4  11  21  38  62  85 115 157 204 250 295 346
#     4  11  22  38  64  94 120 149 192 246 298 357
#     4   9  18  35  58  84 116 152 190 232 289 355
#
# _framework density 19.352703000000002
#
# number of rings (size 3 to 8) (size 9 to 14) (size 15 to 20)
#    0.000    1.636    1.818    3.818    0.000    6.182 
#    0.000    1.818    0.000    6.545    0.000    0.000 
#    0.000    0.000    0.000    0.000    0.000    0.000 
#
# Total GULP energy -245000.953712 kJ/mol
# GULP energy per Si atom -5568.203493 kJ/mol
# Density = 1.930866 g / cm^3
# Si number density = 19.352703 Si / 1000 Ang^3
#
#
#
# Elastic Constant Matrix: (Units=GPa)
#
#
# Indices 1 2 3 4 5 6 
#
# 1 114.0168 7.5963 33.5105 0.0000 0.0000 0.0000
# 2 7.5963 65.8170 27.7263 0.0000 0.0000 0.0000
# 3 33.5105 27.7263 65.9415 0.0000 0.0000 0.0000
# 4 0.0000 0.0000 0.0000 20.5842 0.0000 0.0000
# 5 0.0000 0.0000 0.0000 0.0000 22.7491 0.0000
# 6 0.0000 0.0000 0.0000 0.0000 0.0000 18.6394
#
#
#
# Elastic Compliance Matrix: (Units=1/GPa)
#
#
# Indices 1 2 3 4 5 6 
#
# 1 0.010394 0.001246 -0.005806 0.000000 0.000000 0.000000
# 2 0.001246 0.018614 -0.008460 0.000000 0.000000 0.000000
# 3 -0.005806 -0.008460 0.021673 0.000000 0.000000 0.000000
# 4 0.000000 0.000000 0.000000 0.048581 0.000000 0.000000
# 5 0.000000 0.000000 0.000000 0.000000 0.043958 0.000000
# 6 0.000000 0.000000 0.000000 0.000000 0.000000 0.053650
#
#
# Mechanical properties :
#
#
# Convention : Reuss Voigt Hill
#
# Bulk Modulus (GPa) = 40.58270 42.60460 41.59365
# Shear Modulus (GPa) = 21.63363 24.19069 22.91216
#
# Velocity S-wave (km/s) = 3.34707 3.53936 3.44455
# Velocity P-wave (km/s) = 5.99606 6.22618 6.11220
#
# Compressibility (1/GPa) = 0.02464104
#
# Stress axis : x y z
#
# Youngs Moduli (GPa) = 96.20865 53.72413 46.14121
#
# Poissons Ratio (x) = -0.06696 0.26790
# Poissons Ratio (y) = -0.11990 0.39034
# Poissons Ratio (z) = 0.55860 0.45449
#
# Static dielectric constant tensor:
#      x y z
#    x 1.687760 0.000000 0.000000 
#    y 0.000000 1.657210 0.000000 
#    z 0.000000 0.000000 1.779350 
# 
# From -- ./inp_files/64476.got.cif
#   From: 2010.05.17/outbox.cif.g08.bks.cpg/sg63_33_cif.got.tgz:64476.got - 2010.06.03 15:47:04.
