data_PCOD9472490
_publ_section_title
;
Structure prediction by ZEFSAII (Michael W. Deem and Ramdas Pophale) SiO2 
 PCOD9472490
Probable space group: C M C M
;
_chemical_formula_sum "Si O2"
_cell_formula_units_Z 112
_cell_length_a 17.763284
_cell_length_b 22.579230
_cell_length_c 14.100221
_cell_angle_alpha 90.000000
_cell_angle_beta 90.000000
_cell_angle_gamma 90.000000
_cell_volume 5655.334616
_symmetry_space_group_name_H-M "C M C M"
_symmetry_group_IT_number 63
_symmetry_cell_setting 'orthorhombic'
loop_
_space_group_symop_operation_xyz
x,y,z
-x,-y,1/2+z
x,-y,-z
-x,y,1/2-z
-x,-y,-z
x,y,1/2-z
-x,y,z
x,-y,1/2+z
1/2+x,1/2+y,z
1/2-x,1/2-y,1/2+z
1/2+x,1/2-y,-z
1/2-x,1/2+y,1/2-z
1/2-x,1/2-y,-z
1/2+x,1/2+y,1/2-z
1/2-x,1/2+y,z
1/2+x,1/2-y,1/2+z
loop_
_atom_site_type_symbol
_atom_site_label
_atom_site_fract_x
_atom_site_fract_y
_atom_site_fract_z
Si Si1 0.121273 0.993894 0.139605
Si Si2 0.340031 0.132425 0.507357
Si Si3 0.295508 0.696543 0.552426
Si Si4 0.084367 0.104639 0.013340
Si Si5 0.911582 0.277492 0.857484
Si Si6 0.719135 0.955374 0.643484
Si Si7 0.083238 0.455248 0.356614
O O1 0.103222 0.987448 0.250000
O O2 0.092085 0.056569 0.098073
O O3 0.211121 0.000943 0.126709
O O4 0.094028 0.938259 0.078436
O O5 0.277130 0.157750 0.579922
O O6 0.385696 0.177877 0.440619
O O7 0.289939 0.094252 0.434566
O O8 0.397193 0.092698 0.565335
O O9 0.250000 0.750000 0.500000
O O10 0.352476 0.655750 0.489915
O O11 0.352093 0.723937 0.629498
O O12 0.000000 0.129829 0.014424
O O13 0.903833 0.301888 0.750000
O O14 0.000000 0.261448 0.869173
O O15 0.728682 0.930917 0.750000
O O16 0.643668 0.993130 0.638107
O O17 0.087513 0.429783 0.250000
O O18 0.000000 0.479692 0.370526
#
# Coordination Sequence:
#
# PCOD9472490 Si02
#       7
#    16  16  16  16  16  16  16
#     4  10  21  37  59  89 123 160 197 241 303 369
#     4  11  20  36  61  82 112 153 200 241 298 352
#     4  10  22  39  59  83 113 156 200 247 300 360
#     4  11  22  37  60  89 122 157 199 251 302 364
#     4  10  22  39  59  86 116 147 194 253 308 360
#     4  10  20  34  56  83 117 154 192 239 290 356
#     4  10  22  36  52  82 119 155 195 238 287 346
#
# _framework density 19.804310000000001
#
# number of rings (size 3 to 8) (size 9 to 14) (size 15 to 20)
#    0.000    1.714    1.429    3.429    2.000    4.000 
#    0.000    1.429    0.000    0.857    0.000    0.000 
#    0.000    0.000    0.000    0.000    0.000    0.000 
#
# Total GULP energy -312219.402575 kJ/mol
# GULP energy per Si atom -5575.346475 kJ/mol
# Density = 1.975923 g / cm^3
# Si number density = 19.804310 Si / 1000 Ang^3
#
#
#
# Elastic Constant Matrix: (Units=GPa)
#
#
# Indices 1 2 3 4 5 6 
#
# 1 136.0630 18.7628 20.2333 0.0000 0.0000 0.0000
# 2 18.7628 43.5905 15.1276 0.0000 0.0000 0.0000
# 3 20.2333 15.1276 72.6568 0.0000 0.0000 0.0000
# 4 0.0000 0.0000 0.0000 36.1312 0.0000 0.0000
# 5 0.0000 0.0000 0.0000 0.0000 25.1935 0.0000
# 6 0.0000 0.0000 0.0000 0.0000 0.0000 26.2687
#
#
#
# Elastic Compliance Matrix: (Units=1/GPa)
#
#
# Indices 1 2 3 4 5 6 
#
# 1 0.007988 -0.002874 -0.001626 0.000000 0.000000 0.000000
# 2 -0.002874 0.025761 -0.004563 0.000000 0.000000 0.000000
# 3 -0.001626 -0.004563 0.015166 0.000000 0.000000 0.000000
# 4 0.000000 0.000000 0.000000 0.027677 0.000000 0.000000
# 5 0.000000 0.000000 0.000000 0.000000 0.039693 0.000000
# 6 0.000000 0.000000 0.000000 0.000000 0.000000 0.038068
#
#
# Mechanical properties :
#
#
# Convention : Reuss Voigt Hill
#
# Bulk Modulus (GPa) = 32.47933 40.06197 36.27065
# Shear Modulus (GPa) = 27.36089 30.73112 29.04600
#
# Velocity S-wave (km/s) = 3.72097 3.94349 3.83384
# Velocity P-wave (km/s) = 5.90733 6.40372 6.16053
#
# Compressibility (1/GPa) = 0.03078881
#
# Stress axis : x y z
#
# Youngs Moduli (GPa) = 125.19359 38.81771 65.93579
#
# Poissons Ratio (x) = 0.11156 0.10721
# Poissons Ratio (y) = 0.35979 0.30089
# Poissons Ratio (z) = 0.20357 0.17714
#
# Static dielectric constant tensor:
#      x y z
#    x 1.711650 0.000000 0.000000 
#    y 0.000000 1.735970 0.000000 
#    z 0.000000 0.000000 1.722570 
# 
# From -- ./inp_files/32303.got.cif
#   From: 2010.05.17/outbox.cif.g08.bks.cpg/sg63_17_cif.got.tgz:32303.got - 2010.06.03 15:47:04.
