data_PCOD9472036
_publ_section_title
;
Structure prediction by ZEFSAII (Michael W. Deem and Ramdas Pophale) SiO2 
 PCOD9472036
Probable space group: C M C M
;
_chemical_formula_sum "Si O2"
_cell_formula_units_Z 96
_cell_length_a 9.631469
_cell_length_b 21.370526
_cell_length_c 23.659315
_cell_angle_alpha 90.000000
_cell_angle_beta 90.000000
_cell_angle_gamma 90.000000
_cell_volume 4869.786365
_symmetry_space_group_name_H-M "C M C M"
_symmetry_group_IT_number 63
_symmetry_cell_setting 'orthorhombic'
loop_
_space_group_symop_operation_xyz
x,y,z
-x,-y,1/2+z
x,-y,-z
-x,y,1/2-z
-x,-y,-z
x,y,1/2-z
-x,y,z
x,-y,1/2+z
1/2+x,1/2+y,z
1/2-x,1/2-y,1/2+z
1/2+x,1/2-y,-z
1/2-x,1/2+y,1/2-z
1/2-x,1/2-y,-z
1/2+x,1/2+y,1/2-z
1/2-x,1/2+y,z
1/2+x,1/2-y,1/2+z
loop_
_atom_site_type_symbol
_atom_site_label
_atom_site_fract_x
_atom_site_fract_y
_atom_site_fract_z
Si Si1 0.839258 0.410958 0.972684
Si Si2 0.157510 0.836499 0.683241
Si Si3 0.660757 0.777697 0.909005
Si Si4 0.837037 0.340193 0.420161
Si Si5 0.661311 0.470942 0.878117
Si Si6 0.336173 0.922825 0.316043
O O1 0.829658 0.341278 0.945445
O O2 0.739458 0.454980 0.936676
O O3 0.000000 0.431632 0.967440
O O4 0.804637 0.398030 0.037958
O O5 0.179622 0.837689 0.750000
O O6 0.267615 0.794854 0.650298
O O7 0.165997 0.906427 0.657970
O O8 0.000000 0.813484 0.671887
O O9 0.500000 0.761551 0.903170
O O10 0.744962 0.719601 0.933703
O O11 0.815435 0.362738 0.356056
O O12 0.000000 0.325825 0.428822
O O13 0.500000 0.487417 0.886975
O O14 0.742280 0.522748 0.842272
O O15 0.306252 0.912267 0.250000
O O16 0.500000 0.939809 0.321092
#
# Coordination Sequence:
#
# PCOD9472036 Si02
#       6
#    16  16  16  16  16  16
#     4   9  19  36  57  81 109 141 178 221 270 323
#     4   9  18  33  53  76 103 138 178 218 264 321
#     4  10  20  33  52  80 110 139 175 222 274 320
#     4  10  21  37  56  77 106 147 187 220 261 319
#     4  10  20  35  57  83 109 137 174 223 276 324
#     4  10  22  39  57  77 104 142 184 221 261 314
#
# _framework density 19.713391000000001
#
# number of rings (size 3 to 8) (size 9 to 14) (size 15 to 20)
#    0.000    2.333    0.000    2.000    0.000    5.333 
#    0.000    5.000    0.000    0.000    0.000    0.000 
#    0.000    0.000    0.000    0.000    0.000    0.000 
#
# Total GULP energy -268085.783769 kJ/mol
# GULP energy per Si atom -5585.120495 kJ/mol
# Density = 1.966852 g / cm^3
# Si number density = 19.713391 Si / 1000 Ang^3
#
#
#
# Elastic Constant Matrix: (Units=GPa)
#
#
# Indices 1 2 3 4 5 6 
#
# 1 84.8873 51.2332 47.8172 0.0000 0.0000 0.0000
# 2 51.2332 55.3739 30.2458 0.0000 0.0000 0.0000
# 3 47.8172 30.2458 98.0814 0.0000 0.0000 0.0000
# 4 0.0000 0.0000 0.0000 22.1229 0.0000 0.0000
# 5 0.0000 0.0000 0.0000 0.0000 21.1547 0.0000
# 6 0.0000 0.0000 0.0000 0.0000 0.0000 25.1920
#
#
#
# Elastic Compliance Matrix: (Units=1/GPa)
#
#
# Indices 1 2 3 4 5 6 
#
# 1 0.030616 -0.024260 -0.007445 0.000000 0.000000 0.000000
# 2 -0.024260 0.040941 -0.000798 0.000000 0.000000 0.000000
# 3 -0.007445 -0.000798 0.014071 0.000000 0.000000 0.000000
# 4 0.000000 0.000000 0.000000 0.045202 0.000000 0.000000
# 5 0.000000 0.000000 0.000000 0.000000 0.047271 0.000000
# 6 0.000000 0.000000 0.000000 0.000000 0.000000 0.039695
#
#
# Mechanical properties :
#
#
# Convention : Reuss Voigt Hill
#
# Bulk Modulus (GPa) = 48.49050 55.21499 51.85275
# Shear Modulus (GPa) = 17.26065 20.96370 19.11217
#
# Velocity S-wave (km/s) = 2.96223 3.26456 3.11706
# Velocity P-wave (km/s) = 6.02917 6.50227 6.27018
#
# Compressibility (1/GPa) = 0.02062259
#
# Stress axis : x y z
#
# Youngs Moduli (GPa) = 32.66238 24.42545 71.06733
#
# Poissons Ratio (x) = 0.59257 0.52909
# Poissons Ratio (y) = 0.79240 0.05668
# Poissons Ratio (z) = 0.24317 0.01948
#
# Static dielectric constant tensor:
#      x y z
#    x 1.661690 0.000000 0.000000 
#    y 0.000000 1.685840 0.000000 
#    z 0.000000 0.000000 1.698540 
# 
# From -- ./inp_files/59902.got.cif
#   From: 2010.05.17/outbox.cif.g08.bks.cpg/sg63_30_cif.got.tgz:59902.got - 2010.06.03 15:47:04.
