data_PCOD9472248
_publ_section_title
;
Structure prediction by ZEFSAII (Michael W. Deem and Ramdas Pophale) SiO2 
 PCOD9472248
Probable space group: C M C M
;
_chemical_formula_sum "Si O2"
_cell_formula_units_Z 128
_cell_length_a 17.476903
_cell_length_b 23.560633
_cell_length_c 17.786057
_cell_angle_alpha 90.000000
_cell_angle_beta 90.000000
_cell_angle_gamma 90.000000
_cell_volume 7323.709511
_symmetry_space_group_name_H-M "C M C M"
_symmetry_group_IT_number 63
_symmetry_cell_setting 'orthorhombic'
loop_
_space_group_symop_operation_xyz
x,y,z
-x,-y,1/2+z
x,-y,-z
-x,y,1/2-z
-x,-y,-z
x,y,1/2-z
-x,y,z
x,-y,1/2+z
1/2+x,1/2+y,z
1/2-x,1/2-y,1/2+z
1/2+x,1/2-y,-z
1/2-x,1/2+y,1/2-z
1/2-x,1/2-y,-z
1/2+x,1/2+y,1/2-z
1/2-x,1/2+y,z
1/2+x,1/2-y,1/2+z
loop_
_atom_site_type_symbol
_atom_site_label
_atom_site_fract_x
_atom_site_fract_y
_atom_site_fract_z
Si Si1 0.658737 0.367303 0.948668
Si Si2 0.338150 0.133568 0.477903
Si Si3 0.587246 0.040396 0.573454
Si Si4 0.591940 0.256069 0.015221
Si Si5 0.908972 0.949893 0.661144
Si Si6 0.907384 0.566881 0.336212
Si Si7 0.407265 0.684146 0.668100
Si Si8 0.407810 0.430976 0.409092
O O1 0.748297 0.362879 0.963754
O O2 0.637189 0.396673 0.870617
O O3 0.620431 0.305979 0.960575
O O4 0.624213 0.409834 0.011756
O O5 0.359216 0.091218 0.546372
O O6 0.372660 0.194722 0.496900
O O7 0.375066 0.108246 0.400817
O O8 0.500000 0.060280 0.588357
O O9 0.583396 0.000000 0.500000
O O10 0.613102 0.997799 0.639339
O O11 0.500000 0.253305 0.012933
O O12 0.616787 0.277241 0.098551
O O13 0.899855 0.957432 0.750000
O O14 0.000000 0.941896 0.645975
O O15 0.883399 0.007454 0.619013
O O16 0.884412 0.579138 0.250000
O O17 0.000000 0.570110 0.340190
O O18 0.378889 0.701494 0.750000
O O19 0.500000 0.686459 0.669189
O O20 0.387121 0.619069 0.649253
O O21 0.500000 0.431935 0.414627
#
# Coordination Sequence:
#
# PCOD9472248 Si02
#       8
#    16  16  16  16  16  16  16  16
#     4  11  22  34  49  73 105 135 166 212 262 301
#     4  11  21  33  51  75 103 135 170 207 253 309
#     4   8  15  30  51  73  98 130 166 201 239 291
#     4  10  20  35  54  72  94 131 176 215 250 296
#     4  10  20  34  53  75 100 135 176 210 243 293
#     4   9  18  33  54  80 107 132 162 205 254 302
#     4   8  14  26  46  73 100 122 152 202 256 294
#     4   9  17  31  52  75  99 131 171 209 245 294
#
# _framework density 17.477481999999998
#
# number of rings (size 3 to 8) (size 9 to 14) (size 15 to 20)
#    0.000    2.500    0.000    4.875    0.000    6.500 
#    0.000    1.250    0.000    3.750    0.000    1.750 
#    0.000    0.000    0.000    0.000    0.000    0.000 
#
# Total GULP energy -356785.630099 kJ/mol
# GULP energy per Si atom -5574.775470 kJ/mol
# Density = 1.743770 g / cm^3
# Si number density = 17.477482 Si / 1000 Ang^3
#
#
#
# Elastic Constant Matrix: (Units=GPa)
#
#
# Indices 1 2 3 4 5 6 
#
# 1 46.8560 38.5108 0.6283 0.0000 0.0000 0.0000
# 2 38.5108 115.2832 20.2444 0.0000 0.0000 0.0000
# 3 0.6283 20.2444 31.7575 0.0000 0.0000 0.0000
# 4 0.0000 0.0000 0.0000 5.5092 0.0000 0.0000
# 5 0.0000 0.0000 0.0000 0.0000 7.0919 0.0000
# 6 0.0000 0.0000 0.0000 0.0000 0.0000 2.1275
#
#
#
# Elastic Compliance Matrix: (Units=1/GPa)
#
#
# Indices 1 2 3 4 5 6 
#
# 1 0.030621 -0.011399 0.006661 0.000000 0.000000 0.000000
# 2 -0.011399 0.014011 -0.008706 0.000000 0.000000 0.000000
# 3 0.006661 -0.008706 0.036907 0.000000 0.000000 0.000000
# 4 0.000000 0.000000 0.000000 0.181516 0.000000 0.000000
# 5 0.000000 0.000000 0.000000 0.000000 0.141007 0.000000
# 6 0.000000 0.000000 0.000000 0.000000 0.000000 0.470033
#
#
# Mechanical properties :
#
#
# Convention : Reuss Voigt Hill
#
# Bulk Modulus (GPa) = 18.29808 34.74041 26.51925
# Shear Modulus (GPa) = 5.43951 11.91325 8.67638
#
# Velocity S-wave (km/s) = 1.76608 2.61364 2.23049
# Velocity P-wave (km/s) = 3.82766 5.38782 4.67331
#
# Compressibility (1/GPa) = 0.05465053
#
# Stress axis : x y z
#
# Youngs Moduli (GPa) = 32.65696 71.37268 27.09531
#
# Poissons Ratio (x) = 0.81357 -0.18047
# Poissons Ratio (y) = 0.37225 0.23589
# Poissons Ratio (z) = -0.21752 0.62138
#
# Static dielectric constant tensor:
#      x y z
#    x 1.588340 0.000000 0.000000 
#    y 0.000000 1.595970 0.000000 
#    z 0.000000 0.000000 1.607000 
# 
# From -- ./inp_files/46345.got.cif
#   From: 2010.05.17/outbox.cif.g08.bks.cpg/sg63_24_cif.got.tgz:46345.got - 2010.06.03 15:47:04.
