data_PCOD9472295
_publ_section_title
;
Structure prediction by ZEFSAII (Michael W. Deem and Ramdas Pophale) SiO2 
 PCOD9472295
Probable space group: C M C M
;
_chemical_formula_sum "Si O2"
_cell_formula_units_Z 96
_cell_length_a 7.478686
_cell_length_b 20.749915
_cell_length_c 29.323939
_cell_angle_alpha 90.000000
_cell_angle_beta 90.000000
_cell_angle_gamma 90.000000
_cell_volume 4550.550399
_symmetry_space_group_name_H-M "C M C M"
_symmetry_group_IT_number 63
_symmetry_cell_setting 'orthorhombic'
loop_
_space_group_symop_operation_xyz
x,y,z
-x,-y,1/2+z
x,-y,-z
-x,y,1/2-z
-x,-y,-z
x,y,1/2-z
-x,y,z
x,-y,1/2+z
1/2+x,1/2+y,z
1/2-x,1/2-y,1/2+z
1/2+x,1/2-y,-z
1/2-x,1/2+y,1/2-z
1/2-x,1/2-y,-z
1/2+x,1/2+y,1/2-z
1/2-x,1/2+y,z
1/2+x,1/2-y,1/2+z
loop_
_atom_site_type_symbol
_atom_site_label
_atom_site_fract_x
_atom_site_fract_y
_atom_site_fract_z
Si Si1 0.704632 0.242670 0.366130
Si Si2 0.718760 0.568515 0.519641
Si Si3 0.210843 0.115248 0.618377
Si Si4 0.782218 0.369983 0.697156
Si Si5 0.287507 0.693389 0.035765
Si Si6 0.715875 0.014604 0.697655
O O1 0.500000 0.251982 0.349972
O O2 0.786819 0.313962 0.370173
O O3 0.785991 0.188795 0.333146
O O4 0.703376 0.212251 0.416355
O O5 0.777920 0.500000 0.500000
O O6 0.500000 0.567524 0.520098
O O7 0.780079 0.584757 0.571098
O O8 0.773847 0.626576 0.486445
O O9 0.229558 0.067175 0.660708
O O10 0.000000 0.125716 0.609771
O O11 0.736624 0.360550 0.750000
O O12 0.723697 0.442339 0.684122
O O13 0.000000 0.370744 0.693846
O O14 0.500000 0.689163 0.042956
O O15 0.250000 0.750000 0.000000
O O16 0.774919 0.027329 0.750000
O O17 0.500000 0.014032 0.698561
#
# Coordination Sequence:
#
# PCOD9472295 Si02
#       6
#    16  16  16  16  16  16
#     4  10  20  35  55  81 108 135 176 223 262 308
#     4   9  19  35  52  74 107 143 174 210 259 313
#     4  10  20  34  53  78 107 138 177 218 258 310
#     4   8  16  33  56  78 103 138 175 214 263 316
#     4  11  21  36  57  78 106 143 178 213 261 313
#     4   9  19  36  55  76 105 139 173 213 264 316
#
# _framework density 21.096347999999999
#
# number of rings (size 3 to 8) (size 9 to 14) (size 15 to 20)
#    0.000    2.500    1.667    1.500    2.333    1.667 
#    0.000    1.667    0.000    4.000    0.000    0.000 
#    0.000    0.000    0.000    0.000    0.000    0.000 
#
# Total GULP energy -267968.946011 kJ/mol
# GULP energy per Si atom -5582.686375 kJ/mol
# Density = 2.104833 g / cm^3
# Si number density = 21.096348 Si / 1000 Ang^3
#
#
#
# Elastic Constant Matrix: (Units=GPa)
#
#
# Indices 1 2 3 4 5 6 
#
# 1 59.9980 -1.8286 -9.9097 0.0000 0.0000 0.0000
# 2 -1.8286 237.0846 120.2296 0.0000 0.0000 0.0000
# 3 -9.9097 120.2296 118.7831 0.0000 0.0000 0.0000
# 4 0.0000 0.0000 0.0000 44.8708 0.0000 0.0000
# 5 0.0000 0.0000 0.0000 0.0000 16.2544 0.0000
# 6 0.0000 0.0000 0.0000 0.0000 0.0000 -8.9315
#
#
#
# Elastic Compliance Matrix: (Units=1/GPa)
#
#
# Indices 1 2 3 4 5 6 
#
# 1 0.017068 -0.001213 0.002652 0.000000 0.000000 0.000000
# 2 -0.001213 0.008752 -0.008960 0.000000 0.000000 0.000000
# 3 0.002652 -0.008960 0.017709 0.000000 0.000000 0.000000
# 4 0.000000 0.000000 0.000000 0.022286 0.000000 0.000000
# 5 0.000000 0.000000 0.000000 0.000000 0.061522 0.000000
# 6 0.000000 0.000000 0.000000 0.000000 0.000000 -0.111964
#
#
# Mechanical properties :
#
#
# Convention : Reuss Voigt Hill
#
# Bulk Modulus (GPa) = 35.10378 70.31647 52.71013
# Shear Modulus (GPa) = 125.27258 30.93037 78.10148
#
# Velocity S-wave (km/s) = 7.71428 3.83319 6.09112
# Velocity P-wave (km/s) = 9.79911 7.27974 8.63184
#
# Compressibility (1/GPa) = 0.02848696
#
# Stress axis : x y z
#
# Youngs Moduli (GPa) = 58.58830 114.25404 56.46758
#
# Poissons Ratio (x) = 0.13861 -0.14975
# Poissons Ratio (y) = 0.07108 0.50596
# Poissons Ratio (z) = -0.15537 1.02374
#
# Static dielectric constant tensor:
#      x y z
#    x 1.840900 0.000000 0.000000 
#    y 0.000000 1.747120 0.000000 
#    z 0.000000 0.000000 1.721250 
# 
# From -- ./inp_files/66888.got.cif
#   From: 2010.05.17/outbox.cif.g08.bks.cpg/sg63_34_cif.got.tgz:66888.got - 2010.06.03 15:47:04.
