data_PCOD9472586
_publ_section_title
;
Structure prediction by ZEFSAII (Michael W. Deem and Ramdas Pophale) SiO2 
 PCOD9472586
Probable space group: C M C M
;
_chemical_formula_sum "Si O2"
_cell_formula_units_Z 96
_cell_length_a 23.076471
_cell_length_b 25.666744
_cell_length_c 7.500605
_cell_angle_alpha 90.000000
_cell_angle_beta 90.000000
_cell_angle_gamma 90.000000
_cell_volume 4442.592392
_symmetry_space_group_name_H-M "C M C M"
_symmetry_group_IT_number 63
_symmetry_cell_setting 'orthorhombic'
loop_
_space_group_symop_operation_xyz
x,y,z
-x,-y,1/2+z
x,-y,-z
-x,y,1/2-z
-x,-y,-z
x,y,1/2-z
-x,y,z
x,-y,1/2+z
1/2+x,1/2+y,z
1/2-x,1/2-y,1/2+z
1/2+x,1/2-y,-z
1/2-x,1/2+y,1/2-z
1/2-x,1/2-y,-z
1/2+x,1/2+y,1/2-z
1/2-x,1/2+y,z
1/2+x,1/2-y,1/2+z
loop_
_atom_site_type_symbol
_atom_site_label
_atom_site_fract_x
_atom_site_fract_y
_atom_site_fract_z
Si Si1 0.500000 0.741748 0.535380
Si Si2 0.397901 0.666394 0.967991
Si Si3 0.000000 0.365365 0.036645
Si Si4 0.100057 0.557987 0.536576
Si Si5 0.643158 0.557583 0.537487
Si Si6 0.730006 0.692665 0.961792
Si Si7 0.727087 0.915367 0.032633
O O1 0.500000 0.739581 0.750000
O O2 0.554784 0.707804 0.470770
O O3 0.500000 0.803246 0.493994
O O4 0.400999 0.666940 0.750000
O O5 0.397207 0.605535 0.023984
O O6 0.334787 0.684833 0.028534
O O7 0.943065 0.396703 0.970033
O O8 0.000000 0.371671 0.250000
O O9 0.077080 0.500000 0.500000
O O10 0.103478 0.564197 0.750000
O O11 0.166413 0.561412 0.467626
O O12 0.621133 0.500000 0.500000
O O13 0.647386 0.563666 0.750000
O O14 0.710301 0.562502 0.471193
O O15 0.726696 0.686228 0.750000
O O16 0.770562 0.645455 0.021700
O O17 0.750000 0.750000 0.000000
O O18 0.726988 0.919876 0.250000
#
# Coordination Sequence:
#
# PCOD9472586 Si02
#       7
#     8  16   8  16  16  16  16
#     4  10  20  37  58  73  94 134 179 212 241 292
#     4   8  17  33  51  72  99 132 167 205 249 292
#     4  10  23  37  51  73 101 130 164 210 261 300
#     4  10  20  35  52  72  99 131 165 203 248 297
#     4   9  16  30  51  74 100 129 162 200 244 297
#     4   9  17  30  48  71  99 130 163 201 246 297
#     4   8  16  30  48  69  98 133 160 191 247 302
#
# _framework density 21.609006000000001
#
# number of rings (size 3 to 8) (size 9 to 14) (size 15 to 20)
#    0.000    3.000    0.000    2.750    2.333    0.667 
#    0.000    5.417    0.000    0.000    0.000    0.000 
#    0.000    0.000    0.000    0.000    0.000    0.000 
#
# Total GULP energy -267558.915365 kJ/mol
# GULP energy per Si atom -5574.144070 kJ/mol
# Density = 2.155982 g / cm^3
# Si number density = 21.609006 Si / 1000 Ang^3
#
#
#
# Elastic Constant Matrix: (Units=GPa)
#
#
# Indices 1 2 3 4 5 6 
#
# 1 89.4354 75.4623 4.6531 0.0000 0.0000 0.0000
# 2 75.4623 212.5271 -9.0865 0.0000 0.0000 0.0000
# 3 4.6531 -9.0865 53.2281 0.0000 0.0000 0.0000
# 4 0.0000 0.0000 0.0000 26.1438 0.0000 0.0000
# 5 0.0000 0.0000 0.0000 0.0000 -5.0711 0.0000
# 6 0.0000 0.0000 0.0000 0.0000 0.0000 23.1627
#
#
#
# Elastic Compliance Matrix: (Units=1/GPa)
#
#
# Indices 1 2 3 4 5 6 
#
# 1 0.016269 -0.005880 -0.002426 0.000000 0.000000 0.000000
# 2 -0.005880 0.006865 0.001686 0.000000 0.000000 0.000000
# 3 -0.002426 0.001686 0.019287 0.000000 0.000000 0.000000
# 4 0.000000 0.000000 0.000000 0.038250 0.000000 0.000000
# 5 0.000000 0.000000 0.000000 0.000000 -0.197196 0.000000
# 6 0.000000 0.000000 0.000000 0.000000 0.000000 0.043173
#
#
# Mechanical properties :
#
#
# Convention : Reuss Voigt Hill
#
# Bulk Modulus (GPa) = 34.26940 55.24983 44.75961
# Shear Modulus (GPa) = -99.23807 27.79119 -35.72344
#
# Velocity S-wave (km/s) = -6.78411 3.59010 -4.07033
# Velocity P-wave (km/s) = 6.74331 6.54283 1.15403
#
# Compressibility (1/GPa) = 0.02918055
#
# Stress axis : x y z
#
# Youngs Moduli (GPa) = 61.46593 145.65910 51.84843
#
# Poissons Ratio (x) = 0.85654 0.12579
# Poissons Ratio (y) = 0.36145 -0.08742
# Poissons Ratio (z) = 0.14912 -0.24559
#
# Static dielectric constant tensor:
#      x y z
#    x 1.773520 0.000000 0.000000 
#    y 0.000000 1.485900 0.000000 
#    z 0.000000 0.000000 1.835680 
# 
# From -- ./inp_files/22815.got.cif
#   From: 2010.05.17/outbox.cif.g08.bks.cpg/sg63_12_cif.got.tgz:22815.got - 2010.06.03 15:47:04.
