data_PCOD9472433
_publ_section_title
;
Structure prediction by ZEFSAII (Michael W. Deem and Ramdas Pophale) SiO2 
 PCOD9472433
Probable space group: C M C M
;
_chemical_formula_sum "Si O2"
_cell_formula_units_Z 112
_cell_length_a 26.256020
_cell_length_b 11.825894
_cell_length_c 16.150695
_cell_angle_alpha 90.000000
_cell_angle_beta 90.000000
_cell_angle_gamma 90.000000
_cell_volume 5014.805485
_symmetry_space_group_name_H-M "C M C M"
_symmetry_group_IT_number 63
_symmetry_cell_setting 'orthorhombic'
loop_
_space_group_symop_operation_xyz
x,y,z
-x,-y,1/2+z
x,-y,-z
-x,y,1/2-z
-x,-y,-z
x,y,1/2-z
-x,y,z
x,-y,1/2+z
1/2+x,1/2+y,z
1/2-x,1/2-y,1/2+z
1/2+x,1/2-y,-z
1/2-x,1/2+y,1/2-z
1/2-x,1/2-y,-z
1/2+x,1/2+y,1/2-z
1/2-x,1/2+y,z
1/2+x,1/2-y,1/2+z
loop_
_atom_site_type_symbol
_atom_site_label
_atom_site_fract_x
_atom_site_fract_y
_atom_site_fract_z
Si Si1 0.778388 0.056462 0.346365
Si Si2 0.560971 0.734735 0.342602
Si Si3 0.352645 0.398111 0.434870
Si Si4 0.804204 0.264828 0.453453
Si Si5 0.332031 0.012872 0.849425
Si Si6 0.057354 0.989753 0.150465
Si Si7 0.557186 0.988331 0.149107
O O1 0.788664 0.049330 0.250000
O O2 0.803441 0.167645 0.383615
O O3 0.802395 0.943874 0.387105
O O4 0.717787 0.064014 0.360618
O O5 0.583741 0.740741 0.250000
O O6 0.500000 0.722859 0.334236
O O7 0.575298 0.614416 0.380092
O O8 0.566626 0.858326 0.380347
O O9 0.360073 0.500000 0.500000
O O10 0.344084 0.280067 0.479206
O O11 0.401589 0.399735 0.377065
O O12 0.750000 0.250000 0.500000
O O13 0.818939 0.380849 0.408878
O O14 0.332702 0.043451 0.750000
O O15 0.387368 0.959241 0.869605
O O16 0.056048 0.996764 0.250000
O O17 0.000000 0.966558 0.120871
O O18 0.553597 0.986288 0.250000
O O19 0.500000 0.024823 0.120674
#
# Coordination Sequence:
#
# PCOD9472433 Si02
#       7
#    16  16  16  16  16  16  16
#     4  10  21  37  56  80 107 137 185 232 266 326
#     4   7  11  20  36  60  90 125 164 205 251 304
#     4  10  21  33  48  72 105 141 177 220 271 317
#     4  11  22  38  54  76 110 146 180 221 283 334
#     4  10  20  34  55  81 109 146 188 229 278 332
#     4   9  17  30  47  68  99 142 185 222 264 319
#     4   8  14  25  43  71 104 133 169 222 277 321
#
# _framework density 22.333867000000001
#
# number of rings (size 3 to 8) (size 9 to 14) (size 15 to 20)
#    0.000    2.714    1.429    2.571    4.000    0.286 
#    0.000    0.714    0.000    0.000    0.000    3.000 
#    0.000    2.286    0.000    0.000    0.000    0.286 
#
# Total GULP energy -312022.933527 kJ/mol
# GULP energy per Si atom -5571.838099 kJ/mol
# Density = 2.228303 g / cm^3
# Si number density = 22.333867 Si / 1000 Ang^3
#
#
#
# Elastic Constant Matrix: (Units=GPa)
#
#
# Indices 1 2 3 4 5 6 
#
# 1 144.4369 -3.9058 25.0678 0.0000 0.0000 0.0000
# 2 -3.9058 11.5434 10.4538 0.0000 0.0000 0.0000
# 3 25.0678 10.4538 37.4936 0.0000 0.0000 0.0000
# 4 0.0000 0.0000 0.0000 -3.6204 0.0000 0.0000
# 5 0.0000 0.0000 0.0000 0.0000 25.8158 0.0000
# 6 0.0000 0.0000 0.0000 0.0000 0.0000 20.9568
#
#
#
# Elastic Compliance Matrix: (Units=1/GPa)
#
#
# Indices 1 2 3 4 5 6 
#
# 1 0.008778 0.011084 -0.008959 0.000000 0.000000 0.000000
# 2 0.011084 0.129888 -0.043625 0.000000 0.000000 0.000000
# 3 -0.008959 -0.043625 0.044825 0.000000 0.000000 0.000000
# 4 0.000000 0.000000 0.000000 -0.276210 0.000000 0.000000
# 5 0.000000 0.000000 0.000000 0.000000 0.038736 0.000000
# 6 0.000000 0.000000 0.000000 0.000000 0.000000 0.047717
#
#
# Mechanical properties :
#
#
# Convention : Reuss Voigt Hill
#
# Bulk Modulus (GPa) = 9.95133 28.52285 19.23709
# Shear Modulus (GPa) = 45.35914 19.42096 32.39005
#
# Velocity S-wave (km/s) = 4.51150 2.95205 3.81237
# Velocity P-wave (km/s) = 5.62171 4.94149 5.29254
#
# Compressibility (1/GPa) = 0.10048905
#
# Stress axis : x y z
#
# Youngs Moduli (GPa) = 113.92005 7.69896 22.30917
#
# Poissons Ratio (x) = -0.08533 0.19987
# Poissons Ratio (y) = -1.26266 0.97324
# Poissons Ratio (z) = 1.02064 0.33587
#
# Static dielectric constant tensor:
#      x y z
#    x 1.902660 0.000000 0.000000 
#    y 0.000000 1.825320 0.000000 
#    z 0.000000 0.000000 1.859500 
# 
# From -- ./inp_files/37964.got.cif
#   From: 2010.05.17/outbox.cif.g08.bks.cpg/sg63_19_cif.got.tgz:37964.got - 2010.06.03 15:47:04.
