data_PCOD9472418
_publ_section_title
;
Structure prediction by ZEFSAII (Michael W. Deem and Ramdas Pophale) SiO2 
 PCOD9472418
Probable space group: C M C M
;
_chemical_formula_sum "Si O2"
_cell_formula_units_Z 116
_cell_length_a 7.810446
_cell_length_b 25.867050
_cell_length_c 29.163329
_cell_angle_alpha 90.000000
_cell_angle_beta 90.000000
_cell_angle_gamma 90.000000
_cell_volume 5891.960599
_symmetry_space_group_name_H-M "C M C M"
_symmetry_group_IT_number 63
_symmetry_cell_setting 'orthorhombic'
loop_
_space_group_symop_operation_xyz
x,y,z
-x,-y,1/2+z
x,-y,-z
-x,y,1/2-z
-x,-y,-z
x,y,1/2-z
-x,y,z
x,-y,1/2+z
1/2+x,1/2+y,z
1/2-x,1/2-y,1/2+z
1/2+x,1/2-y,-z
1/2-x,1/2+y,1/2-z
1/2-x,1/2-y,-z
1/2+x,1/2+y,1/2-z
1/2-x,1/2+y,z
1/2+x,1/2-y,1/2+z
loop_
_atom_site_type_symbol
_atom_site_label
_atom_site_fract_x
_atom_site_fract_y
_atom_site_fract_z
Si Si1 0.199199 0.806594 0.396060
Si Si2 0.704397 0.804990 0.596602
Si Si3 0.500000 0.643017 0.750000
Si Si4 0.792031 0.947377 0.976280
Si Si5 0.297689 0.415783 0.623965
Si Si6 0.295505 0.999917 0.197822
Si Si7 0.701903 0.164891 0.504225
Si Si8 0.199320 0.616744 0.678081
O O1 0.269068 0.749424 0.384059
O O2 0.213689 0.811961 0.450796
O O3 0.291619 0.852764 0.369727
O O4 0.000000 0.809576 0.383555
O O5 0.500000 0.799412 0.592380
O O6 0.735279 0.856702 0.625610
O O7 0.771065 0.815023 0.544826
O O8 0.345486 0.640544 0.710616
O O9 0.730990 0.940734 0.923681
O O10 0.730620 0.896646 0.002822
O O11 0.000000 0.947310 0.976556
O O12 0.733836 0.000000 0.000000
O O13 0.500000 0.412689 0.619242
O O14 0.258979 0.452349 0.666615
O O15 0.226029 0.000878 0.250000
O O16 0.500000 0.002348 0.200767
O O17 0.254024 0.944244 0.175778
O O18 0.500000 0.175854 0.506535
O O19 0.000000 0.619550 0.694580
#
# Coordination Sequence:
#
# PCOD9472418 Si02
#       8
#    16  16   4  16  16  16  16  16
#     4  11  22  37  60  89 120 161 208 255 308 366
#     4   9  20  39  59  81 119 164 205 248 303 361
#     4  12  22  44  68  90 128 162 202 248 322 360
#     4   9  19  35  50  75 115 157 193 237 291 355
#     4  10  21  34  58  86 113 153 199 245 300 358
#     4  10  22  40  62  86 118 154 195 248 305 363
#     4  10  20  34  54  84 118 158 204 249 297 357
#     4  11  24  41  64  96 125 160 202 250 308 374
#
# _framework density 19.687843999999998
#
# number of rings (size 3 to 8) (size 9 to 14) (size 15 to 20)
#    0.000    1.931    1.379    1.862    2.897    2.759 
#    0.000    0.000    1.517    0.000    0.000    0.000 
#    0.000    0.000    0.000    0.000    0.000    0.000 
#
# Total GULP energy -323104.475241 kJ/mol
# GULP energy per Si atom -5570.766814 kJ/mol
# Density = 1.964303 g / cm^3
# Si number density = 19.687844 Si / 1000 Ang^3
#
#
#
# Elastic Constant Matrix: (Units=GPa)
#
#
# Indices 1 2 3 4 5 6 
#
# 1 58.6097 6.5661 10.1015 0.0000 0.0000 0.0000
# 2 6.5661 137.4441 68.6944 0.0000 0.0000 0.0000
# 3 10.1015 68.6944 60.6739 0.0000 0.0000 0.0000
# 4 0.0000 0.0000 0.0000 47.8402 0.0000 0.0000
# 5 0.0000 0.0000 0.0000 0.0000 27.9267 0.0000
# 6 0.0000 0.0000 0.0000 0.0000 0.0000 18.1733
#
#
#
# Elastic Compliance Matrix: (Units=1/GPa)
#
#
# Indices 1 2 3 4 5 6 
#
# 1 0.017690 0.001444 -0.004580 0.000000 0.000000 0.000000
# 2 0.001444 0.016877 -0.019348 0.000000 0.000000 0.000000
# 3 -0.004580 -0.019348 0.039150 0.000000 0.000000 0.000000
# 4 0.000000 0.000000 0.000000 0.020903 0.000000 0.000000
# 5 0.000000 0.000000 0.000000 0.000000 0.035808 0.000000
# 6 0.000000 0.000000 0.000000 0.000000 0.000000 0.055026
#
#
# Mechanical properties :
#
#
# Convention : Reuss Voigt Hill
#
# Bulk Modulus (GPa) = 34.78506 47.49465 41.13985
# Shear Modulus (GPa) = 20.83287 30.21241 25.52264
#
# Velocity S-wave (km/s) = 3.25646 3.92161 3.60441
# Velocity P-wave (km/s) = 5.64323 6.68443 6.18578
#
# Compressibility (1/GPa) = 0.02874798
#
# Stress axis : x y z
#
# Youngs Moduli (GPa) = 56.53035 59.25205 25.54262
#
# Poissons Ratio (x) = -0.08556 0.11698
# Poissons Ratio (y) = -0.08163 0.49421
# Poissons Ratio (z) = 0.25891 1.14644
#
# Static dielectric constant tensor:
#      x y z
#    x 1.704000 0.000000 0.000000 
#    y 0.000000 1.704590 0.000000 
#    z 0.000000 0.000000 1.695630 
# 
# From -- ./inp_files/60458.got.cif
#   From: 2010.05.17/outbox.cif.g08.bks.cpg/sg63_31_cif.got.tgz:60458.got - 2010.06.03 15:47:04.
