data_PCOD9472800
_publ_section_title
;
Structure prediction by ZEFSAII (Michael W. Deem and Ramdas Pophale) SiO2 
 PCOD9472800
Probable space group: C M C M
;
_chemical_formula_sum "Si O2"
_cell_formula_units_Z 96
_cell_length_a 22.652624
_cell_length_b 15.311540
_cell_length_c 15.659523
_cell_angle_alpha 90.000000
_cell_angle_beta 90.000000
_cell_angle_gamma 90.000000
_cell_volume 5431.451660
_symmetry_space_group_name_H-M "C M C M"
_symmetry_group_IT_number 63
_symmetry_cell_setting 'orthorhombic'
loop_
_space_group_symop_operation_xyz
x,y,z
-x,-y,1/2+z
x,-y,-z
-x,y,1/2-z
-x,-y,-z
x,y,1/2-z
-x,y,z
x,-y,1/2+z
1/2+x,1/2+y,z
1/2-x,1/2-y,1/2+z
1/2+x,1/2-y,-z
1/2-x,1/2+y,1/2-z
1/2-x,1/2-y,-z
1/2+x,1/2+y,1/2-z
1/2-x,1/2+y,z
1/2+x,1/2-y,1/2+z
loop_
_atom_site_type_symbol
_atom_site_label
_atom_site_fract_x
_atom_site_fract_y
_atom_site_fract_z
Si Si1 0.769742 0.373020 0.843617
Si Si2 0.500000 0.007302 0.649794
Si Si3 0.236675 0.326543 0.151788
Si Si4 0.313543 0.595598 0.996224
Si Si5 0.500000 0.217220 0.649812
Si Si6 0.382386 0.929693 0.568473
Si Si7 0.619357 0.233882 0.552430
O O1 0.746609 0.397397 0.750000
O O2 0.769630 0.267511 0.847813
O O3 0.833977 0.412258 0.859562
O O4 0.729924 0.401535 0.922428
O O5 0.500000 0.986781 0.750000
O O6 0.442238 0.968235 0.605905
O O7 0.500000 0.111826 0.640327
O O8 0.232035 0.357171 0.250000
O O9 0.273752 0.387497 0.087982
O O10 0.172157 0.305188 0.112023
O O11 0.342060 0.500000 0.000000
O O12 0.356806 0.677355 0.010037
O O13 0.500000 0.238024 0.750000
O O14 0.560058 0.249399 0.605801
O O15 0.392487 0.839470 0.518608
O O16 0.358864 0.000000 0.500000
#
# Coordination Sequence:
#
# PCOD9472800 Si02
#       7
#    16   8  16  16   8  16  16
#     4  10  20  35  57  83 117 154 189 232 289 344
#     4  11  24  36  52  86 117 147 192 229 282 359
#     4  10  20  37  59  85 116 152 194 238 287 344
#     4  11  22  39  58  85 117 154 197 243 286 337
#     4  11  23  39  58  83 114 151 193 238 290 344
#     4  12  20  35  55  81 118 154 187 228 284 344
#     4  11  21  39  59  83 115 155 192 237 288 348
#
# _framework density 17.674833
#
# number of rings (size 3 to 8) (size 9 to 14) (size 15 to 20)
#    0.000    1.167    5.000    3.250    0.000    1.333 
#    0.000    0.417    0.000    0.000    0.000    1.167 
#    0.000    0.000    0.000    0.000    0.000    0.000 
#
# Total GULP energy -268108.553001 kJ/mol
# GULP energy per Si atom -5585.594854 kJ/mol
# Density = 1.763460 g / cm^3
# Si number density = 17.674833 Si / 1000 Ang^3
#
#
#
# Elastic Constant Matrix: (Units=GPa)
#
#
# Indices 1 2 3 4 5 6 
#
# 1 70.9048 13.1981 22.3999 0.0000 0.0000 0.0000
# 2 13.1981 69.3194 30.9027 0.0000 0.0000 0.0000
# 3 22.3999 30.9027 112.0660 0.0000 0.0000 0.0000
# 4 0.0000 0.0000 0.0000 11.0068 0.0000 0.0000
# 5 0.0000 0.0000 0.0000 0.0000 19.3507 0.0000
# 6 0.0000 0.0000 0.0000 0.0000 0.0000 23.1175
#
#
#
# Elastic Compliance Matrix: (Units=1/GPa)
#
#
# Indices 1 2 3 4 5 6 
#
# 1 0.015240 -0.001760 -0.002561 0.000000 0.000000 0.000000
# 2 -0.001760 0.016651 -0.004240 0.000000 0.000000 0.000000
# 3 -0.002561 -0.004240 0.010604 0.000000 0.000000 0.000000
# 4 0.000000 0.000000 0.000000 0.090853 0.000000 0.000000
# 5 0.000000 0.000000 0.000000 0.000000 0.051678 0.000000
# 6 0.000000 0.000000 0.000000 0.000000 0.000000 0.043257
#
#
# Mechanical properties :
#
#
# Convention : Reuss Voigt Hill
#
# Bulk Modulus (GPa) = 39.41018 42.81017 41.11017
# Shear Modulus (GPa) = 19.69569 23.08097 21.38833
#
# Velocity S-wave (km/s) = 3.34179 3.61760 3.48242
# Velocity P-wave (km/s) = 6.10211 6.45933 6.28326
#
# Compressibility (1/GPa) = 0.02537416
#
# Stress axis : x y z
#
# Youngs Moduli (GPa) = 65.61665 60.05570 94.30096
#
# Poissons Ratio (x) = 0.10570 0.24149
# Poissons Ratio (y) = 0.11548 0.39982
# Poissons Ratio (z) = 0.16804 0.25463
#
# Static dielectric constant tensor:
#      x y z
#    x 1.580730 0.000000 0.000000 
#    y 0.000000 1.613910 0.000000 
#    z 0.000000 0.000000 1.619750 
# 
# From -- ./inp_files/36812.got.cif
#   From: 2010.05.17/outbox.cif.g08.bks.cpg/sg63_19_cif.got.tgz:36812.got - 2010.06.03 15:47:04.
