data_PCOD9472172
_publ_section_title
;
Structure prediction by ZEFSAII (Michael W. Deem and Ramdas Pophale) SiO2 
 PCOD9472172
Probable space group: C M C M
;
_chemical_formula_sum "Si O2"
_cell_formula_units_Z 112
_cell_length_a 13.065686
_cell_length_b 17.120712
_cell_length_c 29.163382
_cell_angle_alpha 90.000000
_cell_angle_beta 90.000000
_cell_angle_gamma 90.000000
_cell_volume 6523.669114
_symmetry_space_group_name_H-M "C M C M"
_symmetry_group_IT_number 63
_symmetry_cell_setting 'orthorhombic'
loop_
_space_group_symop_operation_xyz
x,y,z
-x,-y,1/2+z
x,-y,-z
-x,y,1/2-z
-x,-y,-z
x,y,1/2-z
-x,y,z
x,-y,1/2+z
1/2+x,1/2+y,z
1/2-x,1/2-y,1/2+z
1/2+x,1/2-y,-z
1/2-x,1/2+y,1/2-z
1/2-x,1/2-y,-z
1/2+x,1/2+y,1/2-z
1/2-x,1/2+y,z
1/2+x,1/2-y,1/2+z
loop_
_atom_site_type_symbol
_atom_site_label
_atom_site_fract_x
_atom_site_fract_y
_atom_site_fract_z
Si Si1 0.120507 0.843721 0.122620
Si Si2 0.218874 0.714521 0.548832
Si Si3 0.726340 0.508625 0.376053
Si Si4 0.883591 0.561407 0.196298
Si Si5 0.117294 0.454531 0.047873
Si Si6 0.785042 0.268485 0.803917
Si Si7 0.621257 0.676535 0.124853
O O1 0.181968 0.806492 0.079801
O O2 0.158691 0.799725 0.168344
O O3 0.000000 0.834894 0.117050
O O4 0.153363 0.933916 0.125535
O O5 0.250000 0.750000 0.500000
O O6 0.155710 0.634405 0.542593
O O7 0.154474 0.774650 0.579983
O O8 0.799511 0.514112 0.331791
O O9 0.804851 0.496902 0.417873
O O10 0.663377 0.588517 0.379953
O O11 0.879060 0.542087 0.250000
O O12 0.853010 0.652669 0.191686
O O13 0.000000 0.549299 0.180047
O O14 0.000000 0.455117 0.064829
O O15 0.120121 0.500000 0.000000
O O16 0.770223 0.252814 0.750000
O O17 0.680323 0.286233 0.831477
O O18 0.500000 0.677870 0.130692
#
# Coordination Sequence:
#
# PCOD9472172 Si02
#       7
#    16  16  16  16  16  16  16
#     4  10  21  35  53  77 104 136 172 212 260 309
#     4  10  21  37  55  77 105 135 175 220 260 311
#     4  10  20  34  51  75 108 137 169 211 256 308
#     4   9  17  31  52  75  99 131 170 210 252 297
#     4  10  20  34  53  76 103 136 173 215 263 310
#     4   9  19  35  54  77 104 134 173 216 254 300
#     4  10  20  35  56  79 105 139 175 212 259 313
#
# _framework density 17.168253
#
# number of rings (size 3 to 8) (size 9 to 14) (size 15 to 20)
#    0.000    2.286    0.000    2.571    0.000    2.857 
#    0.000    4.286    0.000    7.286    0.000    0.000 
#    0.000    0.000    0.000    0.000    0.000    0.000 
#
# Total GULP energy -312474.295816 kJ/mol
# GULP energy per Si atom -5579.898140 kJ/mol
# Density = 1.712918 g / cm^3
# Si number density = 17.168253 Si / 1000 Ang^3
#
#
#
# Elastic Constant Matrix: (Units=GPa)
#
#
# Indices 1 2 3 4 5 6 
#
# 1 154.7749 55.5929 48.3720 0.0000 0.0000 0.0000
# 2 55.5929 72.4664 43.5197 0.0000 0.0000 0.0000
# 3 48.3720 43.5197 98.9997 0.0000 0.0000 0.0000
# 4 0.0000 0.0000 0.0000 24.4105 0.0000 0.0000
# 5 0.0000 0.0000 0.0000 0.0000 15.2877 0.0000
# 6 0.0000 0.0000 0.0000 0.0000 0.0000 9.9408
#
#
#
# Elastic Compliance Matrix: (Units=1/GPa)
#
#
# Indices 1 2 3 4 5 6 
#
# 1 0.009171 -0.005903 -0.001886 0.000000 0.000000 0.000000
# 2 -0.005903 0.022548 -0.007028 0.000000 0.000000 0.000000
# 3 -0.001886 -0.007028 0.014112 0.000000 0.000000 0.000000
# 4 0.000000 0.000000 0.000000 0.040966 0.000000 0.000000
# 5 0.000000 0.000000 0.000000 0.000000 0.065412 0.000000
# 6 0.000000 0.000000 0.000000 0.000000 0.000000 0.100596
#
#
# Mechanical properties :
#
#
# Convention : Reuss Voigt Hill
#
# Bulk Modulus (GPa) = 61.73761 69.02335 65.38048
# Shear Modulus (GPa) = 17.37090 21.84488 19.60789
#
# Velocity S-wave (km/s) = 3.18434 3.57094 3.38317
# Velocity P-wave (km/s) = 7.03977 7.56925 7.30931
#
# Compressibility (1/GPa) = 0.01619758
#
# Stress axis : x y z
#
# Youngs Moduli (GPa) = 109.04461 44.34907 70.86107
#
# Poissons Ratio (x) = 0.26177 0.13365
# Poissons Ratio (y) = 0.64364 0.49802
# Poissons Ratio (z) = 0.20567 0.31169
#
# Static dielectric constant tensor:
#      x y z
#    x 1.554780 0.000000 0.000000 
#    y 0.000000 1.568680 0.000000 
#    z 0.000000 0.000000 1.561770 
# 
# From -- ./inp_files/72842.got.cif
#   From: 2010.05.17/outbox.cif.g08.bks.cpg/sg63_37_cif.got.tgz:72842.got - 2010.06.03 15:47:04.
