data_PCOD9472682
_publ_section_title
;
Structure prediction by ZEFSAII (Michael W. Deem and Ramdas Pophale) SiO2 
 PCOD9472682
Probable space group: C M C M
;
_chemical_formula_sum "Si O2"
_cell_formula_units_Z 80
_cell_length_a 29.528983
_cell_length_b 11.399569
_cell_length_c 13.840548
_cell_angle_alpha 90.000000
_cell_angle_beta 90.000000
_cell_angle_gamma 90.000000
_cell_volume 4658.973147
_symmetry_space_group_name_H-M "C M C M"
_symmetry_group_IT_number 63
_symmetry_cell_setting 'orthorhombic'
loop_
_space_group_symop_operation_xyz
x,y,z
-x,-y,1/2+z
x,-y,-z
-x,y,1/2-z
-x,-y,-z
x,y,1/2-z
-x,y,z
x,-y,1/2+z
1/2+x,1/2+y,z
1/2-x,1/2-y,1/2+z
1/2+x,1/2-y,-z
1/2-x,1/2+y,1/2-z
1/2-x,1/2-y,-z
1/2+x,1/2+y,1/2-z
1/2-x,1/2+y,z
1/2+x,1/2-y,1/2+z
loop_
_atom_site_type_symbol
_atom_site_label
_atom_site_fract_x
_atom_site_fract_y
_atom_site_fract_z
Si Si1 0.310130 0.868659 0.969648
Si Si2 0.115251 0.207928 0.866260
Si Si3 0.129724 0.937196 0.861352
Si Si4 0.778070 0.200679 0.361287
Si Si5 0.049890 0.140929 0.485636
O O1 0.351106 0.797870 0.919173
O O2 0.267906 0.860850 0.895906
O O3 0.291309 0.804194 0.065593
O O4 0.322543 0.000000 0.000000
O O5 0.114867 0.223357 0.750000
O O6 0.130831 0.073964 0.890564
O O7 0.065930 0.206488 0.917023
O O8 0.115764 0.938305 0.750000
O O9 0.179838 0.887522 0.869472
O O10 0.092823 0.855705 0.914173
O O11 0.773885 0.239380 0.250000
O O12 0.000000 0.180815 0.453201
O O13 0.046238 0.000000 0.500000
#
# Coordination Sequence:
#
# PCOD9472682 Si02
#       5
#    16  16  16  16  16
#     4  11  24  36  55  79 109 145 184 222 261 318
#     4  10  20  35  55  79 110 143 180 221 272 321
#     4   9  18  33  55  80 109 142 177 219 269 323
#     4  10  22  37  55  79 108 141 178 221 268 318
#     4   9  17  30  52  82 112 137 171 219 273 323
#
# _framework density 17.171165999999999
#
# number of rings (size 3 to 8) (size 9 to 14) (size 15 to 20)
#    0.000    2.200    2.000    0.600    5.600    2.400 
#    0.000    4.000    0.000    0.600    0.000    0.000 
#    0.000    0.000    0.000    0.000    0.000    0.000 
#
# Total GULP energy -222723.836443 kJ/mol
# GULP energy per Si atom -5568.095911 kJ/mol
# Density = 1.713208 g / cm^3
# Si number density = 17.171166 Si / 1000 Ang^3
#
#
#
# Elastic Constant Matrix: (Units=GPa)
#
#
# Indices 1 2 3 4 5 6 
#
# 1 103.4046 31.4481 50.9626 0.0000 0.0000 0.0000
# 2 31.4481 63.2641 40.5244 0.0000 0.0000 0.0000
# 3 50.9626 40.5244 99.9741 0.0000 0.0000 0.0000
# 4 0.0000 0.0000 0.0000 18.2628 0.0000 0.0000
# 5 0.0000 0.0000 0.0000 0.0000 15.2637 0.0000
# 6 0.0000 0.0000 0.0000 0.0000 0.0000 1.7403
#
#
#
# Elastic Compliance Matrix: (Units=1/GPa)
#
#
# Indices 1 2 3 4 5 6 
#
# 1 0.013344 -0.003074 -0.005556 0.000000 0.000000 0.000000
# 2 -0.003074 0.022059 -0.007374 0.000000 0.000000 0.000000
# 3 -0.005556 -0.007374 0.015824 0.000000 0.000000 0.000000
# 4 0.000000 0.000000 0.000000 0.054756 0.000000 0.000000
# 5 0.000000 0.000000 0.000000 0.000000 0.065515 0.000000
# 6 0.000000 0.000000 0.000000 0.000000 0.000000 0.574627
#
#
# Mechanical properties :
#
#
# Convention : Reuss Voigt Hill
#
# Bulk Modulus (GPa) = 52.03620 56.94590 54.49105
# Shear Modulus (GPa) = 6.37317 16.63387 11.50352
#
# Velocity S-wave (km/s) = 1.92863 3.11579 2.59111
# Velocity P-wave (km/s) = 5.94388 6.79557 6.38394
#
# Compressibility (1/GPa) = 0.01921739
#
# Stress axis : x y z
#
# Youngs Moduli (GPa) = 74.94003 45.33378 63.19497
#
# Poissons Ratio (x) = 0.13936 0.35112
# Poissons Ratio (y) = 0.23038 0.46602
# Poissons Ratio (z) = 0.41637 0.33431
#
# Static dielectric constant tensor:
#      x y z
#    x 1.590340 0.000000 0.000000 
#    y 0.000000 1.570570 0.000000 
#    z 0.000000 0.000000 1.632250 
# 
# From -- ./inp_files/37694.got.cif
#   From: 2010.05.17/outbox.cif.g08.bks.cpg/sg63_19_cif.got.tgz:37694.got - 2010.06.03 15:47:04.
