data_PCOD9472472
_publ_section_title
;
Structure prediction by ZEFSAII (Michael W. Deem and Ramdas Pophale) SiO2 
 PCOD9472472
Probable space group: C M C M
;
_chemical_formula_sum "Si O2"
_cell_formula_units_Z 80
_cell_length_a 15.859318
_cell_length_b 14.459139
_cell_length_c 16.590424
_cell_angle_alpha 90.000000
_cell_angle_beta 90.000000
_cell_angle_gamma 90.000000
_cell_volume 3804.384692
_symmetry_space_group_name_H-M "C M C M"
_symmetry_group_IT_number 63
_symmetry_cell_setting 'orthorhombic'
loop_
_space_group_symop_operation_xyz
x,y,z
-x,-y,1/2+z
x,-y,-z
-x,y,1/2-z
-x,-y,-z
x,y,1/2-z
-x,y,z
x,-y,1/2+z
1/2+x,1/2+y,z
1/2-x,1/2-y,1/2+z
1/2+x,1/2-y,-z
1/2-x,1/2+y,1/2-z
1/2-x,1/2-y,-z
1/2+x,1/2+y,1/2-z
1/2-x,1/2+y,z
1/2+x,1/2-y,1/2+z
loop_
_atom_site_type_symbol
_atom_site_label
_atom_site_fract_x
_atom_site_fract_y
_atom_site_fract_z
Si Si1 0.643156 0.285662 0.343566
Si Si2 0.669024 0.222284 0.587251
Si Si3 0.598902 0.052641 0.836795
Si Si4 0.598390 0.396513 0.499520
Si Si5 0.401405 0.884468 0.937918
O O1 0.634174 0.310378 0.250000
O O2 0.740856 0.279560 0.370462
O O3 0.604620 0.355846 0.409053
O O4 0.602243 0.186077 0.362783
O O5 0.610387 0.160425 0.644580
O O6 0.641836 0.324258 0.560400
O O7 0.658046 0.163400 0.504323
O O8 0.638226 0.031261 0.750000
O O9 0.500000 0.032232 0.833308
O O10 0.629175 0.983744 0.906740
O O11 0.633825 0.500000 0.500000
O O12 0.500000 0.400009 0.522263
O O13 0.500000 0.888129 0.967031
#
# Coordination Sequence:
#
# PCOD9472472 Si02
#       5
#    16  16  16  16  16
#     4  11  23  38  58  86 118 150 187 237 294 346
#     4  11  21  36  56  83 116 151 187 230 288 348
#     4  10  20  34  55  85 117 147 182 228 284 342
#     4  10  22  41  64  86 111 153 206 248 282 331
#     4  10  20  36  60  84 109 146 191 236 281 337
#
# _framework density 21.028366999999999
#
# number of rings (size 3 to 8) (size 9 to 14) (size 15 to 20)
#    0.000    1.600    0.000    7.800    0.000    7.200 
#    0.000    4.000    0.000    2.400    0.000    0.000 
#    0.000    0.000    0.000    0.000    0.000    0.000 
#
# Total GULP energy -223225.582292 kJ/mol
# GULP energy per Si atom -5580.639557 kJ/mol
# Density = 2.098051 g / cm^3
# Si number density = 21.028367 Si / 1000 Ang^3
#
#
#
# Elastic Constant Matrix: (Units=GPa)
#
#
# Indices 1 2 3 4 5 6 
#
# 1 37.6565 2.9018 -10.9129 0.0000 0.0000 0.0000
# 2 2.9018 140.3256 10.9914 0.0000 0.0000 0.0000
# 3 -10.9129 10.9914 67.8569 0.0000 0.0000 0.0000
# 4 0.0000 0.0000 0.0000 16.7338 0.0000 0.0000
# 5 0.0000 0.0000 0.0000 0.0000 32.4887 0.0000
# 6 0.0000 0.0000 0.0000 0.0000 0.0000 65.8571
#
#
#
# Elastic Compliance Matrix: (Units=1/GPa)
#
#
# Indices 1 2 3 4 5 6 
#
# 1 0.027977 -0.000943 0.004652 0.000000 0.000000 0.000000
# 2 -0.000943 0.007250 -0.001326 0.000000 0.000000 0.000000
# 3 0.004652 -0.001326 0.015700 0.000000 0.000000 0.000000
# 4 0.000000 0.000000 0.000000 0.059759 0.000000 0.000000
# 5 0.000000 0.000000 0.000000 0.000000 0.030780 0.000000
# 6 0.000000 0.000000 0.000000 0.000000 0.000000 0.015184
#
#
# Mechanical properties :
#
#
# Convention : Reuss Voigt Hill
#
# Bulk Modulus (GPa) = 17.95576 27.97774 22.96675
# Shear Modulus (GPa) = 29.33453 39.20650 34.27051
#
# Velocity S-wave (km/s) = 3.73902 4.32262 4.04137
# Velocity P-wave (km/s) = 5.21514 6.18442 5.72035
#
# Compressibility (1/GPa) = 0.05569243
#
# Stress axis : x y z
#
# Youngs Moduli (GPa) = 35.74410 137.93789 63.69501
#
# Poissons Ratio (x) = 0.13006 -0.29631
# Poissons Ratio (y) = 0.03370 0.08446
# Poissons Ratio (z) = -0.16628 0.18290
#
# Static dielectric constant tensor:
#      x y z
#    x 1.769640 0.000000 0.000000 
#    y 0.000000 1.783820 0.000000 
#    z 0.000000 0.000000 1.817050 
# 
# From -- ./inp_files/45441.got.cif
#   From: 2010.05.17/outbox.cif.g08.bks.cpg/sg63_23_cif.got.tgz:45441.got - 2010.06.03 15:47:04.
