data_PCOD9472561
_publ_section_title
;
Structure prediction by ZEFSAII (Michael W. Deem and Ramdas Pophale) SiO2 
 PCOD9472561
Probable space group: C M C M
;
_chemical_formula_sum "Si O2"
_cell_formula_units_Z 100
_cell_length_a 7.759565
_cell_length_b 29.988789
_cell_length_c 19.835792
_cell_angle_alpha 90.000000
_cell_angle_beta 90.000000
_cell_angle_gamma 90.000000
_cell_volume 4615.787956
_symmetry_space_group_name_H-M "C M C M"
_symmetry_group_IT_number 63
_symmetry_cell_setting 'orthorhombic'
loop_
_space_group_symop_operation_xyz
x,y,z
-x,-y,1/2+z
x,-y,-z
-x,y,1/2-z
-x,-y,-z
x,y,1/2-z
-x,y,z
x,-y,1/2+z
1/2+x,1/2+y,z
1/2-x,1/2-y,1/2+z
1/2+x,1/2-y,-z
1/2-x,1/2+y,1/2-z
1/2-x,1/2-y,-z
1/2+x,1/2+y,1/2-z
1/2-x,1/2+y,z
1/2+x,1/2-y,1/2+z
loop_
_atom_site_type_symbol
_atom_site_label
_atom_site_fract_x
_atom_site_fract_y
_atom_site_fract_z
Si Si1 0.000000 0.982325 0.250000
Si Si2 0.800422 0.290320 0.403079
Si Si3 0.702411 0.990562 0.647367
Si Si4 0.798667 0.398647 0.591569
Si Si5 0.208661 0.937223 0.053936
Si Si6 0.799409 0.804381 0.553604
Si Si7 0.701166 0.625398 0.674889
O O1 0.154538 0.985658 0.192664
O O2 0.732171 0.239665 0.408502
O O3 0.786530 0.308292 0.480057
O O4 0.710899 0.324177 0.352263
O O5 0.000000 0.289109 0.383078
O O6 0.500000 0.993424 0.667658
O O7 0.755044 0.938612 0.640985
O O8 0.721700 0.014653 0.575185
O O9 0.769423 0.417447 0.516454
O O10 0.714434 0.350166 0.594045
O O11 0.000000 0.391789 0.602421
O O12 0.272611 0.904946 0.114788
O O13 0.000000 0.937588 0.051556
O O14 0.000000 0.795516 0.538940
O O15 0.776653 0.620444 0.750000
O O16 0.500000 0.612812 0.680922
#
# Coordination Sequence:
#
# PCOD9472561 Si02
#       7
#     4  16  16  16  16  16  16
#     4  12  26  48  70  90 124 176 216 272 320 382
#     4  10  20  35  55  86 118 153 200 256 308 368
#     4  11  26  44  67  95 127 168 218 267 321 387
#     4  11  23  39  62  97 129 160 207 268 322 379
#     4  11  22  37  64  95 128 167 211 261 322 385
#     4  10  20  34  59  87 117 156 202 250 313 377
#     4  10  22  37  57  85 122 164 208 250 310 387
#
# _framework density 21.664773
#
# number of rings (size 3 to 8) (size 9 to 14) (size 15 to 20)
#    0.000    1.440    2.400    2.640    3.360    4.800 
#    0.000    0.000    1.760    0.000    0.000    0.000 
#    0.000    0.000    0.000    0.000    0.000    0.000 
#
# Total GULP energy -278807.271099 kJ/mol
# GULP energy per Si atom -5576.145422 kJ/mol
# Density = 2.161546 g / cm^3
# Si number density = 21.664773 Si / 1000 Ang^3
#
#
#
# Elastic Constant Matrix: (Units=GPa)
#
#
# Indices 1 2 3 4 5 6 
#
# 1 56.6641 -0.2477 2.8235 0.0000 0.0000 0.0000
# 2 -0.2477 105.1184 -1.1179 0.0000 0.0000 0.0000
# 3 2.8235 -1.1179 44.3910 0.0000 0.0000 0.0000
# 4 0.0000 0.0000 0.0000 -30.4239 0.0000 0.0000
# 5 0.0000 0.0000 0.0000 0.0000 37.7974 0.0000
# 6 0.0000 0.0000 0.0000 0.0000 0.0000 28.7911
#
#
#
# Elastic Compliance Matrix: (Units=1/GPa)
#
#
# Indices 1 2 3 4 5 6 
#
# 1 0.017704 0.000030 -0.001125 0.000000 0.000000 0.000000
# 2 0.000030 0.009516 0.000238 0.000000 0.000000 0.000000
# 3 -0.001125 0.000238 0.022605 0.000000 0.000000 0.000000
# 4 0.000000 0.000000 0.000000 -0.032869 0.000000 0.000000
# 5 0.000000 0.000000 0.000000 0.000000 0.026457 0.000000
# 6 0.000000 0.000000 0.000000 0.000000 0.000000 0.034733
#
#
# Mechanical properties :
#
#
# Convention : Reuss Voigt Hill
#
# Bulk Modulus (GPa) = 20.78626 23.23215 22.00920
# Shear Modulus (GPa) = 52.13912 20.88061 36.50986
#
# Velocity S-wave (km/s) = 4.91106 3.10789 4.10959
# Velocity P-wave (km/s) = 6.46323 4.86059 5.71834
#
# Compressibility (1/GPa) = 0.04810871
#
# Stress axis : x y z
#
# Youngs Moduli (GPa) = 56.48417 105.08966 44.23868
#
# Poissons Ratio (x) = -0.00313 0.04978
# Poissons Ratio (y) = -0.00168 -0.01052
# Poissons Ratio (z) = 0.06356 -0.02498
#
# Static dielectric constant tensor:
#      x y z
#    x 1.785930 0.000000 0.000000 
#    y 0.000000 1.865170 0.000000 
#    z 0.000000 0.000000 1.771690 
# 
# From -- ./inp_files/51661.got.cif
#   From: 2010.05.17/outbox.cif.g08.bks.cpg/sg63_26_cif.got.tgz:51661.got - 2010.06.03 15:47:04.
