data_PCOD9472873
_publ_section_title
;
Structure prediction by ZEFSAII (Michael W. Deem and Ramdas Pophale) SiO2 
 PCOD9472873
Probable space group: C M C M
;
_chemical_formula_sum "Si O2"
_cell_formula_units_Z 112
_cell_length_a 31.994522
_cell_length_b 6.143279
_cell_length_c 26.396356
_cell_angle_alpha 90.000000
_cell_angle_beta 90.000000
_cell_angle_gamma 90.000000
_cell_volume 5188.237430
_symmetry_space_group_name_H-M "C M C M"
_symmetry_group_IT_number 63
_symmetry_cell_setting 'orthorhombic'
loop_
_space_group_symop_operation_xyz
x,y,z
-x,-y,1/2+z
x,-y,-z
-x,y,1/2-z
-x,-y,-z
x,y,1/2-z
-x,y,z
x,-y,1/2+z
1/2+x,1/2+y,z
1/2-x,1/2-y,1/2+z
1/2+x,1/2-y,-z
1/2-x,1/2+y,1/2-z
1/2-x,1/2-y,-z
1/2+x,1/2+y,1/2-z
1/2-x,1/2+y,z
1/2+x,1/2-y,1/2+z
loop_
_atom_site_type_symbol
_atom_site_label
_atom_site_fract_x
_atom_site_fract_y
_atom_site_fract_z
Si Si1 0.885690 0.475761 0.555543
Si Si2 0.299883 0.093979 0.693825
Si Si3 0.952183 0.743037 0.617277
Si Si4 0.456587 0.357719 0.449773
Si Si5 0.659664 0.262846 0.361096
Si Si6 0.885521 0.127782 0.308128
Si Si7 0.242175 0.894050 0.405946
O O1 0.865833 0.500000 0.500000
O O2 0.921476 0.642831 0.574109
O O3 0.913598 0.263409 0.549552
O O4 0.854409 0.430118 0.601137
O O5 0.281341 0.123891 0.750000
O O6 0.341000 0.246397 0.690372
O O7 0.268610 0.123500 0.646670
O O8 0.317590 0.850458 0.686052
O O9 0.923569 0.737520 0.667229
O O10 0.000000 0.656897 0.622057
O O11 0.957338 0.989491 0.598823
O O12 0.458086 0.500000 0.500000
O O13 0.500000 0.223057 0.450593
O O14 0.622661 0.411599 0.340933
O O15 0.693315 0.401634 0.392079
O O16 0.894720 0.076990 0.250000
O O17 0.247878 0.640926 0.428429
#
# Coordination Sequence:
#
# PCOD9472873 Si02
#       7
#    16  16  16  16  16  16  16
#     4  12  23  37  62  91 123 165 214 266 331 391
#     4  10  21  37  61  91 121 159 209 263 324 386
#     4  11  23  39  60  87 122 164 211 268 327 384
#     4  10  20  35  58  87 117 151 203 270 330 381
#     4  11  22  39  59  90 131 163 206 266 330 392
#     4  11  22  39  61  87 120 164 209 257 320 393
#     4  10  21  37  61  92 127 168 208 265 326 389
#
# _framework density 21.587294
#
# number of rings (size 3 to 8) (size 9 to 14) (size 15 to 20)
#    0.000    1.286    5.714    0.857    0.000    3.714 
#    0.000    0.000    0.000    3.429    0.000    0.000 
#    0.000    0.000    0.000    0.000    0.000    0.000 
#
# Total GULP energy -311741.217404 kJ/mol
# GULP energy per Si atom -5566.807454 kJ/mol
# Density = 2.153816 g / cm^3
# Si number density = 21.587294 Si / 1000 Ang^3
#
#
#
# Elastic Constant Matrix: (Units=GPa)
#
#
# Indices 1 2 3 4 5 6 
#
# 1 65.8420 -0.0921 20.9869 0.0000 0.0000 0.0000
# 2 -0.0921 64.9651 7.9105 0.0000 0.0000 0.0000
# 3 20.9869 7.9105 66.4160 0.0000 0.0000 0.0000
# 4 0.0000 0.0000 0.0000 20.6512 0.0000 0.0000
# 5 0.0000 0.0000 0.0000 0.0000 -9.2623 0.0000
# 6 0.0000 0.0000 0.0000 0.0000 0.0000 155.5839
#
#
#
# Elastic Compliance Matrix: (Units=1/GPa)
#
#
# Indices 1 2 3 4 5 6 
#
# 1 0.016919 0.000685 -0.005428 0.000000 0.000000 0.000000
# 2 0.000685 0.015647 -0.002080 0.000000 0.000000 0.000000
# 3 -0.005428 -0.002080 0.017020 0.000000 0.000000 0.000000
# 4 0.000000 0.000000 0.000000 0.048423 0.000000 0.000000
# 5 0.000000 0.000000 0.000000 0.000000 -0.107964 0.000000
# 6 0.000000 0.000000 0.000000 0.000000 0.000000 0.006427
#
#
# Mechanical properties :
#
#
# Convention : Reuss Voigt Hill
#
# Bulk Modulus (GPa) = 27.82447 28.31485 28.06966
# Shear Modulus (GPa) = 226.26572 44.62241 135.44406
#
# Velocity S-wave (km/s) = 10.24899 4.55143 7.92961
# Velocity P-wave (km/s) = 12.36823 6.38480 9.84222
#
# Compressibility (1/GPa) = 0.03593959
#
# Stress axis : x y z
#
# Youngs Moduli (GPa) = 59.10535 63.90948 58.75611
#
# Poissons Ratio (x) = -0.04377 0.31892
# Poissons Ratio (y) = -0.04048 0.12222
# Poissons Ratio (z) = 0.32081 0.13294
#
# Static dielectric constant tensor:
#      x y z
#    x 1.922460 0.000000 0.000000 
#    y 0.000000 1.896540 0.000000 
#    z 0.000000 0.000000 1.811800 
# 
# From -- ./inp_files/74540.got.cif
#   From: 2010.05.17/outbox.cif.g08.bks.cpg/sg63_38_cif.got.tgz:74540.got - 2010.06.03 15:47:04.
