data_PCOD9472228
_publ_section_title
;
Structure prediction by ZEFSAII (Michael W. Deem and Ramdas Pophale) SiO2 
 PCOD9472228
Probable space group: C M C M
;
_chemical_formula_sum "Si O2"
_cell_formula_units_Z 80
_cell_length_a 18.210198
_cell_length_b 27.505242
_cell_length_c 8.468675
_cell_angle_alpha 90.000000
_cell_angle_beta 90.000000
_cell_angle_gamma 90.000000
_cell_volume 4241.755237
_symmetry_space_group_name_H-M "C M C M"
_symmetry_group_IT_number 63
_symmetry_cell_setting 'orthorhombic'
loop_
_space_group_symop_operation_xyz
x,y,z
-x,-y,1/2+z
x,-y,-z
-x,y,1/2-z
-x,-y,-z
x,y,1/2-z
-x,y,z
x,-y,1/2+z
1/2+x,1/2+y,z
1/2-x,1/2-y,1/2+z
1/2+x,1/2-y,-z
1/2-x,1/2+y,1/2-z
1/2-x,1/2-y,-z
1/2+x,1/2+y,1/2-z
1/2-x,1/2+y,z
1/2+x,1/2-y,1/2+z
loop_
_atom_site_type_symbol
_atom_site_label
_atom_site_fract_x
_atom_site_fract_y
_atom_site_fract_z
Si Si1 0.277451 0.345190 0.435449
Si Si2 0.123782 0.316177 0.936318
Si Si3 0.418160 0.919799 0.062671
Si Si4 0.917102 0.210590 0.060937
Si Si5 0.736119 0.948216 0.564376
O O1 0.264077 0.337995 0.250000
O O2 0.211047 0.319661 0.530213
O O3 0.354669 0.322596 0.484458
O O4 0.271625 0.402175 0.476907
O O5 0.109967 0.320946 0.750000
O O6 0.089249 0.362310 0.025768
O O7 0.094118 0.265428 0.999814
O O8 0.407790 0.927578 0.250000
O O9 0.500000 0.935997 0.017605
O O10 0.351265 0.943913 0.969652
O O11 0.908626 0.210050 0.250000
O O12 0.000000 0.194785 0.021802
O O13 0.749029 0.943892 0.750000
O O14 0.761800 0.000000 0.500000
#
# Coordination Sequence:
#
# PCOD9472228 Si02
#       5
#    16  16  16  16  16
#     4  11  22  38  59  82 110 142 181 225 269 320
#     4  11  21  34  54  80 112 149 188 224 263 315
#     4  10  20  34  52  77 111 148 185 225 269 317
#     4  11  23  38  56  80 112 147 182 222 269 320
#     4  11  22  38  59  81 106 138 180 225 273 325
#
# _framework density 18.860116999999999
#
# number of rings (size 3 to 8) (size 9 to 14) (size 15 to 20)
#    0.000    1.200    0.000   10.200    0.000    6.000 
#    0.000    0.000    0.000    0.600    0.000    0.000 
#    0.000    0.000    0.000    0.000    0.000    0.000 
#
# Total GULP energy -223753.560003 kJ/mol
# GULP energy per Si atom -5593.839000 kJ/mol
# Density = 1.881719 g / cm^3
# Si number density = 18.860117 Si / 1000 Ang^3
#
#
#
# Elastic Constant Matrix: (Units=GPa)
#
#
# Indices 1 2 3 4 5 6 
#
# 1 54.9742 11.4619 -8.0017 0.0000 0.0000 0.0000
# 2 11.4619 53.7847 -11.0307 0.0000 0.0000 0.0000
# 3 -8.0017 -11.0307 53.3211 0.0000 0.0000 0.0000
# 4 0.0000 0.0000 0.0000 29.9949 0.0000 0.0000
# 5 0.0000 0.0000 0.0000 0.0000 27.6175 0.0000
# 6 0.0000 0.0000 0.0000 0.0000 0.0000 -4.7350
#
#
#
# Elastic Compliance Matrix: (Units=1/GPa)
#
#
# Indices 1 2 3 4 5 6 
#
# 1 0.019266 -0.003668 0.002132 0.000000 0.000000 0.000000
# 2 -0.003668 0.020115 0.003611 0.000000 0.000000 0.000000
# 3 0.002132 0.003611 0.019821 0.000000 0.000000 0.000000
# 4 0.000000 0.000000 0.000000 0.033339 0.000000 0.000000
# 5 0.000000 0.000000 0.000000 0.000000 0.036209 0.000000
# 6 0.000000 0.000000 0.000000 0.000000 0.000000 -0.211194
#
#
# Mechanical properties :
#
#
# Convention : Reuss Voigt Hill
#
# Bulk Modulus (GPa) = 15.78507 16.32656 16.05581
# Shear Modulus (GPa) = -76.36349 21.88552 -27.23899
#
# Velocity S-wave (km/s) = -6.37003 3.41018 -3.80447
# Velocity P-wave (km/s) = 6.76131 4.91744 3.28132
#
# Compressibility (1/GPa) = 0.06335100
#
# Stress axis : x y z
#
# Youngs Moduli (GPa) = 51.90614 49.71436 50.45092
#
# Poissons Ratio (x) = 0.18237 -0.10757
# Poissons Ratio (y) = 0.19041 -0.18217
# Poissons Ratio (z) = -0.11068 -0.17951
#
# Static dielectric constant tensor:
#      x y z
#    x 1.654970 0.000000 0.000000 
#    y 0.000000 1.646270 0.000000 
#    z 0.000000 0.000000 1.625640 
# 
# From -- ./inp_files/6447.got.cif
#   From: 2010.05.17/outbox.cif.g08.bks.cpg/sg63_4_cif.got.tgz:6447.got - 2010.06.03 15:47:04.
