data_PCOD9472833
_publ_section_title
;
Structure prediction by ZEFSAII (Michael W. Deem and Ramdas Pophale) SiO2 
 PCOD9472833
Probable space group: C M C M
;
_chemical_formula_sum "Si O2"
_cell_formula_units_Z 80
_cell_length_a 7.485858
_cell_length_b 28.783136
_cell_length_c 19.519589
_cell_angle_alpha 90.000000
_cell_angle_beta 90.000000
_cell_angle_gamma 90.000000
_cell_volume 4205.816916
_symmetry_space_group_name_H-M "C M C M"
_symmetry_group_IT_number 63
_symmetry_cell_setting 'orthorhombic'
loop_
_space_group_symop_operation_xyz
x,y,z
-x,-y,1/2+z
x,-y,-z
-x,y,1/2-z
-x,-y,-z
x,y,1/2-z
-x,y,z
x,-y,1/2+z
1/2+x,1/2+y,z
1/2-x,1/2-y,1/2+z
1/2+x,1/2-y,-z
1/2-x,1/2+y,1/2-z
1/2-x,1/2-y,-z
1/2+x,1/2+y,1/2-z
1/2-x,1/2+y,z
1/2+x,1/2-y,1/2+z
loop_
_atom_site_type_symbol
_atom_site_label
_atom_site_fract_x
_atom_site_fract_y
_atom_site_fract_z
Si Si1 0.000000 0.526438 0.894362
Si Si2 0.289692 0.277068 0.672888
Si Si3 0.000000 0.427524 0.544932
Si Si4 0.782969 0.847295 0.943322
Si Si5 0.285906 0.682853 0.593068
Si Si6 0.210458 0.089058 0.669078
O O1 0.000000 0.471393 0.904453
O O2 0.172712 0.545875 0.855168
O O3 0.000000 0.550710 0.968972
O O4 0.214090 0.275908 0.750000
O O5 0.500000 0.286070 0.679062
O O6 0.223320 0.317083 0.621935
O O7 0.272403 0.227890 0.634602
O O8 0.826158 0.395085 0.554056
O O9 0.000000 0.853793 0.942774
O O10 0.735896 0.819435 0.013214
O O11 0.500000 0.682847 0.595941
O O12 0.226229 0.635215 0.629292
O O13 0.231017 0.096673 0.750000
O O14 0.000000 0.082222 0.654437
#
# Coordination Sequence:
#
# PCOD9472833 Si02
#       6
#     8  16   8  16  16  16
#     4  11  23  40  62  94 121 150 211 262 305 373
#     4  10  22  37  56  85 120 162 205 247 300 357
#     4  11  24  40  66  90 114 161 208 255 316 356
#     4  10  22  41  60  86 122 159 204 253 301 362
#     4  10  20  35  57  87 119 158 199 243 301 361
#     4  10  21  38  60  89 128 162 194 248 313 368
#
# _framework density 19.021276
#
# number of rings (size 3 to 8) (size 9 to 14) (size 15 to 20)
#    0.000    1.800    2.000    1.500    4.200    2.000 
#    0.000    4.000    0.000    2.400    0.000    0.000 
#    0.000    0.000    0.000    0.000    0.000    0.000 
#
# Total GULP energy -223362.727767 kJ/mol
# GULP energy per Si atom -5584.068194 kJ/mol
# Density = 1.897798 g / cm^3
# Si number density = 19.021276 Si / 1000 Ang^3
#
#
#
# Elastic Constant Matrix: (Units=GPa)
#
#
# Indices 1 2 3 4 5 6 
#
# 1 70.0338 30.6697 40.7986 0.0000 0.0000 0.0000
# 2 30.6697 100.6242 75.2818 0.0000 0.0000 0.0000
# 3 40.7986 75.2818 132.2978 0.0000 0.0000 0.0000
# 4 0.0000 0.0000 0.0000 25.0125 0.0000 0.0000
# 5 0.0000 0.0000 0.0000 0.0000 12.8827 0.0000
# 6 0.0000 0.0000 0.0000 0.0000 0.0000 -944.4198
#
#
#
# Elastic Compliance Matrix: (Units=1/GPa)
#
#
# Indices 1 2 3 4 5 6 
#
# 1 0.017702 -0.002283 -0.004160 0.000000 0.000000 0.000000
# 2 -0.002283 0.017600 -0.009311 0.000000 0.000000 0.000000
# 3 -0.004160 -0.009311 0.014140 0.000000 0.000000 0.000000
# 4 0.000000 0.000000 0.000000 0.039980 0.000000 0.000000
# 5 0.000000 0.000000 0.000000 0.000000 0.077623 0.000000
# 6 0.000000 0.000000 0.000000 0.000000 0.000000 -0.001059
#
#
# Mechanical properties :
#
#
# Convention : Reuss Voigt Hill
#
# Bulk Modulus (GPa) = 55.76065 66.27287 61.01676
# Shear Modulus (GPa) = 24.57353 -170.89121 -73.15884
#
# Velocity S-wave (km/s) = 3.59820 -9.48879 -6.20847
# Velocity P-wave (km/s) = 6.82944 9.22673 4.38698
#
# Compressibility (1/GPa) = 0.01793379
#
# Stress axis : x y z
#
# Youngs Moduli (GPa) = 56.49059 56.81934 70.72364
#
# Poissons Ratio (x) = 0.12974 0.29419
# Poissons Ratio (y) = 0.12899 0.65848
# Poissons Ratio (z) = 0.23499 0.52902
#
# Static dielectric constant tensor:
#      x y z
#    x 1.691580 0.000000 0.000000 
#    y 0.000000 1.622670 0.000000 
#    z 0.000000 0.000000 1.676900 
# 
# From -- ./inp_files/40548.got.cif
#   From: 2010.05.17/outbox.cif.g08.bks.cpg/sg63_21_cif.got.tgz:40548.got - 2010.06.03 15:47:04.
