data_PCOD9472613
_publ_section_title
;
Structure prediction by ZEFSAII (Michael W. Deem and Ramdas Pophale) SiO2 
 PCOD9472613
Probable space group: C M C M
;
_chemical_formula_sum "Si O2"
_cell_formula_units_Z 116
_cell_length_a 8.195957
_cell_length_b 24.029051
_cell_length_c 29.981612
_cell_angle_alpha 90.000000
_cell_angle_beta 90.000000
_cell_angle_gamma 90.000000
_cell_volume 5904.610710
_symmetry_space_group_name_H-M "C M C M"
_symmetry_group_IT_number 63
_symmetry_cell_setting 'orthorhombic'
loop_
_space_group_symop_operation_xyz
x,y,z
-x,-y,1/2+z
x,-y,-z
-x,y,1/2-z
-x,-y,-z
x,y,1/2-z
-x,y,z
x,-y,1/2+z
1/2+x,1/2+y,z
1/2-x,1/2-y,1/2+z
1/2+x,1/2-y,-z
1/2-x,1/2+y,1/2-z
1/2-x,1/2-y,-z
1/2+x,1/2+y,1/2-z
1/2-x,1/2+y,z
1/2+x,1/2-y,1/2+z
loop_
_atom_site_type_symbol
_atom_site_label
_atom_site_fract_x
_atom_site_fract_y
_atom_site_fract_z
Si Si1 0.309383 0.395723 0.850948
Si Si2 0.811800 0.505199 0.815140
Si Si3 0.684829 0.678250 0.569717
Si Si4 0.311001 0.057407 0.914144
Si Si5 0.311509 0.282901 0.610406
Si Si6 0.186497 0.053780 0.451491
Si Si7 0.500000 0.474191 0.250000
Si Si8 0.818310 0.665586 0.476773
O O1 0.500000 0.394855 0.836742
O O2 0.209770 0.438303 0.820760
O O3 0.249466 0.332384 0.857407
O O4 0.307023 0.422279 0.900681
O O5 0.800573 0.532418 0.864281
O O6 0.650405 0.524010 0.788066
O O7 0.000000 0.516602 0.799783
O O8 0.500000 0.684363 0.554730
O O9 0.716011 0.615210 0.584255
O O10 0.723030 0.723947 0.607178
O O11 0.793088 0.688673 0.525945
O O12 0.500000 0.068806 0.924106
O O13 0.246997 0.009163 0.947089
O O14 0.500000 0.273592 0.621273
O O15 0.298283 0.308831 0.560566
O O16 0.288490 0.099216 0.478558
O O17 0.000000 0.055718 0.466724
O O18 0.000000 0.676776 0.460469
#
# Coordination Sequence:
#
# PCOD9472613 Si02
#       8
#    16  16  16  16  16  16   4  16
#     4   8  15  31  54  78 109 144 174 217 272 325
#     4  10  21  36  60  91 122 149 175 215 268 331
#     4  12  24  35  50  72 104 144 194 239 281 319
#     4  10  21  37  55  77 109 143 184 229 271 326
#     4  10  20  35  54  75 105 141 189 232 283 327
#     4   9  17  31  52  74 100 140 182 223 281 333
#     4  12  22  36  64  90 132 138 178 204 284 326
#     4  11  21  34  50  71 103 140 187 244 291 325
#
# _framework density 19.645664
#
# number of rings (size 3 to 8) (size 9 to 14) (size 15 to 20)
#    0.000    1.931    0.690    5.172    1.931    4.414 
#    0.000    2.759    0.000    0.000    0.000    0.966 
#    0.000    0.000    0.000    0.000    0.000    0.000 
#
# Total GULP energy -323090.869745 kJ/mol
# GULP energy per Si atom -5570.532237 kJ/mol
# Density = 1.960095 g / cm^3
# Si number density = 19.645664 Si / 1000 Ang^3
#
#
#
# Elastic Constant Matrix: (Units=GPa)
#
#
# Indices 1 2 3 4 5 6 
#
# 1 91.2326 7.2294 10.9691 0.0000 0.0000 0.0000
# 2 7.2294 109.9805 -1.2440 0.0000 0.0000 0.0000
# 3 10.9691 -1.2440 30.4277 0.0000 0.0000 0.0000
# 4 0.0000 0.0000 0.0000 -12.3644 0.0000 0.0000
# 5 0.0000 0.0000 0.0000 0.0000 22.0628 0.0000
# 6 0.0000 0.0000 0.0000 0.0000 0.0000 26.3050
#
#
#
# Elastic Compliance Matrix: (Units=1/GPa)
#
#
# Indices 1 2 3 4 5 6 
#
# 1 0.011528 -0.000805 -0.004189 0.000000 0.000000 0.000000
# 2 -0.000805 0.009153 0.000664 0.000000 0.000000 0.000000
# 3 -0.004189 0.000664 0.034402 0.000000 0.000000 0.000000
# 4 0.000000 0.000000 0.000000 -0.080877 0.000000 0.000000
# 5 0.000000 0.000000 0.000000 0.000000 0.045325 0.000000
# 6 0.000000 0.000000 0.000000 0.000000 0.000000 0.038016
#
#
# Mechanical properties :
#
#
# Convention : Reuss Voigt Hill
#
# Bulk Modulus (GPa) = 21.54045 29.50552 25.52299
# Shear Modulus (GPa) = 61.21377 21.51308 41.36343
#
# Velocity S-wave (km/s) = 5.58807 3.31275 4.59352
# Velocity P-wave (km/s) = 7.25422 5.44829 6.41512
#
# Compressibility (1/GPa) = 0.04642429
#
# Stress axis : x y z
#
# Youngs Moduli (GPa) = 86.74197 109.25420 29.06802
#
# Poissons Ratio (x) = 0.08797 0.12176
# Poissons Ratio (y) = 0.06984 -0.01932
# Poissons Ratio (z) = 0.36335 -0.07260
#
# Static dielectric constant tensor:
#      x y z
#    x 1.682800 0.000000 0.000000 
#    y 0.000000 1.744290 0.000000 
#    z 0.000000 0.000000 1.688770 
# 
# From -- ./inp_files/72203.got.cif
#   From: 2010.05.17/outbox.cif.g08.bks.cpg/sg63_37_cif.got.tgz:72203.got - 2010.06.03 15:47:04.
