data_PCOD9472845
_publ_section_title
;
Structure prediction by ZEFSAII (Michael W. Deem and Ramdas Pophale) SiO2 
 PCOD9472845
Probable space group: C M C M
;
_chemical_formula_sum "Si O2"
_cell_formula_units_Z 112
_cell_length_a 29.234800
_cell_length_b 10.956041
_cell_length_c 17.120538
_cell_angle_alpha 90.000000
_cell_angle_beta 90.000000
_cell_angle_gamma 90.000000
_cell_volume 5483.668386
_symmetry_space_group_name_H-M "C M C M"
_symmetry_group_IT_number 63
_symmetry_cell_setting 'orthorhombic'
loop_
_space_group_symop_operation_xyz
x,y,z
-x,-y,1/2+z
x,-y,-z
-x,y,1/2-z
-x,-y,-z
x,y,1/2-z
-x,y,z
x,-y,1/2+z
1/2+x,1/2+y,z
1/2-x,1/2-y,1/2+z
1/2+x,1/2-y,-z
1/2-x,1/2+y,1/2-z
1/2-x,1/2-y,-z
1/2+x,1/2+y,1/2-z
1/2-x,1/2+y,z
1/2+x,1/2-y,1/2+z
loop_
_atom_site_type_symbol
_atom_site_label
_atom_site_fract_x
_atom_site_fract_y
_atom_site_fract_z
Si Si1 0.211175 0.514831 0.160141
Si Si2 0.884143 0.192724 0.340159
Si Si3 0.448575 0.505924 0.086173
Si Si4 0.313333 0.496990 0.905724
Si Si5 0.847456 0.734827 0.110469
Si Si6 0.550225 0.764300 0.656519
Si Si7 0.860644 0.615442 0.952035
O O1 0.209229 0.474431 0.250000
O O2 0.262256 0.507664 0.127712
O O3 0.189527 0.650645 0.153775
O O4 0.179448 0.434621 0.103238
O O5 0.879347 0.225308 0.250000
O O6 0.923621 0.095113 0.355250
O O7 0.893089 0.308637 0.395344
O O8 0.839847 0.120218 0.372004
O O9 0.500000 0.552223 0.074140
O O10 0.450130 0.371274 0.120729
O O11 0.425826 0.500000 0.000000
O O12 0.338543 0.621752 0.877083
O O13 0.312471 0.500000 0.000000
O O14 0.899095 0.691198 0.132027
O O15 0.842175 0.705449 0.018798
O O16 0.550586 0.759706 0.750000
O O17 0.500000 0.819924 0.633676
O O18 0.879904 0.500000 0.000000
#
# Coordination Sequence:
#
# PCOD9472845 Si02
#       7
#    16  16  16  16  16  16  16
#     4  11  26  42  61  91 127 168 218 272 318 372
#     4  12  23  37  62  94 128 163 204 265 325 379
#     4  10  20  35  57  90 130 168 205 250 316 394
#     4  12  24  40  63  92 128 169 213 255 318 394
#     4  11  22  41  66  90 126 168 214 260 319 387
#     4  10  20  35  59  92 128 163 204 261 326 384
#     4  10  23  44  64  85 117 167 217 258 309 373
#
# _framework density 20.424284
#
# number of rings (size 3 to 8) (size 9 to 14) (size 15 to 20)
#    0.000    1.143    2.857    4.286    2.000    3.714 
#    0.000    0.000    0.000    7.714    0.000    0.000 
#    0.000    0.000    0.000    0.000    0.000    0.000 
#
# Total GULP energy -312585.620476 kJ/mol
# GULP energy per Si atom -5581.886080 kJ/mol
# Density = 2.037780 g / cm^3
# Si number density = 20.424284 Si / 1000 Ang^3
#
#
#
# Elastic Constant Matrix: (Units=GPa)
#
#
# Indices 1 2 3 4 5 6 
#
# 1 81.0364 -0.7836 20.3854 0.0000 0.0000 0.0000
# 2 -0.7836 46.4297 13.6408 0.0000 0.0000 0.0000
# 3 20.3854 13.6408 125.8326 0.0000 0.0000 0.0000
# 4 0.0000 0.0000 0.0000 28.8979 0.0000 0.0000
# 5 0.0000 0.0000 0.0000 0.0000 26.0199 0.0000
# 6 0.0000 0.0000 0.0000 0.0000 0.0000 12.6371
#
#
#
# Elastic Compliance Matrix: (Units=1/GPa)
#
#
# Indices 1 2 3 4 5 6 
#
# 1 0.012897 0.000859 -0.002183 0.000000 0.000000 0.000000
# 2 0.000859 0.022304 -0.002557 0.000000 0.000000 0.000000
# 3 -0.002183 -0.002557 0.008578 0.000000 0.000000 0.000000
# 4 0.000000 0.000000 0.000000 0.034605 0.000000 0.000000
# 5 0.000000 0.000000 0.000000 0.000000 0.038432 0.000000
# 6 0.000000 0.000000 0.000000 0.000000 0.000000 0.079132
#
#
# Mechanical properties :
#
#
# Convention : Reuss Voigt Hill
#
# Bulk Modulus (GPa) = 27.76409 35.53153 31.64781
# Shear Modulus (GPa) = 23.17876 28.18139 25.68008
#
# Velocity S-wave (km/s) = 3.37243 3.71859 3.54973
# Velocity P-wave (km/s) = 5.36540 5.98930 5.68591
#
# Compressibility (1/GPa) = 0.03601775
#
# Stress axis : x y z
#
# Youngs Moduli (GPa) = 77.53452 44.83570 116.57953
#
# Poissons Ratio (x) = -0.03851 0.25444
# Poissons Ratio (y) = -0.06659 0.29809
# Poissons Ratio (z) = 0.16922 0.11464
#
# Static dielectric constant tensor:
#      x y z
#    x 1.761330 0.000000 0.000000 
#    y 0.000000 1.741810 0.000000 
#    z 0.000000 0.000000 1.730950 
# 
# From -- ./inp_files/38514.got.cif
#   From: 2010.05.17/outbox.cif.g08.bks.cpg/sg63_20_cif.got.tgz:38514.got - 2010.06.03 15:47:04.
