data_PCOD9472348
_publ_section_title
;
Structure prediction by ZEFSAII (Michael W. Deem and Ramdas Pophale) SiO2 
 PCOD9472348
Probable space group: C M C M
;
_chemical_formula_sum "Si O2"
_cell_formula_units_Z 72
_cell_length_a 32.518414
_cell_length_b 13.761145
_cell_length_c 8.891294
_cell_angle_alpha 90.000000
_cell_angle_beta 90.000000
_cell_angle_gamma 90.000000
_cell_volume 3978.770578
_symmetry_space_group_name_H-M "C M C M"
_symmetry_group_IT_number 63
_symmetry_cell_setting 'orthorhombic'
loop_
_space_group_symop_operation_xyz
x,y,z
-x,-y,1/2+z
x,-y,-z
-x,y,1/2-z
-x,-y,-z
x,y,1/2-z
-x,y,z
x,-y,1/2+z
1/2+x,1/2+y,z
1/2-x,1/2-y,1/2+z
1/2+x,1/2-y,-z
1/2-x,1/2+y,1/2-z
1/2-x,1/2-y,-z
1/2+x,1/2+y,1/2-z
1/2-x,1/2+y,z
1/2+x,1/2-y,1/2+z
loop_
_atom_site_type_symbol
_atom_site_label
_atom_site_fract_x
_atom_site_fract_y
_atom_site_fract_z
Si Si1 0.650253 0.097040 0.418974
Si Si2 0.572208 0.237396 0.421704
Si Si3 0.205102 0.749478 0.571434
Si Si4 0.369991 0.607563 0.068552
Si Si5 0.000000 0.610311 0.930975
O O1 0.665366 0.078762 0.250000
O O2 0.611570 0.167600 0.411126
O O3 0.684256 0.150057 0.517731
O O4 0.636865 0.000000 0.500000
O O5 0.558360 0.259085 0.250000
O O6 0.590892 0.332170 0.504167
O O7 0.538513 0.174849 0.511313
O O8 0.208760 0.753583 0.750000
O O9 0.250000 0.750000 0.500000
O O10 0.172243 0.834034 0.526722
O O11 0.372242 0.604817 0.250000
O O12 0.369085 0.500000 0.000000
O O13 0.000000 0.601981 0.750000
O O14 0.000000 0.500000 0.000000
#
# Coordination Sequence:
#
# PCOD9472348 Si02
#       5
#    16  16  16  16   8
#     4  10  20  34  54  78 106 141 179 220 271 328
#     4  10  21  38  59  84 114 147 185 230 278 332
#     4  10  21  36  54  78 110 144 184 232 279 329
#     4  10  21  38  60  84 111 149 192 235 284 338
#     4  12  24  38  59  88 121 154 188 228 278 336
#
# _framework density 18.096041
#
# number of rings (size 3 to 8) (size 9 to 14) (size 15 to 20)
#    0.000    1.778    0.000    4.333    0.000    8.000 
#    0.000    2.778    0.000    0.000    0.000    0.000 
#    0.000    0.000    0.000    0.000    0.000    0.000 
#
# Total GULP energy -200782.778930 kJ/mol
# GULP energy per Si atom -5577.299415 kJ/mol
# Density = 1.805485 g / cm^3
# Si number density = 18.096041 Si / 1000 Ang^3
#
#
#
# Elastic Constant Matrix: (Units=GPa)
#
#
# Indices 1 2 3 4 5 6 
#
# 1 84.6088 16.4796 53.3240 0.0000 0.0000 0.0000
# 2 16.4796 103.1471 63.0403 0.0000 0.0000 0.0000
# 3 53.3240 63.0403 119.1550 0.0000 0.0000 0.0000
# 4 0.0000 0.0000 0.0000 32.8100 0.0000 0.0000
# 5 0.0000 0.0000 0.0000 0.0000 32.4228 0.0000
# 6 0.0000 0.0000 0.0000 0.0000 0.0000 94.4474
#
#
#
# Elastic Compliance Matrix: (Units=1/GPa)
#
#
# Indices 1 2 3 4 5 6 
#
# 1 0.017015 0.002860 -0.009127 0.000000 0.000000 0.000000
# 2 0.002860 0.014808 -0.009115 0.000000 0.000000 0.000000
# 3 -0.009127 -0.009115 0.017299 0.000000 0.000000 0.000000
# 4 0.000000 0.000000 0.000000 0.030478 0.000000 0.000000
# 5 0.000000 0.000000 0.000000 0.000000 0.030843 0.000000
# 6 0.000000 0.000000 0.000000 0.000000 0.000000 0.010588
#
#
# Mechanical properties :
#
#
# Convention : Reuss Voigt Hill
#
# Bulk Modulus (GPa) = 54.47087 63.62207 59.04647
# Shear Modulus (GPa) = 31.66271 43.54051 37.60161
#
# Velocity S-wave (km/s) = 4.18748 4.91050 4.56333
# Velocity P-wave (km/s) = 7.31754 8.20884 7.77597
#
# Compressibility (1/GPa) = 0.01835844
#
# Stress axis : x y z
#
# Youngs Moduli (GPa) = 58.77323 67.52899 57.80591
#
# Poissons Ratio (x) = -0.19314 0.52762
# Poissons Ratio (y) = -0.16809 0.52687
# Poissons Ratio (z) = 0.53645 0.61549
#
# Static dielectric constant tensor:
#      x y z
#    x 1.596070 0.000000 0.000000 
#    y 0.000000 1.593730 0.000000 
#    z 0.000000 0.000000 1.638420 
# 
# From -- ./inp_files/13937.got.cif
#   From: 2010.05.17/outbox.cif.g08.bks.cpg/sg63_7_cif.got.tgz:13937.got - 2010.06.03 15:47:04.
