data_PCOD9472274
_publ_section_title
;
Structure prediction by ZEFSAII (Michael W. Deem and Ramdas Pophale) SiO2 
 PCOD9472274
Probable space group: C M C M
;
_chemical_formula_sum "Si O2"
_cell_formula_units_Z 64
_cell_length_a 7.529699
_cell_length_b 42.435757
_cell_length_c 9.282074
_cell_angle_alpha 90.000000
_cell_angle_beta 90.000000
_cell_angle_gamma 90.000000
_cell_volume 2965.886969
_symmetry_space_group_name_H-M "C M C M"
_symmetry_group_IT_number 63
_symmetry_cell_setting 'orthorhombic'
loop_
_space_group_symop_operation_xyz
x,y,z
-x,-y,1/2+z
x,-y,-z
-x,y,1/2-z
-x,-y,-z
x,y,1/2-z
-x,y,z
x,-y,1/2+z
1/2+x,1/2+y,z
1/2-x,1/2-y,1/2+z
1/2+x,1/2-y,-z
1/2-x,1/2+y,1/2-z
1/2-x,1/2-y,-z
1/2+x,1/2+y,1/2-z
1/2-x,1/2+y,z
1/2+x,1/2-y,1/2+z
loop_
_atom_site_type_symbol
_atom_site_label
_atom_site_fract_x
_atom_site_fract_y
_atom_site_fract_z
Si Si1 0.782489 0.156181 0.083731
Si Si2 0.286890 0.594197 0.913879
Si Si3 0.287071 0.281887 0.086224
Si Si4 0.787037 0.530424 0.413648
O O1 0.726349 0.156182 0.250000
O O2 0.000000 0.156189 0.083862
O O3 0.722995 0.124836 0.000486
O O4 0.722748 0.187513 0.000466
O O5 0.218926 0.592975 0.750000
O O6 0.500000 0.597094 0.905879
O O7 0.248514 0.562323 0.999774
O O8 0.218675 0.280559 0.250000
O O9 0.500000 0.284970 0.094652
O O10 0.250000 0.250000 0.000000
O O11 0.718507 0.500000 0.500000
O O12 0.718461 0.531923 0.250000
O O13 0.000000 0.527122 0.404806
#
# Coordination Sequence:
#
# PCOD9472274 Si02
#       4
#    16  16  16  16
#     4   9  17  31  52  76 103 136 171 209 256 307
#     4  10  20  34  54  80 107 135 170 212 256 303
#     4  10  20  34  53  77 105 137 173 213 257 306
#     4  10  21  37  56  77 103 137 174 211 255 307
#
# _framework density 21.578703999999998
#
# number of rings (size 3 to 8) (size 9 to 14) (size 15 to 20)
#    0.000    2.250    0.000    3.000    0.000    8.000 
#    0.000    1.250    0.000    7.500    0.000    0.000 
#    0.000    0.000    0.000    0.000    0.000    0.000 
#
# Total GULP energy -178890.239691 kJ/mol
# GULP energy per Si atom -5590.319990 kJ/mol
# Density = 2.152959 g / cm^3
# Si number density = 21.578704 Si / 1000 Ang^3
#
#
#
# Elastic Constant Matrix: (Units=GPa)
#
#
# Indices 1 2 3 4 5 6 
#
# 1 54.8863 -1.7593 8.9264 0.0000 0.0000 0.0000
# 2 -1.7593 261.8718 170.5747 0.0000 0.0000 0.0000
# 3 8.9264 170.5747 284.8143 0.0000 0.0000 0.0000
# 4 0.0000 0.0000 0.0000 47.9539 0.0000 0.0000
# 5 0.0000 0.0000 0.0000 0.0000 13.8518 0.0000
# 6 0.0000 0.0000 0.0000 0.0000 0.0000 21.2681
#
#
#
# Elastic Compliance Matrix: (Units=1/GPa)
#
#
# Indices 1 2 3 4 5 6 
#
# 1 0.018419 0.000819 -0.001068 0.000000 0.000000 0.000000
# 2 0.000819 0.006298 -0.003797 0.000000 0.000000 0.000000
# 3 -0.001068 -0.003797 0.005819 0.000000 0.000000 0.000000
# 4 0.000000 0.000000 0.000000 0.020853 0.000000 0.000000
# 5 0.000000 0.000000 0.000000 0.000000 0.072193 0.000000
# 6 0.000000 0.000000 0.000000 0.000000 0.000000 0.047019
#
#
# Mechanical properties :
#
#
# Convention : Reuss Voigt Hill
#
# Bulk Modulus (GPa) = 44.55545 106.33957 75.44751
# Shear Modulus (GPa) = 26.85661 44.87013 35.86337
#
# Velocity S-wave (km/s) = 3.53170 4.56496 4.08116
# Velocity P-wave (km/s) = 6.10928 8.78476 7.56622
#
# Compressibility (1/GPa) = 0.02244394
#
# Stress axis : x y z
#
# Youngs Moduli (GPa) = 54.29048 158.79045 171.85875
#
# Poissons Ratio (x) = -0.13012 0.18355
# Poissons Ratio (y) = -0.04449 0.65260
# Poissons Ratio (z) = 0.05798 0.60298
#
# Static dielectric constant tensor:
#      x y z
#    x 1.849680 0.000000 0.000000 
#    y 0.000000 1.716620 0.000000 
#    z 0.000000 0.000000 1.757580 
# 
# From -- ./inp_files/3105.got.cif
#   From: 2010.05.17/outbox.cif.g08.bks.cpg/sg63_2_cif.got.tgz:3105.got - 2010.06.03 15:47:04.
