data_PCOD9472035
_publ_section_title
;
Structure prediction by ZEFSAII (Michael W. Deem and Ramdas Pophale) SiO2 
 PCOD9472035
Probable space group: C M C M
;
_chemical_formula_sum "Si O2"
_cell_formula_units_Z 96
_cell_length_a 24.706667
_cell_length_b 23.914768
_cell_length_c 8.861992
_cell_angle_alpha 90.000000
_cell_angle_beta 90.000000
_cell_angle_gamma 90.000000
_cell_volume 5236.145276
_symmetry_space_group_name_H-M "C M C M"
_symmetry_group_IT_number 63
_symmetry_cell_setting 'orthorhombic'
loop_
_space_group_symop_operation_xyz
x,y,z
-x,-y,1/2+z
x,-y,-z
-x,y,1/2-z
-x,-y,-z
x,y,1/2-z
-x,y,z
x,-y,1/2+z
1/2+x,1/2+y,z
1/2-x,1/2-y,1/2+z
1/2+x,1/2-y,-z
1/2-x,1/2+y,1/2-z
1/2-x,1/2-y,-z
1/2+x,1/2+y,1/2-z
1/2-x,1/2+y,z
1/2+x,1/2-y,1/2+z
loop_
_atom_site_type_symbol
_atom_site_label
_atom_site_fract_x
_atom_site_fract_y
_atom_site_fract_z
Si Si1 0.223571 0.868261 0.568078
Si Si2 0.837939 0.232863 0.929429
Si Si3 0.379281 0.559935 0.430041
Si Si4 0.938263 0.170880 0.069572
Si Si5 0.437661 0.061597 0.930831
Si Si6 0.843530 0.636767 0.068134
O O1 0.221595 0.864344 0.750000
O O2 0.206510 0.807424 0.505766
O O3 0.177350 0.911804 0.518644
O O4 0.284039 0.886305 0.525676
O O5 0.830526 0.230029 0.750000
O O6 0.839425 0.297761 0.973754
O O7 0.895333 0.207109 0.979036
O O8 0.388669 0.500000 0.500000
O O9 0.376464 0.553996 0.250000
O O10 0.424862 0.606109 0.463986
O O11 0.929027 0.178549 0.250000
O O12 0.000000 0.184641 0.035425
O O13 0.433836 0.058474 0.750000
O O14 0.500000 0.077686 0.969620
O O15 0.393145 0.104488 0.993014
O O16 0.428188 0.000000 0.000000
O O17 0.849566 0.633190 0.250000
#
# Coordination Sequence:
#
# PCOD9472035 Si02
#       6
#    16  16  16  16  16  16
#     4   9  19  36  54  74 106 144 177 212 258 312
#     4  10  20  33  52  80 110 138 172 218 268 311
#     4   9  18  32  50  72  99 132 170 212 256 302
#     4   9  19  36  54  71  98 139 180 215 258 315
#     4  10  22  40  60  81 107 140 177 218 265 316
#     4  10  21  36  56  82 109 139 176 216 259 312
#
# _framework density 18.334098000000001
#
# number of rings (size 3 to 8) (size 9 to 14) (size 15 to 20)
#    0.000    2.500    0.000    2.500    0.000    7.667 
#    0.000    5.000    0.000    0.000    0.000    0.000 
#    0.000    0.000    0.000    0.000    0.000    0.000 
#
# Total GULP energy -267761.871852 kJ/mol
# GULP energy per Si atom -5578.372330 kJ/mol
# Density = 1.829237 g / cm^3
# Si number density = 18.334098 Si / 1000 Ang^3
#
#
#
# Elastic Constant Matrix: (Units=GPa)
#
#
# Indices 1 2 3 4 5 6 
#
# 1 86.9248 4.3314 16.4621 0.0000 0.0000 0.0000
# 2 4.3314 20.1072 5.1625 0.0000 0.0000 0.0000
# 3 16.4621 5.1625 13.2011 0.0000 0.0000 0.0000
# 4 0.0000 0.0000 0.0000 32.2007 0.0000 0.0000
# 5 0.0000 0.0000 0.0000 0.0000 21.1898 0.0000
# 6 0.0000 0.0000 0.0000 0.0000 0.0000 16.7200
#
#
#
# Elastic Compliance Matrix: (Units=1/GPa)
#
#
# Indices 1 2 3 4 5 6 
#
# 1 0.015117 0.001760 -0.019540 0.000000 0.000000 0.000000
# 2 0.001760 0.055489 -0.023895 0.000000 0.000000 0.000000
# 3 -0.019540 -0.023895 0.109462 0.000000 0.000000 0.000000
# 4 0.000000 0.000000 0.000000 0.031055 0.000000 0.000000
# 5 0.000000 0.000000 0.000000 0.000000 0.047192 0.000000
# 6 0.000000 0.000000 0.000000 0.000000 0.000000 0.059809
#
#
# Mechanical properties :
#
#
# Convention : Reuss Voigt Hill
#
# Bulk Modulus (GPa) = 10.33918 19.12725 14.73321
# Shear Modulus (GPa) = 11.52836 20.30726 15.91781
#
# Velocity S-wave (km/s) = 2.51030 3.33171 2.94973
# Velocity P-wave (km/s) = 3.74882 5.02550 4.43336
#
# Compressibility (1/GPa) = 0.09671950
#
# Stress axis : x y z
#
# Youngs Moduli (GPa) = 66.15090 18.02154 9.13558
#
# Poissons Ratio (x) = -0.03172 0.17851
# Poissons Ratio (y) = -0.11645 0.21830
# Poissons Ratio (z) = 1.29256 0.43063
#
# Static dielectric constant tensor:
#      x y z
#    x 1.636220 0.000000 0.000000 
#    y 0.000000 1.612350 0.000000 
#    z 0.000000 0.000000 1.620280 
# 
# From -- ./inp_files/10483.got.cif
#   From: 2010.05.17/outbox.cif.g08.bks.cpg/sg63_6_cif.got.tgz:10483.got - 2010.06.03 15:47:04.
