data_PCOD9472132
_publ_section_title
;
Structure prediction by ZEFSAII (Michael W. Deem and Ramdas Pophale) SiO2 
 PCOD9472132
Probable space group: C M C M
;
_chemical_formula_sum "Si O2"
_cell_formula_units_Z 72
_cell_length_a 13.953673
_cell_length_b 18.578461
_cell_length_c 14.559090
_cell_angle_alpha 90.000000
_cell_angle_beta 90.000000
_cell_angle_gamma 90.000000
_cell_volume 3774.266020
_symmetry_space_group_name_H-M "C M C M"
_symmetry_group_IT_number 63
_symmetry_cell_setting 'orthorhombic'
loop_
_space_group_symop_operation_xyz
x,y,z
-x,-y,1/2+z
x,-y,-z
-x,y,1/2-z
-x,-y,-z
x,y,1/2-z
-x,y,z
x,-y,1/2+z
1/2+x,1/2+y,z
1/2-x,1/2-y,1/2+z
1/2+x,1/2-y,-z
1/2-x,1/2+y,1/2-z
1/2-x,1/2-y,-z
1/2+x,1/2+y,1/2-z
1/2-x,1/2+y,z
1/2+x,1/2-y,1/2+z
loop_
_atom_site_type_symbol
_atom_site_label
_atom_site_fract_x
_atom_site_fract_y
_atom_site_fract_z
Si Si1 0.712174 0.833100 0.353821
Si Si2 0.213874 0.917114 0.526872
Si Si3 0.000000 0.702456 0.854461
Si Si4 0.500000 0.415255 0.522900
Si Si5 0.500000 0.269622 0.047978
Si Si6 0.177808 0.309122 0.856491
O O1 0.740585 0.854067 0.250000
O O2 0.769692 0.873486 0.432429
O O3 0.598132 0.842398 0.364186
O O4 0.735010 0.748148 0.363079
O O5 0.289459 0.882861 0.596968
O O6 0.106026 0.905325 0.565171
O O7 0.227728 0.000000 0.500000
O O8 0.000000 0.732371 0.750000
O O9 0.000000 0.758115 0.938103
O O10 0.500000 0.500000 0.500000
O O11 0.500000 0.355889 0.440479
O O12 0.591469 0.229840 0.090546
O O13 0.152917 0.318280 0.750000
#
# Coordination Sequence:
#
# PCOD9472132 Si02
#       6
#    16  16   8   8   8  16
#     4  10  20  37  60  87 116 155 206 248 297 359
#     4  11  22  40  61  88 128 162 196 250 313 371
#     4  10  20  33  59  92 115 146 199 252 294 349
#     4  10  22  37  63  96 123 158 201 251 317 377
#     4  12  19  38  68  86 129 156 204 255 301 354
#     4  11  23  38  61  91 120 161 212 253 296 362
#
# _framework density 19.076557000000001
#
# number of rings (size 3 to 8) (size 9 to 14) (size 15 to 20)
#    0.000    1.333    4.444    2.333    0.000    0.889 
#    0.000    3.333    0.000    9.333    0.000    0.000 
#    0.000    0.000    0.000    0.000    0.000    0.000 
#
# Total GULP energy -200661.417166 kJ/mol
# GULP energy per Si atom -5573.928255 kJ/mol
# Density = 1.903314 g / cm^3
# Si number density = 19.076557 Si / 1000 Ang^3
#
#
#
# Elastic Constant Matrix: (Units=GPa)
#
#
# Indices 1 2 3 4 5 6 
#
# 1 104.3171 30.3701 19.7747 0.0000 0.0000 0.0000
# 2 30.3701 100.3286 39.0110 0.0000 0.0000 0.0000
# 3 19.7747 39.0110 106.6309 0.0000 0.0000 0.0000
# 4 0.0000 0.0000 0.0000 13.5825 0.0000 0.0000
# 5 0.0000 0.0000 0.0000 0.0000 13.6751 0.0000
# 6 0.0000 0.0000 0.0000 0.0000 0.0000 27.2048
#
#
#
# Elastic Compliance Matrix: (Units=1/GPa)
#
#
# Indices 1 2 3 4 5 6 
#
# 1 0.010590 -0.002847 -0.000922 0.000000 0.000000 0.000000
# 2 -0.002847 0.012386 -0.004003 0.000000 0.000000 0.000000
# 3 -0.000922 -0.004003 0.011014 0.000000 0.000000 0.000000
# 4 0.000000 0.000000 0.000000 0.073624 0.000000 0.000000
# 5 0.000000 0.000000 0.000000 0.000000 0.073126 0.000000
# 6 0.000000 0.000000 0.000000 0.000000 0.000000 0.036758
#
#
# Mechanical properties :
#
#
# Convention : Reuss Voigt Hill
#
# Bulk Modulus (GPa) = 54.21800 54.39868 54.30834
# Shear Modulus (GPa) = 20.90382 25.70053 23.30218
#
# Velocity S-wave (km/s) = 3.31386 3.67445 3.49880
# Velocity P-wave (km/s) = 6.56698 6.82495 6.69721
#
# Compressibility (1/GPa) = 0.01844406
#
# Stress axis : x y z
#
# Youngs Moduli (GPa) = 94.43011 80.73850 90.79514
#
# Poissons Ratio (x) = 0.22986 0.08374
# Poissons Ratio (y) = 0.26884 0.36348
# Poissons Ratio (z) = 0.08709 0.32322
#
# Static dielectric constant tensor:
#      x y z
#    x 1.693600 0.000000 0.000000 
#    y 0.000000 1.661150 0.000000 
#    z 0.000000 0.000000 1.661710 
# 
# From -- ./inp_files/31495.got.cif
#   From: 2010.05.17/outbox.cif.g08.bks.cpg/sg63_16_cif.got.tgz:31495.got - 2010.06.03 15:47:04.
