data_PCOD9472280
_publ_section_title
;
Structure prediction by ZEFSAII (Michael W. Deem and Ramdas Pophale) SiO2 
 PCOD9472280
Probable space group: C M C M
;
_chemical_formula_sum "Si O2"
_cell_formula_units_Z 96
_cell_length_a 25.901546
_cell_length_b 21.400454
_cell_length_c 7.479120
_cell_angle_alpha 90.000000
_cell_angle_beta 90.000000
_cell_angle_gamma 90.000000
_cell_volume 4145.712443
_symmetry_space_group_name_H-M "C M C M"
_symmetry_group_IT_number 63
_symmetry_cell_setting 'orthorhombic'
loop_
_space_group_symop_operation_xyz
x,y,z
-x,-y,1/2+z
x,-y,-z
-x,y,1/2-z
-x,-y,-z
x,y,1/2-z
-x,y,z
x,-y,1/2+z
1/2+x,1/2+y,z
1/2-x,1/2-y,1/2+z
1/2+x,1/2-y,-z
1/2-x,1/2+y,1/2-z
1/2-x,1/2-y,-z
1/2+x,1/2+y,1/2-z
1/2-x,1/2+y,z
1/2+x,1/2-y,1/2+z
loop_
_atom_site_type_symbol
_atom_site_label
_atom_site_fract_x
_atom_site_fract_y
_atom_site_fract_z
Si Si1 0.942998 0.572873 0.962342
Si Si2 0.170101 0.068858 0.035335
Si Si3 0.751686 0.824556 0.535859
Si Si4 0.860414 0.328427 0.545530
Si Si5 0.943449 0.233597 0.532694
Si Si6 0.443655 0.587651 0.041847
O O1 0.941795 0.582878 0.750000
O O2 0.000000 0.590666 0.030027
O O3 0.936354 0.500000 0.000000
O O4 0.898044 0.612998 0.045489
O O5 0.165855 0.075734 0.250000
O O6 0.203451 0.128517 0.967915
O O7 0.111256 0.067553 0.961918
O O8 0.193552 0.000000 0.000000
O O9 0.755023 0.831525 0.750000
O O10 0.750000 0.750000 0.500000
O O11 0.695079 0.844793 0.467827
O O12 0.850065 0.308830 0.750000
O O13 0.894961 0.273064 0.464093
O O14 0.942155 0.233800 0.750000
O O15 0.941257 0.162812 0.468589
O O16 0.000000 0.259354 0.479438
O O17 0.444627 0.568724 0.250000
O O18 0.500000 0.569981 0.963324
#
# Coordination Sequence:
#
# PCOD9472280 Si02
#       6
#    16  16  16  16  16  16
#     4  10  21  36  54  77 106 141 180 223 275 333
#     4  10  22  39  57  80 111 144 182 229 278 330
#     4  10  22  39  59  84 113 148 191 237 285 337
#     4  10  20  34  53  77 106 140 180 225 272 327
#     4   9  17  29  48  76 107 137 170 211 260 314
#     4   9  18  33  53  77 106 139 174 216 267 322
#
# _framework density 23.156455000000001
#
# number of rings (size 3 to 8) (size 9 to 14) (size 15 to 20)
#    0.000    2.333    0.000    2.000    0.000    5.333 
#    0.000    3.333    0.000    0.000    0.000    0.000 
#    0.000    0.000    0.000    0.000    0.000    0.000 
#
# Total GULP energy -267886.722595 kJ/mol
# GULP energy per Si atom -5580.973387 kJ/mol
# Density = 2.310375 g / cm^3
# Si number density = 23.156455 Si / 1000 Ang^3
#
#
#
# Elastic Constant Matrix: (Units=GPa)
#
#
# Indices 1 2 3 4 5 6 
#
# 1 181.9109 80.6516 12.4626 0.0000 0.0000 0.0000
# 2 80.6516 131.5463 -12.7125 0.0000 0.0000 0.0000
# 3 12.4626 -12.7125 78.1637 0.0000 0.0000 0.0000
# 4 0.0000 0.0000 0.0000 20.0059 0.0000 0.0000
# 5 0.0000 0.0000 0.0000 0.0000 18.1632 0.0000
# 6 0.0000 0.0000 0.0000 0.0000 0.0000 36.0536
#
#
#
# Elastic Compliance Matrix: (Units=1/GPa)
#
#
# Indices 1 2 3 4 5 6 
#
# 1 0.007866 -0.005023 -0.002071 0.000000 0.000000 0.000000
# 2 -0.005023 0.010931 0.002579 0.000000 0.000000 0.000000
# 3 -0.002071 0.002579 0.013543 0.000000 0.000000 0.000000
# 4 0.000000 0.000000 0.000000 0.049985 0.000000 0.000000
# 5 0.000000 0.000000 0.000000 0.000000 0.055056 0.000000
# 6 0.000000 0.000000 0.000000 0.000000 0.000000 0.027736
#
#
# Mechanical properties :
#
#
# Convention : Reuss Voigt Hill
#
# Bulk Modulus (GPa) = 42.90147 61.38048 52.14097
# Shear Modulus (GPa) = 27.48486 35.59249 31.53867
#
# Velocity S-wave (km/s) = 3.44891 3.92477 3.69451
# Velocity P-wave (km/s) = 5.86745 6.86315 6.38474
#
# Compressibility (1/GPa) = 0.02330922
#
# Stress axis : x y z
#
# Youngs Moduli (GPa) = 127.12963 91.48641 73.83750
#
# Poissons Ratio (x) = 0.45952 0.15292
# Poissons Ratio (y) = 0.63855 -0.19040
# Poissons Ratio (z) = 0.26330 -0.23591
#
# Static dielectric constant tensor:
#      x y z
#    x 1.912500 0.000000 0.000000 
#    y 0.000000 1.851820 0.000000 
#    z 0.000000 0.000000 1.885080 
# 
# From -- ./inp_files/12419.got.cif
#   From: 2010.05.17/outbox.cif.g08.bks.cpg/sg63_7_cif.got.tgz:12419.got - 2010.06.03 15:47:04.
