data_PCOD9472509
_publ_section_title
;
Structure prediction by ZEFSAII (Michael W. Deem and Ramdas Pophale) SiO2 
 PCOD9472509
Probable space group: C M C M
;
_chemical_formula_sum "Si O2"
_cell_formula_units_Z 80
_cell_length_a 7.625538
_cell_length_b 21.252281
_cell_length_c 23.632038
_cell_angle_alpha 90.000000
_cell_angle_beta 90.000000
_cell_angle_gamma 90.000000
_cell_volume 3829.809883
_symmetry_space_group_name_H-M "C M C M"
_symmetry_group_IT_number 63
_symmetry_cell_setting 'orthorhombic'
loop_
_space_group_symop_operation_xyz
x,y,z
-x,-y,1/2+z
x,-y,-z
-x,y,1/2-z
-x,-y,-z
x,y,1/2-z
-x,y,z
x,-y,1/2+z
1/2+x,1/2+y,z
1/2-x,1/2-y,1/2+z
1/2+x,1/2-y,-z
1/2-x,1/2+y,1/2-z
1/2-x,1/2-y,-z
1/2+x,1/2+y,1/2-z
1/2-x,1/2+y,z
1/2+x,1/2-y,1/2+z
loop_
_atom_site_type_symbol
_atom_site_label
_atom_site_fract_x
_atom_site_fract_y
_atom_site_fract_z
Si Si1 0.802667 0.628199 0.367743
Si Si2 0.288823 0.750652 0.933850
Si Si3 0.293481 0.496734 0.183437
Si Si4 0.300917 0.677614 0.250000
Si Si5 0.698702 0.628139 0.631130
Si Si6 0.800811 0.325638 0.250000
O O1 0.721171 0.683696 0.406419
O O2 0.722840 0.560388 0.353025
O O3 0.799344 0.658299 0.305662
O O4 0.000000 0.616996 0.388412
O O5 0.500000 0.751002 0.923918
O O6 0.221427 0.685384 0.905670
O O7 0.250000 0.750000 0.000000
O O8 0.227988 0.501444 0.250000
O O9 0.500000 0.483108 0.189280
O O10 0.217776 0.440041 0.144668
O O11 0.500000 0.649447 0.250000
O O12 0.317933 0.751541 0.250000
O O13 0.500000 0.618334 0.609285
O O14 0.699435 0.655040 0.694419
O O15 0.000000 0.352371 0.250000
#
# Coordination Sequence:
#
# PCOD9472509 Si02
#       6
#    16  16  16   8  16   8
#     4  11  22  36  57  84 116 151 186 231 284 339
#     4  10  23  41  62  83 106 147 198 242 287 328
#     4  10  20  34  56  86 120 154 185 222 276 342
#     4  11  21  32  51  84 119 149 183 228 285 340
#     4  10  20  38  59  81 115 155 189 228 280 343
#     4  11  21  30  51  88 119 145 181 234 289 334
#
# _framework density 20.888764999999999
#
# number of rings (size 3 to 8) (size 9 to 14) (size 15 to 20)
#    0.000    1.600    4.000    1.200    0.000    4.000 
#    0.000    1.000    0.000    6.000    0.000    0.000 
#    0.000    0.000    0.000    0.000    0.000    0.000 
#
# Total GULP energy -222748.132614 kJ/mol
# GULP energy per Si atom -5568.703315 kJ/mol
# Density = 2.084122 g / cm^3
# Si number density = 20.888765 Si / 1000 Ang^3
#
#
#
# Elastic Constant Matrix: (Units=GPa)
#
#
# Indices 1 2 3 4 5 6 
#
# 1 57.7505 5.6736 -12.0372 0.0000 0.0000 0.0000
# 2 5.6736 196.2192 73.8377 0.0000 0.0000 0.0000
# 3 -12.0372 73.8377 120.2172 0.0000 0.0000 0.0000
# 4 0.0000 0.0000 0.0000 2.4159 0.0000 0.0000
# 5 0.0000 0.0000 0.0000 0.0000 24.0825 0.0000
# 6 0.0000 0.0000 0.0000 0.0000 0.0000 17.1223
#
#
#
# Elastic Compliance Matrix: (Units=1/GPa)
#
#
# Indices 1 2 3 4 5 6 
#
# 1 0.018046 -0.001563 0.002767 0.000000 0.000000 0.000000
# 2 -0.001563 0.006764 -0.004311 0.000000 0.000000 0.000000
# 3 0.002767 -0.004311 0.011243 0.000000 0.000000 0.000000
# 4 0.000000 0.000000 0.000000 0.413917 0.000000 0.000000
# 5 0.000000 0.000000 0.000000 0.000000 0.041524 0.000000
# 6 0.000000 0.000000 0.000000 0.000000 0.000000 0.058403
#
#
# Mechanical properties :
#
#
# Convention : Reuss Voigt Hill
#
# Bulk Modulus (GPa) = 33.51300 56.57057 45.04178
# Shear Modulus (GPa) = 8.83304 29.17166 19.00235
#
# Velocity S-wave (km/s) = 2.05859 3.74106 3.01938
# Velocity P-wave (km/s) = 4.66141 6.76767 5.81077
#
# Compressibility (1/GPa) = 0.02983917
#
# Stress axis : x y z
#
# Youngs Moduli (GPa) = 55.41350 147.84836 88.94408
#
# Poissons Ratio (x) = 0.23109 -0.24610
# Poissons Ratio (y) = 0.08661 0.38342
# Poissons Ratio (z) = -0.15333 0.63734
#
# Static dielectric constant tensor:
#      x y z
#    x 1.873440 0.000000 0.000000 
#    y 0.000000 1.856740 0.000000 
#    z 0.000000 0.000000 1.685230 
# 
# From -- ./inp_files/59527.got.cif
#   From: 2010.05.17/outbox.cif.g08.bks.cpg/sg63_30_cif.got.tgz:59527.got - 2010.06.03 15:47:04.
