data_PCOD9472932
_publ_section_title
;
Structure prediction by ZEFSAII (Michael W. Deem and Ramdas Pophale) SiO2 
 PCOD9472932
Probable space group: C M C M
;
_chemical_formula_sum "Si O2"
_cell_formula_units_Z 88
_cell_length_a 11.057362
_cell_length_b 27.299180
_cell_length_c 14.518456
_cell_angle_alpha 90.000000
_cell_angle_beta 90.000000
_cell_angle_gamma 90.000000
_cell_volume 4382.496347
_symmetry_space_group_name_H-M "C M C M"
_symmetry_group_IT_number 63
_symmetry_cell_setting 'orthorhombic'
loop_
_space_group_symop_operation_xyz
x,y,z
-x,-y,1/2+z
x,-y,-z
-x,y,1/2-z
-x,-y,-z
x,y,1/2-z
-x,y,z
x,-y,1/2+z
1/2+x,1/2+y,z
1/2-x,1/2-y,1/2+z
1/2+x,1/2-y,-z
1/2-x,1/2+y,1/2-z
1/2-x,1/2-y,-z
1/2+x,1/2+y,1/2-z
1/2-x,1/2+y,z
1/2+x,1/2-y,1/2+z
loop_
_atom_site_type_symbol
_atom_site_label
_atom_site_fract_x
_atom_site_fract_y
_atom_site_fract_z
Si Si1 0.000000 0.856257 0.458056
Si Si2 0.760039 0.248001 0.109313
Si Si3 0.853515 0.025467 0.358995
Si Si4 0.218576 0.075235 0.544059
Si Si5 0.861916 0.647291 0.647419
Si Si6 0.000000 0.814884 0.649628
Si Si7 0.500000 0.742429 0.849855
O O1 0.885055 0.886487 0.427330
O O2 0.000000 0.853459 0.568235
O O3 0.000000 0.800535 0.424794
O O4 0.781827 0.303834 0.140258
O O5 0.627807 0.229823 0.141769
O O6 0.877201 0.217087 0.139197
O O7 0.750000 0.250000 0.000000
O O8 0.827680 0.033768 0.250000
O O9 0.798578 0.062200 0.436227
O O10 0.000000 0.024901 0.370317
O O11 0.802575 0.973256 0.395270
O O12 0.335988 0.105747 0.572332
O O13 0.844744 0.626170 0.750000
O O14 0.000000 0.664480 0.638679
O O15 0.000000 0.838239 0.750000
O O16 0.500000 0.717966 0.750000
#
# Coordination Sequence:
#
# PCOD9472932 Si02
#       7
#     8  16  16  16  16   8   8
#     4  12  22  35  56  90 118 150 195 248 299 348
#     4  12  22  40  59  85 120 159 203 256 310 356
#     4  10  20  35  60  89 123 158 190 235 297 370
#     4  11  20  38  58  89 123 149 193 246 299 350
#     4  11  23  38  61  88 115 156 206 249 295 358
#     4  12  24  40  59  82 119 170 212 245 297 371
#     4  12  24  36  57  88 117 149 195 256 308 345
#
# _framework density 20.079879999999999
#
# number of rings (size 3 to 8) (size 9 to 14) (size 15 to 20)
#    0.000    0.727    6.364    2.727    0.000    1.455 
#    0.000    1.818    0.000    1.636    0.000    0.000 
#    0.000    0.000    0.000    0.000    0.000    0.000 
#
# Total GULP energy -245544.653619 kJ/mol
# GULP energy per Si atom -5580.560310 kJ/mol
# Density = 2.003418 g / cm^3
# Si number density = 20.079880 Si / 1000 Ang^3
#
#
#
# Elastic Constant Matrix: (Units=GPa)
#
#
# Indices 1 2 3 4 5 6 
#
# 1 111.3502 14.2803 12.9912 0.0000 0.0000 0.0000
# 2 14.2803 35.9240 -9.6757 0.0000 0.0000 0.0000
# 3 12.9912 -9.6757 111.3883 0.0000 0.0000 0.0000
# 4 0.0000 0.0000 0.0000 20.8082 0.0000 0.0000
# 5 0.0000 0.0000 0.0000 0.0000 24.5876 0.0000
# 6 0.0000 0.0000 0.0000 0.0000 0.0000 23.6075
#
#
#
# Elastic Compliance Matrix: (Units=1/GPa)
#
#
# Indices 1 2 3 4 5 6 
#
# 1 0.009702 -0.004261 -0.001502 0.000000 0.000000 0.000000
# 2 -0.004261 0.030375 0.003136 0.000000 0.000000 0.000000
# 3 -0.001502 0.003136 0.009425 0.000000 0.000000 0.000000
# 4 0.000000 0.000000 0.000000 0.048058 0.000000 0.000000
# 5 0.000000 0.000000 0.000000 0.000000 0.040671 0.000000
# 6 0.000000 0.000000 0.000000 0.000000 0.000000 0.042359
#
#
# Mechanical properties :
#
#
# Convention : Reuss Voigt Hill
#
# Bulk Modulus (GPa) = 22.60021 32.65047 27.62534
# Shear Modulus (GPa) = 24.92585 29.87178 27.39882
#
# Velocity S-wave (km/s) = 3.52708 3.86119 3.69791
# Velocity P-wave (km/s) = 5.27889 6.01448 5.65865
#
# Compressibility (1/GPa) = 0.04424738
#
# Stress axis : x y z
#
# Youngs Moduli (GPa) = 103.06745 32.92181 106.09953
#
# Poissons Ratio (x) = 0.14029 0.15933
# Poissons Ratio (y) = 0.43920 -0.33268
# Poissons Ratio (z) = 0.15478 -0.10323
#
# Static dielectric constant tensor:
#      x y z
#    x 1.779280 0.000000 0.000000 
#    y 0.000000 1.681020 0.000000 
#    z 0.000000 0.000000 1.763880 
# 
# From -- ./inp_files/30156.got.cif
#   From: 2010.05.17/outbox.cif.g08.bks.cpg/sg63_16_cif.got.tgz:30156.got - 2010.06.03 15:47:04.
