data_PCOD9472024
_publ_section_title
;
Structure prediction by ZEFSAII (Michael W. Deem and Ramdas Pophale) SiO2 
 PCOD9472024
Probable space group: C M C M
;
_chemical_formula_sum "Si O2"
_cell_formula_units_Z 96
_cell_length_a 18.132101
_cell_length_b 15.365341
_cell_length_c 15.211866
_cell_angle_alpha 90.000000
_cell_angle_beta 90.000000
_cell_angle_gamma 90.000000
_cell_volume 4238.115844
_symmetry_space_group_name_H-M "C M C M"
_symmetry_group_IT_number 63
_symmetry_cell_setting 'orthorhombic'
loop_
_space_group_symop_operation_xyz
x,y,z
-x,-y,1/2+z
x,-y,-z
-x,y,1/2-z
-x,-y,-z
x,y,1/2-z
-x,y,z
x,-y,1/2+z
1/2+x,1/2+y,z
1/2-x,1/2-y,1/2+z
1/2+x,1/2-y,-z
1/2-x,1/2+y,1/2-z
1/2-x,1/2-y,-z
1/2+x,1/2+y,1/2-z
1/2-x,1/2+y,z
1/2+x,1/2-y,1/2+z
loop_
_atom_site_type_symbol
_atom_site_label
_atom_site_fract_x
_atom_site_fract_y
_atom_site_fract_z
Si Si1 0.419320 0.691105 0.889042
Si Si2 0.716785 0.185917 0.149765
Si Si3 0.119457 0.004760 0.601084
Si Si4 0.377732 0.312003 0.592894
Si Si5 0.287215 0.012627 0.854849
Si Si6 0.420487 0.125286 0.647106
O O1 0.500000 0.727027 0.866158
O O2 0.349894 0.747161 0.858158
O O3 0.414485 0.590933 0.857585
O O4 0.409901 0.688649 0.994745
O O5 0.745627 0.190455 0.250000
O O6 0.788859 0.199724 0.090390
O O7 0.689170 0.087627 0.134655
O O8 0.094376 0.000000 0.500000
O O9 0.107756 0.906872 0.635692
O O10 0.207320 0.022244 0.602457
O O11 0.409862 0.228448 0.640733
O O12 0.276499 0.028840 0.750000
O O13 0.349315 0.076854 0.891172
O O14 0.421859 0.100707 0.750000
O O15 0.500000 0.101648 0.607759
#
# Coordination Sequence:
#
# PCOD9472024 Si02
#       6
#    16  16  16  16  16  16
#     4  11  23  37  56  84 117 150 181 222 280 337
#     4  10  21  38  60  83 108 144 189 232 273 322
#     4   9  20  36  56  78 104 141 183 224 268 322
#     4  10  20  37  58  80 108 145 189 231 269 320
#     4   9  19  36  57  79 105 140 183 228 272 322
#     4  10  20  33  52  79 109 142 179 224 279 330
#
# _framework density 22.651575999999999
#
# number of rings (size 3 to 8) (size 9 to 14) (size 15 to 20)
#    0.000    2.167    0.000    2.500    0.000   10.000 
#    0.000    1.667    0.000    2.500    0.000    0.000 
#    0.000    0.000    0.000    0.000    0.000    0.000 
#
# Total GULP energy -268091.773588 kJ/mol
# GULP energy per Si atom -5585.245283 kJ/mol
# Density = 2.260002 g / cm^3
# Si number density = 22.651576 Si / 1000 Ang^3
#
#
#
# Elastic Constant Matrix: (Units=GPa)
#
#
# Indices 1 2 3 4 5 6 
#
# 1 97.3201 39.1531 5.5488 0.0000 0.0000 0.0000
# 2 39.1531 63.6382 0.5170 0.0000 0.0000 0.0000
# 3 5.5488 0.5170 38.4808 0.0000 0.0000 0.0000
# 4 0.0000 0.0000 0.0000 10.9012 0.0000 0.0000
# 5 0.0000 0.0000 0.0000 0.0000 -11.9830 0.0000
# 6 0.0000 0.0000 0.0000 0.0000 0.0000 -24.9433
#
#
#
# Elastic Compliance Matrix: (Units=1/GPa)
#
#
# Indices 1 2 3 4 5 6 
#
# 1 0.013789 -0.008469 -0.001875 0.000000 0.000000 0.000000
# 2 -0.008469 0.020916 0.000940 0.000000 0.000000 0.000000
# 3 -0.001875 0.000940 0.026245 0.000000 0.000000 0.000000
# 4 0.000000 0.000000 0.000000 0.091733 0.000000 0.000000
# 5 0.000000 0.000000 0.000000 0.000000 -0.083451 0.000000
# 6 0.000000 0.000000 0.000000 0.000000 0.000000 -0.040091
#
#
# Mechanical properties :
#
#
# Convention : Reuss Voigt Hill
#
# Bulk Modulus (GPa) = 23.72800 32.20854 27.96827
# Shear Modulus (GPa) = 80.65090 5.07631 42.86360
#
# Velocity S-wave (km/s) = 5.97346 1.49863 4.35478
# Velocity P-wave (km/s) = 7.62065 4.15265 6.13673
#
# Compressibility (1/GPa) = 0.04214431
#
# Stress axis : x y z
#
# Youngs Moduli (GPa) = 72.52026 47.80934 38.10302
#
# Poissons Ratio (x) = 0.40488 0.07143
# Poissons Ratio (y) = 0.61414 -0.03582
# Poissons Ratio (z) = 0.13595 -0.04495
#
# Static dielectric constant tensor:
#      x y z
#    x 1.861030 0.000000 0.000000 
#    y 0.000000 1.845020 0.000000 
#    z 0.000000 0.000000 1.847580 
# 
# From -- ./inp_files/54142.got.cif
#   From: 2010.05.17/outbox.cif.g08.bks.cpg/sg63_28_cif.got.tgz:54142.got - 2010.06.03 15:47:04.
