data_PCOD9472923
_publ_section_title
;
Structure prediction by ZEFSAII (Michael W. Deem and Ramdas Pophale) SiO2 
 PCOD9472923
Probable space group: C M C M
;
_chemical_formula_sum "Si O2"
_cell_formula_units_Z 88
_cell_length_a 23.970421
_cell_length_b 11.694912
_cell_length_c 14.995187
_cell_angle_alpha 90.000000
_cell_angle_beta 90.000000
_cell_angle_gamma 90.000000
_cell_volume 4203.630225
_symmetry_space_group_name_H-M "C M C M"
_symmetry_group_IT_number 63
_symmetry_cell_setting 'orthorhombic'
loop_
_space_group_symop_operation_xyz
x,y,z
-x,-y,1/2+z
x,-y,-z
-x,y,1/2-z
-x,-y,-z
x,y,1/2-z
-x,y,z
x,-y,1/2+z
1/2+x,1/2+y,z
1/2-x,1/2-y,1/2+z
1/2+x,1/2-y,-z
1/2-x,1/2+y,1/2-z
1/2-x,1/2-y,-z
1/2+x,1/2+y,1/2-z
1/2-x,1/2+y,z
1/2+x,1/2-y,1/2+z
loop_
_atom_site_type_symbol
_atom_site_label
_atom_site_fract_x
_atom_site_fract_y
_atom_site_fract_z
Si Si1 0.364714 0.908410 0.250000
Si Si2 0.500000 0.363771 0.347765
Si Si3 0.387994 0.245718 0.100291
Si Si4 0.810334 0.338659 0.750000
Si Si5 0.000000 0.135308 0.149152
Si Si6 0.822003 0.154523 0.250000
Si Si7 0.934604 0.499846 0.400496
Si Si8 0.117878 0.883795 0.562274
O O1 0.333074 0.790428 0.250000
O O2 0.332153 0.029396 0.250000
O O3 0.403754 0.914761 0.336183
O O4 0.500000 0.309622 0.250000
O O5 0.560075 0.332956 0.388360
O O6 0.500000 0.498975 0.340995
O O7 0.336024 0.232328 0.166903
O O8 0.421647 0.129745 0.124007
O O9 0.363974 0.280446 0.003666
O O10 0.744400 0.354125 0.750000
O O11 0.055891 0.155146 0.093462
O O12 0.000000 0.185227 0.250000
O O13 0.848910 0.105316 0.157129
O O14 0.912054 0.500000 0.500000
O O15 0.000000 0.475651 0.400567
O O16 0.120524 0.000000 0.500000
#
# Coordination Sequence:
#
# PCOD9472923 Si02
#       8
#     8   8  16   8   8   8  16  16
#     4  10  23  46  64  88 132 167 210 276 332 388
#     4  11  19  33  66  98 133 173 211 282 338 407
#     4  11  21  38  66  97 129 175 225 277 335 402
#     4  10  26  46  71  95 129 178 237 287 330 397
#     4  11  22  42  62 101 148 182 215 285 355 414
#     4  12  28  50  67  97 133 184 229 287 348 399
#     4  10  20  35  59  93 126 166 208 253 318 398
#     4  12  25  42  68 102 144 180 229 282 347 419
#
# _framework density 20.934284999999999
#
# number of rings (size 3 to 8) (size 9 to 14) (size 15 to 20)
#    0.000    1.091    4.545    2.182    0.000    2.909 
#    3.273    3.636    0.000    0.000    0.000    0.000 
#    0.000    0.000    0.000    0.000    0.000    0.000 
#
# Total GULP energy -245130.874297 kJ/mol
# GULP energy per Si atom -5571.156234 kJ/mol
# Density = 2.088664 g / cm^3
# Si number density = 20.934285 Si / 1000 Ang^3
#
#
#
# Elastic Constant Matrix: (Units=GPa)
#
#
# Indices 1 2 3 4 5 6 
#
# 1 100.9541 14.3770 74.9773 0.0000 0.0000 0.0000
# 2 14.3770 65.5389 29.7509 0.0000 0.0000 0.0000
# 3 74.9773 29.7509 166.9847 0.0000 0.0000 0.0000
# 4 0.0000 0.0000 0.0000 31.6142 0.0000 0.0000
# 5 0.0000 0.0000 0.0000 0.0000 1.7298 0.0000
# 6 0.0000 0.0000 0.0000 0.0000 0.0000 21.1074
#
#
#
# Elastic Compliance Matrix: (Units=1/GPa)
#
#
# Indices 1 2 3 4 5 6 
#
# 1 0.014865 -0.000251 -0.006630 0.000000 0.000000 0.000000
# 2 -0.000251 0.016605 -0.002846 0.000000 0.000000 0.000000
# 3 -0.006630 -0.002846 0.009472 0.000000 0.000000 0.000000
# 4 0.000000 0.000000 0.000000 0.031631 0.000000 0.000000
# 5 0.000000 0.000000 0.000000 0.000000 0.578097 0.000000
# 6 0.000000 0.000000 0.000000 0.000000 0.000000 0.047377
#
#
# Mechanical properties :
#
#
# Convention : Reuss Voigt Hill
#
# Bulk Modulus (GPa) = 46.53528 63.52089 55.02808
# Shear Modulus (GPa) = 6.89975 25.18177 16.04076
#
# Velocity S-wave (km/s) = 1.81743 3.47204 2.77111
# Velocity P-wave (km/s) = 5.16542 6.81779 6.04830
#
# Compressibility (1/GPa) = 0.02148907
#
# Stress axis : x y z
#
# Youngs Moduli (GPa) = 67.27151 60.22293 105.57024
#
# Poissons Ratio (x) = 0.01514 0.69991
# Poissons Ratio (y) = 0.01691 0.30041
# Poissons Ratio (z) = 0.44599 0.17137
#
# Static dielectric constant tensor:
#      x y z
#    x 1.801680 0.000000 0.000000 
#    y 0.000000 1.978350 0.000000 
#    z 0.000000 0.000000 1.822750 
# 
# From -- ./inp_files/36651.got.cif
#   From: 2010.05.17/outbox.cif.g08.bks.cpg/sg63_19_cif.got.tgz:36651.got - 2010.06.03 15:47:04.
