data_PCOD9472298
_publ_section_title
;
Structure prediction by ZEFSAII (Michael W. Deem and Ramdas Pophale) SiO2 
 PCOD9472298
Probable space group: C M C M
;
_chemical_formula_sum "Si O2"
_cell_formula_units_Z 96
_cell_length_a 7.645954
_cell_length_b 30.969027
_cell_length_c 19.966022
_cell_angle_alpha 90.000000
_cell_angle_beta 90.000000
_cell_angle_gamma 90.000000
_cell_volume 4727.709543
_symmetry_space_group_name_H-M "C M C M"
_symmetry_group_IT_number 63
_symmetry_cell_setting 'orthorhombic'
loop_
_space_group_symop_operation_xyz
x,y,z
-x,-y,1/2+z
x,-y,-z
-x,y,1/2-z
-x,-y,-z
x,y,1/2-z
-x,y,z
x,-y,1/2+z
1/2+x,1/2+y,z
1/2-x,1/2-y,1/2+z
1/2+x,1/2-y,-z
1/2-x,1/2+y,1/2-z
1/2-x,1/2-y,-z
1/2+x,1/2+y,1/2-z
1/2-x,1/2+y,z
1/2+x,1/2-y,1/2+z
loop_
_atom_site_type_symbol
_atom_site_label
_atom_site_fract_x
_atom_site_fract_y
_atom_site_fract_z
Si Si1 0.709962 0.862243 0.586672
Si Si2 0.289319 0.782582 0.673628
Si Si3 0.709592 0.184147 0.674159
Si Si4 0.709759 0.881758 0.062538
Si Si5 0.710670 0.518296 0.928579
Si Si6 0.789257 0.053404 0.326017
O O1 0.500000 0.858204 0.581671
O O2 0.776709 0.819078 0.623078
O O3 0.778288 0.870490 0.511729
O O4 0.746585 0.903379 0.633224
O O5 0.225566 0.789812 0.750000
O O6 0.500000 0.785735 0.675459
O O7 0.244450 0.733669 0.654246
O O8 0.778343 0.177997 0.750000
O O9 0.500000 0.178866 0.677382
O O10 0.778134 0.150248 0.619922
O O11 0.500000 0.876327 0.060324
O O12 0.744405 0.931677 0.078355
O O13 0.500000 0.515092 0.929583
O O14 0.774782 0.487584 0.868867
O O15 0.775167 0.500000 0.000000
O O16 0.722570 0.054727 0.250000
O O17 0.000000 0.050509 0.322853
#
# Coordination Sequence:
#
# PCOD9472298 Si02
#       6
#    16  16  16  16  16  16
#     4  10  20  34  53  78 108 138 172 214 260 311
#     4   9  18  33  52  74 102 136 172 212 260 311
#     4   9  19  36  54  74 104 139 175 217 262 308
#     4  10  21  35  54  79 105 137 176 216 260 311
#     4  10  20  36  55  75 103 138 173 211 260 311
#     4  10  21  36  54  78 106 136 174 217 259 309
#
# _framework density 20.305817000000001
#
# number of rings (size 3 to 8) (size 9 to 14) (size 15 to 20)
#    0.000    2.333    1.667    0.500    0.000    4.667 
#    0.000    1.667    0.000    0.000    0.000    0.000 
#    0.000    0.000    0.000    0.000    0.000    0.000 
#
# Total GULP energy -268020.403552 kJ/mol
# GULP energy per Si atom -5583.758407 kJ/mol
# Density = 2.025960 g / cm^3
# Si number density = 20.305817 Si / 1000 Ang^3
#
#
#
# Elastic Constant Matrix: (Units=GPa)
#
#
# Indices 1 2 3 4 5 6 
#
# 1 37.8005 -4.2025 7.6941 0.0000 0.0000 0.0000
# 2 -4.2025 209.7851 147.1858 0.0000 0.0000 0.0000
# 3 7.6941 147.1858 189.0058 0.0000 0.0000 0.0000
# 4 0.0000 0.0000 0.0000 41.2000 0.0000 0.0000
# 5 0.0000 0.0000 0.0000 0.0000 12.2039 0.0000
# 6 0.0000 0.0000 0.0000 0.0000 0.0000 41.6961
#
#
#
# Elastic Compliance Matrix: (Units=1/GPa)
#
#
# Indices 1 2 3 4 5 6 
#
# 1 0.027476 0.002943 -0.003410 0.000000 0.000000 0.000000
# 2 0.002943 0.010823 -0.008548 0.000000 0.000000 0.000000
# 3 -0.003410 -0.008548 0.012087 0.000000 0.000000 0.000000
# 4 0.000000 0.000000 0.000000 0.024272 0.000000 0.000000
# 5 0.000000 0.000000 0.000000 0.000000 0.081941 0.000000
# 6 0.000000 0.000000 0.000000 0.000000 0.000000 0.023983
#
#
# Mechanical properties :
#
#
# Convention : Reuss Voigt Hill
#
# Bulk Modulus (GPa) = 30.90738 81.99403 56.45070
# Shear Modulus (GPa) = 23.87803 38.08093 30.97948
#
# Velocity S-wave (km/s) = 3.43289 4.33525 3.91019
# Velocity P-wave (km/s) = 5.56480 8.09484 6.94599
#
# Compressibility (1/GPa) = 0.03235473
#
# Stress axis : x y z
#
# Youngs Moduli (GPa) = 36.39533 92.39402 82.73688
#
# Poissons Ratio (x) = -0.27194 0.28217
# Poissons Ratio (y) = -0.10712 0.70726
# Poissons Ratio (z) = 0.12413 0.78981
#
# Static dielectric constant tensor:
#      x y z
#    x 1.760530 0.000000 0.000000 
#    y 0.000000 1.670480 0.000000 
#    z 0.000000 0.000000 1.728510 
# 
# From -- ./inp_files/51319.got.cif
#   From: 2010.05.17/outbox.cif.g08.bks.cpg/sg63_26_cif.got.tgz:51319.got - 2010.06.03 15:47:04.
