data_PCOD9472857
_publ_section_title
;
Structure prediction by ZEFSAII (Michael W. Deem and Ramdas Pophale) SiO2 
 PCOD9472857
Probable space group: C M C M
;
_chemical_formula_sum "Si O2"
_cell_formula_units_Z 64
_cell_length_a 8.637766
_cell_length_b 23.144108
_cell_length_c 16.498162
_cell_angle_alpha 90.000000
_cell_angle_beta 90.000000
_cell_angle_gamma 90.000000
_cell_volume 3298.203481
_symmetry_space_group_name_H-M "C M C M"
_symmetry_group_IT_number 63
_symmetry_cell_setting 'orthorhombic'
loop_
_space_group_symop_operation_xyz
x,y,z
-x,-y,1/2+z
x,-y,-z
-x,y,1/2-z
-x,-y,-z
x,y,1/2-z
-x,y,z
x,-y,1/2+z
1/2+x,1/2+y,z
1/2-x,1/2-y,1/2+z
1/2+x,1/2-y,-z
1/2-x,1/2+y,1/2-z
1/2-x,1/2-y,-z
1/2+x,1/2+y,1/2-z
1/2-x,1/2+y,z
1/2+x,1/2-y,1/2+z
loop_
_atom_site_type_symbol
_atom_site_label
_atom_site_fract_x
_atom_site_fract_y
_atom_site_fract_z
Si Si1 0.682879 0.580572 0.934932
Si Si2 0.818506 0.534184 0.399663
Si Si3 0.319139 0.740910 0.250000
Si Si4 0.813436 0.214510 0.921799
Si Si5 0.679782 0.881590 0.750000
O O1 0.500000 0.578003 0.919862
O O2 0.766504 0.531396 0.881769
O O3 0.733474 0.646887 0.926797
O O4 0.721703 0.559396 0.025584
O O5 0.796972 0.577606 0.326506
O O6 0.000000 0.534021 0.420980
O O7 0.500000 0.755654 0.250000
O O8 0.244051 0.762928 0.334302
O O9 0.291948 0.672353 0.250000
O O10 0.000000 0.217979 0.924562
O O11 0.750000 0.250000 0.000000
O O12 0.500000 0.860764 0.750000
#
# Coordination Sequence:
#
# PCOD9472857 Si02
#       5
#    16  16   8  16   8
#     4  10  21  37  57  83 114 149 191 237 289 348
#     4  10  20  35  58  85 113 148 187 234 291 348
#     4  12  26  41  62  91 121 160 206 250 301 362
#     4  11  24  42  64  90 123 163 204 250 303 357
#     4  10  22  39  58  83 115 148 188 240 293 348
#
# _framework density 19.404503999999999
#
# number of rings (size 3 to 8) (size 9 to 14) (size 15 to 20)
#    0.000    1.500    0.000    6.375    0.000   11.000 
#    0.000    2.500    0.000    0.000    0.000    0.000 
#    0.000    0.000    0.000    0.000    0.000    0.000 
#
# Total GULP energy -178660.796106 kJ/mol
# GULP energy per Si atom -5583.149878 kJ/mol
# Density = 1.936034 g / cm^3
# Si number density = 19.404504 Si / 1000 Ang^3
#
#
#
# Elastic Constant Matrix: (Units=GPa)
#
#
# Indices 1 2 3 4 5 6 
#
# 1 40.9032 27.2982 18.9159 0.0000 0.0000 0.0000
# 2 27.2982 145.4470 51.0551 0.0000 0.0000 0.0000
# 3 18.9159 51.0551 100.6027 0.0000 0.0000 0.0000
# 4 0.0000 0.0000 0.0000 32.3341 0.0000 0.0000
# 5 0.0000 0.0000 0.0000 0.0000 15.0254 0.0000
# 6 0.0000 0.0000 0.0000 0.0000 0.0000**********
#
#
#
# Elastic Compliance Matrix: (Units=1/GPa)
#
#
# Indices 1 2 3 4 5 6 
#
# 1 0.028797 -0.004264 -0.003251 0.000000 0.000000 0.000000
# 2 -0.004264 0.008997 -0.003764 0.000000 0.000000 0.000000
# 3 -0.003251 -0.003764 0.012462 0.000000 0.000000 0.000000
# 4 0.000000 0.000000 0.000000 0.030927 0.000000 0.000000
# 5 0.000000 0.000000 0.000000 0.000000 0.066554 0.000000
# 6 0.000000 0.000000 0.000000 0.000000 0.000000 -0.000076
#
#
# Mechanical properties :
#
#
# Convention : Reuss Voigt Hill
#
# Bulk Modulus (GPa) = 36.10354 53.49904 44.80129
# Shear Modulus (GPa) = 27.86285 -2619.05755 -1295.59735
#
# Velocity S-wave (km/s) = 3.79343 -36.77834 -25.86751
# Velocity P-wave (km/s) = 6.15085 42.14141 29.47936
#
# Compressibility (1/GPa) = 0.02769812
#
# Stress axis : x y z
#
# Youngs Moduli (GPa) = 34.72608 111.14964 80.24643
#
# Poissons Ratio (x) = 0.47390 0.26086
# Poissons Ratio (y) = 0.14806 0.30206
# Poissons Ratio (z) = 0.11289 0.41839
#
# Static dielectric constant tensor:
#      x y z
#    x 1.666430 0.000000 0.000000 
#    y 0.000000 1.687040 0.000000 
#    z 0.000000 0.000000 1.666490 
# 
# From -- ./inp_files/27586.got.cif
#   From: 2010.05.17/outbox.cif.g08.bks.cpg/sg63_14_cif.got.tgz:27586.got - 2010.06.03 15:47:04.
