data_PCOD9472984
_publ_section_title
;
Structure prediction by ZEFSAII (Michael W. Deem and Ramdas Pophale) SiO2 
 PCOD9472984
Probable space group: C M C M
;
_chemical_formula_sum "Si O2"
_cell_formula_units_Z 88
_cell_length_a 15.833433
_cell_length_b 13.276238
_cell_length_c 22.201116
_cell_angle_alpha 90.000000
_cell_angle_beta 90.000000
_cell_angle_gamma 90.000000
_cell_volume 4666.861625
_symmetry_space_group_name_H-M "C M C M"
_symmetry_group_IT_number 63
_symmetry_cell_setting 'orthorhombic'
loop_
_space_group_symop_operation_xyz
x,y,z
-x,-y,1/2+z
x,-y,-z
-x,y,1/2-z
-x,-y,-z
x,y,1/2-z
-x,y,z
x,-y,1/2+z
1/2+x,1/2+y,z
1/2-x,1/2-y,1/2+z
1/2+x,1/2-y,-z
1/2-x,1/2+y,1/2-z
1/2-x,1/2-y,-z
1/2+x,1/2+y,1/2-z
1/2-x,1/2+y,z
1/2+x,1/2-y,1/2+z
loop_
_atom_site_type_symbol
_atom_site_label
_atom_site_fract_x
_atom_site_fract_y
_atom_site_fract_z
Si Si1 0.000000 0.626585 0.061951
Si Si2 0.822432 0.511839 0.315238
Si Si3 0.000000 0.560398 0.851874
Si Si4 0.000000 0.271691 0.441299
Si Si5 0.194858 0.926913 0.410307
Si Si6 0.331052 0.787314 0.620050
Si Si7 0.832040 0.139395 0.047004
O O1 0.000000 0.518137 0.092303
O O2 0.085145 0.679836 0.084789
O O3 0.000000 0.640893 0.991199
O O4 0.782370 0.490176 0.250000
O O5 0.915823 0.466678 0.316456
O O6 0.777204 0.463546 0.373722
O O7 0.825703 0.632542 0.325678
O O8 0.000000 0.673215 0.877172
O O9 0.084328 0.206572 0.451728
O O10 0.161449 0.832544 0.371743
O O11 0.199893 0.885047 0.479008
O O12 0.146840 0.032604 0.420635
O O13 0.245399 0.808425 0.582080
#
# Coordination Sequence:
#
# PCOD9472984 Si02
#       7
#     8  16   8   8  16  16  16
#     4  10  21  32  55  84 116 154 190 219 291 359
#     4  10  22  38  58  82 109 151 205 248 290 342
#     4  10  22  36  55  83 115 151 195 249 294 349
#     4  12  21  35  57  88 122 159 181 232 300 360
#     4  10  20  36  55  82 115 153 185 235 289 345
#     4  10  20  37  55  83 119 150 189 240 284 352
#     4  10  22  34  56  87 123 151 189 233 291 365
#
# _framework density 18.856355000000001
#
# number of rings (size 3 to 8) (size 9 to 14) (size 15 to 20)
#    0.000    1.818    1.818    2.182    2.545    2.909 
#    0.000    0.000    0.000    1.091    0.000   10.818 
#    0.000    0.000    0.000    0.000    0.000    0.000 
#
# Total GULP energy -244987.176170 kJ/mol
# GULP energy per Si atom -5567.890368 kJ/mol
# Density = 1.881344 g / cm^3
# Si number density = 18.856355 Si / 1000 Ang^3
#
#
#
# Elastic Constant Matrix: (Units=GPa)
#
#
# Indices 1 2 3 4 5 6 
#
# 1 86.0550 19.0121 39.3677 0.0000 0.0000 0.0000
# 2 19.0121 105.5883 34.2677 0.0000 0.0000 0.0000
# 3 39.3677 34.2677 77.4957 0.0000 0.0000 0.0000
# 4 0.0000 0.0000 0.0000 4.6164 0.0000 0.0000
# 5 0.0000 0.0000 0.0000 0.0000 9.1270 0.0000
# 6 0.0000 0.0000 0.0000 0.0000 0.0000 62.6426
#
#
#
# Elastic Compliance Matrix: (Units=1/GPa)
#
#
# Indices 1 2 3 4 5 6 
#
# 1 0.015145 -0.000269 -0.007575 0.000000 0.000000 0.000000
# 2 -0.000269 0.011062 -0.004755 0.000000 0.000000 0.000000
# 3 -0.007575 -0.004755 0.018855 0.000000 0.000000 0.000000
# 4 0.000000 0.000000 0.000000 0.216617 0.000000 0.000000
# 5 0.000000 0.000000 0.000000 0.000000 0.109566 0.000000
# 6 0.000000 0.000000 0.000000 0.000000 0.000000 0.015964
#
#
# Mechanical properties :
#
#
# Convention : Reuss Voigt Hill
#
# Bulk Modulus (GPa) = 50.34058 50.49269 50.41663
# Shear Modulus (GPa) = 11.93240 27.04329 19.48785
#
# Velocity S-wave (km/s) = 2.51829 3.79116 3.21828
# Velocity P-wave (km/s) = 5.93385 6.78229 6.37221
#
# Compressibility (1/GPa) = 0.01986469
#
# Stress axis : x y z
#
# Youngs Moduli (GPa) = 66.02773 90.39657 53.03719
#
# Poissons Ratio (x) = 0.02428 0.40175
# Poissons Ratio (y) = 0.01774 0.25220
# Poissons Ratio (z) = 0.50016 0.42985
#
# Static dielectric constant tensor:
#      x y z
#    x 1.628150 0.000000 0.000000 
#    y 0.000000 1.691830 0.000000 
#    z 0.000000 0.000000 1.663710 
# 
# From -- ./inp_files/54118.got.cif
#   From: 2010.05.17/outbox.cif.g08.bks.cpg/sg63_28_cif.got.tgz:54118.got - 2010.06.03 15:47:04.
