data_PCOD9472227
_publ_section_title
;
Structure prediction by ZEFSAII (Michael W. Deem and Ramdas Pophale) SiO2 
 PCOD9472227
Probable space group: C M C M
;
_chemical_formula_sum "Si O2"
_cell_formula_units_Z 128
_cell_length_a 13.392143
_cell_length_b 22.910528
_cell_length_c 24.095383
_cell_angle_alpha 90.000000
_cell_angle_beta 90.000000
_cell_angle_gamma 90.000000
_cell_volume 7392.971126
_symmetry_space_group_name_H-M "C M C M"
_symmetry_group_IT_number 63
_symmetry_cell_setting 'orthorhombic'
loop_
_space_group_symop_operation_xyz
x,y,z
-x,-y,1/2+z
x,-y,-z
-x,y,1/2-z
-x,-y,-z
x,y,1/2-z
-x,y,z
x,-y,1/2+z
1/2+x,1/2+y,z
1/2-x,1/2-y,1/2+z
1/2+x,1/2-y,-z
1/2-x,1/2+y,1/2-z
1/2-x,1/2-y,-z
1/2+x,1/2+y,1/2-z
1/2-x,1/2+y,z
1/2+x,1/2-y,1/2+z
loop_
_atom_site_type_symbol
_atom_site_label
_atom_site_fract_x
_atom_site_fract_y
_atom_site_fract_z
Si Si1 0.115963 0.850214 0.934724
Si Si2 0.229101 0.569577 0.112422
Si Si3 0.270899 0.930423 0.112422
Si Si4 0.884037 0.149786 0.934724
Si Si5 0.250000 0.750000 0.885205
Si Si6 0.617819 0.159573 0.183923
Si Si7 0.887425 0.570647 0.000000
Si Si8 0.882181 0.340427 0.316077
O O1 0.162849 0.901906 0.897665
O O2 0.182791 0.793719 0.921364
O O3 0.000000 0.839774 0.921831
O O4 0.123203 0.865041 0.000000
O O5 0.231965 0.500000 0.117268
O O6 0.170471 0.600528 0.162179
O O7 0.169325 0.586835 0.056085
O O8 0.162849 0.901906 0.102335
O O9 0.329529 0.899472 0.162179
O O10 0.330674 0.913165 0.056085
O O11 0.817209 0.206281 0.921364
O O12 0.000000 0.160226 0.921831
O O13 0.323579 0.788790 0.847317
O O14 0.176421 0.711210 0.847317
O O15 0.627681 0.165375 0.250000
O O16 0.500000 0.159392 0.170050
O O17 0.000000 0.593618 1.000000
O O18 0.891495 0.500000 0.000000
O O19 0.872319 0.334625 0.250000
O O20 0.000000 0.340608 0.329950
#
# Coordination Sequence:
#
# PCOD9472227 Si02
#       8
#    16  16  16  16  16  16  16  16
#     4  10  20  34  54  80 110 142 177 217 264 320
#     4  10  20  34  52  77 109 140 176 217 262 315
#     4  10  20  34  52  77 109 140 176 217 262 315
#     4  10  20  34  54  80 110 142 177 217 264 320
#     4  10  20  36  56  78 106 139 179 222 274 316
#     4  10  21  36  55  79 106 140 182 225 268 314
#     4   9  16  28  47  70  99 134 168 205 252 306
#     4  10  21  36  55  79 106 140 182 225 268 314
#
# _framework density 17.313742000000001
#
# number of rings (size 3 to 8) (size 9 to 14) (size 15 to 20)
#    0.000    2.125    1.250    2.250    0.000    2.500 
#    0.000    2.500    0.000    6.750    0.000    7.000 
#    0.000    0.000    0.000    0.000    0.000    0.000 
#
# Total GULP energy -357035.738994 kJ/mol
# GULP energy per Si atom -5578.683422 kJ/mol
# Density = 1.727434 g / cm^3
# Si number density = 17.313742 Si / 1000 Ang^3
#
#
#
# Elastic Constant Matrix: (Units=GPa)
#
#
# Indices 1 2 3 4 5 6 
#
# 1 130.0067 39.7827 28.2774 0.0000 0.0000 0.0000
# 2 39.7827 87.4431 7.1139 0.0000 0.0000 0.0000
# 3 28.2774 7.1139 38.0617 0.0000 0.0000 0.0000
# 4 0.0000 0.0000 0.0000 18.3449 0.0000 0.0000
# 5 0.0000 0.0000 0.0000 0.0000 27.7468 0.0000
# 6 0.0000 0.0000 0.0000 0.0000 0.0000 17.9851
#
#
#
# Elastic Compliance Matrix: (Units=1/GPa)
#
#
# Indices 1 2 3 4 5 6 
#
# 1 0.010507 -0.004209 -0.007019 0.000000 0.000000 0.000000
# 2 -0.004209 0.013299 0.000641 0.000000 0.000000 0.000000
# 3 -0.007019 0.000641 0.031368 0.000000 0.000000 0.000000
# 4 0.000000 0.000000 0.000000 0.054511 0.000000 0.000000
# 5 0.000000 0.000000 0.000000 0.000000 0.036040 0.000000
# 6 0.000000 0.000000 0.000000 0.000000 0.000000 0.055602
#
#
# Mechanical properties :
#
#
# Convention : Reuss Voigt Hill
#
# Bulk Modulus (GPa) = 29.41173 45.09551 37.25362
# Shear Modulus (GPa) = 21.38280 24.83785 23.11032
#
# Velocity S-wave (km/s) = 3.51810 3.79169 3.65745
# Velocity P-wave (km/s) = 5.79025 6.72843 6.27690
#
# Compressibility (1/GPa) = 0.03400004
#
# Stress axis : x y z
#
# Youngs Moduli (GPa) = 95.17840 75.19513 31.87966
#
# Poissons Ratio (x) = 0.31650 0.22376
# Poissons Ratio (y) = 0.40061 -0.02045
# Poissons Ratio (z) = 0.66806 -0.04823
#
# Static dielectric constant tensor:
#      x y z
#    x 1.591820 0.000000 0.000000 
#    y 0.000000 1.579460 0.000000 
#    z 0.000000 0.000000 1.562620 
# 
# From -- ./inp_files/62028.got.cif
#   From: 2010.05.17/outbox.cif.g08.bks.cpg/sg63_32_cif.got.tgz:62028.got - 2010.06.03 15:47:04.
