data_PCOD9472159
_publ_section_title
;
Structure prediction by ZEFSAII (Michael W. Deem and Ramdas Pophale) SiO2 
 PCOD9472159
Probable space group: C M C M
;
_chemical_formula_sum "Si O2"
_cell_formula_units_Z 104
_cell_length_a 32.453478
_cell_length_b 21.211837
_cell_length_c 8.705630
_cell_angle_alpha 90.000000
_cell_angle_beta 90.000000
_cell_angle_gamma 90.000000
_cell_volume 5992.937283
_symmetry_space_group_name_H-M "C M C M"
_symmetry_group_IT_number 63
_symmetry_cell_setting 'orthorhombic'
loop_
_space_group_symop_operation_xyz
x,y,z
-x,-y,1/2+z
x,-y,-z
-x,y,1/2-z
-x,-y,-z
x,y,1/2-z
-x,y,z
x,-y,1/2+z
1/2+x,1/2+y,z
1/2-x,1/2-y,1/2+z
1/2+x,1/2-y,-z
1/2-x,1/2+y,1/2-z
1/2-x,1/2-y,-z
1/2+x,1/2+y,1/2-z
1/2-x,1/2+y,z
1/2+x,1/2-y,1/2+z
loop_
_atom_site_type_symbol
_atom_site_label
_atom_site_fract_x
_atom_site_fract_y
_atom_site_fract_z
Si Si1 0.341404 0.180180 0.929591
Si Si2 0.287176 0.932137 0.933575
Si Si3 0.454918 0.299453 0.065419
Si Si4 0.437739 0.163681 0.570352
Si Si5 0.362277 0.684241 0.564452
Si Si6 0.304856 0.566632 0.934711
Si Si7 0.000000 0.568702 0.067932
O O1 0.329857 0.183305 0.750000
O O2 0.388756 0.158036 0.941828
O O3 0.313342 0.128293 0.012449
O O4 0.343163 0.251015 0.998071
O O5 0.286892 0.936061 0.750000
O O6 0.240690 0.924078 0.996289
O O7 0.302193 0.000000 0.000000
O O8 0.455178 0.304632 0.250000
O O9 0.500000 0.324007 0.010658
O O10 0.410105 0.325059 0.012430
O O11 0.452070 0.226541 0.016539
O O12 0.448358 0.169393 0.750000
O O13 0.460629 0.105699 0.495279
O O14 0.362720 0.690157 0.750000
O O15 0.334463 0.624462 0.523386
O O16 0.301855 0.563159 0.750000
O O17 0.320460 0.500000 0.000000
O O18 0.000000 0.568306 0.250000
O O19 0.000000 0.500000 0.000000
#
# Coordination Sequence:
#
# PCOD9472159 Si02
#       7
#    16  16  16  16  16  16   8
#     4  10  21  36  55  80 109 140 175 220 269 317
#     4  11  22  37  57  78 104 140 181 223 267 323
#     4   9  16  29  52  78 103 134 170 209 256 310
#     4  10  20  34  51  72 100 131 167 212 260 308
#     4   9  19  34  53  81 111 140 178 221 268 318
#     4  10  20  36  57  79 107 141 178 221 266 322
#     4  12  24  36  50  68  94 132 175 218 261 308
#
# _framework density 17.353760999999999
#
# number of rings (size 3 to 8) (size 9 to 14) (size 15 to 20)
#    0.000    2.000    0.769    4.385    0.000    4.308 
#    0.000    0.000    0.000    0.462    0.000    0.000 
#    0.000    0.000    0.000    0.000    0.000    0.615 
#
# Total GULP energy -289996.710279 kJ/mol
# GULP energy per Si atom -5576.859813 kJ/mol
# Density = 1.731426 g / cm^3
# Si number density = 17.353761 Si / 1000 Ang^3
#
#
#
# Elastic Constant Matrix: (Units=GPa)
#
#
# Indices 1 2 3 4 5 6 
#
# 1 94.7225 76.9132 37.6293 0.0000 0.0000 0.0000
# 2 76.9132 126.4301 46.9007 0.0000 0.0000 0.0000
# 3 37.6293 46.9007 56.3699 0.0000 0.0000 0.0000
# 4 0.0000 0.0000 0.0000 26.0375 0.0000 0.0000
# 5 0.0000 0.0000 0.0000 0.0000 3.7164 0.0000
# 6 0.0000 0.0000 0.0000 0.0000 0.0000 44.7172
#
#
#
# Elastic Compliance Matrix: (Units=1/GPa)
#
#
# Indices 1 2 3 4 5 6 
#
# 1 0.021830 -0.011390 -0.005096 0.000000 0.000000 0.000000
# 2 -0.011390 0.017383 -0.006860 0.000000 0.000000 0.000000
# 3 -0.005096 -0.006860 0.026849 0.000000 0.000000 0.000000
# 4 0.000000 0.000000 0.000000 0.038406 0.000000 0.000000
# 5 0.000000 0.000000 0.000000 0.000000 0.269079 0.000000
# 6 0.000000 0.000000 0.000000 0.000000 0.000000 0.022363
#
#
# Mechanical properties :
#
#
# Convention : Reuss Voigt Hill
#
# Bulk Modulus (GPa) = 51.62322 66.71209 59.16766
# Shear Modulus (GPa) = 11.13442 22.63284 16.88363
#
# Velocity S-wave (km/s) = 2.53576 3.61529 3.12253
# Velocity P-wave (km/s) = 6.19561 7.48018 6.86799
#
# Compressibility (1/GPa) = 0.01937113
#
# Stress axis : x y z
#
# Youngs Moduli (GPa) = 45.80909 57.52697 37.24491
#
# Poissons Ratio (x) = 0.65521 0.18980
# Poissons Ratio (y) = 0.52175 0.25550
# Poissons Ratio (z) = 0.23344 0.39464
#
# Static dielectric constant tensor:
#      x y z
#    x 1.616940 0.000000 0.000000 
#    y 0.000000 1.554420 0.000000 
#    z 0.000000 0.000000 1.586710 
# 
# From -- ./inp_files/14471.got.cif
#   From: 2010.05.17/outbox.cif.g08.bks.cpg/sg63_8_cif.got.tgz:14471.got - 2010.06.03 15:47:04.
