data_PCOD9472302
_publ_section_title
;
Structure prediction by ZEFSAII (Michael W. Deem and Ramdas Pophale) SiO2 
 PCOD9472302
Probable space group: C M C M
;
_chemical_formula_sum "Si O2"
_cell_formula_units_Z 84
_cell_length_a 12.533421
_cell_length_b 30.569435
_cell_length_c 12.302005
_cell_angle_alpha 90.000000
_cell_angle_beta 90.000000
_cell_angle_gamma 90.000000
_cell_volume 4713.385258
_symmetry_space_group_name_H-M "C M C M"
_symmetry_group_IT_number 63
_symmetry_cell_setting 'orthorhombic'
loop_
_space_group_symop_operation_xyz
x,y,z
-x,-y,1/2+z
x,-y,-z
-x,y,1/2-z
-x,-y,-z
x,y,1/2-z
-x,y,z
x,-y,1/2+z
1/2+x,1/2+y,z
1/2-x,1/2-y,1/2+z
1/2+x,1/2-y,-z
1/2-x,1/2+y,1/2-z
1/2-x,1/2-y,-z
1/2+x,1/2+y,1/2-z
1/2-x,1/2+y,z
1/2+x,1/2-y,1/2+z
loop_
_atom_site_type_symbol
_atom_site_label
_atom_site_fract_x
_atom_site_fract_y
_atom_site_fract_z
Si Si1 0.830945 0.451821 0.549854
Si Si2 0.000000 0.552703 0.250000
Si Si3 0.785506 0.820219 0.998938
Si Si4 0.878156 0.096174 0.120512
Si Si5 0.879085 0.376958 0.375313
Si Si6 0.378951 0.239169 0.122647
O O1 0.837255 0.500000 0.500000
O O2 0.710749 0.438414 0.583011
O O3 0.866501 0.417424 0.457169
O O4 0.907100 0.447479 0.653924
O O5 0.850794 0.858577 0.940991
O O6 0.706109 0.796955 0.913770
O O7 0.708622 0.841752 0.089334
O O8 0.856490 0.782591 0.052923
O O9 0.868429 0.102817 0.250000
O O10 0.000000 0.083054 0.096618
O O11 0.864085 0.390401 0.250000
O O12 0.000000 0.359525 0.385871
O O13 0.366872 0.248871 0.250000
O O14 0.500000 0.223625 0.104259
#
# Coordination Sequence:
#
# PCOD9472302 Si02
#       6
#    16   4  16  16  16  16
#     4  11  24  38  61  88 118 153 189 239 286 342
#     4  12  22  40  60  92 120 150 188 240 284 352
#     4  10  20  35  54  80 109 146 191 236 287 345
#     4  10  21  39  60  83 113 151 194 239 287 342
#     4  10  21  35  54  81 115 150 187 235 293 349
#     4  10  20  34  53  78 109 145 187 238 291 343
#
# _framework density 17.821586
#
# number of rings (size 3 to 8) (size 9 to 14) (size 15 to 20)
#    0.000    1.714    1.905    2.571    1.333    0.381 
#    0.000    0.000    0.000   14.286    0.000    0.000 
#    0.000    0.000    0.000    0.000    0.000    0.000 
#
# Total GULP energy -233922.755716 kJ/mol
# GULP energy per Si atom -5569.589422 kJ/mol
# Density = 1.778102 g / cm^3
# Si number density = 17.821586 Si / 1000 Ang^3
#
#
#
# Elastic Constant Matrix: (Units=GPa)
#
#
# Indices 1 2 3 4 5 6 
#
# 1 111.4693 2.6204 34.8529 0.0000 0.0000 0.0000
# 2 2.6204 24.1671 -1.5567 0.0000 0.0000 0.0000
# 3 34.8529 -1.5567 90.2798 0.0000 0.0000 0.0000
# 4 0.0000 0.0000 0.0000 6.8035 0.0000 0.0000
# 5 0.0000 0.0000 0.0000 0.0000 28.1384 0.0000
# 6 0.0000 0.0000 0.0000 0.0000 0.0000 -11.2861
#
#
#
# Elastic Compliance Matrix: (Units=1/GPa)
#
#
# Indices 1 2 3 4 5 6 
#
# 1 0.010248 -0.001367 -0.003980 0.000000 0.000000 0.000000
# 2 -0.001367 0.041607 0.001245 0.000000 0.000000 0.000000
# 3 -0.003980 0.001245 0.012635 0.000000 0.000000 0.000000
# 4 0.000000 0.000000 0.000000 0.146983 0.000000 0.000000
# 5 0.000000 0.000000 0.000000 0.000000 0.035539 0.000000
# 6 0.000000 0.000000 0.000000 0.000000 0.000000 -0.088605
#
#
# Mechanical properties :
#
#
# Convention : Reuss Voigt Hill
#
# Bulk Modulus (GPa) = 17.76656 33.08329 25.42493
# Shear Modulus (GPa) = 26.97281 17.39779 22.18530
#
# Velocity S-wave (km/s) = 3.89458 3.12784 3.53208
# Velocity P-wave (km/s) = 5.49677 5.62569 5.56160
#
# Compressibility (1/GPa) = 0.05628551
#
# Stress axis : x y z
#
# Youngs Moduli (GPa) = 97.58426 24.03435 79.14821
#
# Poissons Ratio (x) = 0.03287 0.31499
# Poissons Ratio (y) = 0.13344 -0.09857
# Poissons Ratio (z) = 0.38836 -0.02993
#
# Static dielectric constant tensor:
#      x y z
#    x 1.605800 0.000000 0.000000 
#    y 0.000000 1.593890 0.000000 
#    z 0.000000 0.000000 1.581700 
# 
# From -- ./inp_files/17990.got.cif
#   From: 2010.05.17/outbox.cif.g08.bks.cpg/sg63_9_cif.got.tgz:17990.got - 2010.06.03 15:47:04.
