data_PCOD9472647
_publ_section_title
;
Structure prediction by ZEFSAII (Michael W. Deem and Ramdas Pophale) SiO2 
 PCOD9472647
Probable space group: C M C M
;
_chemical_formula_sum "Si O2"
_cell_formula_units_Z 112
_cell_length_a 22.801159
_cell_length_b 13.814924
_cell_length_c 14.532092
_cell_angle_alpha 90.000000
_cell_angle_beta 90.000000
_cell_angle_gamma 90.000000
_cell_volume 4577.554902
_symmetry_space_group_name_H-M "C M C M"
_symmetry_group_IT_number 63
_symmetry_cell_setting 'orthorhombic'
loop_
_space_group_symop_operation_xyz
x,y,z
-x,-y,1/2+z
x,-y,-z
-x,y,1/2-z
-x,-y,-z
x,y,1/2-z
-x,y,z
x,-y,1/2+z
1/2+x,1/2+y,z
1/2-x,1/2-y,1/2+z
1/2+x,1/2-y,-z
1/2-x,1/2+y,1/2-z
1/2-x,1/2-y,-z
1/2+x,1/2+y,1/2-z
1/2-x,1/2+y,z
1/2+x,1/2-y,1/2+z
loop_
_atom_site_type_symbol
_atom_site_label
_atom_site_fract_x
_atom_site_fract_y
_atom_site_fract_z
Si Si1 0.569429 0.856918 0.522555
Si Si2 0.430119 0.333557 0.144314
Si Si3 0.260702 0.755056 0.860472
Si Si4 0.124169 0.249875 0.361432
Si Si5 0.771475 0.957927 0.101139
Si Si6 0.661101 0.061291 0.355691
Si Si7 0.109184 0.036512 0.353019
O O1 0.500000 0.874528 0.522867
O O2 0.582869 0.759912 0.583372
O O3 0.592488 0.831301 0.421028
O O4 0.606022 0.937334 0.577683
O O5 0.405868 0.324054 0.250000
O O6 0.500000 0.336358 0.151928
O O7 0.411714 0.437038 0.101440
O O8 0.261710 0.752664 0.750000
O O9 0.192704 0.756486 0.888073
O O10 0.287375 0.654502 0.894987
O O11 0.297167 0.849267 0.887526
O O12 0.119988 0.261738 0.250000
O O13 0.097370 0.144243 0.386809
O O14 0.706028 0.971738 0.139866
O O15 0.820561 0.020741 0.152421
O O16 0.771564 0.000000 0.000000
O O17 0.643097 0.075435 0.250000
O O18 0.083854 0.032902 0.250000
#
# Coordination Sequence:
#
# PCOD9472647 Si02
#       7
#    16  16  16  16  16  16  16
#     4  11  24  39  60  88 119 159 211 259 309 376
#     4   9  19  35  55  82 117 158 204 253 302 361
#     4  10  21  39  62  89 122 162 204 254 311 373
#     4  10  22  39  59  83 122 164 205 255 310 373
#     4  12  24  34  59  94 126 162 201 254 313 379
#     4  11  23  41  65  93 129 166 205 260 319 375
#     4  10  20  35  54  82 121 163 204 246 301 373
#
# _framework density 24.467212
#
# number of rings (size 3 to 8) (size 9 to 14) (size 15 to 20)
#    0.000    1.571    1.429    3.429    4.000    5.143 
#    0.000    2.857    0.000    3.857    0.000    4.000 
#    0.000    0.000    0.000    0.000    0.000    0.000 
#
# Total GULP energy -313530.198643 kJ/mol
# GULP energy per Si atom -5598.753547 kJ/mol
# Density = 2.441152 g / cm^3
# Si number density = 24.467212 Si / 1000 Ang^3
#
#
#
# Elastic Constant Matrix: (Units=GPa)
#
#
# Indices 1 2 3 4 5 6 
#
# 1 95.6781 10.5500 28.6998 0.0000 0.0000 0.0000
# 2 10.5500 97.7755 16.3341 0.0000 0.0000 0.0000
# 3 28.6998 16.3341 103.5099 0.0000 0.0000 0.0000
# 4 0.0000 0.0000 0.0000 7.8964 0.0000 0.0000
# 5 0.0000 0.0000 0.0000 0.0000 25.0356 0.0000
# 6 0.0000 0.0000 0.0000 0.0000 0.0000 29.6215
#
#
#
# Elastic Compliance Matrix: (Units=1/GPa)
#
#
# Indices 1 2 3 4 5 6 
#
# 1 0.011450 -0.000724 -0.003060 0.000000 0.000000 0.000000
# 2 -0.000724 0.010550 -0.001464 0.000000 0.000000 0.000000
# 3 -0.003060 -0.001464 0.010740 0.000000 0.000000 0.000000
# 4 0.000000 0.000000 0.000000 0.126640 0.000000 0.000000
# 5 0.000000 0.000000 0.000000 0.000000 0.039943 0.000000
# 6 0.000000 0.000000 0.000000 0.000000 0.000000 0.033759
#
#
# Mechanical properties :
#
#
# Convention : Reuss Voigt Hill
#
# Bulk Modulus (GPa) = 44.95759 45.34792 45.15275
# Shear Modulus (GPa) = 19.92076 28.60268 24.26172
#
# Velocity S-wave (km/s) = 2.85648 3.42280 3.15239
# Velocity P-wave (km/s) = 5.41238 5.84766 5.63423
#
# Compressibility (1/GPa) = 0.02224319
#
# Stress axis : x y z
#
# Youngs Moduli (GPa) = 87.33980 94.78467 93.10587
#
# Poissons Ratio (x) = 0.06864 0.28493
# Poissons Ratio (y) = 0.06325 0.13631
# Poissons Ratio (z) = 0.26729 0.13877
#
# Static dielectric constant tensor:
#      x y z
#    x 1.927380 0.000000 0.000000 
#    y 0.000000 1.964040 0.000000 
#    z 0.000000 0.000000 1.943010 
# 
# From -- ./inp_files/36868.got.cif
#   From: 2010.05.17/outbox.cif.g08.bks.cpg/sg63_19_cif.got.tgz:36868.got - 2010.06.03 15:47:04.
