data_PCOD9472523
_publ_section_title
;
Structure prediction by ZEFSAII (Michael W. Deem and Ramdas Pophale) SiO2 
 PCOD9472523
Probable space group: C M C M
;
_chemical_formula_sum "Si O2"
_cell_formula_units_Z 96
_cell_length_a 14.384139
_cell_length_b 18.944631
_cell_length_c 15.050258
_cell_angle_alpha 90.000000
_cell_angle_beta 90.000000
_cell_angle_gamma 90.000000
_cell_volume 4101.228500
_symmetry_space_group_name_H-M "C M C M"
_symmetry_group_IT_number 63
_symmetry_cell_setting 'orthorhombic'
loop_
_space_group_symop_operation_xyz
x,y,z
-x,-y,1/2+z
x,-y,-z
-x,y,1/2-z
-x,-y,-z
x,y,1/2-z
-x,y,z
x,-y,1/2+z
1/2+x,1/2+y,z
1/2-x,1/2-y,1/2+z
1/2+x,1/2-y,-z
1/2-x,1/2+y,1/2-z
1/2-x,1/2-y,-z
1/2+x,1/2+y,1/2-z
1/2-x,1/2+y,z
1/2+x,1/2-y,1/2+z
loop_
_atom_site_type_symbol
_atom_site_label
_atom_site_fract_x
_atom_site_fract_y
_atom_site_fract_z
Si Si1 0.101836 0.792072 0.885295
Si Si2 0.395898 0.007367 0.854014
Si Si3 0.197963 0.652762 0.905577
Si Si4 0.895533 0.999224 0.643253
Si Si5 0.255176 0.890105 0.599734
Si Si6 0.399800 0.337071 0.093555
O O1 0.121621 0.709212 0.878185
O O2 0.190409 0.834510 0.848437
O O3 0.000000 0.809105 0.849516
O O4 0.099898 0.812966 0.990665
O O5 0.404169 0.017885 0.750000
O O6 0.500000 0.008779 0.893540
O O7 0.332912 0.073107 0.884776
O O8 0.344567 0.932631 0.866918
O O9 0.297732 0.679456 0.868231
O O10 0.212306 0.649940 0.011543
O O11 0.873989 0.000757 0.750000
O O12 0.898565 0.078293 0.605977
O O13 0.000000 0.970182 0.632630
O O14 0.820694 0.953064 0.591625
O O15 0.500000 0.312622 0.131838
#
# Coordination Sequence:
#
# PCOD9472523 Si02
#       6
#    16  16  16  16  16  16
#     4  10  22  39  61  92 129 165 209 263 318 378
#     4  11  25  43  63  89 124 168 214 262 320 387
#     4  11  22  39  63  93 126 168 213 261 316 380
#     4  10  20  34  56  89 130 172 211 257 317 380
#     4  11  21  37  62  95 122 158 211 268 322 370
#     4   9  18  32  54  87 125 163 204 257 312 362
#
# _framework density 23.407620000000001
#
# number of rings (size 3 to 8) (size 9 to 14) (size 15 to 20)
#    0.000    1.667    1.667    4.000    2.333    2.667 
#    0.000    6.667    0.000   10.000    0.000    9.333 
#    0.000    0.000    0.000    0.000    0.000    0.000 
#
# Total GULP energy -267737.073726 kJ/mol
# GULP energy per Si atom -5577.855703 kJ/mol
# Density = 2.335434 g / cm^3
# Si number density = 23.407620 Si / 1000 Ang^3
#
#
#
# Elastic Constant Matrix: (Units=GPa)
#
#
# Indices 1 2 3 4 5 6 
#
# 1 155.3221 27.1052 14.0187 0.0000 0.0000 0.0000
# 2 27.1052 82.7009 5.5794 0.0000 0.0000 0.0000
# 3 14.0187 5.5794 59.1387 0.0000 0.0000 0.0000
# 4 0.0000 0.0000 0.0000 -73.5866 0.0000 0.0000
# 5 0.0000 0.0000 0.0000 0.0000 22.9358 0.0000
# 6 0.0000 0.0000 0.0000 0.0000 0.0000 -38.4642
#
#
#
# Elastic Compliance Matrix: (Units=1/GPa)
#
#
# Indices 1 2 3 4 5 6 
#
# 1 0.006949 -0.002180 -0.001442 0.000000 0.000000 0.000000
# 2 -0.002180 0.012853 -0.000696 0.000000 0.000000 0.000000
# 3 -0.001442 -0.000696 0.017317 0.000000 0.000000 0.000000
# 4 0.000000 0.000000 0.000000 -0.013589 0.000000 0.000000
# 5 0.000000 0.000000 0.000000 0.000000 0.043600 0.000000
# 6 0.000000 0.000000 0.000000 0.000000 0.000000 -0.025998
#
#
# Mechanical properties :
#
#
# Convention : Reuss Voigt Hill
#
# Bulk Modulus (GPa) = 35.10775 43.39648 39.25211
# Shear Modulus (GPa) = 84.37290 -1.12576 41.62357
#
# Velocity S-wave (km/s) = 6.01027 -0.69425 4.22145
# Velocity P-wave (km/s) = 7.94955 4.23522 6.36916
#
# Compressibility (1/GPa) = 0.02848374
#
# Stress axis : x y z
#
# Youngs Moduli (GPa) = 143.90956 77.80121 57.74757
#
# Poissons Ratio (x) = 0.16962 0.08324
# Poissons Ratio (y) = 0.31375 0.04018
# Poissons Ratio (z) = 0.20745 0.05413
#
# Static dielectric constant tensor:
#      x y z
#    x 2.006290 0.000000 0.000000 
#    y 0.000000 1.859410 0.000000 
#    z 0.000000 0.000000 1.865470 
# 
# From -- ./inp_files/31850.got.cif
#   From: 2010.05.17/outbox.cif.g08.bks.cpg/sg63_16_cif.got.tgz:31850.got - 2010.06.03 15:47:04.
