data_PCOD9472890
_publ_section_title
;
Structure prediction by ZEFSAII (Michael W. Deem and Ramdas Pophale) SiO2 
 PCOD9472890
Probable space group: C M C M
;
_chemical_formula_sum "Si O2"
_cell_formula_units_Z 96
_cell_length_a 15.769945
_cell_length_b 20.075593
_cell_length_c 17.574601
_cell_angle_alpha 90.000000
_cell_angle_beta 90.000000
_cell_angle_gamma 90.000000
_cell_volume 5563.960460
_symmetry_space_group_name_H-M "C M C M"
_symmetry_group_IT_number 63
_symmetry_cell_setting 'orthorhombic'
loop_
_space_group_symop_operation_xyz
x,y,z
-x,-y,1/2+z
x,-y,-z
-x,y,1/2-z
-x,-y,-z
x,y,1/2-z
-x,y,z
x,-y,1/2+z
1/2+x,1/2+y,z
1/2-x,1/2-y,1/2+z
1/2+x,1/2-y,-z
1/2-x,1/2+y,1/2-z
1/2-x,1/2-y,-z
1/2+x,1/2+y,1/2-z
1/2-x,1/2+y,z
1/2+x,1/2-y,1/2+z
loop_
_atom_site_type_symbol
_atom_site_label
_atom_site_fract_x
_atom_site_fract_y
_atom_site_fract_z
Si Si1 0.819128 0.198112 0.901634
Si Si2 0.402908 0.078406 0.518259
Si Si3 0.000000 0.159575 0.842256
Si Si4 0.752490 0.658300 0.062072
Si Si5 0.296154 0.083369 0.837604
Si Si6 0.174650 0.957862 0.659237
Si Si7 0.000000 0.010006 0.909265
O O1 0.780105 0.271796 0.901717
O O2 0.763819 0.146947 0.851826
O O3 0.914794 0.195316 0.871516
O O4 0.807536 0.172701 0.988914
O O5 0.500000 0.098374 0.504908
O O6 0.336146 0.121139 0.469911
O O7 0.374625 0.087611 0.605444
O O8 0.394687 0.000000 0.500000
O O9 0.000000 0.153766 0.750000
O O10 0.000000 0.086502 0.881014
O O11 0.707947 0.609049 0.120585
O O12 0.320987 0.078799 0.750000
O O13 0.239956 0.018304 0.857756
O O14 0.168762 0.951966 0.750000
O O15 0.084300 0.977222 0.624750
O O16 0.000000 0.000000 0.000000
#
# Coordination Sequence:
#
# PCOD9472890 Si02
#       7
#    16  16   8  16  16  16   8
#     4  10  22  37  59  86 116 156 197 239 292 357
#     4  10  20  35  59  83 112 147 194 244 282 334
#     4  12  22  36  60  92 127 154 194 247 301 359
#     4  10  22  40  59  85 114 157 200 240 292 350
#     4  10  20  36  59  84 114 150 189 238 295 350
#     4  11  22  37  58  86 119 151 191 241 296 355
#     4  12  24  36  62  92 120 154 196 248 294 353
#
# _framework density 17.253896999999998
#
# number of rings (size 3 to 8) (size 9 to 14) (size 15 to 20)
#    0.000    1.500    3.333    2.250    3.500    1.667 
#    0.000    0.000    1.833    0.000    0.000    0.000 
#    0.000    0.000    0.000    0.000    0.000    0.000 
#
# Total GULP energy -268061.207192 kJ/mol
# GULP energy per Si atom -5584.608483 kJ/mol
# Density = 1.721463 g / cm^3
# Si number density = 17.253897 Si / 1000 Ang^3
#
#
#
# Elastic Constant Matrix: (Units=GPa)
#
#
# Indices 1 2 3 4 5 6 
#
# 1 56.6962 8.0183 31.2777 0.0000 0.0000 0.0000
# 2 8.0183 89.6493 30.0564 0.0000 0.0000 0.0000
# 3 31.2777 30.0564 71.4609 0.0000 0.0000 0.0000
# 4 0.0000 0.0000 0.0000 22.7611 0.0000 0.0000
# 5 0.0000 0.0000 0.0000 0.0000 17.0231 0.0000
# 6 0.0000 0.0000 0.0000 0.0000 0.0000 9.9804
#
#
#
# Elastic Compliance Matrix: (Units=1/GPa)
#
#
# Indices 1 2 3 4 5 6 
#
# 1 0.023439 0.001564 -0.010917 0.000000 0.000000 0.000000
# 2 0.001564 0.013090 -0.006190 0.000000 0.000000 0.000000
# 3 -0.010917 -0.006190 0.021375 0.000000 0.000000 0.000000
# 4 0.000000 0.000000 0.000000 0.043935 0.000000 0.000000
# 5 0.000000 0.000000 0.000000 0.000000 0.058744 0.000000
# 6 0.000000 0.000000 0.000000 0.000000 0.000000 0.100196
#
#
# Mechanical properties :
#
#
# Convention : Reuss Voigt Hill
#
# Bulk Modulus (GPa) = 37.28809 39.61235 38.45022
# Shear Modulus (GPa) = 16.62209 19.84987 18.23598
#
# Velocity S-wave (km/s) = 3.10721 3.39552 3.25456
# Velocity P-wave (km/s) = 5.87633 6.19525 6.03790
#
# Compressibility (1/GPa) = 0.02681822
#
# Stress axis : x y z
#
# Youngs Moduli (GPa) = 42.66362 76.39399 46.78294
#
# Poissons Ratio (x) = -0.11945 0.51072
# Poissons Ratio (y) = -0.06671 0.28959
# Poissons Ratio (z) = 0.46575 0.47288
#
# Static dielectric constant tensor:
#      x y z
#    x 1.562610 0.000000 0.000000 
#    y 0.000000 1.570270 0.000000 
#    z 0.000000 0.000000 1.574900 
# 
# From -- ./inp_files/31987.got.cif
#   From: 2010.05.17/outbox.cif.g08.bks.cpg/sg63_16_cif.got.tgz:31987.got - 2010.06.03 15:47:04.
