data_PCOD9472663
_publ_section_title
;
Structure prediction by ZEFSAII (Michael W. Deem and Ramdas Pophale) SiO2 
 PCOD9472663
Probable space group: C M C M
;
_chemical_formula_sum "Si O2"
_cell_formula_units_Z 80
_cell_length_a 7.532051
_cell_length_b 14.216115
_cell_length_c 31.426434
_cell_angle_alpha 90.000000
_cell_angle_beta 90.000000
_cell_angle_gamma 90.000000
_cell_volume 3365.032661
_symmetry_space_group_name_H-M "C M C M"
_symmetry_group_IT_number 63
_symmetry_cell_setting 'orthorhombic'
loop_
_space_group_symop_operation_xyz
x,y,z
-x,-y,1/2+z
x,-y,-z
-x,y,1/2-z
-x,-y,-z
x,y,1/2-z
-x,y,z
x,-y,1/2+z
1/2+x,1/2+y,z
1/2-x,1/2-y,1/2+z
1/2+x,1/2-y,-z
1/2-x,1/2+y,1/2-z
1/2-x,1/2-y,-z
1/2+x,1/2+y,1/2-z
1/2-x,1/2+y,z
1/2+x,1/2-y,1/2+z
loop_
_atom_site_type_symbol
_atom_site_label
_atom_site_fract_x
_atom_site_fract_y
_atom_site_fract_z
Si Si1 0.796360 0.108391 0.034971
Si Si2 0.781315 0.915571 0.873431
Si Si3 0.788933 0.701999 0.643970
Si Si4 0.211160 0.174638 0.550941
Si Si5 0.293023 0.456124 0.297166
O O1 0.717125 0.066535 0.078265
O O2 0.794742 0.221756 0.044423
O O3 0.000000 0.075469 0.033458
O O4 0.722946 0.106114 0.986829
O O5 0.729244 0.809192 0.861361
O O6 0.000000 0.919540 0.875158
O O7 0.716733 0.982147 0.835700
O O8 0.738638 0.649307 0.600019
O O9 0.717015 0.649482 0.685076
O O10 0.000000 0.702522 0.646871
O O11 0.000000 0.184479 0.544471
O O12 0.215900 0.466336 0.250000
O O13 0.500000 0.482636 0.294367
#
# Coordination Sequence:
#
# PCOD9472663 Si02
#       5
#    16  16  16  16  16
#     4   8  14  26  46  73 104 139 176 211 251 303
#     4   8  16  33  55  76 101 136 175 210 249 305
#     4  10  20  35  55  78 106 139 173 209 254 311
#     4   9  15  25  46  75 105 137 173 212 253 299
#     4  10  21  37  56  77 100 128 168 218 265 308
#
# _framework density 23.773914000000001
#
# number of rings (size 3 to 8) (size 9 to 14) (size 15 to 20)
#    0.000    3.000    0.000    2.400    0.000    2.000 
#    0.000    8.000    0.000    6.000    0.000    0.000 
#    0.000    0.000    0.000    0.000    0.000    0.000 
#
# Total GULP energy -223298.781373 kJ/mol
# GULP energy per Si atom -5582.469534 kJ/mol
# Density = 2.371980 g / cm^3
# Si number density = 23.773914 Si / 1000 Ang^3
#
#
#
# Elastic Constant Matrix: (Units=GPa)
#
#
# Indices 1 2 3 4 5 6 
#
# 1 69.8336 -1.2646 6.6196 0.0000 0.0000 0.0000
# 2 -1.2646 71.5849 55.1968 0.0000 0.0000 0.0000
# 3 6.6196 55.1968 219.0485 0.0000 0.0000 0.0000
# 4 0.0000 0.0000 0.0000 26.4273 0.0000 0.0000
# 5 0.0000 0.0000 0.0000 0.0000 14.9398 0.0000
# 6 0.0000 0.0000 0.0000 0.0000 0.0000 8.5602
#
#
#
# Elastic Compliance Matrix: (Units=1/GPa)
#
#
# Indices 1 2 3 4 5 6 
#
# 1 0.014392 0.000732 -0.000619 0.000000 0.000000 0.000000
# 2 0.000732 0.017375 -0.004400 0.000000 0.000000 0.000000
# 3 -0.000619 -0.004400 0.005693 0.000000 0.000000 0.000000
# 4 0.000000 0.000000 0.000000 0.037840 0.000000 0.000000
# 5 0.000000 0.000000 0.000000 0.000000 0.066935 0.000000
# 6 0.000000 0.000000 0.000000 0.000000 0.000000 0.116820
#
#
# Mechanical properties :
#
#
# Convention : Reuss Voigt Hill
#
# Bulk Modulus (GPa) = 34.62136 53.50784 44.06460
# Shear Modulus (GPa) = 18.03370 29.97980 24.00675
#
# Velocity S-wave (km/s) = 2.75717 3.55496 3.18117
# Velocity P-wave (km/s) = 4.97296 6.27743 5.66288
#
# Compressibility (1/GPa) = 0.02888390
#
# Stress axis : x y z
#
# Youngs Moduli (GPa) = 69.48442 57.55268 175.66185
#
# Poissons Ratio (x) = -0.04212 0.10879
# Poissons Ratio (y) = -0.05085 0.77299
# Poissons Ratio (z) = 0.04303 0.25326
#
# Static dielectric constant tensor:
#      x y z
#    x 1.907140 0.000000 0.000000 
#    y 0.000000 1.936650 0.000000 
#    z 0.000000 0.000000 1.924740 
# 
# From -- ./inp_files/71594.got.cif
#   From: 2010.05.17/outbox.cif.g08.bks.cpg/sg63_36_cif.got.tgz:71594.got - 2010.06.03 15:47:04.
