data_PCOD9472140
_publ_section_title
;
Structure prediction by ZEFSAII (Michael W. Deem and Ramdas Pophale) SiO2 
 PCOD9472140
Probable space group: C M C M
;
_chemical_formula_sum "Si O2"
_cell_formula_units_Z 80
_cell_length_a 23.918738
_cell_length_b 23.365937
_cell_length_c 9.957414
_cell_angle_alpha 90.000000
_cell_angle_beta 90.000000
_cell_angle_gamma 90.000000
_cell_volume 5565.036630
_symmetry_space_group_name_H-M "C M C M"
_symmetry_group_IT_number 63
_symmetry_cell_setting 'orthorhombic'
loop_
_space_group_symop_operation_xyz
x,y,z
-x,-y,1/2+z
x,-y,-z
-x,y,1/2-z
-x,-y,-z
x,y,1/2-z
-x,y,z
x,-y,1/2+z
1/2+x,1/2+y,z
1/2-x,1/2-y,1/2+z
1/2+x,1/2-y,-z
1/2-x,1/2+y,1/2-z
1/2-x,1/2-y,-z
1/2+x,1/2+y,1/2-z
1/2-x,1/2+y,z
1/2+x,1/2-y,1/2+z
loop_
_atom_site_type_symbol
_atom_site_label
_atom_site_fract_x
_atom_site_fract_y
_atom_site_fract_z
Si Si1 0.619309 0.212548 0.907964
Si Si2 0.326370 0.000000 0.500000
Si Si3 0.715620 0.296626 0.587555
Si Si4 0.906148 0.512445 0.250000
Si Si5 0.500000 0.084913 0.750000
Si Si6 0.000000 0.677858 0.985407
Si Si7 0.500000 0.893467 0.750000
Si Si8 0.717432 0.878487 0.412617
O O1 0.609882 0.204736 0.750000
O O2 0.653025 0.271803 0.926146
O O3 0.661680 0.160104 0.945380
O O4 0.558406 0.211116 0.972236
O O5 0.366901 0.015048 0.377941
O O6 0.292809 0.944156 0.451749
O O7 0.728267 0.297481 0.750000
O O8 0.750000 0.250000 0.500000
O O9 0.733461 0.353590 0.508026
O O10 0.945322 0.455758 0.250000
O O11 0.947100 0.565524 0.250000
O O12 0.500000 0.126967 0.624113
O O13 0.000000 0.646203 0.123841
O O14 0.726861 0.872172 0.250000
#
# Coordination Sequence:
#
# PCOD9472140 Si02
#       8
#    16   8  16   8   4   8   4  16
#     4   9  17  32  51  68  89 122 163 198 241 293
#     4  12  22  33  50  68  96 127 168 214 246 284
#     4   9  18  32  51  72  91 119 157 201 249 298
#     4  11  22  34  44  64  92 132 172 207 238 274
#     4  11  20  32  52  58  86 138 172 197 238 280
#     4  12  20  33  48  68  94 127 162 208 242 281
#     4  11  24  32  40  66  98 126 172 205 238 272
#     4  10  20  34  48  69  95 126 165 201 246 294
#
# _framework density 14.375468
#
# number of rings (size 3 to 8) (size 9 to 14) (size 15 to 20)
#    0.000    1.800    2.000    5.400    1.400    1.600 
#    9.000    0.000    0.000    0.000    0.000    0.000 
#    0.000    0.800    0.000    1.100    0.000    0.900 
#
# Total GULP energy -222702.129426 kJ/mol
# GULP energy per Si atom -5567.553236 kJ/mol
# Density = 1.434275 g / cm^3
# Si number density = 14.375468 Si / 1000 Ang^3
#
#
#
# Elastic Constant Matrix: (Units=GPa)
#
#
# Indices 1 2 3 4 5 6 
#
# 1 85.9706 53.8087 50.0632 0.0000 0.0000 0.0000
# 2 53.8087 73.5577 39.5658 0.0000 0.0000 0.0000
# 3 50.0632 39.5658 115.3704 0.0000 0.0000 0.0000
# 4 0.0000 0.0000 0.0000 24.6308 0.0000 0.0000
# 5 0.0000 0.0000 0.0000 0.0000 25.1474 0.0000
# 6 0.0000 0.0000 0.0000 0.0000 0.0000 1223.7166
#
#
#
# Elastic Compliance Matrix: (Units=1/GPa)
#
#
# Indices 1 2 3 4 5 6 
#
# 1 0.023885 -0.014588 -0.005361 0.000000 0.000000 0.000000
# 2 -0.014588 0.025580 -0.002442 0.000000 0.000000 0.000000
# 3 -0.005361 -0.002442 0.011832 0.000000 0.000000 0.000000
# 4 0.000000 0.000000 0.000000 0.040600 0.000000 0.000000
# 5 0.000000 0.000000 0.000000 0.000000 0.039766 0.000000
# 6 0.000000 0.000000 0.000000 0.000000 0.000000 0.000817
#
#
# Mechanical properties :
#
#
# Convention : Reuss Voigt Hill
#
# Bulk Modulus (GPa) = 60.55935 62.41935 61.48935
# Shear Modulus (GPa) = 25.93806 263.46300 144.70053
#
# Velocity S-wave (km/s) = 4.25235 13.55251 10.04373
# Velocity P-wave (km/s) = 8.14422 16.98261 13.31798
#
# Compressibility (1/GPa) = 0.01651273
#
# Stress axis : x y z
#
# Youngs Moduli (GPa) = 41.86772 39.09308 84.51804
#
# Poissons Ratio (x) = 0.57030 0.45314
# Poissons Ratio (y) = 0.61078 0.20641
# Poissons Ratio (z) = 0.22447 0.09547
#
# Static dielectric constant tensor:
#      x y z
#    x 1.537070 0.000000 0.000000 
#    y 0.000000 1.492620 0.000000 
#    z 0.000000 0.000000 1.472690 
# 
# From -- ./inp_files/10397.got.cif
#   From: 2010.05.17/outbox.cif.g08.bks.cpg/sg63_6_cif.got.tgz:10397.got - 2010.06.03 15:47:04.
