data_PCOD9472534
_publ_section_title
;
Structure prediction by ZEFSAII (Michael W. Deem and Ramdas Pophale) SiO2 
 PCOD9472534
Probable space group: C M C M
;
_chemical_formula_sum "Si O2"
_cell_formula_units_Z 80
_cell_length_a 8.134748
_cell_length_b 15.845621
_cell_length_c 29.521267
_cell_angle_alpha 90.000000
_cell_angle_beta 90.000000
_cell_angle_gamma 90.000000
_cell_volume 3805.295264
_symmetry_space_group_name_H-M "C M C M"
_symmetry_group_IT_number 63
_symmetry_cell_setting 'orthorhombic'
loop_
_space_group_symop_operation_xyz
x,y,z
-x,-y,1/2+z
x,-y,-z
-x,y,1/2-z
-x,-y,-z
x,y,1/2-z
-x,y,z
x,-y,1/2+z
1/2+x,1/2+y,z
1/2-x,1/2-y,1/2+z
1/2+x,1/2-y,-z
1/2-x,1/2+y,1/2-z
1/2-x,1/2-y,-z
1/2+x,1/2+y,1/2-z
1/2-x,1/2+y,z
1/2+x,1/2-y,1/2+z
loop_
_atom_site_type_symbol
_atom_site_label
_atom_site_fract_x
_atom_site_fract_y
_atom_site_fract_z
Si Si1 0.192470 0.842290 0.056930
Si Si2 0.699740 0.080359 0.364941
Si Si3 0.809641 0.602591 0.652626
Si Si4 0.304633 0.769641 0.800723
Si Si5 0.695860 0.347977 0.543450
O O1 0.291870 0.876218 0.099398
O O2 0.216215 0.740967 0.054114
O O3 0.000000 0.860953 0.064508
O O4 0.243150 0.875490 0.007331
O O5 0.500000 0.080458 0.366651
O O6 0.759299 0.160752 0.336090
O O7 0.762666 0.089038 0.416162
O O8 0.753098 0.992706 0.342294
O O9 0.722341 0.676282 0.680100
O O10 0.000000 0.604748 0.665827
O O11 0.236536 0.778428 0.750000
O O12 0.500000 0.784000 0.798379
O O13 0.500000 0.332352 0.542376
#
# Coordination Sequence:
#
# PCOD9472534 Si02
#       5
#    16  16  16  16  16
#     4  10  20  35  56  84 121 161 197 238 292 346
#     4  10  22  39  60  87 121 158 194 239 294 351
#     4  11  23  38  60  91 121 154 199 244 288 345
#     4  10  22  42  65  86 113 153 196 242 301 358
#     4  10  20  34  57  87 118 156 201 243 285 344
#
# _framework density 21.023336
#
# number of rings (size 3 to 8) (size 9 to 14) (size 15 to 20)
#    0.000    1.800    2.000    1.800    0.000    6.000 
#    0.000    6.000    0.000    0.000    0.000    0.000 
#    0.000    0.000    0.000    0.000    0.000    0.000 
#
# Total GULP energy -223477.395625 kJ/mol
# GULP energy per Si atom -5586.934891 kJ/mol
# Density = 2.097549 g / cm^3
# Si number density = 21.023336 Si / 1000 Ang^3
#
#
#
# Elastic Constant Matrix: (Units=GPa)
#
#
# Indices 1 2 3 4 5 6 
#
# 1 15.4237 -5.0905 -0.5848 0.0000 0.0000 0.0000
# 2 -5.0905 43.5029 -0.8093 0.0000 0.0000 0.0000
# 3 -0.5848 -0.8093 71.4158 0.0000 0.0000 0.0000
# 4 0.0000 0.0000 0.0000 2.6019 0.0000 0.0000
# 5 0.0000 0.0000 0.0000 0.0000 15.4514 0.0000
# 6 0.0000 0.0000 0.0000 0.0000 0.0000 21.5735
#
#
#
# Elastic Compliance Matrix: (Units=1/GPa)
#
#
# Indices 1 2 3 4 5 6 
#
# 1 0.067469 0.007907 0.000642 0.000000 0.000000 0.000000
# 2 0.007907 0.023918 0.000336 0.000000 0.000000 0.000000
# 3 0.000642 0.000336 0.014012 0.000000 0.000000 0.000000
# 4 0.000000 0.000000 0.000000 0.384334 0.000000 0.000000
# 5 0.000000 0.000000 0.000000 0.000000 0.064719 0.000000
# 6 0.000000 0.000000 0.000000 0.000000 0.000000 0.046353
#
#
# Mechanical properties :
#
#
# Convention : Reuss Voigt Hill
#
# Bulk Modulus (GPa) = 8.11894 13.04146 10.58020
# Shear Modulus (GPa) = 8.01164 17.04715 12.52939
#
# Velocity S-wave (km/s) = 1.95425 2.85066 2.44391
# Velocity P-wave (km/s) = 2.99373 4.12939 3.60654
#
# Compressibility (1/GPa) = 0.12316882
#
# Stress axis : x y z
#
# Youngs Moduli (GPa) = 14.82156 41.80873 71.36958
#
# Poissons Ratio (x) = -0.33058 -0.04582
# Poissons Ratio (y) = -0.11719 -0.02397
# Poissons Ratio (z) = -0.00952 -0.01404
#
# Static dielectric constant tensor:
#      x y z
#    x 1.740450 0.000000 0.000000 
#    y 0.000000 1.760730 0.000000 
#    z 0.000000 0.000000 1.751070 
# 
# From -- ./inp_files/71602.got.cif
#   From: 2010.05.17/outbox.cif.g08.bks.cpg/sg63_36_cif.got.tgz:71602.got - 2010.06.03 15:47:04.
