data_PCOD9472744
_publ_section_title
;
Structure prediction by ZEFSAII (Michael W. Deem and Ramdas Pophale) SiO2 
 PCOD9472744
Probable space group: C M C M
;
_chemical_formula_sum "Si O2"
_cell_formula_units_Z 112
_cell_length_a 29.367579
_cell_length_b 12.273471
_cell_length_c 15.013733
_cell_angle_alpha 90.000000
_cell_angle_beta 90.000000
_cell_angle_gamma 90.000000
_cell_volume 5411.581890
_symmetry_space_group_name_H-M "C M C M"
_symmetry_group_IT_number 63
_symmetry_cell_setting 'orthorhombic'
loop_
_space_group_symop_operation_xyz
x,y,z
-x,-y,1/2+z
x,-y,-z
-x,y,1/2-z
-x,-y,-z
x,y,1/2-z
-x,y,z
x,-y,1/2+z
1/2+x,1/2+y,z
1/2-x,1/2-y,1/2+z
1/2+x,1/2-y,-z
1/2-x,1/2+y,1/2-z
1/2-x,1/2-y,-z
1/2+x,1/2+y,1/2-z
1/2-x,1/2+y,z
1/2+x,1/2-y,1/2+z
loop_
_atom_site_type_symbol
_atom_site_label
_atom_site_fract_x
_atom_site_fract_y
_atom_site_fract_z
Si Si1 0.813104 0.642257 0.347209
Si Si2 0.945569 0.281870 0.651017
Si Si3 0.712730 0.538117 0.356863
Si Si4 0.446974 0.788843 0.351572
Si Si5 0.295605 0.678807 0.978431
Si Si6 0.444394 0.621433 0.998458
Si Si7 0.104589 0.493418 0.897376
O O1 0.811913 0.697244 0.250000
O O2 0.764709 0.582572 0.358950
O O3 0.823925 0.729283 0.424880
O O4 0.851313 0.550028 0.347924
O O5 0.926748 0.272709 0.750000
O O6 0.928949 0.186252 0.588052
O O7 0.932868 0.399048 0.613201
O O8 0.000000 0.274047 0.654586
O O9 0.699468 0.535967 0.250000
O O10 0.711353 0.420884 0.407644
O O11 0.688859 0.623131 0.427762
O O12 0.445438 0.752179 0.250000
O O13 0.500000 0.817198 0.372734
O O14 0.432324 0.693104 0.416685
O O15 0.416187 0.894359 0.364231
O O16 0.250000 0.750000 0.000000
O O17 0.500000 0.616531 0.996820
O O18 0.426405 0.500000 0.000000
O O19 0.117029 0.500000 0.000000
#
# Coordination Sequence:
#
# PCOD9472744 Si02
#       7
#    16  16  16  16  16  16  16
#     4  10  21  35  55  85 119 150 187 231 289 349
#     4  10  20  35  56  82 111 149 197 244 291 345
#     4   9  18  34  58  87 113 147 191 238 286 344
#     4  10  20  35  56  83 116 155 197 244 297 351
#     4   9  18  32  56  81 114 148 186 234 277 345
#     4   9  18  33  53  80 108 139 186 240 288 338
#     4  12  23  34  56  81 119 155 190 238 295 353
#
# _framework density 20.696351
#
# number of rings (size 3 to 8) (size 9 to 14) (size 15 to 20)
#    0.000    2.143    1.429    2.143    4.000    2.857 
#    0.000    2.857    3.143    0.000    0.000    0.000 
#    0.000    0.000    0.000    0.000    0.000    0.000 
#
# Total GULP energy -312295.611760 kJ/mol
# GULP energy per Si atom -5576.707353 kJ/mol
# Density = 2.064925 g / cm^3
# Si number density = 20.696351 Si / 1000 Ang^3
#
#
#
# Elastic Constant Matrix: (Units=GPa)
#
#
# Indices 1 2 3 4 5 6 
#
# 1 34.0336 11.7801 9.1683 0.0000 0.0000 0.0000
# 2 11.7801 141.2912 57.7507 0.0000 0.0000 0.0000
# 3 9.1683 57.7507 126.8018 0.0000 0.0000 0.0000
# 4 0.0000 0.0000 0.0000 -121.6309 0.0000 0.0000
# 5 0.0000 0.0000 0.0000 0.0000 10.4835 0.0000
# 6 0.0000 0.0000 0.0000 0.0000 0.0000 -168.0267
#
#
#
# Elastic Compliance Matrix: (Units=1/GPa)
#
#
# Indices 1 2 3 4 5 6 
#
# 1 0.030425 -0.002012 -0.001283 0.000000 0.000000 0.000000
# 2 -0.002012 0.008830 -0.003876 0.000000 0.000000 0.000000
# 3 -0.001283 -0.003876 0.009744 0.000000 0.000000 0.000000
# 4 0.000000 0.000000 0.000000 -0.008222 0.000000 0.000000
# 5 0.000000 0.000000 0.000000 0.000000 0.095388 0.000000
# 6 0.000000 0.000000 0.000000 0.000000 0.000000 -0.005951
#
#
# Mechanical properties :
#
#
# Convention : Reuss Voigt Hill
#
# Bulk Modulus (GPa) = 28.85500 51.05832 39.95666
# Shear Modulus (GPa) = 32.02903 -40.93965 -4.45531
#
# Velocity S-wave (km/s) = 3.93818 -4.45242 -1.46880
# Velocity P-wave (km/s) = 5.88654 1.30702 4.05852
#
# Compressibility (1/GPa) = 0.03465604
#
# Stress axis : x y z
#
# Youngs Moduli (GPa) = 32.86775 113.25632 102.62365
#
# Poissons Ratio (x) = 0.22788 0.13172
# Poissons Ratio (y) = 0.06613 0.39775
# Poissons Ratio (z) = 0.04219 0.43896
#
# Static dielectric constant tensor:
#      x y z
#    x 1.765560 0.000000 0.000000 
#    y 0.000000 1.708420 0.000000 
#    z 0.000000 0.000000 1.783790 
# 
# From -- ./inp_files/38535.got.cif
#   From: 2010.05.17/outbox.cif.g08.bks.cpg/sg63_20_cif.got.tgz:38535.got - 2010.06.03 15:47:04.
