data_PCOD9472201
_publ_section_title
;
Structure prediction by ZEFSAII (Michael W. Deem and Ramdas Pophale) SiO2 
 PCOD9472201
Probable space group: C M C M
;
_chemical_formula_sum "Si O2"
_cell_formula_units_Z 88
_cell_length_a 18.603902
_cell_length_b 30.104451
_cell_length_c 8.876945
_cell_angle_alpha 90.000000
_cell_angle_beta 90.000000
_cell_angle_gamma 90.000000
_cell_volume 4971.624091
_symmetry_space_group_name_H-M "C M C M"
_symmetry_group_IT_number 63
_symmetry_cell_setting 'orthorhombic'
loop_
_space_group_symop_operation_xyz
x,y,z
-x,-y,1/2+z
x,-y,-z
-x,y,1/2-z
-x,-y,-z
x,y,1/2-z
-x,y,z
x,-y,1/2+z
1/2+x,1/2+y,z
1/2-x,1/2-y,1/2+z
1/2+x,1/2-y,-z
1/2-x,1/2+y,1/2-z
1/2-x,1/2-y,-z
1/2+x,1/2+y,1/2-z
1/2-x,1/2+y,z
1/2+x,1/2-y,1/2+z
loop_
_atom_site_type_symbol
_atom_site_label
_atom_site_fract_x
_atom_site_fract_y
_atom_site_fract_z
Si Si1 0.584555 0.743538 0.922753
Si Si2 0.775650 0.114589 0.569688
Si Si3 0.794678 0.290407 0.070824
Si Si4 0.158391 0.450478 0.568464
Si Si5 0.000000 0.450671 0.569050
Si Si6 0.583047 0.353080 0.930289
O O1 0.609271 0.737938 0.750000
O O2 0.500000 0.752106 0.922789
O O3 0.626979 0.783058 0.001384
O O4 0.595932 0.696947 0.008619
O O5 0.778360 0.109586 0.750000
O O6 0.740763 0.162643 0.533730
O O7 0.723013 0.078353 0.498086
O O8 0.856124 0.116048 0.503127
O O9 0.796871 0.285837 0.250000
O O10 0.750000 0.250000 0.000000
O O11 0.161902 0.500000 0.500000
O O12 0.163462 0.452319 0.750000
O O13 0.078431 0.431243 0.527554
O O14 0.000000 0.500000 0.500000
O O15 0.000000 0.454100 0.750000
O O16 0.589773 0.353268 0.750000
O O17 0.500000 0.364526 0.969291
#
# Coordination Sequence:
#
# PCOD9472201 Si02
#       6
#    16  16  16  16   8  16
#     4  10  20  34  52  74 103 142 185 228 274 325
#     4  11  23  37  55  82 112 146 186 227 277 331
#     4  11  22  35  53  76 108 146 185 229 275 325
#     4  10  20  37  61  86 114 145 182 227 273 326
#     4   8  16  32  56  84 110 142 180 220 268 320
#     4  10  20  34  55  81 107 141 185 230 275 327
#
# _framework density 17.700454000000001
#
# number of rings (size 3 to 8) (size 9 to 14) (size 15 to 20)
#    0.000    1.818    1.818    2.727    0.000    5.091 
#    1.636    0.000    0.000    0.545    0.000    0.000 
#    0.000    0.000    0.000    0.000    0.000    0.000 
#
# Total GULP energy -245493.943221 kJ/mol
# GULP energy per Si atom -5579.407800 kJ/mol
# Density = 1.766017 g / cm^3
# Si number density = 17.700454 Si / 1000 Ang^3
#
#
#
# Elastic Constant Matrix: (Units=GPa)
#
#
# Indices 1 2 3 4 5 6 
#
# 1 155.8727 56.8027 60.9933 0.0000 0.0000 0.0000
# 2 56.8027 60.6098 42.3129 0.0000 0.0000 0.0000
# 3 60.9933 42.3129 63.5727 0.0000 0.0000 0.0000
# 4 0.0000 0.0000 0.0000 24.5232 0.0000 0.0000
# 5 0.0000 0.0000 0.0000 0.0000 30.8787 0.0000
# 6 0.0000 0.0000 0.0000 0.0000 0.0000 33.6565
#
#
#
# Elastic Compliance Matrix: (Units=1/GPa)
#
#
# Indices 1 2 3 4 5 6 
#
# 1 0.011203 -0.005596 -0.007024 0.000000 0.000000 0.000000
# 2 -0.005596 0.033614 -0.017004 0.000000 0.000000 0.000000
# 3 -0.007024 -0.017004 0.033787 0.000000 0.000000 0.000000
# 4 0.000000 0.000000 0.000000 0.040778 0.000000 0.000000
# 5 0.000000 0.000000 0.000000 0.000000 0.032385 0.000000
# 6 0.000000 0.000000 0.000000 0.000000 0.000000 0.029712
#
#
# Mechanical properties :
#
#
# Convention : Reuss Voigt Hill
#
# Bulk Modulus (GPa) = 51.66389 66.69700 59.18044
# Shear Modulus (GPa) = 20.22816 25.80809 23.01813
#
# Velocity S-wave (km/s) = 3.38421 3.82258 3.61005
# Velocity P-wave (km/s) = 6.67246 7.56608 7.13328
#
# Compressibility (1/GPa) = 0.01935588
#
# Stress axis : x y z
#
# Youngs Moduli (GPa) = 89.25926 29.74913 29.59712
#
# Poissons Ratio (x) = 0.16647 0.20790
# Poissons Ratio (y) = 0.49948 0.50328
# Poissons Ratio (z) = 0.62698 0.50587
#
# Static dielectric constant tensor:
#      x y z
#    x 1.676170 0.000000 0.000000 
#    y 0.000000 1.552480 0.000000 
#    z 0.000000 0.000000 1.620830 
# 
# From -- ./inp_files/6793.got.cif
#   From: 2010.05.17/outbox.cif.g08.bks.cpg/sg63_4_cif.got.tgz:6793.got - 2010.06.03 15:47:04.
