data_PCOD9472572
_publ_section_title
;
Structure prediction by ZEFSAII (Michael W. Deem and Ramdas Pophale) SiO2 
 PCOD9472572
Probable space group: C M C M
;
_chemical_formula_sum "Si O2"
_cell_formula_units_Z 96
_cell_length_a 14.895074
_cell_length_b 13.339535
_cell_length_c 27.458281
_cell_angle_alpha 90.000000
_cell_angle_beta 90.000000
_cell_angle_gamma 90.000000
_cell_volume 5455.778138
_symmetry_space_group_name_H-M "C M C M"
_symmetry_group_IT_number 63
_symmetry_cell_setting 'orthorhombic'
loop_
_space_group_symop_operation_xyz
x,y,z
-x,-y,1/2+z
x,-y,-z
-x,y,1/2-z
-x,-y,-z
x,y,1/2-z
-x,y,z
x,-y,1/2+z
1/2+x,1/2+y,z
1/2-x,1/2-y,1/2+z
1/2+x,1/2-y,-z
1/2-x,1/2+y,1/2-z
1/2-x,1/2-y,-z
1/2+x,1/2+y,1/2-z
1/2-x,1/2+y,z
1/2+x,1/2-y,1/2+z
loop_
_atom_site_type_symbol
_atom_site_label
_atom_site_fract_x
_atom_site_fract_y
_atom_site_fract_z
Si Si1 0.605734 0.744852 0.429238
Si Si2 0.393987 0.390159 0.477539
Si Si3 0.256225 0.616312 0.608636
Si Si4 0.196902 0.269667 0.806683
Si Si5 0.500000 0.470941 0.191766
Si Si6 0.500000 0.234953 0.191666
Si Si7 0.173449 0.919833 0.647879
O O1 0.500000 0.765478 0.424241
O O2 0.621515 0.695579 0.482127
O O3 0.666932 0.840182 0.416490
O O4 0.634737 0.658201 0.391375
O O5 0.370931 0.500000 0.500000
O O6 0.500000 0.393672 0.466006
O O7 0.336333 0.369035 0.429945
O O8 0.274324 0.680025 0.657583
O O9 0.260904 0.500117 0.622719
O O10 0.192306 0.238026 0.750000
O O11 0.097383 0.305049 0.823610
O O12 0.269448 0.356783 0.813488
O O13 0.500000 0.480476 0.250000
O O14 0.500000 0.353195 0.179643
O O15 0.410977 0.521900 0.170380
O O16 0.500000 0.224070 0.250000
#
# Coordination Sequence:
#
# PCOD9472572 Si02
#       7
#    16  16  16  16   8   8  16
#     4  10  21  39  57  84 119 151 185 234 284 338
#     4  10  20  34  61  90 118 147 185 237 290 343
#     4  11  22  35  61  87 114 153 191 237 282 346
#     4  10  22  37  55  84 116 148 190 241 288 333
#     4  11  20  32  56  81 109 146 191 244 283 332
#     4   9  18  34  54  74 104 142 184 237 284 328
#     4  11  21  35  57  84 112 150 191 233 285 342
#
# _framework density 17.596024
#
# number of rings (size 3 to 8) (size 9 to 14) (size 15 to 20)
#    0.000    1.667    4.167    1.000    2.333    0.667 
#    1.500    0.000    0.000    0.500    0.000    0.000 
#    0.000    0.000    0.000    0.000    0.000    0.000 
#
# Total GULP energy -267771.371444 kJ/mol
# GULP energy per Si atom -5578.570238 kJ/mol
# Density = 1.755597 g / cm^3
# Si number density = 17.596024 Si / 1000 Ang^3
#
#
#
# Elastic Constant Matrix: (Units=GPa)
#
#
# Indices 1 2 3 4 5 6 
#
# 1 62.6941 30.5013 23.7217 0.0000 0.0000 0.0000
# 2 30.5013 42.1164 17.8667 0.0000 0.0000 0.0000
# 3 23.7217 17.8667 79.8431 0.0000 0.0000 0.0000
# 4 0.0000 0.0000 0.0000 20.5931 0.0000 0.0000
# 5 0.0000 0.0000 0.0000 0.0000 26.0954 0.0000
# 6 0.0000 0.0000 0.0000 0.0000 0.0000 23.5173
#
#
#
# Elastic Compliance Matrix: (Units=1/GPa)
#
#
# Indices 1 2 3 4 5 6 
#
# 1 0.025644 -0.016948 -0.003826 0.000000 0.000000 0.000000
# 2 -0.016948 0.037436 -0.003342 0.000000 0.000000 0.000000
# 3 -0.003826 -0.003342 0.014409 0.000000 0.000000 0.000000
# 4 0.000000 0.000000 0.000000 0.048560 0.000000 0.000000
# 5 0.000000 0.000000 0.000000 0.000000 0.038321 0.000000
# 6 0.000000 0.000000 0.000000 0.000000 0.000000 0.042522
#
#
# Mechanical properties :
#
#
# Convention : Reuss Voigt Hill
#
# Bulk Modulus (GPa) = 34.18117 36.53701 35.35909
# Shear Modulus (GPa) = 18.87677 21.54542 20.21110
#
# Velocity S-wave (km/s) = 3.27890 3.50301 3.39280
# Velocity P-wave (km/s) = 5.81400 6.09679 5.95707
#
# Compressibility (1/GPa) = 0.02925587
#
# Stress axis : x y z
#
# Youngs Moduli (GPa) = 38.99584 26.71255 69.40040
#
# Poissons Ratio (x) = 0.45273 0.26554
# Poissons Ratio (y) = 0.66092 0.23191
# Poissons Ratio (z) = 0.14921 0.08926
#
# Static dielectric constant tensor:
#      x y z
#    x 1.601020 0.000000 0.000000 
#    y 0.000000 1.587250 0.000000 
#    z 0.000000 0.000000 1.601030 
# 
# From -- ./inp_files/69328.got.cif
#   From: 2010.05.17/outbox.cif.g08.bks.cpg/sg63_35_cif.got.tgz:69328.got - 2010.06.03 15:47:04.
