data_PCOD9472505
_publ_section_title
;
Structure prediction by ZEFSAII (Michael W. Deem and Ramdas Pophale) SiO2 
 PCOD9472505
Probable space group: C M C M
;
_chemical_formula_sum "Si O2"
_cell_formula_units_Z 96
_cell_length_a 8.927832
_cell_length_b 21.036869
_cell_length_c 28.701083
_cell_angle_alpha 90.000000
_cell_angle_beta 90.000000
_cell_angle_gamma 90.000000
_cell_volume 5390.454647
_symmetry_space_group_name_H-M "C M C M"
_symmetry_group_IT_number 63
_symmetry_cell_setting 'orthorhombic'
loop_
_space_group_symop_operation_xyz
x,y,z
-x,-y,1/2+z
x,-y,-z
-x,y,1/2-z
-x,-y,-z
x,y,1/2-z
-x,y,z
x,-y,1/2+z
1/2+x,1/2+y,z
1/2-x,1/2-y,1/2+z
1/2+x,1/2-y,-z
1/2-x,1/2+y,1/2-z
1/2-x,1/2-y,-z
1/2+x,1/2+y,1/2-z
1/2-x,1/2+y,z
1/2+x,1/2-y,1/2+z
loop_
_atom_site_type_symbol
_atom_site_label
_atom_site_fract_x
_atom_site_fract_y
_atom_site_fract_z
Si Si1 0.320406 0.752225 0.608362
Si Si2 0.320963 0.503177 0.106419
Si Si3 0.678700 0.947028 0.803578
Si Si4 0.321796 0.307597 0.696607
Si Si5 0.320756 0.879490 0.550457
Si Si6 0.180039 0.126073 0.551519
O O1 0.500000 0.751516 0.615226
O O2 0.240998 0.760314 0.657903
O O3 0.283182 0.814391 0.577638
O O4 0.278212 0.688823 0.580546
O O5 0.500000 0.509704 0.108725
O O6 0.252609 0.508366 0.157943
O O7 0.253559 0.561281 0.076781
O O8 0.285253 0.437123 0.080915
O O9 0.711085 0.965216 0.750000
O O10 0.500000 0.945051 0.809919
O O11 0.743673 0.876053 0.810650
O O12 0.290625 0.287927 0.750000
O O13 0.500000 0.315331 0.691437
O O14 0.500000 0.886820 0.550987
O O15 0.261061 0.875776 0.497995
O O16 0.000000 0.127643 0.543790
#
# Coordination Sequence:
#
# PCOD9472505 Si02
#       6
#    16  16  16  16  16  16
#     4  10  21  38  58  82 113 149 188 229 277 330
#     4  11  22  37  58  83 113 149 188 231 276 328
#     4  10  20  35  57  84 112 143 182 229 279 330
#     4  10  20  34  56  86 114 143 183 228 275 329
#     4  11  22  36  58  85 110 145 192 237 279 327
#     4  10  23  40  56  79 114 153 190 228 275 332
#
# _framework density 17.809258
#
# number of rings (size 3 to 8) (size 9 to 14) (size 15 to 20)
#    0.000    1.667    1.667    3.000    0.000    6.667 
#    0.000    0.833    0.000    5.000    0.000    0.000 
#    0.000    0.000    0.000    0.000    0.000    0.000 
#
# Total GULP energy -268199.994943 kJ/mol
# GULP energy per Si atom -5587.499895 kJ/mol
# Density = 1.776872 g / cm^3
# Si number density = 17.809258 Si / 1000 Ang^3
#
#
#
# Elastic Constant Matrix: (Units=GPa)
#
#
# Indices 1 2 3 4 5 6 
#
# 1 53.7124 55.7213 68.4265 0.0000 0.0000 0.0000
# 2 55.7213 125.7185 77.3847 0.0000 0.0000 0.0000
# 3 68.4265 77.3847 161.2270 0.0000 0.0000 0.0000
# 4 0.0000 0.0000 0.0000 -6.2017 0.0000 0.0000
# 5 0.0000 0.0000 0.0000 0.0000 38.2418 0.0000
# 6 0.0000 0.0000 0.0000 0.0000 0.0000 23.4242
#
#
#
# Elastic Compliance Matrix: (Units=1/GPa)
#
#
# Indices 1 2 3 4 5 6 
#
# 1 0.053299 -0.013767 -0.016013 0.000000 0.000000 0.000000
# 2 -0.013767 0.014846 -0.001283 0.000000 0.000000 0.000000
# 3 -0.016013 -0.001283 0.013614 0.000000 0.000000 0.000000
# 4 0.000000 0.000000 0.000000 -0.161246 0.000000 0.000000
# 5 0.000000 0.000000 0.000000 0.000000 0.026149 0.000000
# 6 0.000000 0.000000 0.000000 0.000000 0.000000 0.042691
#
#
# Mechanical properties :
#
#
# Convention : Reuss Voigt Hill
#
# Bulk Modulus (GPa) = 50.93249 82.63587 66.78418
# Shear Modulus (GPa) = 86.17410 20.36790 53.27100
#
# Velocity S-wave (km/s) = 6.96364 3.38549 5.47512
# Velocity P-wave (km/s) = 9.66009 7.86023 8.80627
#
# Compressibility (1/GPa) = 0.01963383
#
# Stress axis : x y z
#
# Youngs Moduli (GPa) = 18.76216 67.36033 73.45266
#
# Poissons Ratio (x) = 0.92732 1.17620
# Poissons Ratio (y) = 0.25829 0.09422
# Poissons Ratio (z) = 0.30044 0.08641
#
# Static dielectric constant tensor:
#      x y z
#    x 1.595010 0.000000 0.000000 
#    y 0.000000 1.580090 0.000000 
#    z 0.000000 0.000000 1.600980 
# 
# From -- ./inp_files/66914.got.cif
#   From: 2010.05.17/outbox.cif.g08.bks.cpg/sg63_34_cif.got.tgz:66914.got - 2010.06.03 15:47:04.
