data_PCOD9472961
_publ_section_title
;
Structure prediction by ZEFSAII (Michael W. Deem and Ramdas Pophale) SiO2 
 PCOD9472961
Probable space group: C M C M
;
_chemical_formula_sum "Si O2"
_cell_formula_units_Z 104
_cell_length_a 22.783397
_cell_length_b 31.002978
_cell_length_c 8.739609
_cell_angle_alpha 90.000000
_cell_angle_beta 90.000000
_cell_angle_gamma 90.000000
_cell_volume 6173.250399
_symmetry_space_group_name_H-M "C M C M"
_symmetry_group_IT_number 63
_symmetry_cell_setting 'orthorhombic'
loop_
_space_group_symop_operation_xyz
x,y,z
-x,-y,1/2+z
x,-y,-z
-x,y,1/2-z
-x,-y,-z
x,y,1/2-z
-x,y,z
x,-y,1/2+z
1/2+x,1/2+y,z
1/2-x,1/2-y,1/2+z
1/2+x,1/2-y,-z
1/2-x,1/2+y,1/2-z
1/2-x,1/2-y,-z
1/2+x,1/2+y,1/2-z
1/2-x,1/2+y,z
1/2+x,1/2-y,1/2+z
loop_
_atom_site_type_symbol
_atom_site_label
_atom_site_fract_x
_atom_site_fract_y
_atom_site_fract_z
Si Si1 0.286628 0.046987 0.933749
Si Si2 0.069786 0.690059 0.565355
Si Si3 0.500000 0.951679 0.433675
Si Si4 0.571202 0.714504 0.072057
Si Si5 0.567661 0.624385 0.934066
Si Si6 0.350071 0.453447 0.065809
Si Si7 0.390138 0.101479 0.067645
O O1 0.292592 0.046750 0.750000
O O2 0.218241 0.054567 0.973356
O O3 0.329611 0.081765 0.006599
O O4 0.302724 0.000000 0.000000
O O5 0.076118 0.687241 0.750000
O O6 0.090030 0.738042 0.516707
O O7 0.101920 0.650728 0.485133
O O8 0.000000 0.686034 0.533011
O O9 0.500000 0.952832 0.250000
O O10 0.557070 0.926069 0.492618
O O11 0.500000 0.000000 0.500000
O O12 0.587407 0.710516 0.250000
O O13 0.500000 0.715625 0.064639
O O14 0.589736 0.671457 0.985321
O O15 0.567154 0.623479 0.750000
O O16 0.500000 0.619180 0.986905
O O17 0.608425 0.585299 0.988480
O O18 0.353696 0.455589 0.250000
O O19 0.367105 0.500000 0.000000
O O20 0.393908 0.097952 0.250000
#
# Coordination Sequence:
#
# PCOD9472961 Si02
#       7
#    16  16   8  16  16  16  16
#     4  10  20  36  54  70  93 129 171 211 249 296
#     4   9  17  31  50  71  99 133 166 203 250 301
#     4  12  24  38  52  70 100 134 166 204 255 304
#     4   8  15  28  47  72 100 132 167 200 239 294
#     4   9  17  30  49  76 108 136 162 199 249 299
#     4   9  19  34  52  74 100 133 171 206 245 295
#     4  12  23  34  50  75 101 127 165 210 254 302
#
# _framework density 16.846878
#
# number of rings (size 3 to 8) (size 9 to 14) (size 15 to 20)
#    0.000    2.308    0.769    3.923    0.000    2.154 
#    0.000    1.538    0.000    0.923    0.000    0.000 
#    0.000    0.000    0.000    0.000    0.000    0.000 
#
# Total GULP energy -290022.411437 kJ/mol
# GULP energy per Si atom -5577.354066 kJ/mol
# Density = 1.680853 g / cm^3
# Si number density = 16.846878 Si / 1000 Ang^3
#
#
#
# Elastic Constant Matrix: (Units=GPa)
#
#
# Indices 1 2 3 4 5 6 
#
# 1 56.5899 76.9964 31.8366 0.0000 0.0000 0.0000
# 2 76.9964 185.5163 53.5276 0.0000 0.0000 0.0000
# 3 31.8366 53.5276 56.0499 0.0000 0.0000 0.0000
# 4 0.0000 0.0000 0.0000 33.3047 0.0000 0.0000
# 5 0.0000 0.0000 0.0000 0.0000 14.3531 0.0000
# 6 0.0000 0.0000 0.0000 0.0000 0.0000 9.0593
#
#
#
# Elastic Compliance Matrix: (Units=1/GPa)
#
#
# Indices 1 2 3 4 5 6 
#
# 1 0.044735 -0.015509 -0.010599 0.000000 0.000000 0.000000
# 2 -0.015509 0.012817 -0.003431 0.000000 0.000000 0.000000
# 3 -0.010599 -0.003431 0.027138 0.000000 0.000000 0.000000
# 4 0.000000 0.000000 0.000000 0.030026 0.000000 0.000000
# 5 0.000000 0.000000 0.000000 0.000000 0.069671 0.000000
# 6 0.000000 0.000000 0.000000 0.000000 0.000000 0.110384
#
#
# Mechanical properties :
#
#
# Convention : Reuss Voigt Hill
#
# Bulk Modulus (GPa) = 39.04327 69.20862 54.12594
# Shear Modulus (GPa) = 13.79743 20.39645 17.09694
#
# Velocity S-wave (km/s) = 2.86491 3.48328 3.18912
# Velocity P-wave (km/s) = 5.84545 7.57283 6.76451
#
# Compressibility (1/GPa) = 0.02561261
#
# Stress axis : x y z
#
# Youngs Moduli (GPa) = 22.35397 78.02097 36.84809
#
# Poissons Ratio (x) = 1.20999 0.39055
# Poissons Ratio (y) = 0.34668 0.12644
# Poissons Ratio (z) = 0.23693 0.26772
#
# Static dielectric constant tensor:
#      x y z
#    x 1.556750 0.000000 0.000000 
#    y 0.000000 1.571520 0.000000 
#    z 0.000000 0.000000 1.565910 
# 
# From -- ./inp_files/10829.got.cif
#   From: 2010.05.17/outbox.cif.g08.bks.cpg/sg63_6_cif.got.tgz:10829.got - 2010.06.03 15:47:04.
