data_PCOD9472157
_publ_section_title
;
Structure prediction by ZEFSAII (Michael W. Deem and Ramdas Pophale) SiO2 
 PCOD9472157
Probable space group: C M C M
;
_chemical_formula_sum "Si O2"
_cell_formula_units_Z 80
_cell_length_a 15.594942
_cell_length_b 33.225340
_cell_length_c 7.452476
_cell_angle_alpha 90.000000
_cell_angle_beta 90.000000
_cell_angle_gamma 90.000000
_cell_volume 3861.479947
_symmetry_space_group_name_H-M "C M C M"
_symmetry_group_IT_number 63
_symmetry_cell_setting 'orthorhombic'
loop_
_space_group_symop_operation_xyz
x,y,z
-x,-y,1/2+z
x,-y,-z
-x,y,1/2-z
-x,-y,-z
x,y,1/2-z
-x,y,z
x,-y,1/2+z
1/2+x,1/2+y,z
1/2-x,1/2-y,1/2+z
1/2+x,1/2-y,-z
1/2-x,1/2+y,1/2-z
1/2-x,1/2-y,-z
1/2+x,1/2+y,1/2-z
1/2-x,1/2+y,z
1/2+x,1/2-y,1/2+z
loop_
_atom_site_type_symbol
_atom_site_label
_atom_site_fract_x
_atom_site_fract_y
_atom_site_fract_z
Si Si1 0.347170 0.763739 0.462803
Si Si2 0.407925 0.679317 0.031494
Si Si3 0.403603 0.546987 0.035383
Si Si4 0.271686 0.614041 0.029939
Si Si5 0.904255 0.353430 0.958594
O O1 0.358946 0.767230 0.250000
O O2 0.250000 0.750000 0.500000
O O3 0.400828 0.725366 0.528088
O O4 0.373925 0.806814 0.537419
O O5 0.405148 0.679596 0.250000
O O6 0.500000 0.661890 0.978940
O O7 0.328164 0.652610 0.973583
O O8 0.407040 0.552748 0.250000
O O9 0.500000 0.556442 0.966708
O O10 0.326960 0.575538 0.970770
O O11 0.387542 0.500000 0.000000
O O12 0.269277 0.613910 0.250000
O O13 0.174553 0.620384 0.965689
O O14 0.910849 0.364766 0.750000
O O15 0.000000 0.356876 0.037217
#
# Coordination Sequence:
#
# PCOD9472157 Si02
#       5
#    16  16  16  16  16
#     4  11  20  32  49  69  97 131 170 210 251 293
#     4   9  16  26  44  68  91 118 157 201 239 281
#     4   9  17  30  51  76 100 125 154 190 237 295
#     4   9  16  29  48  71  96 124 160 198 238 290
#     4  10  20  34  51  71  97 130 169 212 251 288
#
# _framework density 20.717445000000001
#
# number of rings (size 3 to 8) (size 9 to 14) (size 15 to 20)
#    0.000    2.400    2.000    1.800    0.000    3.600 
#    0.000    1.000    0.000    0.600    0.000    0.000 
#    0.000    0.000    0.000    0.000    0.000    0.000 
#
# Total GULP energy -223224.828581 kJ/mol
# GULP energy per Si atom -5580.620715 kJ/mol
# Density = 2.067029 g / cm^3
# Si number density = 20.717445 Si / 1000 Ang^3
#
#
#
# Elastic Constant Matrix: (Units=GPa)
#
#
# Indices 1 2 3 4 5 6 
#
# 1 220.4898 86.2495 4.1674 0.0000 0.0000 0.0000
# 2 86.2495 109.8595 -1.9952 0.0000 0.0000 0.0000
# 3 4.1674 -1.9952 63.8585 0.0000 0.0000 0.0000
# 4 0.0000 0.0000 0.0000 17.3905 0.0000 0.0000
# 5 0.0000 0.0000 0.0000 0.0000 0.7029 0.0000
# 6 0.0000 0.0000 0.0000 0.0000 0.0000 97.8603
#
#
#
# Elastic Compliance Matrix: (Units=1/GPa)
#
#
# Indices 1 2 3 4 5 6 
#
# 1 0.006568 -0.005167 -0.000590 0.000000 0.000000 0.000000
# 2 -0.005167 0.013173 0.000749 0.000000 0.000000 0.000000
# 3 -0.000590 0.000749 0.015722 0.000000 0.000000 0.000000
# 4 0.000000 0.000000 0.000000 0.057503 0.000000 0.000000
# 5 0.000000 0.000000 0.000000 0.000000 1.422644 0.000000
# 6 0.000000 0.000000 0.000000 0.000000 0.000000 0.010219
#
#
# Mechanical properties :
#
#
# Convention : Reuss Voigt Hill
#
# Bulk Modulus (GPa) = 39.29981 63.45015 51.37498
# Shear Modulus (GPa) = 3.23766 43.57648 23.40707
#
# Velocity S-wave (km/s) = 1.25146 4.59123 3.36493
# Velocity P-wave (km/s) = 4.59335 7.66803 6.32051
#
# Compressibility (1/GPa) = 0.02544541
#
# Stress axis : x y z
#
# Youngs Moduli (GPa) = 152.26116 75.91503 63.60703
#
# Poissons Ratio (x) = 0.39225 0.03753
# Poissons Ratio (y) = 0.78672 -0.04763
# Poissons Ratio (z) = 0.08984 -0.05684
#
# Static dielectric constant tensor:
#      x y z
#    x 1.788110 0.000000 0.000000 
#    y 0.000000 1.703560 0.000000 
#    z 0.000000 0.000000 1.792610 
# 
# From -- ./inp_files/6656.got.cif
#   From: 2010.05.17/outbox.cif.g08.bks.cpg/sg63_4_cif.got.tgz:6656.got - 2010.06.03 15:47:04.
