data_PCOD9472439
_publ_section_title
;
Structure prediction by ZEFSAII (Michael W. Deem and Ramdas Pophale) SiO2 
 PCOD9472439
Probable space group: C M C M
;
_chemical_formula_sum "Si O2"
_cell_formula_units_Z 96
_cell_length_a 13.729853
_cell_length_b 24.337777
_cell_length_c 14.521290
_cell_angle_alpha 90.000000
_cell_angle_beta 90.000000
_cell_angle_gamma 90.000000
_cell_volume 4852.348599
_symmetry_space_group_name_H-M "C M C M"
_symmetry_group_IT_number 63
_symmetry_cell_setting 'orthorhombic'
loop_
_space_group_symop_operation_xyz
x,y,z
-x,-y,1/2+z
x,-y,-z
-x,y,1/2-z
-x,-y,-z
x,y,1/2-z
-x,y,z
x,-y,1/2+z
1/2+x,1/2+y,z
1/2-x,1/2-y,1/2+z
1/2+x,1/2-y,-z
1/2-x,1/2+y,1/2-z
1/2-x,1/2-y,-z
1/2+x,1/2+y,1/2-z
1/2-x,1/2+y,z
1/2+x,1/2-y,1/2+z
loop_
_atom_site_type_symbol
_atom_site_label
_atom_site_fract_x
_atom_site_fract_y
_atom_site_fract_z
Si Si1 0.682060 0.818832 0.640444
Si Si2 0.288809 0.016260 0.605111
Si Si3 0.500000 0.014545 0.857117
Si Si4 0.326808 0.586252 0.351975
Si Si5 0.385975 0.295446 0.357881
Si Si6 0.500000 0.890513 0.863368
Si Si7 0.390970 0.586038 0.942434
O O1 0.664050 0.813241 0.750000
O O2 0.779690 0.853908 0.631920
O O3 0.675756 0.756456 0.606797
O O4 0.594669 0.857058 0.604550
O O5 0.394430 0.040953 0.626723
O O6 0.194816 0.054967 0.611496
O O7 0.296063 0.000000 0.500000
O O8 0.260373 0.958888 0.653187
O O9 0.500000 0.003779 0.750000
O O10 0.500000 0.952988 0.900465
O O11 0.374396 0.585155 0.250000
O O12 0.382381 0.574131 0.447572
O O13 0.362954 0.308263 0.250000
O O14 0.500000 0.278229 0.359445
O O15 0.377447 0.349835 0.418868
O O16 0.500000 0.891033 0.750000
O O17 0.500000 0.570092 0.912122
#
# Coordination Sequence:
#
# PCOD9472439 Si02
#       7
#    16  16   8  16  16   8  16
#     4   9  15  27  50  83 110 133 174 227 284 337
#     4  10  21  35  53  78 111 145 179 227 281 333
#     4  11  19  31  55  85 113 139 171 217 284 352
#     4  10  20  34  55  82 109 142 184 234 293 338
#     4   9  17  31  53  78 107 145 184 226 277 327
#     4   9  14  23  47  81 113 133 162 223 284 337
#     4  10  23  40  54  77 114 152 197 238 264 315
#
# _framework density 19.784233
#
# number of rings (size 3 to 8) (size 9 to 14) (size 15 to 20)
#    0.000    2.333    2.500    0.750    0.000    5.333 
#    0.000    0.000    0.000    0.000    2.167    0.000 
#    0.000    0.000    0.000    0.000    0.000    0.000 
#
# Total GULP energy -267252.923341 kJ/mol
# GULP energy per Si atom -5567.769236 kJ/mol
# Density = 1.973920 g / cm^3
# Si number density = 19.784233 Si / 1000 Ang^3
#
#
#
# Elastic Constant Matrix: (Units=GPa)
#
#
# Indices 1 2 3 4 5 6 
#
# 1 112.5244 43.6929 9.6556 0.0000 0.0000 0.0000
# 2 43.6929 68.5541 11.6037 0.0000 0.0000 0.0000
# 3 9.6556 11.6037 50.3358 0.0000 0.0000 0.0000
# 4 0.0000 0.0000 0.0000 18.3203 0.0000 0.0000
# 5 0.0000 0.0000 0.0000 0.0000 6.8990 0.0000
# 6 0.0000 0.0000 0.0000 0.0000 0.0000 24.3199
#
#
#
# Elastic Compliance Matrix: (Units=1/GPa)
#
#
# Indices 1 2 3 4 5 6 
#
# 1 0.011824 -0.007443 -0.000552 0.000000 0.000000 0.000000
# 2 -0.007443 0.019864 -0.003151 0.000000 0.000000 0.000000
# 3 -0.000552 -0.003151 0.020699 0.000000 0.000000 0.000000
# 4 0.000000 0.000000 0.000000 0.054584 0.000000 0.000000
# 5 0.000000 0.000000 0.000000 0.000000 0.144948 0.000000
# 6 0.000000 0.000000 0.000000 0.000000 0.000000 0.041119
#
#
# Mechanical properties :
#
#
# Convention : Reuss Voigt Hill
#
# Bulk Modulus (GPa) = 33.22909 40.14653 36.68781
# Shear Modulus (GPa) = 15.36748 21.00533 18.18640
#
# Velocity S-wave (km/s) = 2.79005 3.26194 3.03518
# Velocity P-wave (km/s) = 5.21646 5.87565 5.55584
#
# Compressibility (1/GPa) = 0.03009411
#
# Stress axis : x y z
#
# Youngs Moduli (GPa) = 84.57118 50.34212 48.31142
#
# Poissons Ratio (x) = 0.37468 0.02669
# Poissons Ratio (y) = 0.62944 0.15225
# Poissons Ratio (z) = 0.04672 0.15865
#
# Static dielectric constant tensor:
#      x y z
#    x 1.771640 0.000000 0.000000 
#    y 0.000000 1.719840 0.000000 
#    z 0.000000 0.000000 1.746230 
# 
# From -- ./inp_files/32208.got.cif
#   From: 2010.05.17/outbox.cif.g08.bks.cpg/sg63_17_cif.got.tgz:32208.got - 2010.06.03 15:47:04.
