data_PCOD9472621
_publ_section_title
;
Structure prediction by ZEFSAII (Michael W. Deem and Ramdas Pophale) SiO2 
 PCOD9472621
Probable space group: C M C M
;
_chemical_formula_sum "Si O2"
_cell_formula_units_Z 80
_cell_length_a 26.697944
_cell_length_b 19.614635
_cell_length_c 8.660017
_cell_angle_alpha 90.000000
_cell_angle_beta 90.000000
_cell_angle_gamma 90.000000
_cell_volume 4534.994799
_symmetry_space_group_name_H-M "C M C M"
_symmetry_group_IT_number 63
_symmetry_cell_setting 'orthorhombic'
loop_
_space_group_symop_operation_xyz
x,y,z
-x,-y,1/2+z
x,-y,-z
-x,y,1/2-z
-x,-y,-z
x,y,1/2-z
-x,y,z
x,-y,1/2+z
1/2+x,1/2+y,z
1/2-x,1/2-y,1/2+z
1/2+x,1/2-y,-z
1/2-x,1/2+y,1/2-z
1/2-x,1/2-y,-z
1/2+x,1/2+y,1/2-z
1/2-x,1/2+y,z
1/2+x,1/2-y,1/2+z
loop_
_atom_site_type_symbol
_atom_site_label
_atom_site_fract_x
_atom_site_fract_y
_atom_site_fract_z
Si Si1 0.608296 0.825984 0.562175
Si Si2 0.307615 0.423820 0.434470
Si Si3 0.500000 0.671661 0.572078
Si Si4 0.700053 0.075744 0.064570
Si Si5 0.606743 0.326632 0.565975
Si Si6 0.000000 0.662462 0.427180
O O1 0.605511 0.819921 0.750000
O O2 0.654582 0.874313 0.523418
O O3 0.614508 0.750607 0.493923
O O4 0.554408 0.855444 0.506025
O O5 0.315242 0.500000 0.500000
O O6 0.307115 0.426037 0.250000
O O7 0.253161 0.400665 0.495728
O O8 0.351073 0.374736 0.494162
O O9 0.500000 0.649318 0.750000
O O10 0.551308 0.651049 0.489472
O O11 0.500000 0.754682 0.572940
O O12 0.704147 0.072592 0.250000
O O13 0.690778 0.000000 0.000000
O O14 0.609309 0.328136 0.750000
O O15 0.000000 0.638032 0.250000
#
# Coordination Sequence:
#
# PCOD9472621 Si02
#       6
#    16  16   8  16  16   8
#     4   9  18  33  54  78 105 140 179 219 264 313
#     4  11  22  38  57  76 103 139 176 216 266 319
#     4   9  17  33  54  77 108 143 174 208 257 311
#     4  10  20  35  54  76 104 139 179 221 268 319
#     4  11  21  34  55  83 110 137 174 218 261 308
#     4   7  12  27  50  73  99 133 171 208 251 303
#
# _framework density 17.640594
#
# number of rings (size 3 to 8) (size 9 to 14) (size 15 to 20)
#    0.000    2.200    0.000    6.900    0.000    2.400 
#    0.000    1.000    0.000    0.000    0.000    0.000 
#    0.000    0.000    0.000    0.000    0.000    0.000 
#
# Total GULP energy -223130.152198 kJ/mol
# GULP energy per Si atom -5578.253805 kJ/mol
# Density = 1.760044 g / cm^3
# Si number density = 17.640594 Si / 1000 Ang^3
#
#
#
# Elastic Constant Matrix: (Units=GPa)
#
#
# Indices 1 2 3 4 5 6 
#
# 1 217.9782 92.5046 75.7733 0.0000 0.0000 0.0000
# 2 92.5046 56.8226 38.1949 0.0000 0.0000 0.0000
# 3 75.7733 38.1949 103.3089 0.0000 0.0000 0.0000
# 4 0.0000 0.0000 0.0000 24.9119 0.0000 0.0000
# 5 0.0000 0.0000 0.0000 0.0000 16.1985 0.0000
# 6 0.0000 0.0000 0.0000 0.0000 0.0000 -117.0799
#
#
#
# Elastic Compliance Matrix: (Units=1/GPa)
#
#
# Indices 1 2 3 4 5 6 
#
# 1 0.015383 -0.023233 -0.002694 0.000000 0.000000 0.000000
# 2 -0.023233 0.058506 -0.004590 0.000000 0.000000 0.000000
# 3 -0.002694 -0.004590 0.013352 0.000000 0.000000 0.000000
# 4 0.000000 0.000000 0.000000 0.040141 0.000000 0.000000
# 5 0.000000 0.000000 0.000000 0.000000 0.061734 0.000000
# 6 0.000000 0.000000 0.000000 0.000000 0.000000 -0.008541
#
#
# Mechanical properties :
#
#
# Convention : Reuss Voigt Hill
#
# Bulk Modulus (GPa) = 38.15525 87.89502 63.02514
# Shear Modulus (GPa) = 19.97232 -3.75145 8.11044
#
# Velocity S-wave (km/s) = 3.36844 -1.45987 2.14653
# Velocity P-wave (km/s) = 6.06669 6.86236 6.47675
#
# Compressibility (1/GPa) = 0.02620871
#
# Stress axis : x y z
#
# Youngs Moduli (GPa) = 65.00471 17.09217 74.89282
#
# Poissons Ratio (x) = 0.39710 0.20173
# Poissons Ratio (y) = 1.51026 0.34377
# Poissons Ratio (z) = 0.17510 0.07845
#
# Static dielectric constant tensor:
#      x y z
#    x 1.622980 0.000000 0.000000 
#    y 0.000000 1.565880 0.000000 
#    z 0.000000 0.000000 1.599110 
# 
# From -- ./inp_files/12111.got.cif
#   From: 2010.05.17/outbox.cif.g08.bks.cpg/sg63_7_cif.got.tgz:12111.got - 2010.06.03 15:47:04.
