data_PCOD9472341
_publ_section_title
;
Structure prediction by ZEFSAII (Michael W. Deem and Ramdas Pophale) SiO2 
 PCOD9472341
Probable space group: C M C M
;
_chemical_formula_sum "Si O2"
_cell_formula_units_Z 80
_cell_length_a 9.088954
_cell_length_b 19.306130
_cell_length_c 26.356895
_cell_angle_alpha 90.000000
_cell_angle_beta 90.000000
_cell_angle_gamma 90.000000
_cell_volume 4624.910982
_symmetry_space_group_name_H-M "C M C M"
_symmetry_group_IT_number 63
_symmetry_cell_setting 'orthorhombic'
loop_
_space_group_symop_operation_xyz
x,y,z
-x,-y,1/2+z
x,-y,-z
-x,y,1/2-z
-x,-y,-z
x,y,1/2-z
-x,y,z
x,-y,1/2+z
1/2+x,1/2+y,z
1/2-x,1/2-y,1/2+z
1/2+x,1/2-y,-z
1/2-x,1/2+y,1/2-z
1/2-x,1/2-y,-z
1/2+x,1/2+y,1/2-z
1/2-x,1/2+y,z
1/2+x,1/2-y,1/2+z
loop_
_atom_site_type_symbol
_atom_site_label
_atom_site_fract_x
_atom_site_fract_y
_atom_site_fract_z
Si Si1 0.676561 0.079031 0.107338
Si Si2 0.325319 0.327964 0.691512
Si Si3 0.325745 0.163331 0.808678
Si Si4 0.325281 0.428381 0.393230
Si Si5 0.831382 0.416042 0.495020
O O1 0.500000 0.070775 0.108529
O O2 0.733326 0.128546 0.151451
O O3 0.751544 0.003998 0.112702
O O4 0.714274 0.108296 0.051078
O O5 0.288790 0.345690 0.750000
O O6 0.500000 0.340951 0.684487
O O7 0.301732 0.245656 0.685234
O O8 0.292219 0.145670 0.750000
O O9 0.500000 0.150207 0.816829
O O10 0.231907 0.119940 0.848162
O O11 0.500000 0.434838 0.392917
O O12 0.270064 0.398910 0.447476
O O13 0.831120 0.500000 0.500000
O O14 0.000000 0.394909 0.484641
#
# Coordination Sequence:
#
# PCOD9472341 Si02
#       5
#    16  16  16  16  16
#     4  10  20  34  54  78 104 136 171 208 252 302
#     4   9  19  36  56  77 102 133 169 211 258 304
#     4   9  19  37  57  74  99 137 173 207 255 308
#     4  11  21  32  52  80 106 133 169 213 255 297
#     4   8  16  32  51  72 101 135 169 206 251 302
#
# _framework density 17.297630000000002
#
# number of rings (size 3 to 8) (size 9 to 14) (size 15 to 20)
#    0.000    2.600    0.000    4.800    0.000    6.800 
#    0.000    3.000    0.000    0.000    0.000    0.000 
#    0.000    0.000    0.000    0.000    0.000    0.000 
#
# Total GULP energy -223070.573967 kJ/mol
# GULP energy per Si atom -5576.764349 kJ/mol
# Density = 1.725826 g / cm^3
# Si number density = 17.297630 Si / 1000 Ang^3
#
#
#
# Elastic Constant Matrix: (Units=GPa)
#
#
# Indices 1 2 3 4 5 6 
#
# 1 102.8542 50.7171 100.6962 0.0000 0.0000 0.0000
# 2 50.7171 38.5328 64.5822 0.0000 0.0000 0.0000
# 3 100.6962 64.5822 160.8327 0.0000 0.0000 0.0000
# 4 0.0000 0.0000 0.0000-1079.3260 0.0000 0.0000
# 5 0.0000 0.0000 0.0000 0.0000 27.7487 0.0000
# 6 0.0000 0.0000 0.0000 0.0000 0.0000 24.6366
#
#
#
# Elastic Compliance Matrix: (Units=1/GPa)
#
#
# Indices 1 2 3 4 5 6 
#
# 1 0.031829 -0.025975 -0.009498 0.000000 0.000000 0.000000
# 2 -0.025975 0.100564 -0.024118 0.000000 0.000000 0.000000
# 3 -0.009498 -0.024118 0.021849 0.000000 0.000000 0.000000
# 4 0.000000 0.000000 0.000000 -0.000927 0.000000 0.000000
# 5 0.000000 0.000000 0.000000 0.000000 0.036038 0.000000
# 6 0.000000 0.000000 0.000000 0.000000 0.000000 0.040590
#
#
# Mechanical properties :
#
#
# Convention : Reuss Voigt Hill
#
# Bulk Modulus (GPa) = 28.52331 81.57896 55.05114
# Shear Modulus (GPa) = 13.85763 -199.63984 -92.89111
#
# Velocity S-wave (km/s) = 2.83349 -10.75477 -7.33609
# Velocity P-wave (km/s) = 5.21828 10.34195 6.31369
#
# Compressibility (1/GPa) = 0.03505905
#
# Stress axis : x y z
#
# Youngs Moduli (GPa) = 31.41752 9.94395 45.76928
#
# Poissons Ratio (x) = 0.25830 0.43470
# Poissons Ratio (y) = 0.81609 1.10387
# Poissons Ratio (z) = 0.29839 0.23983
#
# Static dielectric constant tensor:
#      x y z
#    x 1.571860 0.000000 0.000000 
#    y 0.000000 1.561740 0.000000 
#    z 0.000000 0.000000 1.600390 
# 
# From -- ./inp_files/71575.got.cif
#   From: 2010.05.17/outbox.cif.g08.bks.cpg/sg63_36_cif.got.tgz:71575.got - 2010.06.03 15:47:04.
