data_PCOD9472723
_publ_section_title
;
Structure prediction by ZEFSAII (Michael W. Deem and Ramdas Pophale) SiO2 
 PCOD9472723
Probable space group: C M C M
;
_chemical_formula_sum "Si O2"
_cell_formula_units_Z 80
_cell_length_a 9.011215
_cell_length_b 17.409761
_cell_length_c 27.203066
_cell_angle_alpha 90.000000
_cell_angle_beta 90.000000
_cell_angle_gamma 90.000000
_cell_volume 4267.701309
_symmetry_space_group_name_H-M "C M C M"
_symmetry_group_IT_number 63
_symmetry_cell_setting 'orthorhombic'
loop_
_space_group_symop_operation_xyz
x,y,z
-x,-y,1/2+z
x,-y,-z
-x,y,1/2-z
-x,-y,-z
x,y,1/2-z
-x,y,z
x,-y,1/2+z
1/2+x,1/2+y,z
1/2-x,1/2-y,1/2+z
1/2+x,1/2-y,-z
1/2-x,1/2+y,1/2-z
1/2-x,1/2-y,-z
1/2+x,1/2+y,1/2-z
1/2-x,1/2+y,z
1/2+x,1/2-y,1/2+z
loop_
_atom_site_type_symbol
_atom_site_label
_atom_site_fract_x
_atom_site_fract_y
_atom_site_fract_z
Si Si1 0.822830 0.584992 0.695750
Si Si2 0.175855 0.333060 0.497910
Si Si3 0.327701 0.592119 0.596035
Si Si4 0.671447 0.406431 0.909757
Si Si5 0.322784 0.582867 0.196741
O O1 0.785580 0.617634 0.750000
O O2 0.741708 0.618207 0.647989
O O3 0.769187 0.496151 0.697316
O O4 0.000000 0.588449 0.689532
O O5 0.250000 0.250000 0.500000
O O6 0.238711 0.375649 0.450008
O O7 0.225251 0.377238 0.547117
O O8 0.000000 0.327242 0.495120
O O9 0.500000 0.614421 0.592913
O O10 0.321205 0.499078 0.593603
O O11 0.500000 0.385473 0.920778
O O12 0.710843 0.376362 0.854926
O O13 0.298441 0.621544 0.250000
O O14 0.500000 0.564030 0.193990
#
# Coordination Sequence:
#
# PCOD9472723 Si02
#       5
#    16  16  16  16  16
#     4   9  16  26  44  74 109 139 169 208 252 298
#     4  12  25  39  55  74 101 136 175 219 266 317
#     4  10  20  35  56  80 107 138 173 214 258 306
#     4   9  18  33  54  80 109 138 171 212 255 304
#     4   8  14  26  46  73 105 139 170 203 249 301
#
# _framework density 18.745453999999999
#
# number of rings (size 3 to 8) (size 9 to 14) (size 15 to 20)
#    0.000    2.400    0.000    4.800    0.000    7.600 
#    0.000    0.000    0.000    1.200    0.000    2.800 
#    0.000    0.000    0.000    0.000    0.000    0.000 
#
# Total GULP energy -222964.788173 kJ/mol
# GULP energy per Si atom -5574.119704 kJ/mol
# Density = 1.870279 g / cm^3
# Si number density = 18.745454 Si / 1000 Ang^3
#
#
#
# Elastic Constant Matrix: (Units=GPa)
#
#
# Indices 1 2 3 4 5 6 
#
# 1 127.4098 21.6998 98.6064 0.0000 0.0000 0.0000
# 2 21.6998 14.0038 28.6685 0.0000 0.0000 0.0000
# 3 98.6064 28.6685 205.6976 0.0000 0.0000 0.0000
# 4 0.0000 0.0000 0.0000 -11.8243 0.0000 0.0000
# 5 0.0000 0.0000 0.0000 0.0000 34.8704 0.0000
# 6 0.0000 0.0000 0.0000 0.0000 0.0000 20.6307
#
#
#
# Elastic Compliance Matrix: (Units=1/GPa)
#
#
# Indices 1 2 3 4 5 6 
#
# 1 0.013548 -0.010771 -0.004993 0.000000 0.000000 0.000000
# 2 -0.010771 0.108482 -0.009956 0.000000 0.000000 0.000000
# 3 -0.004993 -0.009956 0.008643 0.000000 0.000000 0.000000
# 4 0.000000 0.000000 0.000000 -0.084571 0.000000 0.000000
# 5 0.000000 0.000000 0.000000 0.000000 0.028678 0.000000
# 6 0.000000 0.000000 0.000000 0.000000 0.000000 0.048472
#
#
# Mechanical properties :
#
#
# Convention : Reuss Voigt Hill
#
# Bulk Modulus (GPa) = 12.62121 71.67340 42.14731
# Shear Modulus (GPa) = 24.86324 21.94445 23.40384
#
# Velocity S-wave (km/s) = 3.64588 3.42519 3.53726
# Velocity P-wave (km/s) = 4.94679 7.34579 6.26225
#
# Compressibility (1/GPa) = 0.07923171
#
# Stress axis : x y z
#
# Youngs Moduli (GPa) = 73.81428 9.21816 115.70427
#
# Poissons Ratio (x) = 0.09929 0.57773
# Poissons Ratio (y) = 0.79504 1.15196
# Poissons Ratio (z) = 0.36857 0.09178
#
# Static dielectric constant tensor:
#      x y z
#    x 1.631500 0.000000 0.000000 
#    y 0.000000 1.641280 0.000000 
#    z 0.000000 0.000000 1.710900 
# 
# From -- ./inp_files/66581.got.cif
#   From: 2010.05.17/outbox.cif.g08.bks.cpg/sg63_34_cif.got.tgz:66581.got - 2010.06.03 15:47:04.
