data_PCOD9472268
_publ_section_title
;
Structure prediction by ZEFSAII (Michael W. Deem and Ramdas Pophale) SiO2 
 PCOD9472268
Probable space group: C M C M
;
_chemical_formula_sum "Si O2"
_cell_formula_units_Z 88
_cell_length_a 25.722875
_cell_length_b 25.331587
_cell_length_c 8.530221
_cell_angle_alpha 90.000000
_cell_angle_beta 90.000000
_cell_angle_gamma 90.000000
_cell_volume 5558.302632
_symmetry_space_group_name_H-M "C M C M"
_symmetry_group_IT_number 63
_symmetry_cell_setting 'orthorhombic'
loop_
_space_group_symop_operation_xyz
x,y,z
-x,-y,1/2+z
x,-y,-z
-x,y,1/2-z
-x,-y,-z
x,y,1/2-z
-x,y,z
x,-y,1/2+z
1/2+x,1/2+y,z
1/2-x,1/2-y,1/2+z
1/2+x,1/2-y,-z
1/2-x,1/2+y,1/2-z
1/2-x,1/2-y,-z
1/2+x,1/2+y,1/2-z
1/2-x,1/2+y,z
1/2+x,1/2-y,1/2+z
loop_
_atom_site_type_symbol
_atom_site_label
_atom_site_fract_x
_atom_site_fract_y
_atom_site_fract_z
Si Si1 0.402380 0.619667 0.063126
Si Si2 0.500000 0.441765 0.061533
Si Si3 0.166548 0.744386 0.562701
Si Si4 0.703213 0.440115 0.562154
Si Si5 0.741536 0.665311 0.562157
Si Si6 0.560202 0.267777 0.436873
O O1 0.398440 0.628467 0.250000
O O2 0.351516 0.586991 0.012295
O O3 0.450078 0.583990 0.014968
O O4 0.418309 0.674572 0.983435
O O5 0.500000 0.436603 0.250000
O O6 0.500000 0.500000 0.000000
O O7 0.165177 0.748638 0.750000
O O8 0.206889 0.698210 0.517776
O O9 0.193381 0.798797 0.500797
O O10 0.108184 0.733480 0.502918
O O11 0.709202 0.500000 0.500000
O O12 0.704442 0.442624 0.750000
O O13 0.742049 0.394175 0.503255
O O14 0.737461 0.663649 0.750000
O O15 0.558900 0.262902 0.250000
O O16 0.500000 0.260760 0.493331
#
# Coordination Sequence:
#
# PCOD9472268 Si02
#       6
#    16   8  16  16  16  16
#     4  11  22  35  50  68  92 126 169 213 253 297
#     4  12  24  36  48  62  84 120 168 216 259 298
#     4  10  20  34  53  77 101 131 169 210 257 306
#     4  11  23  36  52  73  99 131 169 210 256 304
#     4  10  20  34  54  76 101 131 168 212 256 305
#     4  11  22  34  51  74 101 134 170 211 256 302
#
# _framework density 15.832172
#
# number of rings (size 3 to 8) (size 9 to 14) (size 15 to 20)
#    0.000    1.273    2.727    4.091    0.000    6.909 
#    0.000    0.000    0.000    0.000    0.000    0.000 
#    0.000    0.727    0.000    2.364    0.000    3.455 
#
# Total GULP energy -245288.698859 kJ/mol
# GULP energy per Si atom -5574.743156 kJ/mol
# Density = 1.579614 g / cm^3
# Si number density = 15.832172 Si / 1000 Ang^3
#
#
#
# Elastic Constant Matrix: (Units=GPa)
#
#
# Indices 1 2 3 4 5 6 
#
# 1 119.1387 52.5578 23.7669 0.0000 0.0000 0.0000
# 2 52.5578 85.8485 18.8770 0.0000 0.0000 0.0000
# 3 23.7669 18.8770 24.1832 0.0000 0.0000 0.0000
# 4 0.0000 0.0000 0.0000 25.1600 0.0000 0.0000
# 5 0.0000 0.0000 0.0000 0.0000 69.4043 0.0000
# 6 0.0000 0.0000 0.0000 0.0000 0.0000 -46.4029
#
#
#
# Elastic Compliance Matrix: (Units=1/GPa)
#
#
# Indices 1 2 3 4 5 6 
#
# 1 0.012575 -0.006013 -0.007665 0.000000 0.000000 0.000000
# 2 -0.006013 0.016938 -0.007311 0.000000 0.000000 0.000000
# 3 -0.007665 -0.007311 0.054591 0.000000 0.000000 0.000000
# 4 0.000000 0.000000 0.000000 0.039746 0.000000 0.000000
# 5 0.000000 0.000000 0.000000 0.000000 0.014408 0.000000
# 6 0.000000 0.000000 0.000000 0.000000 0.000000 -0.021550
#
#
# Mechanical properties :
#
#
# Convention : Reuss Voigt Hill
#
# Bulk Modulus (GPa) = 23.73900 46.61931 35.17916
# Shear Modulus (GPa) = 28.94707 18.56352 23.75530
#
# Velocity S-wave (km/s) = 4.28058 3.42792 3.87776
# Velocity P-wave (km/s) = 6.28155 6.72141 6.50520
#
# Compressibility (1/GPa) = 0.04212477
#
# Stress axis : x y z
#
# Youngs Moduli (GPa) = 79.51979 59.04008 18.31799
#
# Poissons Ratio (x) = 0.35504 0.14041
# Poissons Ratio (y) = 0.47819 0.13393
# Poissons Ratio (z) = 0.60952 0.43166
#
# Static dielectric constant tensor:
#      x y z
#    x 1.546200 0.000000 0.000000 
#    y 0.000000 1.531300 0.000000 
#    z 0.000000 0.000000 1.537850 
# 
# From -- ./inp_files/14359.got.cif
#   From: 2010.05.17/outbox.cif.g08.bks.cpg/sg63_8_cif.got.tgz:14359.got - 2010.06.03 15:47:04.
