data_PCOD9472737
_publ_section_title
;
Structure prediction by ZEFSAII (Michael W. Deem and Ramdas Pophale) SiO2 
 PCOD9472737
Probable space group: C M C M
;
_chemical_formula_sum "Si O2"
_cell_formula_units_Z 116
_cell_length_a 10.082042
_cell_length_b 25.001657
_cell_length_c 23.697963
_cell_angle_alpha 90.000000
_cell_angle_beta 90.000000
_cell_angle_gamma 90.000000
_cell_volume 5973.492354
_symmetry_space_group_name_H-M "C M C M"
_symmetry_group_IT_number 63
_symmetry_cell_setting 'orthorhombic'
loop_
_space_group_symop_operation_xyz
x,y,z
-x,-y,1/2+z
x,-y,-z
-x,y,1/2-z
-x,-y,-z
x,y,1/2-z
-x,y,z
x,-y,1/2+z
1/2+x,1/2+y,z
1/2-x,1/2-y,1/2+z
1/2+x,1/2-y,-z
1/2-x,1/2+y,1/2-z
1/2-x,1/2-y,-z
1/2+x,1/2+y,1/2-z
1/2-x,1/2+y,z
1/2+x,1/2-y,1/2+z
loop_
_atom_site_type_symbol
_atom_site_label
_atom_site_fract_x
_atom_site_fract_y
_atom_site_fract_z
Si Si1 0.853106 0.766011 0.951933
Si Si2 0.845389 0.423496 0.684750
Si Si3 0.847896 0.917211 0.469672
Si Si4 0.848213 0.031512 0.091147
Si Si5 0.743318 0.306793 0.840541
Si Si6 0.851444 0.649789 0.899324
Si Si7 0.147369 0.189860 0.816984
Si Si8 0.500000 0.696641 0.250000
O O1 0.801049 0.808362 0.906184
O O2 0.865796 0.711559 0.916255
O O3 0.000000 0.780329 0.973592
O O4 0.750000 0.750000 0.000000
O O5 0.810231 0.435395 0.750000
O O6 0.752867 0.454093 0.640385
O O7 0.822051 0.360201 0.675015
O O8 0.000000 0.436100 0.676119
O O9 0.826901 0.933477 0.534655
O O10 0.734952 0.878152 0.447579
O O11 0.000000 0.897553 0.464050
O O12 0.837892 0.970859 0.431614
O O13 0.000000 0.040666 0.110348
O O14 0.825422 0.252079 0.831729
O O15 0.616332 0.303277 0.799530
O O16 0.759312 0.652535 0.844305
O O17 0.000000 0.627443 0.892159
O O18 0.152070 0.185184 0.750000
O O19 0.000000 0.175216 0.837439
#
# Coordination Sequence:
#
# PCOD9472737 Si02
#       8
#    16  16  16  16  16  16  16   4
#     4  10  23  38  52  80 118 156 196 236 287 345
#     4  11  24  39  57  88 124 156 193 243 297 352
#     4   9  19  41  63  87 113 145 189 239 292 353
#     4   9  21  39  65  88 111 145 191 239 291 354
#     4  11  22  36  59  83 116 157 203 245 293 346
#     4  10  22  36  56  83 114 147 191 238 285 342
#     4  10  20  35  56  81 111 152 195 237 287 342
#     4  12  20  36  62  88 112 158 210 264 288 352
#
# _framework density 19.419125999999999
#
# number of rings (size 3 to 8) (size 9 to 14) (size 15 to 20)
#    0.000    1.931    2.069    1.655    3.862    6.069 
#    0.000    2.069    0.000    0.828    0.000    0.000 
#    0.000    0.000    0.000    0.000    0.000    0.000 
#
# Total GULP energy -323177.980889 kJ/mol
# GULP energy per Si atom -5572.034153 kJ/mol
# Density = 1.937493 g / cm^3
# Si number density = 19.419126 Si / 1000 Ang^3
#
#
#
# Elastic Constant Matrix: (Units=GPa)
#
#
# Indices 1 2 3 4 5 6 
#
# 1 148.1444 24.0492 76.5749 0.0000 0.0000 0.0000
# 2 24.0492 37.7145 14.4869 0.0000 0.0000 0.0000
# 3 76.5749 14.4869 119.1870 0.0000 0.0000 0.0000
# 4 0.0000 0.0000 0.0000 23.5051 0.0000 0.0000
# 5 0.0000 0.0000 0.0000 0.0000 33.5643 0.0000
# 6 0.0000 0.0000 0.0000 0.0000 0.0000 17.2434
#
#
#
# Elastic Compliance Matrix: (Units=1/GPa)
#
#
# Indices 1 2 3 4 5 6 
#
# 1 0.010764 -0.004413 -0.006379 0.000000 0.000000 0.000000
# 2 -0.004413 0.029623 -0.000765 0.000000 0.000000 0.000000
# 3 -0.006379 -0.000765 0.012582 0.000000 0.000000 0.000000
# 4 0.000000 0.000000 0.000000 0.042544 0.000000 0.000000
# 5 0.000000 0.000000 0.000000 0.000000 0.029794 0.000000
# 6 0.000000 0.000000 0.000000 0.000000 0.000000 0.057993
#
#
# Mechanical properties :
#
#
# Convention : Reuss Voigt Hill
#
# Bulk Modulus (GPa) = 33.49702 59.47419 46.48560
# Shear Modulus (GPa) = 23.10898 27.52488 25.31693
#
# Velocity S-wave (km/s) = 3.45340 3.76894 3.61461
# Velocity P-wave (km/s) = 5.76092 7.04506 6.43510
#
# Compressibility (1/GPa) = 0.02985340
#
# Stress axis : x y z
#
# Youngs Moduli (GPa) = 92.90241 33.75735 79.48088
#
# Poissons Ratio (x) = 0.14899 0.50702
# Poissons Ratio (y) = 0.41002 0.06081
# Poissons Ratio (z) = 0.59264 0.02583
#
# Static dielectric constant tensor:
#      x y z
#    x 1.692200 0.000000 0.000000 
#    y 0.000000 1.691300 0.000000 
#    z 0.000000 0.000000 1.675420 
# 
# From -- ./inp_files/60470.got.cif
#   From: 2010.05.17/outbox.cif.g08.bks.cpg/sg63_31_cif.got.tgz:60470.got - 2010.06.03 15:47:04.
