data_PCOD9472164
_publ_section_title
;
Structure prediction by ZEFSAII (Michael W. Deem and Ramdas Pophale) SiO2 
 PCOD9472164
Probable space group: C M C M
;
_chemical_formula_sum "Si O2"
_cell_formula_units_Z 112
_cell_length_a 15.599020
_cell_length_b 30.502865
_cell_length_c 14.314998
_cell_angle_alpha 90.000000
_cell_angle_beta 90.000000
_cell_angle_gamma 90.000000
_cell_volume 6811.287927
_symmetry_space_group_name_H-M "C M C M"
_symmetry_group_IT_number 63
_symmetry_cell_setting 'orthorhombic'
loop_
_space_group_symop_operation_xyz
x,y,z
-x,-y,1/2+z
x,-y,-z
-x,y,1/2-z
-x,-y,-z
x,y,1/2-z
-x,y,z
x,-y,1/2+z
1/2+x,1/2+y,z
1/2-x,1/2-y,1/2+z
1/2+x,1/2-y,-z
1/2-x,1/2+y,1/2-z
1/2-x,1/2-y,-z
1/2+x,1/2+y,1/2-z
1/2-x,1/2+y,z
1/2+x,1/2-y,1/2+z
loop_
_atom_site_type_symbol
_atom_site_label
_atom_site_fract_x
_atom_site_fract_y
_atom_site_fract_z
Si Si1 0.000000 0.506607 0.389829
Si Si2 0.346462 0.153453 0.479063
Si Si3 0.257273 0.432963 0.984952
Si Si4 0.192092 0.505337 0.855974
Si Si5 0.400218 0.783594 0.357892
Si Si6 0.397938 0.605196 0.358641
Si Si7 0.000000 0.611700 0.140250
Si Si8 0.296017 0.695883 0.140951
O O1 0.000000 0.500000 0.500000
O O2 0.910218 0.485702 0.356732
O O3 0.000000 0.558568 0.367212
O O4 0.285612 0.113242 0.507304
O O5 0.383510 0.177842 0.569011
O O6 0.418807 0.132698 0.412582
O O7 0.286795 0.186642 0.421119
O O8 0.202992 0.458166 0.905048
O O9 0.348292 0.424202 0.935045
O O10 0.246366 0.462613 0.076972
O O11 0.222401 0.505556 0.750000
O O12 0.382047 0.796362 0.250000
O O13 0.500000 0.770886 0.362541
O O14 0.343315 0.741160 0.381299
O O15 0.378945 0.592162 0.250000
O O16 0.500000 0.604495 0.370711
O O17 0.360342 0.654425 0.369709
O O18 0.000000 0.622510 0.250000
O O19 0.271477 0.696930 0.250000
#
# Coordination Sequence:
#
# PCOD9472164 Si02
#       8
#     8  16  16  16  16  16   8  16
#     4  12  20  36  52  75 104 139 178 216 256 305
#     4  11  20  34  50  75 106 135 169 213 264 307
#     4  10  21  34  52  75 104 131 170 217 255 311
#     4  11  21  35  52  72 101 140 177 211 252 303
#     4  10  20  34  51  73 103 140 176 213 254 302
#     4   9  17  32  56  83 106 130 165 214 265 310
#     4  12  22  32  51  76 105 136 168 214 263 309
#     4   9  18  32  53  78 104 134 172 212 255 309
#
# _framework density 16.443292
#
# number of rings (size 3 to 8) (size 9 to 14) (size 15 to 20)
#    0.000    1.714    3.571    2.357    0.000    3.429 
#    0.000    1.429    0.000    1.286    0.000    0.000 
#    0.000    0.000    0.000    0.000    0.000    0.000 
#
# Total GULP energy -312176.267666 kJ/mol
# GULP energy per Si atom -5574.576208 kJ/mol
# Density = 1.640587 g / cm^3
# Si number density = 16.443292 Si / 1000 Ang^3
#
#
#
# Elastic Constant Matrix: (Units=GPa)
#
#
# Indices 1 2 3 4 5 6 
#
# 1 64.8003 14.8789 27.1821 0.0000 0.0000 0.0000
# 2 14.8789 56.4511 42.3106 0.0000 0.0000 0.0000
# 3 27.1821 42.3106 105.8501 0.0000 0.0000 0.0000
# 4 0.0000 0.0000 0.0000 17.5826 0.0000 0.0000
# 5 0.0000 0.0000 0.0000 0.0000 25.3478 0.0000
# 6 0.0000 0.0000 0.0000 0.0000 0.0000 22.9524
#
#
#
# Elastic Compliance Matrix: (Units=1/GPa)
#
#
# Indices 1 2 3 4 5 6 
#
# 1 0.017418 -0.001768 -0.003766 0.000000 0.000000 0.000000
# 2 -0.001768 0.025471 -0.009727 0.000000 0.000000 0.000000
# 3 -0.003766 -0.009727 0.014303 0.000000 0.000000 0.000000
# 4 0.000000 0.000000 0.000000 0.056875 0.000000 0.000000
# 5 0.000000 0.000000 0.000000 0.000000 0.039451 0.000000
# 6 0.000000 0.000000 0.000000 0.000000 0.000000 0.043568
#
#
# Mechanical properties :
#
#
# Convention : Reuss Voigt Hill
#
# Bulk Modulus (GPa) = 37.49731 43.98273 40.74002
# Shear Modulus (GPa) = 21.14179 22.69188 21.91683
#
# Velocity S-wave (km/s) = 3.58961 3.71888 3.65482
# Velocity P-wave (km/s) = 6.32724 6.72653 6.52994
#
# Compressibility (1/GPa) = 0.02666858
#
# Stress axis : x y z
#
# Youngs Moduli (GPa) = 57.41255 39.26001 69.91695
#
# Poissons Ratio (x) = 0.06942 0.26332
# Poissons Ratio (y) = 0.10151 0.68011
# Poissons Ratio (z) = 0.21622 0.38190
#
# Static dielectric constant tensor:
#      x y z
#    x 1.554190 0.000000 0.000000 
#    y 0.000000 1.550360 0.000000 
#    z 0.000000 0.000000 1.550740 
# 
# From -- ./inp_files/32614.got.cif
#   From: 2010.05.17/outbox.cif.g08.bks.cpg/sg63_17_cif.got.tgz:32614.got - 2010.06.03 15:47:04.
