data_PCOD9472600
_publ_section_title
;
Structure prediction by ZEFSAII (Michael W. Deem and Ramdas Pophale) SiO2 
 PCOD9472600
Probable space group: C M C M
;
_chemical_formula_sum "Si O2"
_cell_formula_units_Z 96
_cell_length_a 7.390252
_cell_length_b 20.489777
_cell_length_c 29.137870
_cell_angle_alpha 90.000000
_cell_angle_beta 90.000000
_cell_angle_gamma 90.000000
_cell_volume 4412.190760
_symmetry_space_group_name_H-M "C M C M"
_symmetry_group_IT_number 63
_symmetry_cell_setting 'orthorhombic'
loop_
_space_group_symop_operation_xyz
x,y,z
-x,-y,1/2+z
x,-y,-z
-x,y,1/2-z
-x,-y,-z
x,y,1/2-z
-x,y,z
x,-y,1/2+z
1/2+x,1/2+y,z
1/2-x,1/2-y,1/2+z
1/2+x,1/2-y,-z
1/2-x,1/2+y,1/2-z
1/2-x,1/2-y,-z
1/2+x,1/2+y,1/2-z
1/2-x,1/2+y,z
1/2+x,1/2-y,1/2+z
loop_
_atom_site_type_symbol
_atom_site_label
_atom_site_fract_x
_atom_site_fract_y
_atom_site_fract_z
Si Si1 0.216194 0.799324 0.458201
Si Si2 0.220356 0.117948 0.801785
Si Si3 0.212773 0.872815 0.697434
Si Si4 0.720574 0.505645 0.139515
Si Si5 0.281572 0.257472 0.358875
Si Si6 0.278913 0.548950 0.959316
O O1 0.250000 0.750000 0.500000
O O2 0.282791 0.765402 0.411187
O O3 0.280628 0.874869 0.463518
O O4 0.000000 0.805378 0.453782
O O5 0.283251 0.123199 0.750000
O O6 0.272853 0.051152 0.825531
O O7 0.279446 0.178358 0.832135
O O8 0.000000 0.118989 0.801263
O O9 0.285443 0.871684 0.750000
O O10 0.228739 0.804680 0.671012
O O11 0.000000 0.887435 0.702175
O O12 0.286080 0.927561 0.662553
O O13 0.500000 0.508247 0.136915
O O14 0.778744 0.483417 0.088899
O O15 0.500000 0.257014 0.360072
O O16 0.500000 0.550437 0.959674
O O17 0.223105 0.500000 0.000000
#
# Coordination Sequence:
#
# PCOD9472600 Si02
#       6
#    16  16  16  16  16  16
#     4  10  21  36  55  80 108 137 174 218 264 318
#     4   9  15  26  48  73  96 127 168 214 258 298
#     4  10  21  34  51  80 112 140 173 215 264 313
#     4   9  16  29  48  73 104 133 168 216 262 305
#     4  10  20  35  53  76 106 139 176 214 255 312
#     4   9  17  30  50  76 102 131 171 218 265 310
#
# _framework density 21.757901
#
# number of rings (size 3 to 8) (size 9 to 14) (size 15 to 20)
#    0.000    2.500    1.667    1.000    2.333    3.667 
#    0.000    0.000    0.000    2.500    0.000    0.000 
#    0.000    0.000    0.000    0.000    0.000    0.000 
#
# Total GULP energy -267957.613560 kJ/mol
# GULP energy per Si atom -5582.450282 kJ/mol
# Density = 2.170838 g / cm^3
# Si number density = 21.757901 Si / 1000 Ang^3
#
#
#
# Elastic Constant Matrix: (Units=GPa)
#
#
# Indices 1 2 3 4 5 6 
#
# 1 72.9831 -6.2114 -0.1816 0.0000 0.0000 0.0000
# 2 -6.2114 91.0175 21.9021 0.0000 0.0000 0.0000
# 3 -0.1816 21.9021 154.9361 0.0000 0.0000 0.0000
# 4 0.0000 0.0000 0.0000 43.0425 0.0000 0.0000
# 5 0.0000 0.0000 0.0000 0.0000 4.6072 0.0000
# 6 0.0000 0.0000 0.0000 0.0000 0.0000 66.9849
#
#
#
# Elastic Compliance Matrix: (Units=1/GPa)
#
#
# Indices 1 2 3 4 5 6 
#
# 1 0.013784 0.000970 -0.000121 0.000000 0.000000 0.000000
# 2 0.000970 0.011442 -0.001616 0.000000 0.000000 0.000000
# 3 -0.000121 -0.001616 0.006683 0.000000 0.000000 0.000000
# 4 0.000000 0.000000 0.000000 0.023233 0.000000 0.000000
# 5 0.000000 0.000000 0.000000 0.000000 0.217053 0.000000
# 6 0.000000 0.000000 0.000000 0.000000 0.000000 0.014929
#
#
# Mechanical properties :
#
#
# Convention : Reuss Voigt Hill
#
# Bulk Modulus (GPa) = 32.92318 38.88385 35.90351
# Shear Modulus (GPa) = 16.73455 43.15544 29.94500
#
# Velocity S-wave (km/s) = 2.77632 4.45841 3.71385
# Velocity P-wave (km/s) = 5.04398 6.66432 5.90994
#
# Compressibility (1/GPa) = 0.03037374
#
# Stress axis : x y z
#
# Youngs Moduli (GPa) = 72.54767 87.39706 149.64196
#
# Poissons Ratio (x) = -0.08476 0.01810
# Poissons Ratio (y) = -0.07036 0.24187
# Poissons Ratio (z) = 0.00877 0.14126
#
# Static dielectric constant tensor:
#      x y z
#    x 1.860150 0.000000 0.000000 
#    y 0.000000 1.749800 0.000000 
#    z 0.000000 0.000000 1.764930 
# 
# From -- ./inp_files/61447.got.cif
#   From: 2010.05.17/outbox.cif.g08.bks.cpg/sg63_31_cif.got.tgz:61447.got - 2010.06.03 15:47:04.
