data_PCOD9472088
_publ_section_title
;
Structure prediction by ZEFSAII (Michael W. Deem and Ramdas Pophale) SiO2 
 PCOD9472088
Probable space group: C M C M
;
_chemical_formula_sum "Si O2"
_cell_formula_units_Z 96
_cell_length_a 7.590328
_cell_length_b 20.266088
_cell_length_c 30.343087
_cell_angle_alpha 90.000000
_cell_angle_beta 90.000000
_cell_angle_gamma 90.000000
_cell_volume 4667.563444
_symmetry_space_group_name_H-M "C M C M"
_symmetry_group_IT_number 63
_symmetry_cell_setting 'orthorhombic'
loop_
_space_group_symop_operation_xyz
x,y,z
-x,-y,1/2+z
x,-y,-z
-x,y,1/2-z
-x,-y,-z
x,y,1/2-z
-x,y,z
x,-y,1/2+z
1/2+x,1/2+y,z
1/2-x,1/2-y,1/2+z
1/2+x,1/2-y,-z
1/2-x,1/2+y,1/2-z
1/2-x,1/2-y,-z
1/2+x,1/2+y,1/2-z
1/2-x,1/2+y,z
1/2+x,1/2-y,1/2+z
loop_
_atom_site_type_symbol
_atom_site_label
_atom_site_fract_x
_atom_site_fract_y
_atom_site_fract_z
Si Si1 0.209801 0.852619 0.119871
Si Si2 0.792042 0.552945 0.033733
Si Si3 0.709292 0.679808 0.521444
Si Si4 0.713192 0.992802 0.872436
Si Si5 0.714887 0.890507 0.800065
Si Si6 0.715168 0.260022 0.199303
O O1 0.238174 0.930364 0.127407
O O2 0.277507 0.809879 0.161328
O O3 0.000000 0.840821 0.118688
O O4 0.279494 0.831722 0.071329
O O5 0.773694 0.623806 0.011946
O O6 0.721786 0.540998 0.082439
O O7 0.000000 0.538891 0.037462
O O8 0.713657 0.500000 0.000000
O O9 0.500000 0.672660 0.524211
O O10 0.750000 0.750000 0.500000
O O11 0.500000 0.990589 0.871122
O O12 0.777185 0.947798 0.832294
O O13 0.770000 0.902809 0.750000
O O14 0.500000 0.890604 0.800847
O O15 0.766796 0.815471 0.811785
O O16 0.770607 0.274544 0.250000
O O17 0.500000 0.261920 0.199877
#
# Coordination Sequence:
#
# PCOD9472088 Si02
#       6
#    16  16  16  16  16  16
#     4  10  21  35  53  78 107 137 174 217 260 310
#     4  10  20  36  56  77 106 143 179 215 260 314
#     4  11  24  38  55  79 109 141 177 223 266 314
#     4  10  20  33  54  79 106 139 174 216 262 312
#     4   8  15  29  51  78 103 131 173 219 260 307
#     4   8  15  30  52  76 102 134 173 215 258 306
#
# _framework density 20.567478000000001
#
# number of rings (size 3 to 8) (size 9 to 14) (size 15 to 20)
#    0.000    2.500    1.667    1.500    2.333    2.333 
#    0.000    0.000    0.000    0.000    0.000    2.333 
#    0.000    0.000    0.000    0.000    0.000    0.000 
#
# Total GULP energy -267842.645119 kJ/mol
# GULP energy per Si atom -5580.055107 kJ/mol
# Density = 2.052067 g / cm^3
# Si number density = 20.567478 Si / 1000 Ang^3
#
#
#
# Elastic Constant Matrix: (Units=GPa)
#
#
# Indices 1 2 3 4 5 6 
#
# 1 39.0069 -21.1243 0.5560 0.0000 0.0000 0.0000
# 2 -21.1243 170.6790 136.3753 0.0000 0.0000 0.0000
# 3 0.5560 136.3753 194.5375 0.0000 0.0000 0.0000
# 4 0.0000 0.0000 0.0000 44.4197 0.0000 0.0000
# 5 0.0000 0.0000 0.0000 0.0000 -10.7892 0.0000
# 6 0.0000 0.0000 0.0000 0.0000 0.0000 23.6917
#
#
#
# Elastic Compliance Matrix: (Units=1/GPa)
#
#
# Indices 1 2 3 4 5 6 
#
# 1 0.030450 0.008726 -0.006204 0.000000 0.000000 0.000000
# 2 0.008726 0.015820 -0.011115 0.000000 0.000000 0.000000
# 3 -0.006204 -0.011115 0.012950 0.000000 0.000000 0.000000
# 4 0.000000 0.000000 0.000000 0.022513 0.000000 0.000000
# 5 0.000000 0.000000 0.000000 0.000000 -0.092686 0.000000
# 6 0.000000 0.000000 0.000000 0.000000 0.000000 0.042209
#
#
# Mechanical properties :
#
#
# Convention : Reuss Voigt Hill
#
# Bulk Modulus (GPa) = 23.79027 70.64858 47.21942
# Shear Modulus (GPa) = 80.05763 30.69220 55.37492
#
# Velocity S-wave (km/s) = 6.24571 3.86718 5.19442
# Velocity P-wave (km/s) = 7.97520 7.37322 7.68011
#
# Compressibility (1/GPa) = 0.04203400
#
# Stress axis : x y z
#
# Youngs Moduli (GPa) = 32.84020 63.21030 77.21900
#
# Poissons Ratio (x) = -0.55157 0.47907
# Poissons Ratio (y) = -0.28656 0.85831
# Poissons Ratio (z) = 0.20374 0.70260
#
# Static dielectric constant tensor:
#      x y z
#    x 1.781020 0.000000 0.000000 
#    y 0.000000 1.763670 0.000000 
#    z 0.000000 0.000000 1.704300 
# 
# From -- ./inp_files/66949.got.cif
#   From: 2010.05.17/outbox.cif.g08.bks.cpg/sg63_34_cif.got.tgz:66949.got - 2010.06.03 15:47:04.
