data_PCOD9472411
_publ_section_title
;
Structure prediction by ZEFSAII (Michael W. Deem and Ramdas Pophale) SiO2 
 PCOD9472411
Probable space group: C M C M
;
_chemical_formula_sum "Si O2"
_cell_formula_units_Z 88
_cell_length_a 22.623627
_cell_length_b 23.703055
_cell_length_c 8.616904
_cell_angle_alpha 90.000000
_cell_angle_beta 90.000000
_cell_angle_gamma 90.000000
_cell_volume 4620.806800
_symmetry_space_group_name_H-M "C M C M"
_symmetry_group_IT_number 63
_symmetry_cell_setting 'orthorhombic'
loop_
_space_group_symop_operation_xyz
x,y,z
-x,-y,1/2+z
x,-y,-z
-x,y,1/2-z
-x,-y,-z
x,y,1/2-z
-x,y,z
x,-y,1/2+z
1/2+x,1/2+y,z
1/2-x,1/2-y,1/2+z
1/2+x,1/2-y,-z
1/2-x,1/2+y,1/2-z
1/2-x,1/2-y,-z
1/2+x,1/2+y,1/2-z
1/2-x,1/2+y,z
1/2+x,1/2-y,1/2+z
loop_
_atom_site_type_symbol
_atom_site_label
_atom_site_fract_x
_atom_site_fract_y
_atom_site_fract_z
Si Si1 0.660190 0.650541 0.563097
Si Si2 0.758794 0.439240 0.436123
Si Si3 0.185200 0.734120 0.933306
Si Si4 0.500000 0.064582 0.064260
Si Si5 0.378899 0.118071 0.562118
Si Si6 0.933299 0.942476 0.064403
O O1 0.663792 0.659741 0.750000
O O2 0.717928 0.613865 0.515713
O O3 0.651399 0.709075 0.477186
O O4 0.605749 0.610494 0.525558
O O5 0.740535 0.500000 0.500000
O O6 0.754167 0.441243 0.250000
O O7 0.826507 0.425777 0.478192
O O8 0.192990 0.726337 0.750000
O O9 0.148898 0.678869 0.987906
O O10 0.250000 0.750000 0.000000
O O11 0.500000 0.061814 0.250000
O O12 0.559006 0.097776 0.007933
O O13 0.500000 0.000000 0.000000
O O14 0.385078 0.119419 0.750000
O O15 0.934956 0.946737 0.250000
O O16 0.000000 0.937455 0.004194
O O17 0.906741 0.000000 0.000000
#
# Coordination Sequence:
#
# PCOD9472411 Si02
#       6
#    16  16  16   8  16  16
#     4  10  20  36  55  80 118 154 193 242 292 350
#     4  10  20  34  54  83 115 150 189 239 297 350
#     4  11  22  39  63  88 118 155 194 240 294 352
#     4  12  26  44  68  96 124 162 207 254 311 372
#     4  10  22  42  63  86 121 160 200 249 305 358
#     4   9  18  33  54  79 112 152 190 235 286 337
#
# _framework density 19.044293
#
# number of rings (size 3 to 8) (size 9 to 14) (size 15 to 20)
#    0.000    1.818    1.818    2.455    0.000    5.091 
#    1.636    0.000    0.000    0.000    0.000    0.000 
#    0.000    0.000    0.000    0.000    0.000    0.000 
#
# Total GULP energy -245453.854481 kJ/mol
# GULP energy per Si atom -5578.496693 kJ/mol
# Density = 1.900095 g / cm^3
# Si number density = 19.044293 Si / 1000 Ang^3
#
#
#
# Elastic Constant Matrix: (Units=GPa)
#
#
# Indices 1 2 3 4 5 6 
#
# 1 113.5949 61.0077 34.0203 0.0000 0.0000 0.0000
# 2 61.0077 144.8259 31.9002 0.0000 0.0000 0.0000
# 3 34.0203 31.9002 28.1051 0.0000 0.0000 0.0000
# 4 0.0000 0.0000 0.0000 32.2894 0.0000 0.0000
# 5 0.0000 0.0000 0.0000 0.0000 10.2958 0.0000
# 6 0.0000 0.0000 0.0000 0.0000 0.0000 23.9986
#
#
#
# Elastic Compliance Matrix: (Units=1/GPa)
#
#
# Indices 1 2 3 4 5 6 
#
# 1 0.014750 -0.003041 -0.014403 0.000000 0.000000 0.000000
# 2 -0.003041 0.009834 -0.007480 0.000000 0.000000 0.000000
# 3 -0.014403 -0.007480 0.061505 0.000000 0.000000 0.000000
# 4 0.000000 0.000000 0.000000 0.030970 0.000000 0.000000
# 5 0.000000 0.000000 0.000000 0.000000 0.097127 0.000000
# 6 0.000000 0.000000 0.000000 0.000000 0.000000 0.041669
#
#
# Mechanical properties :
#
#
# Convention : Reuss Voigt Hill
#
# Bulk Modulus (GPa) = 27.59335 60.04248 43.81791
# Shear Modulus (GPa) = 15.73403 23.95662 19.84533
#
# Velocity S-wave (km/s) = 2.87745 3.55060 3.23160
# Velocity P-wave (km/s) = 5.05571 6.95739 6.08134
#
# Compressibility (1/GPa) = 0.03624062
#
# Stress axis : x y z
#
# Youngs Moduli (GPa) = 67.79754 101.69317 16.25878
#
# Poissons Ratio (x) = 0.30924 0.23417
# Poissons Ratio (y) = 0.20617 0.12162
# Poissons Ratio (z) = 0.97646 0.76071
#
# Static dielectric constant tensor:
#      x y z
#    x 1.704850 0.000000 0.000000 
#    y 0.000000 1.668500 0.000000 
#    z 0.000000 0.000000 1.655910 
# 
# From -- ./inp_files/8230.got.cif
#   From: 2010.05.17/outbox.cif.g08.bks.cpg/sg63_5_cif.got.tgz:8230.got - 2010.06.03 15:47:04.
