data_PCOD9472152
_publ_section_title
;
Structure prediction by ZEFSAII (Michael W. Deem and Ramdas Pophale) SiO2 
 PCOD9472152
Probable space group: C M C M
;
_chemical_formula_sum "Si O2"
_cell_formula_units_Z 80
_cell_length_a 8.007463
_cell_length_b 21.190011
_cell_length_c 25.768799
_cell_angle_alpha 90.000000
_cell_angle_beta 90.000000
_cell_angle_gamma 90.000000
_cell_volume 4372.404179
_symmetry_space_group_name_H-M "C M C M"
_symmetry_group_IT_number 63
_symmetry_cell_setting 'orthorhombic'
loop_
_space_group_symop_operation_xyz
x,y,z
-x,-y,1/2+z
x,-y,-z
-x,y,1/2-z
-x,-y,-z
x,y,1/2-z
-x,y,z
x,-y,1/2+z
1/2+x,1/2+y,z
1/2-x,1/2-y,1/2+z
1/2+x,1/2-y,-z
1/2-x,1/2+y,1/2-z
1/2-x,1/2-y,-z
1/2+x,1/2+y,1/2-z
1/2-x,1/2+y,z
1/2+x,1/2-y,1/2+z
loop_
_atom_site_type_symbol
_atom_site_label
_atom_site_fract_x
_atom_site_fract_y
_atom_site_fract_z
Si Si1 0.693224 0.357666 0.750000
Si Si2 0.306659 0.488809 0.250000
Si Si3 0.298755 0.363174 0.637037
Si Si4 0.299018 0.061806 0.969613
Si Si5 0.202179 0.991566 0.362695
Si Si6 0.800919 0.686058 0.471757
O O1 0.500000 0.335944 0.750000
O O2 0.691132 0.434450 0.750000
O O3 0.766394 0.340789 0.806403
O O4 0.500000 0.467658 0.250000
O O5 0.233665 0.470908 0.194177
O O6 0.500000 0.365837 0.641285
O O7 0.241186 0.435780 0.627563
O O8 0.254855 0.321125 0.587790
O O9 0.500000 0.062068 0.973816
O O10 0.254531 0.052476 0.909709
O O11 0.234583 0.125323 0.996423
O O12 0.235206 0.000000 0.000000
O O13 0.000000 0.993100 0.360355
O O14 0.750000 0.750000 0.500000
O O15 0.000000 0.682716 0.472014
#
# Coordination Sequence:
#
# PCOD9472152 Si02
#       6
#     8   8  16  16  16  16
#     4   7  12  24  45  72 101 130 159 197 245 294
#     4   7  12  24  41  70 105 130 155 199 251 286
#     4   9  16  29  50  76 103 131 165 203 245 296
#     4  10  20  34  50  71 102 133 161 202 254 296
#     4   9  16  27  49  76 102 131 166 204 242 295
#     4  11  23  37  52  71 101 137 170 210 255 302
#
# _framework density 18.296569000000002
#
# number of rings (size 3 to 8) (size 9 to 14) (size 15 to 20)
#    0.000    2.800    2.000    3.000    0.000    2.000 
#    0.000    1.000    0.000    4.800    0.000    1.400 
#    0.000    0.000    0.000    0.000    0.000    0.000 
#
# Total GULP energy -222805.463190 kJ/mol
# GULP energy per Si atom -5570.136580 kJ/mol
# Density = 1.825493 g / cm^3
# Si number density = 18.296569 Si / 1000 Ang^3
#
#
#
# Elastic Constant Matrix: (Units=GPa)
#
#
# Indices 1 2 3 4 5 6 
#
# 1 16.8358 10.0522 8.2473 0.0000 0.0000 0.0000
# 2 10.0522 82.6343 71.4906 0.0000 0.0000 0.0000
# 3 8.2473 71.4906 207.5125 0.0000 0.0000 0.0000
# 4 0.0000 0.0000 0.0000 21.5067 0.0000 0.0000
# 5 0.0000 0.0000 0.0000 0.0000 -100.6734 0.0000
# 6 0.0000 0.0000 0.0000 0.0000 0.0000 13.9599
#
#
#
# Elastic Compliance Matrix: (Units=1/GPa)
#
#
# Indices 1 2 3 4 5 6 
#
# 1 0.064055 -0.007963 0.000198 0.000000 0.000000 0.000000
# 2 -0.007963 0.018230 -0.005964 0.000000 0.000000 0.000000
# 3 0.000198 -0.005964 0.006866 0.000000 0.000000 0.000000
# 4 0.000000 0.000000 0.000000 0.046497 0.000000 0.000000
# 5 0.000000 0.000000 0.000000 0.000000 -0.009933 0.000000
# 6 0.000000 0.000000 0.000000 0.000000 0.000000 0.071634
#
#
# Mechanical properties :
#
#
# Convention : Reuss Voigt Hill
#
# Bulk Modulus (GPa) = 16.20955 54.06252 35.13603
# Shear Modulus (GPa) = 20.37727 1.43813 10.90770
#
# Velocity S-wave (km/s) = 3.34087 0.88754 2.44429
# Velocity P-wave (km/s) = 4.87447 5.53736 5.21645
#
# Compressibility (1/GPa) = 0.06169203
#
# Stress axis : x y z
#
# Youngs Moduli (GPa) = 15.61156 54.85507 145.64977
#
# Poissons Ratio (x) = 0.43681 -0.02878
# Poissons Ratio (y) = 0.12431 0.86865
# Poissons Ratio (z) = -0.00308 0.32715
#
# Static dielectric constant tensor:
#      x y z
#    x 1.662240 0.000000 0.000000 
#    y 0.000000 1.612030 0.000000 
#    z 0.000000 0.000000 1.693000 
# 
# From -- ./inp_files/66706.got.cif
#   From: 2010.05.17/outbox.cif.g08.bks.cpg/sg63_34_cif.got.tgz:66706.got - 2010.06.03 15:47:04.
