data_PCOD9472018
_publ_section_title
;
Structure prediction by ZEFSAII (Michael W. Deem and Ramdas Pophale) SiO2 
 PCOD9472018
Probable space group: C M C M
;
_chemical_formula_sum "Si O2"
_cell_formula_units_Z 80
_cell_length_a 15.161182
_cell_length_b 26.356513
_cell_length_c 9.528700
_cell_angle_alpha 90.000000
_cell_angle_beta 90.000000
_cell_angle_gamma 90.000000
_cell_volume 3807.629362
_symmetry_space_group_name_H-M "C M C M"
_symmetry_group_IT_number 63
_symmetry_cell_setting 'orthorhombic'
loop_
_space_group_symop_operation_xyz
x,y,z
-x,-y,1/2+z
x,-y,-z
-x,y,1/2-z
-x,-y,-z
x,y,1/2-z
-x,y,z
x,-y,1/2+z
1/2+x,1/2+y,z
1/2-x,1/2-y,1/2+z
1/2+x,1/2-y,-z
1/2-x,1/2+y,1/2-z
1/2-x,1/2-y,-z
1/2+x,1/2+y,1/2-z
1/2-x,1/2+y,z
1/2+x,1/2-y,1/2+z
loop_
_atom_site_type_symbol
_atom_site_label
_atom_site_fract_x
_atom_site_fract_y
_atom_site_fract_z
Si Si1 0.359911 0.952792 0.090563
Si Si2 0.606068 0.852902 0.591104
Si Si3 0.607748 0.241943 0.588327
Si Si4 0.850728 0.046711 0.907888
Si Si5 0.606298 0.643619 0.410076
O O1 0.394522 0.950805 0.250000
O O2 0.254649 0.959995 0.101432
O O3 0.374898 0.901093 0.005990
O O4 0.395160 0.000000 0.000000
O O5 0.639990 0.859054 0.750000
O O6 0.500000 0.848856 0.599372
O O7 0.639009 0.801631 0.516462
O O8 0.633618 0.231612 0.750000
O O9 0.500000 0.241284 0.586371
O O10 0.635053 0.299294 0.551151
O O11 0.886675 0.046656 0.750000
O O12 0.865504 0.099764 0.985555
O O13 0.886343 0.000000 0.000000
O O14 0.635692 0.632940 0.250000
O O15 0.500000 0.644188 0.408406
#
# Coordination Sequence:
#
# PCOD9472018 Si02
#       5
#    16  16  16  16  16
#     4  10  21  37  55  74  99 133 171 209 253 303
#     4  10  20  33  52  79 106 132 166 207 250 298
#     4   8  15  30  51  74 102 135 167 202 248 297
#     4  10  21  36  54  75 100 133 171 210 254 302
#     4   9  18  33  54  79 105 134 169 208 251 299
#
# _framework density 21.010449000000001
#
# number of rings (size 3 to 8) (size 9 to 14) (size 15 to 20)
#    0.000    2.600    0.000    3.000    0.000    5.600 
#    0.000    3.000    0.000    0.000    0.000    0.000 
#    0.000    0.000    0.000    0.000    0.000    0.000 
#
# Total GULP energy -223361.775740 kJ/mol
# GULP energy per Si atom -5584.044393 kJ/mol
# Density = 2.096263 g / cm^3
# Si number density = 21.010449 Si / 1000 Ang^3
#
#
#
# Elastic Constant Matrix: (Units=GPa)
#
#
# Indices 1 2 3 4 5 6 
#
# 1 41.4845 -0.0588 9.1512 0.0000 0.0000 0.0000
# 2 -0.0588 188.2492 152.5261 0.0000 0.0000 0.0000
# 3 9.1512 152.5261 219.9117 0.0000 0.0000 0.0000
# 4 0.0000 0.0000 0.0000 41.1609 0.0000 0.0000
# 5 0.0000 0.0000 0.0000 0.0000 17.4597 0.0000
# 6 0.0000 0.0000 0.0000 0.0000 0.0000 30.1228
#
#
#
# Elastic Compliance Matrix: (Units=1/GPa)
#
#
# Indices 1 2 3 4 5 6 
#
# 1 0.024627 0.001913 -0.002352 0.000000 0.000000 0.000000
# 2 0.001913 0.012276 -0.008594 0.000000 0.000000 0.000000
# 3 -0.002352 -0.008594 0.010606 0.000000 0.000000 0.000000
# 4 0.000000 0.000000 0.000000 0.024295 0.000000 0.000000
# 5 0.000000 0.000000 0.000000 0.000000 0.057275 0.000000
# 6 0.000000 0.000000 0.000000 0.000000 0.000000 0.033197
#
#
# Mechanical properties :
#
#
# Convention : Reuss Voigt Hill
#
# Bulk Modulus (GPa) = 33.96344 85.87584 59.91964
# Shear Modulus (GPa) = 26.29446 36.95049 31.62247
#
# Velocity S-wave (km/s) = 3.54148 4.19820 3.88375
# Velocity P-wave (km/s) = 5.73785 8.02879 6.97798
#
# Compressibility (1/GPa) = 0.02944342
#
# Stress axis : x y z
#
# Youngs Moduli (GPa) = 40.60611 81.46207 94.29001
#
# Poissons Ratio (x) = -0.15585 0.22174
# Poissons Ratio (y) = -0.07768 0.81030
# Poissons Ratio (z) = 0.09549 0.70006
#
# Static dielectric constant tensor:
#      x y z
#    x 1.799230 0.000000 0.000000 
#    y 0.000000 1.717110 0.000000 
#    z 0.000000 0.000000 1.736080 
# 
# From -- ./inp_files/6382.got.cif
#   From: 2010.05.17/outbox.cif.g08.bks.cpg/sg63_4_cif.got.tgz:6382.got - 2010.06.03 15:47:04.
