data_PCOD9472145
_publ_section_title
;
Structure prediction by ZEFSAII (Michael W. Deem and Ramdas Pophale) SiO2 
 PCOD9472145
Probable space group: C M C M
;
_chemical_formula_sum "Si O2"
_cell_formula_units_Z 72
_cell_length_a 29.971709
_cell_length_b 15.025898
_cell_length_c 9.904804
_cell_angle_alpha 90.000000
_cell_angle_beta 90.000000
_cell_angle_gamma 90.000000
_cell_volume 4460.646729
_symmetry_space_group_name_H-M "C M C M"
_symmetry_group_IT_number 63
_symmetry_cell_setting 'orthorhombic'
loop_
_space_group_symop_operation_xyz
x,y,z
-x,-y,1/2+z
x,-y,-z
-x,y,1/2-z
-x,-y,-z
x,y,1/2-z
-x,y,z
x,-y,1/2+z
1/2+x,1/2+y,z
1/2-x,1/2-y,1/2+z
1/2+x,1/2-y,-z
1/2-x,1/2+y,1/2-z
1/2-x,1/2-y,-z
1/2+x,1/2+y,1/2-z
1/2-x,1/2+y,z
1/2+x,1/2-y,1/2+z
loop_
_atom_site_type_symbol
_atom_site_label
_atom_site_fract_x
_atom_site_fract_y
_atom_site_fract_z
Si Si1 0.048646 0.605621 0.472162
Si Si2 0.292829 0.403655 0.971597
Si Si3 0.218470 0.605738 0.250000
Si Si4 0.234925 0.188035 0.750000
Si Si5 0.086069 0.645669 0.750000
Si Si6 0.884075 0.437692 0.750000
Si Si7 0.329546 0.273005 0.750000
O O1 0.045484 0.500000 0.500000
O O2 0.057726 0.653107 0.613594
O O3 0.091553 0.610079 0.375945
O O4 0.000000 0.632239 0.415676
O O5 0.248315 0.419213 0.880271
O O6 0.322107 0.336595 0.880381
O O7 0.313707 0.500000 0.000000
O O8 0.279844 0.360471 0.113828
O O9 0.215197 0.712563 0.250000
O O10 0.168950 0.568631 0.250000
O O11 0.288063 0.204190 0.750000
O O12 0.103892 0.542938 0.750000
O O13 0.125688 0.716704 0.750000
#
# Coordination Sequence:
#
# PCOD9472145 Si02
#       7
#    16  16   8   8   8   8   8
#     4   9  18  33  49  69 100 136 164 192 241 295
#     4  10  21  35  51  67  95 139 169 207 252 298
#     4  10  21  33  47  74  98 130 173 204 249 281
#     4  10  20  34  50  66  99 130 164 213 249 284
#     4  10  21  31  50  74 103 129 166 208 240 287
#     4  10  21  30  49  75  97 136 169 205 234 285
#     4  10  21  34  48  73  99 125 168 214 252 287
#
# _framework density 16.141157
#
# number of rings (size 3 to 8) (size 9 to 14) (size 15 to 20)
#    0.000    2.444    0.000    4.667    9.333    3.556 
#    0.000    0.000    0.000    0.000    0.000    0.000 
#    0.000    3.556    0.000    0.000    0.000    0.000 
#
# Total GULP energy -200592.460053 kJ/mol
# GULP energy per Si atom -5572.012779 kJ/mol
# Density = 1.610442 g / cm^3
# Si number density = 16.141157 Si / 1000 Ang^3
#
#
#
# Elastic Constant Matrix: (Units=GPa)
#
#
# Indices 1 2 3 4 5 6 
#
# 1 74.8113 12.4660 22.2242 0.0000 0.0000 0.0000
# 2 12.4660 52.8677 26.8633 0.0000 0.0000 0.0000
# 3 22.2242 26.8633 117.5435 0.0000 0.0000 0.0000
# 4 0.0000 0.0000 0.0000 -55.8045 0.0000 0.0000
# 5 0.0000 0.0000 0.0000 0.0000 10.5549 0.0000
# 6 0.0000 0.0000 0.0000 0.0000 0.0000 8.9218
#
#
#
# Elastic Compliance Matrix: (Units=1/GPa)
#
#
# Indices 1 2 3 4 5 6 
#
# 1 0.014401 -0.002276 -0.002202 0.000000 0.000000 0.000000
# 2 -0.002276 0.021760 -0.004543 0.000000 0.000000 0.000000
# 3 -0.002202 -0.004543 0.009962 0.000000 0.000000 0.000000
# 4 0.000000 0.000000 0.000000 -0.017920 0.000000 0.000000
# 5 0.000000 0.000000 0.000000 0.000000 0.094743 0.000000
# 6 0.000000 0.000000 0.000000 0.000000 0.000000 0.112085
#
#
# Mechanical properties :
#
#
# Convention : Reuss Voigt Hill
#
# Bulk Modulus (GPa) = 35.61297 40.92548 38.26922
# Shear Modulus (GPa) = 19.05242 4.97905 12.01574
#
# Velocity S-wave (km/s) = 3.43937 1.75823 2.73136
# Velocity P-wave (km/s) = 6.15497 5.43430 5.80583
#
# Compressibility (1/GPa) = 0.02807966
#
# Stress axis : x y z
#
# Youngs Moduli (GPa) = 69.44157 45.95565 100.38066
#
# Poissons Ratio (x) = 0.10462 0.22109
# Poissons Ratio (y) = 0.15808 0.45599
# Poissons Ratio (z) = 0.15294 0.20876
#
# Static dielectric constant tensor:
#      x y z
#    x 1.537170 0.000000 0.000000 
#    y 0.000000 1.538110 0.000000 
#    z 0.000000 0.000000 1.582330 
# 
# From -- ./inp_files/13966.got.cif
#   From: 2010.05.17/outbox.cif.g08.bks.cpg/sg63_7_cif.got.tgz:13966.got - 2010.06.03 15:47:04.
