data_PCOD9472667
_publ_section_title
;
Structure prediction by ZEFSAII (Michael W. Deem and Ramdas Pophale) SiO2 
 PCOD9472667
Probable space group: C M C M
;
_chemical_formula_sum "Si O2"
_cell_formula_units_Z 80
_cell_length_a 13.521285
_cell_length_b 19.057118
_cell_length_c 14.864150
_cell_angle_alpha 90.000000
_cell_angle_beta 90.000000
_cell_angle_gamma 90.000000
_cell_volume 3830.145473
_symmetry_space_group_name_H-M "C M C M"
_symmetry_group_IT_number 63
_symmetry_cell_setting 'orthorhombic'
loop_
_space_group_symop_operation_xyz
x,y,z
-x,-y,1/2+z
x,-y,-z
-x,y,1/2-z
-x,-y,-z
x,y,1/2-z
-x,y,z
x,-y,1/2+z
1/2+x,1/2+y,z
1/2-x,1/2-y,1/2+z
1/2+x,1/2-y,-z
1/2-x,1/2+y,1/2-z
1/2-x,1/2-y,-z
1/2+x,1/2+y,1/2-z
1/2-x,1/2+y,z
1/2+x,1/2-y,1/2+z
loop_
_atom_site_type_symbol
_atom_site_label
_atom_site_fract_x
_atom_site_fract_y
_atom_site_fract_z
Si Si1 0.111807 0.386267 0.029390
Si Si2 0.686515 0.763448 0.142458
Si Si3 0.201586 0.972790 0.095806
Si Si4 0.734453 0.119988 0.349558
Si Si5 0.392851 0.328645 0.143821
O O1 0.117992 0.312849 0.083151
O O2 0.190387 0.437683 0.078187
O O3 0.000000 0.412415 0.030197
O O4 0.153603 0.378686 0.928358
O O5 0.674681 0.778565 0.250000
O O6 0.684441 0.680060 0.129744
O O7 0.797859 0.785561 0.111781
O O8 0.133881 0.910603 0.131990
O O9 0.217843 0.043137 0.151251
O O10 0.163297 0.000000 0.000000
O O11 0.694138 0.136649 0.250000
O O12 0.397724 0.314574 0.250000
O O13 0.500000 0.311981 0.103407
#
# Coordination Sequence:
#
# PCOD9472667 Si02
#       5
#    16  16  16  16  16
#     4  10  21  37  56  79 109 146 185 221 263 322
#     4   9  19  36  56  78 106 140 178 221 269 320
#     4   9  19  34  52  74 104 139 177 220 264 315
#     4  10  20  35  55  78 108 143 178 224 276 318
#     4   9  17  31  51  73  98 130 169 213 263 320
#
# _framework density 20.886935000000001
#
# number of rings (size 3 to 8) (size 9 to 14) (size 15 to 20)
#    0.000    2.600    0.000    1.200    0.000    6.400 
#    0.000    3.000    0.000    1.200    0.000    0.000 
#    0.000    0.000    0.000    0.000    0.000    0.000 
#
# Total GULP energy -223133.346332 kJ/mol
# GULP energy per Si atom -5578.333658 kJ/mol
# Density = 2.083940 g / cm^3
# Si number density = 20.886935 Si / 1000 Ang^3
#
#
#
# Elastic Constant Matrix: (Units=GPa)
#
#
# Indices 1 2 3 4 5 6 
#
# 1 40.3232 -7.4635 2.6082 0.0000 0.0000 0.0000
# 2 -7.4635 106.2983 18.2664 0.0000 0.0000 0.0000
# 3 2.6082 18.2664 67.6027 0.0000 0.0000 0.0000
# 4 0.0000 0.0000 0.0000 26.0490 0.0000 0.0000
# 5 0.0000 0.0000 0.0000 0.0000 6.3804 0.0000
# 6 0.0000 0.0000 0.0000 0.0000 0.0000 -7.2791
#
#
#
# Elastic Compliance Matrix: (Units=1/GPa)
#
#
# Indices 1 2 3 4 5 6 
#
# 1 0.025275 0.002037 -0.001525 0.000000 0.000000 0.000000
# 2 0.002037 0.010030 -0.002789 0.000000 0.000000 0.000000
# 3 -0.001525 -0.002789 0.015605 0.000000 0.000000 0.000000
# 4 0.000000 0.000000 0.000000 0.038389 0.000000 0.000000
# 5 0.000000 0.000000 0.000000 0.000000 0.156731 0.000000
# 6 0.000000 0.000000 0.000000 0.000000 0.000000 -0.137379
#
#
# Mechanical properties :
#
#
# Convention : Reuss Voigt Hill
#
# Bulk Modulus (GPa) = 21.57268 26.78295 24.17781
# Shear Modulus (GPa) = 38.86297 18.41759 28.64028
#
# Velocity S-wave (km/s) = 4.31819 2.97269 3.70700
# Velocity P-wave (km/s) = 5.93406 4.96318 5.47020
#
# Compressibility (1/GPa) = 0.04635493
#
# Stress axis : x y z
#
# Youngs Moduli (GPa) = 39.56438 99.70388 64.08346
#
# Poissons Ratio (x) = -0.20307 0.09776
# Poissons Ratio (y) = -0.08058 0.17871
# Poissons Ratio (z) = 0.06036 0.27804
#
# Static dielectric constant tensor:
#      x y z
#    x 1.740630 0.000000 0.000000 
#    y 0.000000 1.788350 0.000000 
#    z 0.000000 0.000000 1.784100 
# 
# From -- ./inp_files/31662.got.cif
#   From: 2010.05.17/outbox.cif.g08.bks.cpg/sg63_16_cif.got.tgz:31662.got - 2010.06.03 15:47:04.
