data_PCOD9472426
_publ_section_title
;
Structure prediction by ZEFSAII (Michael W. Deem and Ramdas Pophale) SiO2 
 PCOD9472426
Probable space group: C M C M
;
_chemical_formula_sum "Si O2"
_cell_formula_units_Z 104
_cell_length_a 27.033225
_cell_length_b 22.518765
_cell_length_c 9.179940
_cell_angle_alpha 90.000000
_cell_angle_beta 90.000000
_cell_angle_gamma 90.000000
_cell_volume 5588.332915
_symmetry_space_group_name_H-M "C M C M"
_symmetry_group_IT_number 63
_symmetry_cell_setting 'orthorhombic'
loop_
_space_group_symop_operation_xyz
x,y,z
-x,-y,1/2+z
x,-y,-z
-x,y,1/2-z
-x,-y,-z
x,y,1/2-z
-x,y,z
x,-y,1/2+z
1/2+x,1/2+y,z
1/2-x,1/2-y,1/2+z
1/2+x,1/2-y,-z
1/2-x,1/2+y,1/2-z
1/2-x,1/2-y,-z
1/2+x,1/2+y,1/2-z
1/2-x,1/2+y,z
1/2+x,1/2-y,1/2+z
loop_
_atom_site_type_symbol
_atom_site_label
_atom_site_fract_x
_atom_site_fract_y
_atom_site_fract_z
Si Si1 0.942995 0.805491 0.071712
Si Si2 0.742494 0.687908 0.578239
Si Si3 0.206099 0.580214 0.413609
Si Si4 0.940351 0.328519 0.919490
Si Si5 0.856207 0.115535 0.918658
Si Si6 0.394602 0.058623 0.923963
Si Si7 0.793209 0.000000 0.500000
O O1 0.942662 0.805634 0.250000
O O2 0.926250 0.738440 0.032227
O O3 0.905903 0.856247 0.014749
O O4 0.000000 0.814291 0.026842
O O5 0.756039 0.688913 0.750000
O O6 0.750000 0.750000 0.500000
O O7 0.772984 0.639272 0.488422
O O8 0.685861 0.665921 0.569706
O O9 0.187123 0.589935 0.250000
O O10 0.161776 0.560949 0.518630
O O11 0.252029 0.534316 0.403238
O O12 0.925131 0.336634 0.750000
O O13 0.000000 0.330146 0.922707
O O14 0.919234 0.381007 0.017721
O O15 0.867896 0.106350 0.750000
O O16 0.829952 0.054150 0.962629
O O17 0.396662 0.053882 0.750000
O O18 0.417407 0.000000 0.000000
#
# Coordination Sequence:
#
# PCOD9472426 Si02
#       7
#    16  16  16  16  16  16   8
#     4   8  15  31  57  86 113 144 185 234 288 346
#     4  10  21  35  52  80 114 147 188 238 291 349
#     4  11  22  37  57  77 109 154 195 239 289 344
#     4   9  19  37  61  87 115 149 191 238 292 353
#     4   9  18  32  52  79 110 147 191 239 288 342
#     4  12  25  39  58  84 113 150 195 242 292 348
#     4  10  20  34  55  78 113 152 198 238 290 348
#
# _framework density 18.610202999999998
#
# number of rings (size 3 to 8) (size 9 to 14) (size 15 to 20)
#    0.000    2.154    0.769    3.692    2.154    1.846 
#    0.000    0.385    0.000    0.923    0.000    0.000 
#    0.000    0.000    0.000    0.000    0.000    0.000 
#
# Total GULP energy -289532.806698 kJ/mol
# GULP energy per Si atom -5567.938590 kJ/mol
# Density = 1.856784 g / cm^3
# Si number density = 18.610203 Si / 1000 Ang^3
#
#
#
# Elastic Constant Matrix: (Units=GPa)
#
#
# Indices 1 2 3 4 5 6 
#
# 1 55.0366 58.8837 23.1633 0.0000 0.0000 0.0000
# 2 58.8837 134.4805 52.8662 0.0000 0.0000 0.0000
# 3 23.1633 52.8662 95.9634 0.0000 0.0000 0.0000
# 4 0.0000 0.0000 0.0000 -9.5119 0.0000 0.0000
# 5 0.0000 0.0000 0.0000 0.0000 16.2981 0.0000
# 6 0.0000 0.0000 0.0000 0.0000 0.0000 29.0138
#
#
#
# Elastic Compliance Matrix: (Units=1/GPa)
#
#
# Indices 1 2 3 4 5 6 
#
# 1 0.034184 -0.014965 -0.000007 0.000000 0.000000 0.000000
# 2 -0.014965 0.016043 -0.005226 0.000000 0.000000 0.000000
# 3 -0.000007 -0.005226 0.013301 0.000000 0.000000 0.000000
# 4 0.000000 0.000000 0.000000 -0.105132 0.000000 0.000000
# 5 0.000000 0.000000 0.000000 0.000000 0.061357 0.000000
# 6 0.000000 0.000000 0.000000 0.000000 0.000000 0.034466
#
#
# Mechanical properties :
#
#
# Convention : Reuss Voigt Hill
#
# Bulk Modulus (GPa) = 43.22959 61.70078 52.46519
# Shear Modulus (GPa) = 48.86382 17.19783 33.03082
#
# Velocity S-wave (km/s) = 5.12967 3.04321 4.21750
# Velocity P-wave (km/s) = 7.63964 6.75088 7.20897
#
# Compressibility (1/GPa) = 0.02313230
#
# Stress axis : x y z
#
# Youngs Moduli (GPa) = 29.25379 62.33277 75.18098
#
# Poissons Ratio (x) = 0.93280 0.00052
# Poissons Ratio (y) = 0.43778 0.39289
# Poissons Ratio (z) = 0.00020 0.32574
#
# Static dielectric constant tensor:
#      x y z
#    x 1.680020 0.000000 0.000000 
#    y 0.000000 1.718120 0.000000 
#    z 0.000000 0.000000 1.646170 
# 
# From -- ./inp_files/12502.got.cif
#   From: 2010.05.17/outbox.cif.g08.bks.cpg/sg63_7_cif.got.tgz:12502.got - 2010.06.03 15:47:04.
