data_PCOD9472386
_publ_section_title
;
Structure prediction by ZEFSAII (Michael W. Deem and Ramdas Pophale) SiO2 
 PCOD9472386
Probable space group: C M C M
;
_chemical_formula_sum "Si O2"
_cell_formula_units_Z 120
_cell_length_a 12.954035
_cell_length_b 29.808658
_cell_length_c 14.031109
_cell_angle_alpha 90.000000
_cell_angle_beta 90.000000
_cell_angle_gamma 90.000000
_cell_volume 5418.006090
_symmetry_space_group_name_H-M "C M C M"
_symmetry_group_IT_number 63
_symmetry_cell_setting 'orthorhombic'
loop_
_space_group_symop_operation_xyz
x,y,z
-x,-y,1/2+z
x,-y,-z
-x,y,1/2-z
-x,-y,-z
x,y,1/2-z
-x,y,z
x,-y,1/2+z
1/2+x,1/2+y,z
1/2-x,1/2-y,1/2+z
1/2+x,1/2-y,-z
1/2-x,1/2+y,1/2-z
1/2-x,1/2-y,-z
1/2+x,1/2+y,1/2-z
1/2-x,1/2+y,z
1/2+x,1/2-y,1/2+z
loop_
_atom_site_type_symbol
_atom_site_label
_atom_site_fract_x
_atom_site_fract_y
_atom_site_fract_z
Si Si1 0.121432 0.944132 0.863871
Si Si2 0.817145 0.840653 0.641259
Si Si3 0.823147 0.433383 0.357821
Si Si4 0.121242 0.670552 0.645446
Si Si5 0.876509 0.301418 0.933506
Si Si6 0.878056 0.202241 0.952108
Si Si7 0.614105 0.609909 0.637502
Si Si8 0.724326 0.000000 0.500000
O O1 0.137097 0.952186 0.750000
O O2 0.143910 0.890970 0.880943
O O3 0.000000 0.953420 0.884213
O O4 0.201253 0.972440 0.927228
O O5 0.845163 0.830526 0.750000
O O6 0.693957 0.835399 0.625779
O O7 0.862005 0.805869 0.564426
O O8 0.841863 0.448987 0.250000
O O9 0.867873 0.383367 0.364873
O O10 0.699571 0.427565 0.374849
O O11 0.849820 0.467516 0.439394
O O12 0.167091 0.682693 0.750000
O O13 0.152188 0.692386 0.545164
O O14 0.000000 0.681120 0.651169
O O15 0.844945 0.250117 0.911749
O O16 0.000000 0.307313 0.921836
O O17 0.842770 0.156338 0.903146
O O18 0.000000 0.202219 0.934241
O O19 0.605313 0.616197 0.750000
O O20 0.500000 0.599678 0.598610
#
# Coordination Sequence:
#
# PCOD9472386 Si02
#       8
#    16  16  16  16  16  16  16   8
#     4  10  22  38  55  79 109 140 177 217 260 318
#     4  11  23  38  55  75 108 153 190 220 262 318
#     4  10  21  35  53  78 105 134 171 214 260 318
#     4   9  18  35  58  80 104 136 173 218 272 321
#     4  10  21  36  55  82 112 141 183 233 271 310
#     4  10  20  34  54  81 111 141 180 228 271 315
#     4   9  18  33  53  77 107 142 176 213 263 319
#     4  12  21  34  57  80 106 138 167 212 271 322
#
# _framework density 22.148368999999999
#
# number of rings (size 3 to 8) (size 9 to 14) (size 15 to 20)
#    0.000    2.000    0.000    3.800    0.000    4.267 
#    0.000    5.667    0.000    0.800    0.000    1.867 
#    0.000    0.000    0.000    0.000    0.000    0.000 
#
# Total GULP energy -335025.530674 kJ/mol
# GULP energy per Si atom -5583.758845 kJ/mol
# Density = 2.209796 g / cm^3
# Si number density = 22.148369 Si / 1000 Ang^3
#
#
#
# Elastic Constant Matrix: (Units=GPa)
#
#
# Indices 1 2 3 4 5 6 
#
# 1 24.0437 -10.9967 -16.3366 0.0000 0.0000 0.0000
# 2 -10.9967 40.3502 26.8635 0.0000 0.0000 0.0000
# 3 -16.3366 26.8635 63.1603 0.0000 0.0000 0.0000
# 4 0.0000 0.0000 0.0000 8.9059 0.0000 0.0000
# 5 0.0000 0.0000 0.0000 0.0000 24.5708 0.0000
# 6 0.0000 0.0000 0.0000 0.0000 0.0000 -22.9120
#
#
#
# Elastic Compliance Matrix: (Units=1/GPa)
#
#
# Indices 1 2 3 4 5 6 
#
# 1 0.051944 0.007270 0.010343 0.000000 0.000000 0.000000
# 2 0.007270 0.035590 -0.013257 0.000000 0.000000 0.000000
# 3 0.010343 -0.013257 0.024147 0.000000 0.000000 0.000000
# 4 0.000000 0.000000 0.000000 0.112285 0.000000 0.000000
# 5 0.000000 0.000000 0.000000 0.000000 0.040699 0.000000
# 6 0.000000 0.000000 0.000000 0.000000 0.000000 -0.043645
#
#
# Mechanical properties :
#
#
# Convention : Reuss Voigt Hill
#
# Bulk Modulus (GPa) = 8.30608 14.06827 11.18717
# Shear Modulus (GPa) = 19.80690 10.64788 15.22739
#
# Velocity S-wave (km/s) = 2.99370 2.19499 2.62490
# Velocity P-wave (km/s) = 3.96333 3.57625 3.77476
#
# Compressibility (1/GPa) = 0.12039378
#
# Stress axis : x y z
#
# Youngs Moduli (GPa) = 19.25158 28.09756 41.41387
#
# Poissons Ratio (x) = -0.20428 -0.42835
# Poissons Ratio (y) = -0.13996 0.54902
# Poissons Ratio (z) = -0.19912 0.37249
#
# Static dielectric constant tensor:
#      x y z
#    x 2.004140 0.000000 0.000000 
#    y 0.000000 1.819210 0.000000 
#    z 0.000000 0.000000 1.840880 
# 
# From -- ./inp_files/32847.got.cif
#   From: 2010.05.17/outbox.cif.g08.bks.cpg/sg63_17_cif.got.tgz:32847.got - 2010.06.03 15:47:04.
