data_PCOD9472419
_publ_section_title
;
Structure prediction by ZEFSAII (Michael W. Deem and Ramdas Pophale) SiO2 
 PCOD9472419
Probable space group: C M C M
;
_chemical_formula_sum "Si O2"
_cell_formula_units_Z 96
_cell_length_a 24.031548
_cell_length_b 21.909835
_cell_length_c 8.787737
_cell_angle_alpha 90.000000
_cell_angle_beta 90.000000
_cell_angle_gamma 90.000000
_cell_volume 4626.983009
_symmetry_space_group_name_H-M "C M C M"
_symmetry_group_IT_number 63
_symmetry_cell_setting 'orthorhombic'
loop_
_space_group_symop_operation_xyz
x,y,z
-x,-y,1/2+z
x,-y,-z
-x,y,1/2-z
-x,-y,-z
x,y,1/2-z
-x,y,z
x,-y,1/2+z
1/2+x,1/2+y,z
1/2-x,1/2-y,1/2+z
1/2+x,1/2-y,-z
1/2-x,1/2+y,1/2-z
1/2-x,1/2-y,-z
1/2+x,1/2+y,1/2-z
1/2-x,1/2+y,z
1/2+x,1/2-y,1/2+z
loop_
_atom_site_type_symbol
_atom_site_label
_atom_site_fract_x
_atom_site_fract_y
_atom_site_fract_z
Si Si1 0.320695 0.436577 0.068623
Si Si2 0.066960 0.563302 0.075028
Si Si3 0.437362 0.280778 0.075431
Si Si4 0.937349 0.089854 0.070813
Si Si5 0.253597 0.682448 0.927459
Si Si6 0.374322 0.175406 0.925013
O O1 0.313966 0.438265 0.250000
O O2 0.293105 0.372372 0.012487
O O3 0.297305 0.500000 0.000000
O O4 0.385758 0.435025 0.024207
O O5 0.085670 0.568449 0.250000
O O6 0.000000 0.564442 0.074793
O O7 0.085165 0.500000 0.000000
O O8 0.089491 0.618593 0.976748
O O9 0.429659 0.301809 0.250000
O O10 0.500000 0.253496 0.065966
O O11 0.435618 0.337788 0.963155
O O12 0.391644 0.231880 0.030158
O O13 0.929841 0.077552 0.250000
O O14 0.000000 0.070133 0.025584
O O15 0.268418 0.691169 0.750000
O O16 0.190294 0.659139 0.938264
O O17 0.250000 0.750000 0.000000
O O18 0.385625 0.192244 0.750000
#
# Coordination Sequence:
#
# PCOD9472419 Si02
#       6
#    16  16  16  16  16  16
#     4  11  24  43  65  90 122 159 201 248 300 358
#     4  10  21  37  56  80 112 150 192 239 293 352
#     4  10  20  34  54  84 121 157 195 241 292 347
#     4  10  21  38  61  90 122 155 192 236 290 351
#     4  10  24  43  63  89 120 157 202 252 303 357
#     4  11  22  36  56  83 114 149 193 242 294 352
#
# _framework density 20.747861
#
# number of rings (size 3 to 8) (size 9 to 14) (size 15 to 20)
#    0.000    1.667    0.000    4.000    0.000   11.333 
#    0.000    1.667    0.000    0.000    0.000    0.000 
#    0.000    0.000    0.000    0.000    0.000    0.000 
#
# Total GULP energy -268085.290350 kJ/mol
# GULP energy per Si atom -5585.110216 kJ/mol
# Density = 2.070064 g / cm^3
# Si number density = 20.747861 Si / 1000 Ang^3
#
#
#
# Elastic Constant Matrix: (Units=GPa)
#
#
# Indices 1 2 3 4 5 6 
#
# 1 48.8915 32.1529 23.1634 0.0000 0.0000 0.0000
# 2 32.1529 117.0673 14.1744 0.0000 0.0000 0.0000
# 3 23.1634 14.1744 53.1097 0.0000 0.0000 0.0000
# 4 0.0000 0.0000 0.0000 34.7667 0.0000 0.0000
# 5 0.0000 0.0000 0.0000 0.0000 24.1154 0.0000
# 6 0.0000 0.0000 0.0000 0.0000 0.0000 -34.5048
#
#
#
# Elastic Compliance Matrix: (Units=1/GPa)
#
#
# Indices 1 2 3 4 5 6 
#
# 1 0.030455 -0.006982 -0.011419 0.000000 0.000000 0.000000
# 2 -0.006982 0.010428 0.000262 0.000000 0.000000 0.000000
# 3 -0.011419 0.000262 0.023740 0.000000 0.000000 0.000000
# 4 0.000000 0.000000 0.000000 0.028763 0.000000 0.000000
# 5 0.000000 0.000000 0.000000 0.000000 0.041467 0.000000
# 6 0.000000 0.000000 0.000000 0.000000 0.000000 -0.028981
#
#
# Mechanical properties :
#
#
# Convention : Reuss Voigt Hill
#
# Bulk Modulus (GPa) = 35.28083 39.78334 37.53208
# Shear Modulus (GPa) = 32.98179 14.84729 23.91454
#
# Velocity S-wave (km/s) = 3.99136 2.67798 3.39872
# Velocity P-wave (km/s) = 6.18731 5.36455 5.79056
#
# Compressibility (1/GPa) = 0.02834400
#
# Stress axis : x y z
#
# Youngs Moduli (GPa) = 32.83498 95.89568 42.12376
#
# Poissons Ratio (x) = 0.66954 0.48103
# Poissons Ratio (y) = 0.22925 -0.01104
# Poissons Ratio (z) = 0.37496 -0.02513
#
# Static dielectric constant tensor:
#      x y z
#    x 1.748780 0.000000 0.000000 
#    y 0.000000 1.687300 0.000000 
#    z 0.000000 0.000000 1.718020 
# 
# From -- ./inp_files/12334.got.cif
#   From: 2010.05.17/outbox.cif.g08.bks.cpg/sg63_7_cif.got.tgz:12334.got - 2010.06.03 15:47:04.
