data_PCOD9472622
_publ_section_title
;
Structure prediction by ZEFSAII (Michael W. Deem and Ramdas Pophale) SiO2 
 PCOD9472622
Probable space group: C M C M
;
_chemical_formula_sum "Si O2"
_cell_formula_units_Z 96
_cell_length_a 25.348001
_cell_length_b 11.090884
_cell_length_c 18.741777
_cell_angle_alpha 90.000000
_cell_angle_beta 90.000000
_cell_angle_gamma 90.000000
_cell_volume 5268.908355
_symmetry_space_group_name_H-M "C M C M"
_symmetry_group_IT_number 63
_symmetry_cell_setting 'orthorhombic'
loop_
_space_group_symop_operation_xyz
x,y,z
-x,-y,1/2+z
x,-y,-z
-x,y,1/2-z
-x,-y,-z
x,y,1/2-z
-x,y,z
x,-y,1/2+z
1/2+x,1/2+y,z
1/2-x,1/2-y,1/2+z
1/2+x,1/2-y,-z
1/2-x,1/2+y,1/2-z
1/2-x,1/2-y,-z
1/2+x,1/2+y,1/2-z
1/2-x,1/2+y,z
1/2+x,1/2-y,1/2+z
loop_
_atom_site_type_symbol
_atom_site_label
_atom_site_fract_x
_atom_site_fract_y
_atom_site_fract_z
Si Si1 0.878843 0.612269 0.050524
Si Si2 0.163008 0.089477 0.410018
Si Si3 0.791367 0.300089 0.170099
Si Si4 0.559290 0.264128 0.563671
Si Si5 0.903143 0.566100 0.831695
Si Si6 0.196825 0.833915 0.063713
O O1 0.903787 0.553020 0.120421
O O2 0.832282 0.705515 0.068309
O O3 0.861164 0.500000 0.000000
O O4 0.921157 0.687084 0.004400
O O5 0.187114 0.165487 0.345277
O O6 0.103835 0.135243 0.424444
O O7 0.197136 0.131194 0.479766
O O8 0.164993 0.946697 0.403182
O O9 0.768819 0.309027 0.250000
O O10 0.842580 0.385588 0.165669
O O11 0.750755 0.331715 0.107647
O O12 0.500000 0.308550 0.555893
O O13 0.563798 0.170369 0.629377
O O14 0.918247 0.548469 0.750000
#
# Coordination Sequence:
#
# PCOD9472622 Si02
#       6
#    16  16  16  16  16  16
#     4   9  19  34  53  77 109 138 178 219 268 323
#     4   9  20  37  53  79 108 136 184 229 262 322
#     4  10  21  35  52  75 107 147 182 219 262 317
#     4   9  18  36  59  79 103 138 178 226 279 321
#     4   9  19  34  51  78 111 139 179 222 262 320
#     4  10  20  35  54  76 107 145 182 217 273 317
#
# _framework density 18.220092000000001
#
# number of rings (size 3 to 8) (size 9 to 14) (size 15 to 20)
#    0.000    2.667    0.000    1.500    2.333    4.667 
#    6.000    6.667    0.000    0.000    0.000    0.000 
#    0.000   13.333    0.000    0.000    0.000    0.000 
#
# Total GULP energy -267627.852395 kJ/mol
# GULP energy per Si atom -5575.580258 kJ/mol
# Density = 1.817862 g / cm^3
# Si number density = 18.220092 Si / 1000 Ang^3
#
#
#
# Elastic Constant Matrix: (Units=GPa)
#
#
# Indices 1 2 3 4 5 6 
#
# 1 82.3552 22.5058 27.2802 0.0000 0.0000 0.0000
# 2 22.5058 83.3901 1.6266 0.0000 0.0000 0.0000
# 3 27.2802 1.6266 65.4149 0.0000 0.0000 0.0000
# 4 0.0000 0.0000 0.0000 10.7843 0.0000 0.0000
# 5 0.0000 0.0000 0.0000 0.0000 8.7062 0.0000
# 6 0.0000 0.0000 0.0000 0.0000 0.0000 2.2551
#
#
#
# Elastic Compliance Matrix: (Units=1/GPa)
#
#
# Indices 1 2 3 4 5 6 
#
# 1 0.015323 -0.004013 -0.006290 0.000000 0.000000 0.000000
# 2 -0.004013 0.013048 0.001349 0.000000 0.000000 0.000000
# 3 -0.006290 0.001349 0.017877 0.000000 0.000000 0.000000
# 4 0.000000 0.000000 0.000000 0.092728 0.000000 0.000000
# 5 0.000000 0.000000 0.000000 0.000000 0.114861 0.000000
# 6 0.000000 0.000000 0.000000 0.000000 0.000000 0.443432
#
#
# Mechanical properties :
#
#
# Convention : Reuss Voigt Hill
#
# Bulk Modulus (GPa) = 35.28592 37.10948 36.19770
# Shear Modulus (GPa) = 6.90014 16.33229 11.61621
#
# Velocity S-wave (km/s) = 1.94816 2.99722 2.52771
# Velocity P-wave (km/s) = 4.94661 5.69116 5.33190
#
# Compressibility (1/GPa) = 0.02833992
#
# Stress axis : x y z
#
# Youngs Moduli (GPa) = 65.26237 76.63720 55.93853
#
# Poissons Ratio (x) = 0.30752 0.35187
# Poissons Ratio (y) = 0.26188 -0.07546
# Poissons Ratio (z) = 0.41052 -0.10338
#
# Static dielectric constant tensor:
#      x y z
#    x 1.620310 0.000000 0.000000 
#    y 0.000000 1.634540 0.000000 
#    z 0.000000 0.000000 1.640740 
# 
# From -- ./inp_files/48027.got.cif
#   From: 2010.05.17/outbox.cif.g08.bks.cpg/sg63_25_cif.got.tgz:48027.got - 2010.06.03 15:47:04.
