data_PCOD9472210
_publ_section_title
;
Structure prediction by ZEFSAII (Michael W. Deem and Ramdas Pophale) SiO2 
 PCOD9472210
Probable space group: C M C M
;
_chemical_formula_sum "Si O2"
_cell_formula_units_Z 96
_cell_length_a 12.854892
_cell_length_b 16.746097
_cell_length_c 24.836940
_cell_angle_alpha 90.000000
_cell_angle_beta 90.000000
_cell_angle_gamma 90.000000
_cell_volume 5346.629902
_symmetry_space_group_name_H-M "C M C M"
_symmetry_group_IT_number 63
_symmetry_cell_setting 'orthorhombic'
loop_
_space_group_symop_operation_xyz
x,y,z
-x,-y,1/2+z
x,-y,-z
-x,y,1/2-z
-x,-y,-z
x,y,1/2-z
-x,y,z
x,-y,1/2+z
1/2+x,1/2+y,z
1/2-x,1/2-y,1/2+z
1/2+x,1/2-y,-z
1/2-x,1/2+y,1/2-z
1/2-x,1/2-y,-z
1/2+x,1/2+y,1/2-z
1/2-x,1/2+y,z
1/2+x,1/2-y,1/2+z
loop_
_atom_site_type_symbol
_atom_site_label
_atom_site_fract_x
_atom_site_fract_y
_atom_site_fract_z
Si Si1 0.622858 0.064330 0.090060
Si Si2 0.876544 0.957909 0.311207
Si Si3 0.742622 0.897002 0.092679
Si Si4 0.720532 0.661022 0.481935
Si Si5 0.379131 0.265404 0.616607
Si Si6 0.749083 0.122557 0.188371
O O1 0.500000 0.062758 0.082518
O O2 0.681235 0.117005 0.045128
O O3 0.655723 0.102400 0.147498
O O4 0.672279 0.976086 0.088344
O O5 0.857554 0.928550 0.250000
O O6 0.819077 0.907178 0.356813
O O7 0.000000 0.961289 0.319863
O O8 0.826803 0.046402 0.314295
O O9 0.669509 0.820098 0.101311
O O10 0.805106 0.885273 0.036753
O O11 0.750000 0.750000 0.500000
O O12 0.638119 0.674246 0.434114
O O13 0.500000 0.258775 0.629404
O O14 0.312454 0.302835 0.664950
O O15 0.716601 0.133294 0.250000
#
# Coordination Sequence:
#
# PCOD9472210 Si02
#       6
#    16  16  16  16  16  16
#     4  10  20  35  57  82 108 140 174 214 267 319
#     4   9  18  34  55  76 101 137 177 216 260 310
#     4  10  20  34  53  81 111 138 173 218 265 318
#     4   9  20  35  50  74 106 138 175 213 253 309
#     4  10  20  34  52  75 104 138 177 220 264 311
#     4   9  19  36  55  76 104 137 178 220 257 310
#
# _framework density 17.955234999999998
#
# number of rings (size 3 to 8) (size 9 to 14) (size 15 to 20)
#    0.000    2.500    0.000    1.500    0.000    6.667 
#    0.000    6.667    0.000    9.000    0.000    0.000 
#    0.000    0.000    0.000    0.000    0.000    0.000 
#
# Total GULP energy -267625.961871 kJ/mol
# GULP energy per Si atom -5575.540872 kJ/mol
# Density = 1.791437 g / cm^3
# Si number density = 17.955235 Si / 1000 Ang^3
#
#
#
# Elastic Constant Matrix: (Units=GPa)
#
#
# Indices 1 2 3 4 5 6 
#
# 1 60.4414 30.8709 19.8766 0.0000 0.0000 0.0000
# 2 30.8709 70.7733 44.4437 0.0000 0.0000 0.0000
# 3 19.8766 44.4437 114.3815 0.0000 0.0000 0.0000
# 4 0.0000 0.0000 0.0000 32.4762 0.0000 0.0000
# 5 0.0000 0.0000 0.0000 0.0000 9.7483 0.0000
# 6 0.0000 0.0000 0.0000 0.0000 0.0000 15.6111
#
#
#
# Elastic Compliance Matrix: (Units=1/GPa)
#
#
# Indices 1 2 3 4 5 6 
#
# 1 0.021289 -0.009210 -0.000121 0.000000 0.000000 0.000000
# 2 -0.009210 0.022675 -0.007210 0.000000 0.000000 0.000000
# 3 -0.000121 -0.007210 0.011565 0.000000 0.000000 0.000000
# 4 0.000000 0.000000 0.000000 0.030792 0.000000 0.000000
# 5 0.000000 0.000000 0.000000 0.000000 0.102581 0.000000
# 6 0.000000 0.000000 0.000000 0.000000 0.000000 0.064057
#
#
# Mechanical properties :
#
#
# Convention : Reuss Voigt Hill
#
# Bulk Modulus (GPa) = 44.54964 48.44207 46.49586
# Shear Modulus (GPa) = 17.03444 21.59413 19.31428
#
# Velocity S-wave (km/s) = 3.08347 3.47171 3.28333
# Velocity P-wave (km/s) = 6.12718 6.56569 6.35022
#
# Compressibility (1/GPa) = 0.02244687
#
# Stress axis : x y z
#
# Youngs Moduli (GPa) = 46.97289 44.10204 86.46685
#
# Poissons Ratio (x) = 0.40619 0.01044
# Poissons Ratio (y) = 0.43263 0.62342
# Poissons Ratio (z) = 0.00567 0.31797
#
# Static dielectric constant tensor:
#      x y z
#    x 1.555040 0.000000 0.000000 
#    y 0.000000 1.614070 0.000000 
#    z 0.000000 0.000000 1.646170 
# 
# From -- ./inp_files/61490.got.cif
#   From: 2010.05.17/outbox.cif.g08.bks.cpg/sg63_31_cif.got.tgz:61490.got - 2010.06.03 15:47:04.
