data_PCOD9472118
_publ_section_title
;
Structure prediction by ZEFSAII (Michael W. Deem and Ramdas Pophale) SiO2 
 PCOD9472118
Probable space group: C M C M
;
_chemical_formula_sum "Si O2"
_cell_formula_units_Z 96
_cell_length_a 24.077093
_cell_length_b 12.120370
_cell_length_c 14.305323
_cell_angle_alpha 90.000000
_cell_angle_beta 90.000000
_cell_angle_gamma 90.000000
_cell_volume 4174.626218
_symmetry_space_group_name_H-M "C M C M"
_symmetry_group_IT_number 63
_symmetry_cell_setting 'orthorhombic'
loop_
_space_group_symop_operation_xyz
x,y,z
-x,-y,1/2+z
x,-y,-z
-x,y,1/2-z
-x,-y,-z
x,y,1/2-z
-x,y,z
x,-y,1/2+z
1/2+x,1/2+y,z
1/2-x,1/2-y,1/2+z
1/2+x,1/2-y,-z
1/2-x,1/2+y,1/2-z
1/2-x,1/2-y,-z
1/2+x,1/2+y,1/2-z
1/2-x,1/2+y,z
1/2+x,1/2-y,1/2+z
loop_
_atom_site_type_symbol
_atom_site_label
_atom_site_fract_x
_atom_site_fract_y
_atom_site_fract_z
Si Si1 0.647719 0.120061 0.635394
Si Si2 0.858096 0.248358 0.638134
Si Si3 0.770847 0.575312 0.364403
Si Si4 0.063360 0.040122 0.895542
Si Si5 0.439097 0.951311 0.636686
Si Si6 0.652999 0.634388 0.142400
O O1 0.648054 0.121743 0.750000
O O2 0.649229 0.244222 0.598784
O O3 0.695939 0.034792 0.606112
O O4 0.590902 0.061970 0.604658
O O5 0.851814 0.229987 0.750000
O O6 0.800069 0.307707 0.608248
O O7 0.891941 0.140114 0.606158
O O8 0.900321 0.347988 0.619108
O O9 0.774755 0.571842 0.250000
O O10 0.707112 0.572282 0.396182
O O11 0.000000 0.064390 0.859339
O O12 0.097147 0.936390 0.854274
O O13 0.056218 0.000000 0.000000
O O14 0.442108 0.958180 0.750000
O O15 0.500000 0.935861 0.598944
O O16 0.668133 0.654837 0.250000
#
# Coordination Sequence:
#
# PCOD9472118 Si02
#       6
#    16  16  16  16  16  16
#     4   8  15  27  44  75 111 135 162 207 268 326
#     4   9  17  32  57  83 103 134 182 227 266 323
#     4   8  16  30  53  85 114 136 168 222 281 324
#     4  11  25  41  53  72 110 154 191 231 277 319
#     4   8  13  23  43  72 102 128 160 212 266 306
#     4  10  20  33  56  83 108 141 178 221 272 332
#
# _framework density 22.996071000000001
#
# number of rings (size 3 to 8) (size 9 to 14) (size 15 to 20)
#    0.000    3.000    0.000    3.000    2.333    2.667 
#    0.000    2.500    0.000    3.000    0.000   10.500 
#    0.000    0.000    0.000    0.000    0.000    0.000 
#
# Total GULP energy -267499.312714 kJ/mol
# GULP energy per Si atom -5572.902348 kJ/mol
# Density = 2.294373 g / cm^3
# Si number density = 22.996071 Si / 1000 Ang^3
#
#
#
# Elastic Constant Matrix: (Units=GPa)
#
#
# Indices 1 2 3 4 5 6 
#
# 1 105.1039 25.9318 -4.3433 0.0000 0.0000 0.0000
# 2 25.9318 110.2568 -0.8863 0.0000 0.0000 0.0000
# 3 -4.3433 -0.8863 45.0329 0.0000 0.0000 0.0000
# 4 0.0000 0.0000 0.0000 14.3078 0.0000 0.0000
# 5 0.0000 0.0000 0.0000 0.0000 8.9495 0.0000
# 6 0.0000 0.0000 0.0000 0.0000 0.0000 2.2048
#
#
#
# Elastic Compliance Matrix: (Units=1/GPa)
#
#
# Indices 1 2 3 4 5 6 
#
# 1 0.010139 -0.002377 0.000931 0.000000 0.000000 0.000000
# 2 -0.002377 0.009629 -0.000040 0.000000 0.000000 0.000000
# 3 0.000931 -0.000040 0.022295 0.000000 0.000000 0.000000
# 4 0.000000 0.000000 0.000000 0.069892 0.000000 0.000000
# 5 0.000000 0.000000 0.000000 0.000000 0.111737 0.000000
# 6 0.000000 0.000000 0.000000 0.000000 0.000000 0.453550
#
#
# Mechanical properties :
#
#
# Convention : Reuss Voigt Hill
#
# Bulk Modulus (GPa) = 25.58125 33.53312 29.55719
# Shear Modulus (GPa) = 7.21246 21.07185 14.14215
#
# Velocity S-wave (km/s) = 1.77291 3.03037 2.48257
# Velocity P-wave (km/s) = 3.91654 5.18246 4.59332
#
# Compressibility (1/GPa) = 0.03909113
#
# Stress axis : x y z
#
# Youngs Moduli (GPa) = 98.62514 103.85794 44.85311
#
# Poissons Ratio (x) = 0.24690 -0.04176
# Poissons Ratio (y) = 0.23446 0.00178
# Poissons Ratio (z) = -0.09183 0.00413
#
# Static dielectric constant tensor:
#      x y z
#    x 1.880650 0.000000 0.000000 
#    y 0.000000 1.843260 0.000000 
#    z 0.000000 0.000000 1.875410 
# 
# From -- ./inp_files/48015.got.cif
#   From: 2010.05.17/outbox.cif.g08.bks.cpg/sg63_25_cif.got.tgz:48015.got - 2010.06.03 15:47:04.
