data_PCOD9472167
_publ_section_title
;
Structure prediction by ZEFSAII (Michael W. Deem and Ramdas Pophale) SiO2 
 PCOD9472167
Probable space group: C M C M
;
_chemical_formula_sum "Si O2"
_cell_formula_units_Z 80
_cell_length_a 18.364341
_cell_length_b 14.235044
_cell_length_c 18.752574
_cell_angle_alpha 90.000000
_cell_angle_beta 90.000000
_cell_angle_gamma 90.000000
_cell_volume 4902.245428
_symmetry_space_group_name_H-M "C M C M"
_symmetry_group_IT_number 63
_symmetry_cell_setting 'orthorhombic'
loop_
_space_group_symop_operation_xyz
x,y,z
-x,-y,1/2+z
x,-y,-z
-x,y,1/2-z
-x,-y,-z
x,y,1/2-z
-x,y,z
x,-y,1/2+z
1/2+x,1/2+y,z
1/2-x,1/2-y,1/2+z
1/2+x,1/2-y,-z
1/2-x,1/2+y,1/2-z
1/2-x,1/2-y,-z
1/2+x,1/2+y,1/2-z
1/2-x,1/2+y,z
1/2+x,1/2-y,1/2+z
loop_
_atom_site_type_symbol
_atom_site_label
_atom_site_fract_x
_atom_site_fract_y
_atom_site_fract_z
Si Si1 0.774000 0.527160 0.419089
Si Si2 0.254284 0.821877 0.106799
Si Si3 0.648836 0.818305 0.829477
Si Si4 0.500000 0.705280 0.833206
Si Si5 0.500000 0.389861 0.483238
Si Si6 0.343610 0.668205 0.036512
O O1 0.794920 0.500000 0.500000
O O2 0.770549 0.429719 0.376577
O O3 0.828482 0.602672 0.385833
O O4 0.695486 0.579364 0.424928
O O5 0.209912 0.762824 0.164332
O O6 0.323536 0.760815 0.081591
O O7 0.200283 0.823823 0.038053
O O8 0.649057 0.858633 0.750000
O O9 0.571531 0.769466 0.842402
O O10 0.500000 0.670690 0.750000
O O11 0.500000 0.631054 0.898069
O O12 0.500000 0.500000 0.500000
O O13 0.572828 0.347024 0.518168
#
# Coordination Sequence:
#
# PCOD9472167 Si02
#       6
#    16  16  16   8   8  16
#     4   9  18  32  53  74 101 130 173 220 254 290
#     4   9  16  32  50  70 101 132 166 216 253 287
#     4  10  20  34  51  74 104 137 169 207 257 310
#     4  10  22  36  50  74 111 137 160 206 257 305
#     4  12  20  30  55  77 104 140 173 203 253 309
#     4   9  18  29  48  76 103 128 167 214 250 293
#
# _framework density 16.319051999999999
#
# number of rings (size 3 to 8) (size 9 to 14) (size 15 to 20)
#    0.000    2.400    2.000    3.000    0.000    0.800 
#    0.000    1.500    0.000    0.000    0.000    0.000 
#    0.000    0.000    0.000    0.000    0.000    0.000 
#
# Total GULP energy -222801.681134 kJ/mol
# GULP energy per Si atom -5570.042028 kJ/mol
# Density = 1.628191 g / cm^3
# Si number density = 16.319052 Si / 1000 Ang^3
#
#
#
# Elastic Constant Matrix: (Units=GPa)
#
#
# Indices 1 2 3 4 5 6 
#
# 1 111.7248 43.6054 42.2560 0.0000 0.0000 0.0000
# 2 43.6054 111.3052 43.7673 0.0000 0.0000 0.0000
# 3 42.2560 43.7673 63.1678 0.0000 0.0000 0.0000
# 4 0.0000 0.0000 0.0000 21.9813 0.0000 0.0000
# 5 0.0000 0.0000 0.0000 0.0000 8.7583 0.0000
# 6 0.0000 0.0000 0.0000 0.0000 0.0000 12.9988
#
#
#
# Elastic Compliance Matrix: (Units=1/GPa)
#
#
# Indices 1 2 3 4 5 6 
#
# 1 0.012357 -0.002186 -0.006752 0.000000 0.000000 0.000000
# 2 -0.002186 0.012736 -0.007362 0.000000 0.000000 0.000000
# 3 -0.006752 -0.007362 0.025448 0.000000 0.000000 0.000000
# 4 0.000000 0.000000 0.000000 0.045493 0.000000 0.000000
# 5 0.000000 0.000000 0.000000 0.000000 0.114177 0.000000
# 6 0.000000 0.000000 0.000000 0.000000 0.000000 0.076930
#
#
# Mechanical properties :
#
#
# Convention : Reuss Voigt Hill
#
# Bulk Modulus (GPa) = 55.73550 60.60613 58.17081
# Shear Modulus (GPa) = 15.35054 19.18563 17.26809
#
# Velocity S-wave (km/s) = 3.07033 3.43251 3.25646
# Velocity P-wave (km/s) = 6.84084 7.27519 7.06135
#
# Compressibility (1/GPa) = 0.01794189
#
# Stress axis : x y z
#
# Youngs Moduli (GPa) = 80.92293 78.52039 39.29579
#
# Poissons Ratio (x) = 0.17167 0.26531
# Poissons Ratio (y) = 0.17692 0.28928
# Poissons Ratio (z) = 0.54636 0.57804
#
# Static dielectric constant tensor:
#      x y z
#    x 1.528810 0.000000 0.000000 
#    y 0.000000 1.572590 0.000000 
#    z 0.000000 0.000000 1.567920 
# 
# From -- ./inp_files/45451.got.cif
#   From: 2010.05.17/outbox.cif.g08.bks.cpg/sg63_23_cif.got.tgz:45451.got - 2010.06.03 15:47:04.
