data_PCOD9472933
_publ_section_title
;
Structure prediction by ZEFSAII (Michael W. Deem and Ramdas Pophale) SiO2 
 PCOD9472933
Probable space group: C M C M
;
_chemical_formula_sum "Si O2"
_cell_formula_units_Z 128
_cell_length_a 21.686222
_cell_length_b 11.599582
_cell_length_c 22.874271
_cell_angle_alpha 90.000000
_cell_angle_beta 90.000000
_cell_angle_gamma 90.000000
_cell_volume 5754.048269
_symmetry_space_group_name_H-M "C M C M"
_symmetry_group_IT_number 63
_symmetry_cell_setting 'orthorhombic'
loop_
_space_group_symop_operation_xyz
x,y,z
-x,-y,1/2+z
x,-y,-z
-x,y,1/2-z
-x,-y,-z
x,y,1/2-z
-x,y,z
x,-y,1/2+z
1/2+x,1/2+y,z
1/2-x,1/2-y,1/2+z
1/2+x,1/2-y,-z
1/2-x,1/2+y,1/2-z
1/2-x,1/2-y,-z
1/2+x,1/2+y,1/2-z
1/2-x,1/2+y,z
1/2+x,1/2-y,1/2+z
loop_
_atom_site_type_symbol
_atom_site_label
_atom_site_fract_x
_atom_site_fract_y
_atom_site_fract_z
Si Si1 0.931698 0.824655 0.181531
Si Si2 0.384971 0.064241 0.315957
Si Si3 0.428656 0.954562 0.567466
Si Si4 0.336398 0.489283 0.863469
Si Si5 0.748643 0.177747 0.313720
Si Si6 0.248893 0.647194 0.922943
Si Si7 0.069598 0.895092 0.953845
Si Si8 0.149987 0.286777 0.509102
O O1 0.932590 0.855755 0.250000
O O2 0.920138 0.687870 0.179302
O O3 0.875806 0.897970 0.154283
O O4 0.000000 0.851179 0.156097
O O5 0.396215 0.018203 0.250000
O O6 0.409074 0.987808 0.370541
O O7 0.313167 0.100664 0.319042
O O8 0.500000 0.919565 0.574560
O O9 0.375566 0.858761 0.562656
O O10 0.426206 0.000000 0.500000
O O11 0.306951 0.407720 0.815252
O O12 0.277168 0.528260 0.901171
O O13 0.382378 0.417120 0.903036
O O14 0.744331 0.237398 0.250000
O O15 0.755104 0.266964 0.367370
O O16 0.185705 0.642893 0.958985
O O17 0.300627 0.695886 0.967179
O O18 0.090648 0.778384 0.984588
O O19 0.000000 0.889010 0.932825
O O20 0.074413 0.000000 0.000000
#
# Coordination Sequence:
#
# PCOD9472933 Si02
#       8
#    16  16  16  16  16  16  16  16
#     4  10  20  35  60  90 120 156 200 258 323 382
#     4  10  21  40  62  91 125 162 206 259 326 379
#     4  11  24  40  63  93 124 165 212 260 311 369
#     4  12  22  38  59  89 122 162 203 253 305 379
#     4  11  23  39  60  87 122 161 202 256 310 369
#     4  11  23  37  62  87 119 159 202 251 303 364
#     4  11  23  38  59  91 125 158 198 248 311 381
#     4  11  22  41  60  88 122 164 201 249 309 366
#
# _framework density 22.245208000000002
#
# number of rings (size 3 to 8) (size 9 to 14) (size 15 to 20)
#    0.000    1.125    5.000    1.500    1.750    1.250 
#    0.000    0.000    0.000    0.000    0.000    0.000 
#    0.000    0.000    0.000    0.000    0.000    0.000 
#
# Total GULP energy -357366.046632 kJ/mol
# GULP energy per Si atom -5583.844479 kJ/mol
# Density = 2.219458 g / cm^3
# Si number density = 22.245208 Si / 1000 Ang^3
#
#
#
# Elastic Constant Matrix: (Units=GPa)
#
#
# Indices 1 2 3 4 5 6 
#
# 1 109.4657 17.2708 44.8019 0.0000 0.0000 0.0000
# 2 17.2708 10.0889 8.1327 0.0000 0.0000 0.0000
# 3 44.8019 8.1327 136.1742 0.0000 0.0000 0.0000
# 4 0.0000 0.0000 0.0000 24.7868 0.0000 0.0000
# 5 0.0000 0.0000 0.0000 0.0000 22.8112 0.0000
# 6 0.0000 0.0000 0.0000 0.0000 0.0000 29.5189
#
#
#
# Elastic Compliance Matrix: (Units=1/GPa)
#
#
# Indices 1 2 3 4 5 6 
#
# 1 0.013785 -0.020951 -0.003284 0.000000 0.000000 0.000000
# 2 -0.020951 0.135973 -0.001228 0.000000 0.000000 0.000000
# 3 -0.003284 -0.001228 0.008497 0.000000 0.000000 0.000000
# 4 0.000000 0.000000 0.000000 0.040344 0.000000 0.000000
# 5 0.000000 0.000000 0.000000 0.000000 0.043838 0.000000
# 6 0.000000 0.000000 0.000000 0.000000 0.000000 0.033877
#
#
# Mechanical properties :
#
#
# Convention : Reuss Voigt Hill
#
# Bulk Modulus (GPa) = 9.31701 44.01552 26.66626
# Shear Modulus (GPa) = 13.77349 27.79159 20.78254
#
# Velocity S-wave (km/s) = 2.49101 3.53842 3.05986
# Velocity P-wave (km/s) = 3.53141 6.04346 4.94946
#
# Compressibility (1/GPa) = 0.10733062
#
# Stress axis : x y z
#
# Youngs Moduli (GPa) = 72.54358 7.35438 117.68394
#
# Poissons Ratio (x) = 0.15408 0.38648
# Poissons Ratio (y) = 1.51983 0.14450
# Poissons Ratio (z) = 0.23824 0.00903
#
# Static dielectric constant tensor:
#      x y z
#    x 1.789030 0.000000 0.000000 
#    y 0.000000 1.851440 0.000000 
#    z 0.000000 0.000000 1.916290 
# 
# From -- ./inp_files/65187.got.cif
#   From: 2010.05.17/outbox.cif.g08.bks.cpg/sg63_33_cif.got.tgz:65187.got - 2010.06.03 15:47:04.
