data_PCOD9472856
_publ_section_title
;
Structure prediction by ZEFSAII (Michael W. Deem and Ramdas Pophale) SiO2 
 PCOD9472856
Probable space group: C M C M
;
_chemical_formula_sum "Si O2"
_cell_formula_units_Z 96
_cell_length_a 8.414241
_cell_length_b 29.862237
_cell_length_c 21.076909
_cell_angle_alpha 90.000000
_cell_angle_beta 90.000000
_cell_angle_gamma 90.000000
_cell_volume 5295.954012
_symmetry_space_group_name_H-M "C M C M"
_symmetry_group_IT_number 63
_symmetry_cell_setting 'orthorhombic'
loop_
_space_group_symop_operation_xyz
x,y,z
-x,-y,1/2+z
x,-y,-z
-x,y,1/2-z
-x,-y,-z
x,y,1/2-z
-x,y,z
x,-y,1/2+z
1/2+x,1/2+y,z
1/2-x,1/2-y,1/2+z
1/2+x,1/2-y,-z
1/2-x,1/2+y,1/2-z
1/2-x,1/2-y,-z
1/2+x,1/2+y,1/2-z
1/2-x,1/2+y,z
1/2+x,1/2-y,1/2+z
loop_
_atom_site_type_symbol
_atom_site_label
_atom_site_fract_x
_atom_site_fract_y
_atom_site_fract_z
Si Si1 0.192045 0.376114 0.978759
Si Si2 0.810054 0.971715 0.561344
Si Si3 0.190455 0.721980 0.439334
Si Si4 0.807663 0.278984 0.178380
Si Si5 0.806447 0.624856 0.626132
Si Si6 0.692207 0.970974 0.321310
O O1 0.254108 0.420803 0.945940
O O2 0.243817 0.329512 0.947131
O O3 0.000000 0.377343 0.978173
O O4 0.243132 0.375834 0.052591
O O5 0.000000 0.972981 0.560733
O O6 0.751076 0.000000 0.500000
O O7 0.749953 0.995241 0.624992
O O8 0.250000 0.750000 0.500000
O O9 0.248995 0.745074 0.375128
O O10 0.000000 0.722466 0.440635
O O11 0.756032 0.268265 0.250000
O O12 0.754900 0.329252 0.159357
O O13 0.000000 0.278888 0.177196
O O14 0.754723 0.579352 0.660287
O O15 0.000000 0.625063 0.627123
O O16 0.744664 0.982180 0.250000
O O17 0.500000 0.970935 0.322116
#
# Coordination Sequence:
#
# PCOD9472856 Si02
#       6
#    16  16  16  16  16  16
#     4  10  20  36  59  83 108 146 192 233 271 321
#     4  11  23  37  55  82 115 148 182 226 281 333
#     4  11  22  37  58  84 115 149 190 234 279 331
#     4  10  20  36  58  85 118 153 189 230 280 336
#     4   9  16  31  56  85 114 143 182 229 275 327
#     4  10  20  35  58  85 111 145 187 229 275 329
#
# _framework density 18.127047000000001
#
# number of rings (size 3 to 8) (size 9 to 14) (size 15 to 20)
#    0.000    1.833    3.333    1.500    0.000    4.667 
#    0.000    1.667    0.000    3.000    0.000    0.000 
#    0.000    0.000    0.000    0.000    0.000    0.000 
#
# Total GULP energy -268040.134986 kJ/mol
# GULP energy per Si atom -5584.169479 kJ/mol
# Density = 1.808579 g / cm^3
# Si number density = 18.127047 Si / 1000 Ang^3
#
#
#
# Elastic Constant Matrix: (Units=GPa)
#
#
# Indices 1 2 3 4 5 6 
#
# 1 17.3473 27.8412 29.7602 0.0000 0.0000 0.0000
# 2 27.8412 173.6765 110.4073 0.0000 0.0000 0.0000
# 3 29.7602 110.4073 192.5866 0.0000 0.0000 0.0000
# 4 0.0000 0.0000 0.0000 23.4790 0.0000 0.0000
# 5 0.0000 0.0000 0.0000 0.0000 23.8258 0.0000
# 6 0.0000 0.0000 0.0000 0.0000 0.0000 21.3548
#
#
#
# Elastic Compliance Matrix: (Units=1/GPa)
#
#
# Indices 1 2 3 4 5 6 
#
# 1 0.085502 -0.008350 -0.008425 0.000000 0.000000 0.000000
# 2 -0.008350 0.009875 -0.004371 0.000000 0.000000 0.000000
# 3 -0.008425 -0.004371 0.009000 0.000000 0.000000 0.000000
# 4 0.000000 0.000000 0.000000 0.042591 0.000000 0.000000
# 5 0.000000 0.000000 0.000000 0.000000 0.041971 0.000000
# 6 0.000000 0.000000 0.000000 0.000000 0.000000 0.046828
#
#
# Mechanical properties :
#
#
# Convention : Reuss Voigt Hill
#
# Bulk Modulus (GPa) = 16.10725 79.95865 48.03295
# Shear Modulus (GPa) = 16.73612 28.10535 22.42073
#
# Velocity S-wave (km/s) = 3.04183 3.94187 3.52073
# Velocity P-wave (km/s) = 4.60890 8.05752 6.56375
#
# Compressibility (1/GPa) = 0.06208386
#
# Stress axis : x y z
#
# Youngs Moduli (GPa) = 11.69568 101.26589 111.10883
#
# Poissons Ratio (x) = 0.84559 0.93614
# Poissons Ratio (y) = 0.09766 0.48564
# Poissons Ratio (z) = 0.09854 0.44262
#
# Static dielectric constant tensor:
#      x y z
#    x 1.632800 0.000000 0.000000 
#    y 0.000000 1.602430 0.000000 
#    z 0.000000 0.000000 1.602950 
# 
# From -- ./inp_files/51274.got.cif
#   From: 2010.05.17/outbox.cif.g08.bks.cpg/sg63_26_cif.got.tgz:51274.got - 2010.06.03 15:47:04.
