data_PCOD9472293
_publ_section_title
;
Structure prediction by ZEFSAII (Michael W. Deem and Ramdas Pophale) SiO2 
 PCOD9472293
Probable space group: C M C M
;
_chemical_formula_sum "Si O2"
_cell_formula_units_Z 80
_cell_length_a 29.456416
_cell_length_b 15.340138
_cell_length_c 9.536953
_cell_angle_alpha 90.000000
_cell_angle_beta 90.000000
_cell_angle_gamma 90.000000
_cell_volume 4309.419906
_symmetry_space_group_name_H-M "C M C M"
_symmetry_group_IT_number 63
_symmetry_cell_setting 'orthorhombic'
loop_
_space_group_symop_operation_xyz
x,y,z
-x,-y,1/2+z
x,-y,-z
-x,y,1/2-z
-x,-y,-z
x,y,1/2-z
-x,y,z
x,-y,1/2+z
1/2+x,1/2+y,z
1/2-x,1/2-y,1/2+z
1/2+x,1/2-y,-z
1/2-x,1/2+y,1/2-z
1/2-x,1/2-y,-z
1/2+x,1/2+y,1/2-z
1/2-x,1/2+y,z
1/2+x,1/2-y,1/2+z
loop_
_atom_site_type_symbol
_atom_site_label
_atom_site_fract_x
_atom_site_fract_y
_atom_site_fract_z
Si Si1 0.053682 0.577123 0.405633
Si Si2 0.711074 0.410862 0.415325
Si Si3 0.181113 0.587302 0.913058
Si Si4 0.550385 0.251371 0.586118
Si Si5 0.149234 0.778549 0.916473
O O1 0.073304 0.500000 0.500000
O O2 0.073719 0.581977 0.250000
O O3 0.054483 0.667632 0.487527
O O4 0.000000 0.557185 0.389396
O O5 0.702254 0.500000 0.500000
O O6 0.700405 0.419734 0.250000
O O7 0.764986 0.392645 0.426514
O O8 0.682201 0.335491 0.488808
O O9 0.171246 0.569972 0.750000
O O10 0.155126 0.675971 0.952685
O O11 0.172677 0.500000 0.000000
O O12 0.551970 0.223409 0.750000
O O13 0.500000 0.290834 0.563264
O O14 0.596452 0.304999 0.563301
O O15 0.160260 0.787369 0.750000
#
# Coordination Sequence:
#
# PCOD9472293 Si02
#       5
#    16  16  16  16  16
#     4   9  16  26  41  60  84 118 161 207 251 295
#     4  10  20  35  56  80 105 134 169 211 261 315
#     4   9  19  34  52  77 109 142 173 208 252 304
#     4   9  18  32  48  67  95 132 171 211 255 300
#     4  10  20  34  53  78 107 138 174 215 258 306
#
# _framework density 18.563984000000001
#
# number of rings (size 3 to 8) (size 9 to 14) (size 15 to 20)
#    0.000    2.600    0.000    1.800    0.000    5.600 
#    0.000    2.000    0.000    0.600    0.000    0.000 
#    0.000    0.000    0.000    0.000    0.000    0.000 
#
# Total GULP energy -223019.408861 kJ/mol
# GULP energy per Si atom -5575.485222 kJ/mol
# Density = 1.852173 g / cm^3
# Si number density = 18.563984 Si / 1000 Ang^3
#
#
#
# Elastic Constant Matrix: (Units=GPa)
#
#
# Indices 1 2 3 4 5 6 
#
# 1 108.7445 42.4188 51.3096 0.0000 0.0000 0.0000
# 2 42.4188 50.5296 28.1869 0.0000 0.0000 0.0000
# 3 51.3096 28.1869 68.4335 0.0000 0.0000 0.0000
# 4 0.0000 0.0000 0.0000 29.1909 0.0000 0.0000
# 5 0.0000 0.0000 0.0000 0.0000 5.5294 0.0000
# 6 0.0000 0.0000 0.0000 0.0000 0.0000 3.0369
#
#
#
# Elastic Compliance Matrix: (Units=1/GPa)
#
#
# Indices 1 2 3 4 5 6 
#
# 1 0.017055 -0.009327 -0.008946 0.000000 0.000000 0.000000
# 2 -0.009327 0.030795 -0.005691 0.000000 0.000000 0.000000
# 3 -0.008946 -0.005691 0.023664 0.000000 0.000000 0.000000
# 4 0.000000 0.000000 0.000000 0.034257 0.000000 0.000000
# 5 0.000000 0.000000 0.000000 0.000000 0.180852 0.000000
# 6 0.000000 0.000000 0.000000 0.000000 0.000000 0.329285
#
#
# Mechanical properties :
#
#
# Convention : Reuss Voigt Hill
#
# Bulk Modulus (GPa) = 42.39694 52.39313 47.39503
# Shear Modulus (GPa) = 7.44382 14.60426 11.02404
#
# Velocity S-wave (km/s) = 2.00463 2.80786 2.43953
# Velocity P-wave (km/s) = 5.31469 6.22867 5.78974
#
# Compressibility (1/GPa) = 0.02358661
#
# Stress axis : x y z
#
# Youngs Moduli (GPa) = 58.63323 32.47285 42.25856
#
# Poissons Ratio (x) = 0.30289 0.37803
# Poissons Ratio (y) = 0.54690 0.24048
# Poissons Ratio (z) = 0.52451 0.18479
#
# Static dielectric constant tensor:
#      x y z
#    x 1.695270 0.000000 0.000000 
#    y 0.000000 1.598180 0.000000 
#    z 0.000000 0.000000 1.639780 
# 
# From -- ./inp_files/12042.got.cif
#   From: 2010.05.17/outbox.cif.g08.bks.cpg/sg63_7_cif.got.tgz:12042.got - 2010.06.03 15:47:04.
