data_PCOD9472761
_publ_section_title
;
Structure prediction by ZEFSAII (Michael W. Deem and Ramdas Pophale) SiO2 
 PCOD9472761
Probable space group: C M C M
;
_chemical_formula_sum "Si O2"
_cell_formula_units_Z 88
_cell_length_a 13.262902
_cell_length_b 29.771457
_cell_length_c 12.044476
_cell_angle_alpha 90.000000
_cell_angle_beta 90.000000
_cell_angle_gamma 90.000000
_cell_volume 4755.832611
_symmetry_space_group_name_H-M "C M C M"
_symmetry_group_IT_number 63
_symmetry_cell_setting 'orthorhombic'
loop_
_space_group_symop_operation_xyz
x,y,z
-x,-y,1/2+z
x,-y,-z
-x,y,1/2-z
-x,-y,-z
x,y,1/2-z
-x,y,z
x,-y,1/2+z
1/2+x,1/2+y,z
1/2-x,1/2-y,1/2+z
1/2+x,1/2-y,-z
1/2-x,1/2+y,1/2-z
1/2-x,1/2-y,-z
1/2+x,1/2+y,1/2-z
1/2-x,1/2+y,z
1/2+x,1/2-y,1/2+z
loop_
_atom_site_type_symbol
_atom_site_label
_atom_site_fract_x
_atom_site_fract_y
_atom_site_fract_z
Si Si1 0.204087 0.051886 0.472773
Si Si2 0.888021 0.608694 0.116652
Si Si3 0.500000 0.527515 0.378710
Si Si4 0.330672 0.209519 0.376719
Si Si5 0.385821 0.708909 0.465371
Si Si6 0.881203 0.876321 0.374365
O O1 0.301140 0.075692 0.422872
O O2 0.105059 0.054139 0.393248
O O3 0.175026 0.079843 0.582199
O O4 0.222848 0.000000 0.500000
O O5 0.888036 0.608295 0.250000
O O6 0.864115 0.660120 0.084300
O O7 0.000000 0.596276 0.077070
O O8 0.500000 0.500000 0.500000
O O9 0.500000 0.508251 0.250000
O O10 0.364053 0.216107 0.250000
O O11 0.375175 0.247905 0.454908
O O12 0.208824 0.211371 0.383270
O O13 0.500000 0.706824 0.419932
O O14 0.368291 0.664809 0.541196
O O15 0.850346 0.863477 0.250000
O O16 0.000000 0.886909 0.373296
#
# Coordination Sequence:
#
# PCOD9472761 Si02
#       6
#    16  16   8  16  16  16
#     4  11  22  37  56  84 117 150 199 244 294 344
#     4  10  21  38  59  82 110 147 192 238 288 343
#     4  10  22  38  60  88 122 156 194 250 310 370
#     4  10  20  35  58  84 112 147 186 230 283 343
#     4  10  20  35  56  85 116 144 184 231 284 344
#     4  10  20  35  56  83 117 153 189 232 289 357
#
# _framework density 18.503595000000001
#
# number of rings (size 3 to 8) (size 9 to 14) (size 15 to 20)
#    0.000    1.818    2.727    1.636    0.000    6.182 
#    0.000    0.000    0.000    0.545    0.000    0.000 
#    0.000    0.000    0.000    0.000    0.000    0.000 
#
# Total GULP energy -245360.217931 kJ/mol
# GULP energy per Si atom -5576.368589 kJ/mol
# Density = 1.846148 g / cm^3
# Si number density = 18.503595 Si / 1000 Ang^3
#
#
#
# Elastic Constant Matrix: (Units=GPa)
#
#
# Indices 1 2 3 4 5 6 
#
# 1 105.5790 28.3993 14.7439 0.0000 0.0000 0.0000
# 2 28.3993 102.6660 8.3023 0.0000 0.0000 0.0000
# 3 14.7439 8.3023 45.0563 0.0000 0.0000 0.0000
# 4 0.0000 0.0000 0.0000 16.7905 0.0000 0.0000
# 5 0.0000 0.0000 0.0000 0.0000 -88.5300 0.0000
# 6 0.0000 0.0000 0.0000 0.0000 0.0000 20.0167
#
#
#
# Elastic Compliance Matrix: (Units=1/GPa)
#
#
# Indices 1 2 3 4 5 6 
#
# 1 0.010612 -0.002695 -0.002976 0.000000 0.000000 0.000000
# 2 -0.002695 0.010572 -0.001066 0.000000 0.000000 0.000000
# 3 -0.002976 -0.001066 0.023365 0.000000 0.000000 0.000000
# 4 0.000000 0.000000 0.000000 0.059558 0.000000 0.000000
# 5 0.000000 0.000000 0.000000 0.000000 -0.011296 0.000000
# 6 0.000000 0.000000 0.000000 0.000000 0.000000 0.049958
#
#
# Mechanical properties :
#
#
# Convention : Reuss Voigt Hill
#
# Bulk Modulus (GPa) = 32.18056 39.57691 35.87873
# Shear Modulus (GPa) = 30.01177 3.11251 16.56214
#
# Velocity S-wave (km/s) = 4.03170 1.29837 2.99503
# Velocity P-wave (km/s) = 6.25317 4.86651 5.60290
#
# Compressibility (1/GPa) = 0.03107466
#
# Stress axis : x y z
#
# Youngs Moduli (GPa) = 94.23252 94.58972 42.79943
#
# Poissons Ratio (x) = 0.25490 0.12737
# Poissons Ratio (y) = 0.25394 0.04563
# Poissons Ratio (z) = 0.28044 0.10085
#
# Static dielectric constant tensor:
#      x y z
#    x 1.654060 0.000000 0.000000 
#    y 0.000000 1.632700 0.000000 
#    z 0.000000 0.000000 1.638470 
# 
# From -- ./inp_files/18012.got.cif
#   From: 2010.05.17/outbox.cif.g08.bks.cpg/sg63_10_cif.got.tgz:18012.got - 2010.06.03 15:47:04.
