data_PCOD9472394
_publ_section_title
;
Structure prediction by ZEFSAII (Michael W. Deem and Ramdas Pophale) SiO2 
 PCOD9472394
Probable space group: C M C M
;
_chemical_formula_sum "Si O2"
_cell_formula_units_Z 112
_cell_length_a 29.249669
_cell_length_b 5.379728
_cell_length_c 29.982106
_cell_angle_alpha 90.000000
_cell_angle_beta 90.000000
_cell_angle_gamma 90.000000
_cell_volume 4717.842184
_symmetry_space_group_name_H-M "C M C M"
_symmetry_group_IT_number 63
_symmetry_cell_setting 'orthorhombic'
loop_
_space_group_symop_operation_xyz
x,y,z
-x,-y,1/2+z
x,-y,-z
-x,y,1/2-z
-x,-y,-z
x,y,1/2-z
-x,y,z
x,-y,1/2+z
1/2+x,1/2+y,z
1/2-x,1/2-y,1/2+z
1/2+x,1/2-y,-z
1/2-x,1/2+y,1/2-z
1/2-x,1/2-y,-z
1/2+x,1/2+y,1/2-z
1/2-x,1/2+y,z
1/2+x,1/2-y,1/2+z
loop_
_atom_site_type_symbol
_atom_site_label
_atom_site_fract_x
_atom_site_fract_y
_atom_site_fract_z
Si Si1 0.732734 0.825497 0.050403
Si Si2 0.049893 0.200567 0.606049
Si Si3 0.049795 0.201928 0.461534
Si Si4 0.234084 0.090549 0.302498
Si Si5 0.364314 0.797767 0.176944
Si Si6 0.416347 0.706641 0.700844
Si Si7 0.131071 0.542468 0.575226
O O1 0.735512 0.545756 0.070713
O O2 0.682197 0.944528 0.055445
O O3 0.750000 0.750000 0.000000
O O4 0.048981 0.923017 0.587357
O O5 0.051359 0.235518 0.658525
O O6 0.098109 0.308025 0.587678
O O7 0.000000 0.301943 0.590888
O O8 0.000000 0.318087 0.467847
O O9 0.052181 0.000000 0.500000
O O10 0.097583 0.337048 0.460881
O O11 0.244547 0.052276 0.250000
O O12 0.266704 0.309609 0.321648
O O13 0.185920 0.225618 0.307528
O O14 0.394339 0.565293 0.193536
O O15 0.364866 0.821823 0.123264
O O16 0.380931 0.062712 0.196065
O O17 0.436825 0.718904 0.750000
#
# Coordination Sequence:
#
# PCOD9472394 Si02
#       7
#    16  16  16  16  16  16  16
#     4  10  25  43  65  98 136 181 235 290 347 426
#     4  10  23  43  67 102 141 180 237 293 351 428
#     4  10  22  40  67 101 134 175 229 286 346 419
#     4  10  20  34  54  81 116 160 212 278 338 388
#     4  11  23  39  62  95 129 177 229 283 339 421
#     4  11  22  40  66  97 135 181 228 280 345 416
#     4  11  24  41  70  92 142 185 230 285 364 407
#
# _framework density 23.739666
#
# number of rings (size 3 to 8) (size 9 to 14) (size 15 to 20)
#    0.000    1.571    1.429    2.571    4.000    4.286 
#    0.000    2.143    0.000    1.714    0.000    0.000 
#    0.000    0.000    0.000    0.000    0.000    0.000 
#
# Total GULP energy -311937.414768 kJ/mol
# GULP energy per Si atom -5570.310978 kJ/mol
# Density = 2.368563 g / cm^3
# Si number density = 23.739666 Si / 1000 Ang^3
#
#
#
# Elastic Constant Matrix: (Units=GPa)
#
#
# Indices 1 2 3 4 5 6 
#
# 1 133.6460 18.4528 19.0706 0.0000 0.0000 0.0000
# 2 18.4528 95.4290 13.3868 0.0000 0.0000 0.0000
# 3 19.0706 13.3868 96.5070 0.0000 0.0000 0.0000
# 4 0.0000 0.0000 0.0000 23.7678 0.0000 0.0000
# 5 0.0000 0.0000 0.0000 0.0000 47.9064 0.0000
# 6 0.0000 0.0000 0.0000 0.0000 0.0000 35.2361
#
#
#
# Elastic Compliance Matrix: (Units=1/GPa)
#
#
# Indices 1 2 3 4 5 6 
#
# 1 0.007861 -0.001328 -0.001369 0.000000 0.000000 0.000000
# 2 -0.001328 0.010911 -0.001251 0.000000 0.000000 0.000000
# 3 -0.001369 -0.001251 0.010806 0.000000 0.000000 0.000000
# 4 0.000000 0.000000 0.000000 0.042074 0.000000 0.000000
# 5 0.000000 0.000000 0.000000 0.000000 0.020874 0.000000
# 6 0.000000 0.000000 0.000000 0.000000 0.000000 0.028380
#
#
# Mechanical properties :
#
#
# Convention : Reuss Voigt Hill
#
# Bulk Modulus (GPa) = 46.12156 47.48916 46.80536
# Shear Modulus (GPa) = 36.75654 39.69353 38.22503
#
# Velocity S-wave (km/s) = 3.93914 4.09349 4.01705
# Velocity P-wave (km/s) = 6.33714 6.51074 6.42452
#
# Compressibility (1/GPa) = 0.02168183
#
# Stress axis : x y z
#
# Youngs Moduli (GPa) = 127.20707 91.64814 92.54066
#
# Poissons Ratio (x) = 0.12171 0.12671
# Poissons Ratio (y) = 0.16893 0.11578
# Poissons Ratio (z) = 0.17418 0.11466
#
# Static dielectric constant tensor:
#      x y z
#    x 1.906300 0.000000 0.000000 
#    y 0.000000 2.065260 0.000000 
#    z 0.000000 0.000000 1.952570 
# 
# From -- ./inp_files/74516.got.cif
#   From: 2010.05.17/outbox.cif.g08.bks.cpg/sg63_38_cif.got.tgz:74516.got - 2010.06.03 15:47:04.
