data_PCOD9472748
_publ_section_title
;
Structure prediction by ZEFSAII (Michael W. Deem and Ramdas Pophale) SiO2 
 PCOD9472748
Probable space group: C M C M
;
_chemical_formula_sum "Si O2"
_cell_formula_units_Z 96
_cell_length_a 8.333664
_cell_length_b 22.176443
_cell_length_c 24.140983
_cell_angle_alpha 90.000000
_cell_angle_beta 90.000000
_cell_angle_gamma 90.000000
_cell_volume 4461.519805
_symmetry_space_group_name_H-M "C M C M"
_symmetry_group_IT_number 63
_symmetry_cell_setting 'orthorhombic'
loop_
_space_group_symop_operation_xyz
x,y,z
-x,-y,1/2+z
x,-y,-z
-x,y,1/2-z
-x,-y,-z
x,y,1/2-z
-x,y,z
x,-y,1/2+z
1/2+x,1/2+y,z
1/2-x,1/2-y,1/2+z
1/2+x,1/2-y,-z
1/2-x,1/2+y,1/2-z
1/2-x,1/2-y,-z
1/2+x,1/2+y,1/2-z
1/2-x,1/2+y,z
1/2+x,1/2-y,1/2+z
loop_
_atom_site_type_symbol
_atom_site_label
_atom_site_fract_x
_atom_site_fract_y
_atom_site_fract_z
Si Si1 0.809921 0.157177 0.916798
Si Si2 0.192494 0.088473 0.687297
Si Si3 0.191706 0.851017 0.812575
Si Si4 0.312249 0.905208 0.981271
Si Si5 0.311774 0.712468 0.078001
Si Si6 0.309925 0.030339 0.126819
O O1 0.747800 0.138403 0.856197
O O2 0.733134 0.219688 0.936362
O O3 0.000000 0.166009 0.914887
O O4 0.771893 0.103748 0.959995
O O5 0.256202 0.091534 0.750000
O O6 0.000000 0.094470 0.690134
O O7 0.229858 0.024975 0.658169
O O8 0.241709 0.837664 0.750000
O O9 0.218339 0.797902 0.856546
O O10 0.277217 0.910057 0.836683
O O11 0.000000 0.863318 0.812791
O O12 0.500000 0.916396 0.990658
O O13 0.287034 0.840130 0.951810
O O14 0.251910 0.953182 0.935592
O O15 0.500000 0.701519 0.066197
O O16 0.500000 0.019479 0.123287
#
# Coordination Sequence:
#
# PCOD9472748 Si02
#       6
#    16  16  16  16  16  16
#     4  11  23  38  57  81 110 146 187 226 268 323
#     4  10  23  42  60  79 109 150 188 222 268 327
#     4   9  18  33  54  80 110 145 184 226 274 329
#     4  10  21  38  59  84 114 144 178 224 278 329
#     4  10  20  35  56  82 113 148 185 226 275 327
#     4  10  21  36  57  85 112 140 179 229 279 324
#
# _framework density 21.517332
#
# number of rings (size 3 to 8) (size 9 to 14) (size 15 to 20)
#    0.000    2.000    0.000    3.000    0.000    8.000 
#    0.000    3.333    0.000    0.000    0.000    0.000 
#    0.000    0.000    0.000    0.000    0.000    0.000 
#
# Total GULP energy -268156.985838 kJ/mol
# GULP energy per Si atom -5586.603872 kJ/mol
# Density = 2.146836 g / cm^3
# Si number density = 21.517332 Si / 1000 Ang^3
#
#
#
# Elastic Constant Matrix: (Units=GPa)
#
#
# Indices 1 2 3 4 5 6 
#
# 1 13.4272 -8.0807 0.2174 0.0000 0.0000 0.0000
# 2 -8.0807 55.5276 19.9984 0.0000 0.0000 0.0000
# 3 0.2174 19.9984 106.7486 0.0000 0.0000 0.0000
# 4 0.0000 0.0000 0.0000 24.6541 0.0000 0.0000
# 5 0.0000 0.0000 0.0000 0.0000 22.7912 0.0000
# 6 0.0000 0.0000 0.0000 0.0000 0.0000 15.8126
#
#
#
# Elastic Compliance Matrix: (Units=1/GPa)
#
#
# Indices 1 2 3 4 5 6 
#
# 1 0.082284 0.012906 -0.002585 0.000000 0.000000 0.000000
# 2 0.012906 0.021336 -0.004023 0.000000 0.000000 0.000000
# 3 -0.002585 -0.004023 0.010127 0.000000 0.000000 0.000000
# 4 0.000000 0.000000 0.000000 0.040561 0.000000 0.000000
# 5 0.000000 0.000000 0.000000 0.000000 0.043877 0.000000
# 6 0.000000 0.000000 0.000000 0.000000 0.000000 0.063241
#
#
# Mechanical properties :
#
#
# Convention : Reuss Voigt Hill
#
# Bulk Modulus (GPa) = 7.91509 22.21929 15.06719
# Shear Modulus (GPa) = 17.18534 23.55614 20.37074
#
# Velocity S-wave (km/s) = 2.82915 3.31229 3.08021
# Velocity P-wave (km/s) = 3.78927 4.99770 4.43484
#
# Compressibility (1/GPa) = 0.12634102
#
# Stress axis : x y z
#
# Youngs Moduli (GPa) = 12.15300 46.86866 98.74757
#
# Poissons Ratio (x) = -0.60487 0.25530
# Poissons Ratio (y) = -0.15684 0.39731
# Poissons Ratio (z) = 0.03142 0.18857
#
# Static dielectric constant tensor:
#      x y z
#    x 1.745560 0.000000 0.000000 
#    y 0.000000 1.757950 0.000000 
#    z 0.000000 0.000000 1.833940 
# 
# From -- ./inp_files/59933.got.cif
#   From: 2010.05.17/outbox.cif.g08.bks.cpg/sg63_30_cif.got.tgz:59933.got - 2010.06.03 15:47:04.
