data_PCOD9472603
_publ_section_title
;
Structure prediction by ZEFSAII (Michael W. Deem and Ramdas Pophale) SiO2 
 PCOD9472603
Probable space group: C M C M
;
_chemical_formula_sum "Si O2"
_cell_formula_units_Z 96
_cell_length_a 7.455687
_cell_length_b 20.119682
_cell_length_c 30.109869
_cell_angle_alpha 90.000000
_cell_angle_beta 90.000000
_cell_angle_gamma 90.000000
_cell_volume 4516.662561
_symmetry_space_group_name_H-M "C M C M"
_symmetry_group_IT_number 63
_symmetry_cell_setting 'orthorhombic'
loop_
_space_group_symop_operation_xyz
x,y,z
-x,-y,1/2+z
x,-y,-z
-x,y,1/2-z
-x,-y,-z
x,y,1/2-z
-x,y,z
x,-y,1/2+z
1/2+x,1/2+y,z
1/2-x,1/2-y,1/2+z
1/2+x,1/2-y,-z
1/2-x,1/2+y,1/2-z
1/2-x,1/2-y,-z
1/2+x,1/2+y,1/2-z
1/2-x,1/2+y,z
1/2+x,1/2-y,1/2+z
loop_
_atom_site_type_symbol
_atom_site_label
_atom_site_fract_x
_atom_site_fract_y
_atom_site_fract_z
Si Si1 0.213034 0.182877 0.526843
Si Si2 0.203973 0.442481 0.529894
Si Si3 0.216452 0.023852 0.300630
Si Si4 0.780502 0.772194 0.376364
Si Si5 0.781353 0.127131 0.699255
Si Si6 0.210632 0.620629 0.381089
O O1 0.250000 0.250000 0.500000
O O2 0.299865 0.122439 0.500796
O O3 0.273345 0.194280 0.577247
O O4 0.000000 0.170825 0.527377
O O5 0.290017 0.500000 0.500000
O O6 0.287277 0.419677 0.576729
O O7 0.000000 0.465513 0.540012
O O8 0.275579 0.038184 0.250000
O O9 0.273768 0.077483 0.336707
O O10 0.000000 0.023799 0.300328
O O11 0.274046 0.948437 0.312184
O O12 0.720735 0.817370 0.335292
O O13 0.718520 0.695562 0.375518
O O14 0.000000 0.771464 0.375401
O O15 0.726604 0.140635 0.750000
O O16 0.000000 0.127253 0.698715
O O17 0.000000 0.629423 0.391597
#
# Coordination Sequence:
#
# PCOD9472603 Si02
#       6
#    16  16  16  16  16  16
#     4  11  21  36  57  80 111 146 184 226 272 327
#     4  10  22  39  55  77 114 150 182 227 279 326
#     4   9  19  35  54  77 106 137 171 216 268 320
#     4   9  18  32  51  77 106 133 172 225 265 308
#     4   8  15  30  52  76 101 131 167 212 267 315
#     4  10  20  35  53  77 108 140 177 219 265 321
#
# _framework density 21.254632999999998
#
# number of rings (size 3 to 8) (size 9 to 14) (size 15 to 20)
#    0.000    2.500    1.667    1.500    2.333    2.000 
#    0.000    1.667    0.000    1.000    0.000    0.000 
#    0.000    0.000    0.000    0.000    0.000    0.000 
#
# Total GULP energy -267995.007513 kJ/mol
# GULP energy per Si atom -5583.229323 kJ/mol
# Density = 2.120626 g / cm^3
# Si number density = 21.254633 Si / 1000 Ang^3
#
#
#
# Elastic Constant Matrix: (Units=GPa)
#
#
# Indices 1 2 3 4 5 6 
#
# 1 64.8714 -9.4508 -5.9053 0.0000 0.0000 0.0000
# 2 -9.4508 111.4387 81.7474 0.0000 0.0000 0.0000
# 3 -5.9053 81.7474 152.4513 0.0000 0.0000 0.0000
# 4 0.0000 0.0000 0.0000 45.5455 0.0000 0.0000
# 5 0.0000 0.0000 0.0000 0.0000 11.5173 0.0000
# 6 0.0000 0.0000 0.0000 0.0000 0.0000 -32.0479
#
#
#
# Elastic Compliance Matrix: (Units=1/GPa)
#
#
# Indices 1 2 3 4 5 6 
#
# 1 0.015611 0.001451 -0.000173 0.000000 0.000000 0.000000
# 2 0.001451 0.014927 -0.007948 0.000000 0.000000 0.000000
# 3 -0.000173 -0.007948 0.010815 0.000000 0.000000 0.000000
# 4 0.000000 0.000000 0.000000 0.021956 0.000000 0.000000
# 5 0.000000 0.000000 0.000000 0.000000 0.086826 0.000000
# 6 0.000000 0.000000 0.000000 0.000000 0.000000 -0.031203
#
#
# Mechanical properties :
#
#
# Convention : Reuss Voigt Hill
#
# Bulk Modulus (GPa) = 35.69926 51.28268 43.49097
# Shear Modulus (GPa) = 35.30865 22.49433 28.90149
#
# Velocity S-wave (km/s) = 4.08023 3.25672 3.69151
# Velocity P-wave (km/s) = 6.24741 6.19046 6.21900
#
# Compressibility (1/GPa) = 0.02801178
#
# Stress axis : x y z
#
# Youngs Moduli (GPa) = 64.05855 66.99327 92.46793
#
# Poissons Ratio (x) = -0.09721 0.01604
# Poissons Ratio (y) = -0.09296 0.73492
# Poissons Ratio (z) = 0.01111 0.53245
#
# Static dielectric constant tensor:
#      x y z
#    x 1.869090 0.000000 0.000000 
#    y 0.000000 1.724240 0.000000 
#    z 0.000000 0.000000 1.735020 
# 
# From -- ./inp_files/66889.got.cif
#   From: 2010.05.17/outbox.cif.g08.bks.cpg/sg63_34_cif.got.tgz:66889.got - 2010.06.03 15:47:04.
