data_PCOD9472165
_publ_section_title
;
Structure prediction by ZEFSAII (Michael W. Deem and Ramdas Pophale) SiO2 
 PCOD9472165
Probable space group: C M C M
;
_chemical_formula_sum "Si O2"
_cell_formula_units_Z 80
_cell_length_a 16.615175
_cell_length_b 29.931837
_cell_length_c 7.495992
_cell_angle_alpha 90.000000
_cell_angle_beta 90.000000
_cell_angle_gamma 90.000000
_cell_volume 3727.927054
_symmetry_space_group_name_H-M "C M C M"
_symmetry_group_IT_number 63
_symmetry_cell_setting 'orthorhombic'
loop_
_space_group_symop_operation_xyz
x,y,z
-x,-y,1/2+z
x,-y,-z
-x,y,1/2-z
-x,-y,-z
x,y,1/2-z
-x,y,z
x,-y,1/2+z
1/2+x,1/2+y,z
1/2-x,1/2-y,1/2+z
1/2+x,1/2-y,-z
1/2-x,1/2+y,1/2-z
1/2-x,1/2-y,-z
1/2+x,1/2+y,1/2-z
1/2-x,1/2+y,z
1/2+x,1/2-y,1/2+z
loop_
_atom_site_type_symbol
_atom_site_label
_atom_site_fract_x
_atom_site_fract_y
_atom_site_fract_z
Si Si1 0.717174 0.631527 0.047161
Si Si2 0.666904 0.209599 0.547574
Si Si3 0.500000 0.830431 0.956200
Si Si4 0.678412 0.950756 0.535841
Si Si5 0.406867 0.301004 0.530918
Si Si6 0.000000 0.437061 0.956309
O O1 0.697685 0.618268 0.250000
O O2 0.765964 0.589782 0.966646
O O3 0.635922 0.653261 0.970227
O O4 0.777409 0.674016 0.050674
O O5 0.696243 0.213576 0.750000
O O6 0.579028 0.187605 0.547791
O O7 0.648194 0.258894 0.473778
O O8 0.500000 0.815452 0.750000
O O9 0.500000 0.883609 0.955948
O O10 0.671419 0.943658 0.750000
O O11 0.586456 0.950106 0.463841
O O12 0.712154 0.000000 0.500000
O O13 0.405957 0.300058 0.750000
O O14 0.500000 0.296332 0.476737
O O15 0.000000 0.453203 0.750000
#
# Coordination Sequence:
#
# PCOD9472165 Si02
#       6
#    16  16   8  16  16   8
#     4  10  20  35  55  75 101 139 175 208 256 313
#     4  11  20  32  51  78 110 138 172 214 253 292
#     4  11  19  32  52  74 107 146 179 207 243 300
#     4  10  20  34  51  73  98 130 170 211 255 305
#     4   9  18  33  53  77 105 135 171 215 254 300
#     4   9  17  32  50  70  99 131 167 204 238 292
#
# _framework density 21.459648999999999
#
# number of rings (size 3 to 8) (size 9 to 14) (size 15 to 20)
#    0.000    2.000    3.000    1.800    0.000    0.800 
#    0.000    1.000    0.000    0.600    0.000    0.000 
#    0.000    0.000    0.000    0.000    0.000    0.000 
#
# Total GULP energy -223271.050018 kJ/mol
# GULP energy per Si atom -5581.776250 kJ/mol
# Density = 2.141081 g / cm^3
# Si number density = 21.459649 Si / 1000 Ang^3
#
#
#
# Elastic Constant Matrix: (Units=GPa)
#
#
# Indices 1 2 3 4 5 6 
#
# 1 58.6598 54.3762 8.8958 0.0000 0.0000 0.0000
# 2 54.3762 149.7449 4.3749 0.0000 0.0000 0.0000
# 3 8.8958 4.3749 71.3384 0.0000 0.0000 0.0000
# 4 0.0000 0.0000 0.0000 6.1896 0.0000 0.0000
# 5 0.0000 0.0000 0.0000 0.0000 11.9295 0.0000
# 6 0.0000 0.0000 0.0000 0.0000 0.0000 33.5174
#
#
#
# Elastic Compliance Matrix: (Units=1/GPa)
#
#
# Indices 1 2 3 4 5 6 
#
# 1 0.026202 -0.009436 -0.002689 0.000000 0.000000 0.000000
# 2 -0.009436 0.010088 0.000558 0.000000 0.000000 0.000000
# 3 -0.002689 0.000558 0.014319 0.000000 0.000000 0.000000
# 4 0.000000 0.000000 0.000000 0.161561 0.000000 0.000000
# 5 0.000000 0.000000 0.000000 0.000000 0.083826 0.000000
# 6 0.000000 0.000000 0.000000 0.000000 0.000000 0.029835
#
#
# Mechanical properties :
#
#
# Convention : Reuss Voigt Hill
#
# Bulk Modulus (GPa) = 36.39600 46.11522 41.25561
# Shear Modulus (GPa) = 13.96164 24.46704 19.21434
#
# Velocity S-wave (km/s) = 2.55345 3.38026 2.99552
# Velocity P-wave (km/s) = 5.06858 6.06389 5.58844
#
# Compressibility (1/GPa) = 0.02747554
#
# Stress axis : x y z
#
# Youngs Moduli (GPa) = 38.16462 99.12536 69.83845
#
# Poissons Ratio (x) = 0.93536 0.18777
# Poissons Ratio (y) = 0.36013 -0.03897
# Poissons Ratio (z) = 0.10261 -0.05531
#
# Static dielectric constant tensor:
#      x y z
#    x 1.784270 0.000000 0.000000 
#    y 0.000000 1.776250 0.000000 
#    z 0.000000 0.000000 1.803260 
# 
# From -- ./inp_files/6468.got.cif
#   From: 2010.05.17/outbox.cif.g08.bks.cpg/sg63_4_cif.got.tgz:6468.got - 2010.06.03 15:47:04.
