data_PCOD9472195
_publ_section_title
;
Structure prediction by ZEFSAII (Michael W. Deem and Ramdas Pophale) SiO2 
 PCOD9472195
Probable space group: C M C M
;
_chemical_formula_sum "Si O2"
_cell_formula_units_Z 80
_cell_length_a 7.501862
_cell_length_b 18.949533
_cell_length_c 26.516043
_cell_angle_alpha 90.000000
_cell_angle_beta 90.000000
_cell_angle_gamma 90.000000
_cell_volume 3769.435332
_symmetry_space_group_name_H-M "C M C M"
_symmetry_group_IT_number 63
_symmetry_cell_setting 'orthorhombic'
loop_
_space_group_symop_operation_xyz
x,y,z
-x,-y,1/2+z
x,-y,-z
-x,y,1/2-z
-x,-y,-z
x,y,1/2-z
-x,y,z
x,-y,1/2+z
1/2+x,1/2+y,z
1/2-x,1/2-y,1/2+z
1/2+x,1/2-y,-z
1/2-x,1/2+y,1/2-z
1/2-x,1/2-y,-z
1/2+x,1/2+y,1/2-z
1/2-x,1/2+y,z
1/2+x,1/2-y,1/2+z
loop_
_atom_site_type_symbol
_atom_site_label
_atom_site_fract_x
_atom_site_fract_y
_atom_site_fract_z
Si Si1 0.281205 0.418922 0.652686
Si Si2 0.212470 0.331874 0.250000
Si Si3 0.215850 0.828003 0.057795
Si Si4 0.288903 0.335753 0.944673
Si Si5 0.217963 0.170571 0.250000
Si Si6 0.788880 0.920865 0.349693
O O1 0.500000 0.418149 0.653049
O O2 0.219676 0.384269 0.600260
O O3 0.225802 0.371529 0.700105
O O4 0.220503 0.499732 0.657130
O O5 0.280150 0.251486 0.250000
O O6 0.265808 0.374425 0.299804
O O7 0.000000 0.327918 0.250000
O O8 0.263557 0.746665 0.068233
O O9 0.282755 0.879194 0.101675
O O10 0.000000 0.831022 0.056930
O O11 0.281812 0.846339 0.001436
O O12 0.500000 0.349301 0.947367
O O13 0.000000 0.171493 0.250000
O O14 0.000000 0.928327 0.358302
#
# Coordination Sequence:
#
# PCOD9472195 Si02
#       6
#    16   8  16  16   8  16
#     4   9  17  30  50  73  97 128 165 203 243 288
#     4  11  22  35  53  75  98 127 164 202 242 297
#     4   9  18  31  49  75 103 131 166 207 250 293
#     4   9  17  31  51  73  99 134 173 208 242 287
#     4   9  17  29  47  71  94 121 162 204 240 285
#     4  10  20  34  52  74 101 130 161 204 254 297
#
# _framework density 21.223337000000001
#
# number of rings (size 3 to 8) (size 9 to 14) (size 15 to 20)
#    0.000    2.600    0.000    2.100    0.000    4.800 
#    0.000    5.000    0.000    7.200    0.000    7.000 
#    0.000    0.000    0.000    0.000    0.000    0.000 
#
# Total GULP energy -223393.667067 kJ/mol
# GULP energy per Si atom -5584.841677 kJ/mol
# Density = 2.117503 g / cm^3
# Si number density = 21.223337 Si / 1000 Ang^3
#
#
#
# Elastic Constant Matrix: (Units=GPa)
#
#
# Indices 1 2 3 4 5 6 
#
# 1 48.9346 -11.0188 -7.1133 0.0000 0.0000 0.0000
# 2 -11.0188 200.1296 144.5185 0.0000 0.0000 0.0000
# 3 -7.1133 144.5185 181.0997 0.0000 0.0000 0.0000
# 4 0.0000 0.0000 0.0000 -27.7229 0.0000 0.0000
# 5 0.0000 0.0000 0.0000 0.0000 -36.0341 0.0000
# 6 0.0000 0.0000 0.0000 0.0000 0.0000 16.1582
#
#
#
# Elastic Compliance Matrix: (Units=1/GPa)
#
#
# Indices 1 2 3 4 5 6 
#
# 1 0.020696 0.001304 -0.000228 0.000000 0.000000 0.000000
# 2 0.001304 0.011874 -0.009424 0.000000 0.000000 0.000000
# 3 -0.000228 -0.009424 0.013034 0.000000 0.000000 0.000000
# 4 0.000000 0.000000 0.000000 -0.036071 0.000000 0.000000
# 5 0.000000 0.000000 0.000000 0.000000 -0.027751 0.000000
# 6 0.000000 0.000000 0.000000 0.000000 0.000000 0.061888
#
#
# Mechanical properties :
#
#
# Convention : Reuss Voigt Hill
#
# Bulk Modulus (GPa) = 34.59325 75.88188 55.23756
# Shear Modulus (GPa) = 71.42728 10.73206 41.07967
#
# Velocity S-wave (km/s) = 5.80759 2.25116 4.40431
# Velocity P-wave (km/s) = 7.82981 6.52599 7.20744
#
# Compressibility (1/GPa) = 0.02890737
#
# Stress axis : x y z
#
# Youngs Moduli (GPa) = 48.31867 84.21649 76.72459
#
# Poissons Ratio (x) = -0.10980 0.01746
# Poissons Ratio (y) = -0.06300 0.72309
# Poissons Ratio (z) = 0.01099 0.79369
#
# Static dielectric constant tensor:
#      x y z
#    x 1.805940 0.000000 0.000000 
#    y 0.000000 1.721320 0.000000 
#    z 0.000000 0.000000 1.732970 
# 
# From -- ./inp_files/66647.got.cif
#   From: 2010.05.17/outbox.cif.g08.bks.cpg/sg63_34_cif.got.tgz:66647.got - 2010.06.03 15:47:04.
