data_PCOD9472112
_publ_section_title
;
Structure prediction by ZEFSAII (Michael W. Deem and Ramdas Pophale) SiO2 
 PCOD9472112
Probable space group: C M C M
;
_chemical_formula_sum "Si O2"
_cell_formula_units_Z 96
_cell_length_a 19.005414
_cell_length_b 9.911203
_cell_length_c 26.395758
_cell_angle_alpha 90.000000
_cell_angle_beta 90.000000
_cell_angle_gamma 90.000000
_cell_volume 4972.076978
_symmetry_space_group_name_H-M "C M C M"
_symmetry_group_IT_number 63
_symmetry_cell_setting 'orthorhombic'
loop_
_space_group_symop_operation_xyz
x,y,z
-x,-y,1/2+z
x,-y,-z
-x,y,1/2-z
-x,-y,-z
x,y,1/2-z
-x,y,z
x,-y,1/2+z
1/2+x,1/2+y,z
1/2-x,1/2-y,1/2+z
1/2+x,1/2-y,-z
1/2-x,1/2+y,1/2-z
1/2-x,1/2-y,-z
1/2+x,1/2+y,1/2-z
1/2-x,1/2+y,z
1/2+x,1/2-y,1/2+z
loop_
_atom_site_type_symbol
_atom_site_label
_atom_site_fract_x
_atom_site_fract_y
_atom_site_fract_z
Si Si1 0.084527 0.004975 0.155099
Si Si2 0.914090 0.647185 0.983367
Si Si3 0.415444 0.805076 0.132708
Si Si4 0.696664 0.314657 0.307933
Si Si5 0.585400 0.599923 0.955986
Si Si6 0.178175 0.490869 0.688236
O O1 0.125524 0.902123 0.190616
O O2 0.104642 0.952275 0.099010
O O3 0.000000 0.997775 0.161287
O O4 0.106470 0.162125 0.157812
O O5 0.892537 0.687108 0.926301
O O6 0.000000 0.648153 0.982685
O O7 0.890600 0.500000 0.000000
O O8 0.891468 0.753432 0.025966
O O9 0.500000 0.804250 0.132341
O O10 0.387623 0.932858 0.163509
O O11 0.718153 0.290608 0.250000
O O12 0.756439 0.414764 0.328713
O O13 0.686969 0.164185 0.329508
O O14 0.500000 0.598410 0.956249
O O15 0.609228 0.500000 0.000000
O O16 0.172834 0.491123 0.750000
#
# Coordination Sequence:
#
# PCOD9472112 Si02
#       6
#    16  16  16  16  16  16
#     4  10  20  33  55  85 114 145 180 223 269 315
#     4   9  17  28  46  75 110 146 180 217 260 313
#     4  10  20  34  54  84 116 145 180 222 270 317
#     4  10  22  40  60  80 104 140 183 224 273 331
#     4   9  15  28  48  73 108 146 180 213 257 312
#     4  10  22  40  60  79 104 141 182 225 273 329
#
# _framework density 19.307825999999999
#
# number of rings (size 3 to 8) (size 9 to 14) (size 15 to 20)
#    0.000    2.333    1.667    1.000    2.333    3.333 
#    0.000    3.333    0.000    2.000    0.000    0.000 
#    0.000    0.000    0.000    0.000    0.000    0.000 
#
# Total GULP energy -267441.106130 kJ/mol
# GULP energy per Si atom -5571.689711 kJ/mol
# Density = 1.926388 g / cm^3
# Si number density = 19.307826 Si / 1000 Ang^3
#
#
#
# Elastic Constant Matrix: (Units=GPa)
#
#
# Indices 1 2 3 4 5 6 
#
# 1 20.3833 23.0085 0.7644 0.0000 0.0000 0.0000
# 2 23.0085 165.1909 10.0050 0.0000 0.0000 0.0000
# 3 0.7644 10.0050 24.3290 0.0000 0.0000 0.0000
# 4 0.0000 0.0000 0.0000 27.5191 0.0000 0.0000
# 5 0.0000 0.0000 0.0000 0.0000 -15.2091 0.0000
# 6 0.0000 0.0000 0.0000 0.0000 0.0000 20.5273
#
#
#
# Elastic Compliance Matrix: (Units=1/GPa)
#
#
# Indices 1 2 3 4 5 6 
#
# 1 0.058269 -0.008209 0.001545 0.000000 0.000000 0.000000
# 2 -0.008209 0.007365 -0.002771 0.000000 0.000000 0.000000
# 3 0.001545 -0.002771 0.042194 0.000000 0.000000 0.000000
# 4 0.000000 0.000000 0.000000 0.036338 0.000000 0.000000
# 5 0.000000 0.000000 0.000000 0.000000 -0.065750 0.000000
# 6 0.000000 0.000000 0.000000 0.000000 0.000000 0.048716
#
#
# Mechanical properties :
#
#
# Convention : Reuss Voigt Hill
#
# Bulk Modulus (GPa) = 11.24129 30.82875 21.03502
# Shear Modulus (GPa) = 28.46509 18.30916 23.38712
#
# Velocity S-wave (km/s) = 3.84380 3.08275 3.48412
# Velocity P-wave (km/s) = 5.05317 5.35470 5.20611
#
# Compressibility (1/GPa) = 0.08895774
#
# Stress axis : x y z
#
# Youngs Moduli (GPa) = 17.16191 135.77981 23.70002
#
# Poissons Ratio (x) = 1.11468 -0.03663
# Poissons Ratio (y) = 0.14089 0.06567
# Poissons Ratio (z) = -0.02652 0.37621
#
# Static dielectric constant tensor:
#      x y z
#    x 1.692470 0.000000 0.000000 
#    y 0.000000 1.702140 0.000000 
#    z 0.000000 0.000000 1.707560 
# 
# From -- ./inp_files/70311.got.cif
#   From: 2010.05.17/outbox.cif.g08.bks.cpg/sg63_36_cif.got.tgz:70311.got - 2010.06.03 15:47:04.
