data_PCOD9472712
_publ_section_title
;
Structure prediction by ZEFSAII (Michael W. Deem and Ramdas Pophale) SiO2 
 PCOD9472712
Probable space group: C M C M
;
_chemical_formula_sum "Si O2"
_cell_formula_units_Z 112
_cell_length_a 13.865780
_cell_length_b 14.529860
_cell_length_c 27.487760
_cell_angle_alpha 90.000000
_cell_angle_beta 90.000000
_cell_angle_gamma 90.000000
_cell_volume 5537.899694
_symmetry_space_group_name_H-M "C M C M"
_symmetry_group_IT_number 63
_symmetry_cell_setting 'orthorhombic'
loop_
_space_group_symop_operation_xyz
x,y,z
-x,-y,1/2+z
x,-y,-z
-x,y,1/2-z
-x,-y,-z
x,y,1/2-z
-x,y,z
x,-y,1/2+z
1/2+x,1/2+y,z
1/2-x,1/2-y,1/2+z
1/2+x,1/2-y,-z
1/2-x,1/2+y,1/2-z
1/2-x,1/2-y,-z
1/2+x,1/2+y,1/2-z
1/2-x,1/2+y,z
1/2+x,1/2-y,1/2+z
loop_
_atom_site_type_symbol
_atom_site_label
_atom_site_fract_x
_atom_site_fract_y
_atom_site_fract_z
Si Si1 0.108397 0.276792 0.946490
Si Si2 0.281148 0.605320 0.403924
Si Si3 0.108960 0.718886 0.562990
Si Si4 0.500000 0.053481 0.808719
Si Si5 0.709231 0.398808 0.095022
Si Si6 0.285395 0.168676 0.305267
Si Si7 0.000000 0.343102 0.691206
Si Si8 0.208778 0.369402 0.194493
O O1 0.186519 0.351234 0.929296
O O2 0.135016 0.177328 0.924207
O O3 0.000000 0.303457 0.932490
O O4 0.114384 0.269704 0.004775
O O5 0.361270 0.683233 0.413628
O O6 0.305063 0.503300 0.421947
O O7 0.255201 0.602978 0.346628
O O8 0.187823 0.643279 0.577991
O O9 0.000000 0.693072 0.576230
O O10 0.500000 0.049457 0.750000
O O11 0.600933 0.101556 0.820809
O O12 0.500000 0.948603 0.826635
O O13 0.716278 0.400079 0.153523
O O14 0.289439 0.131348 0.250000
O O15 0.394850 0.196589 0.320913
O O16 0.220164 0.259266 0.304984
O O17 0.000000 0.342352 0.750000
O O18 0.226741 0.401313 0.250000
#
# Coordination Sequence:
#
# PCOD9472712 Si02
#       8
#    16  16  16   8  16  16   8  16
#     4  10  23  43  62  84 117 152 191 242 297 351
#     4  11  22  37  61  90 119 151 193 241 287 344
#     4  10  23  43  62  84 117 152 191 242 297 351
#     4   9  18  32  52  80 110 146 193 234 274 330
#     4  11  22  37  61  90 119 151 193 241 287 344
#     4  10  20  35  55  84 121 158 192 234 284 336
#     4   9  18  32  52  80 110 146 193 234 274 330
#     4  10  20  35  55  84 121 158 192 234 284 336
#
# _framework density 20.224274999999999
#
# number of rings (size 3 to 8) (size 9 to 14) (size 15 to 20)
#    0.000    1.857    2.857    2.571    2.000    5.143 
#    0.000    2.857    0.000    0.000    0.000    2.000 
#    0.000    0.000    0.000    0.000    0.000    0.000 
#
# Total GULP energy -312507.368795 kJ/mol
# GULP energy per Si atom -5580.488728 kJ/mol
# Density = 2.017824 g / cm^3
# Si number density = 20.224275 Si / 1000 Ang^3
#
#
#
# Elastic Constant Matrix: (Units=GPa)
#
#
# Indices 1 2 3 4 5 6 
#
# 1 48.7573 -5.7102 2.8397 0.0000 0.0000 0.0000
# 2 -5.7102 80.9540 0.8883 0.0000 0.0000 0.0000
# 3 2.8397 0.8883 85.1256 0.0000 0.0000 0.0000
# 4 0.0000 0.0000 0.0000 6.8517 0.0000 0.0000
# 5 0.0000 0.0000 0.0000 0.0000 28.2648 0.0000
# 6 0.0000 0.0000 0.0000 0.0000 0.0000 1.8863
#
#
#
# Elastic Compliance Matrix: (Units=1/GPa)
#
#
# Indices 1 2 3 4 5 6 
#
# 1 0.020723 0.001469 -0.000707 0.000000 0.000000 0.000000
# 2 0.001469 0.012458 -0.000179 0.000000 0.000000 0.000000
# 3 -0.000707 -0.000179 0.011773 0.000000 0.000000 0.000000
# 4 0.000000 0.000000 0.000000 0.145949 0.000000 0.000000
# 5 0.000000 0.000000 0.000000 0.000000 0.035380 0.000000
# 6 0.000000 0.000000 0.000000 0.000000 0.000000 0.530141
#
#
# Mechanical properties :
#
#
# Convention : Reuss Voigt Hill
#
# Bulk Modulus (GPa) = 21.68175 23.43027 22.55601
# Shear Modulus (GPa) = 6.48820 21.85517 14.17168
#
# Velocity S-wave (km/s) = 1.79307 3.29088 2.65000
# Velocity P-wave (km/s) = 3.87695 5.10394 4.53216
#
# Compressibility (1/GPa) = 0.04612174
#
# Stress axis : x y z
#
# Youngs Moduli (GPa) = 48.25560 80.26768 84.94160
#
# Poissons Ratio (x) = -0.11795 0.06002
# Poissons Ratio (y) = -0.07091 0.01521
# Poissons Ratio (z) = 0.03410 0.01437
#
# Static dielectric constant tensor:
#      x y z
#    x 1.706660 0.000000 0.000000 
#    y 0.000000 1.708910 0.000000 
#    z 0.000000 0.000000 1.784250 
# 
# From -- ./inp_files/69446.got.cif
#   From: 2010.05.17/outbox.cif.g08.bks.cpg/sg63_35_cif.got.tgz:69446.got - 2010.06.03 15:47:04.
