data_PCOD9472698
_publ_section_title
;
Structure prediction by ZEFSAII (Michael W. Deem and Ramdas Pophale) SiO2 
 PCOD9472698
Probable space group: C M C M
;
_chemical_formula_sum "Si O2"
_cell_formula_units_Z 104
_cell_length_a 21.157048
_cell_length_b 29.809460
_cell_length_c 8.479978
_cell_angle_alpha 90.000000
_cell_angle_beta 90.000000
_cell_angle_gamma 90.000000
_cell_volume 5348.154018
_symmetry_space_group_name_H-M "C M C M"
_symmetry_group_IT_number 63
_symmetry_cell_setting 'orthorhombic'
loop_
_space_group_symop_operation_xyz
x,y,z
-x,-y,1/2+z
x,-y,-z
-x,y,1/2-z
-x,-y,-z
x,y,1/2-z
-x,y,z
x,-y,1/2+z
1/2+x,1/2+y,z
1/2-x,1/2-y,1/2+z
1/2+x,1/2-y,-z
1/2-x,1/2+y,1/2-z
1/2-x,1/2-y,-z
1/2+x,1/2+y,1/2-z
1/2-x,1/2+y,z
1/2+x,1/2-y,1/2+z
loop_
_atom_site_type_symbol
_atom_site_label
_atom_site_fract_x
_atom_site_fract_y
_atom_site_fract_z
Si Si1 0.119552 0.608736 0.560707
Si Si2 0.324490 0.197108 0.438868
Si Si3 0.118810 0.951057 0.061273
Si Si4 0.931528 0.860654 0.939861
Si Si5 0.180430 0.202704 0.440956
Si Si6 0.500000 0.948345 0.561859
Si Si7 0.263557 0.950837 0.439911
O O1 0.115958 0.607371 0.750000
O O2 0.127814 0.660114 0.506740
O O3 0.184475 0.584575 0.506670
O O4 0.061096 0.580006 0.494913
O O5 0.327184 0.195376 0.250000
O O6 0.251305 0.188411 0.490089
O O7 0.335418 0.247784 0.496559
O O8 0.117424 0.950968 0.250000
O O9 0.191603 0.942387 0.007205
O O10 0.076840 0.911370 0.995269
O O11 0.100483 0.000000 0.000000
O O12 0.929652 0.859700 0.750000
O O13 0.872567 0.831663 0.998201
O O14 0.000000 0.843021 0.991159
O O15 0.180223 0.204203 0.250000
O O16 0.500000 0.950509 0.750000
O O17 0.500000 0.000000 0.500000
O O18 0.263311 0.951155 0.250000
O O19 0.281932 0.000000 0.500000
#
# Coordination Sequence:
#
# PCOD9472698 Si02
#       7
#    16  16  16  16  16   8  16
#     4  11  22  38  59  85 115 152 193 236 291 350
#     4  10  20  35  59  88 115 146 187 240 295 344
#     4  10  20  35  55  81 112 145 183 230 278 327
#     4  10  21  37  56  79 108 145 187 228 274 331
#     4   9  19  37  59  84 115 151 190 236 291 350
#     4  12  26  44  62  84 118 158 202 246 293 354
#     4   9  19  33  53  81 110 141 181 228 278 331
#
# _framework density 19.445962000000002
#
# number of rings (size 3 to 8) (size 9 to 14) (size 15 to 20)
#    0.000    2.000    0.000    3.462    0.000    4.923 
#    1.385    0.000    0.000    0.000    0.000    0.000 
#    0.000    0.000    0.000    0.000    0.000    0.000 
#
# Total GULP energy -290370.223619 kJ/mol
# GULP energy per Si atom -5584.042762 kJ/mol
# Density = 1.940170 g / cm^3
# Si number density = 19.445962 Si / 1000 Ang^3
#
#
#
# Elastic Constant Matrix: (Units=GPa)
#
#
# Indices 1 2 3 4 5 6 
#
# 1 74.9129 71.5168 21.4928 0.0000 0.0000 0.0000
# 2 71.5168 114.6986 17.4341 0.0000 0.0000 0.0000
# 3 21.4928 17.4341 28.1843 0.0000 0.0000 0.0000
# 4 0.0000 0.0000 0.0000 32.6876 0.0000 0.0000
# 5 0.0000 0.0000 0.0000 0.0000 12.4319 0.0000
# 6 0.0000 0.0000 0.0000 0.0000 0.0000 19.6368
#
#
#
# Elastic Compliance Matrix: (Units=1/GPa)
#
#
# Indices 1 2 3 4 5 6 
#
# 1 0.038607 -0.021631 -0.016061 0.000000 0.000000 0.000000
# 2 -0.021631 0.021743 0.003046 0.000000 0.000000 0.000000
# 3 -0.016061 0.003046 0.045844 0.000000 0.000000 0.000000
# 4 0.000000 0.000000 0.000000 0.030593 0.000000 0.000000
# 5 0.000000 0.000000 0.000000 0.000000 0.080438 0.000000
# 6 0.000000 0.000000 0.000000 0.000000 0.000000 0.050925
#
#
# Mechanical properties :
#
#
# Convention : Reuss Voigt Hill
#
# Bulk Modulus (GPa) = 27.09842 48.74256 37.92049
# Shear Modulus (GPa) = 14.29624 20.10807 17.20215
#
# Velocity S-wave (km/s) = 2.71436 3.21915 2.97747
# Velocity P-wave (km/s) = 4.87741 6.23998 5.60029
#
# Compressibility (1/GPa) = 0.03690251
#
# Stress axis : x y z
#
# Youngs Moduli (GPa) = 25.90196 45.99196 21.81301
#
# Poissons Ratio (x) = 0.99486 0.35033
# Poissons Ratio (y) = 0.56029 -0.06644
# Poissons Ratio (z) = 0.41600 -0.14008
#
# Static dielectric constant tensor:
#      x y z
#    x 1.703310 0.000000 0.000000 
#    y 0.000000 1.654240 0.000000 
#    z 0.000000 0.000000 1.651900 
# 
# From -- ./inp_files/8839.got.cif
#   From: 2010.05.17/outbox.cif.g08.bks.cpg/sg63_5_cif.got.tgz:8839.got - 2010.06.03 15:47:04.
