data_PCOD9472724
_publ_section_title
;
Structure prediction by ZEFSAII (Michael W. Deem and Ramdas Pophale) SiO2 
 PCOD9472724
Probable space group: C M C M
;
_chemical_formula_sum "Si O2"
_cell_formula_units_Z 88
_cell_length_a 30.900103
_cell_length_b 18.265746
_cell_length_c 9.077504
_cell_angle_alpha 90.000000
_cell_angle_beta 90.000000
_cell_angle_gamma 90.000000
_cell_volume 5123.465194
_symmetry_space_group_name_H-M "C M C M"
_symmetry_group_IT_number 63
_symmetry_cell_setting 'orthorhombic'
loop_
_space_group_symop_operation_xyz
x,y,z
-x,-y,1/2+z
x,-y,-z
-x,y,1/2-z
-x,-y,-z
x,y,1/2-z
-x,y,z
x,-y,1/2+z
1/2+x,1/2+y,z
1/2-x,1/2-y,1/2+z
1/2+x,1/2-y,-z
1/2-x,1/2+y,1/2-z
1/2-x,1/2-y,-z
1/2+x,1/2+y,1/2-z
1/2-x,1/2+y,z
1/2+x,1/2-y,1/2+z
loop_
_atom_site_type_symbol
_atom_site_label
_atom_site_fract_x
_atom_site_fract_y
_atom_site_fract_z
Si Si1 0.049443 0.920948 0.926743
Si Si2 0.500000 0.922283 0.422673
Si Si3 0.080005 0.646376 0.079746
Si Si4 0.294284 0.225148 0.925695
Si Si5 0.385555 0.290638 0.573672
Si Si6 0.327608 0.923203 0.577206
O O1 0.050354 0.929264 0.750000
O O2 0.087450 0.863576 0.965091
O O3 0.000000 0.895869 0.965737
O O4 0.056066 0.000000 0.000000
O O5 0.500000 0.931805 0.250000
O O6 0.458023 0.879952 0.476546
O O7 0.500000 0.000000 0.500000
O O8 0.066280 0.649439 0.250000
O O9 0.120844 0.591795 0.069544
O O10 0.095155 0.724887 0.021837
O O11 0.289439 0.217953 0.750000
O O12 0.333828 0.282869 0.951689
O O13 0.250000 0.250000 0.000000
O O14 0.307319 0.146824 0.995047
O O15 0.392072 0.277979 0.750000
O O16 0.315390 0.923727 0.750000
O O17 0.317023 0.000000 0.500000
#
# Coordination Sequence:
#
# PCOD9472724 Si02
#       6
#    16   8  16  16  16  16
#     4   9  18  33  53  78 108 141 179 220 270 325
#     4  12  24  36  50  70 103 142 179 218 260 304
#     4  10  21  35  52  77 106 138 178 221 263 313
#     4  10  20  36  57  80 109 142 181 226 277 329
#     4   9  19  35  55  79 106 141 180 222 270 324
#     4  10  20  35  56  80 107 138 176 220 269 323
#
# _framework density 17.175875000000001
#
# number of rings (size 3 to 8) (size 9 to 14) (size 15 to 20)
#    0.000    2.182    0.000    3.000    1.273    5.091 
#    0.000    0.909    0.000    2.182    0.000    0.000 
#    0.000    0.000    0.000    0.000    0.000    0.000 
#
# Total GULP energy -245385.021169 kJ/mol
# GULP energy per Si atom -5576.932299 kJ/mol
# Density = 1.713678 g / cm^3
# Si number density = 17.175875 Si / 1000 Ang^3
#
#
#
# Elastic Constant Matrix: (Units=GPa)
#
#
# Indices 1 2 3 4 5 6 
#
# 1 119.2213 67.9583 72.2436 0.0000 0.0000 0.0000
# 2 67.9583 97.4751 48.7865 0.0000 0.0000 0.0000
# 3 72.2436 48.7865 106.5444 0.0000 0.0000 0.0000
# 4 0.0000 0.0000 0.0000 32.2052 0.0000 0.0000
# 5 0.0000 0.0000 0.0000 0.0000 28.5418 0.0000
# 6 0.0000 0.0000 0.0000 0.0000 0.0000 9.7318
#
#
#
# Elastic Compliance Matrix: (Units=1/GPa)
#
#
# Indices 1 2 3 4 5 6 
#
# 1 0.018503 -0.008589 -0.008613 0.000000 0.000000 0.000000
# 2 -0.008589 0.017296 -0.002096 0.000000 0.000000 0.000000
# 3 -0.008613 -0.002096 0.016186 0.000000 0.000000 0.000000
# 4 0.000000 0.000000 0.000000 0.031051 0.000000 0.000000
# 5 0.000000 0.000000 0.000000 0.000000 0.035036 0.000000
# 6 0.000000 0.000000 0.000000 0.000000 0.000000 0.102755
#
#
# Mechanical properties :
#
#
# Convention : Reuss Voigt Hill
#
# Bulk Modulus (GPa) = 74.69135 77.91306 76.30221
# Shear Modulus (GPa) = 18.94749 23.04594 20.99672
#
# Velocity S-wave (km/s) = 3.32497 3.66698 3.50015
# Velocity P-wave (km/s) = 7.63683 7.96175 7.80098
#
# Compressibility (1/GPa) = 0.01338843
#
# Stress axis : x y z
#
# Youngs Moduli (GPa) = 54.04537 57.81588 61.78252
#
# Poissons Ratio (x) = 0.49659 0.53215
# Poissons Ratio (y) = 0.46420 0.12950
# Poissons Ratio (z) = 0.46550 0.12118
#
# Static dielectric constant tensor:
#      x y z
#    x 1.593180 0.000000 0.000000 
#    y 0.000000 1.351910 0.000000 
#    z 0.000000 0.000000 1.567720 
# 
# From -- ./inp_files/14143.got.cif
#   From: 2010.05.17/outbox.cif.g08.bks.cpg/sg63_8_cif.got.tgz:14143.got - 2010.06.03 15:47:04.
