data_PCOD9472277
_publ_section_title
;
Structure prediction by ZEFSAII (Michael W. Deem and Ramdas Pophale) SiO2 
 PCOD9472277
Probable space group: C M C M
;
_chemical_formula_sum "Si O2"
_cell_formula_units_Z 64
_cell_length_a 29.009033
_cell_length_b 14.450848
_cell_length_c 8.874645
_cell_angle_alpha 90.000000
_cell_angle_beta 90.000000
_cell_angle_gamma 90.000000
_cell_volume 3720.296680
_symmetry_space_group_name_H-M "C M C M"
_symmetry_group_IT_number 63
_symmetry_cell_setting 'orthorhombic'
loop_
_space_group_symop_operation_xyz
x,y,z
-x,-y,1/2+z
x,-y,-z
-x,y,1/2-z
-x,-y,-z
x,y,1/2-z
-x,y,z
x,-y,1/2+z
1/2+x,1/2+y,z
1/2-x,1/2-y,1/2+z
1/2+x,1/2-y,-z
1/2-x,1/2+y,1/2-z
1/2-x,1/2-y,-z
1/2+x,1/2+y,1/2-z
1/2-x,1/2+y,z
1/2+x,1/2-y,1/2+z
loop_
_atom_site_type_symbol
_atom_site_label
_atom_site_fract_x
_atom_site_fract_y
_atom_site_fract_z
Si Si1 0.928438 0.757754 0.068064
Si Si2 0.678426 0.757443 0.931135
Si Si3 0.500000 0.899109 0.930053
Si Si4 0.751927 0.601174 0.930015
Si Si5 0.000000 0.898226 0.930053
O O1 0.932055 0.769354 0.250000
O O2 0.874911 0.752676 0.026819
O O3 0.955704 0.663478 0.028346
O O4 0.955857 0.840747 0.989446
O O5 0.680911 0.769339 0.750000
O O6 0.708168 0.666183 0.970078
O O7 0.703711 0.843713 0.008317
O O8 0.500000 0.908528 0.750000
O O9 0.500000 0.000000 0.000000
O O10 0.754301 0.594540 0.750000
O O11 0.748306 0.500000 0.000000
O O12 0.000000 0.902354 0.750000
O O13 0.000000 0.000000 0.000000
#
# Coordination Sequence:
#
# PCOD9472277 Si02
#       5
#    16  16   8  16   8
#     4   9  19  37  56  76 104 137 174 218 265 308
#     4   9  19  36  56  77 103 136 175 219 264 309
#     4   9  18  32  51  73 101 133 165 207 254 304
#     4  10  20  34  53  77 106 138 173 215 261 312
#     4  11  22  36  55  79 107 139 175 215 260 312
#
# _framework density 17.202929000000001
#
# number of rings (size 3 to 8) (size 9 to 14) (size 15 to 20)
#    0.000    2.500    0.000    2.625    0.000    6.000 
#    0.000    5.000    0.000    0.000    0.000    0.000 
#    0.000    0.000    0.000    0.000    0.000    0.000 
#
# Total GULP energy -178552.175479 kJ/mol
# GULP energy per Si atom -5579.755484 kJ/mol
# Density = 1.716377 g / cm^3
# Si number density = 17.202929 Si / 1000 Ang^3
#
#
#
# Elastic Constant Matrix: (Units=GPa)
#
#
# Indices 1 2 3 4 5 6 
#
# 1 174.0963 88.7192 53.3661 0.0000 0.0000 0.0000
# 2 88.7192 180.8834 60.7529 0.0000 0.0000 0.0000
# 3 53.3661 60.7529 44.5076 0.0000 0.0000 0.0000
# 4 0.0000 0.0000 0.0000 34.9040 0.0000 0.0000
# 5 0.0000 0.0000 0.0000 0.0000 24.7313 0.0000
# 6 0.0000 0.0000 0.0000 0.0000 0.0000 5.7001
#
#
#
# Elastic Compliance Matrix: (Units=1/GPa)
#
#
# Indices 1 2 3 4 5 6 
#
# 1 0.009299 -0.001507 -0.009093 0.000000 0.000000 0.000000
# 2 -0.001507 0.010453 -0.012461 0.000000 0.000000 0.000000
# 3 -0.009093 -0.012461 0.050381 0.000000 0.000000 0.000000
# 4 0.000000 0.000000 0.000000 0.028650 0.000000 0.000000
# 5 0.000000 0.000000 0.000000 0.000000 0.040435 0.000000
# 6 0.000000 0.000000 0.000000 0.000000 0.000000 0.175434
#
#
# Mechanical properties :
#
#
# Convention : Reuss Voigt Hill
#
# Bulk Modulus (GPa) = 41.64919 89.46264 65.55591
# Shear Modulus (GPa) = 13.55831 26.17703 19.86767
#
# Velocity S-wave (km/s) = 2.81043 3.90508 3.40207
# Velocity P-wave (km/s) = 5.89868 8.51176 7.32272
#
# Compressibility (1/GPa) = 0.02401007
#
# Stress axis : x y z
#
# Youngs Moduli (GPa) = 107.53591 95.66720 19.84895
#
# Poissons Ratio (x) = 0.14417 0.18049
# Poissons Ratio (y) = 0.16206 0.24734
# Poissons Ratio (z) = 0.97783 1.19213
#
# Static dielectric constant tensor:
#      x y z
#    x 1.572990 0.000000 0.000000 
#    y 0.000000 1.550810 0.000000 
#    z 0.000000 0.000000 1.581200 
# 
# From -- ./inp_files/13765.got.cif
#   From: 2010.05.17/outbox.cif.g08.bks.cpg/sg63_7_cif.got.tgz:13765.got - 2010.06.03 15:47:04.
