data_PCOD9472633
_publ_section_title
;
Structure prediction by ZEFSAII (Michael W. Deem and Ramdas Pophale) SiO2 
 PCOD9472633
Probable space group: C M C M
;
_chemical_formula_sum "Si O2"
_cell_formula_units_Z 96
_cell_length_a 8.530191
_cell_length_b 24.363663
_cell_length_c 25.982229
_cell_angle_alpha 90.000000
_cell_angle_beta 90.000000
_cell_angle_gamma 90.000000
_cell_volume 5399.800882
_symmetry_space_group_name_H-M "C M C M"
_symmetry_group_IT_number 63
_symmetry_cell_setting 'orthorhombic'
loop_
_space_group_symop_operation_xyz
x,y,z
-x,-y,1/2+z
x,-y,-z
-x,y,1/2-z
-x,-y,-z
x,y,1/2-z
-x,y,z
x,-y,1/2+z
1/2+x,1/2+y,z
1/2-x,1/2-y,1/2+z
1/2+x,1/2-y,-z
1/2-x,1/2+y,1/2-z
1/2-x,1/2-y,-z
1/2+x,1/2+y,1/2-z
1/2-x,1/2+y,z
1/2+x,1/2-y,1/2+z
loop_
_atom_site_type_symbol
_atom_site_label
_atom_site_fract_x
_atom_site_fract_y
_atom_site_fract_z
Si Si1 0.810817 0.367294 0.401286
Si Si2 0.689033 0.438615 0.309055
Si Si3 0.688019 0.250591 0.558535
Si Si4 0.187691 0.634922 0.401837
Si Si5 0.808821 0.437202 0.500394
Si Si6 0.689154 0.563642 0.190329
O O1 0.751401 0.394566 0.349119
O O2 0.759875 0.305064 0.412693
O O3 0.758708 0.404700 0.449502
O O4 0.000000 0.367801 0.400548
O O5 0.738468 0.428342 0.250000
O O6 0.500000 0.438033 0.309939
O O7 0.738641 0.501034 0.323049
O O8 0.500000 0.250306 0.556378
O O9 0.750000 0.250000 0.500000
O O10 0.745197 0.304934 0.587364
O O11 0.240880 0.595517 0.448784
O O12 0.240829 0.607147 0.348936
O O13 0.000000 0.637983 0.403454
O O14 0.754959 0.500000 0.500000
O O15 0.000000 0.437705 0.500449
O O16 0.732496 0.573418 0.250000
O O17 0.500000 0.565635 0.187311
#
# Coordination Sequence:
#
# PCOD9472633 Si02
#       6
#    16  16  16  16  16  16
#     4  10  20  35  54  79 109 144 185 223 270 328
#     4   9  19  36  57  82 113 146 180 224 277 327
#     4  11  22  38  57  78 110 150 189 229 276 328
#     4  11  21  35  56  82 111 144 186 230 275 329
#     4   9  17  30  49  76 110 140 168 215 274 325
#     4   9  19  37  58  81 113 149 182 222 276 332
#
# _framework density 17.778434000000001
#
# number of rings (size 3 to 8) (size 9 to 14) (size 15 to 20)
#    0.000    2.167    1.667    3.000    0.000    4.000 
#    0.000    2.500    0.000    4.500    0.000    0.000 
#    0.000    0.000    0.000    0.000    0.000    0.000 
#
# Total GULP energy -267937.073529 kJ/mol
# GULP energy per Si atom -5582.022365 kJ/mol
# Density = 1.773797 g / cm^3
# Si number density = 17.778434 Si / 1000 Ang^3
#
#
#
# Elastic Constant Matrix: (Units=GPa)
#
#
# Indices 1 2 3 4 5 6 
#
# 1 24.4552 37.0186 29.7252 0.0000 0.0000 0.0000
# 2 37.0186 200.2777 108.5863 0.0000 0.0000 0.0000
# 3 29.7252 108.5863 127.8686 0.0000 0.0000 0.0000
# 4 0.0000 0.0000 0.0000 22.8681 0.0000 0.0000
# 5 0.0000 0.0000 0.0000 0.0000 29.3615 0.0000
# 6 0.0000 0.0000 0.0000 0.0000 0.0000 26.0767
#
#
#
# Elastic Compliance Matrix: (Units=1/GPa)
#
#
# Indices 1 2 3 4 5 6 
#
# 1 0.061494 -0.006701 -0.008605 0.000000 0.000000 0.000000
# 2 -0.006701 0.009984 -0.006921 0.000000 0.000000 0.000000
# 3 -0.008605 -0.006921 0.015698 0.000000 0.000000 0.000000
# 4 0.000000 0.000000 0.000000 0.043729 0.000000 0.000000
# 5 0.000000 0.000000 0.000000 0.000000 0.034058 0.000000
# 6 0.000000 0.000000 0.000000 0.000000 0.000000 0.038348
#
#
# Mechanical properties :
#
#
# Convention : Reuss Voigt Hill
#
# Bulk Modulus (GPa) = 23.40676 78.14020 50.77348
# Shear Modulus (GPa) = 19.08366 27.47935 23.28151
#
# Velocity S-wave (km/s) = 3.27986 3.93575 3.62268
# Velocity P-wave (km/s) = 5.24764 8.04370 6.79113
#
# Compressibility (1/GPa) = 0.04272270
#
# Stress axis : x y z
#
# Youngs Moduli (GPa) = 16.26186 100.16219 63.70326
#
# Poissons Ratio (x) = 0.67118 0.54815
# Poissons Ratio (y) = 0.10897 0.44086
# Poissons Ratio (z) = 0.13993 0.69318
#
# Static dielectric constant tensor:
#      x y z
#    x 1.613380 0.000000 0.000000 
#    y 0.000000 1.594950 0.000000 
#    z 0.000000 0.000000 1.582970 
# 
# From -- ./inp_files/59861.got.cif
#   From: 2010.05.17/outbox.cif.g08.bks.cpg/sg63_30_cif.got.tgz:59861.got - 2010.06.03 15:47:04.
