data_PCOD9472876
_publ_section_title
;
Structure prediction by ZEFSAII (Michael W. Deem and Ramdas Pophale) SiO2 
 PCOD9472876
Probable space group: C M C M
;
_chemical_formula_sum "Si O2"
_cell_formula_units_Z 112
_cell_length_a 33.129547
_cell_length_b 11.821516
_cell_length_c 15.004061
_cell_angle_alpha 90.000000
_cell_angle_beta 90.000000
_cell_angle_gamma 90.000000
_cell_volume 5876.212505
_symmetry_space_group_name_H-M "C M C M"
_symmetry_group_IT_number 63
_symmetry_cell_setting 'orthorhombic'
loop_
_space_group_symop_operation_xyz
x,y,z
-x,-y,1/2+z
x,-y,-z
-x,y,1/2-z
-x,-y,-z
x,y,1/2-z
-x,y,z
x,-y,1/2+z
1/2+x,1/2+y,z
1/2-x,1/2-y,1/2+z
1/2+x,1/2-y,-z
1/2-x,1/2+y,1/2-z
1/2-x,1/2-y,-z
1/2+x,1/2+y,1/2-z
1/2-x,1/2+y,z
1/2+x,1/2-y,1/2+z
loop_
_atom_site_type_symbol
_atom_site_label
_atom_site_fract_x
_atom_site_fract_y
_atom_site_fract_z
Si Si1 0.678627 0.394057 0.148411
Si Si2 0.453353 0.650697 0.476526
Si Si3 0.086874 0.373041 0.484113
Si Si4 0.661496 0.103089 0.851568
Si Si5 0.587610 0.529710 0.641976
Si Si6 0.240915 0.376318 0.456881
Si Si7 0.858830 0.654410 0.152758
O O1 0.687743 0.427119 0.250000
O O2 0.635399 0.449725 0.125420
O O3 0.717247 0.413715 0.088959
O O4 0.670940 0.259277 0.145176
O O5 0.500000 0.619432 0.467702
O O6 0.447216 0.783334 0.465041
O O7 0.426997 0.588736 0.400136
O O8 0.436761 0.613117 0.574463
O O9 0.072442 0.500000 0.500000
O O10 0.122148 0.369350 0.410020
O O11 0.109341 0.338905 0.574832
O O12 0.656578 0.141006 0.750000
O O13 0.702688 0.148293 0.893234
O O14 0.662966 0.965928 0.852065
O O15 0.580915 0.540777 0.750000
O O16 0.228501 0.500000 0.500000
O O17 0.250000 0.250000 0.500000
O O18 0.878781 0.663230 0.250000
#
# Coordination Sequence:
#
# PCOD9472876 Si02
#       7
#    16  16  16  16  16  16  16
#     4  10  20  35  58  88 118 156 200 252 306 363
#     4  11  24  39  62  92 123 158 205 258 312 379
#     4  10  20  37  61  86 119 157 203 247 307 369
#     4  10  21  38  59  85 119 163 209 250 299 370
#     4  10  22  40  63  87 120 161 203 249 307 369
#     4  12  25  38  59  88 123 161 204 258 315 362
#     4   9  17  34  60  85 114 155 202 247 299 364
#
# _framework density 19.059896999999999
#
# number of rings (size 3 to 8) (size 9 to 14) (size 15 to 20)
#    0.000    1.714    1.429    4.286    2.000    2.000 
#    0.000    3.571    0.000    0.000    0.000    6.000 
#    0.000    0.000    0.000    0.000    0.000    0.000 
#
# Total GULP energy -311848.373004 kJ/mol
# GULP energy per Si atom -5568.720947 kJ/mol
# Density = 1.901652 g / cm^3
# Si number density = 19.059897 Si / 1000 Ang^3
#
#
#
# Elastic Constant Matrix: (Units=GPa)
#
#
# Indices 1 2 3 4 5 6 
#
# 1 80.0516 25.8480 34.2512 0.0000 0.0000 0.0000
# 2 25.8480 67.9278 33.7806 0.0000 0.0000 0.0000
# 3 34.2512 33.7806 89.8130 0.0000 0.0000 0.0000
# 4 0.0000 0.0000 0.0000 8.2072 0.0000 0.0000
# 5 0.0000 0.0000 0.0000 0.0000 27.2932 0.0000
# 6 0.0000 0.0000 0.0000 0.0000 0.0000 0.2305
#
#
#
# Elastic Compliance Matrix: (Units=1/GPa)
#
#
# Indices 1 2 3 4 5 6 
#
# 1 0.015638 -0.003672 -0.004583 0.000000 0.000000 0.000000
# 2 -0.003672 0.018971 -0.005735 0.000000 0.000000 0.000000
# 3 -0.004583 -0.005735 0.015039 0.000000 0.000000 0.000000
# 4 0.000000 0.000000 0.000000 0.121844 0.000000 0.000000
# 5 0.000000 0.000000 0.000000 0.000000 0.036639 0.000000
# 6 0.000000 0.000000 0.000000 0.000000 0.000000 4.337509
#
#
# Mechanical properties :
#
#
# Convention : Reuss Voigt Hill
#
# Bulk Modulus (GPa) = 46.14900 47.28352 46.71626
# Shear Modulus (GPa) = 1.09150 16.74037 8.91593
#
# Velocity S-wave (km/s) = 0.75757 2.96683 2.16518
# Velocity P-wave (km/s) = 5.00304 6.04962 5.55105
#
# Compressibility (1/GPa) = 0.02166894
#
# Stress axis : x y z
#
# Youngs Moduli (GPa) = 63.94544 52.71281 66.49359
#
# Poissons Ratio (x) = 0.19354 0.30473
# Poissons Ratio (y) = 0.23479 0.38134
# Poissons Ratio (z) = 0.29305 0.30231
#
# Static dielectric constant tensor:
#      x y z
#    x 1.616310 0.000000 0.000000 
#    y 0.000000 1.711540 0.000000 
#    z 0.000000 0.000000 1.696830 
# 
# From -- ./inp_files/38502.got.cif
#   From: 2010.05.17/outbox.cif.g08.bks.cpg/sg63_20_cif.got.tgz:38502.got - 2010.06.03 15:47:04.
