data_PCOD9472991
_publ_section_title
;
Structure prediction by ZEFSAII (Michael W. Deem and Ramdas Pophale) SiO2 
 PCOD9472991
Probable space group: C M C M
;
_chemical_formula_sum "Si O2"
_cell_formula_units_Z 112
_cell_length_a 13.605758
_cell_length_b 24.676199
_cell_length_c 14.606924
_cell_angle_alpha 90.000000
_cell_angle_beta 90.000000
_cell_angle_gamma 90.000000
_cell_volume 4904.105175
_symmetry_space_group_name_H-M "C M C M"
_symmetry_group_IT_number 63
_symmetry_cell_setting 'orthorhombic'
loop_
_space_group_symop_operation_xyz
x,y,z
-x,-y,1/2+z
x,-y,-z
-x,y,1/2-z
-x,-y,-z
x,y,1/2-z
-x,y,z
x,-y,1/2+z
1/2+x,1/2+y,z
1/2-x,1/2-y,1/2+z
1/2+x,1/2-y,-z
1/2-x,1/2+y,1/2-z
1/2-x,1/2-y,-z
1/2+x,1/2+y,1/2-z
1/2-x,1/2+y,z
1/2+x,1/2-y,1/2+z
loop_
_atom_site_type_symbol
_atom_site_label
_atom_site_fract_x
_atom_site_fract_y
_atom_site_fract_z
Si Si1 0.882657 0.701407 0.853194
Si Si2 0.679567 0.967444 0.854878
Si Si3 0.892676 0.043834 0.417176
Si Si4 0.617952 0.147261 0.354857
Si Si5 0.113141 0.125246 0.927188
Si Si6 0.813161 0.584398 0.858350
Si Si7 0.880394 0.752925 0.034452
O O1 0.841411 0.707404 0.750000
O O2 0.863341 0.640168 0.888524
O O3 0.000000 0.707689 0.846586
O O4 0.847148 0.742926 0.930244
O O5 0.642197 0.966485 0.750000
O O6 0.797888 0.965036 0.856467
O O7 0.646575 0.910712 0.897933
O O8 0.653690 0.026087 0.896668
O O9 0.885829 0.101366 0.469798
O O10 0.000000 0.039132 0.373014
O O11 0.889704 0.000000 0.500000
O O12 0.655444 0.149089 0.250000
O O13 0.500000 0.148548 0.351764
O O14 0.650530 0.200666 0.407783
O O15 0.196818 0.092594 0.874237
O O16 0.143030 0.188103 0.926484
O O17 0.000000 0.118882 0.894257
O O18 0.831894 0.581463 0.750000
O O19 0.000000 0.752346 0.033325
#
# Coordination Sequence:
#
# PCOD9472991 Si02
#       7
#    16  16  16  16  16  16  16
#     4   9  19  37  57  80 114 150 186 233 282 334
#     4  10  21  36  55  81 112 147 187 233 281 332
#     4  10  20  36  56  77 104 142 184 229 285 334
#     4   9  19  36  57  84 119 153 187 230 282 343
#     4  10  21  37  57  82 109 142 185 234 285 338
#     4  10  21  35  54  82 111 144 187 232 282 333
#     4   9  19  36  59  84 111 148 191 230 283 342
#
# _framework density 22.838010000000001
#
# number of rings (size 3 to 8) (size 9 to 14) (size 15 to 20)
#    0.000    2.429    1.429    0.000    2.000    2.286 
#    0.000    6.429    0.000    5.571    0.000    0.000 
#    0.000    0.000    0.000    0.000    0.000    0.000 
#
# Total GULP energy -312584.272723 kJ/mol
# GULP energy per Si atom -5581.862013 kJ/mol
# Density = 2.278603 g / cm^3
# Si number density = 22.838010 Si / 1000 Ang^3
#
#
#
# Elastic Constant Matrix: (Units=GPa)
#
#
# Indices 1 2 3 4 5 6 
#
# 1 32.6317 5.3735 -4.2825 0.0000 0.0000 0.0000
# 2 5.3735 158.0598 25.3185 0.0000 0.0000 0.0000
# 3 -4.2825 25.3185 39.6170 0.0000 0.0000 0.0000
# 4 0.0000 0.0000 0.0000 12.1973 0.0000 0.0000
# 5 0.0000 0.0000 0.0000 0.0000 18.9239 0.0000
# 6 0.0000 0.0000 0.0000 0.0000 0.0000 34.2624
#
#
#
# Elastic Compliance Matrix: (Units=1/GPa)
#
#
# Indices 1 2 3 4 5 6 
#
# 1 0.031541 -0.001803 0.004562 0.000000 0.000000 0.000000
# 2 -0.001803 0.007151 -0.004765 0.000000 0.000000 0.000000
# 3 0.004562 -0.004765 0.028780 0.000000 0.000000 0.000000
# 4 0.000000 0.000000 0.000000 0.081986 0.000000 0.000000
# 5 0.000000 0.000000 0.000000 0.000000 0.052843 0.000000
# 6 0.000000 0.000000 0.000000 0.000000 0.000000 0.029187
#
#
# Mechanical properties :
#
#
# Convention : Reuss Voigt Hill
#
# Bulk Modulus (GPa) = 15.75814 31.45859 23.60836
# Shear Modulus (GPa) = 19.48152 26.66998 23.07575
#
# Velocity S-wave (km/s) = 2.92384 3.42100 3.18214
# Velocity P-wave (km/s) = 4.27941 5.42300 4.88479
#
# Compressibility (1/GPa) = 0.06345927
#
# Stress axis : x y z
#
# Youngs Moduli (GPa) = 31.70515 139.83450 34.74615
#
# Poissons Ratio (x) = 0.25212 -0.15850
# Poissons Ratio (y) = 0.05716 0.16557
# Poissons Ratio (z) = -0.14463 0.66634
#
# Static dielectric constant tensor:
#      x y z
#    x 1.863880 0.000000 0.000000 
#    y 0.000000 1.885900 0.000000 
#    z 0.000000 0.000000 1.856390 
# 
# From -- ./inp_files/32337.got.cif
#   From: 2010.05.17/outbox.cif.g08.bks.cpg/sg63_17_cif.got.tgz:32337.got - 2010.06.03 15:47:04.
