data_PCOD9472244
_publ_section_title
;
Structure prediction by ZEFSAII (Michael W. Deem and Ramdas Pophale) SiO2 
 PCOD9472244
Probable space group: C M C M
;
_chemical_formula_sum "Si O2"
_cell_formula_units_Z 96
_cell_length_a 16.846086
_cell_length_b 21.849853
_cell_length_c 11.639275
_cell_angle_alpha 90.000000
_cell_angle_beta 90.000000
_cell_angle_gamma 90.000000
_cell_volume 4284.236750
_symmetry_space_group_name_H-M "C M C M"
_symmetry_group_IT_number 63
_symmetry_cell_setting 'orthorhombic'
loop_
_space_group_symop_operation_xyz
x,y,z
-x,-y,1/2+z
x,-y,-z
-x,y,1/2-z
-x,-y,-z
x,y,1/2-z
-x,y,z
x,-y,1/2+z
1/2+x,1/2+y,z
1/2-x,1/2-y,1/2+z
1/2+x,1/2-y,-z
1/2-x,1/2+y,1/2-z
1/2-x,1/2-y,-z
1/2+x,1/2+y,1/2-z
1/2-x,1/2+y,z
1/2+x,1/2-y,1/2+z
loop_
_atom_site_type_symbol
_atom_site_label
_atom_site_fract_x
_atom_site_fract_y
_atom_site_fract_z
Si Si1 0.087640 0.791237 0.119567
Si Si2 0.822132 0.670427 0.118216
Si Si3 0.408463 0.138916 0.587238
Si Si4 0.094936 0.251373 0.250000
Si Si5 0.718249 0.964992 0.378939
Si Si6 0.166162 0.890729 0.982692
Si Si7 0.595618 0.607582 0.250000
O O1 0.089105 0.814950 0.250000
O O2 0.158009 0.742160 0.112405
O O3 0.000000 0.762992 0.100829
O O4 0.100971 0.844641 0.030239
O O5 0.819525 0.652020 0.250000
O O6 0.743128 0.648483 0.055643
O O7 0.894502 0.640986 0.048533
O O8 0.500000 0.128309 0.616443
O O9 0.383951 0.205011 0.641849
O O10 0.349305 0.086949 0.629742
O O11 0.121561 0.180801 0.250000
O O12 0.000000 0.246709 0.250000
O O13 0.722095 0.993921 0.250000
O O14 0.801462 0.933513 0.415723
O O15 0.699166 0.000000 0.500000
O O16 0.132072 0.920092 0.866514
O O17 0.500000 0.604450 0.250000
#
# Coordination Sequence:
#
# PCOD9472244 Si02
#       7
#    16  16  16   8  16  16   8
#     4  10  20  34  55  84 122 166 209 257 311 378
#     4  10  20  34  52  86 128 170 211 250 304 384
#     4  10  20  37  62  90 128 171 212 261 315 380
#     4   9  18  34  57  90 132 169 208 243 304 376
#     4  11  26  45  69  93 123 168 225 282 340 390
#     4  11  22  39  59  88 125 163 215 265 327 388
#     4  11  22  36  63 100 135 175 210 261 313 386
#
# _framework density 22.407724000000002
#
# number of rings (size 3 to 8) (size 9 to 14) (size 15 to 20)
#    0.000    1.667    1.667    3.000    1.167    4.667 
#    0.000    0.000    0.000    2.000    0.000    0.000 
#    0.000    0.000    0.000    0.000    0.000    0.000 
#
# Total GULP energy -267824.618569 kJ/mol
# GULP energy per Si atom -5579.679554 kJ/mol
# Density = 2.235672 g / cm^3
# Si number density = 22.407724 Si / 1000 Ang^3
#
#
#
# Elastic Constant Matrix: (Units=GPa)
#
#
# Indices 1 2 3 4 5 6 
#
# 1 80.4138 9.0531 28.7138 0.0000 0.0000 0.0000
# 2 9.0531 38.7754 23.7158 0.0000 0.0000 0.0000
# 3 28.7138 23.7158 153.8395 0.0000 0.0000 0.0000
# 4 0.0000 0.0000 0.0000 26.3629 0.0000 0.0000
# 5 0.0000 0.0000 0.0000 0.0000 13.5335 0.0000
# 6 0.0000 0.0000 0.0000 0.0000 0.0000 12.5109
#
#
#
# Elastic Compliance Matrix: (Units=1/GPa)
#
#
# Indices 1 2 3 4 5 6 
#
# 1 0.013433 -0.001770 -0.002234 0.000000 0.000000 0.000000
# 2 -0.001770 0.028707 -0.004095 0.000000 0.000000 0.000000
# 3 -0.002234 -0.004095 0.007549 0.000000 0.000000 0.000000
# 4 0.000000 0.000000 0.000000 0.037932 0.000000 0.000000
# 5 0.000000 0.000000 0.000000 0.000000 0.073890 0.000000
# 6 0.000000 0.000000 0.000000 0.000000 0.000000 0.079930
#
#
# Mechanical properties :
#
#
# Convention : Reuss Voigt Hill
#
# Bulk Modulus (GPa) = 29.85935 43.99936 36.92935
# Shear Modulus (GPa) = 18.60095 24.58454 21.59275
#
# Velocity S-wave (km/s) = 2.88429 3.31591 3.10761
# Velocity P-wave (km/s) = 4.94435 5.85993 5.42150
#
# Compressibility (1/GPa) = 0.03349035
#
# Stress axis : x y z
#
# Youngs Moduli (GPa) = 74.44491 34.83420 132.47409
#
# Poissons Ratio (x) = 0.06164 0.29600
# Poissons Ratio (y) = 0.13174 0.54251
# Poissons Ratio (z) = 0.16634 0.14265
#
# Static dielectric constant tensor:
#      x y z
#    x 1.783520 0.000000 0.000000 
#    y 0.000000 1.876630 0.000000 
#    z 0.000000 0.000000 1.890430 
# 
# From -- ./inp_files/21389.got.cif
#   From: 2010.05.17/outbox.cif.g08.bks.cpg/sg63_11_cif.got.tgz:21389.got - 2010.06.03 15:47:04.
