data_PCOD9472691
_publ_section_title
;
Structure prediction by ZEFSAII (Michael W. Deem and Ramdas Pophale) SiO2 
 PCOD9472691
Probable space group: C M C M
;
_chemical_formula_sum "Si O2"
_cell_formula_units_Z 96
_cell_length_a 8.090911
_cell_length_b 22.209667
_cell_length_c 23.993640
_cell_angle_alpha 90.000000
_cell_angle_beta 90.000000
_cell_angle_gamma 90.000000
_cell_volume 4311.571668
_symmetry_space_group_name_H-M "C M C M"
_symmetry_group_IT_number 63
_symmetry_cell_setting 'orthorhombic'
loop_
_space_group_symop_operation_xyz
x,y,z
-x,-y,1/2+z
x,-y,-z
-x,y,1/2-z
-x,-y,-z
x,y,1/2-z
-x,y,z
x,-y,1/2+z
1/2+x,1/2+y,z
1/2-x,1/2-y,1/2+z
1/2+x,1/2-y,-z
1/2-x,1/2+y,1/2-z
1/2-x,1/2-y,-z
1/2+x,1/2+y,1/2-z
1/2-x,1/2+y,z
1/2+x,1/2-y,1/2+z
loop_
_atom_site_type_symbol
_atom_site_label
_atom_site_fract_x
_atom_site_fract_y
_atom_site_fract_z
Si Si1 0.299464 0.652228 0.187847
Si Si2 0.688129 0.093179 0.485973
Si Si3 0.797518 0.911113 0.314028
Si Si4 0.800625 0.968315 0.877437
Si Si5 0.307870 0.337801 0.084378
Si Si6 0.693733 0.290581 0.922436
O O1 0.234511 0.660434 0.250000
O O2 0.500000 0.650341 0.191089
O O3 0.248313 0.589118 0.159904
O O4 0.259029 0.702976 0.142699
O O5 0.500000 0.082586 0.501626
O O6 0.743019 0.043878 0.440637
O O7 0.788603 0.105953 0.542276
O O8 0.707942 0.157196 0.453717
O O9 0.743073 0.907656 0.250000
O O10 0.744497 0.857583 0.355055
O O11 0.000000 0.911287 0.313745
O O12 0.744587 0.972277 0.345161
O O13 0.000000 0.968868 0.878915
O O14 0.500000 0.322708 0.087962
O O15 0.220733 0.278193 0.061559
O O16 0.500000 0.306275 0.929551
#
# Coordination Sequence:
#
# PCOD9472691 Si02
#       6
#    16  16  16  16  16  16
#     4   8  14  26  49  79 105 132 172 222 269 315
#     4  11  22  37  57  81 110 141 179 227 279 328
#     4   9  19  36  59  85 112 146 185 222 263 317
#     4   9  17  33  58  84 109 139 180 226 270 319
#     4  11  22  36  55  80 112 147 183 222 267 322
#     4  10  20  35  55  80 110 144 184 227 275 328
#
# _framework density 22.265664000000001
#
# number of rings (size 3 to 8) (size 9 to 14) (size 15 to 20)
#    0.000    2.333    0.000    4.500    0.000    3.333 
#    0.000    5.000    0.000   20.000    0.000    0.000 
#    0.000    0.000    0.000    0.000    0.000    0.000 
#
# Total GULP energy -268043.934487 kJ/mol
# GULP energy per Si atom -5584.248635 kJ/mol
# Density = 2.221499 g / cm^3
# Si number density = 22.265664 Si / 1000 Ang^3
#
#
#
# Elastic Constant Matrix: (Units=GPa)
#
#
# Indices 1 2 3 4 5 6 
#
# 1 27.5766 -3.3473 -10.0001 0.0000 0.0000 0.0000
# 2 -3.3473 67.8871 17.7322 0.0000 0.0000 0.0000
# 3 -10.0001 17.7322 116.0146 0.0000 0.0000 0.0000
# 4 0.0000 0.0000 0.0000 29.6815 0.0000 0.0000
# 5 0.0000 0.0000 0.0000 0.0000 8.2557 0.0000
# 6 0.0000 0.0000 0.0000 0.0000 0.0000 11.6623
#
#
#
# Elastic Compliance Matrix: (Units=1/GPa)
#
#
# Indices 1 2 3 4 5 6 
#
# 1 0.037504 0.001047 0.003073 0.000000 0.000000 0.000000
# 2 0.001047 0.015372 -0.002259 0.000000 0.000000 0.000000
# 3 0.003073 -0.002259 0.009230 0.000000 0.000000 0.000000
# 4 0.000000 0.000000 0.000000 0.033691 0.000000 0.000000
# 5 0.000000 0.000000 0.000000 0.000000 0.121129 0.000000
# 6 0.000000 0.000000 0.000000 0.000000 0.000000 0.085746
#
#
# Mechanical properties :
#
#
# Convention : Reuss Voigt Hill
#
# Bulk Modulus (GPa) = 15.19160 24.47199 19.83180
# Shear Modulus (GPa) = 15.58147 23.72612 19.65379
#
# Velocity S-wave (km/s) = 2.64824 3.26788 2.97424
# Velocity P-wave (km/s) = 4.02350 5.02529 4.55204
#
# Compressibility (1/GPa) = 0.06582586
#
# Stress axis : x y z
#
# Youngs Moduli (GPa) = 26.66384 65.05303 108.34480
#
# Poissons Ratio (x) = -0.06808 -0.33292
# Poissons Ratio (y) = -0.02791 0.24479
# Poissons Ratio (z) = -0.08193 0.14698
#
# Static dielectric constant tensor:
#      x y z
#    x 1.788870 0.000000 0.000000 
#    y 0.000000 1.814030 0.000000 
#    z 0.000000 0.000000 1.846500 
# 
# From -- ./inp_files/59922.got.cif
#   From: 2010.05.17/outbox.cif.g08.bks.cpg/sg63_30_cif.got.tgz:59922.got - 2010.06.03 15:47:04.
