data_PCOD9472631
_publ_section_title
;
Structure prediction by ZEFSAII (Michael W. Deem and Ramdas Pophale) SiO2 
 PCOD9472631
Probable space group: C M C M
;
_chemical_formula_sum "Si O2"
_cell_formula_units_Z 100
_cell_length_a 8.122727
_cell_length_b 24.470949
_cell_length_c 29.607116
_cell_angle_alpha 90.000000
_cell_angle_beta 90.000000
_cell_angle_gamma 90.000000
_cell_volume 5885.031263
_symmetry_space_group_name_H-M "C M C M"
_symmetry_group_IT_number 63
_symmetry_cell_setting 'orthorhombic'
loop_
_space_group_symop_operation_xyz
x,y,z
-x,-y,1/2+z
x,-y,-z
-x,y,1/2-z
-x,-y,-z
x,y,1/2-z
-x,y,z
x,-y,1/2+z
1/2+x,1/2+y,z
1/2-x,1/2-y,1/2+z
1/2+x,1/2-y,-z
1/2-x,1/2+y,1/2-z
1/2-x,1/2-y,-z
1/2+x,1/2+y,1/2-z
1/2-x,1/2+y,z
1/2+x,1/2-y,1/2+z
loop_
_atom_site_type_symbol
_atom_site_label
_atom_site_fract_x
_atom_site_fract_y
_atom_site_fract_z
Si Si1 0.311141 0.088498 0.594497
Si Si2 0.802626 0.332815 0.176370
Si Si3 0.813274 0.635585 0.065938
Si Si4 0.816707 0.172569 0.525527
Si Si5 0.692751 0.255052 0.598466
Si Si6 0.500000 0.333436 0.250000
Si Si7 0.806443 0.985125 0.550710
O O1 0.500000 0.101785 0.582512
O O2 0.285122 0.114084 0.643762
O O3 0.199856 0.120996 0.558873
O O4 0.279235 0.024970 0.586647
O O5 0.778242 0.280161 0.143596
O O6 0.651224 0.333357 0.211234
O O7 0.000000 0.331721 0.191247
O O8 0.744324 0.681930 0.099226
O O9 0.720468 0.578190 0.061862
O O10 0.000000 0.623424 0.077792
O O11 0.801837 0.662593 0.016250
O O12 0.780857 0.224006 0.557184
O O13 0.000000 0.175862 0.506475
O O14 0.500000 0.251328 0.589181
O O15 0.000000 0.997005 0.551283
O O16 0.744093 0.000000 0.500000
#
# Coordination Sequence:
#
# PCOD9472631 Si02
#       7
#    16  16  16  16  16   4  16
#     4  10  20  35  54  77 114 150 188 235 283 322
#     4   9  22  39  60  92 121 143 177 231 291 356
#     4  12  23  33  49  73 107 151 200 235 269 319
#     4  11  20  31  49  72 105 150 194 231 272 321
#     4  10  21  37  53  74 112 146 183 231 280 329
#     4  12  22  36  72  90 118 140 180 220 304 368
#     4  11  22  34  51  75 109 153 202 241 269 314
#
# _framework density 16.992263000000001
#
# number of rings (size 3 to 8) (size 9 to 14) (size 15 to 20)
#    0.000    1.440    1.600    6.000    6.720    0.640 
#    0.000    0.000    0.000    0.000    0.000    1.120 
#    0.000    0.000    0.000    0.000    0.000    0.000 
#
# Total GULP energy -278374.306118 kJ/mol
# GULP energy per Si atom -5567.486122 kJ/mol
# Density = 1.695359 g / cm^3
# Si number density = 16.992263 Si / 1000 Ang^3
#
#
#
# Elastic Constant Matrix: (Units=GPa)
#
#
# Indices 1 2 3 4 5 6 
#
# 1 87.0540 23.5619 42.8054 0.0000 0.0000 0.0000
# 2 23.5619 96.6624 38.2178 0.0000 0.0000 0.0000
# 3 42.8054 38.2178 74.8070 0.0000 0.0000 0.0000
# 4 0.0000 0.0000 0.0000 -2.7152 0.0000 0.0000
# 5 0.0000 0.0000 0.0000 0.0000 28.2435 0.0000
# 6 0.0000 0.0000 0.0000 0.0000 0.0000 23.3690
#
#
#
# Elastic Compliance Matrix: (Units=1/GPa)
#
#
# Indices 1 2 3 4 5 6 
#
# 1 0.015994 -0.000351 -0.008973 0.000000 0.000000 0.000000
# 2 -0.000351 0.012972 -0.006426 0.000000 0.000000 0.000000
# 3 -0.008973 -0.006426 0.021785 0.000000 0.000000 0.000000
# 4 0.000000 0.000000 0.000000 -0.368296 0.000000 0.000000
# 5 0.000000 0.000000 0.000000 0.000000 0.035406 0.000000
# 6 0.000000 0.000000 0.000000 0.000000 0.000000 0.042792
#
#
# Mechanical properties :
#
#
# Convention : Reuss Voigt Hill
#
# Bulk Modulus (GPa) = 51.94534 51.96597 51.95566
# Shear Modulus (GPa) = -24.82241 20.04201 -2.39020
#
# Velocity S-wave (km/s) = -3.82620 3.43808 -1.18731
# Velocity P-wave (km/s) = 3.33416 6.81242 5.36310
#
# Compressibility (1/GPa) = 0.01925101
#
# Stress axis : x y z
#
# Youngs Moduli (GPa) = 62.52310 77.09167 45.90322
#
# Poissons Ratio (x) = 0.02707 0.41187
# Poissons Ratio (y) = 0.02195 0.29498
# Poissons Ratio (z) = 0.56100 0.49540
#
# Static dielectric constant tensor:
#      x y z
#    x 1.589980 0.000000 0.000000 
#    y 0.000000 1.622170 0.000000 
#    z 0.000000 0.000000 1.555060 
# 
# From -- ./inp_files/71862.got.cif
#   From: 2010.05.17/outbox.cif.g08.bks.cpg/sg63_36_cif.got.tgz:71862.got - 2010.06.03 15:47:04.
