data_PCOD9472576
_publ_section_title
;
Structure prediction by ZEFSAII (Michael W. Deem and Ramdas Pophale) SiO2 
 PCOD9472576
Probable space group: C M C M
;
_chemical_formula_sum "Si O2"
_cell_formula_units_Z 60
_cell_length_a 27.169222
_cell_length_b 11.194282
_cell_length_c 9.947600
_cell_angle_alpha 90.000000
_cell_angle_beta 90.000000
_cell_angle_gamma 90.000000
_cell_volume 3025.462395
_symmetry_space_group_name_H-M "C M C M"
_symmetry_group_IT_number 63
_symmetry_cell_setting 'orthorhombic'
loop_
_space_group_symop_operation_xyz
x,y,z
-x,-y,1/2+z
x,-y,-z
-x,y,1/2-z
-x,-y,-z
x,y,1/2-z
-x,y,z
x,-y,1/2+z
1/2+x,1/2+y,z
1/2-x,1/2-y,1/2+z
1/2+x,1/2-y,-z
1/2-x,1/2+y,1/2-z
1/2-x,1/2-y,-z
1/2+x,1/2+y,1/2-z
1/2-x,1/2+y,z
1/2+x,1/2-y,1/2+z
loop_
_atom_site_type_symbol
_atom_site_label
_atom_site_fract_x
_atom_site_fract_y
_atom_site_fract_z
Si Si1 0.500000 0.175689 0.965213
Si Si2 0.837149 0.500000 0.500000
Si Si3 0.500000 0.044795 0.250000
Si Si4 0.281247 0.117474 0.250000
Si Si5 0.645081 0.322056 0.250000
Si Si6 0.164197 0.897592 0.750000
Si Si7 0.607796 0.242846 0.534494
O O1 0.500000 0.143368 0.125118
O O2 0.449583 0.244626 0.933762
O O3 0.500000 0.060692 0.867814
O O4 0.803625 0.551574 0.380522
O O5 0.871560 0.392243 0.447881
O O6 0.302867 0.251636 0.250000
O O7 0.222827 0.117569 0.250000
O O8 0.652351 0.462744 0.250000
O O9 0.616674 0.277160 0.380596
O O10 0.140090 0.831691 0.623169
#
# Coordination Sequence:
#
# PCOD9472576 Si02
#       7
#     8   8   4   8   8   8  16
#     4  11  22  40  65  98 138 172 215 263 332 376
#     4  10  22  41  66 100 128 159 216 270 338 394
#     4  10  20  34  68  98 128 172 204 270 332 376
#     4  10  25  40  68  93 130 169 212 275 336 374
#     4  10  25  44  63  94 131 173 221 268 317 391
#     4  12  26  42  65  91 130 173 229 265 317 391
#     4  11  24  42  66  98 132 172 215 269 323 390
#
# _framework density 19.831679999999999
#
# number of rings (size 3 to 8) (size 9 to 14) (size 15 to 20)
#    0.000    1.333    0.000    4.800    7.467    6.400 
#    0.000    4.000    0.000    0.000    0.000    0.000 
#    0.000    0.000    0.000    0.000    0.000    0.000 
#
# Total GULP energy -167210.884508 kJ/mol
# GULP energy per Si atom -5573.696150 kJ/mol
# Density = 1.978654 g / cm^3
# Si number density = 19.831680 Si / 1000 Ang^3
#
#
#
# Elastic Constant Matrix: (Units=GPa)
#
#
# Indices 1 2 3 4 5 6 
#
# 1 182.5517 57.6742 25.2484 0.0000 0.0000 0.0000
# 2 57.6742 142.8302 21.5512 0.0000 0.0000 0.0000
# 3 25.2484 21.5512 117.8439 0.0000 0.0000 0.0000
# 4 0.0000 0.0000 0.0000 27.2204 0.0000 0.0000
# 5 0.0000 0.0000 0.0000 0.0000 -6.2755 0.0000
# 6 0.0000 0.0000 0.0000 0.0000 0.0000 -193.5663
#
#
#
# Elastic Compliance Matrix: (Units=1/GPa)
#
#
# Indices 1 2 3 4 5 6 
#
# 1 0.006375 -0.002435 -0.000920 0.000000 0.000000 0.000000
# 2 -0.002435 0.008130 -0.000965 0.000000 0.000000 0.000000
# 3 -0.000920 -0.000965 0.008860 0.000000 0.000000 0.000000
# 4 0.000000 0.000000 0.000000 0.036737 0.000000 0.000000
# 5 0.000000 0.000000 0.000000 0.000000 -0.159351 0.000000
# 6 0.000000 0.000000 0.000000 0.000000 0.000000 -0.005166
#
#
# Mechanical properties :
#
#
# Convention : Reuss Voigt Hill
#
# Bulk Modulus (GPa) = 67.92128 72.46374 70.19251
# Shear Modulus (GPa) = -55.02587 -11.94082 -33.48335
#
# Velocity S-wave (km/s) = -5.27320 -2.45645 -4.11344
# Velocity P-wave (km/s) = 1.65902 5.34539 3.59311
#
# Compressibility (1/GPa) = 0.01472293
#
# Stress axis : x y z
#
# Youngs Moduli (GPa) = 156.87400 122.99763 112.87313
#
# Poissons Ratio (x) = 0.29952 0.10389
# Poissons Ratio (y) = 0.38201 0.10894
# Poissons Ratio (z) = 0.14439 0.11871
#
# Static dielectric constant tensor:
#      x y z
#    x 1.679030 0.000000 0.000000 
#    y 0.000000 1.670380 0.000000 
#    z 0.000000 0.000000 1.685010 
# 
# From -- ./inp_files/11505.got.cif
#   From: 2010.05.17/outbox.cif.g08.bks.cpg/sg63_6_cif.got.tgz:11505.got - 2010.06.03 15:47:04.
