data_PCOD9472265
_publ_section_title
;
Structure prediction by ZEFSAII (Michael W. Deem and Ramdas Pophale) SiO2 
 PCOD9472265
Probable space group: C M C M
;
_chemical_formula_sum "Si O2"
_cell_formula_units_Z 96
_cell_length_a 8.506014
_cell_length_b 28.157105
_cell_length_c 23.323878
_cell_angle_alpha 90.000000
_cell_angle_beta 90.000000
_cell_angle_gamma 90.000000
_cell_volume 5586.179087
_symmetry_space_group_name_H-M "C M C M"
_symmetry_group_IT_number 63
_symmetry_cell_setting 'orthorhombic'
loop_
_space_group_symop_operation_xyz
x,y,z
-x,-y,1/2+z
x,-y,-z
-x,y,1/2-z
-x,-y,-z
x,y,1/2-z
-x,y,z
x,-y,1/2+z
1/2+x,1/2+y,z
1/2-x,1/2-y,1/2+z
1/2+x,1/2-y,-z
1/2-x,1/2+y,1/2-z
1/2-x,1/2-y,-z
1/2+x,1/2+y,1/2-z
1/2-x,1/2+y,z
1/2+x,1/2-y,1/2+z
loop_
_atom_site_type_symbol
_atom_site_label
_atom_site_fract_x
_atom_site_fract_y
_atom_site_fract_z
Si Si1 0.309124 0.396572 0.954350
Si Si2 0.188380 0.198547 0.983976
Si Si3 0.810295 0.625974 0.750000
Si Si4 0.689008 0.358138 0.371620
Si Si5 0.815353 0.966884 0.863487
Si Si6 0.314960 0.050739 0.934847
Si Si7 0.813943 0.484545 0.250000
O O1 0.500000 0.399155 0.958331
O O2 0.262545 0.417321 0.892477
O O3 0.260779 0.343300 0.972098
O O4 0.238047 0.430273 0.003512
O O5 0.231702 0.180822 0.919867
O O6 0.000000 0.199886 0.985914
O O7 0.250000 0.250000 0.000000
O O8 0.744632 0.650495 0.692775
O O9 0.754282 0.570284 0.750000
O O10 0.000000 0.626753 0.750000
O O11 0.500000 0.364968 0.373833
O O12 0.774533 0.406258 0.391792
O O13 0.736145 0.986574 0.806317
O O14 0.000000 0.963848 0.852073
O O15 0.781351 0.006060 0.912235
O O16 0.500000 0.040091 0.934033
O O17 0.000000 0.480384 0.250000
#
# Coordination Sequence:
#
# PCOD9472265 Si02
#       7
#    16  16   8  16  16  16   8
#     4   9  20  36  52  74 102 134 173 213 254 311
#     4   9  19  36  57  81 105 131 169 218 270 317
#     4  11  21  33  51  78 110 141 174 217 262 303
#     4  10  20  34  53  76 106 143 178 212 255 314
#     4  11  21  34  52  71  99 142 182 210 248 303
#     4  11  20  30  47  75 107 137 171 212 256 301
#     4  11  23  35  49  74 108 141 178 221 258 299
#
# _framework density 17.185269999999999
#
# number of rings (size 3 to 8) (size 9 to 14) (size 15 to 20)
#    0.000    1.833    1.667    4.500    0.000    7.333 
#    0.000    0.000    0.000    1.000    0.000    1.167 
#    0.000    0.000    0.000    0.000    0.000    0.000 
#
# Total GULP energy -267803.611685 kJ/mol
# GULP energy per Si atom -5579.241910 kJ/mol
# Density = 1.714616 g / cm^3
# Si number density = 17.185270 Si / 1000 Ang^3
#
#
#
# Elastic Constant Matrix: (Units=GPa)
#
#
# Indices 1 2 3 4 5 6 
#
# 1 21.0662 6.3923 13.2860 0.0000 0.0000 0.0000
# 2 6.3923 95.4263 66.2185 0.0000 0.0000 0.0000
# 3 13.2860 66.2185 77.9891 0.0000 0.0000 0.0000
# 4 0.0000 0.0000 0.0000 13.1060 0.0000 0.0000
# 5 0.0000 0.0000 0.0000 0.0000 11.9427 0.0000
# 6 0.0000 0.0000 0.0000 0.0000 0.0000 22.3372
#
#
#
# Elastic Compliance Matrix: (Units=1/GPa)
#
#
# Indices 1 2 3 4 5 6 
#
# 1 0.054966 0.006854 -0.015184 0.000000 0.000000 0.000000
# 2 0.006854 0.026364 -0.023552 0.000000 0.000000 0.000000
# 3 -0.015184 -0.023552 0.035407 0.000000 0.000000 0.000000
# 4 0.000000 0.000000 0.000000 0.076301 0.000000 0.000000
# 5 0.000000 0.000000 0.000000 0.000000 0.083733 0.000000
# 6 0.000000 0.000000 0.000000 0.000000 0.000000 0.044768
#
#
# Mechanical properties :
#
#
# Convention : Reuss Voigt Hill
#
# Bulk Modulus (GPa) = 18.87771 40.69724 29.78747
# Shear Modulus (GPa) = 12.40820 16.71616 14.56218
#
# Velocity S-wave (km/s) = 2.68997 3.12220 2.91411
# Velocity P-wave (km/s) = 4.54495 6.06056 5.35663
#
# Compressibility (1/GPa) = 0.05297252
#
# Stress axis : x y z
#
# Youngs Moduli (GPa) = 18.19320 37.93093 28.24325
#
# Poissons Ratio (x) = -0.25999 0.42883
# Poissons Ratio (y) = -0.12470 0.66520
# Poissons Ratio (z) = 0.27624 0.89336
#
# Static dielectric constant tensor:
#      x y z
#    x 1.581480 0.000000 0.000000 
#    y 0.000000 1.591570 0.000000 
#    z 0.000000 0.000000 1.619970 
# 
# From -- ./inp_files/60311.got.cif
#   From: 2010.05.17/outbox.cif.g08.bks.cpg/sg63_31_cif.got.tgz:60311.got - 2010.06.03 15:47:04.
