data_PCOD9472120
_publ_section_title
;
Structure prediction by ZEFSAII (Michael W. Deem and Ramdas Pophale) SiO2 
 PCOD9472120
Probable space group: C M C M
;
_chemical_formula_sum "Si O2"
_cell_formula_units_Z 100
_cell_length_a 21.181921
_cell_length_b 29.584468
_cell_length_c 7.590345
_cell_angle_alpha 90.000000
_cell_angle_beta 90.000000
_cell_angle_gamma 90.000000
_cell_volume 4756.534204
_symmetry_space_group_name_H-M "C M C M"
_symmetry_group_IT_number 63
_symmetry_cell_setting 'orthorhombic'
loop_
_space_group_symop_operation_xyz
x,y,z
-x,-y,1/2+z
x,-y,-z
-x,y,1/2-z
-x,-y,-z
x,y,1/2-z
-x,y,z
x,-y,1/2+z
1/2+x,1/2+y,z
1/2-x,1/2-y,1/2+z
1/2+x,1/2-y,-z
1/2-x,1/2+y,1/2-z
1/2-x,1/2-y,-z
1/2+x,1/2+y,1/2-z
1/2-x,1/2+y,z
1/2+x,1/2-y,1/2+z
loop_
_atom_site_type_symbol
_atom_site_label
_atom_site_fract_x
_atom_site_fract_y
_atom_site_fract_z
Si Si1 0.395294 0.773668 0.455913
Si Si2 0.684161 0.853232 0.459260
Si Si3 0.230937 0.550740 0.042209
Si Si4 0.125298 0.949057 0.540168
Si Si5 0.689524 0.695643 0.535312
Si Si6 0.000000 0.750075 0.250000
Si Si7 0.067743 0.857692 0.454783
O O1 0.415508 0.772927 0.250000
O O2 0.376575 0.824500 0.515993
O O3 0.329700 0.745125 0.469299
O O4 0.444807 0.753253 0.593211
O O5 0.685658 0.846962 0.250000
O O6 0.688590 0.906681 0.490432
O O7 0.747865 0.829455 0.529979
O O8 0.237535 0.552698 0.250000
O O9 0.302588 0.556123 0.968944
O O10 0.208459 0.500000 0.000000
O O11 0.125540 0.942701 0.750000
O O12 0.080960 0.910883 0.461982
O O13 0.105309 0.000000 0.500000
O O14 0.691263 0.696237 0.750000
O O15 0.629535 0.666039 0.472415
O O16 0.063656 0.843810 0.250000
O O17 0.000000 0.846997 0.536625
#
# Coordination Sequence:
#
# PCOD9472120 Si02
#       7
#    16  16  16  16  16   4  16
#     4  11  25  42  66  96 128 169 216 260 312 380
#     4  10  21  38  62  95 130 163 209 260 318 375
#     4  10  20  33  56  86 122 159 200 255 319 378
#     4  10  20  34  51  73 102 146 198 253 308 362
#     4  10  20  37  61  87 126 171 207 263 316 369
#     4  12  26  48  68  90 134 168 216 256 320 378
#     4  10  21  34  52  76 106 152 203 249 306 364
#
# _framework density 21.023710999999999
#
# number of rings (size 3 to 8) (size 9 to 14) (size 15 to 20)
#    0.000    1.760    2.400    1.680    2.240    3.200 
#    0.000    0.000    0.000    0.000    0.000    0.560 
#    0.000    0.000    0.000    0.000    0.000    0.000 
#
# Total GULP energy -278761.761096 kJ/mol
# GULP energy per Si atom -5575.235222 kJ/mol
# Density = 2.097586 g / cm^3
# Si number density = 21.023711 Si / 1000 Ang^3
#
#
#
# Elastic Constant Matrix: (Units=GPa)
#
#
# Indices 1 2 3 4 5 6 
#
# 1 29.8922 27.3959 16.5776 0.0000 0.0000 0.0000
# 2 27.3959 117.5262 0.1759 0.0000 0.0000 0.0000
# 3 16.5776 0.1759 88.7636 0.0000 0.0000 0.0000
# 4 0.0000 0.0000 0.0000 25.0288 0.0000 0.0000
# 5 0.0000 0.0000 0.0000 0.0000 292.2468 0.0000
# 6 0.0000 0.0000 0.0000 0.0000 0.0000 -3.6835
#
#
#
# Elastic Compliance Matrix: (Units=1/GPa)
#
#
# Indices 1 2 3 4 5 6 
#
# 1 0.048959 -0.011399 -0.009121 0.000000 0.000000 0.000000
# 2 -0.011399 0.011163 0.002107 0.000000 0.000000 0.000000
# 3 -0.009121 0.002107 0.012965 0.000000 0.000000 0.000000
# 4 0.000000 0.000000 0.000000 0.039954 0.000000 0.000000
# 5 0.000000 0.000000 0.000000 0.000000 0.003422 0.000000
# 6 0.000000 0.000000 0.000000 0.000000 0.000000 -0.271480
#
#
# Mechanical properties :
#
#
# Convention : Reuss Voigt Hill
#
# Bulk Modulus (GPa) = 27.57832 36.05344 31.81588
# Shear Modulus (GPa) = -47.12331 75.52061 14.19865
#
# Velocity S-wave (km/s) = -4.73952 5.99997 2.60160
# Velocity P-wave (km/s) = 4.09933 8.07376 4.91839
#
# Compressibility (1/GPa) = 0.03626036
#
# Stress axis : x y z
#
# Youngs Moduli (GPa) = 20.42535 89.58400 77.12979
#
# Poissons Ratio (x) = 1.02115 0.70350
# Poissons Ratio (y) = 0.23283 -0.16249
# Poissons Ratio (z) = 0.18630 -0.18873
#
# Static dielectric constant tensor:
#      x y z
#    x 1.777170 0.000000 0.000000 
#    y 0.000000 1.739070 0.000000 
#    z 0.000000 0.000000 1.759870 
# 
# From -- ./inp_files/8779.got.cif
#   From: 2010.05.17/outbox.cif.g08.bks.cpg/sg63_5_cif.got.tgz:8779.got - 2010.06.03 15:47:04.
