data_PCOD9472734
_publ_section_title
;
Structure prediction by ZEFSAII (Michael W. Deem and Ramdas Pophale) SiO2 
 PCOD9472734
Probable space group: C M C M
;
_chemical_formula_sum "Si O2"
_cell_formula_units_Z 112
_cell_length_a 30.622388
_cell_length_b 12.540630
_cell_length_c 15.701319
_cell_angle_alpha 90.000000
_cell_angle_beta 90.000000
_cell_angle_gamma 90.000000
_cell_volume 6029.683918
_symmetry_space_group_name_H-M "C M C M"
_symmetry_group_IT_number 63
_symmetry_cell_setting 'orthorhombic'
loop_
_space_group_symop_operation_xyz
x,y,z
-x,-y,1/2+z
x,-y,-z
-x,y,1/2-z
-x,-y,-z
x,y,1/2-z
-x,y,z
x,-y,1/2+z
1/2+x,1/2+y,z
1/2-x,1/2-y,1/2+z
1/2+x,1/2-y,-z
1/2-x,1/2+y,1/2-z
1/2-x,1/2-y,-z
1/2+x,1/2+y,1/2-z
1/2-x,1/2+y,z
1/2+x,1/2-y,1/2+z
loop_
_atom_site_type_symbol
_atom_site_label
_atom_site_fract_x
_atom_site_fract_y
_atom_site_fract_z
Si Si1 0.049949 0.452949 0.595199
Si Si2 0.305935 0.417584 0.847549
Si Si3 0.331167 0.239946 0.520971
Si Si4 0.879608 0.925589 0.423689
Si Si5 0.787387 0.432584 0.914361
Si Si6 0.865557 0.568538 0.653805
Si Si7 0.449691 0.281115 0.151245
O O1 0.051216 0.500000 0.500000
O O2 0.086760 0.516867 0.645808
O O3 0.060276 0.326657 0.598493
O O4 0.000000 0.464608 0.627384
O O5 0.315924 0.392403 0.750000
O O6 0.309107 0.315590 0.908952
O O7 0.340456 0.507077 0.879655
O O8 0.255406 0.449065 0.857984
O O9 0.360307 0.320046 0.466893
O O10 0.299192 0.182388 0.453832
O O11 0.357273 0.153030 0.577536
O O12 0.917955 0.880244 0.365426
O O13 0.896813 0.000000 0.500000
O O14 0.829565 0.477582 0.865573
O O15 0.779808 0.500000 0.000000
O O16 0.859292 0.610953 0.750000
O O17 0.446064 0.249305 0.250000
O O18 0.500000 0.310462 0.133654
#
# Coordination Sequence:
#
# PCOD9472734 Si02
#       7
#    16  16  16  16  16  16  16
#     4  10  20  35  56  81 110 143 177 216 267 328
#     4  11  22  37  55  79 108 138 179 227 269 308
#     4  10  21  37  55  76 107 146 179 214 262 322
#     4  10  21  37  57  79 106 143 184 222 266 317
#     4  10  20  36  56  77 106 141 177 214 260 320
#     4  11  21  34  54  81 110 139 174 219 268 314
#     4  10  20  35  56  82 109 138 176 223 271 316
#
# _framework density 18.574770999999998
#
# number of rings (size 3 to 8) (size 9 to 14) (size 15 to 20)
#    0.000    1.714    0.000    6.429    0.000    2.286 
#    0.000    5.000    0.000    0.857    0.000    0.000 
#    0.000    0.000    0.000    0.000    0.000    0.000 
#
# Total GULP energy -312297.627664 kJ/mol
# GULP energy per Si atom -5576.743351 kJ/mol
# Density = 1.853249 g / cm^3
# Si number density = 18.574771 Si / 1000 Ang^3
#
#
#
# Elastic Constant Matrix: (Units=GPa)
#
#
# Indices 1 2 3 4 5 6 
#
# 1 80.9807 45.8397 13.4466 0.0000 0.0000 0.0000
# 2 45.8397 87.9349 19.5299 0.0000 0.0000 0.0000
# 3 13.4466 19.5299 55.6703 0.0000 0.0000 0.0000
# 4 0.0000 0.0000 0.0000 15.9788 0.0000 0.0000
# 5 0.0000 0.0000 0.0000 0.0000 -24.4281 0.0000
# 6 0.0000 0.0000 0.0000 0.0000 0.0000 10.6415
#
#
#
# Elastic Compliance Matrix: (Units=1/GPa)
#
#
# Indices 1 2 3 4 5 6 
#
# 1 0.017582 -0.008917 -0.001119 0.000000 0.000000 0.000000
# 2 -0.008917 0.016855 -0.003759 0.000000 0.000000 0.000000
# 3 -0.001119 -0.003759 0.019552 0.000000 0.000000 0.000000
# 4 0.000000 0.000000 0.000000 0.062583 0.000000 0.000000
# 5 0.000000 0.000000 0.000000 0.000000 -0.040936 0.000000
# 6 0.000000 0.000000 0.000000 0.000000 0.000000 0.093972
#
#
# Mechanical properties :
#
#
# Convention : Reuss Voigt Hill
#
# Bulk Modulus (GPa) = 37.87936 42.46868 40.17402
# Shear Modulus (GPa) = 24.27226 10.15642 17.21434
#
# Velocity S-wave (km/s) = 3.61880 2.34088 3.04757
# Velocity P-wave (km/s) = 6.15614 5.49723 5.83600
#
# Compressibility (1/GPa) = 0.02639960
#
# Stress axis : x y z
#
# Youngs Moduli (GPa) = 56.87707 59.32883 51.14602
#
# Poissons Ratio (x) = 0.52902 0.05721
# Poissons Ratio (y) = 0.50716 0.19227
# Poissons Ratio (z) = 0.06362 0.22303
#
# Static dielectric constant tensor:
#      x y z
#    x 1.666780 0.000000 0.000000 
#    y 0.000000 1.669620 0.000000 
#    z 0.000000 0.000000 1.646800 
# 
# From -- ./inp_files/38529.got.cif
#   From: 2010.05.17/outbox.cif.g08.bks.cpg/sg63_20_cif.got.tgz:38529.got - 2010.06.03 15:47:04.
