data_PCOD9472405
_publ_section_title
;
Structure prediction by ZEFSAII (Michael W. Deem and Ramdas Pophale) SiO2 
 PCOD9472405
Probable space group: C M C M
;
_chemical_formula_sum "Si O2"
_cell_formula_units_Z 112
_cell_length_a 30.306334
_cell_length_b 5.295210
_cell_length_c 31.358670
_cell_angle_alpha 90.000000
_cell_angle_beta 90.000000
_cell_angle_gamma 90.000000
_cell_volume 5032.389277
_symmetry_space_group_name_H-M "C M C M"
_symmetry_group_IT_number 63
_symmetry_cell_setting 'orthorhombic'
loop_
_space_group_symop_operation_xyz
x,y,z
-x,-y,1/2+z
x,-y,-z
-x,y,1/2-z
-x,-y,-z
x,y,1/2-z
-x,y,z
x,-y,1/2+z
1/2+x,1/2+y,z
1/2-x,1/2-y,1/2+z
1/2+x,1/2-y,-z
1/2-x,1/2+y,1/2-z
1/2-x,1/2-y,-z
1/2+x,1/2+y,1/2-z
1/2-x,1/2+y,z
1/2+x,1/2-y,1/2+z
loop_
_atom_site_type_symbol
_atom_site_label
_atom_site_fract_x
_atom_site_fract_y
_atom_site_fract_z
Si Si1 0.371084 0.726697 0.824369
Si Si2 0.081420 0.286236 0.202196
Si Si3 0.727792 0.292222 0.301426
Si Si4 0.046922 0.685722 0.886502
Si Si5 0.548583 0.801361 0.961872
Si Si6 0.222308 0.990560 0.948336
Si Si7 0.123039 0.050513 0.916602
O O1 0.401795 0.499192 0.806863
O O2 0.321834 0.647119 0.813269
O O3 0.374668 0.736958 0.875693
O O4 0.381190 0.997018 0.803183
O O5 0.063762 0.299143 0.250000
O O6 0.049537 0.362124 0.163640
O O7 0.731326 0.285009 0.250000
O O8 0.758439 0.517688 0.317769
O O9 0.045718 0.446580 0.916981
O O10 0.000000 0.824890 0.894411
O O11 0.091455 0.829466 0.899049
O O12 0.500000 0.681273 0.967902
O O13 0.593466 0.646785 0.956166
O O14 0.553475 0.000000 0.000000
O O15 0.249176 0.243920 0.936117
O O16 0.172802 0.984323 0.929514
O O17 0.218323 0.000000 0.000000
#
# Coordination Sequence:
#
# PCOD9472405 Si02
#       7
#    16  16  16  16  16  16  16
#     4  11  23  39  61  92 127 165 222 277 327 398
#     4  11  22  40  64  91 128 178 222 269 327 395
#     4  10  20  34  54  82 116 156 204 265 329 384
#     4  10  23  42  64  99 138 173 226 283 336 406
#     4  10  22  40  66 100 136 174 224 280 342 412
#     4  10  25  44  66  97 135 178 231 287 335 405
#     4  11  24  40  68  94 135 179 227 276 353 402
#
# _framework density 22.25583
#
# number of rings (size 3 to 8) (size 9 to 14) (size 15 to 20)
#    0.000    1.571    1.429    2.571    4.000    3.143 
#    0.000    2.143    0.000    1.714    0.000    0.000 
#    0.000    0.000    0.000    0.000    0.000    0.000 
#
# Total GULP energy -312585.727809 kJ/mol
# GULP energy per Si atom -5581.887997 kJ/mol
# Density = 2.220518 g / cm^3
# Si number density = 22.255830 Si / 1000 Ang^3
#
#
#
# Elastic Constant Matrix: (Units=GPa)
#
#
# Indices 1 2 3 4 5 6 
#
# 1 150.1767 40.9514 40.6024 0.0000 0.0000 0.0000
# 2 40.9514 68.8210 45.2594 0.0000 0.0000 0.0000
# 3 40.6024 45.2594 104.0676 0.0000 0.0000 0.0000
# 4 0.0000 0.0000 0.0000 25.4909 0.0000 0.0000
# 5 0.0000 0.0000 0.0000 0.0000 80.6791 0.0000
# 6 0.0000 0.0000 0.0000 0.0000 0.0000 42.1887
#
#
#
# Elastic Compliance Matrix: (Units=1/GPa)
#
#
# Indices 1 2 3 4 5 6 
#
# 1 0.008111 -0.003845 -0.001492 0.000000 0.000000 0.000000
# 2 -0.003845 0.022174 -0.008143 0.000000 0.000000 0.000000
# 3 -0.001492 -0.008143 0.013733 0.000000 0.000000 0.000000
# 4 0.000000 0.000000 0.000000 0.039230 0.000000 0.000000
# 5 0.000000 0.000000 0.000000 0.000000 0.012395 0.000000
# 6 0.000000 0.000000 0.000000 0.000000 0.000000 0.023703
#
#
# Mechanical properties :
#
#
# Convention : Reuss Voigt Hill
#
# Bulk Modulus (GPa) = 58.62905 64.07687 61.35296
# Shear Modulus (GPa) = 32.89663 42.75522 37.82592
#
# Velocity S-wave (km/s) = 3.84879 4.38777 4.12709
# Velocity P-wave (km/s) = 6.79348 7.38401 7.09489
#
# Compressibility (1/GPa) = 0.01705639
#
# Stress axis : x y z
#
# Youngs Moduli (GPa) = 123.29360 45.09851 72.81758
#
# Poissons Ratio (x) = 0.17340 0.10867
# Poissons Ratio (y) = 0.47404 0.59298
# Poissons Ratio (z) = 0.18399 0.36725
#
# Static dielectric constant tensor:
#      x y z
#    x 1.805110 0.000000 0.000000 
#    y 0.000000 1.857830 0.000000 
#    z 0.000000 0.000000 1.838860 
# 
# From -- ./inp_files/74512.got.cif
#   From: 2010.05.17/outbox.cif.g08.bks.cpg/sg63_38_cif.got.tgz:74512.got - 2010.06.03 15:47:04.
