data_PCOD9472182
_publ_section_title
;
Structure prediction by ZEFSAII (Michael W. Deem and Ramdas Pophale) SiO2 
 PCOD9472182
Probable space group: C M C M
;
_chemical_formula_sum "Si O2"
_cell_formula_units_Z 116
_cell_length_a 7.499878
_cell_length_b 26.324477
_cell_length_c 27.631467
_cell_angle_alpha 90.000000
_cell_angle_beta 90.000000
_cell_angle_gamma 90.000000
_cell_volume 5455.290641
_symmetry_space_group_name_H-M "C M C M"
_symmetry_group_IT_number 63
_symmetry_cell_setting 'orthorhombic'
loop_
_space_group_symop_operation_xyz
x,y,z
-x,-y,1/2+z
x,-y,-z
-x,y,1/2-z
-x,-y,-z
x,y,1/2-z
-x,y,z
x,-y,1/2+z
1/2+x,1/2+y,z
1/2-x,1/2-y,1/2+z
1/2+x,1/2-y,-z
1/2-x,1/2+y,1/2-z
1/2-x,1/2-y,-z
1/2+x,1/2+y,1/2-z
1/2-x,1/2+y,z
1/2+x,1/2-y,1/2+z
loop_
_atom_site_type_symbol
_atom_site_label
_atom_site_fract_x
_atom_site_fract_y
_atom_site_fract_z
Si Si1 0.717520 0.059232 0.353145
Si Si2 0.500000 0.296423 0.750000
Si Si3 0.298750 0.015230 0.050912
Si Si4 0.284810 0.954044 0.304236
Si Si5 0.783206 0.816185 0.036799
Si Si6 0.295495 0.170764 0.325430
Si Si7 0.294038 0.297662 0.568493
Si Si8 0.708542 0.411934 0.401504
O O1 0.500000 0.058332 0.355327
O O2 0.766133 0.111733 0.328088
O O3 0.780339 0.053302 0.409008
O O4 0.775207 0.009542 0.323360
O O5 0.342774 0.299571 0.792287
O O6 0.500000 0.033389 0.039669
O O7 0.305533 0.962124 0.079677
O O8 0.211336 0.000000 0.000000
O O9 0.221776 0.944690 0.250000
O O10 0.500000 0.955090 0.303643
O O11 0.228634 0.912740 0.343803
O O12 0.718433 0.762335 0.056894
O O13 0.727356 0.862095 0.071133
O O14 0.000000 0.813908 0.036226
O O15 0.723646 0.823003 0.981121
O O16 0.500000 0.172617 0.307940
O O17 0.295834 0.189263 0.381089
O O18 0.500000 0.312295 0.573902
O O19 0.500000 0.418444 0.413161
#
# Coordination Sequence:
#
# PCOD9472182 Si02
#       8
#    16   4  16  16  16  16  16  16
#     4   8  17  33  52  79 109 150 193 241 298 351
#     4  12  26  44  60  94 118 164 214 252 296 374
#     4   9  18  33  51  75 111 153 197 234 282 351
#     4   9  18  35  57  77 106 146 197 245 288 342
#     4   9  20  37  60  86 121 156 190 240 309 364
#     4  11  23  41  64  88 126 162 202 256 310 356
#     4  10  20  38  61  92 118 149 199 251 299 373
#     4  10  20  34  51  81 115 148 187 236 294 355
#
# _framework density 21.263762
#
# number of rings (size 3 to 8) (size 9 to 14) (size 15 to 20)
#    0.000    2.483    0.690    1.862    2.897    2.207 
#    4.966    0.000    1.517    0.000    0.000    0.000 
#    0.000    0.000    0.000    0.000    0.000    0.000 
#
# Total GULP energy -323180.783069 kJ/mol
# GULP energy per Si atom -5572.082467 kJ/mol
# Density = 2.121536 g / cm^3
# Si number density = 21.263762 Si / 1000 Ang^3
#
#
#
# Elastic Constant Matrix: (Units=GPa)
#
#
# Indices 1 2 3 4 5 6 
#
# 1 88.4367 0.2428 14.5790 0.0000 0.0000 0.0000
# 2 0.2428 30.1952 23.1655 0.0000 0.0000 0.0000
# 3 14.5790 23.1655 149.5564 0.0000 0.0000 0.0000
# 4 0.0000 0.0000 0.0000 15.7894 0.0000 0.0000
# 5 0.0000 0.0000 0.0000 0.0000 196.4309 0.0000
# 6 0.0000 0.0000 0.0000 0.0000 0.0000 -12.3108
#
#
#
# Elastic Compliance Matrix: (Units=1/GPa)
#
#
# Indices 1 2 3 4 5 6 
#
# 1 0.011512 0.000872 -0.001257 0.000000 0.000000 0.000000
# 2 0.000872 0.037650 -0.005917 0.000000 0.000000 0.000000
# 3 -0.001257 -0.005917 0.007725 0.000000 0.000000 0.000000
# 4 0.000000 0.000000 0.000000 0.063334 0.000000 0.000000
# 5 0.000000 0.000000 0.000000 0.000000 0.005091 0.000000
# 6 0.000000 0.000000 0.000000 0.000000 0.000000 -0.081230
#
#
# Mechanical properties :
#
#
# Convention : Reuss Voigt Hill
#
# Bulk Modulus (GPa) = 22.58158 38.24033 30.41096
# Shear Modulus (GPa) = 69.98040 55.32864 62.65452
#
# Velocity S-wave (km/s) = 5.74300 5.10653 5.43409
# Velocity P-wave (km/s) = 7.39046 7.26579 7.32839
#
# Compressibility (1/GPa) = 0.04428388
#
# Stress axis : x y z
#
# Youngs Moduli (GPa) = 86.86285 26.56027 129.44147
#
# Poissons Ratio (x) = -0.02316 0.16275
# Poissons Ratio (y) = -0.07575 0.76588
# Poissons Ratio (z) = 0.10921 0.15715
#
# Static dielectric constant tensor:
#      x y z
#    x 1.857750 0.000000 0.000000 
#    y 0.000000 1.738910 0.000000 
#    z 0.000000 0.000000 1.798860 
# 
# From -- ./inp_files/67637.got.cif
#   From: 2010.05.17/outbox.cif.g08.bks.cpg/sg63_34_cif.got.tgz:67637.got - 2010.06.03 15:47:04.
