data_PCOD9472447
_publ_section_title
;
Structure prediction by ZEFSAII (Michael W. Deem and Ramdas Pophale) SiO2 
 PCOD9472447
Probable space group: C M C M
;
_chemical_formula_sum "Si O2"
_cell_formula_units_Z 72
_cell_length_a 29.612605
_cell_length_b 14.122226
_cell_length_c 8.805936
_cell_angle_alpha 90.000000
_cell_angle_beta 90.000000
_cell_angle_gamma 90.000000
_cell_volume 3682.606333
_symmetry_space_group_name_H-M "C M C M"
_symmetry_group_IT_number 63
_symmetry_cell_setting 'orthorhombic'
loop_
_space_group_symop_operation_xyz
x,y,z
-x,-y,1/2+z
x,-y,-z
-x,y,1/2-z
-x,-y,-z
x,y,1/2-z
-x,y,z
x,-y,1/2+z
1/2+x,1/2+y,z
1/2-x,1/2-y,1/2+z
1/2+x,1/2-y,-z
1/2-x,1/2+y,1/2-z
1/2-x,1/2-y,-z
1/2+x,1/2+y,1/2-z
1/2-x,1/2+y,z
1/2+x,1/2-y,1/2+z
loop_
_atom_site_type_symbol
_atom_site_label
_atom_site_fract_x
_atom_site_fract_y
_atom_site_fract_z
Si Si1 0.185461 0.696043 0.568372
Si Si2 0.500000 0.103550 0.067148
Si Si3 0.226820 0.101259 0.431692
Si Si4 0.446405 0.397854 0.930403
Si Si5 0.090878 0.288194 0.568286
O O1 0.187716 0.687211 0.750000
O O2 0.196508 0.806444 0.528804
O O3 0.223870 0.630733 0.494309
O O4 0.136094 0.672446 0.506910
O O5 0.500000 0.100887 0.250000
O O6 0.454326 0.156635 0.019829
O O7 0.500000 0.000000 0.000000
O O8 0.227952 0.093495 0.250000
O O9 0.212725 0.000000 0.500000
O O10 0.438655 0.396944 0.750000
O O11 0.500000 0.379406 0.957093
O O12 0.436424 0.500000 0.000000
O O13 0.417327 0.318295 0.011792
O O14 0.094695 0.291372 0.750000
#
# Coordination Sequence:
#
# PCOD9472447 Si02
#       5
#    16   8  16  16  16
#     4  10  22  39  60  89 121 155 198 243 294 354
#     4  10  24  42  61  84 113 154 201 248 294 342
#     4  10  21  39  63  89 119 154 193 240 297 355
#     4  10  20  34  55  82 112 150 193 239 292 349
#     4  11  22  39  60  85 120 157 199 248 298 350
#
# _framework density 19.551372000000001
#
# number of rings (size 3 to 8) (size 9 to 14) (size 15 to 20)
#    0.000    1.778    1.111    2.667    0.000    7.111 
#    0.000    4.444    0.000    0.000    0.000    0.000 
#    0.000    0.000    0.000    0.000    0.000    0.000 
#
# Total GULP energy -201195.609020 kJ/mol
# GULP energy per Si atom -5588.766917 kJ/mol
# Density = 1.950687 g / cm^3
# Si number density = 19.551372 Si / 1000 Ang^3
#
#
#
# Elastic Constant Matrix: (Units=GPa)
#
#
# Indices 1 2 3 4 5 6 
#
# 1 93.7513 4.7592 18.3272 0.0000 0.0000 0.0000
# 2 4.7592 48.9672 8.0030 0.0000 0.0000 0.0000
# 3 18.3272 8.0030 35.8662 0.0000 0.0000 0.0000
# 4 0.0000 0.0000 0.0000 38.1884 0.0000 0.0000
# 5 0.0000 0.0000 0.0000 0.0000 30.1537 0.0000
# 6 0.0000 0.0000 0.0000 0.0000 0.0000 -34.7902
#
#
#
# Elastic Compliance Matrix: (Units=1/GPa)
#
#
# Indices 1 2 3 4 5 6 
#
# 1 0.011852 -0.000168 -0.006018 0.000000 0.000000 0.000000
# 2 -0.000168 0.021197 -0.004644 0.000000 0.000000 0.000000
# 3 -0.006018 -0.004644 0.031993 0.000000 0.000000 0.000000
# 4 0.000000 0.000000 0.000000 0.026186 0.000000 0.000000
# 5 0.000000 0.000000 0.000000 0.000000 0.033163 0.000000
# 6 0.000000 0.000000 0.000000 0.000000 0.000000 -0.028744
#
#
# Mechanical properties :
#
#
# Convention : Reuss Voigt Hill
#
# Bulk Modulus (GPa) = 23.05179 26.75150 24.90165
# Shear Modulus (GPa) = 37.94525 16.54340 27.24432
#
# Velocity S-wave (km/s) = 4.41023 2.91202 3.73698
# Velocity P-wave (km/s) = 6.14406 5.00189 5.60216
#
# Compressibility (1/GPa) = 0.04338058
#
# Stress axis : x y z
#
# Youngs Moduli (GPa) = 84.37681 47.17618 31.25684
#
# Poissons Ratio (x) = 0.00794 0.18812
# Poissons Ratio (y) = 0.01420 0.14515
# Poissons Ratio (z) = 0.50782 0.21908
#
# Static dielectric constant tensor:
#      x y z
#    x 1.696400 0.000000 0.000000 
#    y 0.000000 1.644420 0.000000 
#    z 0.000000 0.000000 1.647080 
# 
# From -- ./inp_files/11723.got.cif
#   From: 2010.05.17/outbox.cif.g08.bks.cpg/sg63_6_cif.got.tgz:11723.got - 2010.06.03 15:47:04.
