data_PCOD9472427
_publ_section_title
;
Structure prediction by ZEFSAII (Michael W. Deem and Ramdas Pophale) SiO2 
 PCOD9472427
Probable space group: C M C M
;
_chemical_formula_sum "Si O2"
_cell_formula_units_Z 116
_cell_length_a 33.237716
_cell_length_b 22.714841
_cell_length_c 7.998932
_cell_angle_alpha 90.000000
_cell_angle_beta 90.000000
_cell_angle_gamma 90.000000
_cell_volume 6039.109144
_symmetry_space_group_name_H-M "C M C M"
_symmetry_group_IT_number 63
_symmetry_cell_setting 'orthorhombic'
loop_
_space_group_symop_operation_xyz
x,y,z
-x,-y,1/2+z
x,-y,-z
-x,y,1/2-z
-x,-y,-z
x,y,1/2-z
-x,y,z
x,-y,1/2+z
1/2+x,1/2+y,z
1/2-x,1/2-y,1/2+z
1/2+x,1/2-y,-z
1/2-x,1/2+y,1/2-z
1/2-x,1/2-y,-z
1/2+x,1/2+y,1/2-z
1/2-x,1/2+y,z
1/2+x,1/2-y,1/2+z
loop_
_atom_site_type_symbol
_atom_site_label
_atom_site_fract_x
_atom_site_fract_y
_atom_site_fract_z
Si Si1 0.545139 0.188270 0.950995
Si Si2 0.402773 0.701240 0.054787
Si Si3 0.175051 0.434670 0.950103
Si Si4 0.417221 0.934647 0.949118
Si Si5 0.457121 0.599359 0.936896
Si Si6 0.687042 0.709872 0.943726
Si Si7 0.500000 0.551144 0.250000
Si Si8 0.228248 0.327521 0.446730
O O1 0.544604 0.191812 0.750000
O O2 0.500000 0.200243 0.013329
O O3 0.576728 0.238081 0.008979
O O4 0.557891 0.121831 0.993948
O O5 0.413710 0.694794 0.250000
O O6 0.421542 0.645042 0.962668
O O7 0.354898 0.703942 0.037274
O O8 0.175209 0.428266 0.750000
O O9 0.128900 0.427420 0.011524
O O10 0.187616 0.500000 0.000000
O O11 0.204632 0.387280 0.027097
O O12 0.416097 0.933946 0.750000
O O13 0.431668 0.000000 0.000000
O O14 0.455261 0.571359 0.750000
O O15 0.500000 0.634516 0.937807
O O16 0.465334 0.558536 0.098244
O O17 0.679140 0.696251 0.750000
O O18 0.725304 0.671726 0.004360
O O19 0.703908 0.776130 0.961013
O O20 0.229110 0.312052 0.250000
#
# Coordination Sequence:
#
# PCOD9472427 Si02
#       8
#    16  16  16  16  16  16   4  16
#     4  10  22  35  49  66  89 119 152 195 244 290
#     4  11  19  31  47  66  90 118 155 194 236 288
#     4  10  20  34  55  78  99 123 156 202 251 303
#     4  10  21  36  52  69  88 111 146 190 240 296
#     4   9  16  26  42  60  83 114 145 186 227 267
#     4  10  21  33  48  69  95 128 162 200 244 298
#     4   8  14  28  40  58  84 112 144 184 228 270
#     4  10  20  35  50  69  97 126 159 197 245 299
#
# _framework density 19.208131999999999
#
# number of rings (size 3 to 8) (size 9 to 14) (size 15 to 20)
#    0.414    1.655    0.690    3.310    0.000    7.724 
#    0.000    0.000    0.000    0.000    0.000    0.000 
#    0.000    0.000    0.000    0.000    0.000    2.759 
#
# Total GULP energy -322874.558898 kJ/mol
# GULP energy per Si atom -5566.802740 kJ/mol
# Density = 1.916441 g / cm^3
# Si number density = 19.208132 Si / 1000 Ang^3
#
#
#
# Elastic Constant Matrix: (Units=GPa)
#
#
# Indices 1 2 3 4 5 6 
#
# 1 80.8996 21.8712 15.7326 0.0000 0.0000 0.0000
# 2 21.8712 45.3355 16.9565 0.0000 0.0000 0.0000
# 3 15.7326 16.9565 76.6535 0.0000 0.0000 0.0000
# 4 0.0000 0.0000 0.0000 27.8733 0.0000 0.0000
# 5 0.0000 0.0000 0.0000 0.0000 23.0537 0.0000
# 6 0.0000 0.0000 0.0000 0.0000 0.0000 55.1545
#
#
#
# Elastic Compliance Matrix: (Units=1/GPa)
#
#
# Indices 1 2 3 4 5 6 
#
# 1 0.014381 -0.006360 -0.001545 0.000000 0.000000 0.000000
# 2 -0.006360 0.026860 -0.004636 0.000000 0.000000 0.000000
# 3 -0.001545 -0.004636 0.014388 0.000000 0.000000 0.000000
# 4 0.000000 0.000000 0.000000 0.035877 0.000000 0.000000
# 5 0.000000 0.000000 0.000000 0.000000 0.043377 0.000000
# 6 0.000000 0.000000 0.000000 0.000000 0.000000 0.018131
#
#
# Mechanical properties :
#
#
# Convention : Reuss Voigt Hill
#
# Bulk Modulus (GPa) = 32.73618 34.66768 33.70193
# Shear Modulus (GPa) = 26.55646 31.10487 28.83066
#
# Velocity S-wave (km/s) = 3.72232 4.02849 3.87843
# Velocity P-wave (km/s) = 5.96272 6.30285 6.13515
#
# Compressibility (1/GPa) = 0.03054724
#
# Stress axis : x y z
#
# Youngs Moduli (GPa) = 69.53712 37.22994 69.50062
#
# Poissons Ratio (x) = 0.23678 0.10736
# Poissons Ratio (y) = 0.44225 0.32223
# Poissons Ratio (z) = 0.10741 0.17261
#
# Static dielectric constant tensor:
#      x y z
#    x 1.670540 0.000000 0.000000 
#    y 0.000000 1.645560 0.000000 
#    z 0.000000 0.000000 1.713320 
# 
# From -- ./inp_files/14773.got.cif
#   From: 2010.05.17/outbox.cif.g08.bks.cpg/sg63_8_cif.got.tgz:14773.got - 2010.06.03 15:47:04.
