data_PCOD9472776
_publ_section_title
;
Structure prediction by ZEFSAII (Michael W. Deem and Ramdas Pophale) SiO2 
 PCOD9472776
Probable space group: C M C M
;
_chemical_formula_sum "Si O2"
_cell_formula_units_Z 100
_cell_length_a 19.376609
_cell_length_b 16.792510
_cell_length_c 14.637070
_cell_angle_alpha 90.000000
_cell_angle_beta 90.000000
_cell_angle_gamma 90.000000
_cell_volume 4762.637653
_symmetry_space_group_name_H-M "C M C M"
_symmetry_group_IT_number 63
_symmetry_cell_setting 'orthorhombic'
loop_
_space_group_symop_operation_xyz
x,y,z
-x,-y,1/2+z
x,-y,-z
-x,y,1/2-z
-x,-y,-z
x,y,1/2-z
-x,y,z
x,-y,1/2+z
1/2+x,1/2+y,z
1/2-x,1/2-y,1/2+z
1/2+x,1/2-y,-z
1/2-x,1/2+y,1/2-z
1/2-x,1/2-y,-z
1/2+x,1/2+y,1/2-z
1/2-x,1/2+y,z
1/2+x,1/2-y,1/2+z
loop_
_atom_site_type_symbol
_atom_site_label
_atom_site_fract_x
_atom_site_fract_y
_atom_site_fract_z
Si Si1 0.379983 0.832826 0.356079
Si Si2 0.000000 0.500000 0.500000
Si Si3 0.000000 0.211637 0.138349
Si Si4 0.239108 0.838281 0.467372
Si Si5 0.367693 0.422919 0.146185
Si Si6 0.000000 0.024348 0.361905
Si Si7 0.403134 0.987740 0.850407
Si Si8 0.745320 0.438630 0.849444
O O1 0.362832 0.815358 0.250000
O O2 0.431426 0.762449 0.389147
O O3 0.308741 0.850638 0.408277
O O4 0.419444 0.917658 0.356394
O O5 0.940675 0.454631 0.561944
O O6 0.000000 0.212620 0.250000
O O7 0.000000 0.118073 0.109679
O O8 0.250000 0.750000 0.500000
O O9 0.168547 0.854137 0.412074
O O10 0.234574 0.889612 0.559293
O O11 0.382759 0.396165 0.250000
O O12 0.433689 0.471820 0.110409
O O13 0.307625 0.488982 0.149801
O O14 0.000000 0.027480 0.250000
O O15 0.425367 0.959755 0.750000
O O16 0.322332 0.972267 0.853663
O O17 0.736483 0.396698 0.750000
#
# Coordination Sequence:
#
# PCOD9472776 Si02
#       8
#    16   4   8  16  16   8  16  16
#     4  10  20  37  59  87 128 171 206 258 324 386
#     4  12  20  28  54  86 118 150 198 272 312 372
#     4   9  19  35  59  97 140 172 214 264 323 396
#     4  12  25  38  60  95 130 166 218 275 330 393
#     4  10  21  42  69  96 131 172 218 271 333 401
#     4   9  20  39  69 101 130 177 223 268 329 397
#     4  10  20  35  56  85 119 167 214 254 322 393
#     4  10  22  41  63  87 125 171 219 272 326 399
#
# _framework density 20.996767999999999
#
# number of rings (size 3 to 8) (size 9 to 14) (size 15 to 20)
#    0.000    1.760    1.600    2.640    2.240    2.560 
#    0.000    2.400    0.000    0.000    0.000    4.480 
#    0.000    0.000    0.000    0.000    0.000    0.000 
#
# Total GULP energy -278355.877880 kJ/mol
# GULP energy per Si atom -5567.117558 kJ/mol
# Density = 2.094898 g / cm^3
# Si number density = 20.996768 Si / 1000 Ang^3
#
#
#
# Elastic Constant Matrix: (Units=GPa)
#
#
# Indices 1 2 3 4 5 6 
#
# 1 55.2281 -28.7352 -8.1941 0.0000 0.0000 0.0000
# 2 -28.7352 47.8928 -1.2545 0.0000 0.0000 0.0000
# 3 -8.1941 -1.2545 82.4892 0.0000 0.0000 0.0000
# 4 0.0000 0.0000 0.0000 17.5817 0.0000 0.0000
# 5 0.0000 0.0000 0.0000 0.0000 4.1832 0.0000
# 6 0.0000 0.0000 0.0000 0.0000 0.0000 -12.4196
#
#
#
# Elastic Compliance Matrix: (Units=1/GPa)
#
#
# Indices 1 2 3 4 5 6 
#
# 1 0.027015 0.016285 0.002931 0.000000 0.000000 0.000000
# 2 0.016285 0.030706 0.002085 0.000000 0.000000 0.000000
# 3 0.002931 0.002085 0.012446 0.000000 0.000000 0.000000
# 4 0.000000 0.000000 0.000000 0.056877 0.000000 0.000000
# 5 0.000000 0.000000 0.000000 0.000000 0.239049 0.000000
# 6 0.000000 0.000000 0.000000 0.000000 0.000000 -0.080518
#
#
# Mechanical properties :
#
#
# Convention : Reuss Voigt Hill
#
# Bulk Modulus (GPa) = 8.86769 12.13807 10.50288
# Shear Modulus (GPa) = 17.82141 16.78867 17.30504
#
# Velocity S-wave (km/s) = 2.91653 2.83076 2.87396
# Velocity P-wave (km/s) = 3.94639 4.05928 4.00323
#
# Compressibility (1/GPa) = 0.11276894
#
# Stress axis : x y z
#
# Youngs Moduli (GPa) = 37.01657 32.56729 80.34920
#
# Poissons Ratio (x) = -0.53037 -0.23552
# Poissons Ratio (y) = -0.60283 -0.16750
# Poissons Ratio (z) = -0.10850 -0.06789
#
# Static dielectric constant tensor:
#      x y z
#    x 1.794400 0.000000 0.000000 
#    y 0.000000 1.812310 0.000000 
#    z 0.000000 0.000000 1.672780 
# 
# From -- ./inp_files/35672.got.cif
#   From: 2010.05.17/outbox.cif.g08.bks.cpg/sg63_18_cif.got.tgz:35672.got - 2010.06.03 15:47:04.
