data_PCOD9472929
_publ_section_title
;
Structure prediction by ZEFSAII (Michael W. Deem and Ramdas Pophale) SiO2 
 PCOD9472929
Probable space group: C M C M
;
_chemical_formula_sum "Si O2"
_cell_formula_units_Z 96
_cell_length_a 22.960272
_cell_length_b 14.420003
_cell_length_c 15.406294
_cell_angle_alpha 90.000000
_cell_angle_beta 90.000000
_cell_angle_gamma 90.000000
_cell_volume 5100.826606
_symmetry_space_group_name_H-M "C M C M"
_symmetry_group_IT_number 63
_symmetry_cell_setting 'orthorhombic'
loop_
_space_group_symop_operation_xyz
x,y,z
-x,-y,1/2+z
x,-y,-z
-x,y,1/2-z
-x,-y,-z
x,y,1/2-z
-x,y,z
x,-y,1/2+z
1/2+x,1/2+y,z
1/2-x,1/2-y,1/2+z
1/2+x,1/2-y,-z
1/2-x,1/2+y,1/2-z
1/2-x,1/2-y,-z
1/2+x,1/2+y,1/2-z
1/2-x,1/2+y,z
1/2+x,1/2-y,1/2+z
loop_
_atom_site_type_symbol
_atom_site_label
_atom_site_fract_x
_atom_site_fract_y
_atom_site_fract_z
Si Si1 0.257828 0.502402 0.353462
Si Si2 0.070212 0.749602 0.349249
Si Si3 0.285687 0.306079 0.571957
Si Si4 0.369454 0.587324 0.950463
Si Si5 0.069041 0.610739 0.998446
Si Si6 0.343222 0.859138 0.347961
O O1 0.266264 0.504241 0.250000
O O2 0.252044 0.605663 0.390645
O O3 0.313982 0.454909 0.398426
O O4 0.200902 0.441800 0.372463
O O5 0.090915 0.736563 0.250000
O O6 0.093218 0.846523 0.388664
O O7 0.087340 0.665630 0.414158
O O8 0.000000 0.751655 0.347732
O O9 0.250000 0.250000 0.500000
O O10 0.342220 0.347467 0.524475
O O11 0.305363 0.234253 0.644748
O O12 0.398666 0.500000 0.000000
O O13 0.000000 0.627309 0.987121
O O14 0.077804 0.500000 0.000000
O O15 0.105642 0.646727 0.917240
O O16 0.364070 0.873588 0.250000
#
# Coordination Sequence:
#
# PCOD9472929 Si02
#       6
#    16  16  16  16  16  16
#     4  10  22  37  55  86 121 153 193 240 295 353
#     4  10  21  39  63  90 118 154 203 252 299 357
#     4  11  21  36  57  82 120 154 187 237 288 352
#     4  10  20  35  60  87 116 157 190 240 299 353
#     4  10  23  41  62  86 119 158 199 252 304 351
#     4  11  23  38  61  89 117 157 202 241 293 356
#
# _framework density 18.82048
#
# number of rings (size 3 to 8) (size 9 to 14) (size 15 to 20)
#    0.000    1.667    3.333    1.000    2.333    1.333 
#    0.000    3.333    0.000    0.000    0.000    0.000 
#    0.000    0.000    0.000    0.000    0.000    0.000 
#
# Total GULP energy -267970.381815 kJ/mol
# GULP energy per Si atom -5582.716288 kJ/mol
# Density = 1.877764 g / cm^3
# Si number density = 18.820480 Si / 1000 Ang^3
#
#
#
# Elastic Constant Matrix: (Units=GPa)
#
#
# Indices 1 2 3 4 5 6 
#
# 1 27.2803 37.9192 43.9086 0.0000 0.0000 0.0000
# 2 37.9192 138.3391 61.7871 0.0000 0.0000 0.0000
# 3 43.9086 61.7871 126.8563 0.0000 0.0000 0.0000
# 4 0.0000 0.0000 0.0000 26.3104 0.0000 0.0000
# 5 0.0000 0.0000 0.0000 0.0000 30.0409 0.0000
# 6 0.0000 0.0000 0.0000 0.0000 0.0000 23.2001
#
#
#
# Elastic Compliance Matrix: (Units=1/GPa)
#
#
# Indices 1 2 3 4 5 6 
#
# 1 0.104634 -0.015981 -0.028433 0.000000 0.000000 0.000000
# 2 -0.015981 0.011679 -0.000157 0.000000 0.000000 0.000000
# 3 -0.028433 -0.000157 0.017801 0.000000 0.000000 0.000000
# 4 0.000000 0.000000 0.000000 0.038008 0.000000 0.000000
# 5 0.000000 0.000000 0.000000 0.000000 0.033288 0.000000
# 6 0.000000 0.000000 0.000000 0.000000 0.000000 0.043103
#
#
# Mechanical properties :
#
#
# Convention : Reuss Voigt Hill
#
# Bulk Modulus (GPa) = 22.23616 64.41170 43.32393
# Shear Modulus (GPa) = 14.17850 25.83434 20.00642
#
# Velocity S-wave (km/s) = 2.74771 3.70898 3.26393
# Velocity P-wave (km/s) = 4.68050 7.25538 6.10523
#
# Compressibility (1/GPa) = 0.04497180
#
# Stress axis : x y z
#
# Youngs Moduli (GPa) = 9.55709 85.62190 56.17719
#
# Poissons Ratio (x) = 1.36836 1.59728
# Poissons Ratio (y) = 0.15274 0.00881
# Poissons Ratio (z) = 0.27174 0.01343
#
# Static dielectric constant tensor:
#      x y z
#    x 1.638900 0.000000 0.000000 
#    y 0.000000 1.657730 0.000000 
#    z 0.000000 0.000000 1.657250 
# 
# From -- ./inp_files/35354.got.cif
#   From: 2010.05.17/outbox.cif.g08.bks.cpg/sg63_18_cif.got.tgz:35354.got - 2010.06.03 15:47:04.
