data_PCOD9472310
_publ_section_title
;
Structure prediction by ZEFSAII (Michael W. Deem and Ramdas Pophale) SiO2 
 PCOD9472310
Probable space group: C M C M
;
_chemical_formula_sum "Si O2"
_cell_formula_units_Z 68
_cell_length_a 23.637892
_cell_length_b 17.110363
_cell_length_c 7.567825
_cell_angle_alpha 90.000000
_cell_angle_beta 90.000000
_cell_angle_gamma 90.000000
_cell_volume 3060.828864
_symmetry_space_group_name_H-M "C M C M"
_symmetry_group_IT_number 63
_symmetry_cell_setting 'orthorhombic'
loop_
_space_group_symop_operation_xyz
x,y,z
-x,-y,1/2+z
x,-y,-z
-x,y,1/2-z
-x,-y,-z
x,y,1/2-z
-x,y,z
x,-y,1/2+z
1/2+x,1/2+y,z
1/2-x,1/2-y,1/2+z
1/2+x,1/2-y,-z
1/2-x,1/2+y,1/2-z
1/2-x,1/2-y,-z
1/2+x,1/2+y,1/2-z
1/2-x,1/2+y,z
1/2+x,1/2-y,1/2+z
loop_
_atom_site_type_symbol
_atom_site_label
_atom_site_fract_x
_atom_site_fract_y
_atom_site_fract_z
Si Si1 0.830009 0.592032 0.537923
Si Si2 0.000000 0.000000 0.000000
Si Si3 0.582404 0.637271 0.455121
Si Si4 0.706167 0.592372 0.960435
Si Si5 0.438366 0.186746 0.966086
O O1 0.835570 0.500000 0.500000
O O2 0.828882 0.600956 0.750000
O O3 0.767981 0.619056 0.472981
O O4 0.884216 0.638698 0.470211
O O5 0.049531 0.065797 0.957498
O O6 0.564377 0.630150 0.250000
O O7 0.649945 0.630206 0.463236
O O8 0.566109 0.722896 0.520491
O O9 0.703994 0.603303 0.750000
O O10 0.703216 0.500000 0.000000
O O11 0.436647 0.186531 0.750000
O O12 0.500000 0.155222 0.018730
#
# Coordination Sequence:
#
# PCOD9472310 Si02
#       5
#    16   4  16  16  16
#     4   9  19  36  58  82 109 142 182 225 271 323
#     4  12  22  32  56  86 112 140 186 224 256 320
#     4  11  22  36  57  83 111 146 185 222 268 323
#     4  10  20  34  53  79 110 144 182 225 270 319
#     4   9  18  35  57  81 109 144 183 222 268 329
#
# _framework density 22.216206
#
# number of rings (size 3 to 8) (size 9 to 14) (size 15 to 20)
#    0.000    2.118    2.353    1.059    0.000    3.294 
#    0.000    1.176    0.000    1.412    0.000    0.000 
#    0.000    0.000    0.000    0.000    0.000    0.000 
#
# Total GULP energy -189384.972027 kJ/mol
# GULP energy per Si atom -5570.146236 kJ/mol
# Density = 2.216564 g / cm^3
# Si number density = 22.216206 Si / 1000 Ang^3
#
#
#
# Elastic Constant Matrix: (Units=GPa)
#
#
# Indices 1 2 3 4 5 6 
#
# 1 258.6257 74.7814 10.0402 0.0000 0.0000 0.0000
# 2 74.7814 62.4923 -1.8426 0.0000 0.0000 0.0000
# 3 10.0402 -1.8426 60.9926 0.0000 0.0000 0.0000
# 4 0.0000 0.0000 0.0000 6.3980 0.0000 0.0000
# 5 0.0000 0.0000 0.0000 0.0000 -10.4025 0.0000
# 6 0.0000 0.0000 0.0000 0.0000 0.0000 44.8293
#
#
#
# Elastic Compliance Matrix: (Units=1/GPa)
#
#
# Indices 1 2 3 4 5 6 
#
# 1 0.006000 -0.007215 -0.001206 0.000000 0.000000 0.000000
# 2 -0.007215 0.024693 0.001934 0.000000 0.000000 0.000000
# 3 -0.001206 0.001934 0.016652 0.000000 0.000000 0.000000
# 4 0.000000 0.000000 0.000000 0.156299 0.000000 0.000000
# 5 0.000000 0.000000 0.000000 0.000000 -0.096131 0.000000
# 6 0.000000 0.000000 0.000000 0.000000 0.000000 0.022307
#
#
# Mechanical properties :
#
#
# Convention : Reuss Voigt Hill
#
# Bulk Modulus (GPa) = 29.09438 60.89649 44.99544
# Shear Modulus (GPa) = 32.41493 28.10708 30.26100
#
# Velocity S-wave (km/s) = 3.82392 3.56077 3.69469
# Velocity P-wave (km/s) = 5.71147 6.66152 6.20470
#
# Compressibility (1/GPa) = 0.03437090
#
# Stress axis : x y z
#
# Youngs Moduli (GPa) = 166.67800 40.49767 60.05177
#
# Poissons Ratio (x) = 0.29219 0.07240
# Poissons Ratio (y) = 1.20258 -0.11612
# Poissons Ratio (z) = 0.20094 -0.07831
#
# Static dielectric constant tensor:
#      x y z
#    x 1.836740 0.000000 0.000000 
#    y 0.000000 1.756690 0.000000 
#    z 0.000000 0.000000 1.869840 
# 
# From -- ./inp_files/7602.got.cif
#   From: 2010.05.17/outbox.cif.g08.bks.cpg/sg63_4_cif.got.tgz:7602.got - 2010.06.03 15:47:04.
