data_PCOD9472203
_publ_section_title
;
Structure prediction by ZEFSAII (Michael W. Deem and Ramdas Pophale) SiO2 
 PCOD9472203
Probable space group: C M C M
;
_chemical_formula_sum "Si O2"
_cell_formula_units_Z 96
_cell_length_a 18.685999
_cell_length_b 28.791055
_cell_length_c 9.359662
_cell_angle_alpha 90.000000
_cell_angle_beta 90.000000
_cell_angle_gamma 90.000000
_cell_volume 5035.401049
_symmetry_space_group_name_H-M "C M C M"
_symmetry_group_IT_number 63
_symmetry_cell_setting 'orthorhombic'
loop_
_space_group_symop_operation_xyz
x,y,z
-x,-y,1/2+z
x,-y,-z
-x,y,1/2-z
-x,-y,-z
x,y,1/2-z
-x,y,z
x,-y,1/2+z
1/2+x,1/2+y,z
1/2-x,1/2-y,1/2+z
1/2+x,1/2-y,-z
1/2-x,1/2+y,1/2-z
1/2-x,1/2-y,-z
1/2+x,1/2+y,1/2-z
1/2-x,1/2+y,z
1/2+x,1/2-y,1/2+z
loop_
_atom_site_type_symbol
_atom_site_label
_atom_site_fract_x
_atom_site_fract_y
_atom_site_fract_z
Si Si1 0.783278 0.048864 0.419031
Si Si2 0.186528 0.377462 0.414196
Si Si3 0.586516 0.699471 0.587856
Si Si4 0.916908 0.891246 0.582977
Si Si5 0.920265 0.460164 0.410583
Si Si6 0.415774 0.205721 0.577401
O O1 0.766067 0.044193 0.250000
O O2 0.740293 0.092667 0.487763
O O3 0.865846 0.064755 0.434163
O O4 0.772711 0.000000 0.500000
O O5 0.213939 0.371853 0.250000
O O6 0.119570 0.412358 0.407388
O O7 0.147453 0.330277 0.464256
O O8 0.613562 0.703276 0.750000
O O9 0.500000 0.696887 0.593518
O O10 0.609599 0.651989 0.511838
O O11 0.601582 0.745036 0.494832
O O12 0.913634 0.877128 0.750000
O O13 0.000000 0.900938 0.548748
O O14 0.882999 0.500000 0.500000
O O15 0.924468 0.477860 0.250000
O O16 0.000000 0.452956 0.468438
O O17 0.414537 0.208633 0.750000
O O18 0.500000 0.193491 0.539786
#
# Coordination Sequence:
#
# PCOD9472203 Si02
#       6
#    16  16  16  16  16  16
#     4  11  24  40  58  80 107 139 175 218 270 326
#     4  10  20  34  52  74 104 143 183 221 262 309
#     4   9  17  30  52  84 116 142 172 216 268 317
#     4   9  19  38  62  84 106 135 172 214 264 325
#     4   9  17  29  45  66  92 125 170 220 263 303
#     4   9  17  31  53  80 111 149 189 225 262 307
#
# _framework density 19.065016
#
# number of rings (size 3 to 8) (size 9 to 14) (size 15 to 20)
#    0.000    2.500    0.000    2.000    0.000    8.333 
#    0.000    0.833    0.000    5.000    0.000    0.000 
#    0.000    0.000    0.000    0.000    0.000    0.000 
#
# Total GULP energy -267276.708990 kJ/mol
# GULP energy per Si atom -5568.264771 kJ/mol
# Density = 1.902162 g / cm^3
# Si number density = 19.065016 Si / 1000 Ang^3
#
#
#
# Elastic Constant Matrix: (Units=GPa)
#
#
# Indices 1 2 3 4 5 6 
#
# 1 67.6158 43.1657 39.2028 0.0000 0.0000 0.0000
# 2 43.1657 91.0213 49.7953 0.0000 0.0000 0.0000
# 3 39.2028 49.7953 65.6540 0.0000 0.0000 0.0000
# 4 0.0000 0.0000 0.0000 20.6799 0.0000 0.0000
# 5 0.0000 0.0000 0.0000 0.0000 29.5651 0.0000
# 6 0.0000 0.0000 0.0000 0.0000 0.0000 38.2386
#
#
#
# Elastic Compliance Matrix: (Units=1/GPa)
#
#
# Indices 1 2 3 4 5 6 
#
# 1 0.024498 -0.006179 -0.009942 0.000000 0.000000 0.000000
# 2 -0.006179 0.020336 -0.011735 0.000000 0.000000 0.000000
# 3 -0.009942 -0.011735 0.030068 0.000000 0.000000 0.000000
# 4 0.000000 0.000000 0.000000 0.048356 0.000000 0.000000
# 5 0.000000 0.000000 0.000000 0.000000 0.033824 0.000000
# 6 0.000000 0.000000 0.000000 0.000000 0.000000 0.026152
#
#
# Mechanical properties :
#
#
# Convention : Reuss Voigt Hill
#
# Bulk Modulus (GPa) = 52.10570 54.29094 53.19832
# Shear Modulus (GPa) = 20.37975 23.83853 22.10914
#
# Velocity S-wave (km/s) = 3.27304 3.53991 3.40909
# Velocity P-wave (km/s) = 6.45551 6.72655 6.59242
#
# Compressibility (1/GPa) = 0.01919176
#
# Stress axis : x y z
#
# Youngs Moduli (GPa) = 40.81933 49.17270 33.25834
#
# Poissons Ratio (x) = 0.30385 0.33064
# Poissons Ratio (y) = 0.25223 0.39027
# Poissons Ratio (z) = 0.40581 0.57702
#
# Static dielectric constant tensor:
#      x y z
#    x 1.712980 0.000000 0.000000 
#    y 0.000000 1.655270 0.000000 
#    z 0.000000 0.000000 1.673960 
# 
# From -- ./inp_files/8640.got.cif
#   From: 2010.05.17/outbox.cif.g08.bks.cpg/sg63_5_cif.got.tgz:8640.got - 2010.06.03 15:47:04.
