data_PCOD9472946
_publ_section_title
;
Structure prediction by ZEFSAII (Michael W. Deem and Ramdas Pophale) SiO2 
 PCOD9472946
Probable space group: C M C M
;
_chemical_formula_sum "Si O2"
_cell_formula_units_Z 112
_cell_length_a 30.490084
_cell_length_b 12.071226
_cell_length_c 13.756324
_cell_angle_alpha 90.000000
_cell_angle_beta 90.000000
_cell_angle_gamma 90.000000
_cell_volume 5063.052118
_symmetry_space_group_name_H-M "C M C M"
_symmetry_group_IT_number 63
_symmetry_cell_setting 'orthorhombic'
loop_
_space_group_symop_operation_xyz
x,y,z
-x,-y,1/2+z
x,-y,-z
-x,y,1/2-z
-x,-y,-z
x,y,1/2-z
-x,y,z
x,-y,1/2+z
1/2+x,1/2+y,z
1/2-x,1/2-y,1/2+z
1/2+x,1/2-y,-z
1/2-x,1/2+y,1/2-z
1/2-x,1/2-y,-z
1/2+x,1/2+y,1/2-z
1/2-x,1/2+y,z
1/2+x,1/2-y,1/2+z
loop_
_atom_site_type_symbol
_atom_site_label
_atom_site_fract_x
_atom_site_fract_y
_atom_site_fract_z
Si Si1 0.372119 0.080863 0.860399
Si Si2 0.135638 0.664720 0.432038
Si Si3 0.417534 0.526805 0.134463
Si Si4 0.683914 0.470976 0.863301
Si Si5 0.709139 0.320474 0.463980
Si Si6 0.449968 0.292958 0.133106
Si Si7 0.451082 0.765775 0.133864
O O1 0.359294 0.114240 0.750000
O O2 0.421789 0.124797 0.876732
O O3 0.366531 0.950139 0.873964
O O4 0.351248 0.135985 0.955937
O O5 0.174380 0.747424 0.403741
O O6 0.088337 0.722335 0.417747
O O7 0.423949 0.532156 0.250000
O O8 0.366801 0.495352 0.119245
O O9 0.445850 0.422033 0.102046
O O10 0.428746 0.650694 0.099645
O O11 0.689435 0.445018 0.750000
O O12 0.689846 0.369303 0.935718
O O13 0.715785 0.569644 0.898337
O O14 0.750000 0.250000 0.500000
O O15 0.441434 0.287933 0.250000
O O16 0.500000 0.255094 0.118635
O O17 0.454437 0.753457 0.250000
O O18 0.500000 0.775457 0.094335
#
# Coordination Sequence:
#
# PCOD9472946 Si02
#       7
#    16  16  16  16  16  16  16
#     4  10  23  40  61  87 120 172 227 276 335 400
#     4  11  23  42  65  90 129 173 221 283 344 405
#     4   9  16  32  60  91 126 169 216 268 334 400
#     4  10  22  42  69  99 134 175 219 277 350 423
#     4  11  25  44  67  98 135 173 222 283 352 417
#     4  10  20  35  61  99 137 175 224 280 339 407
#     4   9  17  31  53  84 124 169 217 268 323 389
#
# _framework density 22.121044000000001
#
# number of rings (size 3 to 8) (size 9 to 14) (size 15 to 20)
#    0.000    2.000    1.429    1.714    0.000    8.000 
#    0.000    4.286    0.000    2.571    0.000    0.000 
#    0.000    0.000    0.000    0.000    0.000    0.000 
#
# Total GULP energy -312410.868142 kJ/mol
# GULP energy per Si atom -5578.765503 kJ/mol
# Density = 2.207070 g / cm^3
# Si number density = 22.121044 Si / 1000 Ang^3
#
#
#
# Elastic Constant Matrix: (Units=GPa)
#
#
# Indices 1 2 3 4 5 6 
#
# 1 45.1317 25.0277 -11.6156 0.0000 0.0000 0.0000
# 2 25.0277 101.6412 12.7480 0.0000 0.0000 0.0000
# 3 -11.6156 12.7480 117.2961 0.0000 0.0000 0.0000
# 4 0.0000 0.0000 0.0000 25.9756 0.0000 0.0000
# 5 0.0000 0.0000 0.0000 0.0000 17.4948 0.0000
# 6 0.0000 0.0000 0.0000 0.0000 0.0000 29.7258
#
#
#
# Elastic Compliance Matrix: (Units=1/GPa)
#
#
# Indices 1 2 3 4 5 6 
#
# 1 0.026963 -0.007071 0.003439 0.000000 0.000000 0.000000
# 2 -0.007071 0.011829 -0.001986 0.000000 0.000000 0.000000
# 3 0.003439 -0.001986 0.009082 0.000000 0.000000 0.000000
# 4 0.000000 0.000000 0.000000 0.038498 0.000000 0.000000
# 5 0.000000 0.000000 0.000000 0.000000 0.057160 0.000000
# 6 0.000000 0.000000 0.000000 0.000000 0.000000 0.033641
#
#
# Mechanical properties :
#
#
# Convention : Reuss Voigt Hill
#
# Bulk Modulus (GPa) = 27.29394 35.15435 31.22414
# Shear Modulus (GPa) = 24.92269 30.49984 27.71126
#
# Velocity S-wave (km/s) = 3.36020 3.71721 3.54320
# Velocity P-wave (km/s) = 5.23640 5.86087 5.55741
#
# Compressibility (1/GPa) = 0.03663817
#
# Stress axis : x y z
#
# Youngs Moduli (GPa) = 37.08734 84.54063 110.11081
#
# Poissons Ratio (x) = 0.59776 -0.37862
# Poissons Ratio (y) = 0.26223 0.21865
# Poissons Ratio (z) = -0.12753 0.16788
#
# Static dielectric constant tensor:
#      x y z
#    x 1.831460 0.000000 0.000000 
#    y 0.000000 1.798650 0.000000 
#    z 0.000000 0.000000 1.871400 
# 
# From -- ./inp_files/38582.got.cif
#   From: 2010.05.17/outbox.cif.g08.bks.cpg/sg63_20_cif.got.tgz:38582.got - 2010.06.03 15:47:04.
