data_PCOD9472648
_publ_section_title
;
Structure prediction by ZEFSAII (Michael W. Deem and Ramdas Pophale) SiO2 
 PCOD9472648
Probable space group: C M C M
;
_chemical_formula_sum "Si O2"
_cell_formula_units_Z 112
_cell_length_a 19.813066
_cell_length_b 13.603507
_cell_length_c 23.031054
_cell_angle_alpha 90.000000
_cell_angle_beta 90.000000
_cell_angle_gamma 90.000000
_cell_volume 6207.495084
_symmetry_space_group_name_H-M "C M C M"
_symmetry_group_IT_number 63
_symmetry_cell_setting 'orthorhombic'
loop_
_space_group_symop_operation_xyz
x,y,z
-x,-y,1/2+z
x,-y,-z
-x,y,1/2-z
-x,-y,-z
x,y,1/2-z
-x,y,z
x,-y,1/2+z
1/2+x,1/2+y,z
1/2-x,1/2-y,1/2+z
1/2+x,1/2-y,-z
1/2-x,1/2+y,1/2-z
1/2-x,1/2-y,-z
1/2+x,1/2+y,1/2-z
1/2-x,1/2+y,z
1/2+x,1/2-y,1/2+z
loop_
_atom_site_type_symbol
_atom_site_label
_atom_site_fract_x
_atom_site_fract_y
_atom_site_fract_z
Si Si1 0.280851 0.811750 0.113972
Si Si2 0.848414 0.718206 0.317826
Si Si3 0.574332 0.539995 0.935589
Si Si4 0.578380 0.763559 0.571555
Si Si5 0.816513 0.104511 0.113211
Si Si6 0.300242 0.887158 0.985755
Si Si7 0.710225 0.004191 0.184829
O O1 0.213085 0.774389 0.148034
O O2 0.331124 0.719455 0.122411
O O3 0.303687 0.913901 0.142403
O O4 0.275006 0.834776 0.045190
O O5 0.851321 0.747650 0.250000
O O6 0.912555 0.732821 0.358800
O O7 0.836188 0.600559 0.319563
O O8 0.500000 0.542879 0.908159
O O9 0.598047 0.651493 0.942474
O O10 0.623443 0.466038 0.903799
O O11 0.569051 0.500000 0.000000
O O12 0.500000 0.781684 0.555022
O O13 0.634089 0.832926 0.540998
O O14 0.759573 0.107537 0.062017
O O15 0.781624 0.052313 0.167765
O O16 0.317453 0.000000 0.000000
O O17 0.709499 0.966388 0.250000
#
# Coordination Sequence:
#
# PCOD9472648 Si02
#       7
#    16  16  16  16  16  16  16
#     4  11  20  33  55  84 115 149 185 244 296 351
#     4  10  21  37  56  83 115 151 198 244 291 350
#     4  10  22  37  54  80 116 154 189 227 282 352
#     4  11  23  39  58  84 121 160 198 241 293 357
#     4  11  21  33  58  84 112 149 191 241 290 344
#     4  12  22  35  56  88 119 152 195 242 303 352
#     4  10  20  35  54  83 115 143 187 243 295 345
#
# _framework density 18.042705000000002
#
# number of rings (size 3 to 8) (size 9 to 14) (size 15 to 20)
#    0.000    1.286    4.286    3.000    2.000    1.143 
#    0.000    0.000    0.000    2.143    0.000    0.000 
#    0.000    5.143    0.000    0.000    0.000    0.000 
#
# Total GULP energy -312176.141310 kJ/mol
# GULP energy per Si atom -5574.573952 kJ/mol
# Density = 1.800164 g / cm^3
# Si number density = 18.042705 Si / 1000 Ang^3
#
#
#
# Elastic Constant Matrix: (Units=GPa)
#
#
# Indices 1 2 3 4 5 6 
#
# 1 53.3874 33.0919 14.0604 0.0000 0.0000 0.0000
# 2 33.0919 117.1446 24.2686 0.0000 0.0000 0.0000
# 3 14.0604 24.2686 96.8484 0.0000 0.0000 0.0000
# 4 0.0000 0.0000 0.0000 28.6695 0.0000 0.0000
# 5 0.0000 0.0000 0.0000 0.0000 33.2776 0.0000
# 6 0.0000 0.0000 0.0000 0.0000 0.0000 6.1715
#
#
#
# Elastic Compliance Matrix: (Units=1/GPa)
#
#
# Indices 1 2 3 4 5 6 
#
# 1 0.023002 -0.006124 -0.001805 0.000000 0.000000 0.000000
# 2 -0.006124 0.010634 -0.001776 0.000000 0.000000 0.000000
# 3 -0.001805 -0.001776 0.011032 0.000000 0.000000 0.000000
# 4 0.000000 0.000000 0.000000 0.034880 0.000000 0.000000
# 5 0.000000 0.000000 0.000000 0.000000 0.030050 0.000000
# 6 0.000000 0.000000 0.000000 0.000000 0.000000 0.162036
#
#
# Mechanical properties :
#
#
# Convention : Reuss Voigt Hill
#
# Bulk Modulus (GPa) = 39.58850 45.58026 42.58438
# Shear Modulus (GPa) = 16.69644 26.68766 21.69205
#
# Velocity S-wave (km/s) = 3.04531 3.85013 3.47113
# Velocity P-wave (km/s) = 5.86127 6.71431 6.30224
#
# Compressibility (1/GPa) = 0.02525986
#
# Stress axis : x y z
#
# Youngs Moduli (GPa) = 43.47396 94.03564 90.64197
#
# Poissons Ratio (x) = 0.57587 0.16360
# Poissons Ratio (y) = 0.26623 0.16095
# Poissons Ratio (z) = 0.07847 0.16698
#
# Static dielectric constant tensor:
#      x y z
#    x 1.690010 0.000000 0.000000 
#    y 0.000000 1.630540 0.000000 
#    z 0.000000 0.000000 1.650780 
# 
# From -- ./inp_files/64655.got.cif
#   From: 2010.05.17/outbox.cif.g08.bks.cpg/sg63_33_cif.got.tgz:64655.got - 2010.06.03 15:47:04.
