data_PCOD9472467
_publ_section_title
;
Structure prediction by ZEFSAII (Michael W. Deem and Ramdas Pophale) SiO2 
 PCOD9472467
Probable space group: C M C M
;
_chemical_formula_sum "Si O2"
_cell_formula_units_Z 88
_cell_length_a 18.852710
_cell_length_b 28.990394
_cell_length_c 8.454232
_cell_angle_alpha 90.000000
_cell_angle_beta 90.000000
_cell_angle_gamma 90.000000
_cell_volume 4620.639287
_symmetry_space_group_name_H-M "C M C M"
_symmetry_group_IT_number 63
_symmetry_cell_setting 'orthorhombic'
loop_
_space_group_symop_operation_xyz
x,y,z
-x,-y,1/2+z
x,-y,-z
-x,y,1/2-z
-x,-y,-z
x,y,1/2-z
-x,y,z
x,-y,1/2+z
1/2+x,1/2+y,z
1/2-x,1/2-y,1/2+z
1/2+x,1/2-y,-z
1/2-x,1/2+y,1/2-z
1/2-x,1/2-y,-z
1/2+x,1/2+y,1/2-z
1/2-x,1/2+y,z
1/2+x,1/2-y,1/2+z
loop_
_atom_site_type_symbol
_atom_site_label
_atom_site_fract_x
_atom_site_fract_y
_atom_site_fract_z
Si Si1 0.079416 0.052305 0.060326
Si Si2 0.000000 0.552415 0.561296
Si Si3 0.187560 0.217200 0.941012
Si Si4 0.209881 0.887523 0.439498
Si Si5 0.136161 0.609122 0.060221
Si Si6 0.919531 0.707994 0.057297
O O1 0.082909 0.052573 0.250000
O O2 0.000000 0.068737 0.012868
O O3 0.143388 0.082256 0.993081
O O4 0.086265 0.000000 0.000000
O O5 0.000000 0.500000 0.500000
O O6 0.070685 0.578697 0.501585
O O7 0.000000 0.552517 0.750000
O O8 0.188555 0.216079 0.750000
O O9 0.197317 0.165064 0.997709
O O10 0.116857 0.244363 0.991987
O O11 0.250000 0.250000 0.000000
O O12 0.213149 0.887210 0.250000
O O13 0.285796 0.904930 0.502694
O O14 0.134383 0.607821 0.250000
O O15 0.122842 0.662242 0.007145
O O16 0.919894 0.707393 0.250000
O O17 0.000000 0.704112 0.002313
#
# Coordination Sequence:
#
# PCOD9472467 Si02
#       6
#    16   8  16  16  16  16
#     4  10  22  42  67  92 120 156 199 248 308 371
#     4  12  26  44  64  90 124 156 202 260 315 370
#     4  10  20  34  55  84 118 158 200 245 293 347
#     4  11  23  37  59  94 130 163 204 253 305 362
#     4  11  21  38  63  88 117 161 208 250 305 364
#     4   9  17  32  56  83 111 152 203 244 288 350
#
# _framework density 19.044983999999999
#
# number of rings (size 3 to 8) (size 9 to 14) (size 15 to 20)
#    0.000    1.636    2.727    2.455    0.000    3.273 
#    0.000    5.455    0.000    0.000    0.000    0.000 
#    0.000    0.000    0.000    0.000    0.000    0.000 
#
# Total GULP energy -245696.505695 kJ/mol
# GULP energy per Si atom -5584.011493 kJ/mol
# Density = 1.900164 g / cm^3
# Si number density = 19.044984 Si / 1000 Ang^3
#
#
#
# Elastic Constant Matrix: (Units=GPa)
#
#
# Indices 1 2 3 4 5 6 
#
# 1 185.1750 81.8628 41.2263 0.0000 0.0000 0.0000
# 2 81.8628 106.3012 30.2535 0.0000 0.0000 0.0000
# 3 41.2263 30.2535 56.5817 0.0000 0.0000 0.0000
# 4 0.0000 0.0000 0.0000 20.9139 0.0000 0.0000
# 5 0.0000 0.0000 0.0000 0.0000 29.1703 0.0000
# 6 0.0000 0.0000 0.0000 0.0000 0.0000 39.9228
#
#
#
# Elastic Compliance Matrix: (Units=1/GPa)
#
#
# Indices 1 2 3 4 5 6 
#
# 1 0.008663 -0.005750 -0.003238 0.000000 0.000000 0.000000
# 2 -0.005750 0.014912 -0.003784 0.000000 0.000000 0.000000
# 3 -0.003238 -0.003784 0.022056 0.000000 0.000000 0.000000
# 4 0.000000 0.000000 0.000000 0.047815 0.000000 0.000000
# 5 0.000000 0.000000 0.000000 0.000000 0.034281 0.000000
# 6 0.000000 0.000000 0.000000 0.000000 0.000000 0.025048
#
#
# Mechanical properties :
#
#
# Convention : Reuss Voigt Hill
#
# Bulk Modulus (GPa) = 49.78070 72.74924 61.26497
# Shear Modulus (GPa) = 27.02487 30.98241 29.00364
#
# Velocity S-wave (km/s) = 3.77105 4.03774 3.90667
# Velocity P-wave (km/s) = 6.71985 7.74721 7.25175
#
# Compressibility (1/GPa) = 0.02008811
#
# Stress axis : x y z
#
# Youngs Moduli (GPa) = 115.43212 67.05901 45.33982
#
# Poissons Ratio (x) = 0.38559 0.14679
# Poissons Ratio (y) = 0.66374 0.17156
# Poissons Ratio (z) = 0.37372 0.25374
#
# Static dielectric constant tensor:
#      x y z
#    x 1.660630 0.000000 0.000000 
#    y 0.000000 1.653560 0.000000 
#    z 0.000000 0.000000 1.644890 
# 
# From -- ./inp_files/6859.got.cif
#   From: 2010.05.17/outbox.cif.g08.bks.cpg/sg63_4_cif.got.tgz:6859.got - 2010.06.03 15:47:04.
