data_PCOD9472560
_publ_section_title
;
Structure prediction by ZEFSAII (Michael W. Deem and Ramdas Pophale) SiO2 
 PCOD9472560
Probable space group: C M C M
;
_chemical_formula_sum "Si O2"
_cell_formula_units_Z 56
_cell_length_a 13.984679
_cell_length_b 5.959481
_cell_length_c 26.547161
_cell_angle_alpha 90.000000
_cell_angle_beta 90.000000
_cell_angle_gamma 90.000000
_cell_volume 2212.478328
_symmetry_space_group_name_H-M "C M C M"
_symmetry_group_IT_number 63
_symmetry_cell_setting 'orthorhombic'
loop_
_space_group_symop_operation_xyz
x,y,z
-x,-y,1/2+z
x,-y,-z
-x,y,1/2-z
-x,-y,-z
x,y,1/2-z
-x,y,z
x,-y,1/2+z
1/2+x,1/2+y,z
1/2-x,1/2-y,1/2+z
1/2+x,1/2-y,-z
1/2-x,1/2+y,1/2-z
1/2-x,1/2-y,-z
1/2+x,1/2+y,1/2-z
1/2-x,1/2+y,z
1/2+x,1/2-y,1/2+z
loop_
_atom_site_type_symbol
_atom_site_label
_atom_site_fract_x
_atom_site_fract_y
_atom_site_fract_z
Si Si1 0.328523 0.496388 0.446755
Si Si2 0.000000 0.323432 0.043429
Si Si3 0.288332 0.374956 0.837179
Si Si4 0.500000 0.785713 0.600630
Si Si5 0.500000 0.475924 0.808846
O O1 0.270955 0.500000 0.500000
O O2 0.406759 0.680843 0.460987
O O3 0.275541 0.596724 0.397925
O O4 0.403259 0.307311 0.426097
O O5 0.000000 0.450884 0.095950
O O6 0.000000 0.500000 0.000000
O O7 0.255887 0.631711 0.819968
O O8 0.400333 0.359284 0.823662
O O9 0.500000 0.698239 0.656912
O O10 0.500000 0.520957 0.750000
#
# Coordination Sequence:
#
# PCOD9472560 Si02
#       5
#    16   8  16   8   8
#     4  10  20  34  58  99 143 200 247 295 361 445
#     4  11  17  29  64  97 145 199 251 307 363 439
#     4  11  28  49  75 112 155 193 247 317 376 447
#     4   9  18  35  59  99 141 182 244 306 366 431
#     4  10  25  51  82 109 142 197 252 313 393 460
#
# _framework density 25.310981000000002
#
# number of rings (size 3 to 8) (size 9 to 14) (size 15 to 20)
#    0.000    1.714    2.857    1.714    8.000    3.429 
#    0.000    1.429    0.000    0.000    0.000    0.000 
#    0.000    0.000    0.000    0.000    0.000    0.000 
#
# Total GULP energy -156176.293133 kJ/mol
# GULP energy per Si atom -5577.724755 kJ/mol
# Density = 2.525337 g / cm^3
# Si number density = 25.310981 Si / 1000 Ang^3
#
#
#
# Elastic Constant Matrix: (Units=GPa)
#
#
# Indices 1 2 3 4 5 6 
#
# 1 140.0343 70.6551 20.8032 0.0000 0.0000 0.0000
# 2 70.6551 125.5759 19.1168 0.0000 0.0000 0.0000
# 3 20.8032 19.1168 146.8232 0.0000 0.0000 0.0000
# 4 0.0000 0.0000 0.0000 7.0620 0.0000 0.0000
# 5 0.0000 0.0000 0.0000 0.0000 9.7694 0.0000
# 6 0.0000 0.0000 0.0000 0.0000 0.0000 36.2816
#
#
#
# Elastic Compliance Matrix: (Units=1/GPa)
#
#
# Indices 1 2 3 4 5 6 
#
# 1 0.010042 -0.005544 -0.000701 0.000000 0.000000 0.000000
# 2 -0.005544 0.011185 -0.000671 0.000000 0.000000 0.000000
# 3 -0.000701 -0.000671 0.006998 0.000000 0.000000 0.000000
# 4 0.000000 0.000000 0.000000 0.141603 0.000000 0.000000
# 5 0.000000 0.000000 0.000000 0.000000 0.102361 0.000000
# 6 0.000000 0.000000 0.000000 0.000000 0.000000 0.027562
#
#
# Mechanical properties :
#
#
# Convention : Reuss Voigt Hill
#
# Bulk Modulus (GPa) = 69.47579 70.39817 69.93698
# Shear Modulus (GPa) = 15.70457 30.74649 23.22553
#
# Velocity S-wave (km/s) = 2.49361 3.48911 3.03249
# Velocity P-wave (km/s) = 5.98325 6.64120 6.32079
#
# Compressibility (1/GPa) = 0.01439350
#
# Stress axis : x y z
#
# Youngs Moduli (GPa) = 99.57890 89.40945 142.90635
#
# Poissons Ratio (x) = 0.49565 0.10019
# Poissons Ratio (y) = 0.55202 0.09586
# Poissons Ratio (z) = 0.06981 0.05997
#
# Static dielectric constant tensor:
#      x y z
#    x 2.022970 0.000000 0.000000 
#    y 0.000000 2.103800 0.000000 
#    z 0.000000 0.000000 2.156450 
# 
# From -- ./inp_files/73174.got.cif
#   From: 2010.05.17/outbox.cif.g08.bks.cpg/sg63_37_cif.got.tgz:73174.got - 2010.06.03 15:47:04.
