data_PCOD9472331
_publ_section_title
;
Structure prediction by ZEFSAII (Michael W. Deem and Ramdas Pophale) SiO2 
 PCOD9472331
Probable space group: C M C M
;
_chemical_formula_sum "Si O2"
_cell_formula_units_Z 104
_cell_length_a 9.429084
_cell_length_b 22.285675
_cell_length_c 25.826058
_cell_angle_alpha 90.000000
_cell_angle_beta 90.000000
_cell_angle_gamma 90.000000
_cell_volume 5426.919999
_symmetry_space_group_name_H-M "C M C M"
_symmetry_group_IT_number 63
_symmetry_cell_setting 'orthorhombic'
loop_
_space_group_symop_operation_xyz
x,y,z
-x,-y,1/2+z
x,-y,-z
-x,y,1/2-z
-x,-y,-z
x,y,1/2-z
-x,y,z
x,-y,1/2+z
1/2+x,1/2+y,z
1/2-x,1/2-y,1/2+z
1/2+x,1/2-y,-z
1/2-x,1/2+y,1/2-z
1/2-x,1/2-y,-z
1/2+x,1/2+y,1/2-z
1/2-x,1/2+y,z
1/2+x,1/2-y,1/2+z
loop_
_atom_site_type_symbol
_atom_site_label
_atom_site_fract_x
_atom_site_fract_y
_atom_site_fract_z
Si Si1 0.344936 0.914350 0.915000
Si Si2 0.328429 0.658113 0.250000
Si Si3 0.342010 0.969553 0.341784
Si Si4 0.331902 0.519087 0.250000
Si Si5 0.238714 0.000000 0.500000
Si Si6 0.154758 0.093630 0.582216
Si Si7 0.167473 0.771750 0.449035
Si Si8 0.828609 0.192249 0.132625
O O1 0.500000 0.884414 0.914029
O O2 0.347488 0.969496 0.875148
O O3 0.323054 0.947989 0.969552
O O4 0.224710 0.868212 0.896866
O O5 0.500000 0.657762 0.250000
O O6 0.279885 0.588468 0.250000
O O7 0.288729 0.686761 0.194032
O O8 0.500000 0.956860 0.322260
O O9 0.229399 0.984033 0.298380
O O10 0.282078 0.917885 0.378457
O O11 0.500000 0.520932 0.250000
O O12 0.155757 0.962582 0.456902
O O13 0.173933 0.156226 0.553326
O O14 0.000000 0.095274 0.608378
O O15 0.250000 0.750000 0.500000
O O16 0.246045 0.744054 0.398713
O O17 0.000000 0.755486 0.450581
O O18 0.000000 0.197884 0.128833
#
# Coordination Sequence:
#
# PCOD9472331 Si02
#       8
#    16   8  16   8   8  16  16  16
#     4  10  20  34  53  82 118 155 193 243 302 361
#     4   9  20  37  60  91 122 157 204 256 311 365
#     4  10  21  35  55  85 119 152 191 241 299 358
#     4  11  19  35  60  87 120 159 198 246 299 359
#     4  10  20  34  58  86 114 152 198 246 298 358
#     4  10  22  39  58  83 115 152 196 243 295 362
#     4  11  24  42  63  90 123 163 208 257 314 372
#     4  11  22  39  62  89 121 160 208 261 312 372
#
# _framework density 19.163723999999998
#
# number of rings (size 3 to 8) (size 9 to 14) (size 15 to 20)
#    0.000    1.692    1.538    3.000    0.000    6.154 
#    0.000    2.308    0.000    3.692    0.000    0.000 
#    0.000    0.000    0.000    0.000    0.000    0.000 
#
# Total GULP energy -289929.768525 kJ/mol
# GULP energy per Si atom -5575.572472 kJ/mol
# Density = 1.912011 g / cm^3
# Si number density = 19.163724 Si / 1000 Ang^3
#
#
#
# Elastic Constant Matrix: (Units=GPa)
#
#
# Indices 1 2 3 4 5 6 
#
# 1 120.9630 36.0487 42.1913 0.0000 0.0000 0.0000
# 2 36.0487 76.9434 22.8863 0.0000 0.0000 0.0000
# 3 42.1913 22.8863 98.8785 0.0000 0.0000 0.0000
# 4 0.0000 0.0000 0.0000 24.7914 0.0000 0.0000
# 5 0.0000 0.0000 0.0000 0.0000 -35.6509 0.0000
# 6 0.0000 0.0000 0.0000 0.0000 0.0000 24.7404
#
#
#
# Elastic Compliance Matrix: (Units=1/GPa)
#
#
# Indices 1 2 3 4 5 6 
#
# 1 0.010716 -0.003931 -0.003663 0.000000 0.000000 0.000000
# 2 -0.003931 0.015400 -0.001887 0.000000 0.000000 0.000000
# 3 -0.003663 -0.001887 0.012113 0.000000 0.000000 0.000000
# 4 0.000000 0.000000 0.000000 0.040337 0.000000 0.000000
# 5 0.000000 0.000000 0.000000 0.000000 -0.028050 0.000000
# 6 0.000000 0.000000 0.000000 0.000000 0.000000 0.040420
#
#
# Mechanical properties :
#
#
# Convention : Reuss Voigt Hill
#
# Bulk Modulus (GPa) = 51.90168 55.44863 53.67516
# Shear Modulus (GPa) = 42.98520 15.82007 29.40263
#
# Velocity S-wave (km/s) = 4.74122 2.87631 3.92125
# Velocity P-wave (km/s) = 7.55740 6.32675 6.96930
#
# Compressibility (1/GPa) = 0.01926720
#
# Stress axis : x y z
#
# Youngs Moduli (GPa) = 93.31817 64.93671 82.55592
#
# Poissons Ratio (x) = 0.25528 0.30237
# Poissons Ratio (y) = 0.36685 0.15578
# Poissons Ratio (z) = 0.34179 0.12253
#
# Static dielectric constant tensor:
#      x y z
#    x 1.678250 0.000000 0.000000 
#    y 0.000000 1.647670 0.000000 
#    z 0.000000 0.000000 1.735600 
# 
# From -- ./inp_files/67126.got.cif
#   From: 2010.05.17/outbox.cif.g08.bks.cpg/sg63_34_cif.got.tgz:67126.got - 2010.06.03 15:47:04.
