data_PCOD9472702
_publ_section_title
;
Structure prediction by ZEFSAII (Michael W. Deem and Ramdas Pophale) SiO2 
 PCOD9472702
Probable space group: C M C M
;
_chemical_formula_sum "Si O2"
_cell_formula_units_Z 96
_cell_length_a 8.545155
_cell_length_b 30.911841
_cell_length_c 19.813258
_cell_angle_alpha 90.000000
_cell_angle_beta 90.000000
_cell_angle_gamma 90.000000
_cell_volume 5233.602213
_symmetry_space_group_name_H-M "C M C M"
_symmetry_group_IT_number 63
_symmetry_cell_setting 'orthorhombic'
loop_
_space_group_symop_operation_xyz
x,y,z
-x,-y,1/2+z
x,-y,-z
-x,y,1/2-z
-x,-y,-z
x,y,1/2-z
-x,y,z
x,-y,1/2+z
1/2+x,1/2+y,z
1/2-x,1/2-y,1/2+z
1/2+x,1/2-y,-z
1/2-x,1/2+y,1/2-z
1/2-x,1/2-y,-z
1/2+x,1/2+y,1/2-z
1/2-x,1/2+y,z
1/2+x,1/2-y,1/2+z
loop_
_atom_site_type_symbol
_atom_site_label
_atom_site_fract_x
_atom_site_fract_y
_atom_site_fract_z
Si Si1 0.312257 0.269620 0.070037
Si Si2 0.188932 0.933743 0.172164
Si Si3 0.690931 0.195679 0.172719
Si Si4 0.188742 0.032946 0.172714
Si Si5 0.688841 0.888100 0.912570
Si Si6 0.312655 0.134070 0.935795
O O1 0.500000 0.269345 0.068004
O O2 0.261031 0.237839 0.130471
O O3 0.253565 0.318326 0.078313
O O4 0.250000 0.250000 0.000000
O O5 0.232754 0.924416 0.250000
O O6 0.259690 0.900048 0.120156
O O7 0.000000 0.931745 0.168305
O O8 0.235860 0.983459 0.157425
O O9 0.744641 0.195842 0.250000
O O10 0.500000 0.195265 0.173495
O O11 0.741289 0.152699 0.132745
O O12 0.238538 0.042942 0.250000
O O13 0.253249 0.067864 0.121041
O O14 0.000000 0.034222 0.171560
O O15 0.500000 0.888255 0.912303
O O16 0.740950 0.881043 0.989600
O O17 0.500000 0.136776 0.937059
#
# Coordination Sequence:
#
# PCOD9472702 Si02
#       6
#    16  16  16  16  16  16
#     4  11  21  37  59  82 112 151 191 232 282 337
#     4   9  20  40  61  81 110 150 192 232 281 340
#     4   9  18  34  56  81 109 144 186 228 271 329
#     4   9  19  36  57  82 113 147 187 235 282 333
#     4  10  20  35  55  81 114 149 186 228 276 338
#     4  11  23  38  57  85 115 146 190 236 282 337
#
# _framework density 18.343008000000001
#
# number of rings (size 3 to 8) (size 9 to 14) (size 15 to 20)
#    0.000    2.167    1.667    2.500    0.000    4.667 
#    0.000    6.667    0.000    2.500    0.000    0.000 
#    0.000    0.000    0.000    0.000    0.000    0.000 
#
# Total GULP energy -267986.212295 kJ/mol
# GULP energy per Si atom -5583.046089 kJ/mol
# Density = 1.830126 g / cm^3
# Si number density = 18.343008 Si / 1000 Ang^3
#
#
#
# Elastic Constant Matrix: (Units=GPa)
#
#
# Indices 1 2 3 4 5 6 
#
# 1 22.7694 35.1988 34.8146 0.0000 0.0000 0.0000
# 2 35.1988 176.3439 125.5359 0.0000 0.0000 0.0000
# 3 34.8146 125.5359 173.6020 0.0000 0.0000 0.0000
# 4 0.0000 0.0000 0.0000 40.4710 0.0000 0.0000
# 5 0.0000 0.0000 0.0000 0.0000 28.8169 0.0000
# 6 0.0000 0.0000 0.0000 0.0000 0.0000 32.1191
#
#
#
# Elastic Compliance Matrix: (Units=1/GPa)
#
#
# Indices 1 2 3 4 5 6 
#
# 1 0.068430 -0.008016 -0.007926 0.000000 0.000000 0.000000
# 2 -0.008016 0.012626 -0.007523 0.000000 0.000000 0.000000
# 3 -0.007926 -0.007523 0.012790 0.000000 0.000000 0.000000
# 4 0.000000 0.000000 0.000000 0.024709 0.000000 0.000000
# 5 0.000000 0.000000 0.000000 0.000000 0.034702 0.000000
# 6 0.000000 0.000000 0.000000 0.000000 0.000000 0.031134
#
#
# Mechanical properties :
#
#
# Convention : Reuss Voigt Hill
#
# Bulk Modulus (GPa) = 21.31493 84.86822 53.09158
# Shear Modulus (GPa) = 20.24620 32.09246 26.16933
#
# Velocity S-wave (km/s) = 3.32589 4.18733 3.78122
# Velocity P-wave (km/s) = 5.13752 8.35141 6.93326
#
# Compressibility (1/GPa) = 0.04691546
#
# Stress axis : x y z
#
# Youngs Moduli (GPa) = 14.61341 79.20185 78.18822
#
# Poissons Ratio (x) = 0.63490 0.61976
# Poissons Ratio (y) = 0.11714 0.58818
# Poissons Ratio (z) = 0.11583 0.59580
#
# Static dielectric constant tensor:
#      x y z
#    x 1.630240 0.000000 0.000000 
#    y 0.000000 1.602150 0.000000 
#    z 0.000000 0.000000 1.616410 
# 
# From -- ./inp_files/51253.got.cif
#   From: 2010.05.17/outbox.cif.g08.bks.cpg/sg63_26_cif.got.tgz:51253.got - 2010.06.03 15:47:04.
