data_PCOD9472401
_publ_section_title
;
Structure prediction by ZEFSAII (Michael W. Deem and Ramdas Pophale) SiO2 
 PCOD9472401
Probable space group: C M C M
;
_chemical_formula_sum "Si O2"
_cell_formula_units_Z 56
_cell_length_a 10.643162
_cell_length_b 28.284242
_cell_length_c 9.796348
_cell_angle_alpha 90.000000
_cell_angle_beta 90.000000
_cell_angle_gamma 90.000000
_cell_volume 2949.031567
_symmetry_space_group_name_H-M "C M C M"
_symmetry_group_IT_number 63
_symmetry_cell_setting 'orthorhombic'
loop_
_space_group_symop_operation_xyz
x,y,z
-x,-y,1/2+z
x,-y,-z
-x,y,1/2-z
-x,-y,-z
x,y,1/2-z
-x,y,z
x,-y,1/2+z
1/2+x,1/2+y,z
1/2-x,1/2-y,1/2+z
1/2+x,1/2-y,-z
1/2-x,1/2+y,1/2-z
1/2-x,1/2-y,-z
1/2+x,1/2+y,1/2-z
1/2-x,1/2+y,z
1/2+x,1/2-y,1/2+z
loop_
_atom_site_type_symbol
_atom_site_label
_atom_site_fract_x
_atom_site_fract_y
_atom_site_fract_z
Si Si1 0.649250 0.543004 0.596063
Si Si2 0.647884 0.221317 0.411904
Si Si3 0.000000 0.456706 0.599884
Si Si4 0.264813 0.113338 0.404856
O O1 0.695646 0.500000 0.500000
O O2 0.702267 0.541183 0.750000
O O3 0.500000 0.536778 0.606918
O O4 0.674313 0.592429 0.519908
O O5 0.658592 0.232886 0.250000
O O6 0.500000 0.228329 0.450174
O O7 0.750000 0.250000 0.500000
O O8 0.684878 0.166104 0.426513
O O9 0.000000 0.500000 0.500000
O O10 0.118142 0.422171 0.587309
O O11 0.000000 0.477726 0.750000
O O12 0.211604 0.110418 0.250000
#
# Coordination Sequence:
#
# PCOD9472401 Si02
#       4
#    16  16   8  16
#     4  10  21  36  54  80 116 155 195 239 288 347
#     4  10  22  42  65  89 121 160 203 257 316 374
#     4  10  20  34  54  82 114 148 184 226 281 342
#     4  10  20  37  59  81 112 151 191 237 294 354
#
# _framework density 18.989284999999999
#
# number of rings (size 3 to 8) (size 9 to 14) (size 15 to 20)
#    0.000    2.000    1.429    1.714    0.000    8.000 
#    0.000    5.714    0.000    0.000    0.000    0.000 
#    0.000    0.000    0.000    0.000    0.000    0.000 
#
# Total GULP energy -156179.354485 kJ/mol
# GULP energy per Si atom -5577.834089 kJ/mol
# Density = 1.894606 g / cm^3
# Si number density = 18.989285 Si / 1000 Ang^3
#
#
#
# Elastic Constant Matrix: (Units=GPa)
#
#
# Indices 1 2 3 4 5 6 
#
# 1 71.4648 47.0561 59.9649 0.0000 0.0000 0.0000
# 2 47.0561 114.6477 87.7911 0.0000 0.0000 0.0000
# 3 59.9649 87.7911 142.8813 0.0000 0.0000 0.0000
# 4 0.0000 0.0000 0.0000 31.7238 0.0000 0.0000
# 5 0.0000 0.0000 0.0000 0.0000 28.5960 0.0000
# 6 0.0000 0.0000 0.0000 0.0000 0.0000 22.9771
#
#
#
# Elastic Compliance Matrix: (Units=1/GPa)
#
#
# Indices 1 2 3 4 5 6 
#
# 1 0.022431 -0.003773 -0.007096 0.000000 0.000000 0.000000
# 2 -0.003773 0.017108 -0.008928 0.000000 0.000000 0.000000
# 3 -0.007096 -0.008928 0.015462 0.000000 0.000000 0.000000
# 4 0.000000 0.000000 0.000000 0.031522 0.000000 0.000000
# 5 0.000000 0.000000 0.000000 0.000000 0.034970 0.000000
# 6 0.000000 0.000000 0.000000 0.000000 0.000000 0.043522
#
#
# Mechanical properties :
#
#
# Convention : Reuss Voigt Hill
#
# Bulk Modulus (GPa) = 64.90302 79.84645 72.37474
# Shear Modulus (GPa) = 23.83859 25.60484 24.72171
#
# Velocity S-wave (km/s) = 3.54696 3.67602 3.61207
# Velocity P-wave (km/s) = 7.14336 7.75609 7.45602
#
# Compressibility (1/GPa) = 0.01540760
#
# Stress axis : x y z
#
# Youngs Moduli (GPa) = 44.58080 58.45356 64.67342
#
# Poissons Ratio (x) = 0.22056 0.45889
# Poissons Ratio (y) = 0.16822 0.57740
# Poissons Ratio (z) = 0.31633 0.52187
#
# Static dielectric constant tensor:
#      x y z
#    x 1.717820 0.000000 0.000000 
#    y 0.000000 1.627530 0.000000 
#    z 0.000000 0.000000 1.674300 
# 
# From -- ./inp_files/2808.got.cif
#   From: 2010.05.17/outbox.cif.g08.bks.cpg/sg63_2_cif.got.tgz:2808.got - 2010.06.03 15:47:04.
