data_PCOD9472675
_publ_section_title
;
Structure prediction by ZEFSAII (Michael W. Deem and Ramdas Pophale) SiO2 
 PCOD9472675
Probable space group: C M C M
;
_chemical_formula_sum "Si O2"
_cell_formula_units_Z 80
_cell_length_a 8.644059
_cell_length_b 19.260381
_cell_length_c 26.508771
_cell_angle_alpha 90.000000
_cell_angle_beta 90.000000
_cell_angle_gamma 90.000000
_cell_volume 4413.388813
_symmetry_space_group_name_H-M "C M C M"
_symmetry_group_IT_number 63
_symmetry_cell_setting 'orthorhombic'
loop_
_space_group_symop_operation_xyz
x,y,z
-x,-y,1/2+z
x,-y,-z
-x,y,1/2-z
-x,-y,-z
x,y,1/2-z
-x,y,z
x,-y,1/2+z
1/2+x,1/2+y,z
1/2-x,1/2-y,1/2+z
1/2+x,1/2-y,-z
1/2-x,1/2+y,1/2-z
1/2-x,1/2-y,-z
1/2+x,1/2+y,1/2-z
1/2-x,1/2+y,z
1/2+x,1/2-y,1/2+z
loop_
_atom_site_type_symbol
_atom_site_label
_atom_site_fract_x
_atom_site_fract_y
_atom_site_fract_z
Si Si1 0.813877 0.545251 0.047224
Si Si2 0.314260 0.292808 0.656156
Si Si3 0.188888 0.953967 0.250000
Si Si4 0.185874 0.793383 0.250000
Si Si5 0.685283 0.792663 0.953077
Si Si6 0.313620 0.454280 0.655435
O O1 0.773067 0.626118 0.040158
O O2 0.746767 0.522661 0.100945
O O3 0.000000 0.540438 0.049649
O O4 0.759251 0.500000 0.000000
O O5 0.500000 0.290039 0.657307
O O6 0.247082 0.246019 0.700576
O O7 0.254716 0.270743 0.600927
O O8 0.266295 0.373765 0.663620
O O9 0.237055 0.873864 0.250000
O O10 0.000000 0.954712 0.250000
O O11 0.239689 0.996088 0.200458
O O12 0.000000 0.791766 0.250000
O O13 0.500000 0.786862 0.951188
O O14 0.750000 0.750000 0.000000
O O15 0.500000 0.455027 0.654720
#
# Coordination Sequence:
#
# PCOD9472675 Si02
#       6
#    16  16   8   8  16  16
#     4   9  19  35  53  76 106 136 168 211 260 305
#     4  10  20  36  57  78 103 138 179 218 257 307
#     4   9  19  35  53  77 106 133 166 212 262 307
#     4  11  22  35  53  79 110 139 170 214 266 315
#     4  10  20  35  55  79 108 140 175 215 259 309
#     4   9  18  35  57  76  98 134 177 214 250 302
#
# _framework density 18.126660000000001
#
# number of rings (size 3 to 8) (size 9 to 14) (size 15 to 20)
#    0.000    2.400    0.000    2.100    0.000    5.200 
#    0.000    6.500    0.000    0.000    0.000    0.000 
#    0.000    0.000    0.000    0.000    0.000    0.000 
#
# Total GULP energy -223260.459080 kJ/mol
# GULP energy per Si atom -5581.511477 kJ/mol
# Density = 1.808540 g / cm^3
# Si number density = 18.126660 Si / 1000 Ang^3
#
#
#
# Elastic Constant Matrix: (Units=GPa)
#
#
# Indices 1 2 3 4 5 6 
#
# 1 28.0675 30.0718 44.2057 0.0000 0.0000 0.0000
# 2 30.0718 99.0934 119.5389 0.0000 0.0000 0.0000
# 3 44.2057 119.5389 223.1833 0.0000 0.0000 0.0000
# 4 0.0000 0.0000 0.0000 40.0359 0.0000 0.0000
# 5 0.0000 0.0000 0.0000 0.0000 37.1053 0.0000
# 6 0.0000 0.0000 0.0000 0.0000 0.0000 19.7294
#
#
#
# Elastic Compliance Matrix: (Units=1/GPa)
#
#
# Indices 1 2 3 4 5 6 
#
# 1 0.055110 -0.010050 -0.005533 0.000000 0.000000 0.000000
# 2 -0.010050 0.030349 -0.014265 0.000000 0.000000 0.000000
# 3 -0.005533 -0.014265 0.013217 0.000000 0.000000 0.000000
# 4 0.000000 0.000000 0.000000 0.024978 0.000000 0.000000
# 5 0.000000 0.000000 0.000000 0.000000 0.026950 0.000000
# 6 0.000000 0.000000 0.000000 0.000000 0.000000 0.050686
#
#
# Mechanical properties :
#
#
# Convention : Reuss Voigt Hill
#
# Bulk Modulus (GPa) = 25.65340 81.99743 53.82541
# Shear Modulus (GPa) = 18.24965 29.80932 24.02949
#
# Velocity S-wave (km/s) = 3.17643 4.05964 3.64489
# Velocity P-wave (km/s) = 5.25699 8.20416 6.89000
#
# Compressibility (1/GPa) = 0.03898119
#
# Stress axis : x y z
#
# Youngs Moduli (GPa) = 18.14558 32.94979 75.66122
#
# Poissons Ratio (x) = 0.33114 0.41862
# Poissons Ratio (y) = 0.18236 1.07929
# Poissons Ratio (z) = 0.10040 0.47002
#
# Static dielectric constant tensor:
#      x y z
#    x 1.613990 0.000000 0.000000 
#    y 0.000000 1.615700 0.000000 
#    z 0.000000 0.000000 1.591260 
# 
# From -- ./inp_files/66680.got.cif
#   From: 2010.05.17/outbox.cif.g08.bks.cpg/sg63_34_cif.got.tgz:66680.got - 2010.06.03 15:47:04.
