data_PCOD9472292
_publ_section_title
;
Structure prediction by ZEFSAII (Michael W. Deem and Ramdas Pophale) SiO2 
 PCOD9472292
Probable space group: C M C M
;
_chemical_formula_sum "Si O2"
_cell_formula_units_Z 96
_cell_length_a 14.381007
_cell_length_b 21.775595
_cell_length_c 16.076115
_cell_angle_alpha 90.000000
_cell_angle_beta 90.000000
_cell_angle_gamma 90.000000
_cell_volume 5034.315538
_symmetry_space_group_name_H-M "C M C M"
_symmetry_group_IT_number 63
_symmetry_cell_setting 'orthorhombic'
loop_
_space_group_symop_operation_xyz
x,y,z
-x,-y,1/2+z
x,-y,-z
-x,y,1/2-z
-x,-y,-z
x,y,1/2-z
-x,y,z
x,-y,1/2+z
1/2+x,1/2+y,z
1/2-x,1/2-y,1/2+z
1/2+x,1/2-y,-z
1/2-x,1/2+y,1/2-z
1/2-x,1/2-y,-z
1/2+x,1/2+y,1/2-z
1/2-x,1/2+y,z
1/2+x,1/2-y,1/2+z
loop_
_atom_site_type_symbol
_atom_site_label
_atom_site_fract_x
_atom_site_fract_y
_atom_site_fract_z
Si Si1 0.106033 0.875515 0.037590
Si Si2 0.393881 0.706401 0.378158
Si Si3 0.797987 0.429372 0.496060
Si Si4 0.892978 0.773085 0.151363
Si Si5 0.794106 0.650481 0.156044
Si Si6 0.887957 0.649916 0.846775
O O1 0.186091 0.922625 0.014602
O O2 0.133808 0.840516 0.121554
O O3 0.000000 0.899130 0.040471
O O4 0.107401 0.818496 0.972484
O O5 0.500000 0.698672 0.347943
O O6 0.316126 0.663065 0.338418
O O7 0.368898 0.777841 0.366126
O O8 0.826271 0.500000 0.500000
O O9 0.818537 0.398183 0.585322
O O10 0.843230 0.392367 0.418642
O O11 0.887584 0.771580 0.250000
O O12 0.833793 0.715340 0.122743
O O13 0.000000 0.763827 0.125842
O O14 0.828794 0.637344 0.250000
O O15 0.859642 0.637818 0.750000
O O16 0.000000 0.642750 0.850719
#
# Coordination Sequence:
#
# PCOD9472292 Si02
#       6
#    16  16  16  16  16  16
#     4   9  18  33  53  78 108 140 174 215 265 318
#     4   9  17  31  54  82 108 132 163 212 274 332
#     4  11  24  38  53  74 104 146 190 225 254 295
#     4   9  17  30  51  80 109 133 161 207 271 334
#     4  10  20  34  53  78 107 138 173 215 266 320
#     4  10  21  37  58  83 108 135 170 216 271 324
#
# _framework density 19.069127999999999
#
# number of rings (size 3 to 8) (size 9 to 14) (size 15 to 20)
#    0.000    2.333    0.000    2.500    0.000    9.000 
#    0.000    0.000    0.000    2.000    0.000    2.333 
#    0.000    0.000    0.000    0.000    0.000    0.000 
#
# Total GULP energy -267456.597811 kJ/mol
# GULP energy per Si atom -5572.012454 kJ/mol
# Density = 1.902573 g / cm^3
# Si number density = 19.069128 Si / 1000 Ang^3
#
#
#
# Elastic Constant Matrix: (Units=GPa)
#
#
# Indices 1 2 3 4 5 6 
#
# 1 17.0701 14.4981 23.2602 0.0000 0.0000 0.0000
# 2 14.4981 57.4303 44.4655 0.0000 0.0000 0.0000
# 3 23.2602 44.4655 92.8469 0.0000 0.0000 0.0000
# 4 0.0000 0.0000 0.0000 8.4982 0.0000 0.0000
# 5 0.0000 0.0000 0.0000 0.0000 22.8756 0.0000
# 6 0.0000 0.0000 0.0000 0.0000 0.0000 14.0044
#
#
#
# Elastic Compliance Matrix: (Units=1/GPa)
#
#
# Indices 1 2 3 4 5 6 
#
# 1 0.091485 -0.008503 -0.018847 0.000000 0.000000 0.000000
# 2 -0.008503 0.028464 -0.011502 0.000000 0.000000 0.000000
# 3 -0.018847 -0.011502 0.021000 0.000000 0.000000 0.000000
# 4 0.000000 0.000000 0.000000 0.117672 0.000000 0.000000
# 5 0.000000 0.000000 0.000000 0.000000 0.043715 0.000000
# 6 0.000000 0.000000 0.000000 0.000000 0.000000 0.071406
#
#
# Mechanical properties :
#
#
# Convention : Reuss Voigt Hill
#
# Bulk Modulus (GPa) = 15.81119 36.86611 26.33865
# Shear Modulus (GPa) = 10.58144 14.75057 12.66600
#
# Velocity S-wave (km/s) = 2.35818 2.78426 2.58003
# Velocity P-wave (km/s) = 3.96538 5.45078 4.76630
#
# Compressibility (1/GPa) = 0.06324636
#
# Stress axis : x y z
#
# Youngs Moduli (GPa) = 10.93081 35.13201 47.61848
#
# Poissons Ratio (x) = 0.29872 0.89746
# Poissons Ratio (y) = 0.09294 0.54769
# Poissons Ratio (z) = 0.20601 0.40408
#
# Static dielectric constant tensor:
#      x y z
#    x 1.726840 0.000000 0.000000 
#    y 0.000000 1.631450 0.000000 
#    z 0.000000 0.000000 1.757680 
# 
# From -- ./inp_files/31944.got.cif
#   From: 2010.05.17/outbox.cif.g08.bks.cpg/sg63_16_cif.got.tgz:31944.got - 2010.06.03 15:47:04.
