data_PCOD9472918
_publ_section_title
;
Structure prediction by ZEFSAII (Michael W. Deem and Ramdas Pophale) SiO2 
 PCOD9472918
Probable space group: C M C M
;
_chemical_formula_sum "Si O2"
_cell_formula_units_Z 104
_cell_length_a 27.999788
_cell_length_b 23.054698
_cell_length_c 8.519353
_cell_angle_alpha 90.000000
_cell_angle_beta 90.000000
_cell_angle_gamma 90.000000
_cell_volume 5499.469457
_symmetry_space_group_name_H-M "C M C M"
_symmetry_group_IT_number 63
_symmetry_cell_setting 'orthorhombic'
loop_
_space_group_symop_operation_xyz
x,y,z
-x,-y,1/2+z
x,-y,-z
-x,y,1/2-z
-x,-y,-z
x,y,1/2-z
-x,y,z
x,-y,1/2+z
1/2+x,1/2+y,z
1/2-x,1/2-y,1/2+z
1/2+x,1/2-y,-z
1/2-x,1/2+y,1/2-z
1/2-x,1/2-y,-z
1/2+x,1/2+y,1/2-z
1/2-x,1/2+y,z
1/2+x,1/2-y,1/2+z
loop_
_atom_site_type_symbol
_atom_site_label
_atom_site_fract_x
_atom_site_fract_y
_atom_site_fract_z
Si Si1 0.500000 0.064303 0.938845
Si Si2 0.867266 0.839053 0.431532
Si Si3 0.193588 0.395411 0.431836
Si Si4 0.200876 0.727413 0.432116
Si Si5 0.555800 0.252959 0.059526
Si Si6 0.204085 0.064304 0.435591
Si Si7 0.094191 0.368994 0.440639
O O1 0.500000 0.064627 0.750000
O O2 0.453083 0.097775 0.991882
O O3 0.500000 0.000000 0.000000
O O4 0.873977 0.856484 0.250000
O O5 0.834377 0.781573 0.435256
O O6 0.917413 0.812429 0.493090
O O7 0.836421 0.889762 0.510914
O O8 0.197340 0.411966 0.250000
O O9 0.189999 0.326139 0.455537
O O10 0.242386 0.416722 0.510580
O O11 0.140121 0.407475 0.493875
O O12 0.204280 0.707420 0.250000
O O13 0.250000 0.750000 0.500000
O O14 0.557428 0.252624 0.250000
O O15 0.500000 0.249648 0.010994
O O16 0.585273 0.196520 0.002134
O O17 0.204193 0.062631 0.250000
O O18 0.194501 0.000000 0.500000
O O19 0.096817 0.366157 0.250000
#
# Coordination Sequence:
#
# PCOD9472918 Si02
#       7
#     8  16  16  16  16  16  16
#     4  10  22  40  56  76 106 150 201 246 287 334
#     4  10  21  37  58  87 122 154 192 239 289 352
#     4  11  22  36  56  85 119 154 194 240 288 343
#     4  11  20  31  52  82 116 151 185 231 281 335
#     4  10  20  35  59  91 123 153 189 237 297 353
#     4  12  26  43  63  84 114 156 199 243 294 353
#     4  10  21  36  57  83 117 154 195 245 294 342
#
# _framework density 18.910916
#
# number of rings (size 3 to 8) (size 9 to 14) (size 15 to 20)
#    0.000    1.385    3.846    2.308    0.000    3.077 
#    0.000    1.538    0.000    0.462    0.000    0.000 
#    0.000    0.000    0.000    0.000    0.000    0.000 
#
# Total GULP energy -289835.482029 kJ/mol
# GULP energy per Si atom -5573.759270 kJ/mol
# Density = 1.886787 g / cm^3
# Si number density = 18.910916 Si / 1000 Ang^3
#
#
#
# Elastic Constant Matrix: (Units=GPa)
#
#
# Indices 1 2 3 4 5 6 
#
# 1 105.2152 45.1112 25.8533 0.0000 0.0000 0.0000
# 2 45.1112 100.9296 23.0475 0.0000 0.0000 0.0000
# 3 25.8533 23.0475 40.5350 0.0000 0.0000 0.0000
# 4 0.0000 0.0000 0.0000 28.8980 0.0000 0.0000
# 5 0.0000 0.0000 0.0000 0.0000 5.3188 0.0000
# 6 0.0000 0.0000 0.0000 0.0000 0.0000 12.6291
#
#
#
# Elastic Compliance Matrix: (Units=1/GPa)
#
#
# Indices 1 2 3 4 5 6 
#
# 1 0.012788 -0.004428 -0.005639 0.000000 0.000000 0.000000
# 2 -0.004428 0.012920 -0.004522 0.000000 0.000000 0.000000
# 3 -0.005639 -0.004522 0.030837 0.000000 0.000000 0.000000
# 4 0.000000 0.000000 0.000000 0.034604 0.000000 0.000000
# 5 0.000000 0.000000 0.000000 0.000000 0.188012 0.000000
# 6 0.000000 0.000000 0.000000 0.000000 0.000000 0.079182
#
#
# Mechanical properties :
#
#
# Convention : Reuss Voigt Hill
#
# Bulk Modulus (GPa) = 36.53845 48.30042 42.41944
# Shear Modulus (GPa) = 12.60576 19.54704 16.07640
#
# Velocity S-wave (km/s) = 2.58463 3.21851 2.91883
# Velocity P-wave (km/s) = 5.31699 6.27760 5.81716
#
# Compressibility (1/GPa) = 0.02736843
#
# Stress axis : x y z
#
# Youngs Moduli (GPa) = 78.19534 77.40146 32.42830
#
# Poissons Ratio (x) = 0.34276 0.18285
# Poissons Ratio (y) = 0.34627 0.14663
# Poissons Ratio (z) = 0.44092 0.34997
#
# Static dielectric constant tensor:
#      x y z
#    x 1.866490 0.000000 0.000000 
#    y 0.000000 1.698070 0.000000 
#    z 0.000000 0.000000 1.645470 
# 
# From -- ./inp_files/12552.got.cif
#   From: 2010.05.17/outbox.cif.g08.bks.cpg/sg63_7_cif.got.tgz:12552.got - 2010.06.03 15:47:04.
