data_PCOD9472594
_publ_section_title
;
Structure prediction by ZEFSAII (Michael W. Deem and Ramdas Pophale) SiO2 
 PCOD9472594
Probable space group: C M C M
;
_chemical_formula_sum "Si O2"
_cell_formula_units_Z 80
_cell_length_a 19.543961
_cell_length_b 26.788532
_cell_length_c 8.724189
_cell_angle_alpha 90.000000
_cell_angle_beta 90.000000
_cell_angle_gamma 90.000000
_cell_volume 4567.584263
_symmetry_space_group_name_H-M "C M C M"
_symmetry_group_IT_number 63
_symmetry_cell_setting 'orthorhombic'
loop_
_space_group_symop_operation_xyz
x,y,z
-x,-y,1/2+z
x,-y,-z
-x,y,1/2-z
-x,-y,-z
x,y,1/2-z
-x,y,z
x,-y,1/2+z
1/2+x,1/2+y,z
1/2-x,1/2-y,1/2+z
1/2+x,1/2-y,-z
1/2-x,1/2+y,1/2-z
1/2-x,1/2-y,-z
1/2+x,1/2+y,1/2-z
1/2-x,1/2+y,z
1/2+x,1/2-y,1/2+z
loop_
_atom_site_type_symbol
_atom_site_label
_atom_site_fract_x
_atom_site_fract_y
_atom_site_fract_z
Si Si1 0.327625 0.946749 0.933099
Si Si2 0.580778 0.858828 0.435435
Si Si3 0.583060 0.251709 0.927861
Si Si4 0.824623 0.053352 0.934994
Si Si5 0.578580 0.644096 0.565927
O O1 0.324277 0.949653 0.750000
O O2 0.376203 0.902256 0.987428
O O3 0.251676 0.938623 0.000939
O O4 0.351850 0.000000 0.000000
O O5 0.587506 0.861176 0.250000
O O6 0.500000 0.863962 0.470442
O O7 0.604548 0.803126 0.484501
O O8 0.602607 0.256153 0.750000
O O9 0.500000 0.250601 0.934355
O O10 0.604857 0.301603 0.014167
O O11 0.822212 0.051210 0.750000
O O12 0.873806 0.098498 0.983928
O O13 0.848595 0.000000 0.000000
O O14 0.577013 0.643469 0.750000
O O15 0.500000 0.638148 0.510675
#
# Coordination Sequence:
#
# PCOD9472594 Si02
#       5
#    16  16  16  16  16
#     4  11  22  36  54  74  99 132 169 207 250 298
#     4   9  18  34  55  78 104 132 164 204 248 294
#     4   8  15  29  50  75 102 132 163 198 244 294
#     4  10  20  35  53  72  99 134 169 206 251 299
#     4   9  18  32  51  76 104 132 164 205 250 295
#
# _framework density 17.514728000000002
#
# number of rings (size 3 to 8) (size 9 to 14) (size 15 to 20)
#    0.000    2.600    0.000    4.800    0.000    3.600 
#    0.000    3.000    0.000    0.000    0.000    0.000 
#    0.000    0.000    0.000    0.000    0.000    0.000 
#
# Total GULP energy -222992.756331 kJ/mol
# GULP energy per Si atom -5574.818908 kJ/mol
# Density = 1.747486 g / cm^3
# Si number density = 17.514728 Si / 1000 Ang^3
#
#
#
# Elastic Constant Matrix: (Units=GPa)
#
#
# Indices 1 2 3 4 5 6 
#
# 1 47.4802 81.5280 30.4450 0.0000 0.0000 0.0000
# 2 81.5280 206.4606 56.8930 0.0000 0.0000 0.0000
# 3 30.4450 56.8930 55.1452 0.0000 0.0000 0.0000
# 4 0.0000 0.0000 0.0000 35.1569 0.0000 0.0000
# 5 0.0000 0.0000 0.0000 0.0000 20.1344 0.0000
# 6 0.0000 0.0000 0.0000 0.0000 0.0000 -81.4291
#
#
#
# Elastic Compliance Matrix: (Units=1/GPa)
#
#
# Indices 1 2 3 4 5 6 
#
# 1 0.073137 -0.024806 -0.014785 0.000000 0.000000 0.000000
# 2 -0.024806 0.015181 -0.001967 0.000000 0.000000 0.000000
# 3 -0.014785 -0.001967 0.028326 0.000000 0.000000 0.000000
# 4 0.000000 0.000000 0.000000 0.028444 0.000000 0.000000
# 5 0.000000 0.000000 0.000000 0.000000 0.049666 0.000000
# 6 0.000000 0.000000 0.000000 0.000000 0.000000 -0.012281
#
#
# Mechanical properties :
#
#
# Convention : Reuss Voigt Hill
#
# Bulk Modulus (GPa) = 29.82712 71.86865 50.84789
# Shear Modulus (GPa) = 18.06578 4.12044 11.09311
#
# Velocity S-wave (km/s) = 3.21512 1.53547 2.51939
# Velocity P-wave (km/s) = 5.55422 6.65326 6.12843
#
# Compressibility (1/GPa) = 0.03352654
#
# Stress axis : x y z
#
# Youngs Moduli (GPa) = 13.67306 65.87116 35.30290
#
# Poissons Ratio (x) = 1.63401 0.52197
# Poissons Ratio (y) = 0.33918 0.06945
# Poissons Ratio (z) = 0.20216 0.12958
#
# Static dielectric constant tensor:
#      x y z
#    x 1.580290 0.000000 0.000000 
#    y 0.000000 1.603870 0.000000 
#    z 0.000000 0.000000 1.591760 
# 
# From -- ./inp_files/6452.got.cif
#   From: 2010.05.17/outbox.cif.g08.bks.cpg/sg63_4_cif.got.tgz:6452.got - 2010.06.03 15:47:04.
