data_PCOD9472506
_publ_section_title
;
Structure prediction by ZEFSAII (Michael W. Deem and Ramdas Pophale) SiO2 
 PCOD9472506
Probable space group: C M C M
;
_chemical_formula_sum "Si O2"
_cell_formula_units_Z 96
_cell_length_a 8.791141
_cell_length_b 20.971826
_cell_length_c 28.837228
_cell_angle_alpha 90.000000
_cell_angle_beta 90.000000
_cell_angle_gamma 90.000000
_cell_volume 5316.612434
_symmetry_space_group_name_H-M "C M C M"
_symmetry_group_IT_number 63
_symmetry_cell_setting 'orthorhombic'
loop_
_space_group_symop_operation_xyz
x,y,z
-x,-y,1/2+z
x,-y,-z
-x,y,1/2-z
-x,-y,-z
x,y,1/2-z
-x,y,z
x,-y,1/2+z
1/2+x,1/2+y,z
1/2-x,1/2-y,1/2+z
1/2+x,1/2-y,-z
1/2-x,1/2+y,1/2-z
1/2-x,1/2-y,-z
1/2+x,1/2+y,1/2-z
1/2-x,1/2+y,z
1/2+x,1/2-y,1/2+z
loop_
_atom_site_type_symbol
_atom_site_label
_atom_site_fract_x
_atom_site_fract_y
_atom_site_fract_z
Si Si1 0.817890 0.736305 0.604004
Si Si2 0.682125 0.057360 0.802196
Si Si3 0.816841 0.868986 0.943424
Si Si4 0.682114 0.006931 0.396957
Si Si5 0.182671 0.114691 0.551107
Si Si6 0.181579 0.801690 0.302793
O O1 0.772600 0.800086 0.576579
O O2 0.744715 0.674409 0.580160
O O3 0.761918 0.737974 0.656983
O O4 0.000000 0.730045 0.602640
O O5 0.715453 0.034061 0.750000
O O6 0.500000 0.069086 0.805098
O O7 0.723229 0.010216 0.843790
O O8 0.765359 0.124910 0.808558
O O9 0.000000 0.873640 0.940803
O O10 0.745636 0.925989 0.914008
O O11 0.773787 0.876533 0.997308
O O12 0.500000 0.006426 0.400813
O O13 0.749627 0.950291 0.428388
O O14 0.000000 0.112698 0.554391
O O15 0.221611 0.782850 0.250000
O O16 0.000000 0.798147 0.307945
#
# Coordination Sequence:
#
# PCOD9472506 Si02
#       6
#    16  16  16  16  16  16
#     4  11  22  38  59  84 114 149 191 235 283 336
#     4   9  18  34  56  82 112 145 182 228 280 332
#     4  10  24  41  56  79 115 155 190 231 286 341
#     4  11  22  36  58  87 115 148 190 234 281 337
#     4  11  22  38  60  83 111 149 192 238 284 334
#     4  10  20  34  56  86 114 144 185 231 279 333
#
# _framework density 18.056609999999999
#
# number of rings (size 3 to 8) (size 9 to 14) (size 15 to 20)
#    0.000    1.667    1.667    3.000    0.000    6.333 
#    0.000    0.833    0.000    3.000    0.000    0.000 
#    0.000    0.000    0.000    0.000    0.000    0.000 
#
# Total GULP energy -268155.364047 kJ/mol
# GULP energy per Si atom -5586.570084 kJ/mol
# Density = 1.801551 g / cm^3
# Si number density = 18.056610 Si / 1000 Ang^3
#
#
#
# Elastic Constant Matrix: (Units=GPa)
#
#
# Indices 1 2 3 4 5 6 
#
# 1 16.6722 3.0641 13.2275 0.0000 0.0000 0.0000
# 2 3.0641 40.6026 -3.7619 0.0000 0.0000 0.0000
# 3 13.2275 -3.7619 85.2241 0.0000 0.0000 0.0000
# 4 0.0000 0.0000 0.0000 -0.6255 0.0000 0.0000
# 5 0.0000 0.0000 0.0000 0.0000 29.8199 0.0000
# 6 0.0000 0.0000 0.0000 0.0000 0.0000 30.5801
#
#
#
# Elastic Compliance Matrix: (Units=1/GPa)
#
#
# Indices 1 2 3 4 5 6 
#
# 1 0.069979 -0.006313 -0.011140 0.000000 0.000000 0.000000
# 2 -0.006313 0.025300 0.002097 0.000000 0.000000 0.000000
# 3 -0.011140 0.002097 0.013555 0.000000 0.000000 0.000000
# 4 0.000000 0.000000 0.000000 -1.598664 0.000000 0.000000
# 5 0.000000 0.000000 0.000000 0.000000 0.033535 0.000000
# 6 0.000000 0.000000 0.000000 0.000000 0.000000 0.032701
#
#
# Mechanical properties :
#
#
# Convention : Reuss Voigt Hill
#
# Bulk Modulus (GPa) = 12.80068 18.61758 15.70913
# Shear Modulus (GPa) = -3.65807 20.61950 8.48072
#
# Velocity S-wave (km/s) = -1.42488 3.38292 2.16955
# Velocity P-wave (km/s) = 2.09703 5.05885 3.87230
#
# Compressibility (1/GPa) = 0.07812084
#
# Stress axis : x y z
#
# Youngs Moduli (GPa) = 14.29005 39.52621 73.77177
#
# Poissons Ratio (x) = 0.24953 0.82181
# Poissons Ratio (y) = 0.09021 -0.15467
# Poissons Ratio (z) = 0.15919 -0.08287
#
# Static dielectric constant tensor:
#      x y z
#    x 1.606290 0.000000 0.000000 
#    y 0.000000 1.570240 0.000000 
#    z 0.000000 0.000000 1.636340 
# 
# From -- ./inp_files/66906.got.cif
#   From: 2010.05.17/outbox.cif.g08.bks.cpg/sg63_34_cif.got.tgz:66906.got - 2010.06.03 15:47:04.
