data_PCOD9472396
_publ_section_title
;
Structure prediction by ZEFSAII (Michael W. Deem and Ramdas Pophale) SiO2 
 PCOD9472396
Probable space group: C M C M
;
_chemical_formula_sum "Si O2"
_cell_formula_units_Z 112
_cell_length_a 14.400134
_cell_length_b 18.543666
_cell_length_c 23.905163
_cell_angle_alpha 90.000000
_cell_angle_beta 90.000000
_cell_angle_gamma 90.000000
_cell_volume 6383.426161
_symmetry_space_group_name_H-M "C M C M"
_symmetry_group_IT_number 63
_symmetry_cell_setting 'orthorhombic'
loop_
_space_group_symop_operation_xyz
x,y,z
-x,-y,1/2+z
x,-y,-z
-x,y,1/2-z
-x,-y,-z
x,y,1/2-z
-x,y,z
x,-y,1/2+z
1/2+x,1/2+y,z
1/2-x,1/2-y,1/2+z
1/2+x,1/2-y,-z
1/2-x,1/2+y,1/2-z
1/2-x,1/2-y,-z
1/2+x,1/2+y,1/2-z
1/2-x,1/2+y,z
1/2+x,1/2-y,1/2+z
loop_
_atom_site_type_symbol
_atom_site_label
_atom_site_fract_x
_atom_site_fract_y
_atom_site_fract_z
Si Si1 0.390700 0.383011 0.889284
Si Si2 0.107526 0.675733 0.513361
Si Si3 0.286240 0.414127 0.001499
Si Si4 0.705770 0.672628 0.686585
Si Si5 0.393691 0.224636 0.642653
Si Si6 0.389406 0.697542 0.924594
Si Si7 0.892913 0.978637 0.314459
O O1 0.500000 0.383157 0.905567
O O2 0.329585 0.383207 0.944540
O O3 0.376604 0.310423 0.853907
O O4 0.371152 0.454904 0.854392
O O5 0.180238 0.611530 0.506472
O O6 0.115193 0.705392 0.576687
O O7 0.130952 0.739073 0.469206
O O8 0.000000 0.655258 0.504258
O O9 0.296315 0.500000 0.000000
O O10 0.342527 0.375037 0.051280
O O11 0.681392 0.694914 0.750000
O O12 0.814895 0.682985 0.676150
O O13 0.653400 0.713470 0.636204
O O14 0.673249 0.589899 0.680105
O O15 0.500000 0.209333 0.659495
O O16 0.500000 0.689081 0.921418
O O17 0.889092 0.003256 0.250000
O O18 0.000000 0.955495 0.325455
#
# Coordination Sequence:
#
# PCOD9472396 Si02
#       7
#    16  16  16  16  16  16  16
#     4  10  20  34  54  82 111 140 177 220 273 331
#     4  10  21  39  58  76 107 149 184 221 271 323
#     4  12  22  32  54  84 113 141 176 225 273 323
#     4  11  22  35  54  81 112 146 182 219 265 323
#     4  10  20  37  59  80 107 141 184 233 272 313
#     4  11  21  36  58  81 110 147 179 218 271 326
#     4   9  19  36  55  77 112 150 178 215 272 331
#
# _framework density 17.545437
#
# number of rings (size 3 to 8) (size 9 to 14) (size 15 to 20)
#    0.000    1.571    2.857    3.000    0.000    4.286 
#    0.000    1.429    0.000    0.000    0.000    0.000 
#    0.000    4.571    0.000    0.000    0.000    0.000 
#
# Total GULP energy -312679.070781 kJ/mol
# GULP energy per Si atom -5583.554835 kJ/mol
# Density = 1.750550 g / cm^3
# Si number density = 17.545437 Si / 1000 Ang^3
#
#
#
# Elastic Constant Matrix: (Units=GPa)
#
#
# Indices 1 2 3 4 5 6 
#
# 1 86.8482 38.8870 31.1118 0.0000 0.0000 0.0000
# 2 38.8870 40.3842 9.8701 0.0000 0.0000 0.0000
# 3 31.1118 9.8701 71.7827 0.0000 0.0000 0.0000
# 4 0.0000 0.0000 0.0000 19.2644 0.0000 0.0000
# 5 0.0000 0.0000 0.0000 0.0000 27.3972 0.0000
# 6 0.0000 0.0000 0.0000 0.0000 0.0000 28.1458
#
#
#
# Elastic Compliance Matrix: (Units=1/GPa)
#
#
# Indices 1 2 3 4 5 6 
#
# 1 0.023434 -0.020781 -0.007299 0.000000 0.000000 0.000000
# 2 -0.020781 0.044052 0.002950 0.000000 0.000000 0.000000
# 3 -0.007299 0.002950 0.016689 0.000000 0.000000 0.000000
# 4 0.000000 0.000000 0.000000 0.051909 0.000000 0.000000
# 5 0.000000 0.000000 0.000000 0.000000 0.036500 0.000000
# 6 0.000000 0.000000 0.000000 0.000000 0.000000 0.035529
#
#
# Mechanical properties :
#
#
# Convention : Reuss Voigt Hill
#
# Bulk Modulus (GPa) = 29.48672 39.86143 34.67408
# Shear Modulus (GPa) = 18.54044 22.90454 20.72249
#
# Velocity S-wave (km/s) = 3.25423 3.61701 3.44041
# Velocity P-wave (km/s) = 5.56439 6.34129 5.96550
#
# Compressibility (1/GPa) = 0.03391357
#
# Stress axis : x y z
#
# Youngs Moduli (GPa) = 42.67251 22.70032 59.91970
#
# Poissons Ratio (x) = 0.47175 0.43738
# Poissons Ratio (y) = 0.88680 -0.17676
# Poissons Ratio (z) = 0.31148 -0.06696
#
# Static dielectric constant tensor:
#      x y z
#    x 1.599050 0.000000 0.000000 
#    y 0.000000 1.579260 0.000000 
#    z 0.000000 0.000000 1.618370 
# 
# From -- ./inp_files/62990.got.cif
#   From: 2010.05.17/outbox.cif.g08.bks.cpg/sg63_32_cif.got.tgz:62990.got - 2010.06.03 15:47:04.
