data_PCOD9472019
_publ_section_title
;
Structure prediction by ZEFSAII (Michael W. Deem and Ramdas Pophale) SiO2 
 PCOD9472019
Probable space group: C M C M
;
_chemical_formula_sum "Si O2"
_cell_formula_units_Z 80
_cell_length_a 9.486694
_cell_length_b 26.776060
_cell_length_c 15.338503
_cell_angle_alpha 90.000000
_cell_angle_beta 90.000000
_cell_angle_gamma 90.000000
_cell_volume 3896.229592
_symmetry_space_group_name_H-M "C M C M"
_symmetry_group_IT_number 63
_symmetry_cell_setting 'orthorhombic'
loop_
_space_group_symop_operation_xyz
x,y,z
-x,-y,1/2+z
x,-y,-z
-x,y,1/2-z
-x,-y,-z
x,y,1/2-z
-x,y,z
x,-y,1/2+z
1/2+x,1/2+y,z
1/2-x,1/2-y,1/2+z
1/2+x,1/2-y,-z
1/2-x,1/2+y,1/2-z
1/2-x,1/2-y,-z
1/2+x,1/2+y,1/2-z
1/2-x,1/2+y,z
1/2+x,1/2-y,1/2+z
loop_
_atom_site_type_symbol
_atom_site_label
_atom_site_fract_x
_atom_site_fract_y
_atom_site_fract_z
Si Si1 0.842510 0.828389 0.149012
Si Si2 0.669993 0.261765 0.911006
Si Si3 0.663743 0.079684 0.643059
Si Si4 0.663159 0.968682 0.856385
Si Si5 0.338063 0.626156 0.144443
O O1 0.861179 0.841240 0.250000
O O2 0.742175 0.780284 0.148067
O O3 0.761283 0.875704 0.108821
O O4 0.000000 0.819485 0.111337
O O5 0.500000 0.256435 0.912946
O O6 0.704602 0.318517 0.884996
O O7 0.750000 0.250000 0.000000
O O8 0.664030 0.080523 0.750000
O O9 0.500000 0.086651 0.617569
O O10 0.711963 0.024062 0.616466
O O11 0.668994 0.968266 0.750000
O O12 0.500000 0.964252 0.881350
O O13 0.747323 0.920537 0.887674
O O14 0.331945 0.626346 0.250000
O O15 0.500000 0.618755 0.118474
#
# Coordination Sequence:
#
# PCOD9472019 Si02
#       5
#    16  16  16  16  16
#     4  10  20  33  52  79 106 133 169 210 250 296
#     4  11  23  38  54  72  99 135 173 213 259 307
#     4   8  14  26  45  71 103 135 164 197 242 293
#     4   8  14  25  44  72 103 132 162 198 241 290
#     4   9  18  32  51  75 101 130 164 202 247 299
#
# _framework density 20.532672000000002
#
# number of rings (size 3 to 8) (size 9 to 14) (size 15 to 20)
#    0.000    2.800    0.000    3.000    0.000    4.400 
#    0.000    6.000    0.000    1.200    0.000    8.400 
#    0.000    0.000    0.000    0.000    0.000    0.000 
#
# Total GULP energy -223017.513025 kJ/mol
# GULP energy per Si atom -5575.437826 kJ/mol
# Density = 2.048594 g / cm^3
# Si number density = 20.532672 Si / 1000 Ang^3
#
#
#
# Elastic Constant Matrix: (Units=GPa)
#
#
# Indices 1 2 3 4 5 6 
#
# 1 101.7506 100.1881 10.0766 0.0000 0.0000 0.0000
# 2 100.1881 190.9287 7.5988 0.0000 0.0000 0.0000
# 3 10.0766 7.5988 14.0344 0.0000 0.0000 0.0000
# 4 0.0000 0.0000 0.0000 -11.0144 0.0000 0.0000
# 5 0.0000 0.0000 0.0000 0.0000 12.6133 0.0000
# 6 0.0000 0.0000 0.0000 0.0000 0.0000 41.7862
#
#
#
# Elastic Compliance Matrix: (Units=1/GPa)
#
#
# Indices 1 2 3 4 5 6 
#
# 1 0.021516 -0.010910 -0.009541 0.000000 0.000000 0.000000
# 2 -0.010910 0.010886 0.001940 0.000000 0.000000 0.000000
# 3 -0.009541 0.001940 0.077053 0.000000 0.000000 0.000000
# 4 0.000000 0.000000 0.000000 -0.090790 0.000000 0.000000
# 5 0.000000 0.000000 0.000000 0.000000 0.079281 0.000000
# 6 0.000000 0.000000 0.000000 0.000000 0.000000 0.023931
#
#
# Mechanical properties :
#
#
# Convention : Reuss Voigt Hill
#
# Bulk Modulus (GPa) = 13.80614 60.27121 37.03868
# Shear Modulus (GPa) = 27.31587 21.26702 24.29145
#
# Velocity S-wave (km/s) = 3.65137 3.22182 3.44330
# Velocity P-wave (km/s) = 4.95129 6.57706 5.82121
#
# Compressibility (1/GPa) = 0.07243153
#
# Stress axis : x y z
#
# Youngs Moduli (GPa) = 46.47762 91.86504 12.97805
#
# Poissons Ratio (x) = 1.00229 0.12382
# Poissons Ratio (y) = 0.50709 -0.02517
# Poissons Ratio (z) = 0.44343 -0.17820
#
# Static dielectric constant tensor:
#      x y z
#    x 1.721670 0.000000 0.000000 
#    y 0.000000 1.749550 0.000000 
#    z 0.000000 0.000000 1.831170 
# 
# From -- ./inp_files/40451.got.cif
#   From: 2010.05.17/outbox.cif.g08.bks.cpg/sg63_21_cif.got.tgz:40451.got - 2010.06.03 15:47:04.
