data_PCOD9472794
_publ_section_title
;
Structure prediction by ZEFSAII (Michael W. Deem and Ramdas Pophale) SiO2 
 PCOD9472794
Probable space group: C M C M
;
_chemical_formula_sum "Si O2"
_cell_formula_units_Z 112
_cell_length_a 14.408617
_cell_length_b 11.793811
_cell_length_c 32.795011
_cell_angle_alpha 90.000000
_cell_angle_beta 90.000000
_cell_angle_gamma 90.000000
_cell_volume 5572.938393
_symmetry_space_group_name_H-M "C M C M"
_symmetry_group_IT_number 63
_symmetry_cell_setting 'orthorhombic'
loop_
_space_group_symop_operation_xyz
x,y,z
-x,-y,1/2+z
x,-y,-z
-x,y,1/2-z
-x,-y,-z
x,y,1/2-z
-x,y,z
x,-y,1/2+z
1/2+x,1/2+y,z
1/2-x,1/2-y,1/2+z
1/2+x,1/2-y,-z
1/2-x,1/2+y,1/2-z
1/2-x,1/2-y,-z
1/2+x,1/2+y,1/2-z
1/2-x,1/2+y,z
1/2+x,1/2-y,1/2+z
loop_
_atom_site_type_symbol
_atom_site_label
_atom_site_fract_x
_atom_site_fract_y
_atom_site_fract_z
Si Si1 0.892942 0.796658 0.204637
Si Si2 0.888249 0.136779 0.995037
Si Si3 0.330736 0.450608 0.704583
Si Si4 0.606675 0.801695 0.293982
Si Si5 0.729485 0.230948 0.936437
Si Si6 0.807818 0.366466 0.860990
Si Si7 0.606707 0.089815 0.621960
O O1 0.857523 0.765585 0.250000
O O2 0.841229 0.732833 0.168801
O O3 0.000000 0.763489 0.202908
O O4 0.885025 0.932105 0.200875
O O5 0.839642 0.202354 0.032937
O O6 0.000000 0.161140 0.991161
O O7 0.821755 0.180568 0.958203
O O8 0.879555 0.000000 0.000000
O O9 0.286715 0.451879 0.750000
O O10 0.389025 0.334299 0.703425
O O11 0.262327 0.438042 0.666956
O O12 0.649372 0.834343 0.250000
O O13 0.500000 0.838860 0.292668
O O14 0.643045 0.853953 0.335729
O O15 0.761068 0.316063 0.900936
O O16 0.671007 0.132014 0.914601
O O17 0.886926 0.455130 0.873194
O O18 0.500000 0.126301 0.615840
#
# Coordination Sequence:
#
# PCOD9472794 Si02
#       7
#    16  16  16  16  16  16  16
#     4  10  22  39  57  81 119 169 220 265 308 354
#     4  10  23  45  72  98 123 156 198 249 309 378
#     4  10  20  35  57  82 117 163 214 264 310 357
#     4   9  18  34  56  83 117 162 215 262 303 353
#     4  11  23  43  67  95 129 159 200 249 309 385
#     4  12  23  38  57  91 126 163 203 256 312 368
#     4  11  23  39  60  90 128 168 209 255 307 366
#
# _framework density 20.097117000000001
#
# number of rings (size 3 to 8) (size 9 to 14) (size 15 to 20)
#    0.000    1.571    1.429    3.429    0.000    4.000 
#    0.000    2.857    0.000    4.714    0.000    0.000 
#    0.000    0.000    0.000    0.000    0.000    0.000 
#
# Total GULP energy -312495.214912 kJ/mol
# GULP energy per Si atom -5580.271695 kJ/mol
# Density = 2.005138 g / cm^3
# Si number density = 20.097117 Si / 1000 Ang^3
#
#
#
# Elastic Constant Matrix: (Units=GPa)
#
#
# Indices 1 2 3 4 5 6 
#
# 1 129.3403 35.5368 68.1465 0.0000 0.0000 0.0000
# 2 35.5368 84.1318 41.2945 0.0000 0.0000 0.0000
# 3 68.1465 41.2945 137.8342 0.0000 0.0000 0.0000
# 4 0.0000 0.0000 0.0000 12.6334 0.0000 0.0000
# 5 0.0000 0.0000 0.0000 0.0000 -93.3637 0.0000
# 6 0.0000 0.0000 0.0000 0.0000 0.0000 34.9560
#
#
#
# Elastic Compliance Matrix: (Units=1/GPa)
#
#
# Indices 1 2 3 4 5 6 
#
# 1 0.010815 -0.002279 -0.004664 0.000000 0.000000 0.000000
# 2 -0.002279 0.014415 -0.003192 0.000000 0.000000 0.000000
# 3 -0.004664 -0.003192 0.010518 0.000000 0.000000 0.000000
# 4 0.000000 0.000000 0.000000 0.079156 0.000000 0.000000
# 5 0.000000 0.000000 0.000000 0.000000 -0.010711 0.000000
# 6 0.000000 0.000000 0.000000 0.000000 0.000000 0.028607
#
#
# Mechanical properties :
#
#
# Convention : Reuss Voigt Hill
#
# Bulk Modulus (GPa) = 64.60993 71.25131 67.93062
# Shear Modulus (GPa) = 31.59949 4.60036 18.09992
#
# Velocity S-wave (km/s) = 3.96958 1.51461 3.00429
# Velocity P-wave (km/s) = 7.29580 6.21202 6.77561
#
# Compressibility (1/GPa) = 0.01547750
#
# Stress axis : x y z
#
# Youngs Moduli (GPa) = 92.46204 69.36982 95.07899
#
# Poissons Ratio (x) = 0.15808 0.44349
# Poissons Ratio (y) = 0.21071 0.30350
# Poissons Ratio (z) = 0.43128 0.22144
#
# Static dielectric constant tensor:
#      x y z
#    x 1.735280 0.000000 0.000000 
#    y 0.000000 1.695850 0.000000 
#    z 0.000000 0.000000 1.712660 
# 
# From -- ./inp_files/73429.got.cif
#   From: 2010.05.17/outbox.cif.g08.bks.cpg/sg63_37_cif.got.tgz:73429.got - 2010.06.03 15:47:04.
