data_PCOD9472141
_publ_section_title
;
Structure prediction by ZEFSAII (Michael W. Deem and Ramdas Pophale) SiO2 
 PCOD9472141
Probable space group: C M C M
;
_chemical_formula_sum "Si O2"
_cell_formula_units_Z 80
_cell_length_a 9.884907
_cell_length_b 16.026651
_cell_length_c 28.252341
_cell_angle_alpha 90.000000
_cell_angle_beta 90.000000
_cell_angle_gamma 90.000000
_cell_volume 4475.791085
_symmetry_space_group_name_H-M "C M C M"
_symmetry_group_IT_number 63
_symmetry_cell_setting 'orthorhombic'
loop_
_space_group_symop_operation_xyz
x,y,z
-x,-y,1/2+z
x,-y,-z
-x,y,1/2-z
-x,-y,-z
x,y,1/2-z
-x,y,z
x,-y,1/2+z
1/2+x,1/2+y,z
1/2-x,1/2-y,1/2+z
1/2+x,1/2-y,-z
1/2-x,1/2+y,1/2-z
1/2-x,1/2-y,-z
1/2+x,1/2+y,1/2-z
1/2-x,1/2+y,z
1/2+x,1/2-y,1/2+z
loop_
_atom_site_type_symbol
_atom_site_label
_atom_site_fract_x
_atom_site_fract_y
_atom_site_fract_z
Si Si1 0.500000 0.099128 0.511535
Si Si2 0.000000 0.740440 0.306110
Si Si3 0.000000 0.069720 0.571845
Si Si4 0.500000 0.112343 0.875784
Si Si5 0.000000 0.420684 0.869462
Si Si6 0.000000 0.118889 0.035431
Si Si7 0.204649 0.174985 0.625489
Si Si8 0.296260 0.834164 0.561499
O O1 0.500000 0.106840 0.567243
O O2 0.371763 0.144683 0.487498
O O3 0.500000 0.000000 0.500000
O O4 0.872913 0.789163 0.328990
O O5 0.000000 0.740860 0.250000
O O6 0.000000 0.646436 0.327239
O O7 0.870461 0.094633 0.603443
O O8 0.000000 0.117696 0.521538
O O9 0.000000 0.974781 0.555720
O O10 0.639472 0.158244 0.863603
O O11 0.500000 0.017486 0.856700
O O12 0.869371 0.398690 0.902256
O O13 0.862474 0.158284 0.054168
O O14 0.179647 0.244884 0.585088
#
# Coordination Sequence:
#
# PCOD9472141 Si02
#       8
#     8   8   8   8   8   8  16  16
#     4  11  21  31  53  71 113 166 201 225 252 303
#     4   9  20  44  66  77  99 142 175 215 290 369
#     4  10  21  32  45  73 108 151 192 223 252 306
#     4  12  20  33  56  86 118 145 179 236 276 298
#     4   9  19  36  58  78 108 139 184 217 269 342
#     4  11  21  29  50  71 110 150 193 223 253 303
#     4  10  22  36  55  81 112 139 181 234 278 325
#     4  10  20  34  48  75 107 153 196 223 257 313
#
# _framework density 17.873934999999999
#
# number of rings (size 3 to 8) (size 9 to 14) (size 15 to 20)
#    0.000    1.800    2.000    4.800    2.800    4.800 
#    0.000    1.500    0.000    0.000    0.000    0.000 
#    0.000    0.000    0.000    0.000    0.000    0.000 
#
# Total GULP energy -223345.927471 kJ/mol
# GULP energy per Si atom -5583.648187 kJ/mol
# Density = 1.783325 g / cm^3
# Si number density = 17.873935 Si / 1000 Ang^3
#
#
#
# Elastic Constant Matrix: (Units=GPa)
#
#
# Indices 1 2 3 4 5 6 
#
# 1 149.6227 30.4813 44.3668 0.0000 0.0000 0.0000
# 2 30.4813 68.3917 34.0243 0.0000 0.0000 0.0000
# 3 44.3668 34.0243 116.8046 0.0000 0.0000 0.0000
# 4 0.0000 0.0000 0.0000 15.3625 0.0000 0.0000
# 5 0.0000 0.0000 0.0000 0.0000 3.3638 0.0000
# 6 0.0000 0.0000 0.0000 0.0000 0.0000 14.4456
#
#
#
# Elastic Compliance Matrix: (Units=1/GPa)
#
#
# Indices 1 2 3 4 5 6 
#
# 1 0.007843 -0.002355 -0.002293 0.000000 0.000000 0.000000
# 2 -0.002355 0.017807 -0.004293 0.000000 0.000000 0.000000
# 3 -0.002293 -0.004293 0.010683 0.000000 0.000000 0.000000
# 4 0.000000 0.000000 0.000000 0.065094 0.000000 0.000000
# 5 0.000000 0.000000 0.000000 0.000000 0.297280 0.000000
# 6 0.000000 0.000000 0.000000 0.000000 0.000000 0.069225
#
#
# Mechanical properties :
#
#
# Convention : Reuss Voigt Hill
#
# Bulk Modulus (GPa) = 54.19587 61.39596 57.79592
# Shear Modulus (GPa) = 10.16337 21.69750 15.93043
#
# Velocity S-wave (km/s) = 2.38715 3.48791 2.98865
# Velocity P-wave (km/s) = 6.16320 7.11651 6.65694
#
# Compressibility (1/GPa) = 0.01845159
#
# Stress axis : x y z
#
# Youngs Moduli (GPa) = 127.49927 56.15888 93.60900
#
# Poissons Ratio (x) = 0.13224 0.21467
# Poissons Ratio (y) = 0.30023 0.40182
# Poissons Ratio (z) = 0.29238 0.24106
#
# Static dielectric constant tensor:
#      x y z
#    x 1.627000 0.000000 0.000000 
#    y 0.000000 1.628070 0.000000 
#    z 0.000000 0.000000 1.570440 
# 
# From -- ./inp_files/66757.got.cif
#   From: 2010.05.17/outbox.cif.g08.bks.cpg/sg63_34_cif.got.tgz:66757.got - 2010.06.03 15:47:04.
