data_PCOD9472261
_publ_section_title
;
Structure prediction by ZEFSAII (Michael W. Deem and Ramdas Pophale) SiO2 
 PCOD9472261
Probable space group: C M C M
;
_chemical_formula_sum "Si O2"
_cell_formula_units_Z 88
_cell_length_a 18.743451
_cell_length_b 30.299971
_cell_length_c 8.671229
_cell_angle_alpha 90.000000
_cell_angle_beta 90.000000
_cell_angle_gamma 90.000000
_cell_volume 4924.616590
_symmetry_space_group_name_H-M "C M C M"
_symmetry_group_IT_number 63
_symmetry_cell_setting 'orthorhombic'
loop_
_space_group_symop_operation_xyz
x,y,z
-x,-y,1/2+z
x,-y,-z
-x,y,1/2-z
-x,-y,-z
x,y,1/2-z
-x,y,z
x,-y,1/2+z
1/2+x,1/2+y,z
1/2-x,1/2-y,1/2+z
1/2+x,1/2-y,-z
1/2-x,1/2+y,1/2-z
1/2-x,1/2-y,-z
1/2+x,1/2+y,1/2-z
1/2-x,1/2+y,z
1/2+x,1/2-y,1/2+z
loop_
_atom_site_type_symbol
_atom_site_label
_atom_site_fract_x
_atom_site_fract_y
_atom_site_fract_z
Si Si1 0.211095 0.206986 0.068299
Si Si2 0.343410 0.450428 0.565110
Si Si3 0.416106 0.750413 0.571098
Si Si4 0.918852 0.348261 0.064061
Si Si5 0.500000 0.450138 0.564049
Si Si6 0.270784 0.116526 0.933816
O O1 0.223483 0.203277 0.250000
O O2 0.250000 0.250000 0.000000
O O3 0.128835 0.216780 0.030695
O O4 0.238561 0.163520 0.984223
O O5 0.337915 0.500000 0.500000
O O6 0.341958 0.452130 0.750000
O O7 0.422192 0.431628 0.517009
O O8 0.278273 0.420881 0.507551
O O9 0.393844 0.747295 0.750000
O O10 0.500000 0.741663 0.560888
O O11 0.405128 0.800538 0.512223
O O12 0.915983 0.342521 0.250000
O O13 0.854532 0.380904 0.020154
O O14 0.000000 0.361876 0.023796
O O15 0.500000 0.500000 0.500000
O O16 0.500000 0.451247 0.750000
O O17 0.267578 0.112000 0.750000
#
# Coordination Sequence:
#
# PCOD9472261 Si02
#       6
#    16  16  16  16   8  16
#     4  12  23  36  54  77 109 148 185 228 276 327
#     4  10  20  37  60  85 112 143 180 225 272 326
#     4  10  20  34  53  76 104 140 184 230 274 324
#     4   9  18  33  54  78 105 141 184 227 272 326
#     4   8  16  32  56  82 108 140 178 218 264 318
#     4  11  22  36  56  83 112 144 182 227 277 331
#
# _framework density 17.869412000000001
#
# number of rings (size 3 to 8) (size 9 to 14) (size 15 to 20)
#    0.000    1.818    1.818    3.273    0.000    2.545 
#    1.636    0.000    0.000    0.545    0.000    0.000 
#    0.000    0.000    0.000    0.000    0.000    0.000 
#
# Total GULP energy -245463.316208 kJ/mol
# GULP energy per Si atom -5578.711732 kJ/mol
# Density = 1.782874 g / cm^3
# Si number density = 17.869412 Si / 1000 Ang^3
#
#
#
# Elastic Constant Matrix: (Units=GPa)
#
#
# Indices 1 2 3 4 5 6 
#
# 1 141.9549 51.1646 30.7702 0.0000 0.0000 0.0000
# 2 51.1646 61.1399 12.7720 0.0000 0.0000 0.0000
# 3 30.7702 12.7720 39.5545 0.0000 0.0000 0.0000
# 4 0.0000 0.0000 0.0000 29.1794 0.0000 0.0000
# 5 0.0000 0.0000 0.0000 0.0000 25.7650 0.0000
# 6 0.0000 0.0000 0.0000 0.0000 0.0000 30.0185
#
#
#
# Elastic Compliance Matrix: (Units=1/GPa)
#
#
# Indices 1 2 3 4 5 6 
#
# 1 0.011337 -0.008198 -0.006172 0.000000 0.000000 0.000000
# 2 -0.008198 0.023467 -0.001200 0.000000 0.000000 0.000000
# 3 -0.006172 -0.001200 0.030471 0.000000 0.000000 0.000000
# 4 0.000000 0.000000 0.000000 0.034271 0.000000 0.000000
# 5 0.000000 0.000000 0.000000 0.000000 0.038812 0.000000
# 6 0.000000 0.000000 0.000000 0.000000 0.000000 0.033313
#
#
# Mechanical properties :
#
#
# Convention : Reuss Voigt Hill
#
# Bulk Modulus (GPa) = 29.29618 48.00699 38.65158
# Shear Modulus (GPa) = 23.34379 26.85541 25.09960
#
# Velocity S-wave (km/s) = 3.61827 3.88089 3.75188
# Velocity P-wave (km/s) = 5.82117 6.85606 6.35970
#
# Compressibility (1/GPa) = 0.03413414
#
# Stress axis : x y z
#
# Youngs Moduli (GPa) = 88.20492 42.61279 32.81849
#
# Poissons Ratio (x) = 0.34934 0.20257
# Poissons Ratio (y) = 0.72311 0.03938
# Poissons Ratio (z) = 0.54443 0.05114
#
# Static dielectric constant tensor:
#      x y z
#    x 1.690400 0.000000 0.000000 
#    y 0.000000 1.557730 0.000000 
#    z 0.000000 0.000000 1.603140 
# 
# From -- ./inp_files/6825.got.cif
#   From: 2010.05.17/outbox.cif.g08.bks.cpg/sg63_4_cif.got.tgz:6825.got - 2010.06.03 15:47:04.
