data_PCOD9472108
_publ_section_title
;
Structure prediction by ZEFSAII (Michael W. Deem and Ramdas Pophale) SiO2 
 PCOD9472108
Probable space group: C M C M
;
_chemical_formula_sum "Si O2"
_cell_formula_units_Z 80
_cell_length_a 23.752509
_cell_length_b 20.840027
_cell_length_c 9.970304
_cell_angle_alpha 90.000000
_cell_angle_beta 90.000000
_cell_angle_gamma 90.000000
_cell_volume 4935.329682
_symmetry_space_group_name_H-M "C M C M"
_symmetry_group_IT_number 63
_symmetry_cell_setting 'orthorhombic'
loop_
_space_group_symop_operation_xyz
x,y,z
-x,-y,1/2+z
x,-y,-z
-x,y,1/2-z
-x,-y,-z
x,y,1/2-z
-x,y,z
x,-y,1/2+z
1/2+x,1/2+y,z
1/2-x,1/2-y,1/2+z
1/2+x,1/2-y,-z
1/2-x,1/2+y,1/2-z
1/2-x,1/2-y,-z
1/2+x,1/2+y,1/2-z
1/2-x,1/2+y,z
1/2+x,1/2-y,1/2+z
loop_
_atom_site_type_symbol
_atom_site_label
_atom_site_fract_x
_atom_site_fract_y
_atom_site_fract_z
Si Si1 0.500000 0.590132 0.403301
Si Si2 0.813925 0.205729 0.250000
Si Si3 0.000000 0.753868 0.904019
Si Si4 0.200342 0.000000 0.000000
Si Si5 0.813606 0.304951 0.750000
Si Si6 0.897838 0.090911 0.597529
Si Si7 0.618910 0.738027 0.981620
Si Si8 0.742643 0.574686 0.250000
O O1 0.500000 0.566695 0.250000
O O2 0.500000 0.668088 0.397813
O O3 0.444877 0.572677 0.488088
O O4 0.748738 0.227586 0.250000
O O5 0.846557 0.228172 0.381230
O O6 0.808209 0.127877 0.250000
O O7 0.000000 0.731041 0.750000
O O8 0.942911 0.736300 0.980507
O O9 0.236057 0.032706 0.117375
O O10 0.159105 0.946987 0.065032
O O11 0.847659 0.282742 0.620357
O O12 0.797354 0.379968 0.750000
O O13 0.916083 0.077139 0.750000
O O14 0.887946 0.167210 0.582496
#
# Coordination Sequence:
#
# PCOD9472108 Si02
#       8
#     8   8   8   8   8  16  16   8
#     4   9  21  32  50  73 103 142 194 227 270 301
#     4  10  20  33  55  78 109 151 183 219 273 325
#     4   9  18  30  53  79 110 152 176 221 268 326
#     4  12  22  37  54  74 104 143 188 230 276 324
#     4  10  22  36  54  83 111 144 192 232 274 333
#     4  11  21  33  51  73 105 144 186 233 267 313
#     4  11  19  35  55  82 116 145 187 224 277 325
#     4  10  24  37  55  77 104 145 189 227 279 324
#
# _framework density 16.209657
#
# number of rings (size 3 to 8) (size 9 to 14) (size 15 to 20)
#    0.600    1.000    5.000    0.900    2.800    0.800 
#    0.000    1.000    0.000    0.000    0.000    0.000 
#    0.000    3.200    0.000    0.000    0.000    0.000 
#
# Total GULP energy -223187.854368 kJ/mol
# GULP energy per Si atom -5579.696359 kJ/mol
# Density = 1.617276 g / cm^3
# Si number density = 16.209657 Si / 1000 Ang^3
#
#
#
# Elastic Constant Matrix: (Units=GPa)
#
#
# Indices 1 2 3 4 5 6 
#
# 1 106.9969 39.7327 64.5805 0.0000 0.0000 0.0000
# 2 39.7327 63.4618 50.7402 0.0000 0.0000 0.0000
# 3 64.5805 50.7402 168.7803 0.0000 0.0000 0.0000
# 4 0.0000 0.0000 0.0000 19.5201 0.0000 0.0000
# 5 0.0000 0.0000 0.0000 0.0000 -0.4958 0.0000
# 6 0.0000 0.0000 0.0000 0.0000 0.0000 15.2280
#
#
#
# Elastic Compliance Matrix: (Units=1/GPa)
#
#
# Indices 1 2 3 4 5 6 
#
# 1 0.013564 -0.005717 -0.003471 0.000000 0.000000 0.000000
# 2 -0.005717 0.023153 -0.004773 0.000000 0.000000 0.000000
# 3 -0.003471 -0.004773 0.008688 0.000000 0.000000 0.000000
# 4 0.000000 0.000000 0.000000 0.051229 0.000000 0.000000
# 5 0.000000 0.000000 0.000000 0.000000 -2.016823 0.000000
# 6 0.000000 0.000000 0.000000 0.000000 0.000000 0.065669
#
#
# Mechanical properties :
#
#
# Convention : Reuss Voigt Hill
#
# Bulk Modulus (GPa) = 57.19958 72.14953 64.67455
# Shear Modulus (GPa) = -2.74609 19.12948 8.19169
#
# Velocity S-wave (km/s) = -1.30299 3.43903 2.25046
# Velocity P-wave (km/s) = 5.75328 7.77020 6.83653
#
# Compressibility (1/GPa) = 0.01748265
#
# Stress axis : x y z
#
# Youngs Moduli (GPa) = 73.72309 43.19101 115.10068
#
# Poissons Ratio (x) = 0.24692 0.39957
# Poissons Ratio (y) = 0.42147 0.54938
# Poissons Ratio (z) = 0.25593 0.20615
#
# Static dielectric constant tensor:
#      x y z
#    x 1.540650 0.000000 0.000000 
#    y 0.000000 1.535350 0.000000 
#    z 0.000000 0.000000 1.541350 
# 
# From -- ./inp_files/10396.got.cif
#   From: 2010.05.17/outbox.cif.g08.bks.cpg/sg63_6_cif.got.tgz:10396.got - 2010.06.03 15:47:04.
