data_PCOD9472557
_publ_section_title
;
Structure prediction by ZEFSAII (Michael W. Deem and Ramdas Pophale) SiO2 
 PCOD9472557
Probable space group: C M C M
;
_chemical_formula_sum "Si O2"
_cell_formula_units_Z 116
_cell_length_a 27.291377
_cell_length_b 8.688000
_cell_length_c 24.905681
_cell_angle_alpha 90.000000
_cell_angle_beta 90.000000
_cell_angle_gamma 90.000000
_cell_volume 5905.323344
_symmetry_space_group_name_H-M "C M C M"
_symmetry_group_IT_number 63
_symmetry_cell_setting 'orthorhombic'
loop_
_space_group_symop_operation_xyz
x,y,z
-x,-y,1/2+z
x,-y,-z
-x,y,1/2-z
-x,-y,-z
x,y,1/2-z
-x,y,z
x,-y,1/2+z
1/2+x,1/2+y,z
1/2-x,1/2-y,1/2+z
1/2+x,1/2-y,-z
1/2-x,1/2+y,1/2-z
1/2-x,1/2-y,-z
1/2+x,1/2+y,1/2-z
1/2-x,1/2+y,z
1/2+x,1/2-y,1/2+z
loop_
_atom_site_type_symbol
_atom_site_label
_atom_site_fract_x
_atom_site_fract_y
_atom_site_fract_z
Si Si1 0.000000 0.857513 0.250000
Si Si2 0.908368 0.859185 0.335692
Si Si3 0.183142 0.060851 0.154771
Si Si4 0.057842 0.967479 0.560259
Si Si5 0.367117 0.766538 0.431255
Si Si6 0.201565 0.670223 0.022509
Si Si7 0.842594 0.578896 0.130776
Si Si8 0.731973 0.875763 0.189890
O O1 0.044459 0.858180 0.203080
O O2 0.881718 0.694563 0.343509
O O3 0.865626 0.983433 0.319948
O O4 0.923897 0.913611 0.395258
O O5 0.166661 0.140671 0.099367
O O6 0.209005 0.206353 0.183624
O O7 0.223572 0.927026 0.151625
O O8 0.078957 0.800222 0.574105
O O9 0.000000 0.968723 0.560627
O O10 0.075378 0.000000 0.500000
O O11 0.346650 0.771445 0.491333
O O12 0.363326 0.931442 0.402365
O O13 0.190799 0.663449 0.085674
O O14 0.207526 0.500000 0.000000
O O15 0.250000 0.750000 0.000000
O O16 0.809947 0.499937 0.176625
O O17 0.750981 0.892562 0.250000
#
# Coordination Sequence:
#
# PCOD9472557 Si02
#       8
#     4  16  16  16  16  16  16  16
#     4  12  28  44  66  86 122 156 236 280 352 378
#     4  11  24  43  66  89 122 166 212 278 328 390
#     4  10  22  38  61  88 123 156 201 250 312 380
#     4  10  20  39  64  92 119 155 205 258 319 386
#     4   9  20  38  59  89 125 161 199 250 308 375
#     4  10  20  34  58  90 130 166 196 234 297 377
#     4  10  22  39  60  88 129 163 208 253 309 380
#     4  11  22  36  57  90 119 161 203 245 306 381
#
# _framework density 19.643293
#
# number of rings (size 3 to 8) (size 9 to 14) (size 15 to 20)
#    0.000    1.793    0.690    2.897    2.897    4.966 
#    1.241    0.000    0.000   10.345    0.000    0.000 
#    0.000    0.000    0.000    0.000    0.000    0.000 
#
# Total GULP energy -322906.549699 kJ/mol
# GULP energy per Si atom -5567.354305 kJ/mol
# Density = 1.959858 g / cm^3
# Si number density = 19.643293 Si / 1000 Ang^3
#
#
#
# Elastic Constant Matrix: (Units=GPa)
#
#
# Indices 1 2 3 4 5 6 
#
# 1 108.7999 76.6110 19.2959 0.0000 0.0000 0.0000
# 2 76.6110 110.0250 46.5905 0.0000 0.0000 0.0000
# 3 19.2959 46.5905 73.9728 0.0000 0.0000 0.0000
# 4 0.0000 0.0000 0.0000 5.5852 0.0000 0.0000
# 5 0.0000 0.0000 0.0000 0.0000 25.5287 0.0000
# 6 0.0000 0.0000 0.0000 0.0000 0.0000 23.1829
#
#
#
# Elastic Compliance Matrix: (Units=1/GPa)
#
#
# Indices 1 2 3 4 5 6 
#
# 1 0.019132 -0.015285 0.004636 0.000000 0.000000 0.000000
# 2 -0.015285 0.024606 -0.011510 0.000000 0.000000 0.000000
# 3 0.004636 -0.011510 0.019559 0.000000 0.000000 0.000000
# 4 0.000000 0.000000 0.000000 0.179046 0.000000 0.000000
# 5 0.000000 0.000000 0.000000 0.000000 0.039172 0.000000
# 6 0.000000 0.000000 0.000000 0.000000 0.000000 0.043135
#
#
# Mechanical properties :
#
#
# Convention : Reuss Voigt Hill
#
# Bulk Modulus (GPa) = 52.69156 64.19916 58.44536
# Shear Modulus (GPa) = 13.32293 20.87937 17.10115
#
# Velocity S-wave (km/s) = 2.60714 3.26379 2.95377
# Velocity P-wave (km/s) = 5.99544 6.85248 6.43824
#
# Compressibility (1/GPa) = 0.01897837
#
# Stress axis : x y z
#
# Youngs Moduli (GPa) = 52.26971 40.64087 51.12792
#
# Poissons Ratio (x) = 0.62118 -0.23704
# Poissons Ratio (y) = 0.79892 0.58851
# Poissons Ratio (z) = -0.24234 0.46780
#
# Static dielectric constant tensor:
#      x y z
#    x 1.712410 0.000000 0.000000 
#    y 0.000000 1.759060 0.000000 
#    z 0.000000 0.000000 1.734870 
# 
# From -- ./inp_files/70755.got.cif
#   From: 2010.05.17/outbox.cif.g08.bks.cpg/sg63_36_cif.got.tgz:70755.got - 2010.06.03 15:47:04.
