data_PCOD9472082
_publ_section_title
;
Structure prediction by ZEFSAII (Michael W. Deem and Ramdas Pophale) SiO2 
 PCOD9472082
Probable space group: C M C M
;
_chemical_formula_sum "Si O2"
_cell_formula_units_Z 104
_cell_length_a 19.868000
_cell_length_b 33.715829
_cell_length_c 9.050831
_cell_angle_alpha 90.000000
_cell_angle_beta 90.000000
_cell_angle_gamma 90.000000
_cell_volume 6062.844778
_symmetry_space_group_name_H-M "C M C M"
_symmetry_group_IT_number 63
_symmetry_cell_setting 'orthorhombic'
loop_
_space_group_symop_operation_xyz
x,y,z
-x,-y,1/2+z
x,-y,-z
-x,y,1/2-z
-x,-y,-z
x,y,1/2-z
-x,y,z
x,-y,1/2+z
1/2+x,1/2+y,z
1/2-x,1/2-y,1/2+z
1/2+x,1/2-y,-z
1/2-x,1/2+y,1/2-z
1/2-x,1/2-y,-z
1/2+x,1/2+y,1/2-z
1/2-x,1/2+y,z
1/2+x,1/2-y,1/2+z
loop_
_atom_site_type_symbol
_atom_site_label
_atom_site_fract_x
_atom_site_fract_y
_atom_site_fract_z
Si Si1 0.370788 0.078249 0.076319
Si Si2 0.000000 0.542588 0.575102
Si Si3 0.180008 0.346750 0.078830
Si Si4 0.828650 0.879846 0.424195
Si Si5 0.275386 0.457832 0.926281
Si Si6 0.177331 0.254936 0.075034
Si Si7 0.578708 0.691525 0.571683
O O1 0.384702 0.073858 0.250000
O O2 0.302733 0.053641 0.041118
O O3 0.433270 0.064149 0.981241
O O4 0.355078 0.123390 0.032858
O O5 0.000000 0.500000 0.500000
O O6 0.000000 0.539146 0.750000
O O7 0.165120 0.357778 0.250000
O O8 0.260202 0.353806 0.059273
O O9 0.160074 0.301364 0.056485
O O10 0.835356 0.889070 0.250000
O O11 0.818082 0.920767 0.511138
O O12 0.889394 0.851141 0.470277
O O13 0.282736 0.460275 0.750000
O O14 0.291401 0.500000 0.000000
O O15 0.182703 0.246920 0.250000
O O16 0.250000 0.250000 0.000000
O O17 0.123035 0.225810 0.002807
O O18 0.585612 0.694771 0.750000
O O19 0.500000 0.694283 0.534068
#
# Coordination Sequence:
#
# PCOD9472082 Si02
#       7
#    16   8  16  16  16  16  16
#     4  10  21  36  54  78 106 139 181 226 277 331
#     4  12  24  38  56  76 104 144 186 228 276 332
#     4   9  18  34  54  77 105 141 182 225 276 326
#     4   9  17  33  55  78 107 142 177 218 268 323
#     4  10  20  33  53  82 109 136 172 221 273 325
#     4  11  21  35  58  85 115 150 191 235 280 331
#     4  10  21  38  58  83 115 151 189 229 281 339
#
# _framework density 17.153663000000002
#
# number of rings (size 3 to 8) (size 9 to 14) (size 15 to 20)
#    0.000    2.000    1.538    2.538    0.000    5.231 
#    1.385    0.000    0.000    0.462    0.000    0.000 
#    0.000    0.000    0.000    0.000    0.000    0.000 
#
# Total GULP energy -290215.596840 kJ/mol
# GULP energy per Si atom -5581.069170 kJ/mol
# Density = 1.711462 g / cm^3
# Si number density = 17.153663 Si / 1000 Ang^3
#
#
#
# Elastic Constant Matrix: (Units=GPa)
#
#
# Indices 1 2 3 4 5 6 
#
# 1 105.3029 63.5160 56.4132 0.0000 0.0000 0.0000
# 2 63.5160 125.2794 59.9178 0.0000 0.0000 0.0000
# 3 56.4132 59.9178 69.3742 0.0000 0.0000 0.0000
# 4 0.0000 0.0000 0.0000 34.9265 0.0000 0.0000
# 5 0.0000 0.0000 0.0000 0.0000 21.5733 0.0000
# 6 0.0000 0.0000 0.0000 0.0000 0.0000 19.8036
#
#
#
# Elastic Compliance Matrix: (Units=1/GPa)
#
#
# Indices 1 2 3 4 5 6 
#
# 1 0.017714 -0.003564 -0.011326 0.000000 0.000000 0.000000
# 2 -0.003564 0.014317 -0.009468 0.000000 0.000000 0.000000
# 3 -0.011326 -0.009468 0.031802 0.000000 0.000000 0.000000
# 4 0.000000 0.000000 0.000000 0.028632 0.000000 0.000000
# 5 0.000000 0.000000 0.000000 0.000000 0.046354 0.000000
# 6 0.000000 0.000000 0.000000 0.000000 0.000000 0.050496
#
#
# Mechanical properties :
#
#
# Convention : Reuss Voigt Hill
#
# Bulk Modulus (GPa) = 66.14903 73.29450 69.72177
# Shear Modulus (GPa) = 20.57036 23.26800 21.91918
#
# Velocity S-wave (km/s) = 3.46668 3.68699 3.57853
# Velocity P-wave (km/s) = 7.39393 7.80680 7.60317
#
# Compressibility (1/GPa) = 0.01511738
#
# Stress axis : x y z
#
# Youngs Moduli (GPa) = 56.45322 69.84710 31.44452
#
# Poissons Ratio (x) = 0.24891 0.35616
# Poissons Ratio (y) = 0.20118 0.29770
# Poissons Ratio (z) = 0.63942 0.66128
#
# Static dielectric constant tensor:
#      x y z
#    x 1.563480 0.000000 0.000000 
#    y 0.000000 1.583500 0.000000 
#    z 0.000000 0.000000 1.574490 
# 
# From -- ./inp_files/9183.got.cif
#   From: 2010.05.17/outbox.cif.g08.bks.cpg/sg63_5_cif.got.tgz:9183.got - 2010.06.03 15:47:04.
