data_PCOD9472125
_publ_section_title
;
Structure prediction by ZEFSAII (Michael W. Deem and Ramdas Pophale) SiO2 
 PCOD9472125
Probable space group: C M C M
;
_chemical_formula_sum "Si O2"
_cell_formula_units_Z 116
_cell_length_a 25.321667
_cell_length_b 26.763936
_cell_length_c 7.491052
_cell_angle_alpha 90.000000
_cell_angle_beta 90.000000
_cell_angle_gamma 90.000000
_cell_volume 5076.741936
_symmetry_space_group_name_H-M "C M C M"
_symmetry_group_IT_number 63
_symmetry_cell_setting 'orthorhombic'
loop_
_space_group_symop_operation_xyz
x,y,z
-x,-y,1/2+z
x,-y,-z
-x,y,1/2-z
-x,-y,-z
x,y,1/2-z
-x,y,z
x,-y,1/2+z
1/2+x,1/2+y,z
1/2-x,1/2-y,1/2+z
1/2+x,1/2-y,-z
1/2-x,1/2+y,1/2-z
1/2-x,1/2-y,-z
1/2+x,1/2+y,1/2-z
1/2-x,1/2+y,z
1/2+x,1/2-y,1/2+z
loop_
_atom_site_type_symbol
_atom_site_label
_atom_site_fract_x
_atom_site_fract_y
_atom_site_fract_z
Si Si1 0.057010 0.209158 0.459445
Si Si2 0.699024 0.926727 0.465865
Si Si3 0.686645 0.553202 0.538375
Si Si4 0.105287 0.690190 0.465359
Si Si5 0.166091 0.832618 0.539884
Si Si6 0.416465 0.925242 0.544974
Si Si7 0.500000 0.043936 0.750000
Si Si8 0.780899 0.688726 0.043649
O O1 0.056535 0.195614 0.250000
O O2 0.063842 0.268727 0.474788
O O3 0.110998 0.186782 0.538367
O O4 0.000000 0.194196 0.535236
O O5 0.696655 0.927046 0.250000
O O6 0.753213 0.950773 0.531595
O O7 0.643472 0.944966 0.538456
O O8 0.706319 0.870160 0.533337
O O9 0.659352 0.500000 0.500000
O O10 0.688947 0.558420 0.750000
O O11 0.666408 0.606925 0.473275
O O12 0.108590 0.690424 0.250000
O O13 0.089083 0.633638 0.512459
O O14 0.163449 0.707733 0.535163
O O15 0.167340 0.820748 0.750000
O O16 0.221415 0.809186 0.465732
O O17 0.435590 0.927727 0.750000
O O18 0.454186 0.951288 0.405903
O O19 0.777603 0.704483 0.250000
#
# Coordination Sequence:
#
# PCOD9472125 Si02
#       8
#    16  16  16  16  16  16   4  16
#     4  10  22  35  50  70  99 143 190 230 272 321
#     4   9  16  30  49  75 109 139 170 212 267 333
#     4  10  20  33  57  89 115 134 163 206 266 338
#     4   9  19  32  47  71 101 136 184 234 280 324
#     4   9  18  35  54  74 104 141 176 218 273 332
#     4  10  21  34  50  75 108 148 192 242 290 323
#     4  12  22  32  52  74 106 152 196 248 274 330
#     4   8  15  29  49  70  98 136 173 219 275 329
#
# _framework density 22.849299999999999
#
# number of rings (size 3 to 8) (size 9 to 14) (size 15 to 20)
#    0.000    2.621    0.690    1.862    1.931    3.586 
#    0.000    0.000    0.000    0.414    0.000    0.483 
#    0.000    0.000    0.000    0.000    0.000    0.000 
#
# Total GULP energy -323188.068912 kJ/mol
# GULP energy per Si atom -5572.208085 kJ/mol
# Density = 2.279729 g / cm^3
# Si number density = 22.849300 Si / 1000 Ang^3
#
#
#
# Elastic Constant Matrix: (Units=GPa)
#
#
# Indices 1 2 3 4 5 6 
#
# 1 161.9613 32.7652 26.8185 0.0000 0.0000 0.0000
# 2 32.7652 69.8320 10.8142 0.0000 0.0000 0.0000
# 3 26.8185 10.8142 107.6107 0.0000 0.0000 0.0000
# 4 0.0000 0.0000 0.0000 5.8328 0.0000 0.0000
# 5 0.0000 0.0000 0.0000 0.0000 19.4562 0.0000
# 6 0.0000 0.0000 0.0000 0.0000 0.0000 -13.1199
#
#
#
# Elastic Compliance Matrix: (Units=1/GPa)
#
#
# Indices 1 2 3 4 5 6 
#
# 1 0.007036 -0.003078 -0.001444 0.000000 0.000000 0.000000
# 2 -0.003078 0.015893 -0.000830 0.000000 0.000000 0.000000
# 3 -0.001444 -0.000830 0.009736 0.000000 0.000000 0.000000
# 4 0.000000 0.000000 0.000000 0.171445 0.000000 0.000000
# 5 0.000000 0.000000 0.000000 0.000000 0.051397 0.000000
# 6 0.000000 0.000000 0.000000 0.000000 0.000000 -0.076220
#
#
# Mechanical properties :
#
#
# Convention : Reuss Voigt Hill
#
# Bulk Modulus (GPa) = 45.53558 53.35553 49.44556
# Shear Modulus (GPa) = 25.34059 20.36756 22.85408
#
# Velocity S-wave (km/s) = 3.33383 2.98885 3.16604
# Velocity P-wave (km/s) = 5.89840 5.94245 5.92047
#
# Compressibility (1/GPa) = 0.02196085
#
# Stress axis : x y z
#
# Youngs Moduli (GPa) = 142.12460 62.92203 102.71050
#
# Poissons Ratio (x) = 0.19365 0.14834
# Poissons Ratio (y) = 0.43741 0.08526
# Poissons Ratio (z) = 0.20526 0.05223
#
# Static dielectric constant tensor:
#      x y z
#    x 1.889760 0.000000 0.000000 
#    y 0.000000 1.901620 0.000000 
#    z 0.000000 0.000000 1.842510 
# 
# From -- ./inp_files/11158.got.cif
#   From: 2010.05.17/outbox.cif.g08.bks.cpg/sg63_6_cif.got.tgz:11158.got - 2010.06.03 15:47:04.
