data_PCOD9472863
_publ_section_title
;
Structure prediction by ZEFSAII (Michael W. Deem and Ramdas Pophale) SiO2 
 PCOD9472863
Probable space group: C M C M
;
_chemical_formula_sum "Si O2"
_cell_formula_units_Z 80
_cell_length_a 21.301759
_cell_length_b 13.952930
_cell_length_c 12.475204
_cell_angle_alpha 90.000000
_cell_angle_beta 90.000000
_cell_angle_gamma 90.000000
_cell_volume 3707.904487
_symmetry_space_group_name_H-M "C M C M"
_symmetry_group_IT_number 63
_symmetry_cell_setting 'orthorhombic'
loop_
_space_group_symop_operation_xyz
x,y,z
-x,-y,1/2+z
x,-y,-z
-x,y,1/2-z
-x,-y,-z
x,y,1/2-z
-x,y,z
x,-y,1/2+z
1/2+x,1/2+y,z
1/2-x,1/2-y,1/2+z
1/2+x,1/2-y,-z
1/2-x,1/2+y,1/2-z
1/2-x,1/2-y,-z
1/2+x,1/2+y,1/2-z
1/2-x,1/2+y,z
1/2+x,1/2-y,1/2+z
loop_
_atom_site_type_symbol
_atom_site_label
_atom_site_fract_x
_atom_site_fract_y
_atom_site_fract_z
Si Si1 0.668218 0.058566 0.871624
Si Si2 0.931340 0.893912 0.048446
Si Si3 0.572436 0.223063 0.875129
Si Si4 0.300698 0.348926 0.416803
Si Si5 0.267758 0.868042 0.625436
O O1 0.645391 0.043766 0.750000
O O2 0.682697 0.949896 0.908926
O O3 0.619711 0.139143 0.911737
O O4 0.738006 0.104349 0.869301
O O5 0.868320 0.885166 0.117557
O O6 0.000000 0.877859 0.099667
O O7 0.931670 0.000000 0.000000
O O8 0.587234 0.248220 0.750000
O O9 0.500000 0.189148 0.877483
O O10 0.575378 0.313769 0.954516
O O11 0.295985 0.236765 0.392652
O O12 0.290400 0.371703 0.543618
O O13 0.251371 0.881168 0.750000
#
# Coordination Sequence:
#
# PCOD9472863 Si02
#       5
#    16  16  16  16  16
#     4  10  20  35  58  86 111 139 180 226 273 325
#     4  10  21  36  53  75 104 139 180 224 269 318
#     4   9  18  34  56  81 108 138 175 222 273 324
#     4  11  21  35  56  78 109 147 181 222 272 322
#     4  10  21  35  54  83 113 140 178 225 270 322
#
# _framework density 21.575531000000002
#
# number of rings (size 3 to 8) (size 9 to 14) (size 15 to 20)
#    0.000    2.000    0.000    4.800    0.000    2.400 
#    0.000    3.000    0.000   10.800    0.000    0.000 
#    0.000    0.000    0.000    0.000    0.000    0.000 
#
# Total GULP energy -223097.072540 kJ/mol
# GULP energy per Si atom -5577.426813 kJ/mol
# Density = 2.152642 g / cm^3
# Si number density = 21.575531 Si / 1000 Ang^3
#
#
#
# Elastic Constant Matrix: (Units=GPa)
#
#
# Indices 1 2 3 4 5 6 
#
# 1 143.8380 45.8060 10.0377 0.0000 0.0000 0.0000
# 2 45.8060 150.1512 13.6109 0.0000 0.0000 0.0000
# 3 10.0377 13.6109 84.0545 0.0000 0.0000 0.0000
# 4 0.0000 0.0000 0.0000 23.5987 0.0000 0.0000
# 5 0.0000 0.0000 0.0000 0.0000 8.5141 0.0000
# 6 0.0000 0.0000 0.0000 0.0000 0.0000 20.9867
#
#
#
# Elastic Compliance Matrix: (Units=1/GPa)
#
#
# Indices 1 2 3 4 5 6 
#
# 1 0.007725 -0.002307 -0.000549 0.000000 0.000000 0.000000
# 2 -0.002307 0.007448 -0.000931 0.000000 0.000000 0.000000
# 3 -0.000549 -0.000931 0.012113 0.000000 0.000000 0.000000
# 4 0.000000 0.000000 0.000000 0.042375 0.000000 0.000000
# 5 0.000000 0.000000 0.000000 0.000000 0.117452 0.000000
# 6 0.000000 0.000000 0.000000 0.000000 0.000000 0.047649
#
#
# Mechanical properties :
#
#
# Convention : Reuss Voigt Hill
#
# Bulk Modulus (GPa) = 50.72635 57.43921 54.08278
# Shear Modulus (GPa) = 20.08780 31.19249 25.64015
#
# Velocity S-wave (km/s) = 3.05461 3.80641 3.45104
# Velocity P-wave (km/s) = 6.00025 6.78222 6.40318
#
# Compressibility (1/GPa) = 0.01971362
#
# Stress axis : x y z
#
# Youngs Moduli (GPa) = 129.44589 134.26280 82.55396
#
# Poissons Ratio (x) = 0.30974 0.04532
# Poissons Ratio (y) = 0.29862 0.07682
# Poissons Ratio (z) = 0.07106 0.12494
#
# Static dielectric constant tensor:
#      x y z
#    x 1.778110 0.000000 0.000000 
#    y 0.000000 1.775060 0.000000 
#    z 0.000000 0.000000 1.901260 
# 
# From -- ./inp_files/34057.got.cif
#   From: 2010.05.17/outbox.cif.g08.bks.cpg/sg63_18_cif.got.tgz:34057.got - 2010.06.03 15:47:04.
