data_PCOD9472867
_publ_section_title
;
Structure prediction by ZEFSAII (Michael W. Deem and Ramdas Pophale) SiO2 
 PCOD9472867
Probable space group: C M C M
;
_chemical_formula_sum "Si O2"
_cell_formula_units_Z 96
_cell_length_a 8.837491
_cell_length_b 25.479797
_cell_length_c 24.152936
_cell_angle_alpha 90.000000
_cell_angle_beta 90.000000
_cell_angle_gamma 90.000000
_cell_volume 5438.697183
_symmetry_space_group_name_H-M "C M C M"
_symmetry_group_IT_number 63
_symmetry_cell_setting 'orthorhombic'
loop_
_space_group_symop_operation_xyz
x,y,z
-x,-y,1/2+z
x,-y,-z
-x,y,1/2-z
-x,-y,-z
x,y,1/2-z
-x,y,z
x,-y,1/2+z
1/2+x,1/2+y,z
1/2-x,1/2-y,1/2+z
1/2+x,1/2-y,-z
1/2-x,1/2+y,1/2-z
1/2-x,1/2-y,-z
1/2+x,1/2+y,1/2-z
1/2-x,1/2+y,z
1/2+x,1/2-y,1/2+z
loop_
_atom_site_type_symbol
_atom_site_label
_atom_site_fract_x
_atom_site_fract_y
_atom_site_fract_z
Si Si1 0.818531 0.418195 0.941965
Si Si2 0.819213 0.143691 0.250000
Si Si3 0.318733 0.604998 0.560123
Si Si4 0.182407 0.773357 0.056257
Si Si5 0.181888 0.680935 0.135874
Si Si6 0.681205 0.982424 0.135484
Si Si7 0.681710 0.520751 0.250000
O O1 0.779483 0.366704 0.905959
O O2 0.780588 0.469310 0.905868
O O3 0.000000 0.418036 0.951488
O O4 0.736041 0.416133 0.000572
O O5 0.756480 0.170431 0.194730
O O6 0.772553 0.082278 0.250000
O O7 0.000000 0.145550 0.250000
O O8 0.500000 0.601656 0.563819
O O9 0.273063 0.666172 0.563749
O O10 0.244007 0.570051 0.607604
O O11 0.227064 0.735222 0.106601
O O12 0.000000 0.771410 0.052029
O O13 0.250000 0.750000 0.000000
O O14 0.000000 0.680353 0.142516
O O15 0.500000 0.980520 0.140369
O O16 0.753355 0.994366 0.194823
O O17 0.500000 0.518011 0.250000
#
# Coordination Sequence:
#
# PCOD9472867 Si02
#       7
#    16   8  16  16  16  16   8
#     4  10  20  35  58  86 116 151 191 234 282 343
#     4  11  23  37  58  89 120 147 184 238 295 340
#     4  11  23  37  56  86 121 155 191 237 293 342
#     4  10  21  37  59  85 114 151 193 235 284 339
#     4  10  20  37  60  85 115 152 192 233 281 339
#     4  11  23  39  59  84 115 153 197 236 281 347
#     4  11  23  39  60  85 116 149 186 238 293 344
#
# _framework density 17.651285000000001
#
# number of rings (size 3 to 8) (size 9 to 14) (size 15 to 20)
#    0.000    1.500    3.333    2.000    0.000    6.000 
#    0.000    0.833    0.000    2.000    0.000    0.000 
#    0.000    0.000    0.000    0.000    0.000    0.000 
#
# Total GULP energy -268245.322946 kJ/mol
# GULP energy per Si atom -5588.444228 kJ/mol
# Density = 1.761111 g / cm^3
# Si number density = 17.651285 Si / 1000 Ang^3
#
#
#
# Elastic Constant Matrix: (Units=GPa)
#
#
# Indices 1 2 3 4 5 6 
#
# 1 37.6432 51.5180 56.3490 0.0000 0.0000 0.0000
# 2 51.5180 154.2161 97.2514 0.0000 0.0000 0.0000
# 3 56.3490 97.2514 173.2912 0.0000 0.0000 0.0000
# 4 0.0000 0.0000 0.0000 32.7980 0.0000 0.0000
# 5 0.0000 0.0000 0.0000 0.0000 33.8073 0.0000
# 6 0.0000 0.0000 0.0000 0.0000 0.0000 25.4145
#
#
#
# Elastic Compliance Matrix: (Units=1/GPa)
#
#
# Indices 1 2 3 4 5 6 
#
# 1 0.065156 -0.013010 -0.013886 0.000000 0.000000 0.000000
# 2 -0.013010 0.012634 -0.002860 0.000000 0.000000 0.000000
# 3 -0.013886 -0.002860 0.011891 0.000000 0.000000 0.000000
# 4 0.000000 0.000000 0.000000 0.030490 0.000000 0.000000
# 5 0.000000 0.000000 0.000000 0.000000 0.029579 0.000000
# 6 0.000000 0.000000 0.000000 0.000000 0.000000 0.039348
#
#
# Mechanical properties :
#
#
# Convention : Reuss Voigt Hill
#
# Bulk Modulus (GPa) = 33.14528 86.15415 59.64971
# Shear Modulus (GPa) = 19.33010 29.07279 24.20144
#
# Velocity S-wave (km/s) = 3.31283 4.06281 3.70684
# Velocity P-wave (km/s) = 5.78375 8.42161 7.22410
#
# Compressibility (1/GPa) = 0.03017021
#
# Stress axis : x y z
#
# Youngs Moduli (GPa) = 15.34784 79.15195 84.09887
#
# Poissons Ratio (x) = 1.02974 1.16777
# Poissons Ratio (y) = 0.19967 0.24051
# Poissons Ratio (z) = 0.21311 0.22636
#
# Static dielectric constant tensor:
#      x y z
#    x 1.592110 0.000000 0.000000 
#    y 0.000000 1.600800 0.000000 
#    z 0.000000 0.000000 1.558610 
# 
# From -- ./inp_files/60054.got.cif
#   From: 2010.05.17/outbox.cif.g08.bks.cpg/sg63_31_cif.got.tgz:60054.got - 2010.06.03 15:47:04.
