data_PCOD9472585
_publ_section_title
;
Structure prediction by ZEFSAII (Michael W. Deem and Ramdas Pophale) SiO2 
 PCOD9472585
Probable space group: C M C M
;
_chemical_formula_sum "Si O2"
_cell_formula_units_Z 72
_cell_length_a 16.057823
_cell_length_b 29.457374
_cell_length_c 8.395802
_cell_angle_alpha 90.000000
_cell_angle_beta 90.000000
_cell_angle_gamma 90.000000
_cell_volume 3971.393158
_symmetry_space_group_name_H-M "C M C M"
_symmetry_group_IT_number 63
_symmetry_cell_setting 'orthorhombic'
loop_
_space_group_symop_operation_xyz
x,y,z
-x,-y,1/2+z
x,-y,-z
-x,y,1/2-z
-x,-y,-z
x,y,1/2-z
-x,y,z
x,-y,1/2+z
1/2+x,1/2+y,z
1/2-x,1/2-y,1/2+z
1/2+x,1/2-y,-z
1/2-x,1/2+y,1/2-z
1/2-x,1/2-y,-z
1/2+x,1/2+y,1/2-z
1/2-x,1/2+y,z
1/2+x,1/2-y,1/2+z
loop_
_atom_site_type_symbol
_atom_site_label
_atom_site_fract_x
_atom_site_fract_y
_atom_site_fract_z
Si Si1 0.594073 0.193646 0.057497
Si Si2 0.500000 0.948051 0.557863
Si Si3 0.906814 0.200685 0.555989
Si Si4 0.754248 0.139524 0.939904
Si Si5 0.316990 0.051431 0.440507
O O1 0.596237 0.190608 0.250000
O O2 0.500000 0.179695 0.008616
O O3 0.605763 0.246560 0.011679
O O4 0.669776 0.164842 0.990951
O O5 0.500000 0.945277 0.750000
O O6 0.409383 0.931251 0.504161
O O7 0.500000 0.000000 0.500000
O O8 0.905985 0.199945 0.750000
O O9 0.833303 0.168186 0.498678
O O10 0.000000 0.187097 0.505111
O O11 0.758470 0.138723 0.750000
O O12 0.748828 0.088112 0.000957
O O13 0.317589 0.050518 0.250000
O O14 0.304926 0.000000 0.500000
#
# Coordination Sequence:
#
# PCOD9472585 Si02
#       5
#    16   8  16  16  16
#     4   9  18  33  52  73 102 140 175 206 246 299
#     4   8  16  30  48  66  88 124 162 194 232 284
#     4   8  16  33  54  74  99 134 174 213 254 301
#     4  11  21  31  50  79 105 132 169 212 257 301
#     4  10  20  35  52  72 100 134 171 207 250 300
#
# _framework density 18.129659
#
# number of rings (size 3 to 8) (size 9 to 14) (size 15 to 20)
#    0.000    2.667    0.000    3.333    1.556    1.333 
#    0.000    1.111    0.000    6.000    0.000    0.000 
#    0.000    0.000    0.000    0.000    0.000    0.000 
#
# Total GULP energy -200713.191731 kJ/mol
# GULP energy per Si atom -5575.366437 kJ/mol
# Density = 1.808839 g / cm^3
# Si number density = 18.129659 Si / 1000 Ang^3
#
#
#
# Elastic Constant Matrix: (Units=GPa)
#
#
# Indices 1 2 3 4 5 6 
#
# 1 108.3423 82.5621 17.7546 0.0000 0.0000 0.0000
# 2 82.5621 106.3771 19.8336 0.0000 0.0000 0.0000
# 3 17.7546 19.8336 19.5239 0.0000 0.0000 0.0000
# 4 0.0000 0.0000 0.0000 26.2466 0.0000 0.0000
# 5 0.0000 0.0000 0.0000 0.0000 15.8513 0.0000
# 6 0.0000 0.0000 0.0000 0.0000 0.0000 30.9798
#
#
#
# Elastic Compliance Matrix: (Units=1/GPa)
#
#
# Indices 1 2 3 4 5 6 
#
# 1 0.022773 -0.017041 -0.003398 0.000000 0.000000 0.000000
# 2 -0.017041 0.024349 -0.009238 0.000000 0.000000 0.000000
# 3 -0.003398 -0.009238 0.063694 0.000000 0.000000 0.000000
# 4 0.000000 0.000000 0.000000 0.038100 0.000000 0.000000
# 5 0.000000 0.000000 0.000000 0.000000 0.063086 0.000000
# 6 0.000000 0.000000 0.000000 0.000000 0.000000 0.032279
#
#
# Mechanical properties :
#
#
# Convention : Reuss Voigt Hill
#
# Bulk Modulus (GPa) = 19.43203 52.72710 36.07957
# Shear Modulus (GPa) = 15.58647 22.22173 18.90410
#
# Velocity S-wave (km/s) = 2.93528 3.50481 3.23262
# Velocity P-wave (km/s) = 4.71482 6.74721 5.82041
#
# Compressibility (1/GPa) = 0.05146143
#
# Stress axis : x y z
#
# Youngs Moduli (GPa) = 43.91137 41.06903 15.70005
#
# Poissons Ratio (x) = 0.69987 0.05334
# Poissons Ratio (y) = 0.74831 0.14504
# Poissons Ratio (z) = 0.14920 0.37942
#
# Static dielectric constant tensor:
#      x y z
#    x 1.641540 0.000000 0.000000 
#    y 0.000000 1.618750 0.000000 
#    z 0.000000 0.000000 1.635550 
# 
# From -- ./inp_files/4584.got.cif
#   From: 2010.05.17/outbox.cif.g08.bks.cpg/sg63_3_cif.got.tgz:4584.got - 2010.06.03 15:47:04.
