data_PCOD9472952
_publ_section_title
;
Structure prediction by ZEFSAII (Michael W. Deem and Ramdas Pophale) SiO2 
 PCOD9472952
Probable space group: C M C M
;
_chemical_formula_sum "Si O2"
_cell_formula_units_Z 104
_cell_length_a 11.723403
_cell_length_b 25.688179
_cell_length_c 17.728567
_cell_angle_alpha 90.000000
_cell_angle_beta 90.000000
_cell_angle_gamma 90.000000
_cell_volume 5339.008917
_symmetry_space_group_name_H-M "C M C M"
_symmetry_group_IT_number 63
_symmetry_cell_setting 'orthorhombic'
loop_
_space_group_symop_operation_xyz
x,y,z
-x,-y,1/2+z
x,-y,-z
-x,y,1/2-z
-x,-y,-z
x,y,1/2-z
-x,y,z
x,-y,1/2+z
1/2+x,1/2+y,z
1/2-x,1/2-y,1/2+z
1/2+x,1/2-y,-z
1/2-x,1/2+y,1/2-z
1/2-x,1/2-y,-z
1/2+x,1/2+y,1/2-z
1/2-x,1/2+y,z
1/2+x,1/2-y,1/2+z
loop_
_atom_site_type_symbol
_atom_site_label
_atom_site_fract_x
_atom_site_fract_y
_atom_site_fract_z
Si Si1 0.000000 0.131266 0.560217
Si Si2 0.800191 0.854755 0.939232
Si Si3 0.636196 0.856492 0.430883
Si Si4 0.500000 0.270317 0.159880
Si Si5 0.500000 0.532892 0.836288
Si Si6 0.245320 0.751805 0.408463
Si Si7 0.790507 0.046075 0.335384
Si Si8 0.636091 0.974863 0.420816
O O1 0.891947 0.142603 0.506750
O O2 0.000000 0.170537 0.630203
O O3 0.000000 0.074818 0.597352
O O4 0.810818 0.801886 0.890851
O O5 0.810716 0.905662 0.889648
O O6 0.678149 0.854618 0.982088
O O7 0.500000 0.851548 0.425047
O O8 0.695875 0.807276 0.389674
O O9 0.672840 0.914981 0.406476
O O10 0.500000 0.265452 0.250000
O O11 0.382121 0.248565 0.124500
O O12 0.500000 0.554652 0.750000
O O13 0.609035 0.495833 0.843682
O O14 0.250000 0.750000 0.500000
O O15 0.786695 0.064554 0.250000
O O16 0.678163 0.014231 0.357677
O O17 0.500000 0.973135 0.425348
O O18 0.679275 0.000000 0.500000
#
# Coordination Sequence:
#
# PCOD9472952 Si02
#       8
#     8  16  16   8   8  16  16  16
#     4  12  22  40  66 105 118 178 213 278 320 404
#     4  11  23  36  65  92 127 169 226 262 323 398
#     4  10  20  35  63  93 121 163 217 272 312 385
#     4  12  25  43  67 103 134 167 224 288 336 380
#     4  10  24  41  60  92 136 166 203 275 341 381
#     4  10  23  40  64  94 131 174 220 267 332 394
#     4  11  24  41  60  90 129 170 210 269 336 395
#     4  10  20  37  60  88 120 161 213 259 313 381
#
# _framework density 19.479271000000001
#
# number of rings (size 3 to 8) (size 9 to 14) (size 15 to 20)
#    0.000    1.385    4.615    1.615    5.385    1.538 
#    0.000    0.000    0.000    1.385    0.000    0.000 
#    0.000    0.000    0.000    0.000    0.000    0.000 
#
# Total GULP energy -289981.584669 kJ/mol
# GULP energy per Si atom -5576.568936 kJ/mol
# Density = 1.943493 g / cm^3
# Si number density = 19.479271 Si / 1000 Ang^3
#
#
#
# Elastic Constant Matrix: (Units=GPa)
#
#
# Indices 1 2 3 4 5 6 
#
# 1 72.0999 40.6944 37.8507 0.0000 0.0000 0.0000
# 2 40.6944 123.8651 39.7652 0.0000 0.0000 0.0000
# 3 37.8507 39.7652 75.2228 0.0000 0.0000 0.0000
# 4 0.0000 0.0000 0.0000 23.6699 0.0000 0.0000
# 5 0.0000 0.0000 0.0000 0.0000 19.1500 0.0000
# 6 0.0000 0.0000 0.0000 0.0000 0.0000 14.8608
#
#
#
# Elastic Compliance Matrix: (Units=1/GPa)
#
#
# Indices 1 2 3 4 5 6 
#
# 1 0.020453 -0.004114 -0.008117 0.000000 0.000000 0.000000
# 2 -0.004114 0.010551 -0.003508 0.000000 0.000000 0.000000
# 3 -0.008117 -0.003508 0.019232 0.000000 0.000000 0.000000
# 4 0.000000 0.000000 0.000000 0.042248 0.000000 0.000000
# 5 0.000000 0.000000 0.000000 0.000000 0.052219 0.000000
# 6 0.000000 0.000000 0.000000 0.000000 0.000000 0.067291
#
#
# Mechanical properties :
#
#
# Convention : Reuss Voigt Hill
#
# Bulk Modulus (GPa) = 53.30584 56.42316 54.86450
# Shear Modulus (GPa) = 20.02217 21.72797 20.87507
#
# Velocity S-wave (km/s) = 3.20952 3.34344 3.27717
# Velocity P-wave (km/s) = 6.41557 6.62823 6.52277
#
# Compressibility (1/GPa) = 0.01875967
#
# Stress axis : x y z
#
# Youngs Moduli (GPa) = 48.89369 94.77900 51.99602
#
# Poissons Ratio (x) = 0.38989 0.42204
# Poissons Ratio (y) = 0.20113 0.18238
# Poissons Ratio (z) = 0.39686 0.33245
#
# Static dielectric constant tensor:
#      x y z
#    x 1.891710 0.000000 0.000000 
#    y 0.000000 1.754580 0.000000 
#    z 0.000000 0.000000 1.676880 
# 
# From -- ./inp_files/42839.got.cif
#   From: 2010.05.17/outbox.cif.g08.bks.cpg/sg63_22_cif.got.tgz:42839.got - 2010.06.03 15:47:04.
