data_PCOD9472091
_publ_section_title
;
Structure prediction by ZEFSAII (Michael W. Deem and Ramdas Pophale) SiO2 
 PCOD9472091
Probable space group: C M C M
;
_chemical_formula_sum "Si O2"
_cell_formula_units_Z 116
_cell_length_a 8.929627
_cell_length_b 24.733445
_cell_length_c 25.988995
_cell_angle_alpha 90.000000
_cell_angle_beta 90.000000
_cell_angle_gamma 90.000000
_cell_volume 5739.940826
_symmetry_space_group_name_H-M "C M C M"
_symmetry_group_IT_number 63
_symmetry_cell_setting 'orthorhombic'
loop_
_space_group_symop_operation_xyz
x,y,z
-x,-y,1/2+z
x,-y,-z
-x,y,1/2-z
-x,-y,-z
x,y,1/2-z
-x,y,z
x,-y,1/2+z
1/2+x,1/2+y,z
1/2-x,1/2-y,1/2+z
1/2+x,1/2-y,-z
1/2-x,1/2+y,1/2-z
1/2-x,1/2-y,-z
1/2+x,1/2+y,1/2-z
1/2-x,1/2+y,z
1/2+x,1/2-y,1/2+z
loop_
_atom_site_type_symbol
_atom_site_label
_atom_site_fract_x
_atom_site_fract_y
_atom_site_fract_z
Si Si1 0.680707 0.859721 0.966333
Si Si2 0.823481 0.949318 0.806111
Si Si3 0.500000 0.327892 0.250000
Si Si4 0.320619 0.028854 0.408981
Si Si5 0.835262 0.836242 0.142121
Si Si6 0.821200 0.411300 0.072193
Si Si7 0.824534 0.229876 0.397653
Si Si8 0.326828 0.832990 0.691865
O O1 0.500000 0.855649 0.964120
O O2 0.723734 0.913470 0.933303
O O3 0.750422 0.805574 0.942935
O O4 0.725364 0.873726 0.024493
O O5 0.804572 0.976041 0.750000
O O6 0.764143 0.979973 0.855393
O O7 0.724770 0.894826 0.805771
O O8 0.000000 0.936407 0.811390
O O9 0.370982 0.328936 0.202938
O O10 0.500000 0.031735 0.400914
O O11 0.290332 0.974136 0.440507
O O12 0.754442 0.890795 0.124371
O O13 0.744615 0.787601 0.116195
O O14 0.000000 0.836477 0.117739
O O15 0.000000 0.406552 0.077376
O O16 0.784276 0.195997 0.346436
O O17 0.000000 0.234436 0.406673
O O18 0.321659 0.810671 0.750000
O O19 0.500000 0.828167 0.674044
#
# Coordination Sequence:
#
# PCOD9472091 Si02
#       8
#    16  16   4  16  16  16  16  16
#     4  10  21  39  64  94 129 172 214 259 321 387
#     4  10  20  34  51  81 121 161 205 258 316 377
#     4   8  24  48  74  92 122 164 228 256 310 398
#     4  10  20  37  62  90 125 169 216 266 321 382
#     4  10  23  45  68  91 122 163 216 256 318 380
#     4  10  22  42  66  94 126 166 221 273 316 370
#     4  12  24  37  60  95 131 163 205 264 321 382
#     4  10  20  33  54  80 116 161 201 247 311 382
#
# _framework density 20.209267000000001
#
# number of rings (size 3 to 8) (size 9 to 14) (size 15 to 20)
#    0.414    1.379    1.379    2.897    0.966    4.966 
#    1.241    1.034    0.000    2.483    0.000    0.000 
#    0.000    0.000    0.000    0.000    0.000    0.000 
#
# Total GULP energy -322936.631083 kJ/mol
# GULP energy per Si atom -5567.872950 kJ/mol
# Density = 2.016327 g / cm^3
# Si number density = 20.209267 Si / 1000 Ang^3
#
#
#
# Elastic Constant Matrix: (Units=GPa)
#
#
# Indices 1 2 3 4 5 6 
#
# 1 46.9124 25.7041 23.5983 0.0000 0.0000 0.0000
# 2 25.7041 72.2481 30.0250 0.0000 0.0000 0.0000
# 3 23.5983 30.0250 84.7500 0.0000 0.0000 0.0000
# 4 0.0000 0.0000 0.0000 11.4814 0.0000 0.0000
# 5 0.0000 0.0000 0.0000 0.0000 33.4894 0.0000
# 6 0.0000 0.0000 0.0000 0.0000 0.0000 19.2814
#
#
#
# Elastic Compliance Matrix: (Units=1/GPa)
#
#
# Indices 1 2 3 4 5 6 
#
# 1 0.028201 -0.007939 -0.005040 0.000000 0.000000 0.000000
# 2 -0.007939 0.018466 -0.004331 0.000000 0.000000 0.000000
# 3 -0.005040 -0.004331 0.014737 0.000000 0.000000 0.000000
# 4 0.000000 0.000000 0.000000 0.087098 0.000000 0.000000
# 5 0.000000 0.000000 0.000000 0.000000 0.029860 0.000000
# 6 0.000000 0.000000 0.000000 0.000000 0.000000 0.051863
#
#
# Mechanical properties :
#
#
# Convention : Reuss Voigt Hill
#
# Bulk Modulus (GPa) = 37.33595 40.28503 38.81049
# Shear Modulus (GPa) = 18.26323 21.15597 19.70960
#
# Velocity S-wave (km/s) = 3.00943 3.23901 3.12633
# Velocity P-wave (km/s) = 5.53085 5.82799 5.68136
#
# Compressibility (1/GPa) = 0.02678384
#
# Stress axis : x y z
#
# Youngs Moduli (GPa) = 35.45922 54.15448 67.85493
#
# Poissons Ratio (x) = 0.42992 0.34199
# Poissons Ratio (y) = 0.28150 0.29391
# Poissons Ratio (z) = 0.17872 0.23457
#
# Static dielectric constant tensor:
#      x y z
#    x 1.671940 0.000000 0.000000 
#    y 0.000000 1.746580 0.000000 
#    z 0.000000 0.000000 1.759370 
# 
# From -- ./inp_files/67466.got.cif
#   From: 2010.05.17/outbox.cif.g08.bks.cpg/sg63_34_cif.got.tgz:67466.got - 2010.06.03 15:47:04.
