data_PCOD9472466
_publ_section_title
;
Structure prediction by ZEFSAII (Michael W. Deem and Ramdas Pophale) SiO2 
 PCOD9472466
Probable space group: C M C M
;
_chemical_formula_sum "Si O2"
_cell_formula_units_Z 96
_cell_length_a 8.818069
_cell_length_b 25.827020
_cell_length_c 23.903246
_cell_angle_alpha 90.000000
_cell_angle_beta 90.000000
_cell_angle_gamma 90.000000
_cell_volume 5443.831480
_symmetry_space_group_name_H-M "C M C M"
_symmetry_group_IT_number 63
_symmetry_cell_setting 'orthorhombic'
loop_
_space_group_symop_operation_xyz
x,y,z
-x,-y,1/2+z
x,-y,-z
-x,y,1/2-z
-x,-y,-z
x,y,1/2-z
-x,y,z
x,-y,1/2+z
1/2+x,1/2+y,z
1/2-x,1/2-y,1/2+z
1/2+x,1/2-y,-z
1/2-x,1/2+y,1/2-z
1/2-x,1/2-y,-z
1/2+x,1/2+y,1/2-z
1/2-x,1/2+y,z
1/2+x,1/2-y,1/2+z
loop_
_atom_site_type_symbol
_atom_site_label
_atom_site_fract_x
_atom_site_fract_y
_atom_site_fract_z
Si Si1 0.179803 0.651789 0.615849
Si Si2 0.181124 0.058546 0.684723
Si Si3 0.182128 0.553866 0.314755
Si Si4 0.181734 0.347458 0.888189
Si Si5 0.319894 0.745020 0.684244
Si Si6 0.680655 0.307834 0.498287
O O1 0.240197 0.599692 0.644554
O O2 0.226389 0.699202 0.656142
O O3 0.257689 0.663424 0.556545
O O4 0.000000 0.649825 0.608836
O O5 0.219657 0.069811 0.750000
O O6 0.000000 0.062016 0.679108
O O7 0.236940 0.000332 0.673021
O O8 0.215662 0.568110 0.250000
O O9 0.225575 0.600034 0.356273
O O10 0.000000 0.546777 0.318621
O O11 0.210590 0.298623 0.847615
O O12 0.000000 0.348935 0.898386
O O13 0.266606 0.337331 0.945982
O O14 0.288784 0.749655 0.750000
O O15 0.500000 0.733504 0.677560
O O16 0.500000 0.303676 0.495780
O O17 0.750000 0.250000 0.500000
#
# Coordination Sequence:
#
# PCOD9472466 Si02
#       6
#    16  16  16  16  16  16
#     4  12  24  38  58  84 114 151 195 243 291 343
#     4  10  21  38  60  86 118 156 194 237 291 345
#     4   9  18  35  60  89 120 155 193 233 282 342
#     4  10  20  36  59  86 118 154 193 235 284 344
#     4  10  20  34  55  84 118 153 187 230 286 347
#     4  12  24  40  60  83 114 154 196 240 289 346
#
# _framework density 17.634637999999999
#
# number of rings (size 3 to 8) (size 9 to 14) (size 15 to 20)
#    0.000    1.500    1.667    4.500    0.000    6.000 
#    0.000    0.833    0.000    8.000    0.000    0.000 
#    0.000    0.000    0.000    0.000    0.000    0.000 
#
# Total GULP energy -268283.758644 kJ/mol
# GULP energy per Si atom -5589.244972 kJ/mol
# Density = 1.759450 g / cm^3
# Si number density = 17.634638 Si / 1000 Ang^3
#
#
#
# Elastic Constant Matrix: (Units=GPa)
#
#
# Indices 1 2 3 4 5 6 
#
# 1 96.9616 74.7319 81.8025 0.0000 0.0000 0.0000
# 2 74.7319 130.5986 91.7655 0.0000 0.0000 0.0000
# 3 81.8025 91.7655 145.3036 0.0000 0.0000 0.0000
# 4 0.0000 0.0000 0.0000 8.5866 0.0000 0.0000
# 5 0.0000 0.0000 0.0000 0.0000 30.7427 0.0000
# 6 0.0000 0.0000 0.0000 0.0000 0.0000 30.2777
#
#
#
# Elastic Compliance Matrix: (Units=1/GPa)
#
#
# Indices 1 2 3 4 5 6 
#
# 1 0.022945 -0.007287 -0.008316 0.000000 0.000000 0.000000
# 2 -0.007287 0.016080 -0.006053 0.000000 0.000000 0.000000
# 3 -0.008316 -0.006053 0.015386 0.000000 0.000000 0.000000
# 4 0.000000 0.000000 0.000000 0.116461 0.000000 0.000000
# 5 0.000000 0.000000 0.000000 0.000000 0.032528 0.000000
# 6 0.000000 0.000000 0.000000 0.000000 0.000000 0.033028
#
#
# Mechanical properties :
#
#
# Convention : Reuss Voigt Hill
#
# Bulk Modulus (GPa) = 90.08431 96.60706 93.34568
# Shear Modulus (GPa) = 17.64054 22.22565 19.93310
#
# Velocity S-wave (km/s) = 3.16624 3.55398 3.36570
# Velocity P-wave (km/s) = 8.03501 8.47009 8.25542
#
# Compressibility (1/GPa) = 0.01110071
#
# Stress axis : x y z
#
# Youngs Moduli (GPa) = 43.58227 62.19017 64.99319
#
# Poissons Ratio (x) = 0.45317 0.54046
# Poissons Ratio (y) = 0.31757 0.39339
# Poissons Ratio (z) = 0.36241 0.37642
#
# Static dielectric constant tensor:
#      x y z
#    x 1.593700 0.000000 0.000000 
#    y 0.000000 1.570310 0.000000 
#    z 0.000000 0.000000 1.577940 
# 
# From -- ./inp_files/59913.got.cif
#   From: 2010.05.17/outbox.cif.g08.bks.cpg/sg63_30_cif.got.tgz:59913.got - 2010.06.03 15:47:04.
