data_PCOD9472099
_publ_section_title
;
Structure prediction by ZEFSAII (Michael W. Deem and Ramdas Pophale) SiO2 
 PCOD9472099
Probable space group: C M C M
;
_chemical_formula_sum "Si O2"
_cell_formula_units_Z 100
_cell_length_a 21.324271
_cell_length_b 33.500695
_cell_length_c 7.609811
_cell_angle_alpha 90.000000
_cell_angle_beta 90.000000
_cell_angle_gamma 90.000000
_cell_volume 5436.280793
_symmetry_space_group_name_H-M "C M C M"
_symmetry_group_IT_number 63
_symmetry_cell_setting 'orthorhombic'
loop_
_space_group_symop_operation_xyz
x,y,z
-x,-y,1/2+z
x,-y,-z
-x,y,1/2-z
-x,-y,-z
x,y,1/2-z
-x,y,z
x,-y,1/2+z
1/2+x,1/2+y,z
1/2-x,1/2-y,1/2+z
1/2+x,1/2-y,-z
1/2-x,1/2+y,1/2-z
1/2-x,1/2-y,-z
1/2+x,1/2+y,1/2-z
1/2-x,1/2+y,z
1/2+x,1/2-y,1/2+z
loop_
_atom_site_type_symbol
_atom_site_label
_atom_site_fract_x
_atom_site_fract_y
_atom_site_fract_z
Si Si1 0.353580 0.833353 0.962706
Si Si2 0.769195 0.879436 0.544006
Si Si3 0.500000 0.665918 0.750000
Si Si4 0.692301 0.046250 0.958819
Si Si5 0.609866 0.335327 0.545836
Si Si6 0.930552 0.408980 0.041572
Si Si7 0.823817 0.753891 0.039861
O O1 0.352158 0.833682 0.750000
O O2 0.288338 0.852973 0.029764
O O3 0.356231 0.787516 0.018700
O O4 0.408520 0.863295 0.017317
O O5 0.771148 0.869848 0.750000
O O6 0.747634 0.924973 0.523607
O O7 0.837438 0.867066 0.480706
O O8 0.554434 0.666143 0.593865
O O9 0.690846 0.050978 0.750000
O O10 0.626207 0.063837 0.030680
O O11 0.699790 0.000000 0.000000
O O12 0.591349 0.343831 0.750000
O O13 0.645833 0.292789 0.543837
O O14 0.933623 0.416699 0.250000
O O15 0.000000 0.415981 0.967947
O O16 0.831162 0.757340 0.250000
O O17 0.750000 0.750000 0.000000
#
# Coordination Sequence:
#
# PCOD9472099 Si02
#       7
#    16  16   4  16  16  16  16
#     4   9  18  32  51  77 108 143 190 248 296 337
#     4   9  18  35  58  83 112 143 185 240 289 345
#     4  12  26  44  60  86 126 160 198 244 288 374
#     4  10  20  33  54  83 115 145 181 238 293 345
#     4  11  23  41  62  87 120 160 200 246 301 359
#     4   9  19  35  50  70 105 152 201 237 281 344
#     4  11  20  34  56  84 116 152 200 257 307 352
#
# _framework density 18.394929999999999
#
# number of rings (size 3 to 8) (size 9 to 14) (size 15 to 20)
#    0.000    2.080    2.400    1.200    1.120    2.560 
#    1.440    0.000    0.000    0.000    0.000    0.560 
#    0.000    0.000    0.000    0.000    0.000    0.000 
#
# Total GULP energy -278388.966646 kJ/mol
# GULP energy per Si atom -5567.779333 kJ/mol
# Density = 1.835306 g / cm^3
# Si number density = 18.394930 Si / 1000 Ang^3
#
#
#
# Elastic Constant Matrix: (Units=GPa)
#
#
# Indices 1 2 3 4 5 6 
#
# 1 134.0623 52.3556 30.5757 0.0000 0.0000 0.0000
# 2 52.3556 106.9900 -0.5783 0.0000 0.0000 0.0000
# 3 30.5757 -0.5783 74.4008 0.0000 0.0000 0.0000
# 4 0.0000 0.0000 0.0000 20.2128 0.0000 0.0000
# 5 0.0000 0.0000 0.0000 0.0000 26.6921 0.0000
# 6 0.0000 0.0000 0.0000 0.0000 0.0000 7.7787
#
#
#
# Elastic Compliance Matrix: (Units=1/GPa)
#
#
# Indices 1 2 3 4 5 6 
#
# 1 0.010456 -0.005140 -0.004337 0.000000 0.000000 0.000000
# 2 -0.005140 0.011874 0.002205 0.000000 0.000000 0.000000
# 3 -0.004337 0.002205 0.015240 0.000000 0.000000 0.000000
# 4 0.000000 0.000000 0.000000 0.049474 0.000000 0.000000
# 5 0.000000 0.000000 0.000000 0.000000 0.037464 0.000000
# 6 0.000000 0.000000 0.000000 0.000000 0.000000 0.128556
#
#
# Mechanical properties :
#
#
# Convention : Reuss Voigt Hill
#
# Bulk Modulus (GPa) = 43.43048 53.35101 48.39074
# Shear Modulus (GPa) = 18.16314 26.47673 22.31993
#
# Velocity S-wave (km/s) = 3.14570 3.79799 3.48713
# Velocity P-wave (km/s) = 6.07085 6.94975 6.52511
#
# Compressibility (1/GPa) = 0.02302530
#
# Stress axis : x y z
#
# Youngs Moduli (GPa) = 95.64242 84.21908 65.61640
#
# Poissons Ratio (x) = 0.43288 0.28456
# Poissons Ratio (y) = 0.49159 -0.14466
# Poissons Ratio (z) = 0.41478 -0.18567
#
# Static dielectric constant tensor:
#      x y z
#    x 1.640490 0.000000 0.000000 
#    y 0.000000 1.693070 0.000000 
#    z 0.000000 0.000000 1.675090 
# 
# From -- ./inp_files/9133.got.cif
#   From: 2010.05.17/outbox.cif.g08.bks.cpg/sg63_5_cif.got.tgz:9133.got - 2010.06.03 15:47:04.
