data_PCOD9472045
_publ_section_title
;
Structure prediction by ZEFSAII (Michael W. Deem and Ramdas Pophale) SiO2 
 PCOD9472045
Probable space group: C M C M
;
_chemical_formula_sum "Si O2"
_cell_formula_units_Z 72
_cell_length_a 26.825819
_cell_length_b 5.694579
_cell_length_c 22.881414
_cell_angle_alpha 90.000000
_cell_angle_beta 90.000000
_cell_angle_gamma 90.000000
_cell_volume 3495.404743
_symmetry_space_group_name_H-M "C M C M"
_symmetry_group_IT_number 63
_symmetry_cell_setting 'orthorhombic'
loop_
_space_group_symop_operation_xyz
x,y,z
-x,-y,1/2+z
x,-y,-z
-x,y,1/2-z
-x,-y,-z
x,y,1/2-z
-x,y,z
x,-y,1/2+z
1/2+x,1/2+y,z
1/2-x,1/2-y,1/2+z
1/2+x,1/2-y,-z
1/2-x,1/2+y,1/2-z
1/2-x,1/2-y,-z
1/2+x,1/2+y,1/2-z
1/2-x,1/2+y,z
1/2+x,1/2-y,1/2+z
loop_
_atom_site_type_symbol
_atom_site_label
_atom_site_fract_x
_atom_site_fract_y
_atom_site_fract_z
Si Si1 0.943485 0.847846 0.575598
Si Si2 0.722764 0.509730 0.069941
Si Si3 0.130303 0.777928 0.106739
Si Si4 0.878122 0.500000 0.500000
Si Si5 0.556849 0.998993 0.181746
O O1 0.912090 0.688959 0.532213
O O2 0.941446 0.725432 0.639289
O O3 0.000000 0.857301 0.556963
O O4 0.918200 0.097709 0.580064
O O5 0.744606 0.771635 0.081199
O O6 0.673481 0.470759 0.109892
O O7 0.710774 0.500000 0.000000
O O8 0.150694 0.608286 0.055051
O O9 0.105163 0.650049 0.161645
O O10 0.560159 0.943361 0.250000
O O11 0.500000 0.103424 0.172395
#
# Coordination Sequence:
#
# PCOD9472045 Si02
#       5
#    16  16  16   8  16
#     4  10  20  33  52  80 116 156 191 233 292 362
#     4  10  23  38  61  89 123 162 205 253 307 365
#     4  11  22  35  58  83 116 153 198 250 304 370
#     4  10  21  32  50  80 122 150 188 234 297 362
#     4   9  20  38  59  85 116 151 197 250 304 366
#
# _framework density 20.598472000000001
#
# number of rings (size 3 to 8) (size 9 to 14) (size 15 to 20)
#    0.000    2.000    0.000    3.000   10.889    4.444 
#    0.000    2.222    0.000    1.333    0.000    0.000 
#    0.000    0.000    0.000    0.000    0.000    0.000 
#
# Total GULP energy -200607.186533 kJ/mol
# GULP energy per Si atom -5572.421848 kJ/mol
# Density = 2.055159 g / cm^3
# Si number density = 20.598472 Si / 1000 Ang^3
#
#
#
# Elastic Constant Matrix: (Units=GPa)
#
#
# Indices 1 2 3 4 5 6 
#
# 1 67.6414 18.9189 22.3180 0.0000 0.0000 0.0000
# 2 18.9189 51.6865 29.2476 0.0000 0.0000 0.0000
# 3 22.3180 29.2476 116.4083 0.0000 0.0000 0.0000
# 4 0.0000 0.0000 0.0000 13.5184 0.0000 0.0000
# 5 0.0000 0.0000 0.0000 0.0000 32.0177 0.0000
# 6 0.0000 0.0000 0.0000 0.0000 0.0000 37.0649
#
#
#
# Elastic Compliance Matrix: (Units=1/GPa)
#
#
# Indices 1 2 3 4 5 6 
#
# 1 0.016845 -0.005057 -0.001959 0.000000 0.000000 0.000000
# 2 -0.005057 0.024072 -0.005079 0.000000 0.000000 0.000000
# 3 -0.001959 -0.005079 0.010242 0.000000 0.000000 0.000000
# 4 0.000000 0.000000 0.000000 0.073973 0.000000 0.000000
# 5 0.000000 0.000000 0.000000 0.000000 0.031233 0.000000
# 6 0.000000 0.000000 0.000000 0.000000 0.000000 0.026980
#
#
# Mechanical properties :
#
#
# Convention : Reuss Voigt Hill
#
# Bulk Modulus (GPa) = 37.07876 41.85612 39.46744
# Shear Modulus (GPa) = 23.09217 27.53699 25.31458
#
# Velocity S-wave (km/s) = 3.35186 3.66026 3.50945
# Velocity P-wave (km/s) = 5.74628 6.18283 5.96855
#
# Compressibility (1/GPa) = 0.02696962
#
# Stress axis : x y z
#
# Youngs Moduli (GPa) = 59.36604 41.54147 97.63713
#
# Poissons Ratio (x) = 0.21009 0.19126
# Poissons Ratio (y) = 0.30023 0.49586
# Poissons Ratio (z) = 0.11629 0.21097
#
# Static dielectric constant tensor:
#      x y z
#    x 1.808030 0.000000 0.000000 
#    y 0.000000 1.809130 0.000000 
#    z 0.000000 0.000000 1.733510 
# 
# From -- ./inp_files/65273.got.cif
#   From: 2010.05.17/outbox.cif.g08.bks.cpg/sg63_33_cif.got.tgz:65273.got - 2010.06.03 15:47:04.
