data_PCOD9472945
_publ_section_title
;
Structure prediction by ZEFSAII (Michael W. Deem and Ramdas Pophale) SiO2 
 PCOD9472945
Probable space group: C M C M
;
_chemical_formula_sum "Si O2"
_cell_formula_units_Z 96
_cell_length_a 22.568915
_cell_length_b 13.973187
_cell_length_c 14.552036
_cell_angle_alpha 90.000000
_cell_angle_beta 90.000000
_cell_angle_gamma 90.000000
_cell_volume 4589.125266
_symmetry_space_group_name_H-M "C M C M"
_symmetry_group_IT_number 63
_symmetry_cell_setting 'orthorhombic'
loop_
_space_group_symop_operation_xyz
x,y,z
-x,-y,1/2+z
x,-y,-z
-x,y,1/2-z
-x,-y,-z
x,y,1/2-z
-x,y,z
x,-y,1/2+z
1/2+x,1/2+y,z
1/2-x,1/2-y,1/2+z
1/2+x,1/2-y,-z
1/2-x,1/2+y,1/2-z
1/2-x,1/2-y,-z
1/2+x,1/2+y,1/2-z
1/2-x,1/2+y,z
1/2+x,1/2-y,1/2+z
loop_
_atom_site_type_symbol
_atom_site_label
_atom_site_fract_x
_atom_site_fract_y
_atom_site_fract_z
Si Si1 0.107882 0.160368 0.144362
Si Si2 0.158461 0.364771 0.853743
Si Si3 0.731535 0.249140 0.893950
Si Si4 0.372980 0.443733 0.140096
Si Si5 0.761935 0.463148 0.142091
Si Si6 0.931588 0.238193 0.957996
O O1 0.092548 0.181973 0.250000
O O2 0.178205 0.180234 0.130719
O O3 0.097395 0.047584 0.127465
O O4 0.076604 0.222965 0.066843
O O5 0.136944 0.386116 0.750000
O O6 0.208139 0.281887 0.846344
O O7 0.195145 0.454479 0.894530
O O8 0.107434 0.324937 0.918704
O O9 0.712131 0.142757 0.867407
O O10 0.750000 0.250000 0.000000
O O11 0.371935 0.424081 0.250000
O O12 0.305064 0.454285 0.105705
O O13 0.405430 0.358156 0.088632
O O14 0.755473 0.487623 0.250000
O O15 0.000000 0.249305 0.934367
#
# Coordination Sequence:
#
# PCOD9472945 Si02
#       6
#    16  16  16  16  16  16
#     4  11  23  40  61  90 127 170 221 278 338 395
#     4  11  22  39  64  97 132 169 212 269 336 397
#     4  12  21  36  64  99 133 170 208 273 339 395
#     4  10  20  36  62  95 131 169 210 268 337 400
#     4  10  20  35  61  97 136 168 207 267 334 399
#     4  12  26  43  62  92 133 181 229 271 321 395
#
# _framework density 20.91902
#
# number of rings (size 3 to 8) (size 9 to 14) (size 15 to 20)
#    0.000    1.000    5.000    2.500    0.000    3.667 
#    0.000    1.667    0.000    2.000    0.000    2.333 
#    0.000    0.000    0.000    0.000    0.000    0.000 
#
# Total GULP energy -268438.327512 kJ/mol
# GULP energy per Si atom -5592.465156 kJ/mol
# Density = 2.087141 g / cm^3
# Si number density = 20.919020 Si / 1000 Ang^3
#
#
#
# Elastic Constant Matrix: (Units=GPa)
#
#
# Indices 1 2 3 4 5 6 
#
# 1 115.9406 48.9107 20.6610 0.0000 0.0000 0.0000
# 2 48.9107 95.0075 19.0030 0.0000 0.0000 0.0000
# 3 20.6610 19.0030 87.2841 0.0000 0.0000 0.0000
# 4 0.0000 0.0000 0.0000 24.2817 0.0000 0.0000
# 5 0.0000 0.0000 0.0000 0.0000 -11.3125 0.0000
# 6 0.0000 0.0000 0.0000 0.0000 0.0000 13.3695
#
#
#
# Elastic Compliance Matrix: (Units=1/GPa)
#
#
# Indices 1 2 3 4 5 6 
#
# 1 0.011193 -0.005470 -0.001458 0.000000 0.000000 0.000000
# 2 -0.005470 0.013678 -0.001683 0.000000 0.000000 0.000000
# 3 -0.001458 -0.001683 0.012168 0.000000 0.000000 0.000000
# 4 0.000000 0.000000 0.000000 0.041183 0.000000 0.000000
# 5 0.000000 0.000000 0.000000 0.000000 -0.088398 0.000000
# 6 0.000000 0.000000 0.000000 0.000000 0.000000 0.074797
#
#
# Mechanical properties :
#
#
# Convention : Reuss Voigt Hill
#
# Bulk Modulus (GPa) = 50.46494 52.82016 51.64255
# Shear Modulus (GPa) = 56.52831 19.24492 37.88662
#
# Velocity S-wave (km/s) = 5.20395 3.03639 4.26033
# Velocity P-wave (km/s) = 7.76431 6.13169 6.99579
#
# Compressibility (1/GPa) = 0.01981574
#
# Stress axis : x y z
#
# Youngs Moduli (GPa) = 89.34356 73.10827 82.17940
#
# Poissons Ratio (x) = 0.39993 0.11985
# Poissons Ratio (y) = 0.48875 0.13831
# Poissons Ratio (z) = 0.13030 0.12305
#
# Static dielectric constant tensor:
#      x y z
#    x 1.725730 0.000000 0.000000 
#    y 0.000000 1.784980 0.000000 
#    z 0.000000 0.000000 1.815270 
# 
# From -- ./inp_files/35382.got.cif
#   From: 2010.05.17/outbox.cif.g08.bks.cpg/sg63_18_cif.got.tgz:35382.got - 2010.06.03 15:47:04.
