data_PCOD9472571
_publ_section_title
;
Structure prediction by ZEFSAII (Michael W. Deem and Ramdas Pophale) SiO2 
 PCOD9472571
Probable space group: C M C M
;
_chemical_formula_sum "Si O2"
_cell_formula_units_Z 84
_cell_length_a 20.397504
_cell_length_b 14.854906
_cell_length_c 13.740581
_cell_angle_alpha 90.000000
_cell_angle_beta 90.000000
_cell_angle_gamma 90.000000
_cell_volume 4163.437327
_symmetry_space_group_name_H-M "C M C M"
_symmetry_group_IT_number 63
_symmetry_cell_setting 'orthorhombic'
loop_
_space_group_symop_operation_xyz
x,y,z
-x,-y,1/2+z
x,-y,-z
-x,y,1/2-z
-x,-y,-z
x,y,1/2-z
-x,y,z
x,-y,1/2+z
1/2+x,1/2+y,z
1/2-x,1/2-y,1/2+z
1/2+x,1/2-y,-z
1/2-x,1/2+y,1/2-z
1/2-x,1/2-y,-z
1/2+x,1/2+y,1/2-z
1/2-x,1/2+y,z
1/2+x,1/2-y,1/2+z
loop_
_atom_site_type_symbol
_atom_site_label
_atom_site_fract_x
_atom_site_fract_y
_atom_site_fract_z
Si Si1 0.000000 0.737646 0.038979
Si Si2 0.113522 0.550213 0.250000
Si Si3 0.000000 0.077264 0.082515
Si Si4 0.421776 0.157542 0.750000
Si Si5 0.714469 0.920142 0.577278
Si Si6 0.632583 0.213925 0.959275
Si Si7 0.641268 0.418926 0.577858
Si Si8 0.000000 0.301897 0.750000
O O1 0.000000 0.757054 0.152914
O O2 0.000000 0.826772 0.972925
O O3 0.065453 0.684060 0.012481
O O4 0.081642 0.451070 0.250000
O O5 0.160021 0.560781 0.342952
O O6 0.061489 0.630689 0.250000
O O7 0.071338 0.072075 0.133074
O O8 0.000000 0.000000 0.000000
O O9 0.500000 0.184779 0.750000
O O10 0.383089 0.192592 0.654024
O O11 0.692518 0.834774 0.512311
O O12 0.786822 0.917202 0.625077
O O13 0.714857 0.000000 0.500000
O O14 0.638946 0.320924 0.972339
O O15 0.641752 0.500000 0.500000
#
# Coordination Sequence:
#
# PCOD9472571 Si02
#       8
#     8   8   8   8  16  16  16   4
#     4  10  20  34  61  88 119 161 203 247 304 365
#     4  12  24  37  59  88 130 167 203 244 300 364
#     4   8  16  36  64  85 108 151 199 252 311 358
#     4  12  24  37  60  93 128 164 206 247 295 368
#     4  11  22  38  61  88 125 163 201 252 308 368
#     4  11  21  38  62  90 121 166 206 250 308 364
#     4   9  20  38  64  90 115 157 204 258 310 365
#     4  12  22  36  58  90 128 172 198 248 298 362
#
# _framework density 20.175637999999999
#
# number of rings (size 3 to 8) (size 9 to 14) (size 15 to 20)
#    0.000    1.524    5.238    0.571    0.000    0.762 
#    0.000    2.857    0.000   48.000    0.000    0.000 
#    0.000    0.000    0.000    0.000    0.000    0.000 
#
# Total GULP energy -233937.713289 kJ/mol
# GULP energy per Si atom -5569.945554 kJ/mol
# Density = 2.012972 g / cm^3
# Si number density = 20.175638 Si / 1000 Ang^3
#
#
#
# Elastic Constant Matrix: (Units=GPa)
#
#
# Indices 1 2 3 4 5 6 
#
# 1 159.7222 14.7883 29.2219 0.0000 0.0000 0.0000
# 2 14.7883 88.0215 3.7227 0.0000 0.0000 0.0000
# 3 29.2219 3.7227 101.0366 0.0000 0.0000 0.0000
# 4 0.0000 0.0000 0.0000 1.7710 0.0000 0.0000
# 5 0.0000 0.0000 0.0000 0.0000 -20.6792 0.0000
# 6 0.0000 0.0000 0.0000 0.0000 0.0000 -409.0522
#
#
#
# Elastic Compliance Matrix: (Units=1/GPa)
#
#
# Indices 1 2 3 4 5 6 
#
# 1 0.006705 -0.001046 -0.001901 0.000000 0.000000 0.000000
# 2 -0.001046 0.011542 -0.000123 0.000000 0.000000 0.000000
# 3 -0.001901 -0.000123 0.010452 0.000000 0.000000 0.000000
# 4 0.000000 0.000000 0.000000 0.564658 0.000000 0.000000
# 5 0.000000 0.000000 0.000000 0.000000 -0.048358 0.000000
# 6 0.000000 0.000000 0.000000 0.000000 0.000000 -0.002445
#
#
# Mechanical properties :
#
#
# Convention : Reuss Voigt Hill
#
# Bulk Modulus (GPa) = 44.32698 49.36065 46.84382
# Shear Modulus (GPa) = 8.98935 -65.52226 -28.26646
#
# Velocity S-wave (km/s) = 2.11311 -5.70495 -3.74708
# Velocity P-wave (km/s) = 5.28884 4.34473 2.13251
#
# Compressibility (1/GPa) = 0.02255963
#
# Stress axis : x y z
#
# Youngs Moduli (GPa) = 149.13137 86.64150 95.67843
#
# Poissons Ratio (x) = 0.09064 0.18187
# Poissons Ratio (y) = 0.15602 0.01174
# Poissons Ratio (z) = 0.28347 0.01063
#
# Static dielectric constant tensor:
#      x y z
#    x 1.823580 0.000000 0.000000 
#    y 0.000000 1.705430 0.000000 
#    z 0.000000 0.000000 1.705460 
# 
# From -- ./inp_files/35274.got.cif
#   From: 2010.05.17/outbox.cif.g08.bks.cpg/sg63_18_cif.got.tgz:35274.got - 2010.06.03 15:47:04.
