data_PCOD9472831
_publ_section_title
;
Structure prediction by ZEFSAII (Michael W. Deem and Ramdas Pophale) SiO2 
 PCOD9472831
Probable space group: C M C M
;
_chemical_formula_sum "Si O2"
_cell_formula_units_Z 64
_cell_length_a 13.780959
_cell_length_b 27.444332
_cell_length_c 8.480973
_cell_angle_alpha 90.000000
_cell_angle_beta 90.000000
_cell_angle_gamma 90.000000
_cell_volume 3207.582133
_symmetry_space_group_name_H-M "C M C M"
_symmetry_group_IT_number 63
_symmetry_cell_setting 'orthorhombic'
loop_
_space_group_symop_operation_xyz
x,y,z
-x,-y,1/2+z
x,-y,-z
-x,y,1/2-z
-x,-y,-z
x,y,1/2-z
-x,y,z
x,-y,1/2+z
1/2+x,1/2+y,z
1/2-x,1/2-y,1/2+z
1/2+x,1/2-y,-z
1/2-x,1/2+y,1/2-z
1/2-x,1/2-y,-z
1/2+x,1/2+y,1/2-z
1/2-x,1/2+y,z
1/2+x,1/2-y,1/2+z
loop_
_atom_site_type_symbol
_atom_site_label
_atom_site_fract_x
_atom_site_fract_y
_atom_site_fract_z
Si Si1 0.351209 0.232649 0.061391
Si Si2 0.609817 0.122118 0.441304
Si Si3 0.215661 0.053256 0.561864
Si Si4 0.000000 0.815559 0.060743
Si Si5 0.500000 0.421913 0.933528
O O1 0.355290 0.228897 0.250000
O O2 0.380494 0.178735 0.004952
O O3 0.413932 0.279478 0.020230
O O4 0.250000 0.250000 0.000000
O O5 0.613467 0.120816 0.250000
O O6 0.500000 0.105146 0.486987
O O7 0.702717 0.091630 0.502043
O O8 0.215162 0.054759 0.750000
O O9 0.103755 0.061415 0.505468
O O10 0.244897 0.000000 0.500000
O O11 0.000000 0.827047 0.250000
O O12 0.000000 0.864208 0.962309
O O13 0.500000 0.435459 0.750000
#
# Coordination Sequence:
#
# PCOD9472831 Si02
#       5
#    16  16  16   8   8
#     4  10  20  35  57  86 123 165 206 252 304 361
#     4  10  21  41  66  93 130 173 216 265 319 377
#     4  12  26  45  68  95 126 165 213 269 328 389
#     4  10  20  37  59  88 125 165 205 246 302 366
#     4  12  25  43  66  96 131 167 211 266 325 388
#
# _framework density 19.952722000000001
#
# number of rings (size 3 to 8) (size 9 to 14) (size 15 to 20)
#    0.000    1.250    1.250    5.250    0.000    7.000 
#    0.000    0.000    0.000    0.000    0.000    0.000 
#    0.000    0.000    0.000    0.000    0.000    0.000 
#
# Total GULP energy -178469.907069 kJ/mol
# GULP energy per Si atom -5577.184596 kJ/mol
# Density = 1.990731 g / cm^3
# Si number density = 19.952722 Si / 1000 Ang^3
#
#
#
# Elastic Constant Matrix: (Units=GPa)
#
#
# Indices 1 2 3 4 5 6 
#
# 1 127.1479 27.8812 27.0968 0.0000 0.0000 0.0000
# 2 27.8812 101.3244 19.9827 0.0000 0.0000 0.0000
# 3 27.0968 19.9827 59.5039 0.0000 0.0000 0.0000
# 4 0.0000 0.0000 0.0000 30.9079 0.0000 0.0000
# 5 0.0000 0.0000 0.0000 0.0000 58.8555 0.0000
# 6 0.0000 0.0000 0.0000 0.0000 0.0000 -42.1677
#
#
#
# Elastic Compliance Matrix: (Units=1/GPa)
#
#
# Indices 1 2 3 4 5 6 
#
# 1 0.009002 -0.001787 -0.003499 0.000000 0.000000 0.000000
# 2 -0.001787 0.010924 -0.002855 0.000000 0.000000 0.000000
# 3 -0.003499 -0.002855 0.019358 0.000000 0.000000 0.000000
# 4 0.000000 0.000000 0.000000 0.032354 0.000000 0.000000
# 5 0.000000 0.000000 0.000000 0.000000 0.016991 0.000000
# 6 0.000000 0.000000 0.000000 0.000000 0.000000 -0.023715
#
#
# Mechanical properties :
#
#
# Convention : Reuss Voigt Hill
#
# Bulk Modulus (GPa) = 43.47452 48.65528 46.06490
# Shear Modulus (GPa) = 56.26560 23.72017 39.99288
#
# Velocity S-wave (km/s) = 5.31608 3.45167 4.48189
# Velocity P-wave (km/s) = 7.71472 6.35008 7.06543
#
# Compressibility (1/GPa) = 0.02300198
#
# Stress axis : x y z
#
# Youngs Moduli (GPa) = 111.08034 91.54127 51.65860
#
# Poissons Ratio (x) = 0.16359 0.18077
# Poissons Ratio (y) = 0.19851 0.14747
# Poissons Ratio (z) = 0.38872 0.26133
#
# Static dielectric constant tensor:
#      x y z
#    x 1.669300 0.000000 0.000000 
#    y 0.000000 1.695710 0.000000 
#    z 0.000000 0.000000 1.699080 
# 
# From -- ./inp_files/3201.got.cif
#   From: 2010.05.17/outbox.cif.g08.bks.cpg/sg63_2_cif.got.tgz:3201.got - 2010.06.03 15:47:04.
