data_PCOD9472233
_publ_section_title
;
Structure prediction by ZEFSAII (Michael W. Deem and Ramdas Pophale) SiO2 
 PCOD9472233
Probable space group: C M C M
;
_chemical_formula_sum "Si O2"
_cell_formula_units_Z 80
_cell_length_a 9.132772
_cell_length_b 29.556939
_cell_length_c 17.411037
_cell_angle_alpha 90.000000
_cell_angle_beta 90.000000
_cell_angle_gamma 90.000000
_cell_volume 4699.879350
_symmetry_space_group_name_H-M "C M C M"
_symmetry_group_IT_number 63
_symmetry_cell_setting 'orthorhombic'
loop_
_space_group_symop_operation_xyz
x,y,z
-x,-y,1/2+z
x,-y,-z
-x,y,1/2-z
-x,-y,-z
x,y,1/2-z
-x,y,z
x,-y,1/2+z
1/2+x,1/2+y,z
1/2-x,1/2-y,1/2+z
1/2+x,1/2-y,-z
1/2-x,1/2+y,1/2-z
1/2-x,1/2-y,-z
1/2+x,1/2+y,1/2-z
1/2-x,1/2+y,z
1/2+x,1/2-y,1/2+z
loop_
_atom_site_type_symbol
_atom_site_label
_atom_site_fract_x
_atom_site_fract_y
_atom_site_fract_z
Si Si1 0.828751 0.570722 0.335585
Si Si2 0.174252 0.003313 0.750000
Si Si3 0.324238 0.833982 0.382847
Si Si4 0.675697 0.608678 0.750000
Si Si5 0.823490 0.347109 0.939157
Si Si6 0.824195 0.769479 0.839236
O O1 0.818273 0.593041 0.250000
O O2 0.740218 0.524494 0.322401
O O3 0.776703 0.605937 0.398922
O O4 0.000000 0.560415 0.348618
O O5 0.215924 0.055631 0.750000
O O6 0.000000 0.999476 0.750000
O O7 0.500000 0.839090 0.372606
O O8 0.241859 0.866418 0.324045
O O9 0.287352 0.844572 0.471060
O O10 0.288086 0.781818 0.363744
O O11 0.500000 0.612140 0.750000
O O12 0.753162 0.305647 0.893385
O O13 0.000000 0.344484 0.931831
O O14 0.783597 0.776007 0.750000
O O15 0.000000 0.774522 0.845533
#
# Coordination Sequence:
#
# PCOD9472233 Si02
#       6
#    16   8  16   8  16  16
#     4   8  16  32  53  79 107 134 171 216 261 315
#     4   9  19  35  56  79 102 135 176 219 270 323
#     4  10  21  38  57  77 109 146 182 220 263 317
#     4  11  23  39  58  79 102 135 182 227 268 319
#     4  10  20  34  55  83 111 142 178 222 266 308
#     4  10  20  34  52  79 113 148 183 215 257 315
#
# _framework density 17.021713999999999
#
# number of rings (size 3 to 8) (size 9 to 14) (size 15 to 20)
#    0.600    1.800    1.000    1.500    0.000    5.200 
#    0.000    1.000    0.000    6.000    0.000    0.000 
#    0.000    0.000    0.000    0.000    0.000    0.000 
#
# Total GULP energy -222925.653706 kJ/mol
# GULP energy per Si atom -5573.141343 kJ/mol
# Density = 1.698297 g / cm^3
# Si number density = 17.021714 Si / 1000 Ang^3
#
#
#
# Elastic Constant Matrix: (Units=GPa)
#
#
# Indices 1 2 3 4 5 6 
#
# 1 33.0013 60.8664 49.8466 0.0000 0.0000 0.0000
# 2 60.8664 165.2037 94.4221 0.0000 0.0000 0.0000
# 3 49.8466 94.4221 137.3005 0.0000 0.0000 0.0000
# 4 0.0000 0.0000 0.0000 -3.8643 0.0000 0.0000
# 5 0.0000 0.0000 0.0000 0.0000 20.9049 0.0000
# 6 0.0000 0.0000 0.0000 0.0000 0.0000 29.9624
#
#
#
# Elastic Compliance Matrix: (Units=1/GPa)
#
#
# Indices 1 2 3 4 5 6 
#
# 1 0.127305 -0.033755 -0.023004 0.000000 0.000000 0.000000
# 2 -0.033755 0.018924 -0.000759 0.000000 0.000000 0.000000
# 3 -0.023004 -0.000759 0.016157 0.000000 0.000000 0.000000
# 4 0.000000 0.000000 0.000000 -0.258777 0.000000 0.000000
# 5 0.000000 0.000000 0.000000 0.000000 0.047836 0.000000
# 6 0.000000 0.000000 0.000000 0.000000 0.000000 0.033375
#
#
# Mechanical properties :
#
#
# Convention : Reuss Voigt Hill
#
# Bulk Modulus (GPa) = 21.11991 82.86397 51.99194
# Shear Modulus (GPa) = 43.23802 18.09196 30.66499
#
# Velocity S-wave (km/s) = 5.04548 3.26371 4.24904
# Velocity P-wave (km/s) = 6.81007 7.93659 7.39481
#
# Compressibility (1/GPa) = 0.04734868
#
# Stress axis : x y z
#
# Youngs Moduli (GPa) = 7.85513 52.84428 61.89346
#
# Poissons Ratio (x) = 1.78378 1.42380
# Poissons Ratio (y) = 0.26515 0.04697
# Poissons Ratio (z) = 0.18070 0.04011
#
# Static dielectric constant tensor:
#      x y z
#    x 1.570850 0.000000 0.000000 
#    y 0.000000 1.556230 0.000000 
#    z 0.000000 0.000000 1.566900 
# 
# From -- ./inp_files/40750.got.cif
#   From: 2010.05.17/outbox.cif.g08.bks.cpg/sg63_21_cif.got.tgz:40750.got - 2010.06.03 15:47:04.
