data_PCOD9472524
_publ_section_title
;
Structure prediction by ZEFSAII (Michael W. Deem and Ramdas Pophale) SiO2 
 PCOD9472524
Probable space group: C M C M
;
_chemical_formula_sum "Si O2"
_cell_formula_units_Z 112
_cell_length_a 14.897936
_cell_length_b 12.271235
_cell_length_c 27.791290
_cell_angle_alpha 90.000000
_cell_angle_beta 90.000000
_cell_angle_gamma 90.000000
_cell_volume 5080.694520
_symmetry_space_group_name_H-M "C M C M"
_symmetry_group_IT_number 63
_symmetry_cell_setting 'orthorhombic'
loop_
_space_group_symop_operation_xyz
x,y,z
-x,-y,1/2+z
x,-y,-z
-x,y,1/2-z
-x,-y,-z
x,y,1/2-z
-x,y,z
x,-y,1/2+z
1/2+x,1/2+y,z
1/2-x,1/2-y,1/2+z
1/2+x,1/2-y,-z
1/2-x,1/2+y,1/2-z
1/2-x,1/2-y,-z
1/2+x,1/2+y,1/2-z
1/2-x,1/2+y,z
1/2+x,1/2-y,1/2+z
loop_
_atom_site_type_symbol
_atom_site_label
_atom_site_fract_x
_atom_site_fract_y
_atom_site_fract_z
Si Si1 0.608710 0.657028 0.518840
Si Si2 0.646214 0.382969 0.586481
Si Si3 0.394435 0.183541 0.647399
Si Si4 0.211017 0.754601 0.193479
Si Si5 0.600813 0.403544 0.374735
Si Si6 0.342900 0.065655 0.124014
Si Si7 0.399111 0.106864 0.022270
O O1 0.500000 0.657636 0.523192
O O2 0.627376 0.595522 0.469342
O O3 0.639603 0.626677 0.572441
O O4 0.644901 0.779057 0.510350
O O5 0.618543 0.260563 0.600528
O O6 0.595633 0.466397 0.621736
O O7 0.747731 0.413181 0.598312
O O8 0.500000 0.187454 0.661586
O O9 0.317813 0.234494 0.682384
O O10 0.366561 0.057875 0.637977
O O11 0.195668 0.756247 0.250000
O O12 0.164047 0.855493 0.166036
O O13 0.165488 0.647921 0.168944
O O14 0.500000 0.359089 0.368980
O O15 0.406063 0.098983 0.079798
O O16 0.500000 0.110921 0.001109
O O17 0.354299 0.000000 0.000000
#
# Coordination Sequence:
#
# PCOD9472524 Si02
#       7
#    16  16  16  16  16  16  16
#     4  10  20  35  60  93 136 187 233 276 335 419
#     4  11  23  40  66 102 143 183 229 280 345 420
#     4  11  24  46  74 104 140 183 234 293 360 427
#     4  11  26  48  71 102 137 177 235 300 359 418
#     4  11  22  42  67  97 139 185 235 290 350 418
#     4  11  23  42  67 100 138 183 229 292 347 420
#     4  10  20  34  56  93 141 188 233 285 345 415
#
# _framework density 22.044229999999999
#
# number of rings (size 3 to 8) (size 9 to 14) (size 15 to 20)
#    0.000    1.286    2.857    3.000    0.000    5.714 
#    0.000    0.000    0.000    1.714    0.000    0.000 
#    0.000    0.000    0.000    0.000    0.000    0.000 
#
# Total GULP energy -312576.303489 kJ/mol
# GULP energy per Si atom -5581.719705 kJ/mol
# Density = 2.199406 g / cm^3
# Si number density = 22.044230 Si / 1000 Ang^3
#
#
#
# Elastic Constant Matrix: (Units=GPa)
#
#
# Indices 1 2 3 4 5 6 
#
# 1 109.7398 24.2590 35.6403 0.0000 0.0000 0.0000
# 2 24.2590 118.6243 49.3059 0.0000 0.0000 0.0000
# 3 35.6403 49.3059 166.9151 0.0000 0.0000 0.0000
# 4 0.0000 0.0000 0.0000 22.1331 0.0000 0.0000
# 5 0.0000 0.0000 0.0000 0.0000 23.2344 0.0000
# 6 0.0000 0.0000 0.0000 0.0000 0.0000 7.6240
#
#
#
# Elastic Compliance Matrix: (Units=1/GPa)
#
#
# Indices 1 2 3 4 5 6 
#
# 1 0.009968 -0.001315 -0.001740 0.000000 0.000000 0.000000
# 2 -0.001315 0.009783 -0.002609 0.000000 0.000000 0.000000
# 3 -0.001740 -0.002609 0.007133 0.000000 0.000000 0.000000
# 4 0.000000 0.000000 0.000000 0.045181 0.000000 0.000000
# 5 0.000000 0.000000 0.000000 0.000000 0.043040 0.000000
# 6 0.000000 0.000000 0.000000 0.000000 0.000000 0.131165
#
#
# Mechanical properties :
#
#
# Convention : Reuss Voigt Hill
#
# Bulk Modulus (GPa) = 64.28277 68.18773 66.23525
# Shear Modulus (GPa) = 19.02692 29.66989 24.34841
#
# Velocity S-wave (km/s) = 2.94109 3.67267 3.32705
# Velocity P-wave (km/s) = 6.38416 6.99886 6.69856
#
# Compressibility (1/GPa) = 0.01555627
#
# Stress axis : x y z
#
# Youngs Moduli (GPa) = 100.31790 102.21343 140.18743
#
# Poissons Ratio (x) = 0.13445 0.24391
# Poissons Ratio (y) = 0.13195 0.36577
# Poissons Ratio (z) = 0.17454 0.26669
#
# Static dielectric constant tensor:
#      x y z
#    x 1.918080 0.000000 0.000000 
#    y 0.000000 1.903380 0.000000 
#    z 0.000000 0.000000 1.758840 
# 
# From -- ./inp_files/73441.got.cif
#   From: 2010.05.17/outbox.cif.g08.bks.cpg/sg63_37_cif.got.tgz:73441.got - 2010.06.03 15:47:04.
