data_PCOD9472891
_publ_section_title
;
Structure prediction by ZEFSAII (Michael W. Deem and Ramdas Pophale) SiO2 
 PCOD9472891
Probable space group: C M C M
;
_chemical_formula_sum "Si O2"
_cell_formula_units_Z 96
_cell_length_a 8.414433
_cell_length_b 25.760607
_cell_length_c 24.413462
_cell_angle_alpha 90.000000
_cell_angle_beta 90.000000
_cell_angle_gamma 90.000000
_cell_volume 5291.884035
_symmetry_space_group_name_H-M "C M C M"
_symmetry_group_IT_number 63
_symmetry_cell_setting 'orthorhombic'
loop_
_space_group_symop_operation_xyz
x,y,z
-x,-y,1/2+z
x,-y,-z
-x,y,1/2-z
-x,-y,-z
x,y,1/2-z
-x,y,z
x,-y,1/2+z
1/2+x,1/2+y,z
1/2-x,1/2-y,1/2+z
1/2+x,1/2-y,-z
1/2-x,1/2+y,1/2-z
1/2-x,1/2-y,-z
1/2+x,1/2+y,1/2-z
1/2-x,1/2+y,z
1/2+x,1/2-y,1/2+z
loop_
_atom_site_type_symbol
_atom_site_label
_atom_site_fract_x
_atom_site_fract_y
_atom_site_fract_z
Si Si1 0.806446 0.418231 0.937888
Si Si2 0.810185 0.143179 0.250000
Si Si3 0.192243 0.609708 0.559802
Si Si4 0.190514 0.773240 0.057531
Si Si5 0.191898 0.680838 0.134361
Si Si6 0.692336 0.983585 0.134269
Si Si7 0.309888 0.523247 0.250000
O O1 0.756536 0.367560 0.903680
O O2 0.754853 0.469818 0.906146
O O3 0.000000 0.418969 0.938437
O O4 0.755031 0.412769 0.000717
O O5 0.752361 0.171302 0.195243
O O6 0.751065 0.083236 0.250000
O O7 0.000000 0.141761 0.250000
O O8 0.249972 0.668410 0.565303
O O9 0.243976 0.570841 0.607822
O O10 0.000000 0.610282 0.559217
O O11 0.243979 0.734043 0.105507
O O12 0.000000 0.773111 0.056491
O O13 0.250000 0.750000 0.000000
O O14 0.000000 0.680320 0.135342
O O15 0.500000 0.984287 0.135242
O O16 0.751897 0.995394 0.194965
O O17 0.500000 0.524315 0.250000
#
# Coordination Sequence:
#
# PCOD9472891 Si02
#       7
#    16   8  16  16  16  16   8
#     4   9  16  31  56  85 114 143 179 228 276 327
#     4  11  23  37  56  85 116 145 182 236 291 330
#     4  10  20  36  57  86 117 147 186 230 278 333
#     4  11  22  37  58  84 114 150 189 229 277 333
#     4  10  20  36  59  83 110 148 190 227 273 336
#     4  10  20  35  59  84 110 147 192 232 273 333
#     4  11  23  37  54  79 116 149 182 230 283 340
#
# _framework density 18.140988
#
# number of rings (size 3 to 8) (size 9 to 14) (size 15 to 20)
#    0.000    1.833    3.333    1.500    0.000    4.667 
#    0.000    1.667    0.000    2.000    0.000    0.000 
#    0.000    0.000    0.000    0.000    0.000    0.000 
#
# Total GULP energy -268034.605594 kJ/mol
# GULP energy per Si atom -5584.054283 kJ/mol
# Density = 1.809970 g / cm^3
# Si number density = 18.140988 Si / 1000 Ang^3
#
#
#
# Elastic Constant Matrix: (Units=GPa)
#
#
# Indices 1 2 3 4 5 6 
#
# 1 16.6953 28.2189 28.3091 0.0000 0.0000 0.0000
# 2 28.2189 178.9525 112.9492 0.0000 0.0000 0.0000
# 3 28.3091 112.9492 183.1939 0.0000 0.0000 0.0000
# 4 0.0000 0.0000 0.0000 35.1710 0.0000 0.0000
# 5 0.0000 0.0000 0.0000 0.0000 14.9465 0.0000
# 6 0.0000 0.0000 0.0000 0.0000 0.0000 26.8675
#
#
#
# Elastic Compliance Matrix: (Units=1/GPa)
#
#
# Indices 1 2 3 4 5 6 
#
# 1 0.088805 -0.008745 -0.008331 0.000000 0.000000 0.000000
# 2 -0.008745 0.010009 -0.004820 0.000000 0.000000 0.000000
# 3 -0.008331 -0.004820 0.009718 0.000000 0.000000 0.000000
# 4 0.000000 0.000000 0.000000 0.028432 0.000000 0.000000
# 5 0.000000 0.000000 0.000000 0.000000 0.066905 0.000000
# 6 0.000000 0.000000 0.000000 0.000000 0.000000 0.037220
#
#
# Mechanical properties :
#
#
# Convention : Reuss Voigt Hill
#
# Bulk Modulus (GPa) = 15.44647 79.75514 47.60080
# Shear Modulus (GPa) = 16.31523 29.35464 22.83493
#
# Velocity S-wave (km/s) = 3.00218 4.02697 3.55173
# Velocity P-wave (km/s) = 4.53328 8.10441 6.56628
#
# Compressibility (1/GPa) = 0.06473970
#
# Stress axis : x y z
#
# Youngs Moduli (GPa) = 11.26060 99.90774 102.90367
#
# Poissons Ratio (x) = 0.87371 0.85731
# Poissons Ratio (y) = 0.09848 0.49598
# Poissons Ratio (z) = 0.09381 0.48154
#
# Static dielectric constant tensor:
#      x y z
#    x 1.631730 0.000000 0.000000 
#    y 0.000000 1.614620 0.000000 
#    z 0.000000 0.000000 1.593540 
# 
# From -- ./inp_files/60057.got.cif
#   From: 2010.05.17/outbox.cif.g08.bks.cpg/sg63_31_cif.got.tgz:60057.got - 2010.06.03 15:47:04.
