data_PCOD9472420
_publ_section_title
;
Structure prediction by ZEFSAII (Michael W. Deem and Ramdas Pophale) SiO2 
 PCOD9472420
Probable space group: C M C M
;
_chemical_formula_sum "Si O2"
_cell_formula_units_Z 88
_cell_length_a 22.469564
_cell_length_b 8.789627
_cell_length_c 25.030931
_cell_angle_alpha 90.000000
_cell_angle_beta 90.000000
_cell_angle_gamma 90.000000
_cell_volume 4943.586005
_symmetry_space_group_name_H-M "C M C M"
_symmetry_group_IT_number 63
_symmetry_cell_setting 'orthorhombic'
loop_
_space_group_symop_operation_xyz
x,y,z
-x,-y,1/2+z
x,-y,-z
-x,y,1/2-z
-x,-y,-z
x,y,1/2-z
-x,y,z
x,-y,1/2+z
1/2+x,1/2+y,z
1/2-x,1/2-y,1/2+z
1/2+x,1/2-y,-z
1/2-x,1/2+y,1/2-z
1/2-x,1/2-y,-z
1/2+x,1/2+y,1/2-z
1/2-x,1/2+y,z
1/2+x,1/2-y,1/2+z
loop_
_atom_site_type_symbol
_atom_site_label
_atom_site_fract_x
_atom_site_fract_y
_atom_site_fract_z
Si Si1 0.105655 0.988248 0.750000
Si Si2 0.712181 0.090467 0.944797
Si Si3 0.333793 0.437294 0.943837
Si Si4 0.854874 0.434156 0.338453
Si Si5 0.352873 0.824608 0.750000
Si Si6 0.432720 0.651984 0.359429
Si Si7 0.712467 0.741182 0.250000
O O1 0.114399 0.166170 0.750000
O O2 0.073047 0.932024 0.802951
O O3 0.170965 0.908096 0.750000
O O4 0.696517 0.269446 0.950433
O O5 0.673300 0.029776 0.895540
O O6 0.780574 0.053846 0.929843
O O7 0.700921 0.000000 0.000000
O O8 0.384745 0.419031 0.900062
O O9 0.357964 0.500000 0.000000
O O10 0.868721 0.578091 0.302253
O O11 0.910627 0.323869 0.348201
O O12 0.807857 0.336575 0.302277
O O13 0.281557 0.797186 0.750000
O O14 0.500000 0.646613 0.379465
#
# Coordination Sequence:
#
# PCOD9472420 Si02
#       7
#     8  16  16  16   8  16   8
#     4  10  21  33  55  85 108 143 185 228 277 321
#     4  10  20  34  54  85 117 141 174 221 282 338
#     4  10  21  35  58  84 109 143 179 224 280 325
#     4   9  21  35  55  81 110 154 177 218 280 331
#     4  11  21  31  55  86 115 140 174 233 280 327
#     4  10  22  41  58  74 108 153 194 223 263 329
#     4   9  19  34  50  83 117 147 174 213 285 338
#
# _framework density 17.800843
#
# number of rings (size 3 to 8) (size 9 to 14) (size 15 to 20)
#    0.000    2.182    0.000    4.091   10.182    1.818 
#    0.000    1.818    0.000    8.727    0.000    0.000 
#    0.000    0.727    0.000    0.000    0.000    0.000 
#
# Total GULP energy -245554.782721 kJ/mol
# GULP energy per Si atom -5580.790516 kJ/mol
# Density = 1.776033 g / cm^3
# Si number density = 17.800843 Si / 1000 Ang^3
#
#
#
# Elastic Constant Matrix: (Units=GPa)
#
#
# Indices 1 2 3 4 5 6 
#
# 1 98.2199 40.2834 61.6766 0.0000 0.0000 0.0000
# 2 40.2834 67.2176 47.4065 0.0000 0.0000 0.0000
# 3 61.6766 47.4065 110.0444 0.0000 0.0000 0.0000
# 4 0.0000 0.0000 0.0000 18.9522 0.0000 0.0000
# 5 0.0000 0.0000 0.0000 0.0000 13.6589 0.0000
# 6 0.0000 0.0000 0.0000 0.0000 0.0000 3.2537
#
#
#
# Elastic Compliance Matrix: (Units=1/GPa)
#
#
# Indices 1 2 3 4 5 6 
#
# 1 0.016769 -0.004914 -0.007282 0.000000 0.000000 0.000000
# 2 -0.004914 0.022810 -0.007072 0.000000 0.000000 0.000000
# 3 -0.007282 -0.007072 0.016215 0.000000 0.000000 0.000000
# 4 0.000000 0.000000 0.000000 0.052764 0.000000 0.000000
# 5 0.000000 0.000000 0.000000 0.000000 0.073212 0.000000
# 6 0.000000 0.000000 0.000000 0.000000 0.000000 0.307344
#
#
# Mechanical properties :
#
#
# Convention : Reuss Voigt Hill
#
# Bulk Modulus (GPa) = 57.94354 63.80165 60.87260
# Shear Modulus (GPa) = 9.37377 15.58063 12.47720
#
# Velocity S-wave (km/s) = 2.29725 2.96171 2.65039
# Velocity P-wave (km/s) = 6.29747 6.90039 6.60581
#
# Compressibility (1/GPa) = 0.01725818
#
# Stress axis : x y z
#
# Youngs Moduli (GPa) = 59.63317 43.84066 61.67142
#
# Poissons Ratio (x) = 0.21544 0.44907
# Poissons Ratio (y) = 0.29305 0.43614
# Poissons Ratio (z) = 0.43422 0.31004
#
# Static dielectric constant tensor:
#      x y z
#    x 1.585270 0.000000 0.000000 
#    y 0.000000 1.615630 0.000000 
#    z 0.000000 0.000000 1.617620 
# 
# From -- ./inp_files/64463.got.cif
#   From: 2010.05.17/outbox.cif.g08.bks.cpg/sg63_33_cif.got.tgz:64463.got - 2010.06.03 15:47:04.
