data_PCOD9472043
_publ_section_title
;
Structure prediction by ZEFSAII (Michael W. Deem and Ramdas Pophale) SiO2 
 PCOD9472043
Probable space group: C M C M
;
_chemical_formula_sum "Si O2"
_cell_formula_units_Z 56
_cell_length_a 10.023296
_cell_length_b 27.996940
_cell_length_c 10.052230
_cell_angle_alpha 90.000000
_cell_angle_beta 90.000000
_cell_angle_gamma 90.000000
_cell_volume 2820.873034
_symmetry_space_group_name_H-M "C M C M"
_symmetry_group_IT_number 63
_symmetry_cell_setting 'orthorhombic'
loop_
_space_group_symop_operation_xyz
x,y,z
-x,-y,1/2+z
x,-y,-z
-x,y,1/2-z
-x,-y,-z
x,y,1/2-z
-x,y,z
x,-y,1/2+z
1/2+x,1/2+y,z
1/2-x,1/2-y,1/2+z
1/2+x,1/2-y,-z
1/2-x,1/2+y,1/2-z
1/2-x,1/2-y,-z
1/2+x,1/2+y,1/2-z
1/2-x,1/2+y,z
1/2+x,1/2-y,1/2+z
loop_
_atom_site_type_symbol
_atom_site_label
_atom_site_fract_x
_atom_site_fract_y
_atom_site_fract_z
Si Si1 0.000000 0.046097 0.597656
Si Si2 0.347153 0.962703 0.603610
Si Si3 0.659139 0.781792 0.096224
Si Si4 0.230648 0.392340 0.100600
O O1 0.874321 0.082394 0.584903
O O2 0.000000 0.028066 0.750000
O O3 0.000000 0.000000 0.500000
O O4 0.284869 0.961088 0.750000
O O5 0.500000 0.977869 0.620667
O O6 0.347356 0.913491 0.524450
O O7 0.285279 0.000000 0.500000
O O8 0.668347 0.765065 0.250000
O O9 0.500000 0.782511 0.062003
O O10 0.718221 0.835557 0.094020
O O11 0.750000 0.750000 0.000000
O O12 0.181090 0.406488 0.250000
#
# Coordination Sequence:
#
# PCOD9472043 Si02
#       4
#     8  16  16  16
#     4  10  22  38  58  88 124 166 212 258 315 378
#     4  10  20  33  52  80 113 149 191 240 298 364
#     4  10  23  42  66  96 128 166 216 273 334 396
#     4  10  21  38  60  84 116 157 206 258 313 375
#
# _framework density 19.85201
#
# number of rings (size 3 to 8) (size 9 to 14) (size 15 to 20)
#    0.000    2.000    0.000    2.571    2.000    8.000 
#    0.000    0.000    0.000    0.000    0.000    0.000 
#    0.000    0.000    0.000    0.000    0.000    0.000 
#
# Total GULP energy -155978.982282 kJ/mol
# GULP energy per Si atom -5570.677939 kJ/mol
# Density = 1.980683 g / cm^3
# Si number density = 19.852010 Si / 1000 Ang^3
#
#
#
# Elastic Constant Matrix: (Units=GPa)
#
#
# Indices 1 2 3 4 5 6 
#
# 1 126.6615 52.5093 56.4924 0.0000 0.0000 0.0000
# 2 52.5093 106.4366 84.8299 0.0000 0.0000 0.0000
# 3 56.4924 84.8299 183.6826 0.0000 0.0000 0.0000
# 4 0.0000 0.0000 0.0000 36.8336 0.0000 0.0000
# 5 0.0000 0.0000 0.0000 0.0000 17.5364 0.0000
# 6 0.0000 0.0000 0.0000 0.0000 0.0000 28.6915
#
#
#
# Elastic Compliance Matrix: (Units=1/GPa)
#
#
# Indices 1 2 3 4 5 6 
#
# 1 0.010110 -0.003971 -0.001275 0.000000 0.000000 0.000000
# 2 -0.003971 0.016428 -0.006365 0.000000 0.000000 0.000000
# 3 -0.001275 -0.006365 0.008776 0.000000 0.000000 0.000000
# 4 0.000000 0.000000 0.000000 0.027149 0.000000 0.000000
# 5 0.000000 0.000000 0.000000 0.000000 0.057024 0.000000
# 6 0.000000 0.000000 0.000000 0.000000 0.000000 0.034854
#
#
# Mechanical properties :
#
#
# Convention : Reuss Voigt Hill
#
# Bulk Modulus (GPa) = 82.71350 89.38266 86.04808
# Shear Modulus (GPa) = 27.53377 31.47557 29.50467
#
# Velocity S-wave (km/s) = 3.72822 3.98617 3.85935
# Velocity P-wave (km/s) = 7.76456 8.14299 7.95602
#
# Compressibility (1/GPa) = 0.01208992
#
# Stress axis : x y z
#
# Youngs Moduli (GPa) = 98.90943 60.87300 113.94538
#
# Poissons Ratio (x) = 0.24174 0.14533
# Poissons Ratio (y) = 0.39280 0.72530
# Poissons Ratio (z) = 0.12615 0.38748
#
# Static dielectric constant tensor:
#      x y z
#    x 1.783810 0.000000 0.000000 
#    y 0.000000 1.695690 0.000000 
#    z 0.000000 0.000000 1.762060 
# 
# From -- ./inp_files/2831.got.cif
#   From: 2010.05.17/outbox.cif.g08.bks.cpg/sg63_2_cif.got.tgz:2831.got - 2010.06.03 15:47:04.
