data_PCOD9472516
_publ_section_title
;
Structure prediction by ZEFSAII (Michael W. Deem and Ramdas Pophale) SiO2 
 PCOD9472516
Probable space group: C M C M
;
_chemical_formula_sum "Si O2"
_cell_formula_units_Z 80
_cell_length_a 8.195872
_cell_length_b 16.032154
_cell_length_c 29.605620
_cell_angle_alpha 90.000000
_cell_angle_beta 90.000000
_cell_angle_gamma 90.000000
_cell_volume 3890.103923
_symmetry_space_group_name_H-M "C M C M"
_symmetry_group_IT_number 63
_symmetry_cell_setting 'orthorhombic'
loop_
_space_group_symop_operation_xyz
x,y,z
-x,-y,1/2+z
x,-y,-z
-x,y,1/2-z
-x,-y,-z
x,y,1/2-z
-x,y,z
x,-y,1/2+z
1/2+x,1/2+y,z
1/2-x,1/2-y,1/2+z
1/2+x,1/2-y,-z
1/2-x,1/2+y,1/2-z
1/2-x,1/2-y,-z
1/2+x,1/2+y,1/2-z
1/2-x,1/2+y,z
1/2+x,1/2-y,1/2+z
loop_
_atom_site_type_symbol
_atom_site_label
_atom_site_fract_x
_atom_site_fract_y
_atom_site_fract_z
Si Si1 0.802391 0.828679 0.107026
Si Si2 0.808887 0.645599 0.395543
Si Si3 0.194313 0.013341 0.550335
Si Si4 0.306937 0.592671 0.199330
Si Si5 0.305139 0.097600 0.699683
O O1 0.747268 0.737391 0.091194
O O2 0.000000 0.828626 0.106395
O O3 0.740961 0.905113 0.076322
O O4 0.748846 0.845756 0.158309
O O5 0.722935 0.568886 0.420058
O O6 0.783542 0.635949 0.341857
O O7 0.000000 0.639507 0.406011
O O8 0.000000 0.026074 0.546325
O O9 0.261637 0.000000 0.500000
O O10 0.253074 0.616416 0.250000
O O11 0.500000 0.609135 0.195469
O O12 0.277049 0.493256 0.194834
O O13 0.265029 0.129987 0.750000
O O14 0.500000 0.085671 0.697459
#
# Coordination Sequence:
#
# PCOD9472516 Si02
#       5
#    16  16  16  16  16
#     4  10  22  39  59  86 121 157 193 238 294 350
#     4  11  23  38  59  89 121 154 196 243 291 347
#     4  10  22  42  65  86 113 153 198 245 299 357
#     4  10  20  35  57  84 117 158 198 237 288 345
#     4  10  20  34  56  87 120 155 197 241 285 340
#
# _framework density 20.565003000000001
#
# number of rings (size 3 to 8) (size 9 to 14) (size 15 to 20)
#    0.000    1.800    2.000    1.800    0.000    6.000 
#    0.000    4.000    0.000    0.000    0.000    0.000 
#    0.000    0.000    0.000    0.000    0.000    0.000 
#
# Total GULP energy -223451.792829 kJ/mol
# GULP energy per Si atom -5586.294821 kJ/mol
# Density = 2.051820 g / cm^3
# Si number density = 20.565003 Si / 1000 Ang^3
#
#
#
# Elastic Constant Matrix: (Units=GPa)
#
#
# Indices 1 2 3 4 5 6 
#
# 1 6.9416 -13.4612 -9.2312 0.0000 0.0000 0.0000
# 2 -13.4612 94.0070 31.5465 0.0000 0.0000 0.0000
# 3 -9.2312 31.5465 87.7380 0.0000 0.0000 0.0000
# 4 0.0000 0.0000 0.0000 -3.2647 0.0000 0.0000
# 5 0.0000 0.0000 0.0000 0.0000 14.0977 0.0000
# 6 0.0000 0.0000 0.0000 0.0000 0.0000 18.8791
#
#
#
# Elastic Compliance Matrix: (Units=1/GPa)
#
#
# Indices 1 2 3 4 5 6 
#
# 1 0.211593 0.025960 0.012928 0.000000 0.000000 0.000000
# 2 0.025960 0.015282 -0.002763 0.000000 0.000000 0.000000
# 3 0.012928 -0.002763 0.013751 0.000000 0.000000 0.000000
# 4 0.000000 0.000000 0.000000 -0.306303 0.000000 0.000000
# 5 0.000000 0.000000 0.000000 0.000000 0.070933 0.000000
# 6 0.000000 0.000000 0.000000 0.000000 0.000000 0.052969
#
#
# Mechanical properties :
#
#
# Convention : Reuss Voigt Hill
#
# Bulk Modulus (GPa) = 3.19615 22.93275 13.06445
# Shear Modulus (GPa) = 55.39113 17.93126 36.66119
#
# Velocity S-wave (km/s) = 5.19549 2.95605 4.22678
# Velocity P-wave (km/s) = 6.12767 4.77771 5.49431
#
# Compressibility (1/GPa) = 0.31287671
#
# Stress axis : x y z
#
# Youngs Moduli (GPa) = 4.72606 65.43568 72.72000
#
# Poissons Ratio (x) = -1.69873 -0.94014
# Poissons Ratio (y) = -0.12269 0.20095
# Poissons Ratio (z) = -0.06110 0.18082
#
# Static dielectric constant tensor:
#      x y z
#    x 1.719230 0.000000 0.000000 
#    y 0.000000 1.738530 0.000000 
#    z 0.000000 0.000000 1.724790 
# 
# From -- ./inp_files/66578.got.cif
#   From: 2010.05.17/outbox.cif.g08.bks.cpg/sg63_34_cif.got.tgz:66578.got - 2010.06.03 15:47:04.
