data_PCOD9472113
_publ_section_title
;
Structure prediction by ZEFSAII (Michael W. Deem and Ramdas Pophale) SiO2 
 PCOD9472113
Probable space group: C M C M
;
_chemical_formula_sum "Si O2"
_cell_formula_units_Z 96
_cell_length_a 13.801866
_cell_length_b 15.205266
_cell_length_c 20.945760
_cell_angle_alpha 90.000000
_cell_angle_beta 90.000000
_cell_angle_gamma 90.000000
_cell_volume 4395.699057
_symmetry_space_group_name_H-M "C M C M"
_symmetry_group_IT_number 63
_symmetry_cell_setting 'orthorhombic'
loop_
_space_group_symop_operation_xyz
x,y,z
-x,-y,1/2+z
x,-y,-z
-x,y,1/2-z
-x,-y,-z
x,y,1/2-z
-x,y,z
x,-y,1/2+z
1/2+x,1/2+y,z
1/2-x,1/2-y,1/2+z
1/2+x,1/2-y,-z
1/2-x,1/2+y,1/2-z
1/2-x,1/2-y,-z
1/2+x,1/2+y,1/2-z
1/2-x,1/2+y,z
1/2+x,1/2-y,1/2+z
loop_
_atom_site_type_symbol
_atom_site_label
_atom_site_fract_x
_atom_site_fract_y
_atom_site_fract_z
Si Si1 0.316233 0.033017 0.565625
Si Si2 0.715063 0.374468 0.176031
Si Si3 0.193250 0.197617 0.364108
Si Si4 0.000000 0.107860 0.826594
Si Si5 0.390868 0.220697 0.978929
Si Si6 0.500000 0.406414 0.825908
Si Si7 0.395578 0.141555 0.114991
O O1 0.389388 0.956342 0.585603
O O2 0.266547 0.000000 0.500000
O O3 0.246343 0.052996 0.624701
O O4 0.368858 0.123874 0.548633
O O5 0.717100 0.403464 0.250000
O O6 0.789058 0.293224 0.167242
O O7 0.603970 0.349118 0.158379
O O8 0.179714 0.214212 0.440683
O O9 0.097925 0.145903 0.343538
O O10 0.294753 0.151054 0.348396
O O11 0.000000 0.104627 0.750000
O O12 0.000000 0.006902 0.851538
O O13 0.500000 0.246936 0.961594
O O14 0.388630 0.208298 0.054763
O O15 0.500000 0.414161 0.750000
O O16 0.500000 0.153388 0.147185
#
# Coordination Sequence:
#
# PCOD9472113 Si02
#       7
#    16  16  16   8  16   8  16
#     4   9  18  34  58  84 116 153 194 243 295 357
#     4  10  21  38  60  82 114 157 199 242 300 370
#     4  11  21  34  57  84 116 148 197 248 294 342
#     4   9  20  38  59  79 110 159 200 234 297 375
#     4   9  17  33  54  81 113 155 192 231 289 353
#     4  11  22  38  60  83 109 149 201 252 298 347
#     4  10  20  33  55  85 119 152 188 236 292 356
#
# _framework density 21.83953
#
# number of rings (size 3 to 8) (size 9 to 14) (size 15 to 20)
#    0.000    2.167    0.833    2.500    1.167    2.000 
#    0.000    1.250    0.000    2.000    0.000    0.000 
#    0.000    0.000    0.000    0.000    0.000    0.000 
#
# Total GULP energy -267614.084722 kJ/mol
# GULP energy per Si atom -5575.293432 kJ/mol
# Density = 2.178982 g / cm^3
# Si number density = 21.839530 Si / 1000 Ang^3
#
#
#
# Elastic Constant Matrix: (Units=GPa)
#
#
# Indices 1 2 3 4 5 6 
#
# 1 149.6645 23.5520 28.5560 0.0000 0.0000 0.0000
# 2 23.5520 54.1103 19.2599 0.0000 0.0000 0.0000
# 3 28.5560 19.2599 71.5767 0.0000 0.0000 0.0000
# 4 0.0000 0.0000 0.0000 19.5823 0.0000 0.0000
# 5 0.0000 0.0000 0.0000 0.0000 15.8536 0.0000
# 6 0.0000 0.0000 0.0000 0.0000 0.0000 22.3387
#
#
#
# Elastic Compliance Matrix: (Units=1/GPa)
#
#
# Indices 1 2 3 4 5 6 
#
# 1 0.007512 -0.002436 -0.002341 0.000000 0.000000 0.000000
# 2 -0.002436 0.021228 -0.004740 0.000000 0.000000 0.000000
# 3 -0.002341 -0.004740 0.016181 0.000000 0.000000 0.000000
# 4 0.000000 0.000000 0.000000 0.051066 0.000000 0.000000
# 5 0.000000 0.000000 0.000000 0.000000 0.063077 0.000000
# 6 0.000000 0.000000 0.000000 0.000000 0.000000 0.044765
#
#
# Mechanical properties :
#
#
# Convention : Reuss Voigt Hill
#
# Bulk Modulus (GPa) = 38.63202 46.45415 42.54308
# Shear Modulus (GPa) = 21.59888 25.15383 23.37636
#
# Velocity S-wave (km/s) = 3.14822 3.39744 3.27520
# Velocity P-wave (km/s) = 5.56260 6.05863 5.81590
#
# Compressibility (1/GPa) = 0.02588527
#
# Stress axis : x y z
#
# Youngs Moduli (GPa) = 133.12551 47.10676 61.80239
#
# Poissons Ratio (x) = 0.11476 0.14470
# Poissons Ratio (y) = 0.32432 0.29296
# Poissons Ratio (z) = 0.31169 0.22330
#
# Static dielectric constant tensor:
#      x y z
#    x 1.828480 0.000000 0.000000 
#    y 0.000000 1.830450 0.000000 
#    z 0.000000 0.000000 1.796210 
# 
# From -- ./inp_files/61555.got.cif
#   From: 2010.05.17/outbox.cif.g08.bks.cpg/sg63_31_cif.got.tgz:61555.got - 2010.06.03 15:47:04.
