data_PCOD9472786
_publ_section_title
;
Structure prediction by ZEFSAII (Michael W. Deem and Ramdas Pophale) SiO2 
 PCOD9472786
Probable space group: C M C M
;
_chemical_formula_sum "Si O2"
_cell_formula_units_Z 116
_cell_length_a 18.288685
_cell_length_b 16.132856
_cell_length_c 18.205256
_cell_angle_alpha 90.000000
_cell_angle_beta 90.000000
_cell_angle_gamma 90.000000
_cell_volume 5371.437508
_symmetry_space_group_name_H-M "C M C M"
_symmetry_group_IT_number 63
_symmetry_cell_setting 'orthorhombic'
loop_
_space_group_symop_operation_xyz
x,y,z
-x,-y,1/2+z
x,-y,-z
-x,y,1/2-z
-x,-y,-z
x,y,1/2-z
-x,y,z
x,-y,1/2+z
1/2+x,1/2+y,z
1/2-x,1/2-y,1/2+z
1/2+x,1/2-y,-z
1/2-x,1/2+y,1/2-z
1/2-x,1/2-y,-z
1/2+x,1/2+y,1/2-z
1/2-x,1/2+y,z
1/2+x,1/2-y,1/2+z
loop_
_atom_site_type_symbol
_atom_site_label
_atom_site_fract_x
_atom_site_fract_y
_atom_site_fract_z
Si Si1 0.622805 0.640528 0.138774
Si Si2 0.000000 0.799799 0.750000
Si Si3 0.085783 0.906441 0.013455
Si Si4 0.287901 0.808044 0.665039
Si Si5 0.228363 0.364409 0.336381
Si Si6 0.080341 0.397674 0.585521
Si Si7 0.629995 0.550500 0.665764
Si Si8 0.420439 0.904379 0.410776
O O1 0.565125 0.692836 0.185635
O O2 0.706701 0.653502 0.161002
O O3 0.603691 0.543977 0.156560
O O4 0.618468 0.650914 0.050285
O O5 0.096060 0.894953 0.100348
O O6 0.000000 0.907474 0.997576
O O7 0.116114 0.000000 0.000000
O O8 0.310762 0.806523 0.750000
O O9 0.274838 0.714467 0.638245
O O10 0.350158 0.854114 0.620273
O O11 0.214931 0.354474 0.250000
O O12 0.282171 0.442611 0.345908
O O13 0.151161 0.367567 0.374924
O O14 0.083556 0.496269 0.600345
O O15 0.081662 0.388300 0.497614
O O16 0.000000 0.367691 0.611473
O O17 0.615401 0.577210 0.750000
O O18 0.500000 0.876503 0.381773
#
# Coordination Sequence:
#
# PCOD9472786 Si02
#       8
#    16   4  16  16  16  16  16  16
#     4  11  21  36  58  87 115 156 199 248 297 349
#     4  12  20  36  62  84 124 156 200 248 306 350
#     4   9  19  32  51  80 112 142 191 240 280 342
#     4  11  23  40  59  87 120 163 203 241 302 369
#     4  10  23  40  56  85 124 158 199 246 297 369
#     4   9  20  39  67  91 120 153 205 261 312 365
#     4  10  20  35  57  80 112 154 198 247 297 346
#     4   9  19  39  63  93 118 155 200 259 319 365
#
# _framework density 21.595707999999998
#
# number of rings (size 3 to 8) (size 9 to 14) (size 15 to 20)
#    0.000    2.069    2.069    1.655    2.897    3.034 
#    1.241    2.069    0.000    2.483    0.000    0.000 
#    0.000    0.000    0.000    0.000    0.000    0.000 
#
# Total GULP energy -323242.821369 kJ/mol
# GULP energy per Si atom -5573.152093 kJ/mol
# Density = 2.154655 g / cm^3
# Si number density = 21.595708 Si / 1000 Ang^3
#
#
#
# Elastic Constant Matrix: (Units=GPa)
#
#
# Indices 1 2 3 4 5 6 
#
# 1 133.3707 30.6757 27.5214 0.0000 0.0000 0.0000
# 2 30.6757 28.7718 17.1570 0.0000 0.0000 0.0000
# 3 27.5214 17.1570 71.1865 0.0000 0.0000 0.0000
# 4 0.0000 0.0000 0.0000 16.0631 0.0000 0.0000
# 5 0.0000 0.0000 0.0000 0.0000 -4.4540 0.0000
# 6 0.0000 0.0000 0.0000 0.0000 0.0000 18.4256
#
#
#
# Elastic Compliance Matrix: (Units=1/GPa)
#
#
# Indices 1 2 3 4 5 6 
#
# 1 0.010074 -0.009831 -0.001525 0.000000 0.000000 0.000000
# 2 -0.009831 0.050184 -0.008294 0.000000 0.000000 0.000000
# 3 -0.001525 -0.008294 0.016636 0.000000 0.000000 0.000000
# 4 0.000000 0.000000 0.000000 0.062255 0.000000 0.000000
# 5 0.000000 0.000000 0.000000 0.000000 -0.224518 0.000000
# 6 0.000000 0.000000 0.000000 0.000000 0.000000 0.054272
#
#
# Mechanical properties :
#
#
# Convention : Reuss Voigt Hill
#
# Bulk Modulus (GPa) = 26.60074 42.67078 34.63576
# Shear Modulus (GPa) = 241.14562 16.53861 128.84212
#
# Velocity S-wave (km/s) = 10.57857 2.77036 7.73243
# Velocity P-wave (km/s) = 12.71033 5.48042 9.78743
#
# Compressibility (1/GPa) = 0.03759294
#
# Stress axis : x y z
#
# Youngs Moduli (GPa) = 99.26786 19.92686 60.10942
#
# Poissons Ratio (x) = 0.19590 0.09168
# Poissons Ratio (y) = 0.97588 0.49856
# Poissons Ratio (z) = 0.15141 0.16528
#
# Static dielectric constant tensor:
#      x y z
#    x 1.752650 0.000000 0.000000 
#    y 0.000000 1.850450 0.000000 
#    z 0.000000 0.000000 1.796280 
# 
# From -- ./inp_files/45918.got.cif
#   From: 2010.05.17/outbox.cif.g08.bks.cpg/sg63_23_cif.got.tgz:45918.got - 2010.06.03 15:47:04.
