data_PCOD9472783
_publ_section_title
;
Structure prediction by ZEFSAII (Michael W. Deem and Ramdas Pophale) SiO2 
 PCOD9472783
Probable space group: C M C M
;
_chemical_formula_sum "Si O2"
_cell_formula_units_Z 96
_cell_length_a 7.642469
_cell_length_b 30.875255
_cell_length_c 19.956973
_cell_angle_alpha 90.000000
_cell_angle_beta 90.000000
_cell_angle_gamma 90.000000
_cell_volume 4709.110796
_symmetry_space_group_name_H-M "C M C M"
_symmetry_group_IT_number 63
_symmetry_cell_setting 'orthorhombic'
loop_
_space_group_symop_operation_xyz
x,y,z
-x,-y,1/2+z
x,-y,-z
-x,y,1/2-z
-x,-y,-z
x,y,1/2-z
-x,y,z
x,-y,1/2+z
1/2+x,1/2+y,z
1/2-x,1/2-y,1/2+z
1/2+x,1/2-y,-z
1/2-x,1/2+y,1/2-z
1/2-x,1/2-y,-z
1/2+x,1/2+y,1/2-z
1/2-x,1/2+y,z
1/2+x,1/2-y,1/2+z
loop_
_atom_site_type_symbol
_atom_site_label
_atom_site_fract_x
_atom_site_fract_y
_atom_site_fract_z
Si Si1 0.795087 0.621651 0.939487
Si Si2 0.711013 0.782955 0.826583
Si Si3 0.291212 0.184703 0.825775
Si Si4 0.793238 0.023164 0.567550
Si Si5 0.711327 0.049947 0.173424
Si Si6 0.714754 0.865774 0.909759
O O1 0.719159 0.651347 0.880488
O O2 0.782572 0.570886 0.923610
O O3 0.000000 0.633167 0.943990
O O4 0.722658 0.629604 0.013962
O O5 0.772500 0.789986 0.750000
O O6 0.500000 0.784596 0.825465
O O7 0.762481 0.734463 0.846765
O O8 0.771164 0.821209 0.874993
O O9 0.219925 0.179577 0.750000
O O10 0.500000 0.177784 0.821302
O O11 0.000000 0.028934 0.558389
O O12 0.723001 0.000000 0.500000
O O13 0.761502 0.991740 0.629982
O O14 0.774219 0.048648 0.250000
O O15 0.500000 0.051549 0.175341
O O16 0.771034 0.092935 0.134150
O O17 0.500000 0.866485 0.909994
#
# Coordination Sequence:
#
# PCOD9472783 Si02
#       6
#    16  16  16  16  16  16
#     4  10  20  35  57  78 101 140 183 223 269 317
#     4   9  17  31  52  76 104 138 173 213 265 320
#     4   9  19  35  52  74 105 138 176 220 263 313
#     4  11  23  38  55  78 111 146 178 218 273 328
#     4  10  20  35  58  84 107 138 182 227 269 320
#     4   9  17  31  53  80 106 134 175 222 264 314
#
# _framework density 20.386012999999998
#
# number of rings (size 3 to 8) (size 9 to 14) (size 15 to 20)
#    0.000    2.333    1.667    1.000    0.000    5.000 
#    0.000    3.333    0.000    2.000    0.000    0.000 
#    0.000    0.000    0.000    0.000    0.000    0.000 
#
# Total GULP energy -268014.002148 kJ/mol
# GULP energy per Si atom -5583.625045 kJ/mol
# Density = 2.033961 g / cm^3
# Si number density = 20.386013 Si / 1000 Ang^3
#
#
#
# Elastic Constant Matrix: (Units=GPa)
#
#
# Indices 1 2 3 4 5 6 
#
# 1 35.2885 -15.4644 -1.1557 0.0000 0.0000 0.0000
# 2 -15.4644 167.2306 120.5571 0.0000 0.0000 0.0000
# 3 -1.1557 120.5571 168.7409 0.0000 0.0000 0.0000
# 4 0.0000 0.0000 0.0000 40.6705 0.0000 0.0000
# 5 0.0000 0.0000 0.0000 0.0000 1.4672 0.0000
# 6 0.0000 0.0000 0.0000 0.0000 0.0000 43.3491
#
#
#
# Elastic Compliance Matrix: (Units=1/GPa)
#
#
# Indices 1 2 3 4 5 6 
#
# 1 0.030639 0.005531 -0.003741 0.000000 0.000000 0.000000
# 2 0.005531 0.013329 -0.009485 0.000000 0.000000 0.000000
# 3 -0.003741 -0.009485 0.012677 0.000000 0.000000 0.000000
# 4 0.000000 0.000000 0.000000 0.024588 0.000000 0.000000
# 5 0.000000 0.000000 0.000000 0.000000 0.681554 0.000000
# 6 0.000000 0.000000 0.000000 0.000000 0.000000 0.023069
#
#
# Mechanical properties :
#
#
# Convention : Reuss Voigt Hill
#
# Bulk Modulus (GPa) = 24.24054 64.34822 44.29438
# Shear Modulus (GPa) = 6.13498 34.91892 20.52695
#
# Velocity S-wave (km/s) = 1.73665 4.14319 3.17663
# Velocity P-wave (km/s) = 3.99222 7.38387 5.93546
#
# Compressibility (1/GPa) = 0.04125321
#
# Stress axis : x y z
#
# Youngs Moduli (GPa) = 32.63822 75.02458 78.88182
#
# Poissons Ratio (x) = -0.41492 0.29513
# Poissons Ratio (y) = -0.18051 0.74819
# Poissons Ratio (z) = 0.12211 0.71161
#
# Static dielectric constant tensor:
#      x y z
#    x 1.755100 0.000000 0.000000 
#    y 0.000000 1.673900 0.000000 
#    z 0.000000 0.000000 1.724780 
# 
# From -- ./inp_files/51318.got.cif
#   From: 2010.05.17/outbox.cif.g08.bks.cpg/sg63_26_cif.got.tgz:51318.got - 2010.06.03 15:47:04.
