data_PCOD9472216
_publ_section_title
;
Structure prediction by ZEFSAII (Michael W. Deem and Ramdas Pophale) SiO2 
 PCOD9472216
Probable space group: C M C M
;
_chemical_formula_sum "Si O2"
_cell_formula_units_Z 80
_cell_length_a 21.664193
_cell_length_b 19.705449
_cell_length_c 8.656933
_cell_angle_alpha 90.000000
_cell_angle_beta 90.000000
_cell_angle_gamma 90.000000
_cell_volume 3695.667641
_symmetry_space_group_name_H-M "C M C M"
_symmetry_group_IT_number 63
_symmetry_cell_setting 'orthorhombic'
loop_
_space_group_symop_operation_xyz
x,y,z
-x,-y,1/2+z
x,-y,-z
-x,y,1/2-z
-x,-y,-z
x,y,1/2-z
-x,y,z
x,-y,1/2+z
1/2+x,1/2+y,z
1/2-x,1/2-y,1/2+z
1/2+x,1/2-y,-z
1/2-x,1/2+y,1/2-z
1/2-x,1/2-y,-z
1/2+x,1/2+y,1/2-z
1/2-x,1/2+y,z
1/2+x,1/2-y,1/2+z
loop_
_atom_site_type_symbol
_atom_site_label
_atom_site_fract_x
_atom_site_fract_y
_atom_site_fract_z
Si Si1 0.339231 0.178209 0.429022
Si Si2 0.754214 0.072417 0.566202
Si Si3 0.568190 0.281133 0.935096
Si Si4 0.572451 0.926378 0.427179
Si Si5 0.392320 0.569351 0.066153
O O1 0.324625 0.187152 0.250000
O O2 0.282645 0.139235 0.510916
O O3 0.370736 0.245853 0.496477
O O4 0.394162 0.125204 0.460765
O O5 0.753132 0.068413 0.750000
O O6 0.824066 0.076418 0.505648
O O7 0.728786 0.000000 0.500000
O O8 0.570277 0.270124 0.750000
O O9 0.500000 0.256520 0.988839
O O10 0.572138 0.361290 0.966164
O O11 0.596562 0.922200 0.250000
O O12 0.500000 0.911831 0.420201
O O13 0.580183 0.000000 0.500000
O O14 0.386268 0.562529 0.250000
O O15 0.420090 0.500000 0.000000
#
# Coordination Sequence:
#
# PCOD9472216 Si02
#       5
#    16  16  16  16  16
#     4  12  24  37  56  84 119 157 199 246 296 352
#     4  11  22  39  63  90 123 161 202 248 298 355
#     4  10  23  43  64  88 121 161 202 245 297 356
#     4  10  20  34  52  75 107 149 197 246 294 346
#     4  10  21  40  66  94 123 154 194 246 301 359
#
# _framework density 21.646968999999999
#
# number of rings (size 3 to 8) (size 9 to 14) (size 15 to 20)
#    0.000    1.400    0.000    7.200    0.000    6.800 
#    0.000    0.000    0.000    0.000    0.000    0.000 
#    0.000    0.000    0.000    0.000    0.000    0.000 
#
# Total GULP energy -223529.018971 kJ/mol
# GULP energy per Si atom -5588.225474 kJ/mol
# Density = 2.159770 g / cm^3
# Si number density = 21.646969 Si / 1000 Ang^3
#
#
#
# Elastic Constant Matrix: (Units=GPa)
#
#
# Indices 1 2 3 4 5 6 
#
# 1 69.6239 23.1707 22.0230 0.0000 0.0000 0.0000
# 2 23.1707 103.0858 47.9593 0.0000 0.0000 0.0000
# 3 22.0230 47.9593 86.8193 0.0000 0.0000 0.0000
# 4 0.0000 0.0000 0.0000 -67.2114 0.0000 0.0000
# 5 0.0000 0.0000 0.0000 0.0000 -37.6404 0.0000
# 6 0.0000 0.0000 0.0000 0.0000 0.0000 43.8658
#
#
#
# Elastic Compliance Matrix: (Units=1/GPa)
#
#
# Indices 1 2 3 4 5 6 
#
# 1 0.016011 -0.002301 -0.002791 0.000000 0.000000 0.000000
# 2 -0.002301 0.013387 -0.006811 0.000000 0.000000 0.000000
# 3 -0.002791 -0.006811 0.015989 0.000000 0.000000 0.000000
# 4 0.000000 0.000000 0.000000 -0.014878 0.000000 0.000000
# 5 0.000000 0.000000 0.000000 0.000000 -0.026567 0.000000
# 6 0.000000 0.000000 0.000000 0.000000 0.000000 0.022797
#
#
# Mechanical properties :
#
#
# Convention : Reuss Voigt Hill
#
# Bulk Modulus (GPa) = 46.33586 49.53724 47.93655
# Shear Modulus (GPa) = 86.60055 -1.10546 42.74755
#
# Velocity S-wave (km/s) = 6.33188 -0.71539 4.44865
# Velocity P-wave (km/s) = 8.65498 4.71714 6.96994
#
# Compressibility (1/GPa) = 0.02158156
#
# Stress axis : x y z
#
# Youngs Moduli (GPa) = 62.45620 74.70158 62.54442
#
# Poissons Ratio (x) = 0.17185 0.17454
# Poissons Ratio (y) = 0.14368 0.42601
# Poissons Ratio (z) = 0.17429 0.50881
#
# Static dielectric constant tensor:
#      x y z
#    x 1.806290 0.000000 0.000000 
#    y 0.000000 2.880680 0.000000 
#    z 0.000000 0.000000 1.739160 
# 
# From -- ./inp_files/12019.got.cif
#   From: 2010.05.17/outbox.cif.g08.bks.cpg/sg63_7_cif.got.tgz:12019.got - 2010.06.03 15:47:04.
