data_PCOD9472900
_publ_section_title
;
Structure prediction by ZEFSAII (Michael W. Deem and Ramdas Pophale) SiO2 
 PCOD9472900
Probable space group: C M C M
;
_chemical_formula_sum "Si O2"
_cell_formula_units_Z 64
_cell_length_a 7.883663
_cell_length_b 22.989285
_cell_length_c 19.539163
_cell_angle_alpha 90.000000
_cell_angle_beta 90.000000
_cell_angle_gamma 90.000000
_cell_volume 3541.273517
_symmetry_space_group_name_H-M "C M C M"
_symmetry_group_IT_number 63
_symmetry_cell_setting 'orthorhombic'
loop_
_space_group_symop_operation_xyz
x,y,z
-x,-y,1/2+z
x,-y,-z
-x,y,1/2-z
-x,-y,-z
x,y,1/2-z
-x,y,z
x,-y,1/2+z
1/2+x,1/2+y,z
1/2-x,1/2-y,1/2+z
1/2+x,1/2-y,-z
1/2-x,1/2+y,1/2-z
1/2-x,1/2-y,-z
1/2+x,1/2+y,1/2-z
1/2-x,1/2+y,z
1/2+x,1/2-y,1/2+z
loop_
_atom_site_type_symbol
_atom_site_label
_atom_site_fract_x
_atom_site_fract_y
_atom_site_fract_z
Si Si1 0.303245 0.331402 0.945403
Si Si2 0.185788 0.787447 0.398684
Si Si3 0.500000 0.017146 0.833436
Si Si4 0.000000 0.347775 0.169561
Si Si5 0.296557 0.467231 0.927256
O O1 0.500000 0.324530 0.925137
O O2 0.200715 0.282222 0.905277
O O3 0.258321 0.398558 0.936166
O O4 0.292591 0.313626 0.025006
O O5 0.335493 0.814215 0.355836
O O6 0.000000 0.803862 0.373133
O O7 0.500000 0.010436 0.750000
O O8 0.500000 0.085289 0.852938
O O9 0.668871 0.990778 0.869273
O O10 0.000000 0.348836 0.250000
O O11 0.500000 0.473790 0.911887
O O12 0.267079 0.500000 0.000000
#
# Coordination Sequence:
#
# PCOD9472900 Si02
#       5
#    16  16   8   8  16
#     4   9  18  34  59  89 120 143 181 241 292 339
#     4  10  20  35  59  87 114 148 186 233 294 344
#     4  11  25  41  59  85 119 162 201 239 290 354
#     4  11  24  41  57  79 116 152 195 239 280 342
#     4  10  21  38  62  91 119 152 197 247 293 346
#
# _framework density 18.072593000000001
#
# number of rings (size 3 to 8) (size 9 to 14) (size 15 to 20)
#    0.000    2.000    1.250    1.875    3.500    4.000 
#    0.000    3.750    0.000    0.000    0.000    0.000 
#    0.000    0.000    0.000    0.000    0.000    0.000 
#
# Total GULP energy -178501.040396 kJ/mol
# GULP energy per Si atom -5578.157512 kJ/mol
# Density = 1.803146 g / cm^3
# Si number density = 18.072593 Si / 1000 Ang^3
#
#
#
# Elastic Constant Matrix: (Units=GPa)
#
#
# Indices 1 2 3 4 5 6 
#
# 1 91.3868 61.3676 38.4446 0.0000 0.0000 0.0000
# 2 61.3676 146.3916 41.5455 0.0000 0.0000 0.0000
# 3 38.4446 41.5455 38.7583 0.0000 0.0000 0.0000
# 4 0.0000 0.0000 0.0000 21.7920 0.0000 0.0000
# 5 0.0000 0.0000 0.0000 0.0000 -51.5414 0.0000
# 6 0.0000 0.0000 0.0000 0.0000 0.0000 54.9400
#
#
#
# Elastic Compliance Matrix: (Units=1/GPa)
#
#
# Indices 1 2 3 4 5 6 
#
# 1 0.020299 -0.004017 -0.015828 0.000000 0.000000 0.000000
# 2 -0.004017 0.010613 -0.007391 0.000000 0.000000 0.000000
# 3 -0.015828 -0.007391 0.049424 0.000000 0.000000 0.000000
# 4 0.000000 0.000000 0.000000 0.045888 0.000000 0.000000
# 5 0.000000 0.000000 0.000000 0.000000 -0.019402 0.000000
# 6 0.000000 0.000000 0.000000 0.000000 0.000000 0.018202
#
#
# Mechanical properties :
#
#
# Convention : Reuss Voigt Hill
#
# Bulk Modulus (GPa) = 38.66708 62.13912 50.40310
# Shear Modulus (GPa) = 26.57920 14.05005 20.31462
#
# Velocity S-wave (km/s) = 3.83912 2.79126 3.35633
# Velocity P-wave (km/s) = 6.41043 6.69670 6.55513
#
# Compressibility (1/GPa) = 0.02586179
#
# Stress axis : x y z
#
# Youngs Moduli (GPa) = 49.26400 94.22778 20.23324
#
# Poissons Ratio (x) = 0.37854 0.32026
# Poissons Ratio (y) = 0.19791 0.14954
# Poissons Ratio (z) = 0.77977 0.69644
#
# Static dielectric constant tensor:
#      x y z
#    x 1.571340 0.000000 0.000000 
#    y 0.000000 1.651360 0.000000 
#    z 0.000000 0.000000 1.593190 
# 
# From -- ./inp_files/39883.got.cif
#   From: 2010.05.17/outbox.cif.g08.bks.cpg/sg63_20_cif.got.tgz:39883.got - 2010.06.03 15:47:04.
