data_PCOD9472819
_publ_section_title
;
Structure prediction by ZEFSAII (Michael W. Deem and Ramdas Pophale) SiO2 
 PCOD9472819
Probable space group: C M C M
;
_chemical_formula_sum "Si O2"
_cell_formula_units_Z 96
_cell_length_a 8.692023
_cell_length_b 31.019608
_cell_length_c 19.550464
_cell_angle_alpha 90.000000
_cell_angle_beta 90.000000
_cell_angle_gamma 90.000000
_cell_volume 5271.257613
_symmetry_space_group_name_H-M "C M C M"
_symmetry_group_IT_number 63
_symmetry_cell_setting 'orthorhombic'
loop_
_space_group_symop_operation_xyz
x,y,z
-x,-y,1/2+z
x,-y,-z
-x,y,1/2-z
-x,-y,-z
x,y,1/2-z
-x,y,z
x,-y,1/2+z
1/2+x,1/2+y,z
1/2-x,1/2-y,1/2+z
1/2+x,1/2-y,-z
1/2-x,1/2+y,1/2-z
1/2-x,1/2-y,-z
1/2+x,1/2+y,1/2-z
1/2-x,1/2+y,z
1/2+x,1/2-y,1/2+z
loop_
_atom_site_type_symbol
_atom_site_label
_atom_site_fract_x
_atom_site_fract_y
_atom_site_fract_z
Si Si1 0.684700 0.865104 0.564318
Si Si2 0.685357 0.699602 0.670340
Si Si3 0.314452 0.531282 0.670875
Si Si4 0.816835 0.769912 0.929929
Si Si5 0.814019 0.114199 0.915794
Si Si6 0.814508 0.438214 0.828813
O O1 0.500000 0.862031 0.565458
O O2 0.754077 0.818146 0.578337
O O3 0.739592 0.880150 0.489682
O O4 0.734351 0.900117 0.620789
O O5 0.727445 0.697308 0.750000
O O6 0.500000 0.704486 0.666022
O O7 0.762927 0.739219 0.631446
O O8 0.725379 0.655449 0.631033
O O9 0.267837 0.539270 0.750000
O O10 0.500000 0.529636 0.669584
O O11 0.265775 0.570435 0.622410
O O12 0.249803 0.484818 0.650115
O O13 0.000000 0.770698 0.934884
O O14 0.750000 0.750000 0.000000
O O15 0.000000 0.113657 0.922975
O O16 0.766358 0.430455 0.750000
O O17 0.000000 0.440164 0.830073
#
# Coordination Sequence:
#
# PCOD9472819 Si02
#       6
#    16  16  16  16  16  16
#     4  11  23  38  59  85 113 150 194 241 292 348
#     4  10  21  38  61  88 118 154 194 236 286 345
#     4   9  18  34  57  84 114 150 192 236 284 338
#     4  12  24  40  61  85 116 153 194 239 292 348
#     4  10  20  35  57  85 118 154 190 233 285 346
#     4   9  20  39  59  80 110 150 195 239 286 341
#
# _framework density 18.211971999999999
#
# number of rings (size 3 to 8) (size 9 to 14) (size 15 to 20)
#    0.000    1.833    1.667    2.500    0.000    5.667 
#    0.000    5.000    0.000    3.000    0.000    0.000 
#    0.000    0.000    0.000    0.000    0.000    0.000 
#
# Total GULP energy -268142.336425 kJ/mol
# GULP energy per Si atom -5586.298676 kJ/mol
# Density = 1.817052 g / cm^3
# Si number density = 18.211972 Si / 1000 Ang^3
#
#
#
# Elastic Constant Matrix: (Units=GPa)
#
#
# Indices 1 2 3 4 5 6 
#
# 1 38.7756 57.2427 49.5089 0.0000 0.0000 0.0000
# 2 57.2427 211.9187 118.8155 0.0000 0.0000 0.0000
# 3 49.5089 118.8155 139.4477 0.0000 0.0000 0.0000
# 4 0.0000 0.0000 0.0000 41.3915 0.0000 0.0000
# 5 0.0000 0.0000 0.0000 0.0000 30.3278 0.0000
# 6 0.0000 0.0000 0.0000 0.0000 0.0000 32.5299
#
#
#
# Elastic Compliance Matrix: (Units=1/GPa)
#
#
# Indices 1 2 3 4 5 6 
#
# 1 0.052221 -0.007105 -0.012487 0.000000 0.000000 0.000000
# 2 -0.007105 0.010001 -0.005999 0.000000 0.000000 0.000000
# 3 -0.012487 -0.005999 0.016716 0.000000 0.000000 0.000000
# 4 0.000000 0.000000 0.000000 0.024160 0.000000 0.000000
# 5 0.000000 0.000000 0.000000 0.000000 0.032973 0.000000
# 6 0.000000 0.000000 0.000000 0.000000 0.000000 0.030741
#
#
# Mechanical properties :
#
#
# Convention : Reuss Voigt Hill
#
# Bulk Modulus (GPa) = 36.02698 93.47515 64.75107
# Shear Modulus (GPa) = 22.00259 31.82151 26.91205
#
# Velocity S-wave (km/s) = 3.47960 4.18459 3.84827
# Velocity P-wave (km/s) = 5.99737 8.64785 7.44157
#
# Compressibility (1/GPa) = 0.02775698
#
# Stress axis : x y z
#
# Youngs Moduli (GPa) = 19.14934 99.98502 59.82316
#
# Poissons Ratio (x) = 0.71039 0.74699
# Poissons Ratio (y) = 0.13605 0.35889
# Poissons Ratio (z) = 0.23911 0.59983
#
# Static dielectric constant tensor:
#      x y z
#    x 1.619930 0.000000 0.000000 
#    y 0.000000 1.597810 0.000000 
#    z 0.000000 0.000000 1.606520 
# 
# From -- ./inp_files/51413.got.cif
#   From: 2010.05.17/outbox.cif.g08.bks.cpg/sg63_26_cif.got.tgz:51413.got - 2010.06.03 15:47:04.
