data_PCOD9472992
_publ_section_title
;
Structure prediction by ZEFSAII (Michael W. Deem and Ramdas Pophale) SiO2 
 PCOD9472992
Probable space group: C M C M
;
_chemical_formula_sum "Si O2"
_cell_formula_units_Z 88
_cell_length_a 19.628791
_cell_length_b 24.792513
_cell_length_c 7.407339
_cell_angle_alpha 90.000000
_cell_angle_beta 90.000000
_cell_angle_gamma 90.000000
_cell_volume 3604.759717
_symmetry_space_group_name_H-M "C M C M"
_symmetry_group_IT_number 63
_symmetry_cell_setting 'orthorhombic'
loop_
_space_group_symop_operation_xyz
x,y,z
-x,-y,1/2+z
x,-y,-z
-x,y,1/2-z
-x,-y,-z
x,y,1/2-z
-x,y,z
x,-y,1/2+z
1/2+x,1/2+y,z
1/2-x,1/2-y,1/2+z
1/2+x,1/2-y,-z
1/2-x,1/2+y,1/2-z
1/2-x,1/2-y,-z
1/2+x,1/2+y,1/2-z
1/2-x,1/2+y,z
1/2+x,1/2-y,1/2+z
loop_
_atom_site_type_symbol
_atom_site_label
_atom_site_fract_x
_atom_site_fract_y
_atom_site_fract_z
Si Si1 0.000000 0.935689 0.465157
Si Si2 0.573916 0.718270 0.540099
Si Si3 0.422047 0.940542 0.465628
Si Si4 0.851092 0.062895 0.534770
Si Si5 0.863882 0.672661 0.531069
Si Si6 0.214361 0.831830 0.469968
O O1 0.925918 0.918858 0.535848
O O2 0.000000 0.925799 0.250000
O O3 0.000000 0.000000 0.500000
O O4 0.572771 0.701329 0.750000
O O5 0.500000 0.702485 0.463405
O O6 0.582784 0.782656 0.530678
O O7 0.645094 0.696102 0.463849
O O8 0.425512 0.935297 0.250000
O O9 0.500000 0.940223 0.535610
O O10 0.382689 0.887614 0.529955
O O11 0.392148 0.000000 0.500000
O O12 0.855396 0.067553 0.750000
O O13 0.794489 0.105317 0.477780
O O14 0.839034 0.000000 0.500000
O O15 0.864269 0.673220 0.750000
O O16 0.787758 0.688302 0.468022
O O17 0.215110 0.827699 0.250000
#
# Coordination Sequence:
#
# PCOD9472992 Si02
#       6
#     8  16  16  16  16  16
#     4   8  14  24  42  64  88 124 164 204 245 286
#     4  10  21  36  56  80 103 132 175 221 261 307
#     4   9  18  32  51  76 104 135 170 208 251 302
#     4   9  17  30  48  71 100 134 172 211 254 302
#     4  10  20  36  56  77 106 141 173 210 262 317
#     4   9  19  34  53  77 105 138 175 215 259 312
#
# _framework density 24.412168000000001
#
# number of rings (size 3 to 8) (size 9 to 14) (size 15 to 20)
#    0.000    2.727    0.000    1.091    1.273    2.545 
#    0.000    3.636    0.000    0.000    0.000    0.000 
#    0.000    0.000    0.000    0.000    0.000    0.000 
#
# Total GULP energy -245696.395028 kJ/mol
# GULP energy per Si atom -5584.008978 kJ/mol
# Density = 2.435661 g / cm^3
# Si number density = 24.412168 Si / 1000 Ang^3
#
#
#
# Elastic Constant Matrix: (Units=GPa)
#
#
# Indices 1 2 3 4 5 6 
#
# 1 124.7385 37.9031 4.7842 0.0000 0.0000 0.0000
# 2 37.9031 108.5241 -6.5195 0.0000 0.0000 0.0000
# 3 4.7842 -6.5195 84.5715 0.0000 0.0000 0.0000
# 4 0.0000 0.0000 0.0000 11.5858 0.0000 0.0000
# 5 0.0000 0.0000 0.0000 0.0000 4.3320 0.0000
# 6 0.0000 0.0000 0.0000 0.0000 0.0000 42.2316
#
#
#
# Elastic Compliance Matrix: (Units=1/GPa)
#
#
# Indices 1 2 3 4 5 6 
#
# 1 0.009016 -0.003195 -0.000756 0.000000 0.000000 0.000000
# 2 -0.003195 0.010389 0.000982 0.000000 0.000000 0.000000
# 3 -0.000756 0.000982 0.011943 0.000000 0.000000 0.000000
# 4 0.000000 0.000000 0.000000 0.086313 0.000000 0.000000
# 5 0.000000 0.000000 0.000000 0.000000 0.230841 0.000000
# 6 0.000000 0.000000 0.000000 0.000000 0.000000 0.023679
#
#
# Mechanical properties :
#
#
# Convention : Reuss Voigt Hill
#
# Bulk Modulus (GPa) = 39.35461 43.35219 41.35340
# Shear Modulus (GPa) = 12.93361 30.40762 21.67062
#
# Velocity S-wave (km/s) = 2.30424 3.53312 2.98266
# Velocity P-wave (km/s) = 4.82030 5.86864 5.37011
#
# Compressibility (1/GPa) = 0.02540998
#
# Stress axis : x y z
#
# Youngs Moduli (GPa) = 110.90812 96.25354 83.73265
#
# Poissons Ratio (x) = 0.30748 0.06333
# Poissons Ratio (y) = 0.35430 -0.08219
# Poissons Ratio (z) = 0.08388 -0.09448
#
# Static dielectric constant tensor:
#      x y z
#    x 1.933380 0.000000 0.000000 
#    y 0.000000 1.940390 0.000000 
#    z 0.000000 0.000000 1.956870 
# 
# From -- ./inp_files/8238.got.cif
#   From: 2010.05.17/outbox.cif.g08.bks.cpg/sg63_5_cif.got.tgz:8238.got - 2010.06.03 15:47:04.
