data_PCOD9472985
_publ_section_title
;
Structure prediction by ZEFSAII (Michael W. Deem and Ramdas Pophale) SiO2 
 PCOD9472985
Probable space group: C M C M
;
_chemical_formula_sum "Si O2"
_cell_formula_units_Z 96
_cell_length_a 17.177050
_cell_length_b 11.471195
_cell_length_c 25.851848
_cell_angle_alpha 90.000000
_cell_angle_beta 90.000000
_cell_angle_gamma 90.000000
_cell_volume 5093.881481
_symmetry_space_group_name_H-M "C M C M"
_symmetry_group_IT_number 63
_symmetry_cell_setting 'orthorhombic'
loop_
_space_group_symop_operation_xyz
x,y,z
-x,-y,1/2+z
x,-y,-z
-x,y,1/2-z
-x,-y,-z
x,y,1/2-z
-x,y,z
x,-y,1/2+z
1/2+x,1/2+y,z
1/2-x,1/2-y,1/2+z
1/2+x,1/2-y,-z
1/2-x,1/2+y,1/2-z
1/2-x,1/2-y,-z
1/2+x,1/2+y,1/2-z
1/2-x,1/2+y,z
1/2+x,1/2-y,1/2+z
loop_
_atom_site_type_symbol
_atom_site_label
_atom_site_fract_x
_atom_site_fract_y
_atom_site_fract_z
Si Si1 0.738917 0.187835 0.190305
Si Si2 0.308459 0.982635 0.603908
Si Si3 0.088095 0.894924 0.837452
Si Si4 0.665427 0.220945 0.026252
Si Si5 0.838193 0.886989 0.379150
Si Si6 0.085805 0.696184 0.919768
O O1 0.716015 0.194066 0.250000
O O2 0.693372 0.088679 0.157523
O O3 0.831615 0.153845 0.188710
O O4 0.712049 0.305491 0.160217
O O5 0.331332 0.901409 0.556277
O O6 0.219681 0.018637 0.596326
O O7 0.356845 0.100699 0.603996
O O8 0.088939 0.817724 0.889580
O O9 0.000000 0.877451 0.814976
O O10 0.100362 0.032336 0.849193
O O11 0.639510 0.308608 0.071856
O O12 0.750000 0.250000 0.000000
O O13 0.607384 0.216569 0.978815
O O14 0.000000 0.646763 0.914606
#
# Coordination Sequence:
#
# PCOD9472985 Si02
#       6
#    16  16  16  16  16  16
#     4  10  21  39  64  87 109 147 201 249 298 357
#     4  10  20  36  55  83 115 152 196 246 289 342
#     4  10  22  40  59  86 125 155 188 247 304 350
#     4  11  20  32  55  84 117 159 200 238 285 344
#     4  10  20  36  58  86 115 154 197 242 293 348
#     4  11  22  37  56  85 123 161 196 237 295 358
#
# _framework density 18.846139999999998
#
# number of rings (size 3 to 8) (size 9 to 14) (size 15 to 20)
#    0.000    1.667    3.333    2.500    0.000    7.000 
#    0.000    4.167    0.000    1.500    0.000    0.000 
#    0.000    0.000    0.000    0.000    0.000    0.000 
#
# Total GULP energy -267258.306373 kJ/mol
# GULP energy per Si atom -5567.881383 kJ/mol
# Density = 1.880324 g / cm^3
# Si number density = 18.846140 Si / 1000 Ang^3
#
#
#
# Elastic Constant Matrix: (Units=GPa)
#
#
# Indices 1 2 3 4 5 6 
#
# 1 63.9908 15.0560 19.5288 0.0000 0.0000 0.0000
# 2 15.0560 87.4188 35.5606 0.0000 0.0000 0.0000
# 3 19.5288 35.5606 119.3616 0.0000 0.0000 0.0000
# 4 0.0000 0.0000 0.0000 3.5988 0.0000 0.0000
# 5 0.0000 0.0000 0.0000 0.0000 12.1837 0.0000
# 6 0.0000 0.0000 0.0000 0.0000 0.0000 26.1353
#
#
#
# Elastic Compliance Matrix: (Units=1/GPa)
#
#
# Indices 1 2 3 4 5 6 
#
# 1 0.016755 -0.002015 -0.002141 0.000000 0.000000 0.000000
# 2 -0.002015 0.013259 -0.003621 0.000000 0.000000 0.000000
# 3 -0.002141 -0.003621 0.009807 0.000000 0.000000 0.000000
# 4 0.000000 0.000000 0.000000 0.277868 0.000000 0.000000
# 5 0.000000 0.000000 0.000000 0.000000 0.082077 0.000000
# 6 0.000000 0.000000 0.000000 0.000000 0.000000 0.038262
#
#
# Mechanical properties :
#
#
# Convention : Reuss Voigt Hill
#
# Bulk Modulus (GPa) = 41.20657 45.67357 43.44007
# Shear Modulus (GPa) = 10.83025 21.75862 16.29443
#
# Velocity S-wave (km/s) = 2.39982 3.40154 2.94360
# Velocity P-wave (km/s) = 5.43977 6.30197 5.88668
#
# Compressibility (1/GPa) = 0.02426797
#
# Stress axis : x y z
#
# Youngs Moduli (GPa) = 59.68490 75.42078 101.96974
#
# Poissons Ratio (x) = 0.15195 0.21832
# Poissons Ratio (y) = 0.12025 0.36918
# Poissons Ratio (z) = 0.12779 0.27306
#
# Static dielectric constant tensor:
#      x y z
#    x 1.704610 0.000000 0.000000 
#    y 0.000000 1.715510 0.000000 
#    z 0.000000 0.000000 1.674910 
# 
# From -- ./inp_files/63710.got.cif
#   From: 2010.05.17/outbox.cif.g08.bks.cpg/sg63_32_cif.got.tgz:63710.got - 2010.06.03 15:47:04.
