data_PCOD9472330
_publ_section_title
;
Structure prediction by ZEFSAII (Michael W. Deem and Ramdas Pophale) SiO2 
 PCOD9472330
Probable space group: C M C M
;
_chemical_formula_sum "Si O2"
_cell_formula_units_Z 116
_cell_length_a 7.417164
_cell_length_b 25.991813
_cell_length_c 29.096850
_cell_angle_alpha 90.000000
_cell_angle_beta 90.000000
_cell_angle_gamma 90.000000
_cell_volume 5609.451930
_symmetry_space_group_name_H-M "C M C M"
_symmetry_group_IT_number 63
_symmetry_cell_setting 'orthorhombic'
loop_
_space_group_symop_operation_xyz
x,y,z
-x,-y,1/2+z
x,-y,-z
-x,y,1/2-z
-x,-y,-z
x,y,1/2-z
-x,y,z
x,-y,1/2+z
1/2+x,1/2+y,z
1/2-x,1/2-y,1/2+z
1/2+x,1/2-y,-z
1/2-x,1/2+y,1/2-z
1/2-x,1/2-y,-z
1/2+x,1/2+y,1/2-z
1/2-x,1/2+y,z
1/2+x,1/2-y,1/2+z
loop_
_atom_site_type_symbol
_atom_site_label
_atom_site_fract_x
_atom_site_fract_y
_atom_site_fract_z
Si Si1 0.218444 0.164237 0.503642
Si Si2 0.716434 0.550803 0.975228
Si Si3 0.792134 0.308794 0.107351
Si Si4 0.285413 0.079456 0.628946
Si Si5 0.209010 0.376764 0.824720
Si Si6 0.281127 0.301683 0.595355
Si Si7 0.718912 0.007751 0.197059
Si Si8 0.500000 0.344831 0.750000
O O1 0.275115 0.104405 0.502031
O O2 0.288245 0.185532 0.551943
O O3 0.277839 0.192395 0.457478
O O4 0.000000 0.166368 0.506006
O O5 0.500000 0.549894 0.978721
O O6 0.760197 0.554871 0.921386
O O7 0.787065 0.500000 0.000000
O O8 0.711988 0.362041 0.126778
O O9 0.715013 0.252364 0.116613
O O10 0.000000 0.307430 0.122611
O O11 0.500000 0.084101 0.636053
O O12 0.214942 0.040436 0.667307
O O13 0.223600 0.349667 0.873964
O O14 0.265702 0.436880 0.824337
O O15 0.342233 0.348301 0.790031
O O16 0.000000 0.375052 0.809652
O O17 0.500000 0.300547 0.594846
O O18 0.779377 0.006910 0.250000
O O19 0.500000 0.005216 0.197287
#
# Coordination Sequence:
#
# PCOD9472330 Si02
#       8
#    16  16  16  16  16  16  16   4
#     4   9  18  31  49  73 108 152 195 239 286 337
#     4   9  18  31  44  69 105 144 185 227 280 343
#     4   9  18  33  53  76 113 151 195 240 286 340
#     4   9  18  33  53  75 104 144 186 232 285 337
#     4  11  23  39  62  91 117 152 188 234 294 353
#     4  10  20  34  53  82 117 151 197 243 286 349
#     4   9  18  35  57  79 107 137 182 233 283 349
#     4  12  22  44  64  86 124 150 190 236 298 344
#
# _framework density 20.679382
#
# number of rings (size 3 to 8) (size 9 to 14) (size 15 to 20)
#    0.000    2.483    1.379    0.621    1.931    1.379 
#    1.241    0.000    1.517    0.000    0.000    0.000 
#    0.000    0.000    0.000    0.000    0.000    0.000 
#
# Total GULP energy -323142.346811 kJ/mol
# GULP energy per Si atom -5571.419773 kJ/mol
# Density = 2.063231 g / cm^3
# Si number density = 20.679382 Si / 1000 Ang^3
#
#
#
# Elastic Constant Matrix: (Units=GPa)
#
#
# Indices 1 2 3 4 5 6 
#
# 1 82.2956 -2.5307 -9.9504 0.0000 0.0000 0.0000
# 2 -2.5307 150.1596 59.8057 0.0000 0.0000 0.0000
# 3 -9.9504 59.8057 48.3530 0.0000 0.0000 0.0000
# 4 0.0000 0.0000 0.0000 8.0112 0.0000 0.0000
# 5 0.0000 0.0000 0.0000 0.0000 26.2974 0.0000
# 6 0.0000 0.0000 0.0000 0.0000 0.0000 15.5842
#
#
#
# Elastic Compliance Matrix: (Units=1/GPa)
#
#
# Indices 1 2 3 4 5 6 
#
# 1 0.012659 -0.001624 0.004614 0.000000 0.000000 0.000000
# 2 -0.001624 0.013334 -0.016826 0.000000 0.000000 0.000000
# 3 0.004614 -0.016826 0.042442 0.000000 0.000000 0.000000
# 4 0.000000 0.000000 0.000000 0.124825 0.000000 0.000000
# 5 0.000000 0.000000 0.000000 0.000000 0.038027 0.000000
# 6 0.000000 0.000000 0.000000 0.000000 0.000000 0.064167
#
#
# Mechanical properties :
#
#
# Convention : Reuss Voigt Hill
#
# Bulk Modulus (GPa) = 24.53221 41.71748 33.12485
# Shear Modulus (GPa) = 14.84939 25.54416 20.19677
#
# Velocity S-wave (km/s) = 2.68260 3.51842 3.12855
# Velocity P-wave (km/s) = 4.63509 6.05995 5.39477
#
# Compressibility (1/GPa) = 0.04076274
#
# Stress axis : x y z
#
# Youngs Moduli (GPa) = 78.99342 74.99757 23.56134
#
# Poissons Ratio (x) = 0.12183 -0.10872
# Poissons Ratio (y) = 0.12832 0.39645
# Poissons Ratio (z) = -0.36450 1.26193
#
# Static dielectric constant tensor:
#      x y z
#    x 1.785210 0.000000 0.000000 
#    y 0.000000 1.769270 0.000000 
#    z 0.000000 0.000000 1.715370 
# 
# From -- ./inp_files/72212.got.cif
#   From: 2010.05.17/outbox.cif.g08.bks.cpg/sg63_37_cif.got.tgz:72212.got - 2010.06.03 15:47:04.
