data_PCOD9472425
_publ_section_title
;
Structure prediction by ZEFSAII (Michael W. Deem and Ramdas Pophale) SiO2 
 PCOD9472425
Probable space group: C M C M
;
_chemical_formula_sum "Si O2"
_cell_formula_units_Z 96
_cell_length_a 12.902195
_cell_length_b 17.269881
_cell_length_c 20.254822
_cell_angle_alpha 90.000000
_cell_angle_beta 90.000000
_cell_angle_gamma 90.000000
_cell_volume 4513.166724
_symmetry_space_group_name_H-M "C M C M"
_symmetry_group_IT_number 63
_symmetry_cell_setting 'orthorhombic'
loop_
_space_group_symop_operation_xyz
x,y,z
-x,-y,1/2+z
x,-y,-z
-x,y,1/2-z
-x,-y,-z
x,y,1/2-z
-x,y,z
x,-y,1/2+z
1/2+x,1/2+y,z
1/2-x,1/2-y,1/2+z
1/2+x,1/2-y,-z
1/2-x,1/2+y,1/2-z
1/2-x,1/2-y,-z
1/2+x,1/2+y,1/2-z
1/2-x,1/2+y,z
1/2+x,1/2-y,1/2+z
loop_
_atom_site_type_symbol
_atom_site_label
_atom_site_fract_x
_atom_site_fract_y
_atom_site_fract_z
Si Si1 0.500000 0.751779 0.670552
Si Si2 0.190459 0.012401 0.106877
Si Si3 0.170062 0.725496 0.068949
Si Si4 0.879111 0.109902 0.504417
Si Si5 0.879180 0.310584 0.430357
Si Si6 0.000000 0.931528 0.326598
Si Si7 0.118216 0.546785 0.672627
O O1 0.500000 0.761150 0.750000
O O2 0.399933 0.786410 0.632985
O O3 0.500000 0.659117 0.652907
O O4 0.099735 0.979664 0.152316
O O5 0.297661 0.013289 0.145349
O O6 0.157344 0.089780 0.069262
O O7 0.188260 0.945412 0.051166
O O8 0.287570 0.749750 0.086635
O O9 0.130770 0.804393 0.032248
O O10 0.148331 0.667124 0.007420
O O11 0.000000 0.086876 0.509565
O O12 0.873004 0.378710 0.375873
O O13 0.000000 0.283845 0.429280
O O14 0.000000 0.925343 0.250000
O O15 0.138523 0.565806 0.750000
O O16 0.000000 0.518567 0.667962
#
# Coordination Sequence:
#
# PCOD9472425 Si02
#       7
#     8  16  16  16  16   8  16
#     4  11  20  31  51  83 116 145 184 234 288 333
#     4  11  18  31  48  77 107 138 177 221 275 331
#     4  11  19  34  54  82 115 149 188 235 285 336
#     4  11  18  31  51  77 116 143 174 219 285 335
#     4  10  20  34  55  78 112 148 190 238 287 331
#     4  11  18  26  46  74 106 139 171 212 267 328
#     4  10  21  37  55  78 109 145 188 237 286 330
#
# _framework density 21.271094999999999
#
# number of rings (size 3 to 8) (size 9 to 14) (size 15 to 20)
#    0.000    1.333    6.667    1.000    0.000    2.000 
#    0.000    2.500    0.000    2.000    0.000    0.000 
#    0.000    0.000    0.000    0.000    0.000    0.000 
#
# Total GULP energy -267633.206911 kJ/mol
# GULP energy per Si atom -5575.691811 kJ/mol
# Density = 2.122268 g / cm^3
# Si number density = 21.271095 Si / 1000 Ang^3
#
#
#
# Elastic Constant Matrix: (Units=GPa)
#
#
# Indices 1 2 3 4 5 6 
#
# 1 171.0610 6.3010 64.2142 0.0000 0.0000 0.0000
# 2 6.3010 37.2928 15.5594 0.0000 0.0000 0.0000
# 3 64.2142 15.5594 131.2300 0.0000 0.0000 0.0000
# 4 0.0000 0.0000 0.0000 32.4354 0.0000 0.0000
# 5 0.0000 0.0000 0.0000 0.0000 21.1406 0.0000
# 6 0.0000 0.0000 0.0000 0.0000 0.0000 10.8111
#
#
#
# Elastic Compliance Matrix: (Units=1/GPa)
#
#
# Indices 1 2 3 4 5 6 
#
# 1 0.007164 0.000265 -0.003537 0.000000 0.000000 0.000000
# 2 0.000265 0.028220 -0.003476 0.000000 0.000000 0.000000
# 3 -0.003537 -0.003476 0.009763 0.000000 0.000000 0.000000
# 4 0.000000 0.000000 0.000000 0.030830 0.000000 0.000000
# 5 0.000000 0.000000 0.000000 0.000000 0.047302 0.000000
# 6 0.000000 0.000000 0.000000 0.000000 0.000000 0.092498
#
#
# Mechanical properties :
#
#
# Convention : Reuss Voigt Hill
#
# Bulk Modulus (GPa) = 31.59336 56.85924 44.22630
# Shear Modulus (GPa) = 20.84871 29.77804 25.31337
#
# Velocity S-wave (km/s) = 3.13412 3.74562 3.45343
# Velocity P-wave (km/s) = 5.28979 6.74500 6.06123
#
# Compressibility (1/GPa) = 0.03165222
#
# Stress axis : x y z
#
# Youngs Moduli (GPa) = 139.59075 35.43569 102.42757
#
# Poissons Ratio (x) = -0.00940 0.36227
# Poissons Ratio (y) = -0.03703 0.35601
# Poissons Ratio (z) = 0.49372 0.12317
#
# Static dielectric constant tensor:
#      x y z
#    x 1.812710 0.000000 0.000000 
#    y 0.000000 1.853430 0.000000 
#    z 0.000000 0.000000 1.783530 
# 
# From -- ./inp_files/42753.got.cif
#   From: 2010.05.17/outbox.cif.g08.bks.cpg/sg63_22_cif.got.tgz:42753.got - 2010.06.03 15:47:04.
