data_PCOD9472510
_publ_section_title
;
Structure prediction by ZEFSAII (Michael W. Deem and Ramdas Pophale) SiO2 
 PCOD9472510
Probable space group: C M C M
;
_chemical_formula_sum "Si O2"
_cell_formula_units_Z 96
_cell_length_a 20.784399
_cell_length_b 11.659699
_cell_length_c 21.651657
_cell_angle_alpha 90.000000
_cell_angle_beta 90.000000
_cell_angle_gamma 90.000000
_cell_volume 5247.059012
_symmetry_space_group_name_H-M "C M C M"
_symmetry_group_IT_number 63
_symmetry_cell_setting 'orthorhombic'
loop_
_space_group_symop_operation_xyz
x,y,z
-x,-y,1/2+z
x,-y,-z
-x,y,1/2-z
-x,-y,-z
x,y,1/2-z
-x,y,z
x,-y,1/2+z
1/2+x,1/2+y,z
1/2-x,1/2-y,1/2+z
1/2+x,1/2-y,-z
1/2-x,1/2+y,1/2-z
1/2-x,1/2-y,-z
1/2+x,1/2+y,1/2-z
1/2-x,1/2+y,z
1/2+x,1/2-y,1/2+z
loop_
_atom_site_type_symbol
_atom_site_label
_atom_site_fract_x
_atom_site_fract_y
_atom_site_fract_z
Si Si1 0.927267 0.294253 0.600246
Si Si2 0.813689 0.471151 0.926632
Si Si3 0.928312 0.132419 0.019274
Si Si4 0.792042 0.344656 0.319547
Si Si5 0.324078 0.378388 0.615702
Si Si6 0.359028 0.389278 0.319965
O O1 0.874388 0.391801 0.589798
O O2 0.927112 0.213131 0.540043
O O3 0.904882 0.208907 0.654220
O O4 0.000000 0.337576 0.609583
O O5 0.813814 0.576157 0.877182
O O6 0.745918 0.407340 0.912444
O O7 0.815284 0.500000 0.000000
O O8 0.871579 0.169182 0.063994
O O9 0.000000 0.139261 0.047437
O O10 0.917802 0.000000 0.000000
O O11 0.810118 0.385336 0.250000
O O12 0.815686 0.215978 0.331473
O O13 0.714446 0.344195 0.321798
O O14 0.356313 0.495220 0.640035
O O15 0.375659 0.418355 0.250000
#
# Coordination Sequence:
#
# PCOD9472510 Si02
#       6
#    16  16  16  16  16  16
#     4  11  23  40  59  84 121 162 201 245 301 362
#     4  11  24  38  61  94 123 158 211 261 300 359
#     4  10  20  34  56  86 121 153 186 240 313 368
#     4  10  22  39  60  88 124 162 200 251 313 370
#     4  11  20  36  64  89 120 154 196 255 307 365
#     4  10  21  36  56  86 117 153 200 248 301 361
#
# _framework density 18.295963
#
# number of rings (size 3 to 8) (size 9 to 14) (size 15 to 20)
#    0.000    1.500    3.333    2.000    2.333    3.333 
#    0.000    0.833    0.000    2.500    0.000    0.000 
#    0.000    0.000    0.000    0.000    0.000    0.000 
#
# Total GULP energy -267804.002913 kJ/mol
# GULP energy per Si atom -5579.250061 kJ/mol
# Density = 1.825432 g / cm^3
# Si number density = 18.295963 Si / 1000 Ang^3
#
#
#
# Elastic Constant Matrix: (Units=GPa)
#
#
# Indices 1 2 3 4 5 6 
#
# 1 90.5492 31.5102 44.3523 0.0000 0.0000 0.0000
# 2 31.5102 45.1109 31.6655 0.0000 0.0000 0.0000
# 3 44.3523 31.6655 95.7414 0.0000 0.0000 0.0000
# 4 0.0000 0.0000 0.0000 24.3029 0.0000 0.0000
# 5 0.0000 0.0000 0.0000 0.0000 14.4498 0.0000
# 6 0.0000 0.0000 0.0000 0.0000 0.0000 26.5751
#
#
#
# Elastic Compliance Matrix: (Units=1/GPa)
#
#
# Indices 1 2 3 4 5 6 
#
# 1 0.016177 -0.007866 -0.004893 0.000000 0.000000 0.000000
# 2 -0.007866 0.032694 -0.007170 0.000000 0.000000 0.000000
# 3 -0.004893 -0.007170 0.015083 0.000000 0.000000 0.000000
# 4 0.000000 0.000000 0.000000 0.041147 0.000000 0.000000
# 5 0.000000 0.000000 0.000000 0.000000 0.069205 0.000000
# 6 0.000000 0.000000 0.000000 0.000000 0.000000 0.037629
#
#
# Mechanical properties :
#
#
# Convention : Reuss Voigt Hill
#
# Bulk Modulus (GPa) = 41.49613 49.60637 45.55125
# Shear Modulus (GPa) = 19.24374 21.32379 20.28376
#
# Velocity S-wave (km/s) = 3.24667 3.41763 3.33325
# Velocity P-wave (km/s) = 6.06500 6.53802 6.30595
#
# Compressibility (1/GPa) = 0.02409863
#
# Stress axis : x y z
#
# Youngs Moduli (GPa) = 61.81472 30.58630 66.30128
#
# Poissons Ratio (x) = 0.24058 0.32440
# Poissons Ratio (y) = 0.48620 0.47536
# Poissons Ratio (z) = 0.30244 0.21929
#
# Static dielectric constant tensor:
#      x y z
#    x 1.615980 0.000000 0.000000 
#    y 0.000000 1.638010 0.000000 
#    z 0.000000 0.000000 1.637710 
# 
# From -- ./inp_files/56563.got.cif
#   From: 2010.05.17/outbox.cif.g08.bks.cpg/sg63_29_cif.got.tgz:56563.got - 2010.06.03 15:47:04.
