data_PCOD9472392
_publ_section_title
;
Structure prediction by ZEFSAII (Michael W. Deem and Ramdas Pophale) SiO2 
 PCOD9472392
Probable space group: C M C M
;
_chemical_formula_sum "Si O2"
_cell_formula_units_Z 80
_cell_length_a 7.649728
_cell_length_b 18.389785
_cell_length_c 26.935887
_cell_angle_alpha 90.000000
_cell_angle_beta 90.000000
_cell_angle_gamma 90.000000
_cell_volume 3789.255822
_symmetry_space_group_name_H-M "C M C M"
_symmetry_group_IT_number 63
_symmetry_cell_setting 'orthorhombic'
loop_
_space_group_symop_operation_xyz
x,y,z
-x,-y,1/2+z
x,-y,-z
-x,y,1/2-z
-x,-y,-z
x,y,1/2-z
-x,y,z
x,-y,1/2+z
1/2+x,1/2+y,z
1/2-x,1/2-y,1/2+z
1/2+x,1/2-y,-z
1/2-x,1/2+y,1/2-z
1/2-x,1/2-y,-z
1/2+x,1/2+y,1/2-z
1/2-x,1/2+y,z
1/2+x,1/2-y,1/2+z
loop_
_atom_site_type_symbol
_atom_site_label
_atom_site_fract_x
_atom_site_fract_y
_atom_site_fract_z
Si Si1 0.295237 0.662708 0.848707
Si Si2 0.213129 0.081918 0.442507
Si Si3 0.204007 0.089571 0.750000
Si Si4 0.206147 0.422989 0.750000
Si Si5 0.213180 0.087007 0.553058
Si Si6 0.291950 0.670531 0.347188
O O1 0.500000 0.642076 0.850579
O O2 0.218107 0.622263 0.800639
O O3 0.222608 0.636338 0.901692
O O4 0.281842 0.748737 0.842241
O O5 0.271054 0.106996 0.497323
O O6 0.275157 0.130043 0.396609
O O7 0.000000 0.083480 0.441695
O O8 0.261801 0.997094 0.437169
O O9 0.000000 0.112504 0.750000
O O10 0.211099 0.002798 0.750000
O O11 0.255646 0.377767 0.701134
O O12 0.000000 0.433819 0.750000
O O13 0.000000 0.089501 0.551438
O O14 0.500000 0.678159 0.351913
#
# Coordination Sequence:
#
# PCOD9472392 Si02
#       6
#    16  16   8   8  16  16
#     4  10  20  34  54  81 114 149 183 221 266 316
#     4   8  15  29  51  78 105 139 184 227 266 312
#     4  10  21  38  59  81 105 137 179 222 265 318
#     4  12  25  40  59  81 105 135 175 222 273 330
#     4   8  14  28  51  77 106 142 185 227 265 310
#     4  11  22  36  55  80 111 144 180 223 270 320
#
# _framework density 21.112324999999998
#
# number of rings (size 3 to 8) (size 9 to 14) (size 15 to 20)
#    0.000    2.400    0.000    4.500    0.000    5.600 
#    0.000    0.000    0.000    1.200    0.000    8.400 
#    0.000    0.000    0.000    0.000    0.000    0.000 
#
# Total GULP energy -223358.105322 kJ/mol
# GULP energy per Si atom -5583.952633 kJ/mol
# Density = 2.106427 g / cm^3
# Si number density = 21.112325 Si / 1000 Ang^3
#
#
#
# Elastic Constant Matrix: (Units=GPa)
#
#
# Indices 1 2 3 4 5 6 
#
# 1 37.8510 -25.8382 -9.7030 0.0000 0.0000 0.0000
# 2 -25.8382 107.6100 108.7948 0.0000 0.0000 0.0000
# 3 -9.7030 108.7948 214.9358 0.0000 0.0000 0.0000
# 4 0.0000 0.0000 0.0000 16.6160 0.0000 0.0000
# 5 0.0000 0.0000 0.0000 0.0000 -17.1572 0.0000
# 6 0.0000 0.0000 0.0000 0.0000 0.0000 11.7263
#
#
#
# Elastic Compliance Matrix: (Units=1/GPa)
#
#
# Indices 1 2 3 4 5 6 
#
# 1 0.034390 0.013697 -0.005381 0.000000 0.000000 0.000000
# 2 0.013697 0.024488 -0.011777 0.000000 0.000000 0.000000
# 3 -0.005381 -0.011777 0.010371 0.000000 0.000000 0.000000
# 4 0.000000 0.000000 0.000000 0.060183 0.000000 0.000000
# 5 0.000000 0.000000 0.000000 0.000000 -0.058285 0.000000
# 6 0.000000 0.000000 0.000000 0.000000 0.000000 0.085279
#
#
# Mechanical properties :
#
#
# Convention : Reuss Voigt Hill
#
# Bulk Modulus (GPa) = 16.04394 56.32270 36.18332
# Shear Modulus (GPa) = 27.15568 21.37989 24.26778
#
# Velocity S-wave (km/s) = 3.59032 3.18571 3.39405
# Velocity P-wave (km/s) = 4.98026 6.34564 5.70395
#
# Compressibility (1/GPa) = 0.06232882
#
# Stress axis : x y z
#
# Youngs Moduli (GPa) = 29.07799 40.83566 96.42398
#
# Poissons Ratio (x) = -0.55935 0.51884
# Poissons Ratio (y) = -0.39829 1.13559
# Poissons Ratio (z) = 0.15646 0.48092
#
# Static dielectric constant tensor:
#      x y z
#    x 1.790620 0.000000 0.000000 
#    y 0.000000 1.723070 0.000000 
#    z 0.000000 0.000000 1.775510 
# 
# From -- ./inp_files/66722.got.cif
#   From: 2010.05.17/outbox.cif.g08.bks.cpg/sg63_34_cif.got.tgz:66722.got - 2010.06.03 15:47:04.
