data_PCOD9472688
_publ_section_title
;
Structure prediction by ZEFSAII (Michael W. Deem and Ramdas Pophale) SiO2 
 PCOD9472688
Probable space group: C M C M
;
_chemical_formula_sum "Si O2"
_cell_formula_units_Z 88
_cell_length_a 28.405137
_cell_length_b 20.007694
_cell_length_c 8.640756
_cell_angle_alpha 90.000000
_cell_angle_beta 90.000000
_cell_angle_gamma 90.000000
_cell_volume 4910.725589
_symmetry_space_group_name_H-M "C M C M"
_symmetry_group_IT_number 63
_symmetry_cell_setting 'orthorhombic'
loop_
_space_group_symop_operation_xyz
x,y,z
-x,-y,1/2+z
x,-y,-z
-x,y,1/2-z
-x,-y,-z
x,y,1/2-z
-x,y,z
x,-y,1/2+z
1/2+x,1/2+y,z
1/2-x,1/2-y,1/2+z
1/2+x,1/2-y,-z
1/2-x,1/2+y,1/2-z
1/2-x,1/2-y,-z
1/2+x,1/2+y,1/2-z
1/2-x,1/2+y,z
1/2+x,1/2-y,1/2+z
loop_
_atom_site_type_symbol
_atom_site_label
_atom_site_fract_x
_atom_site_fract_y
_atom_site_fract_z
Si Si1 0.917473 0.666051 0.565330
Si Si2 0.374281 0.426901 0.436386
Si Si3 0.054832 0.190303 0.565169
Si Si4 0.686073 0.193244 0.936913
Si Si5 0.210620 0.161419 0.563184
Si Si6 0.500000 0.074575 0.066217
O O1 0.920066 0.658010 0.750000
O O2 0.932224 0.741345 0.520351
O O3 0.862880 0.659565 0.514617
O O4 0.954044 0.615211 0.489660
O O5 0.383803 0.500000 0.500000
O O6 0.375024 0.429851 0.250000
O O7 0.412459 0.371240 0.483986
O O8 0.323354 0.398385 0.486632
O O9 0.062034 0.201011 0.750000
O O10 0.000000 0.175053 0.540451
O O11 0.685571 0.197027 0.750000
O O12 0.734743 0.157543 0.985001
O O13 0.690019 0.268578 0.001110
O O14 0.209339 0.164466 0.750000
O O15 0.500000 0.072162 0.250000
O O16 0.500000 0.000000 0.000000
#
# Coordination Sequence:
#
# PCOD9472688 Si02
#       6
#    16  16  16  16  16   8
#     4  11  21  35  58  89 118 145 182 230 282 336
#     4  10  21  35  52  75 109 152 193 235 282 332
#     4  10  20  35  55  80 109 146 190 233 279 335
#     4   9  18  31  53  83 112 140 178 232 279 328
#     4   9  17  32  52  77 109 145 186 230 279 330
#     4  12  26  44  64  86 115 150 185 226 280 342
#
# _framework density 17.91996
#
# number of rings (size 3 to 8) (size 9 to 14) (size 15 to 20)
#    0.000    2.000    2.727    1.364    0.000    2.545 
#    0.000    0.909    0.000    2.182    0.000    0.000 
#    0.000    0.000    0.000    0.000    0.000    0.000 
#
# Total GULP energy -245527.109659 kJ/mol
# GULP energy per Si atom -5580.161583 kJ/mol
# Density = 1.787917 g / cm^3
# Si number density = 17.919960 Si / 1000 Ang^3
#
#
#
# Elastic Constant Matrix: (Units=GPa)
#
#
# Indices 1 2 3 4 5 6 
#
# 1 154.5090 74.6058 46.9393 0.0000 0.0000 0.0000
# 2 74.6058 124.8349 35.0007 0.0000 0.0000 0.0000
# 3 46.9393 35.0007 33.5461 0.0000 0.0000 0.0000
# 4 0.0000 0.0000 0.0000 30.7887 0.0000 0.0000
# 5 0.0000 0.0000 0.0000 0.0000 19.2863 0.0000
# 6 0.0000 0.0000 0.0000 0.0000 0.0000 25.5800
#
#
#
# Elastic Compliance Matrix: (Units=1/GPa)
#
#
# Indices 1 2 3 4 5 6 
#
# 1 0.012286 -0.003566 -0.013471 0.000000 0.000000 0.000000
# 2 -0.003566 0.012358 -0.007904 0.000000 0.000000 0.000000
# 3 -0.013471 -0.007904 0.056906 0.000000 0.000000 0.000000
# 4 0.000000 0.000000 0.000000 0.032479 0.000000 0.000000
# 5 0.000000 0.000000 0.000000 0.000000 0.051850 0.000000
# 6 0.000000 0.000000 0.000000 0.000000 0.000000 0.039093
#
#
# Mechanical properties :
#
#
# Convention : Reuss Voigt Hill
#
# Bulk Modulus (GPa) = 31.57771 69.55353 50.56562
# Shear Modulus (GPa) = 18.83864 25.55395 22.19629
#
# Velocity S-wave (km/s) = 3.24584 3.78034 3.52324
# Velocity P-wave (km/s) = 5.63090 7.61265 6.69550
#
# Compressibility (1/GPa) = 0.03166791
#
# Stress axis : x y z
#
# Youngs Moduli (GPa) = 81.39054 80.92088 17.57272
#
# Poissons Ratio (x) = 0.28855 0.23673
# Poissons Ratio (y) = 0.29022 0.13890
# Poissons Ratio (z) = 1.09644 0.63961
#
# Static dielectric constant tensor:
#      x y z
#    x 1.654560 0.000000 0.000000 
#    y 0.000000 1.564580 0.000000 
#    z 0.000000 0.000000 1.607720 
# 
# From -- ./inp_files/14194.got.cif
#   From: 2010.05.17/outbox.cif.g08.bks.cpg/sg63_8_cif.got.tgz:14194.got - 2010.06.03 15:47:04.
