data_PCOD9472048
_publ_section_title
;
Structure prediction by ZEFSAII (Michael W. Deem and Ramdas Pophale) SiO2 
 PCOD9472048
Probable space group: C M C M
;
_chemical_formula_sum "Si O2"
_cell_formula_units_Z 96
_cell_length_a 8.645879
_cell_length_b 20.080644
_cell_length_c 24.502022
_cell_angle_alpha 90.000000
_cell_angle_beta 90.000000
_cell_angle_gamma 90.000000
_cell_volume 4253.914097
_symmetry_space_group_name_H-M "C M C M"
_symmetry_group_IT_number 63
_symmetry_cell_setting 'orthorhombic'
loop_
_space_group_symop_operation_xyz
x,y,z
-x,-y,1/2+z
x,-y,-z
-x,y,1/2-z
-x,-y,-z
x,y,1/2-z
-x,y,z
x,-y,1/2+z
1/2+x,1/2+y,z
1/2-x,1/2-y,1/2+z
1/2+x,1/2-y,-z
1/2-x,1/2+y,1/2-z
1/2-x,1/2-y,-z
1/2+x,1/2+y,1/2-z
1/2-x,1/2+y,z
1/2+x,1/2-y,1/2+z
loop_
_atom_site_type_symbol
_atom_site_label
_atom_site_fract_x
_atom_site_fract_y
_atom_site_fract_z
Si Si1 0.183543 0.192591 0.156205
Si Si2 0.315551 0.841900 0.190807
Si Si3 0.822551 0.989934 0.920118
Si Si4 0.680690 0.054576 0.188141
Si Si5 0.180852 0.161438 0.462152
Si Si6 0.319424 0.874778 0.071171
O O1 0.197539 0.261954 0.186809
O O2 0.278242 0.132639 0.182513
O O3 0.232822 0.199519 0.092632
O O4 0.000000 0.174045 0.155726
O O5 0.252954 0.864164 0.250000
O O6 0.500000 0.858706 0.191071
O O7 0.251027 0.865096 0.132169
O O8 0.785122 0.981668 0.856201
O O9 0.799781 0.916368 0.944527
O O10 0.000000 0.009551 0.930053
O O11 0.714196 0.048020 0.942097
O O12 0.707513 0.033073 0.250000
O O13 0.500000 0.043817 0.174756
O O14 0.258805 0.168584 0.520686
O O15 0.000000 0.174930 0.469260
O O16 0.500000 0.860929 0.075461
#
# Coordination Sequence:
#
# PCOD9472048 Si02
#       6
#    16  16  16  16  16  16
#     4   9  18  35  59  81 103 139 184 222 261 316
#     4   9  19  36  56  78 107 144 183 220 260 312
#     4  10  21  37  56  77 105 144 186 225 268 321
#     4  10  20  33  52  81 113 140 172 223 280 324
#     4   9  19  35  55  80 107 135 174 225 275 320
#     4  11  22  34  53  81 110 143 181 220 269 325
#
# _framework density 22.567451999999999
#
# number of rings (size 3 to 8) (size 9 to 14) (size 15 to 20)
#    0.000    2.333    0.000    3.500    0.000    8.667 
#    0.000    3.333    0.000    3.500    0.000    0.000 
#    0.000    0.000    0.000    0.000    0.000    0.000 
#
# Total GULP energy -268072.846558 kJ/mol
# GULP energy per Si atom -5584.850970 kJ/mol
# Density = 2.251609 g / cm^3
# Si number density = 22.567452 Si / 1000 Ang^3
#
#
#
# Elastic Constant Matrix: (Units=GPa)
#
#
# Indices 1 2 3 4 5 6 
#
# 1 15.4827 -1.2295 38.9936 0.0000 0.0000 0.0000
# 2 -1.2295 32.4493 7.9861 0.0000 0.0000 0.0000
# 3 38.9936 7.9861 167.6598 0.0000 0.0000 0.0000
# 4 0.0000 0.0000 0.0000 9.3403 0.0000 0.0000
# 5 0.0000 0.0000 0.0000 0.0000 26.3013 0.0000
# 6 0.0000 0.0000 0.0000 0.0000 0.0000 11.3138
#
#
#
# Elastic Compliance Matrix: (Units=1/GPa)
#
#
# Indices 1 2 3 4 5 6 
#
# 1 0.163491 0.015737 -0.038774 0.000000 0.000000 0.000000
# 2 0.015737 0.032698 -0.005218 0.000000 0.000000 0.000000
# 3 -0.038774 -0.005218 0.015231 0.000000 0.000000 0.000000
# 4 0.000000 0.000000 0.000000 0.107063 0.000000 0.000000
# 5 0.000000 0.000000 0.000000 0.000000 0.038021 0.000000
# 6 0.000000 0.000000 0.000000 0.000000 0.000000 0.088388
#
#
# Mechanical properties :
#
#
# Convention : Reuss Voigt Hill
#
# Bulk Modulus (GPa) = 6.45531 34.12136 20.28834
# Shear Modulus (GPa) = 9.04100 20.71384 14.87742
#
# Velocity S-wave (km/s) = 2.00372 3.03291 2.57036
# Velocity P-wave (km/s) = 2.86703 5.23615 4.22121
#
# Compressibility (1/GPa) = 0.15491114
#
# Stress axis : x y z
#
# Youngs Moduli (GPa) = 6.11655 30.58322 65.65638
#
# Poissons Ratio (x) = -0.48129 2.54574
# Poissons Ratio (y) = -0.09626 0.34257
# Poissons Ratio (z) = 0.23716 0.15957
#
# Static dielectric constant tensor:
#      x y z
#    x 1.769920 0.000000 0.000000 
#    y 0.000000 1.864180 0.000000 
#    z 0.000000 0.000000 1.904180 
# 
# From -- ./inp_files/59918.got.cif
#   From: 2010.05.17/outbox.cif.g08.bks.cpg/sg63_30_cif.got.tgz:59918.got - 2010.06.03 15:47:04.
