data_PCOD9472245
_publ_section_title
;
Structure prediction by ZEFSAII (Michael W. Deem and Ramdas Pophale) SiO2 
 PCOD9472245
Probable space group: C M C M
;
_chemical_formula_sum "Si O2"
_cell_formula_units_Z 96
_cell_length_a 18.813832
_cell_length_b 29.693150
_cell_length_c 8.611791
_cell_angle_alpha 90.000000
_cell_angle_beta 90.000000
_cell_angle_gamma 90.000000
_cell_volume 4810.907594
_symmetry_space_group_name_H-M "C M C M"
_symmetry_group_IT_number 63
_symmetry_cell_setting 'orthorhombic'
loop_
_space_group_symop_operation_xyz
x,y,z
-x,-y,1/2+z
x,-y,-z
-x,y,1/2-z
-x,-y,-z
x,y,1/2-z
-x,y,z
x,-y,1/2+z
1/2+x,1/2+y,z
1/2-x,1/2-y,1/2+z
1/2+x,1/2-y,-z
1/2-x,1/2+y,1/2-z
1/2-x,1/2-y,-z
1/2+x,1/2+y,1/2-z
1/2-x,1/2+y,z
1/2+x,1/2-y,1/2+z
loop_
_atom_site_type_symbol
_atom_site_label
_atom_site_fract_x
_atom_site_fract_y
_atom_site_fract_z
Si Si1 0.420259 0.639171 0.074949
Si Si2 0.782329 0.548616 0.569621
Si Si3 0.110583 0.952224 0.068350
Si Si4 0.813099 0.199665 0.928147
Si Si5 0.581100 0.777285 0.560585
Si Si6 0.180659 0.645738 0.065252
O O1 0.392508 0.647486 0.250000
O O2 0.500000 0.657125 0.066168
O O3 0.420385 0.586707 0.038163
O O4 0.371599 0.660696 0.944141
O O5 0.804236 0.500000 0.500000
O O6 0.800556 0.548227 0.750000
O O7 0.696492 0.550997 0.555354
O O8 0.811508 0.595205 0.498689
O O9 0.091758 0.947491 0.250000
O O10 0.089028 0.000000 0.000000
O O11 0.793914 0.209094 0.750000
O O12 0.858051 0.242005 0.994023
O O13 0.745350 0.178445 0.012710
O O14 0.580716 0.773347 0.750000
O O15 0.500000 0.768959 0.508118
O O16 0.609464 0.827009 0.520084
O O17 0.183104 0.642771 0.250000
#
# Coordination Sequence:
#
# PCOD9472245 Si02
#       6
#    16  16  16  16  16  16
#     4  11  23  36  51  74 107 146 189 237 285 335
#     4  10  20  35  57  86 117 149 187 234 286 342
#     4  10  20  34  53  74 102 142 184 232 284 339
#     4  11  21  36  58  83 113 152 195 238 280 333
#     4   9  20  38  59  85 117 154 195 237 287 343
#     4  11  21  35  60  89 118 152 190 239 288 337
#
# _framework density 19.954656
#
# number of rings (size 3 to 8) (size 9 to 14) (size 15 to 20)
#    0.000    1.667    1.667    3.500    0.000    3.667 
#    0.000    2.500    0.000    6.500    0.000    0.000 
#    0.000    0.000    0.000    0.000    0.000    0.000 
#
# Total GULP energy -267844.955029 kJ/mol
# GULP energy per Si atom -5580.103230 kJ/mol
# Density = 1.990924 g / cm^3
# Si number density = 19.954656 Si / 1000 Ang^3
#
#
#
# Elastic Constant Matrix: (Units=GPa)
#
#
# Indices 1 2 3 4 5 6 
#
# 1 37.3625 52.9319 15.4587 0.0000 0.0000 0.0000
# 2 52.9319 146.5517 29.0668 0.0000 0.0000 0.0000
# 3 15.4587 29.0668 58.3742 0.0000 0.0000 0.0000
# 4 0.0000 0.0000 0.0000 19.4727 0.0000 0.0000
# 5 0.0000 0.0000 0.0000 0.0000 -200.2131 0.0000
# 6 0.0000 0.0000 0.0000 0.0000 0.0000 85.3617
#
#
#
# Elastic Compliance Matrix: (Units=1/GPa)
#
#
# Indices 1 2 3 4 5 6 
#
# 1 0.056253 -0.019266 -0.005304 0.000000 0.000000 0.000000
# 2 -0.019266 0.014169 -0.001954 0.000000 0.000000 0.000000
# 3 -0.005304 -0.001954 0.019508 0.000000 0.000000 0.000000
# 4 0.000000 0.000000 0.000000 0.051354 0.000000 0.000000
# 5 0.000000 0.000000 0.000000 0.000000 -0.004995 0.000000
# 6 0.000000 0.000000 0.000000 0.000000 0.000000 0.011715
#
#
# Mechanical properties :
#
#
# Convention : Reuss Voigt Hill
#
# Bulk Modulus (GPa) = 27.11162 48.57813 37.84487
# Shear Modulus (GPa) = 23.43608 -9.42034 7.00787
#
# Velocity S-wave (km/s) = 3.43077 -2.17511 1.87604
# Velocity P-wave (km/s) = 5.41384 4.25311 4.86819
#
# Compressibility (1/GPa) = 0.03688456
#
# Stress axis : x y z
#
# Youngs Moduli (GPa) = 17.77674 70.57447 51.26051
#
# Poissons Ratio (x) = 1.35967 0.27188
# Poissons Ratio (y) = 0.34248 0.10014
# Poissons Ratio (z) = 0.09429 0.13787
#
# Static dielectric constant tensor:
#      x y z
#    x 1.721820 0.000000 0.000000 
#    y 0.000000 1.751640 0.000000 
#    z 0.000000 0.000000 1.689050 
# 
# From -- ./inp_files/8528.got.cif
#   From: 2010.05.17/outbox.cif.g08.bks.cpg/sg63_5_cif.got.tgz:8528.got - 2010.06.03 15:47:04.
