data_PCOD9472566
_publ_section_title
;
Structure prediction by ZEFSAII (Michael W. Deem and Ramdas Pophale) SiO2 
 PCOD9472566
Probable space group: C M C M
;
_chemical_formula_sum "Si O2"
_cell_formula_units_Z 112
_cell_length_a 26.375090
_cell_length_b 15.883490
_cell_length_c 13.687650
_cell_angle_alpha 90.000000
_cell_angle_beta 90.000000
_cell_angle_gamma 90.000000
_cell_volume 5734.146386
_symmetry_space_group_name_H-M "C M C M"
_symmetry_group_IT_number 63
_symmetry_cell_setting 'orthorhombic'
loop_
_space_group_symop_operation_xyz
x,y,z
-x,-y,1/2+z
x,-y,-z
-x,y,1/2-z
-x,-y,-z
x,y,1/2-z
-x,y,z
x,-y,1/2+z
1/2+x,1/2+y,z
1/2-x,1/2-y,1/2+z
1/2+x,1/2-y,-z
1/2-x,1/2+y,1/2-z
1/2-x,1/2-y,-z
1/2+x,1/2+y,1/2-z
1/2-x,1/2+y,z
1/2+x,1/2-y,1/2+z
loop_
_atom_site_type_symbol
_atom_site_label
_atom_site_fract_x
_atom_site_fract_y
_atom_site_fract_z
Si Si1 0.352185 0.544748 0.636368
Si Si2 0.442408 0.905577 0.478910
Si Si3 0.797508 0.399197 0.516330
Si Si4 0.644876 0.805085 0.133573
Si Si5 0.056705 0.854518 0.132960
Si Si6 0.815314 0.870285 0.946479
Si Si7 0.391682 0.181618 0.134497
O O1 0.343452 0.565654 0.750000
O O2 0.411523 0.561325 0.612943
O O3 0.336015 0.449957 0.613997
O O4 0.322992 0.603810 0.559805
O O5 0.500000 0.908391 0.442581
O O6 0.405651 0.850830 0.409484
O O7 0.439247 0.865249 0.586296
O O8 0.423382 0.000000 0.500000
O O9 0.796605 0.500000 0.500000
O O10 0.809094 0.360347 0.409964
O O11 0.745328 0.366762 0.562892
O O12 0.843012 0.361149 0.583051
O O13 0.643294 0.802378 0.250000
O O14 0.655876 0.712724 0.089259
O O15 0.051434 0.849129 0.250000
O O16 0.094468 0.777795 0.108121
O O17 0.000000 0.849383 0.090503
O O18 0.387685 0.173483 0.250000
#
# Coordination Sequence:
#
# PCOD9472566 Si02
#       7
#    16  16  16  16  16  16  16
#     4  10  20  37  63  89 120 169 212 255 321 385
#     4  10  22  40  61  87 124 163 202 254 313 376
#     4  11  23  42  59  85 124 163 209 264 318 379
#     4  11  24  41  63  90 124 167 212 262 320 384
#     4   9  18  34  57  87 119 152 198 251 304 368
#     4  11  23  42  59  89 130 161 212 273 315 380
#     4  10  20  34  59  90 121 155 202 258 312 371
#
# _framework density 19.532114
#
# number of rings (size 3 to 8) (size 9 to 14) (size 15 to 20)
#    0.000    1.714    1.429    4.714    0.000    5.143 
#    0.000    5.000    0.000    1.714    0.000    0.000 
#    0.000    0.000    0.000    0.000    0.000    0.000 
#
# Total GULP energy -312002.361705 kJ/mol
# GULP energy per Si atom -5571.470745 kJ/mol
# Density = 1.948766 g / cm^3
# Si number density = 19.532114 Si / 1000 Ang^3
#
#
#
# Elastic Constant Matrix: (Units=GPa)
#
#
# Indices 1 2 3 4 5 6 
#
# 1 115.4018 59.6413 36.7782 0.0000 0.0000 0.0000
# 2 59.6413 113.2516 49.1269 0.0000 0.0000 0.0000
# 3 36.7782 49.1269 124.0508 0.0000 0.0000 0.0000
# 4 0.0000 0.0000 0.0000 17.5418 0.0000 0.0000
# 5 0.0000 0.0000 0.0000 0.0000 16.2935 0.0000
# 6 0.0000 0.0000 0.0000 0.0000 0.0000 14.8972
#
#
#
# Elastic Compliance Matrix: (Units=1/GPa)
#
#
# Indices 1 2 3 4 5 6 
#
# 1 0.012072 -0.005802 -0.001282 0.000000 0.000000 0.000000
# 2 -0.005802 0.013450 -0.003606 0.000000 0.000000 0.000000
# 3 -0.001282 -0.003606 0.009869 0.000000 0.000000 0.000000
# 4 0.000000 0.000000 0.000000 0.057007 0.000000 0.000000
# 5 0.000000 0.000000 0.000000 0.000000 0.061374 0.000000
# 6 0.000000 0.000000 0.000000 0.000000 0.000000 0.067127
#
#
# Mechanical properties :
#
#
# Convention : Reuss Voigt Hill
#
# Bulk Modulus (GPa) = 71.36661 71.53302 71.44982
# Shear Modulus (GPa) = 20.24716 23.55702 21.90209
#
# Velocity S-wave (km/s) = 3.22313 3.47661 3.35227
# Velocity P-wave (km/s) = 7.10414 7.26764 7.18636
#
# Compressibility (1/GPa) = 0.01401215
#
# Stress axis : x y z
#
# Youngs Moduli (GPa) = 82.83531 74.35213 101.32407
#
# Poissons Ratio (x) = 0.43136 0.12985
# Poissons Ratio (y) = 0.48058 0.36540
# Poissons Ratio (z) = 0.10616 0.26813
#
# Static dielectric constant tensor:
#      x y z
#    x 1.733150 0.000000 0.000000 
#    y 0.000000 1.747200 0.000000 
#    z 0.000000 0.000000 1.683730 
# 
# From -- ./inp_files/37923.got.cif
#   From: 2010.05.17/outbox.cif.g08.bks.cpg/sg63_19_cif.got.tgz:37923.got - 2010.06.03 15:47:04.
