data_PCOD9472747
_publ_section_title
;
Structure prediction by ZEFSAII (Michael W. Deem and Ramdas Pophale) SiO2 
 PCOD9472747
Probable space group: C M C M
;
_chemical_formula_sum "Si O2"
_cell_formula_units_Z 64
_cell_length_a 8.481117
_cell_length_b 23.349027
_cell_length_c 16.755492
_cell_angle_alpha 90.000000
_cell_angle_beta 90.000000
_cell_angle_gamma 90.000000
_cell_volume 3318.020207
_symmetry_space_group_name_H-M "C M C M"
_symmetry_group_IT_number 63
_symmetry_cell_setting 'orthorhombic'
loop_
_space_group_symop_operation_xyz
x,y,z
-x,-y,1/2+z
x,-y,-z
-x,y,1/2-z
-x,-y,-z
x,y,1/2-z
-x,y,z
x,-y,1/2+z
1/2+x,1/2+y,z
1/2-x,1/2-y,1/2+z
1/2+x,1/2-y,-z
1/2-x,1/2+y,1/2-z
1/2-x,1/2-y,-z
1/2+x,1/2+y,1/2-z
1/2-x,1/2+y,z
1/2+x,1/2-y,1/2+z
loop_
_atom_site_type_symbol
_atom_site_label
_atom_site_fract_x
_atom_site_fract_y
_atom_site_fract_z
Si Si1 0.687691 0.163680 0.440288
Si Si2 0.807888 0.358977 0.250000
Si Si3 0.689673 0.989655 0.250000
Si Si4 0.688034 0.464201 0.579281
Si Si5 0.810095 0.277787 0.108177
O O1 0.500000 0.155620 0.437818
O O2 0.767876 0.102521 0.430283
O O3 0.738340 0.214744 0.381164
O O4 0.733254 0.191915 0.525018
O O5 0.753510 0.423875 0.250000
O O6 0.758128 0.322461 0.174382
O O7 0.000000 0.360930 0.250000
O O8 0.500000 0.991681 0.250000
O O9 0.745304 0.016140 0.165501
O O10 0.744566 0.500000 0.500000
O O11 0.500000 0.470889 0.582115
O O12 0.000000 0.271949 0.109806
#
# Coordination Sequence:
#
# PCOD9472747 Si02
#       5
#    16   8   8  16  16
#     4  10  20  35  56  82 112 148 192 238 287 343
#     4   9  18  34  57  82 107 140 182 231 288 343
#     4  11  23  40  63  90 119 152 198 249 294 351
#     4  11  24  41  61  86 120 161 200 242 296 354
#     4   9  18  34  56  81 110 144 184 234 291 349
#
# _framework density 19.288611
#
# number of rings (size 3 to 8) (size 9 to 14) (size 15 to 20)
#    0.000    2.000    0.000    3.375    0.000    6.000 
#    0.000    6.875    0.000    0.000    0.000    0.000 
#    0.000    0.000    0.000    0.000    0.000    0.000 
#
# Total GULP energy -178479.737612 kJ/mol
# GULP energy per Si atom -5577.491800 kJ/mol
# Density = 1.924471 g / cm^3
# Si number density = 19.288611 Si / 1000 Ang^3
#
#
#
# Elastic Constant Matrix: (Units=GPa)
#
#
# Indices 1 2 3 4 5 6 
#
# 1 31.3151 35.1443 36.2780 0.0000 0.0000 0.0000
# 2 35.1443 177.4658 84.7157 0.0000 0.0000 0.0000
# 3 36.2780 84.7157 123.6173 0.0000 0.0000 0.0000
# 4 0.0000 0.0000 0.0000 26.1147 0.0000 0.0000
# 5 0.0000 0.0000 0.0000 0.0000 20.4187 0.0000
# 6 0.0000 0.0000 0.0000 0.0000 0.0000 20.6830
#
#
#
# Elastic Compliance Matrix: (Units=1/GPa)
#
#
# Indices 1 2 3 4 5 6 
#
# 1 0.050548 -0.004353 -0.011851 0.000000 0.000000 0.000000
# 2 -0.004353 0.008749 -0.004719 0.000000 0.000000 0.000000
# 3 -0.011851 -0.004719 0.014801 0.000000 0.000000 0.000000
# 4 0.000000 0.000000 0.000000 0.038293 0.000000 0.000000
# 5 0.000000 0.000000 0.000000 0.000000 0.048975 0.000000
# 6 0.000000 0.000000 0.000000 0.000000 0.000000 0.048349
#
#
# Mechanical properties :
#
#
# Convention : Reuss Voigt Hill
#
# Bulk Modulus (GPa) = 31.00467 71.63046 51.31756
# Shear Modulus (GPa) = 19.06130 25.19396 22.12763
#
# Velocity S-wave (km/s) = 3.14700 3.61800 3.39069
# Velocity P-wave (km/s) = 5.41422 7.39392 6.48012
#
# Compressibility (1/GPa) = 0.03225321
#
# Stress axis : x y z
#
# Youngs Moduli (GPa) = 19.78307 114.29387 67.56218
#
# Poissons Ratio (x) = 0.49750 0.80071
# Poissons Ratio (y) = 0.08611 0.31880
# Poissons Ratio (z) = 0.23446 0.53930
#
# Static dielectric constant tensor:
#      x y z
#    x 1.659380 0.000000 0.000000 
#    y 0.000000 1.648970 0.000000 
#    z 0.000000 0.000000 1.716300 
# 
# From -- ./inp_files/27536.got.cif
#   From: 2010.05.17/outbox.cif.g08.bks.cpg/sg63_14_cif.got.tgz:27536.got - 2010.06.03 15:47:04.
