data_PCOD9472604
_publ_section_title
;
Structure prediction by ZEFSAII (Michael W. Deem and Ramdas Pophale) SiO2 
 PCOD9472604
Probable space group: C M C M
;
_chemical_formula_sum "Si O2"
_cell_formula_units_Z 116
_cell_length_a 30.879881
_cell_length_b 25.330440
_cell_length_c 7.920483
_cell_angle_alpha 90.000000
_cell_angle_beta 90.000000
_cell_angle_gamma 90.000000
_cell_volume 6195.409508
_symmetry_space_group_name_H-M "C M C M"
_symmetry_group_IT_number 63
_symmetry_cell_setting 'orthorhombic'
loop_
_space_group_symop_operation_xyz
x,y,z
-x,-y,1/2+z
x,-y,-z
-x,y,1/2-z
-x,-y,-z
x,y,1/2-z
-x,y,z
x,-y,1/2+z
1/2+x,1/2+y,z
1/2-x,1/2-y,1/2+z
1/2+x,1/2-y,-z
1/2-x,1/2+y,1/2-z
1/2-x,1/2-y,-z
1/2+x,1/2+y,1/2-z
1/2-x,1/2+y,z
1/2+x,1/2-y,1/2+z
loop_
_atom_site_type_symbol
_atom_site_label
_atom_site_fract_x
_atom_site_fract_y
_atom_site_fract_z
Si Si1 0.300205 0.751000 0.452524
Si Si2 0.564186 0.857274 0.447028
Si Si3 0.000000 0.612302 0.250000
Si Si4 0.339208 0.862533 0.949690
Si Si5 0.664880 0.560272 0.946641
Si Si6 0.548290 0.732666 0.046074
Si Si7 0.369781 0.331589 0.950084
Si Si8 0.236174 0.560092 0.451883
O O1 0.302544 0.753358 0.250000
O O2 0.250000 0.750000 0.500000
O O3 0.323233 0.802892 0.523640
O O4 0.327503 0.700181 0.513430
O O5 0.550687 0.866284 0.250000
O O6 0.537325 0.884861 0.596792
O O7 0.614835 0.870564 0.462390
O O8 0.558689 0.794336 0.482747
O O9 0.344841 0.872053 0.750000
O O10 0.300892 0.900547 0.013971
O O11 0.657884 0.563441 0.750000
O O12 0.656308 0.500000 0.000000
O O13 0.636224 0.606353 0.025873
O O14 0.715501 0.571578 0.983994
O O15 0.546677 0.726651 0.250000
O O16 0.500000 0.721453 0.979884
O O17 0.586565 0.695267 0.980003
O O18 0.370981 0.322060 0.750000
O O19 0.225769 0.500000 0.500000
O O20 0.238319 0.564493 0.250000
#
# Coordination Sequence:
#
# PCOD9472604 Si02
#       8
#    16  16   4  16  16  16  16  16
#     4  11  22  34  50  76 112 157 191 226 282 345
#     4  11  21  36  57  83 117 156 193 236 292 351
#     4  12  22  36  56  86 118 152 198 244 288 338
#     4  11  22  36  54  82 118 150 190 240 286 341
#     4  11  22  37  57  80 105 143 189 236 284 338
#     4   9  17  33  56  80 109 146 188 229 283 343
#     4  10  20  35  53  77 110 144 184 230 281 339
#     4  10  21  37  58  82 112 147 190 239 284 334
#
# _framework density 18.723541999999998
#
# number of rings (size 3 to 8) (size 9 to 14) (size 15 to 20)
#    0.000    1.517    2.759    4.345    0.000    6.621 
#    1.241    0.000    0.000    0.414    0.000    0.483 
#    0.000    0.000    0.000    0.000    0.000    0.000 
#
# Total GULP energy -323219.764252 kJ/mol
# GULP energy per Si atom -5572.754556 kJ/mol
# Density = 1.868093 g / cm^3
# Si number density = 18.723542 Si / 1000 Ang^3
#
#
#
# Elastic Constant Matrix: (Units=GPa)
#
#
# Indices 1 2 3 4 5 6 
#
# 1 55.8287 3.9310 8.9319 0.0000 0.0000 0.0000
# 2 3.9310 38.3654 -5.1039 0.0000 0.0000 0.0000
# 3 8.9319 -5.1039 56.1614 0.0000 0.0000 0.0000
# 4 0.0000 0.0000 0.0000 21.5202 0.0000 0.0000
# 5 0.0000 0.0000 0.0000 0.0000 25.9539 0.0000
# 6 0.0000 0.0000 0.0000 0.0000 0.0000 7.9154
#
#
#
# Elastic Compliance Matrix: (Units=1/GPa)
#
#
# Indices 1 2 3 4 5 6 
#
# 1 0.018582 -0.002325 -0.003167 0.000000 0.000000 0.000000
# 2 -0.002325 0.026675 0.002794 0.000000 0.000000 0.000000
# 3 -0.003167 0.002794 0.018563 0.000000 0.000000 0.000000
# 4 0.000000 0.000000 0.000000 0.046468 0.000000 0.000000
# 5 0.000000 0.000000 0.000000 0.000000 0.038530 0.000000
# 6 0.000000 0.000000 0.000000 0.000000 0.000000 0.126336
#
#
# Mechanical properties :
#
#
# Convention : Reuss Voigt Hill
#
# Bulk Modulus (GPa) = 17.11596 18.43038 17.77317
# Shear Modulus (GPa) = 16.66525 20.58432 18.62478
#
# Velocity S-wave (km/s) = 2.98664 3.31929 3.15735
# Velocity P-wave (km/s) = 4.58853 4.95530 4.77544
#
# Compressibility (1/GPa) = 0.05842500
#
# Stress axis : x y z
#
# Youngs Moduli (GPa) = 53.81473 37.48816 53.86953
#
# Poissons Ratio (x) = 0.08717 0.17058
# Poissons Ratio (y) = 0.12513 -0.15051
# Poissons Ratio (z) = 0.17041 -0.10474
#
# Static dielectric constant tensor:
#      x y z
#    x 1.661680 0.000000 0.000000 
#    y 0.000000 0.411070 0.000000 
#    z 0.000000 0.000000 1.673380 
# 
# From -- ./inp_files/14731.got.cif
#   From: 2010.05.17/outbox.cif.g08.bks.cpg/sg63_8_cif.got.tgz:14731.got - 2010.06.03 15:47:04.
