data_PCOD9472289
_publ_section_title
;
Structure prediction by ZEFSAII (Michael W. Deem and Ramdas Pophale) SiO2 
 PCOD9472289
Probable space group: C M C M
;
_chemical_formula_sum "Si O2"
_cell_formula_units_Z 88
_cell_length_a 22.754749
_cell_length_b 25.341779
_cell_length_c 8.863777
_cell_angle_alpha 90.000000
_cell_angle_beta 90.000000
_cell_angle_gamma 90.000000
_cell_volume 5111.259960
_symmetry_space_group_name_H-M "C M C M"
_symmetry_group_IT_number 63
_symmetry_cell_setting 'orthorhombic'
loop_
_space_group_symop_operation_xyz
x,y,z
-x,-y,1/2+z
x,-y,-z
-x,y,1/2-z
-x,-y,-z
x,y,1/2-z
-x,y,z
x,-y,1/2+z
1/2+x,1/2+y,z
1/2-x,1/2-y,1/2+z
1/2+x,1/2-y,-z
1/2-x,1/2+y,1/2-z
1/2-x,1/2-y,-z
1/2+x,1/2+y,1/2-z
1/2-x,1/2+y,z
1/2+x,1/2-y,1/2+z
loop_
_atom_site_type_symbol
_atom_site_label
_atom_site_fract_x
_atom_site_fract_y
_atom_site_fract_z
Si Si1 0.885759 0.872800 0.068994
Si Si2 0.500000 0.441713 0.068457
Si Si3 0.213906 0.056737 0.069200
Si Si4 0.351005 0.943770 0.568789
Si Si5 0.430244 0.733681 0.070389
Si Si6 0.568780 0.845982 0.931594
O O1 0.882378 0.872473 0.250000
O O2 0.942054 0.908758 0.024180
O O3 0.828213 0.899211 0.999011
O O4 0.896706 0.814177 0.008198
O O5 0.500000 0.446018 0.250000
O O6 0.500000 0.500000 0.000000
O O7 0.208305 0.054973 0.250000
O O8 0.282485 0.065765 0.030393
O O9 0.196976 0.000000 0.000000
O O10 0.354918 0.947553 0.750000
O O11 0.391695 0.895313 0.519539
O O12 0.368604 0.000000 0.500000
O O13 0.422378 0.731602 0.250000
O O14 0.500000 0.727236 0.037280
O O15 0.413073 0.790991 0.007417
O O16 0.573659 0.840600 0.750000
O O17 0.500000 0.855311 0.967213
#
# Coordination Sequence:
#
# PCOD9472289 Si02
#       6
#    16   8  16  16  16  16
#     4  11  21  35  53  75 102 138 179 217 263 312
#     4  10  22  34  48  72 102 132 167 214 261 304
#     4  10  20  35  53  75 104 139 178 217 260 311
#     4   9  19  35  55  79 108 140 173 212 260 312
#     4  10  20  34  53  78 106 138 174 216 264 312
#     4   9  18  34  56  80 107 139 173 212 260 314
#
# _framework density 17.216891
#
# number of rings (size 3 to 8) (size 9 to 14) (size 15 to 20)
#    0.000    2.182    0.909    2.182    0.000    5.455 
#    0.000    0.909    0.000    0.000    0.000    0.000 
#    0.000    0.000    0.000    0.000    0.000    0.000 
#
# Total GULP energy -245626.212125 kJ/mol
# GULP energy per Si atom -5582.413912 kJ/mol
# Density = 1.717770 g / cm^3
# Si number density = 17.216891 Si / 1000 Ang^3
#
#
#
# Elastic Constant Matrix: (Units=GPa)
#
#
# Indices 1 2 3 4 5 6 
#
# 1 70.9457 90.9995 37.8630 0.0000 0.0000 0.0000
# 2 90.9995 190.1789 57.3248 0.0000 0.0000 0.0000
# 3 37.8630 57.3248 38.2611 0.0000 0.0000 0.0000
# 4 0.0000 0.0000 0.0000 34.5182 0.0000 0.0000
# 5 0.0000 0.0000 0.0000 0.0000 20.9984 0.0000
# 6 0.0000 0.0000 0.0000 0.0000 0.0000 29.8168
#
#
#
# Elastic Compliance Matrix: (Units=1/GPa)
#
#
# Indices 1 2 3 4 5 6 
#
# 1 0.045015 -0.014792 -0.022384 0.000000 0.000000 0.000000
# 2 -0.014792 0.014449 -0.007010 0.000000 0.000000 0.000000
# 3 -0.022384 -0.007010 0.058791 0.000000 0.000000 0.000000
# 4 0.000000 0.000000 0.000000 0.028970 0.000000 0.000000
# 5 0.000000 0.000000 0.000000 0.000000 0.047623 0.000000
# 6 0.000000 0.000000 0.000000 0.000000 0.000000 0.033538
#
#
# Mechanical properties :
#
#
# Convention : Reuss Voigt Hill
#
# Bulk Modulus (GPa) = 33.46544 74.64006 54.05275
# Shear Modulus (GPa) = 15.30364 24.61323 19.95843
#
# Velocity S-wave (km/s) = 2.98463 3.78510 3.40845
# Velocity P-wave (km/s) = 5.59974 7.90883 6.85225
#
# Compressibility (1/GPa) = 0.02988157
#
# Stress axis : x y z
#
# Youngs Moduli (GPa) = 22.21489 69.20737 17.00952
#
# Poissons Ratio (x) = 1.02373 0.38074
# Poissons Ratio (y) = 0.32861 0.11924
# Poissons Ratio (z) = 0.49726 0.48517
#
# Static dielectric constant tensor:
#      x y z
#    x 1.577700 0.000000 0.000000 
#    y 0.000000 1.553370 0.000000 
#    z 0.000000 0.000000 1.573670 
# 
# From -- ./inp_files/8161.got.cif
#   From: 2010.05.17/outbox.cif.g08.bks.cpg/sg63_5_cif.got.tgz:8161.got - 2010.06.03 15:47:04.
