data_PCOD9472888
_publ_section_title
;
Structure prediction by ZEFSAII (Michael W. Deem and Ramdas Pophale) SiO2 
 PCOD9472888
Probable space group: C M C M
;
_chemical_formula_sum "Si O2"
_cell_formula_units_Z 112
_cell_length_a 22.504165
_cell_length_b 11.093053
_cell_length_c 24.445487
_cell_angle_alpha 90.000000
_cell_angle_beta 90.000000
_cell_angle_gamma 90.000000
_cell_volume 6102.568810
_symmetry_space_group_name_H-M "C M C M"
_symmetry_group_IT_number 63
_symmetry_cell_setting 'orthorhombic'
loop_
_space_group_symop_operation_xyz
x,y,z
-x,-y,1/2+z
x,-y,-z
-x,y,1/2-z
-x,-y,-z
x,y,1/2-z
-x,y,z
x,-y,1/2+z
1/2+x,1/2+y,z
1/2-x,1/2-y,1/2+z
1/2+x,1/2-y,-z
1/2-x,1/2+y,1/2-z
1/2-x,1/2-y,-z
1/2+x,1/2+y,1/2-z
1/2-x,1/2+y,z
1/2+x,1/2-y,1/2+z
loop_
_atom_site_type_symbol
_atom_site_label
_atom_site_fract_x
_atom_site_fract_y
_atom_site_fract_z
Si Si1 0.144111 0.355089 0.813439
Si Si2 0.930727 0.057118 0.439779
Si Si3 0.280046 0.590123 0.186542
Si Si4 0.850411 0.737292 0.605239
Si Si5 0.070353 0.589139 0.687058
Si Si6 0.847715 0.889582 0.375654
Si Si7 0.745950 0.124541 0.533896
O O1 0.140622 0.315559 0.750000
O O2 0.209084 0.415701 0.820506
O O3 0.094311 0.454804 0.822987
O O4 0.139048 0.241572 0.852675
O O5 0.886719 0.170549 0.433122
O O6 0.000000 0.087249 0.430086
O O7 0.925786 0.000000 0.500000
O O8 0.905681 0.961411 0.395744
O O9 0.291899 0.621569 0.250000
O O10 0.305128 0.687338 0.143552
O O11 0.312850 0.466870 0.170263
O O12 0.896958 0.675930 0.645426
O O13 0.812614 0.641947 0.570853
O O14 0.086247 0.619626 0.750000
O O15 0.000000 0.595764 0.681365
O O16 0.802989 0.883101 0.426856
O O17 0.750000 0.250000 0.500000
O O18 0.743401 0.000000 0.500000
#
# Coordination Sequence:
#
# PCOD9472888 Si02
#       7
#    16  16  16  16  16  16  16
#     4  10  21  35  57  86 121 157 190 235 296 364
#     4  10  22  41  61  83 112 155 204 248 294 348
#     4  10  20  35  58  92 122 149 188 240 301 367
#     4  11  21  38  64  88 118 155 194 249 300 361
#     4  10  22  39  59  86 121 160 199 238 291 361
#     4  11  21  37  59  85 119 154 195 243 302 357
#     4  12  25  39  61  91 125 160 203 257 314 368
#
# _framework density 18.352927000000001
#
# number of rings (size 3 to 8) (size 9 to 14) (size 15 to 20)
#    0.000    1.429    1.429    5.143    2.000    0.571 
#    0.000    0.000    0.000    9.000    0.000    0.000 
#    0.000    0.000    0.000    0.000    0.000    0.000 
#
# Total GULP energy -312898.072901 kJ/mol
# GULP energy per Si atom -5587.465588 kJ/mol
# Density = 1.831115 g / cm^3
# Si number density = 18.352927 Si / 1000 Ang^3
#
#
#
# Elastic Constant Matrix: (Units=GPa)
#
#
# Indices 1 2 3 4 5 6 
#
# 1 49.8224 9.3766 16.7833 0.0000 0.0000 0.0000
# 2 9.3766 67.0483 33.5697 0.0000 0.0000 0.0000
# 3 16.7833 33.5697 55.5513 0.0000 0.0000 0.0000
# 4 0.0000 0.0000 0.0000 40.8872 0.0000 0.0000
# 5 0.0000 0.0000 0.0000 0.0000 23.4604 0.0000
# 6 0.0000 0.0000 0.0000 0.0000 0.0000 23.9887
#
#
#
# Elastic Compliance Matrix: (Units=1/GPa)
#
#
# Indices 1 2 3 4 5 6 
#
# 1 0.022352 0.000366 -0.006974 0.000000 0.000000 0.000000
# 2 0.000366 0.021391 -0.013037 0.000000 0.000000 0.000000
# 3 -0.006974 -0.013037 0.027987 0.000000 0.000000 0.000000
# 4 0.000000 0.000000 0.000000 0.024458 0.000000 0.000000
# 5 0.000000 0.000000 0.000000 0.000000 0.042625 0.000000
# 6 0.000000 0.000000 0.000000 0.000000 0.000000 0.041686
#
#
# Mechanical properties :
#
#
# Convention : Reuss Voigt Hill
#
# Bulk Modulus (GPa) = 30.82724 32.43124 31.62924
# Shear Modulus (GPa) = 21.68241 25.18008 23.43124
#
# Velocity S-wave (km/s) = 3.44090 3.70806 3.57697
# Velocity P-wave (km/s) = 5.71137 6.00351 5.85926
#
# Compressibility (1/GPa) = 0.03243885
#
# Stress axis : x y z
#
# Youngs Moduli (GPa) = 44.73924 46.74895 35.73116
#
# Poissons Ratio (x) = -0.01711 0.24919
# Poissons Ratio (y) = -0.01637 0.46583
# Poissons Ratio (z) = 0.31202 0.60947
#
# Static dielectric constant tensor:
#      x y z
#    x 1.606090 0.000000 0.000000 
#    y 0.000000 1.628170 0.000000 
#    z 0.000000 0.000000 1.635610 
# 
# From -- ./inp_files/64642.got.cif
#   From: 2010.05.17/outbox.cif.g08.bks.cpg/sg63_33_cif.got.tgz:64642.got - 2010.06.03 15:47:04.
