data_PCOD9472671
_publ_section_title
;
Structure prediction by ZEFSAII (Michael W. Deem and Ramdas Pophale) SiO2 
 PCOD9472671
Probable space group: C M C M
;
_chemical_formula_sum "Si O2"
_cell_formula_units_Z 116
_cell_length_a 7.712717
_cell_length_b 24.842569
_cell_length_c 31.540131
_cell_angle_alpha 90.000000
_cell_angle_beta 90.000000
_cell_angle_gamma 90.000000
_cell_volume 6043.205932
_symmetry_space_group_name_H-M "C M C M"
_symmetry_group_IT_number 63
_symmetry_cell_setting 'orthorhombic'
loop_
_space_group_symop_operation_xyz
x,y,z
-x,-y,1/2+z
x,-y,-z
-x,y,1/2-z
-x,-y,-z
x,y,1/2-z
-x,y,z
x,-y,1/2+z
1/2+x,1/2+y,z
1/2-x,1/2-y,1/2+z
1/2+x,1/2-y,-z
1/2-x,1/2+y,1/2-z
1/2-x,1/2-y,-z
1/2+x,1/2+y,1/2-z
1/2-x,1/2+y,z
1/2+x,1/2-y,1/2+z
loop_
_atom_site_type_symbol
_atom_site_label
_atom_site_fract_x
_atom_site_fract_y
_atom_site_fract_z
Si Si1 0.789738 0.850524 0.049569
Si Si2 0.709150 0.901012 0.812388
Si Si3 0.000000 0.940557 0.750000
Si Si4 0.800334 0.179612 0.459104
Si Si5 0.202756 0.740508 0.888311
Si Si6 0.293611 0.223297 0.204207
Si Si7 0.202583 0.577119 0.410905
Si Si8 0.208309 0.972917 0.456617
O O1 0.736865 0.816945 0.090569
O O2 0.728308 0.912233 0.049729
O O3 0.000000 0.851025 0.047719
O O4 0.724283 0.821432 0.006443
O O5 0.500000 0.908767 0.803926
O O6 0.844113 0.936863 0.786486
O O7 0.756890 0.839306 0.800852
O O8 0.736900 0.908316 0.862379
O O9 0.718387 0.216248 0.421985
O O10 0.798549 0.118347 0.442090
O O11 0.000000 0.196963 0.464061
O O12 0.256243 0.746614 0.839630
O O13 0.000000 0.751912 0.887402
O O14 0.224109 0.243157 0.250000
O O15 0.500000 0.223436 0.207077
O O16 0.247128 0.515509 0.420369
O O17 0.000000 0.585684 0.419104
O O18 0.000000 0.969807 0.459727
O O19 0.274588 0.000000 0.500000
#
# Coordination Sequence:
#
# PCOD9472671 Si02
#       8
#    16  16   4  16  16  16  16  16
#     4  10  21  38  56  77 110 156 195 237 284 335
#     4  10  22  36  53  88 122 149 195 236 292 363
#     4  12  22  32  64  82 114 172 174 244 302 358
#     4  10  20  35  55  78 113 154 196 226 274 347
#     4  11  23  34  54  84 115 147 189 238 282 351
#     4  10  20  36  55  78 113 149 184 236 285 344
#     4  11  22  34  54  85 119 151 184 242 292 336
#     4  10  20  37  59  80 108 149 198 240 274 337
#
# _framework density 19.195108000000001
#
# number of rings (size 3 to 8) (size 9 to 14) (size 15 to 20)
#    0.000    1.655    3.448    1.448    2.897    2.207 
#    0.000    0.000    0.000    0.000    1.793    0.000 
#    0.000    0.000    0.000    0.000    0.000    0.000 
#
# Total GULP energy -323103.557393 kJ/mol
# GULP energy per Si atom -5570.750990 kJ/mol
# Density = 1.915142 g / cm^3
# Si number density = 19.195108 Si / 1000 Ang^3
#
#
#
# Elastic Constant Matrix: (Units=GPa)
#
#
# Indices 1 2 3 4 5 6 
#
# 1 40.7469 -6.0021 15.5936 0.0000 0.0000 0.0000
# 2 -6.0021 80.6045 53.4732 0.0000 0.0000 0.0000
# 3 15.5936 53.4732 153.5315 0.0000 0.0000 0.0000
# 4 0.0000 0.0000 0.0000 25.0942 0.0000 0.0000
# 5 0.0000 0.0000 0.0000 0.0000 30.3350 0.0000
# 6 0.0000 0.0000 0.0000 0.0000 0.0000 15.1865
#
#
#
# Elastic Compliance Matrix: (Units=1/GPa)
#
#
# Indices 1 2 3 4 5 6 
#
# 1 0.026988 0.004978 -0.004475 0.000000 0.000000 0.000000
# 2 0.004978 0.017052 -0.006445 0.000000 0.000000 0.000000
# 3 -0.004475 -0.006445 0.009212 0.000000 0.000000 0.000000
# 4 0.000000 0.000000 0.000000 0.039850 0.000000 0.000000
# 5 0.000000 0.000000 0.000000 0.000000 0.032965 0.000000
# 6 0.000000 0.000000 0.000000 0.000000 0.000000 0.065848
#
#
# Mechanical properties :
#
#
# Convention : Reuss Voigt Hill
#
# Bulk Modulus (GPa) = 24.17234 44.55692 34.36463
# Shear Modulus (GPa) = 22.97918 28.24435 25.61176
#
# Velocity S-wave (km/s) = 3.46372 3.84009 3.65675
# Velocity P-wave (km/s) = 5.34947 6.55170 5.98087
#
# Compressibility (1/GPa) = 0.04136959
#
# Stress axis : x y z
#
# Youngs Moduli (GPa) = 37.05414 58.64265 108.54859
#
# Poissons Ratio (x) = -0.29194 0.48574
# Poissons Ratio (y) = -0.18446 0.69957
# Poissons Ratio (z) = 0.16581 0.37794
#
# Static dielectric constant tensor:
#      x y z
#    x 1.707890 0.000000 0.000000 
#    y 0.000000 1.670270 0.000000 
#    z 0.000000 0.000000 1.713280 
# 
# From -- ./inp_files/72057.got.cif
#   From: 2010.05.17/outbox.cif.g08.bks.cpg/sg63_37_cif.got.tgz:72057.got - 2010.06.03 15:47:04.
