data_PCOD9472398
_publ_section_title
;
Structure prediction by ZEFSAII (Michael W. Deem and Ramdas Pophale) SiO2 
 PCOD9472398
Probable space group: C M C M
;
_chemical_formula_sum "Si O2"
_cell_formula_units_Z 104
_cell_length_a 20.941325
_cell_length_b 30.138717
_cell_length_c 8.551776
_cell_angle_alpha 90.000000
_cell_angle_beta 90.000000
_cell_angle_gamma 90.000000
_cell_volume 5397.407822
_symmetry_space_group_name_H-M "C M C M"
_symmetry_group_IT_number 63
_symmetry_cell_setting 'orthorhombic'
loop_
_space_group_symop_operation_xyz
x,y,z
-x,-y,1/2+z
x,-y,-z
-x,y,1/2-z
-x,-y,-z
x,y,1/2-z
-x,y,z
x,-y,1/2+z
1/2+x,1/2+y,z
1/2-x,1/2-y,1/2+z
1/2+x,1/2-y,-z
1/2-x,1/2+y,1/2-z
1/2-x,1/2-y,-z
1/2+x,1/2+y,1/2-z
1/2-x,1/2+y,z
1/2+x,1/2-y,1/2+z
loop_
_atom_site_type_symbol
_atom_site_label
_atom_site_fract_x
_atom_site_fract_y
_atom_site_fract_z
Si Si1 0.321270 0.703284 0.938873
Si Si2 0.119185 0.951937 0.936217
Si Si3 0.731424 0.951237 0.562420
Si Si4 0.069494 0.862131 0.438287
Si Si5 0.619096 0.107521 0.936746
Si Si6 0.325239 0.800898 0.438986
Si Si7 0.500000 0.949274 0.935976
O O1 0.321469 0.703559 0.750000
O O2 0.372319 0.667724 0.997233
O O3 0.248869 0.691574 0.988369
O O4 0.340126 0.752192 0.996810
O O5 0.113921 0.951828 0.750000
O O6 0.194081 0.944372 0.977439
O O7 0.079313 0.912234 0.007812
O O8 0.100651 0.000000 0.000000
O O9 0.724254 0.949558 0.750000
O O10 0.685202 0.916350 0.481565
O O11 0.713693 0.000000 0.500000
O O12 0.071336 0.861018 0.250000
O O13 0.000000 0.845553 0.489605
O O14 0.610546 0.107234 0.750000
O O15 0.628890 0.158737 0.989041
O O16 0.561814 0.078930 0.009762
O O17 0.326419 0.799770 0.250000
O O18 0.500000 0.952432 0.750000
O O19 0.500000 0.000000 0.000000
#
# Coordination Sequence:
#
# PCOD9472398 Si02
#       7
#    16  16  16  16  16  16   8
#     4   9  18  35  58  84 114 147 185 230 280 337
#     4  10  21  36  56  82 112 146 186 233 279 329
#     4  10  20  34  54  82 112 143 183 230 281 333
#     4  10  21  37  56  79 110 148 187 228 277 333
#     4  11  22  38  59  84 115 151 190 234 287 344
#     4   9  19  35  58  85 112 144 182 230 286 336
#     4  12  26  44  62  82 114 156 200 244 293 350
#
# _framework density 19.268509999999999
#
# number of rings (size 3 to 8) (size 9 to 14) (size 15 to 20)
#    0.000    2.000    0.000    3.462    0.000    5.538 
#    1.385    3.077    0.000    0.000    0.000    0.000 
#    0.000    0.000    0.000    0.000    0.000    0.000 
#
# Total GULP energy -290373.129800 kJ/mol
# GULP energy per Si atom -5584.098650 kJ/mol
# Density = 1.922465 g / cm^3
# Si number density = 19.268510 Si / 1000 Ang^3
#
#
#
# Elastic Constant Matrix: (Units=GPa)
#
#
# Indices 1 2 3 4 5 6 
#
# 1 60.5729 63.4387 21.2576 0.0000 0.0000 0.0000
# 2 63.4387 124.4341 19.0239 0.0000 0.0000 0.0000
# 3 21.2576 19.0239 29.7718 0.0000 0.0000 0.0000
# 4 0.0000 0.0000 0.0000 32.9357 0.0000 0.0000
# 5 0.0000 0.0000 0.0000 0.0000 13.2128 0.0000
# 6 0.0000 0.0000 0.0000 0.0000 0.0000 12.5137
#
#
#
# Elastic Compliance Matrix: (Units=1/GPa)
#
#
# Indices 1 2 3 4 5 6 
#
# 1 0.042998 -0.019092 -0.018501 0.000000 0.000000 0.000000
# 2 -0.019092 0.017384 0.002524 0.000000 0.000000 0.000000
# 3 -0.018501 0.002524 0.045186 0.000000 0.000000 0.000000
# 4 0.000000 0.000000 0.000000 0.030362 0.000000 0.000000
# 5 0.000000 0.000000 0.000000 0.000000 0.075684 0.000000
# 6 0.000000 0.000000 0.000000 0.000000 0.000000 0.079912
#
#
# Mechanical properties :
#
#
# Convention : Reuss Voigt Hill
#
# Bulk Modulus (GPa) = 28.22566 46.91324 37.56945
# Shear Modulus (GPa) = 13.38776 19.13635 16.26206
#
# Velocity S-wave (km/s) = 2.63877 3.15483 2.90827
# Velocity P-wave (km/s) = 4.89536 6.13764 5.55136
#
# Compressibility (1/GPa) = 0.03542875
#
# Stress axis : x y z
#
# Youngs Moduli (GPa) = 23.25709 57.52370 22.13063
#
# Poissons Ratio (x) = 1.09827 0.40945
# Poissons Ratio (y) = 0.44403 -0.05586
# Poissons Ratio (z) = 0.43029 -0.14519
#
# Static dielectric constant tensor:
#      x y z
#    x 1.681430 0.000000 0.000000 
#    y 0.000000 1.668940 0.000000 
#    z 0.000000 0.000000 1.648480 
# 
# From -- ./inp_files/8721.got.cif
#   From: 2010.05.17/outbox.cif.g08.bks.cpg/sg63_5_cif.got.tgz:8721.got - 2010.06.03 15:47:04.
