data_PCOD9472770
_publ_section_title
;
Structure prediction by ZEFSAII (Michael W. Deem and Ramdas Pophale) SiO2 
 PCOD9472770
Probable space group: C M C M
;
_chemical_formula_sum "Si O2"
_cell_formula_units_Z 112
_cell_length_a 19.901042
_cell_length_b 10.832927
_cell_length_c 26.788888
_cell_angle_alpha 90.000000
_cell_angle_beta 90.000000
_cell_angle_gamma 90.000000
_cell_volume 5775.323546
_symmetry_space_group_name_H-M "C M C M"
_symmetry_group_IT_number 63
_symmetry_cell_setting 'orthorhombic'
loop_
_space_group_symop_operation_xyz
x,y,z
-x,-y,1/2+z
x,-y,-z
-x,y,1/2-z
-x,-y,-z
x,y,1/2-z
-x,y,z
x,-y,1/2+z
1/2+x,1/2+y,z
1/2-x,1/2-y,1/2+z
1/2+x,1/2-y,-z
1/2-x,1/2+y,1/2-z
1/2-x,1/2-y,-z
1/2+x,1/2+y,1/2-z
1/2-x,1/2+y,z
1/2+x,1/2-y,1/2+z
loop_
_atom_site_type_symbol
_atom_site_label
_atom_site_fract_x
_atom_site_fract_y
_atom_site_fract_z
Si Si1 0.579680 0.859969 0.520506
Si Si2 0.923049 0.738863 0.694545
Si Si3 0.825906 0.689175 0.384605
Si Si4 0.842490 0.482839 0.196132
Si Si5 0.198290 0.898074 0.307415
Si Si6 0.324485 0.370791 0.624174
Si Si7 0.575363 0.392253 0.541111
O O1 0.500000 0.861292 0.534371
O O2 0.627371 0.822643 0.567001
O O3 0.587257 0.745831 0.481300
O O4 0.595132 0.000000 0.500000
O O5 0.902154 0.785695 0.750000
O O6 0.910916 0.592733 0.696678
O O7 0.877565 0.779515 0.648978
O O8 0.000000 0.772379 0.687309
O O9 0.840012 0.571063 0.350290
O O10 0.834301 0.804170 0.346751
O O11 0.745748 0.683831 0.395250
O O12 0.833389 0.548150 0.250000
O O13 0.779699 0.386890 0.193731
O O14 0.174924 0.887577 0.250000
O O15 0.189169 0.032472 0.331478
O O16 0.365681 0.427579 0.578729
O O17 0.574768 0.500000 0.500000
O O18 0.500000 0.391002 0.563701
#
# Coordination Sequence:
#
# PCOD9472770 Si02
#       7
#    16  16  16  16  16  16  16
#     4  10  24  43  62  86 118 159 207 259 316 375
#     4  10  20  35  56  84 119 156 199 246 286 343
#     4  11  22  36  61  88 119 157 203 248 307 360
#     4   9  19  34  54  84 120 158 198 237 291 358
#     4  10  20  36  58  87 126 162 193 242 301 364
#     4  11  22  35  59  90 119 153 205 249 301 358
#     4  10  22  41  62  83 115 159 202 251 314 371
#
# _framework density 19.392852000000001
#
# number of rings (size 3 to 8) (size 9 to 14) (size 15 to 20)
#    0.000    1.857    1.429    2.143    2.000    2.857 
#    0.000    0.714    0.000    3.000    0.000    0.000 
#    0.000    0.000    0.000    0.000    0.000    0.000 
#
# Total GULP energy -311840.984931 kJ/mol
# GULP energy per Si atom -5568.589017 kJ/mol
# Density = 1.934871 g / cm^3
# Si number density = 19.392852 Si / 1000 Ang^3
#
#
#
# Elastic Constant Matrix: (Units=GPa)
#
#
# Indices 1 2 3 4 5 6 
#
# 1 73.9637 1.4041 39.7902 0.0000 0.0000 0.0000
# 2 1.4041 42.3169 -3.8032 0.0000 0.0000 0.0000
# 3 39.7902 -3.8032 64.2847 0.0000 0.0000 0.0000
# 4 0.0000 0.0000 0.0000 28.1808 0.0000 0.0000
# 5 0.0000 0.0000 0.0000 0.0000 27.9295 0.0000
# 6 0.0000 0.0000 0.0000 0.0000 0.0000 15.5642
#
#
#
# Elastic Compliance Matrix: (Units=1/GPa)
#
#
# Indices 1 2 3 4 5 6 
#
# 1 0.020408 -0.001822 -0.012740 0.000000 0.000000 0.000000
# 2 -0.001822 0.023920 0.002543 0.000000 0.000000 0.000000
# 3 -0.012740 0.002543 0.023592 0.000000 0.000000 0.000000
# 4 0.000000 0.000000 0.000000 0.035485 0.000000 0.000000
# 5 0.000000 0.000000 0.000000 0.000000 0.035804 0.000000
# 6 0.000000 0.000000 0.000000 0.000000 0.000000 0.064250
#
#
# Mechanical properties :
#
#
# Convention : Reuss Voigt Hill
#
# Bulk Modulus (GPa) = 22.78821 28.37193 25.58007
# Shear Modulus (GPa) = 20.65041 23.87985 22.26513
#
# Velocity S-wave (km/s) = 3.26674 3.51290 3.39205
# Velocity P-wave (km/s) = 5.09952 5.57816 5.34420
#
# Compressibility (1/GPa) = 0.04388234
#
# Stress axis : x y z
#
# Youngs Moduli (GPa) = 48.99929 41.80563 42.38747
#
# Poissons Ratio (x) = 0.07618 0.54002
# Poissons Ratio (y) = 0.08928 -0.10779
# Poissons Ratio (z) = 0.62425 -0.10631
#
# Static dielectric constant tensor:
#      x y z
#    x 1.712120 0.000000 0.000000 
#    y 0.000000 1.721780 0.000000 
#    z 0.000000 0.000000 1.707500 
# 
# From -- ./inp_files/64637.got.cif
#   From: 2010.05.17/outbox.cif.g08.bks.cpg/sg63_33_cif.got.tgz:64637.got - 2010.06.03 15:47:04.
