data_PCOD9472032
_publ_section_title
;
Structure prediction by ZEFSAII (Michael W. Deem and Ramdas Pophale) SiO2 
 PCOD9472032
Probable space group: C M C M
;
_chemical_formula_sum "Si O2"
_cell_formula_units_Z 80
_cell_length_a 20.998146
_cell_length_b 23.849246
_cell_length_c 8.050364
_cell_angle_alpha 90.000000
_cell_angle_beta 90.000000
_cell_angle_gamma 90.000000
_cell_volume 4031.541381
_symmetry_space_group_name_H-M "C M C M"
_symmetry_group_IT_number 63
_symmetry_cell_setting 'orthorhombic'
loop_
_space_group_symop_operation_xyz
x,y,z
-x,-y,1/2+z
x,-y,-z
-x,y,1/2-z
-x,-y,-z
x,y,1/2-z
-x,y,z
x,-y,1/2+z
1/2+x,1/2+y,z
1/2-x,1/2-y,1/2+z
1/2+x,1/2-y,-z
1/2-x,1/2+y,1/2-z
1/2-x,1/2-y,-z
1/2+x,1/2+y,1/2-z
1/2-x,1/2+y,z
1/2+x,1/2-y,1/2+z
loop_
_atom_site_type_symbol
_atom_site_label
_atom_site_fract_x
_atom_site_fract_y
_atom_site_fract_z
Si Si1 0.000000 0.064170 0.450137
Si Si2 0.125013 0.630655 0.948638
Si Si3 0.751399 0.434929 0.447732
Si Si4 0.500000 0.064356 0.052183
Si Si5 0.074716 0.250311 0.453239
Si Si6 0.375456 0.369647 0.950886
O O1 0.063573 0.094873 0.509836
O O2 0.000000 0.068144 0.250000
O O3 0.000000 0.000000 0.500000
O O4 0.133276 0.635779 0.750000
O O5 0.186677 0.598044 0.016239
O O6 0.109698 0.693241 0.011767
O O7 0.062511 0.594280 0.982471
O O8 0.748287 0.500000 0.500000
O O9 0.756611 0.435673 0.250000
O O10 0.688653 0.400042 0.494112
O O11 0.500000 0.069029 0.250000
O O12 0.500000 0.000000 0.000000
O O13 0.073781 0.250901 0.250000
O O14 0.111941 0.194284 0.505277
O O15 0.000000 0.249157 0.503973
O O16 0.375634 0.369556 0.750000
#
# Coordination Sequence:
#
# PCOD9472032 Si02
#       6
#     8  16  16   8  16  16
#     4  10  20  33  52  80 108 143 193 238 281 338
#     4  10  21  39  63  87 116 156 198 239 290 351
#     4  11  24  40  58  84 118 157 198 243 295 350
#     4  12  24  37  58  88 118 151 197 248 299 348
#     4   9  16  33  63  90 115 151 194 235 285 353
#     4  10  20  36  60  87 115 152 196 239 288 351
#
# _framework density 19.843527000000002
#
# number of rings (size 3 to 8) (size 9 to 14) (size 15 to 20)
#    0.000    1.800    2.000    2.700    0.000    6.400 
#    0.000    1.000    0.000    0.000    0.000    0.000 
#    0.000    0.000    0.000    0.000    0.000    0.000 
#
# Total GULP energy -223411.877536 kJ/mol
# GULP energy per Si atom -5585.296938 kJ/mol
# Density = 1.979836 g / cm^3
# Si number density = 19.843527 Si / 1000 Ang^3
#
#
#
# Elastic Constant Matrix: (Units=GPa)
#
#
# Indices 1 2 3 4 5 6 
#
# 1 201.8030 127.6313 4.5272 0.0000 0.0000 0.0000
# 2 127.6313 242.9307 9.4428 0.0000 0.0000 0.0000
# 3 4.5272 9.4428 14.0145 0.0000 0.0000 0.0000
# 4 0.0000 0.0000 0.0000 7.1967 0.0000 0.0000
# 5 0.0000 0.0000 0.0000 0.0000 17.8021 0.0000
# 6 0.0000 0.0000 0.0000 0.0000 0.0000 -103.5730
#
#
#
# Elastic Compliance Matrix: (Units=1/GPa)
#
#
# Indices 1 2 3 4 5 6 
#
# 1 0.007422 -0.003909 0.000236 0.000000 0.000000 0.000000
# 2 -0.003909 0.006285 -0.002972 0.000000 0.000000 0.000000
# 3 0.000236 -0.002972 0.073281 0.000000 0.000000 0.000000
# 4 0.000000 0.000000 0.000000 0.138953 0.000000 0.000000
# 5 0.000000 0.000000 0.000000 0.000000 0.056173 0.000000
# 6 0.000000 0.000000 0.000000 0.000000 0.000000 -0.009655
#
#
# Mechanical properties :
#
#
# Convention : Reuss Voigt Hill
#
# Bulk Modulus (GPa) = 13.56875 82.43895 48.00385
# Shear Modulus (GPa) = 16.11257 5.42828 10.77043
#
# Velocity S-wave (km/s) = 2.85262 1.65574 2.33227
# Velocity P-wave (km/s) = 4.20745 6.72978 5.61216
#
# Compressibility (1/GPa) = 0.07369877
#
# Stress axis : x y z
#
# Youngs Moduli (GPa) = 134.73406 159.09805 13.64603
#
# Poissons Ratio (x) = 0.62185 -0.00322
# Poissons Ratio (y) = 0.52662 0.04056
# Poissons Ratio (z) = -0.03180 0.47291
#
# Static dielectric constant tensor:
#      x y z
#    x 1.676570 0.000000 0.000000 
#    y 0.000000 1.687860 0.000000 
#    z 0.000000 0.000000 1.711530 
# 
# From -- ./inp_files/8113.got.cif
#   From: 2010.05.17/outbox.cif.g08.bks.cpg/sg63_5_cif.got.tgz:8113.got - 2010.06.03 15:47:04.
