data_PCOD9472656
_publ_section_title
;
Structure prediction by ZEFSAII (Michael W. Deem and Ramdas Pophale) SiO2 
 PCOD9472656
Probable space group: C M C M
;
_chemical_formula_sum "Si O2"
_cell_formula_units_Z 72
_cell_length_a 15.064055
_cell_length_b 30.277615
_cell_length_c 7.495546
_cell_angle_alpha 90.000000
_cell_angle_beta 90.000000
_cell_angle_gamma 90.000000
_cell_volume 3418.745947
_symmetry_space_group_name_H-M "C M C M"
_symmetry_group_IT_number 63
_symmetry_cell_setting 'orthorhombic'
loop_
_space_group_symop_operation_xyz
x,y,z
-x,-y,1/2+z
x,-y,-z
-x,y,1/2-z
-x,-y,-z
x,y,1/2-z
-x,y,z
x,-y,1/2+z
1/2+x,1/2+y,z
1/2-x,1/2-y,1/2+z
1/2+x,1/2-y,-z
1/2-x,1/2+y,1/2-z
1/2-x,1/2-y,-z
1/2+x,1/2+y,1/2-z
1/2-x,1/2+y,z
1/2+x,1/2-y,1/2+z
loop_
_atom_site_type_symbol
_atom_site_label
_atom_site_fract_x
_atom_site_fract_y
_atom_site_fract_z
Si Si1 0.500000 0.730095 0.467703
Si Si2 0.195348 0.794962 0.962684
Si Si3 0.000000 0.667361 0.530650
Si Si4 0.192376 0.948000 0.464691
Si Si5 0.679960 0.875510 0.455549
Si Si6 0.500000 0.552584 0.536913
O O1 0.500000 0.729130 0.250000
O O2 0.406584 0.709096 0.526128
O O3 0.500000 0.781449 0.522534
O O4 0.193418 0.800796 0.750000
O O5 0.250000 0.750000 0.000000
O O6 0.249156 0.835807 0.041394
O O7 0.088593 0.642937 0.467307
O O8 0.000000 0.668245 0.750000
O O9 0.190409 0.942833 0.250000
O O10 0.271680 0.918023 0.536076
O O11 0.095475 0.931879 0.532494
O O12 0.202291 0.000000 0.500000
O O13 0.659151 0.886502 0.250000
O O14 0.500000 0.500000 0.500000
O O15 0.500000 0.559304 0.750000
#
# Coordination Sequence:
#
# PCOD9472656 Si02
#       6
#     8  16   8  16  16   8
#     4   9  18  33  53  74 104 142 172 204 255 319
#     4  11  21  35  54  77 104 136 173 214 257 306
#     4   9  16  32  54  72 100 141 177 205 254 324
#     4   9  18  32  52  75 102 134 170 211 258 308
#     4  10  20  35  55  78 103 138 178 216 260 310
#     4   8  14  27  46  70  97 127 160 202 253 306
#
# _framework density 21.060352999999999
#
# number of rings (size 3 to 8) (size 9 to 14) (size 15 to 20)
#    0.000    2.444    2.222    0.667    0.000    1.778 
#    0.000    5.556    0.000    4.000    0.000    0.000 
#    0.000    0.000    0.000    0.000    0.000    0.000 
#
# Total GULP energy -200892.350466 kJ/mol
# GULP energy per Si atom -5580.343069 kJ/mol
# Density = 2.101242 g / cm^3
# Si number density = 21.060353 Si / 1000 Ang^3
#
#
#
# Elastic Constant Matrix: (Units=GPa)
#
#
# Indices 1 2 3 4 5 6 
#
# 1 205.3907 65.0205 -2.3100 0.0000 0.0000 0.0000
# 2 65.0205 77.8173 -12.3382 0.0000 0.0000 0.0000
# 3 -2.3100 -12.3382 64.3144 0.0000 0.0000 0.0000
# 4 0.0000 0.0000 0.0000 15.4934 0.0000 0.0000
# 5 0.0000 0.0000 0.0000 0.0000 79.4990 0.0000
# 6 0.0000 0.0000 0.0000 0.0000 0.0000 26.3127
#
#
#
# Elastic Compliance Matrix: (Units=1/GPa)
#
#
# Indices 1 2 3 4 5 6 
#
# 1 0.006665 -0.005705 -0.000855 0.000000 0.000000 0.000000
# 2 -0.005705 0.018136 0.003274 0.000000 0.000000 0.000000
# 3 -0.000855 0.003274 0.016146 0.000000 0.000000 0.000000
# 4 0.000000 0.000000 0.000000 0.064544 0.000000 0.000000
# 5 0.000000 0.000000 0.000000 0.000000 0.012579 0.000000
# 6 0.000000 0.000000 0.000000 0.000000 0.000000 0.038005
#
#
# Mechanical properties :
#
#
# Convention : Reuss Voigt Hill
#
# Bulk Modulus (GPa) = 29.08916 49.80744 39.44830
# Shear Modulus (GPa) = 28.71851 44.07101 36.39476
#
# Velocity S-wave (km/s) = 3.69674 4.57946 4.16157
# Velocity P-wave (km/s) = 5.66246 7.18771 6.47019
#
# Compressibility (1/GPa) = 0.03437707
#
# Stress axis : x y z
#
# Youngs Moduli (GPa) = 150.03658 55.13826 61.93457
#
# Poissons Ratio (x) = 0.31454 0.05295
# Poissons Ratio (y) = 0.85589 -0.20280
# Poissons Ratio (z) = 0.12828 -0.18054
#
# Static dielectric constant tensor:
#      x y z
#    x 1.806330 0.000000 0.000000 
#    y 0.000000 1.715430 0.000000 
#    z 0.000000 0.000000 1.797820 
# 
# From -- ./inp_files/4956.got.cif
#   From: 2010.05.17/outbox.cif.g08.bks.cpg/sg63_3_cif.got.tgz:4956.got - 2010.06.03 15:47:04.
