data_PCOD9472223
_publ_section_title
;
Structure prediction by ZEFSAII (Michael W. Deem and Ramdas Pophale) SiO2 
 PCOD9472223
Probable space group: C M C M
;
_chemical_formula_sum "Si O2"
_cell_formula_units_Z 80
_cell_length_a 27.158022
_cell_length_b 18.835946
_cell_length_c 8.632712
_cell_angle_alpha 90.000000
_cell_angle_beta 90.000000
_cell_angle_gamma 90.000000
_cell_volume 4416.038235
_symmetry_space_group_name_H-M "C M C M"
_symmetry_group_IT_number 63
_symmetry_cell_setting 'orthorhombic'
loop_
_space_group_symop_operation_xyz
x,y,z
-x,-y,1/2+z
x,-y,-z
-x,y,1/2-z
-x,-y,-z
x,y,1/2-z
-x,y,z
x,-y,1/2+z
1/2+x,1/2+y,z
1/2-x,1/2-y,1/2+z
1/2+x,1/2-y,-z
1/2-x,1/2+y,1/2-z
1/2-x,1/2-y,-z
1/2+x,1/2+y,1/2-z
1/2-x,1/2+y,z
1/2+x,1/2-y,1/2+z
loop_
_atom_site_type_symbol
_atom_site_label
_atom_site_fract_x
_atom_site_fract_y
_atom_site_fract_z
Si Si1 0.099026 0.779622 0.566026
Si Si2 0.844638 0.576894 0.565339
Si Si3 0.944392 0.361359 0.564546
Si Si4 0.940738 0.075976 0.931475
Si Si5 0.199235 0.719373 0.064550
O O1 0.097499 0.768756 0.750000
O O2 0.064750 0.720233 0.485346
O O3 0.082095 0.857959 0.521282
O O4 0.153644 0.764245 0.503288
O O5 0.831419 0.500000 0.500000
O O6 0.840716 0.578790 0.750000
O O7 0.900963 0.594719 0.516253
O O8 0.811576 0.639252 0.492321
O O9 0.938667 0.367039 0.750000
O O10 0.000000 0.382858 0.522757
O O11 0.928226 0.080380 0.750000
O O12 0.000000 0.080297 0.945692
O O13 0.925349 0.000000 0.000000
O O14 0.198416 0.721689 0.250000
O O15 0.250000 0.750000 0.000000
#
# Coordination Sequence:
#
# PCOD9472223 Si02
#       5
#    16  16  16  16  16
#     4  11  21  34  54  80 109 143 183 226 273 325
#     4  11  22  38  59  84 114 148 184 224 272 323
#     4  10  20  34  53  79 111 148 188 228 270 318
#     4  10  20  34  52  76 108 146 185 226 274 326
#     4  11  22  40  63  86 111 141 180 225 274 325
#
# _framework density 18.115786
#
# number of rings (size 3 to 8) (size 9 to 14) (size 15 to 20)
#    0.000    1.400    0.000    9.600    0.000    5.600 
#    0.000    1.000    0.000    0.000    0.000    0.000 
#    0.000    0.000    0.000    0.000    0.000    0.000 
#
# Total GULP energy -223592.156900 kJ/mol
# GULP energy per Si atom -5589.803922 kJ/mol
# Density = 1.807455 g / cm^3
# Si number density = 18.115786 Si / 1000 Ang^3
#
#
#
# Elastic Constant Matrix: (Units=GPa)
#
#
# Indices 1 2 3 4 5 6 
#
# 1 67.1121 14.1947 19.4899 0.0000 0.0000 0.0000
# 2 14.1947 87.6731 13.9872 0.0000 0.0000 0.0000
# 3 19.4899 13.9872 103.0993 0.0000 0.0000 0.0000
# 4 0.0000 0.0000 0.0000 35.4584 0.0000 0.0000
# 5 0.0000 0.0000 0.0000 0.0000 28.1639 0.0000
# 6 0.0000 0.0000 0.0000 0.0000 0.0000 4.9026
#
#
#
# Elastic Compliance Matrix: (Units=1/GPa)
#
#
# Indices 1 2 3 4 5 6 
#
# 1 0.016162 -0.002176 -0.002760 0.000000 0.000000 0.000000
# 2 -0.002176 0.011951 -0.001210 0.000000 0.000000 0.000000
# 3 -0.002760 -0.001210 0.010385 0.000000 0.000000 0.000000
# 4 0.000000 0.000000 0.000000 0.028202 0.000000 0.000000
# 5 0.000000 0.000000 0.000000 0.000000 0.035506 0.000000
# 6 0.000000 0.000000 0.000000 0.000000 0.000000 0.203972
#
#
# Mechanical properties :
#
#
# Convention : Reuss Voigt Hill
#
# Bulk Modulus (GPa) = 38.15903 39.24756 38.70329
# Shear Modulus (GPa) = 15.28082 27.71918 21.50000
#
# Velocity S-wave (km/s) = 2.90747 3.91591 3.44875
# Velocity P-wave (km/s) = 5.69042 6.49289 6.10486
#
# Compressibility (1/GPa) = 0.02620612
#
# Stress axis : x y z
#
# Youngs Moduli (GPa) = 61.87229 83.67211 96.28993
#
# Poissons Ratio (x) = 0.18211 0.26577
# Poissons Ratio (y) = 0.13466 0.11651
# Poissons Ratio (z) = 0.17077 0.10124
#
# Static dielectric constant tensor:
#      x y z
#    x 1.605730 0.000000 0.000000 
#    y 0.000000 1.609280 0.000000 
#    z 0.000000 0.000000 1.603550 
# 
# From -- ./inp_files/12053.got.cif
#   From: 2010.05.17/outbox.cif.g08.bks.cpg/sg63_7_cif.got.tgz:12053.got - 2010.06.03 15:47:04.
