data_PCOD9472838
_publ_section_title
;
Structure prediction by ZEFSAII (Michael W. Deem and Ramdas Pophale) SiO2 
 PCOD9472838
Probable space group: C M C M
;
_chemical_formula_sum "Si O2"
_cell_formula_units_Z 64
_cell_length_a 13.019853
_cell_length_b 7.867666
_cell_length_c 25.819074
_cell_angle_alpha 90.000000
_cell_angle_beta 90.000000
_cell_angle_gamma 90.000000
_cell_volume 2644.798915
_symmetry_space_group_name_H-M "C M C M"
_symmetry_group_IT_number 63
_symmetry_cell_setting 'orthorhombic'
loop_
_space_group_symop_operation_xyz
x,y,z
-x,-y,1/2+z
x,-y,-z
-x,y,1/2-z
-x,-y,-z
x,y,1/2-z
-x,y,z
x,-y,1/2+z
1/2+x,1/2+y,z
1/2-x,1/2-y,1/2+z
1/2+x,1/2-y,-z
1/2-x,1/2+y,1/2-z
1/2-x,1/2-y,-z
1/2+x,1/2+y,1/2-z
1/2-x,1/2+y,z
1/2+x,1/2-y,1/2+z
loop_
_atom_site_type_symbol
_atom_site_label
_atom_site_fract_x
_atom_site_fract_y
_atom_site_fract_z
Si Si1 0.664205 0.860183 0.688431
Si Si2 0.610920 0.479373 0.812232
Si Si3 0.112708 0.565728 0.594021
Si Si4 0.195333 0.124482 0.460174
O O1 0.643436 0.879574 0.750000
O O2 0.786335 0.873222 0.679816
O O3 0.616586 0.008930 0.653892
O O4 0.627500 0.674677 0.669657
O O5 0.606038 0.493773 0.750000
O O6 0.500000 0.415964 0.830241
O O7 0.129511 0.761637 0.578540
O O8 0.210963 0.469159 0.569283
O O9 0.000000 0.512631 0.573748
O O10 0.250000 0.250000 0.500000
O O11 0.137073 0.000000 0.500000
#
# Coordination Sequence:
#
# PCOD9472838 Si02
#       4
#    16  16  16  16
#     4  10  20  35  57  87 123 159 198 240 281 344
#     4   9  18  34  54  75 108 155 196 234 282 328
#     4  11  22  38  62  88 118 158 196 236 296 357
#     4   9  21  41  62  87 116 144 191 251 299 353
#
# _framework density 24.198436000000001
#
# number of rings (size 3 to 8) (size 9 to 14) (size 15 to 20)
#    0.000    2.250    0.000    2.250    0.000    6.500 
#    0.000   10.000    0.000   15.000    0.000    0.000 
#    0.000    0.000    0.000    0.000    0.000    0.000 
#
# Total GULP energy -178716.137122 kJ/mol
# GULP energy per Si atom -5584.879285 kJ/mol
# Density = 2.414336 g / cm^3
# Si number density = 24.198436 Si / 1000 Ang^3
#
#
#
# Elastic Constant Matrix: (Units=GPa)
#
#
# Indices 1 2 3 4 5 6 
#
# 1 140.5117 7.6627 5.7007 0.0000 0.0000 0.0000
# 2 7.6627 32.5065 12.0347 0.0000 0.0000 0.0000
# 3 5.7007 12.0347 92.2600 0.0000 0.0000 0.0000
# 4 0.0000 0.0000 0.0000 37.9964 0.0000 0.0000
# 5 0.0000 0.0000 0.0000 0.0000 7.1364 0.0000
# 6 0.0000 0.0000 0.0000 0.0000 0.0000 148.0055
#
#
#
# Elastic Compliance Matrix: (Units=1/GPa)
#
#
# Indices 1 2 3 4 5 6 
#
# 1 0.007214 -0.001614 -0.000235 0.000000 0.000000 0.000000
# 2 -0.001614 0.032685 -0.004164 0.000000 0.000000 0.000000
# 3 -0.000235 -0.004164 0.011397 0.000000 0.000000 0.000000
# 4 0.000000 0.000000 0.000000 0.026318 0.000000 0.000000
# 5 0.000000 0.000000 0.000000 0.000000 0.140126 0.000000
# 6 0.000000 0.000000 0.000000 0.000000 0.000000 0.006757
#
#
# Mechanical properties :
#
#
# Convention : Reuss Voigt Hill
#
# Bulk Modulus (GPa) = 25.46431 35.11937 30.29184
# Shear Modulus (GPa) = 20.03105 54.61969 37.32537
#
# Velocity S-wave (km/s) = 2.88024 4.75611 3.93169
# Velocity P-wave (km/s) = 4.64834 6.68621 5.75814
#
# Compressibility (1/GPa) = 0.03927065
#
# Stress axis : x y z
#
# Youngs Moduli (GPa) = 138.61196 30.59513 87.74532
#
# Poissons Ratio (x) = 0.04937 0.02065
# Poissons Ratio (y) = 0.22365 0.36536
# Poissons Ratio (z) = 0.03262 0.12739
#
# Static dielectric constant tensor:
#      x y z
#    x 1.814710 0.000000 0.000000 
#    y 0.000000 1.980870 0.000000 
#    z 0.000000 0.000000 1.971760 
# 
# From -- ./inp_files/72355.got.cif
#   From: 2010.05.17/outbox.cif.g08.bks.cpg/sg63_37_cif.got.tgz:72355.got - 2010.06.03 15:47:04.
