data_PCOD9472067
_publ_section_title
;
Structure prediction by ZEFSAII (Michael W. Deem and Ramdas Pophale) SiO2 
 PCOD9472067
Probable space group: C M C M
;
_chemical_formula_sum "Si O2"
_cell_formula_units_Z 64
_cell_length_a 17.821921
_cell_length_b 24.044225
_cell_length_c 9.058370
_cell_angle_alpha 90.000000
_cell_angle_beta 90.000000
_cell_angle_gamma 90.000000
_cell_volume 3881.640885
_symmetry_space_group_name_H-M "C M C M"
_symmetry_group_IT_number 63
_symmetry_cell_setting 'orthorhombic'
loop_
_space_group_symop_operation_xyz
x,y,z
-x,-y,1/2+z
x,-y,-z
-x,y,1/2-z
-x,-y,-z
x,y,1/2-z
-x,y,z
x,-y,1/2+z
1/2+x,1/2+y,z
1/2-x,1/2-y,1/2+z
1/2+x,1/2-y,-z
1/2-x,1/2+y,1/2-z
1/2-x,1/2-y,-z
1/2+x,1/2+y,1/2-z
1/2-x,1/2+y,z
1/2+x,1/2-y,1/2+z
loop_
_atom_site_type_symbol
_atom_site_label
_atom_site_fract_x
_atom_site_fract_y
_atom_site_fract_z
Si Si1 0.500000 0.744420 0.424987
Si Si2 0.083404 0.863372 0.574923
Si Si3 0.798613 0.058788 0.924402
Si Si4 0.378101 0.940439 0.426533
Si Si5 0.000000 0.362766 0.926455
O O1 0.500000 0.758199 0.250000
O O2 0.570152 0.702518 0.452997
O O3 0.500000 0.798935 0.521852
O O4 0.095546 0.870129 0.750000
O O5 0.148338 0.893328 0.487354
O O6 0.000000 0.887564 0.540321
O O7 0.809004 0.053513 0.750000
O O8 0.710413 0.069994 0.952011
O O9 0.817316 0.000000 0.000000
O O10 0.391512 0.942332 0.250000
O O11 0.428526 0.893998 0.503227
O O12 0.396298 0.000000 0.500000
O O13 0.000000 0.367625 0.750000
#
# Coordination Sequence:
#
# PCOD9472067 Si02
#       5
#     8  16  16  16   8
#     4   8  18  37  56  75 102 138 175 216 259 300
#     4   8  17  34  55  76 104 139 173 213 260 302
#     4  10  20  33  53  79 107 139 173 212 258 307
#     4  10  21  37  55  78 108 138 170 212 260 309
#     4  12  23  35  56  81 102 134 175 214 260 312
#
# _framework density 16.487873
#
# number of rings (size 3 to 8) (size 9 to 14) (size 15 to 20)
#    0.750    1.750    0.000    3.000    0.000    5.000 
#    0.000    1.250    0.000    0.000    0.000    0.000 
#    0.000    0.000    0.000    0.000    0.000    0.000 
#
# Total GULP energy -178272.225873 kJ/mol
# GULP energy per Si atom -5571.007059 kJ/mol
# Density = 1.645035 g / cm^3
# Si number density = 16.487873 Si / 1000 Ang^3
#
#
#
# Elastic Constant Matrix: (Units=GPa)
#
#
# Indices 1 2 3 4 5 6 
#
# 1 74.5054 68.5161 65.3503 0.0000 0.0000 0.0000
# 2 68.5161 110.3624 73.5025 0.0000 0.0000 0.0000
# 3 65.3503 73.5025 102.0642 0.0000 0.0000 0.0000
# 4 0.0000 0.0000 0.0000 34.8826 0.0000 0.0000
# 5 0.0000 0.0000 0.0000 0.0000 29.3694 0.0000
# 6 0.0000 0.0000 0.0000 0.0000 0.0000 -40.6590
#
#
#
# Elastic Compliance Matrix: (Units=1/GPa)
#
#
# Indices 1 2 3 4 5 6 
#
# 1 0.040571 -0.015156 -0.015062 0.000000 0.000000 0.000000
# 2 -0.015156 0.023075 -0.006913 0.000000 0.000000 0.000000
# 3 -0.015062 -0.006913 0.024421 0.000000 0.000000 0.000000
# 4 0.000000 0.000000 0.000000 0.028668 0.000000 0.000000
# 5 0.000000 0.000000 0.000000 0.000000 0.034049 0.000000
# 6 0.000000 0.000000 0.000000 0.000000 0.000000 -0.024595
#
#
# Mechanical properties :
#
#
# Convention : Reuss Voigt Hill
#
# Bulk Modulus (GPa) = 72.44747 77.96333 75.20540
# Shear Modulus (GPa) = 24.38408 10.02279 17.20344
#
# Velocity S-wave (km/s) = 3.84983 2.46822 3.23367
# Velocity P-wave (km/s) = 7.98729 7.45055 7.72359
#
# Compressibility (1/GPa) = 0.01380310
#
# Stress axis : x y z
#
# Youngs Moduli (GPa) = 24.64824 43.33779 40.94902
#
# Poissons Ratio (x) = 0.65682 0.61679
# Poissons Ratio (y) = 0.37357 0.28309
# Poissons Ratio (z) = 0.37126 0.29961
#
# Static dielectric constant tensor:
#      x y z
#    x 1.555020 0.000000 0.000000 
#    y 0.000000 1.534610 0.000000 
#    z 0.000000 0.000000 1.539760 
# 
# From -- ./inp_files/5754.got.cif
#   From: 2010.05.17/outbox.cif.g08.bks.cpg/sg63_3_cif.got.tgz:5754.got - 2010.06.03 15:47:04.
