data_PCOD9472989
_publ_section_title
;
Structure prediction by ZEFSAII (Michael W. Deem and Ramdas Pophale) SiO2 
 PCOD9472989
Probable space group: C M C M
;
_chemical_formula_sum "Si O2"
_cell_formula_units_Z 64
_cell_length_a 10.579992
_cell_length_b 37.657795
_cell_length_c 7.529872
_cell_angle_alpha 90.000000
_cell_angle_beta 90.000000
_cell_angle_gamma 90.000000
_cell_volume 3000.045351
_symmetry_space_group_name_H-M "C M C M"
_symmetry_group_IT_number 63
_symmetry_cell_setting 'orthorhombic'
loop_
_space_group_symop_operation_xyz
x,y,z
-x,-y,1/2+z
x,-y,-z
-x,y,1/2-z
-x,-y,-z
x,y,1/2-z
-x,y,z
x,-y,1/2+z
1/2+x,1/2+y,z
1/2-x,1/2-y,1/2+z
1/2+x,1/2-y,-z
1/2-x,1/2+y,1/2-z
1/2-x,1/2-y,-z
1/2+x,1/2+y,1/2-z
1/2-x,1/2+y,z
1/2+x,1/2-y,1/2+z
loop_
_atom_site_type_symbol
_atom_site_label
_atom_site_fract_x
_atom_site_fract_y
_atom_site_fract_z
Si Si1 0.858168 0.958763 0.536923
Si Si2 0.226405 0.326622 0.463177
Si Si3 0.000000 0.723711 0.534135
Si Si4 0.500000 0.306528 0.042382
Si Si5 0.141133 0.593356 0.036957
O O1 0.862500 0.954558 0.750000
O O2 0.749759 0.932796 0.467426
O O3 0.000000 0.950998 0.468764
O O4 0.830323 0.000000 0.500000
O O5 0.231390 0.322383 0.250000
O O6 0.367827 0.320619 0.534390
O O7 0.177198 0.365954 0.501382
O O8 0.124305 0.297737 0.526711
O O9 0.000000 0.724073 0.750000
O O10 0.000000 0.764005 0.471290
O O11 0.500000 0.316836 0.250000
O O12 0.137068 0.588874 0.250000
O O13 0.000000 0.586073 0.968088
#
# Coordination Sequence:
#
# PCOD9472989 Si02
#       5
#    16  16   8   8  16
#     4   9  19  36  56  80 110 141 175 216 261 311
#     4  10  21  37  54  78 110 141 177 222 268 317
#     4  10  20  36  56  76 105 142 179 220 267 320
#     4  10  22  36  54  80 107 138 179 224 269 318
#     4  10  21  36  55  80 109 142 180 221 264 313
#
# _framework density 21.333010999999999
#
# number of rings (size 3 to 8) (size 9 to 14) (size 15 to 20)
#    0.000    2.250    1.250    0.750    1.750    3.500 
#    0.000    0.000    0.000    0.000    0.000    0.000 
#    0.000    0.000    0.000    0.000    0.000    0.000 
#
# Total GULP energy -178773.583363 kJ/mol
# GULP energy per Si atom -5586.674480 kJ/mol
# Density = 2.128446 g / cm^3
# Si number density = 21.333011 Si / 1000 Ang^3
#
#
#
# Elastic Constant Matrix: (Units=GPa)
#
#
# Indices 1 2 3 4 5 6 
#
# 1 187.2463 69.0344 5.9606 0.0000 0.0000 0.0000
# 2 69.0344 75.5831 -17.1837 0.0000 0.0000 0.0000
# 3 5.9606 -17.1837 54.0100 0.0000 0.0000 0.0000
# 4 0.0000 0.0000 0.0000 27.8521 0.0000 0.0000
# 5 0.0000 0.0000 0.0000 0.0000 34.6734 0.0000
# 6 0.0000 0.0000 0.0000 0.0000 0.0000 42.5017
#
#
#
# Elastic Compliance Matrix: (Units=1/GPa)
#
#
# Indices 1 2 3 4 5 6 
#
# 1 0.008708 -0.008809 -0.003764 0.000000 0.000000 0.000000
# 2 -0.008809 0.023174 0.008345 0.000000 0.000000 0.000000
# 3 -0.003764 0.008345 0.021586 0.000000 0.000000 0.000000
# 4 0.000000 0.000000 0.000000 0.035904 0.000000 0.000000
# 5 0.000000 0.000000 0.000000 0.000000 0.028841 0.000000
# 6 0.000000 0.000000 0.000000 0.000000 0.000000 0.023528
#
#
# Mechanical properties :
#
#
# Convention : Reuss Voigt Hill
#
# Bulk Modulus (GPa) = 22.21656 48.05134 35.13395
# Shear Modulus (GPa) = 30.26620 38.27398 34.27009
#
# Velocity S-wave (km/s) = 3.77072 4.24030 4.01238
# Velocity P-wave (km/s) = 5.42167 6.82252 6.16203
#
# Compressibility (1/GPa) = 0.04501147
#
# Stress axis : x y z
#
# Youngs Moduli (GPa) = 114.83339 43.15195 46.32729
#
# Poissons Ratio (x) = 0.38015 0.17437
# Poissons Ratio (y) = 1.01162 -0.38661
# Poissons Ratio (z) = 0.43222 -0.36011
#
# Static dielectric constant tensor:
#      x y z
#    x 1.797240 0.000000 0.000000 
#    y 0.000000 1.690340 0.000000 
#    z 0.000000 0.000000 1.786480 
# 
# From -- ./inp_files/3190.got.cif
#   From: 2010.05.17/outbox.cif.g08.bks.cpg/sg63_2_cif.got.tgz:3190.got - 2010.06.03 15:47:04.
