data_PCOD9472087
_publ_section_title
;
Structure prediction by ZEFSAII (Michael W. Deem and Ramdas Pophale) SiO2 
 PCOD9472087
Probable space group: C M C M
;
_chemical_formula_sum "Si O2"
_cell_formula_units_Z 96
_cell_length_a 7.839872
_cell_length_b 21.272152
_cell_length_c 29.139890
_cell_angle_alpha 90.000000
_cell_angle_beta 90.000000
_cell_angle_gamma 90.000000
_cell_volume 4859.687105
_symmetry_space_group_name_H-M "C M C M"
_symmetry_group_IT_number 63
_symmetry_cell_setting 'orthorhombic'
loop_
_space_group_symop_operation_xyz
x,y,z
-x,-y,1/2+z
x,-y,-z
-x,y,1/2-z
-x,-y,-z
x,y,1/2-z
-x,y,z
x,-y,1/2+z
1/2+x,1/2+y,z
1/2-x,1/2-y,1/2+z
1/2+x,1/2-y,-z
1/2-x,1/2+y,1/2-z
1/2-x,1/2-y,-z
1/2+x,1/2+y,1/2-z
1/2-x,1/2+y,z
1/2+x,1/2-y,1/2+z
loop_
_atom_site_type_symbol
_atom_site_label
_atom_site_fract_x
_atom_site_fract_y
_atom_site_fract_z
Si Si1 0.705290 0.755646 0.946894
Si Si2 0.795056 0.130907 0.604384
Si Si3 0.796680 0.672356 0.301126
Si Si4 0.703750 0.816653 0.301520
Si Si5 0.704412 0.492485 0.448005
Si Si6 0.793172 0.380856 0.895407
O O1 0.500000 0.755828 0.942574
O O2 0.770434 0.694610 0.919685
O O3 0.766906 0.820962 0.925155
O O4 0.750000 0.750000 0.000000
O O5 0.755630 0.136511 0.658171
O O6 0.000000 0.130892 0.599978
O O7 0.729032 0.069217 0.578374
O O8 0.725320 0.660712 0.250000
O O9 0.769702 0.746190 0.311965
O O10 0.731546 0.630860 0.343318
O O11 0.000000 0.662523 0.298890
O O12 0.764068 0.833146 0.250000
O O13 0.500000 0.813315 0.300673
O O14 0.771507 0.500000 0.500000
O O15 0.500000 0.485123 0.451627
O O16 0.738958 0.554664 0.418665
O O17 0.000000 0.379817 0.894809
#
# Coordination Sequence:
#
# PCOD9472087 Si02
#       6
#    16  16  16  16  16  16
#     4  10  20  34  53  79 106 137 181 229 273 321
#     4  10  20  37  57  78 108 146 186 222 267 331
#     4   9  17  33  57  81 108 144 180 217 269 329
#     4  10  20  33  53  84 115 141 176 226 278 321
#     4  10  22  39  58  78 106 147 187 224 270 323
#     4  10  20  35  55  81 110 140 180 225 271 324
#
# _framework density 19.754359000000001
#
# number of rings (size 3 to 8) (size 9 to 14) (size 15 to 20)
#    0.000    2.167    1.667    1.500    0.000    5.333 
#    0.000    0.833    0.000    3.000    0.000    0.000 
#    0.000    0.000    0.000    0.000    0.000    0.000 
#
# Total GULP energy -267944.381482 kJ/mol
# GULP energy per Si atom -5582.174614 kJ/mol
# Density = 1.970940 g / cm^3
# Si number density = 19.754359 Si / 1000 Ang^3
#
#
#
# Elastic Constant Matrix: (Units=GPa)
#
#
# Indices 1 2 3 4 5 6 
#
# 1 19.5595 0.4032 -1.6677 0.0000 0.0000 0.0000
# 2 0.4032 124.2143 74.8052 0.0000 0.0000 0.0000
# 3 -1.6677 74.8052 166.2307 0.0000 0.0000 0.0000
# 4 0.0000 0.0000 0.0000 30.3113 0.0000 0.0000
# 5 0.0000 0.0000 0.0000 0.0000 23.9303 0.0000
# 6 0.0000 0.0000 0.0000 0.0000 0.0000 496.5763
#
#
#
# Elastic Compliance Matrix: (Units=1/GPa)
#
#
# Indices 1 2 3 4 5 6 
#
# 1 0.051208 -0.000652 0.000807 0.000000 0.000000 0.000000
# 2 -0.000652 0.011052 -0.004980 0.000000 0.000000 0.000000
# 3 0.000807 -0.004980 0.008265 0.000000 0.000000 0.000000
# 4 0.000000 0.000000 0.000000 0.032991 0.000000 0.000000
# 5 0.000000 0.000000 0.000000 0.000000 0.041788 0.000000
# 6 0.000000 0.000000 0.000000 0.000000 0.000000 0.002014
#
#
# Mechanical properties :
#
#
# Convention : Reuss Voigt Hill
#
# Bulk Modulus (GPa) = 16.42709 50.78731 33.60720
# Shear Modulus (GPa) = 28.20723 125.92784 77.06754
#
# Velocity S-wave (km/s) = 3.78285 7.99283 6.25281
# Velocity P-wave (km/s) = 5.23581 10.53307 8.31743
#
# Compressibility (1/GPa) = 0.06087505
#
# Stress axis : x y z
#
# Youngs Moduli (GPa) = 19.52802 90.48329 120.99447
#
# Poissons Ratio (x) = 0.05903 -0.09768
# Poissons Ratio (y) = 0.01274 0.60254
# Poissons Ratio (z) = -0.01577 0.45060
#
# Static dielectric constant tensor:
#      x y z
#    x 1.721680 0.000000 0.000000 
#    y 0.000000 1.660050 0.000000 
#    z 0.000000 0.000000 1.694520 
# 
# From -- ./inp_files/66900.got.cif
#   From: 2010.05.17/outbox.cif.g08.bks.cpg/sg63_34_cif.got.tgz:66900.got - 2010.06.03 15:47:04.
