data_PCOD9472027
_publ_section_title
;
Structure prediction by ZEFSAII (Michael W. Deem and Ramdas Pophale) SiO2 
 PCOD9472027
Probable space group: C M C M
;
_chemical_formula_sum "Si O2"
_cell_formula_units_Z 96
_cell_length_a 24.051420
_cell_length_b 25.856552
_cell_length_c 8.930758
_cell_angle_alpha 90.000000
_cell_angle_beta 90.000000
_cell_angle_gamma 90.000000
_cell_volume 5553.920442
_symmetry_space_group_name_H-M "C M C M"
_symmetry_group_IT_number 63
_symmetry_cell_setting 'orthorhombic'
loop_
_space_group_symop_operation_xyz
x,y,z
-x,-y,1/2+z
x,-y,-z
-x,y,1/2-z
-x,-y,-z
x,y,1/2-z
-x,y,z
x,-y,1/2+z
1/2+x,1/2+y,z
1/2-x,1/2-y,1/2+z
1/2+x,1/2-y,-z
1/2-x,1/2+y,1/2-z
1/2-x,1/2-y,-z
1/2+x,1/2+y,1/2-z
1/2-x,1/2+y,z
1/2+x,1/2-y,1/2+z
loop_
_atom_site_type_symbol
_atom_site_label
_atom_site_fract_x
_atom_site_fract_y
_atom_site_fract_z
Si Si1 0.250206 0.692799 0.569591
Si Si2 0.935374 0.443858 0.571064
Si Si3 0.369432 0.649553 0.929760
Si Si4 0.435356 0.444344 0.571068
Si Si5 0.869561 0.649959 0.571046
Si Si6 0.934434 0.744917 0.428410
O O1 0.250992 0.698394 0.750000
O O2 0.250000 0.750000 0.500000
O O3 0.306158 0.662542 0.526044
O O4 0.194099 0.662534 0.527987
O O5 0.924782 0.500000 0.500000
O O6 0.929968 0.446570 0.750000
O O7 0.894924 0.400721 0.505019
O O8 0.000000 0.430010 0.536736
O O9 0.371278 0.642005 0.750000
O O10 0.405679 0.700574 0.964661
O O11 0.395831 0.600166 0.008543
O O12 0.422136 0.500000 0.500000
O O13 0.431317 0.447494 0.750000
O O14 0.500000 0.432385 0.531949
O O15 0.872391 0.644616 0.750000
O O16 0.905627 0.698943 0.517973
O O17 0.926566 0.735651 0.250000
O O18 0.000000 0.747002 0.458130
#
# Coordination Sequence:
#
# PCOD9472027 Si02
#       6
#    16  16  16  16  16  16
#     4  10  21  37  57  80 109 148 190 230 273 324
#     4  10  21  38  60  84 111 145 184 227 277 332
#     4  10  20  36  57  80 109 146 187 229 274 326
#     4  10  21  37  58  84 113 145 182 226 277 332
#     4  11  22  35  54  82 113 145 184 229 276 327
#     4  10  20  33  52  79 110 145 183 224 274 331
#
# _framework density 17.285087999999998
#
# number of rings (size 3 to 8) (size 9 to 14) (size 15 to 20)
#    0.000    1.833    1.667    2.500    0.000    7.000 
#    0.000    0.833    0.000    0.000    0.000    0.000 
#    0.000    0.000    0.000    0.000    0.000    0.000 
#
# Total GULP energy -268113.536484 kJ/mol
# GULP energy per Si atom -5585.698677 kJ/mol
# Density = 1.724575 g / cm^3
# Si number density = 17.285088 Si / 1000 Ang^3
#
#
#
# Elastic Constant Matrix: (Units=GPa)
#
#
# Indices 1 2 3 4 5 6 
#
# 1 154.6611 107.7877 63.0130 0.0000 0.0000 0.0000
# 2 107.7877 151.5567 64.7357 0.0000 0.0000 0.0000
# 3 63.0130 64.7357 47.8335 0.0000 0.0000 0.0000
# 4 0.0000 0.0000 0.0000 36.5491 0.0000 0.0000
# 5 0.0000 0.0000 0.0000 0.0000 25.8230 0.0000
# 6 0.0000 0.0000 0.0000 0.0000 0.0000 10.8203
#
#
#
# Elastic Compliance Matrix: (Units=1/GPa)
#
#
# Indices 1 2 3 4 5 6 
#
# 1 0.015692 -0.005523 -0.013196 0.000000 0.000000 0.000000
# 2 -0.005523 0.017582 -0.016519 0.000000 0.000000 0.000000
# 3 -0.013196 -0.016519 0.060646 0.000000 0.000000 0.000000
# 4 0.000000 0.000000 0.000000 0.027360 0.000000 0.000000
# 5 0.000000 0.000000 0.000000 0.000000 0.038725 0.000000
# 6 0.000000 0.000000 0.000000 0.000000 0.000000 0.092419
#
#
# Mechanical properties :
#
#
# Convention : Reuss Voigt Hill
#
# Bulk Modulus (GPa) = 42.65726 91.68046 67.16886
# Shear Modulus (GPa) = 15.11875 22.53945 18.82910
#
# Velocity S-wave (km/s) = 2.96069 3.61499 3.30407
# Velocity P-wave (km/s) = 6.03488 8.40116 7.31435
#
# Compressibility (1/GPa) = 0.02344267
#
# Stress axis : x y z
#
# Youngs Moduli (GPa) = 63.72851 56.87533 16.48925
#
# Poissons Ratio (x) = 0.31414 0.21759
# Poissons Ratio (y) = 0.35200 0.27239
# Poissons Ratio (z) = 0.84097 0.93952
#
# Static dielectric constant tensor:
#      x y z
#    x 1.583260 0.000000 0.000000 
#    y 0.000000 1.541880 0.000000 
#    z 0.000000 0.000000 1.580470 
# 
# From -- ./inp_files/10436.got.cif
#   From: 2010.05.17/outbox.cif.g08.bks.cpg/sg63_6_cif.got.tgz:10436.got - 2010.06.03 15:47:04.
