data_PCOD9472924
_publ_section_title
;
Structure prediction by ZEFSAII (Michael W. Deem and Ramdas Pophale) SiO2 
 PCOD9472924
Probable space group: C M C M
;
_chemical_formula_sum "Si O2"
_cell_formula_units_Z 96
_cell_length_a 20.774248
_cell_length_b 14.579413
_cell_length_c 14.837876
_cell_angle_alpha 90.000000
_cell_angle_beta 90.000000
_cell_angle_gamma 90.000000
_cell_volume 4494.041596
_symmetry_space_group_name_H-M "C M C M"
_symmetry_group_IT_number 63
_symmetry_cell_setting 'orthorhombic'
loop_
_space_group_symop_operation_xyz
x,y,z
-x,-y,1/2+z
x,-y,-z
-x,y,1/2-z
-x,-y,-z
x,y,1/2-z
-x,y,z
x,-y,1/2+z
1/2+x,1/2+y,z
1/2-x,1/2-y,1/2+z
1/2+x,1/2-y,-z
1/2-x,1/2+y,1/2-z
1/2-x,1/2-y,-z
1/2+x,1/2+y,1/2-z
1/2-x,1/2+y,z
1/2+x,1/2-y,1/2+z
loop_
_atom_site_type_symbol
_atom_site_label
_atom_site_fract_x
_atom_site_fract_y
_atom_site_fract_z
Si Si1 0.928518 0.560643 0.591067
Si Si2 0.820208 0.426399 0.648402
Si Si3 0.425607 0.672163 0.652478
Si Si4 0.640598 0.219394 0.503708
Si Si5 0.426490 0.467785 0.599102
Si Si6 0.810946 0.154737 0.350601
O O1 0.933309 0.500000 0.500000
O O2 0.865787 0.515309 0.638090
O O3 0.911166 0.664654 0.564599
O O4 0.000000 0.554182 0.634272
O O5 0.833712 0.392067 0.750000
O O6 0.836105 0.357711 0.566837
O O7 0.742567 0.426078 0.641260
O O8 0.400307 0.704102 0.750000
O O9 0.500000 0.702920 0.645292
O O10 0.389595 0.706884 0.564267
O O11 0.425402 0.562456 0.652965
O O12 0.690537 0.268474 0.571301
O O13 0.405266 0.500000 0.500000
O O14 0.500000 0.434434 0.592404
O O15 0.379865 0.392490 0.638627
O O16 0.803508 0.194529 0.250000
#
# Coordination Sequence:
#
# PCOD9472924 Si02
#       6
#    16  16  16  16  16  16
#     4   9  20  39  64  91 122 160 204 256 315 377
#     4  10  23  43  63  89 123 164 214 257 309 376
#     4  10  20  35  59  93 128 161 202 252 309 373
#     4  11  21  39  63  94 125 160 206 262 319 370
#     4  10  20  37  61  88 122 165 208 251 307 370
#     4  11  24  41  61  89 127 168 210 258 312 375
#
# _framework density 21.361618
#
# number of rings (size 3 to 8) (size 9 to 14) (size 15 to 20)
#    0.000    1.833    1.667    2.000    0.000    5.333 
#    3.000    0.000    0.000    0.000    0.000    0.000 
#    0.000    0.000    0.000    0.000    0.000    0.000 
#
# Total GULP energy -267394.766458 kJ/mol
# GULP energy per Si atom -5570.724301 kJ/mol
# Density = 2.131300 g / cm^3
# Si number density = 21.361618 Si / 1000 Ang^3
#
#
#
# Elastic Constant Matrix: (Units=GPa)
#
#
# Indices 1 2 3 4 5 6 
#
# 1 49.3751 19.0894 38.7154 0.0000 0.0000 0.0000
# 2 19.0894 53.9692 24.8641 0.0000 0.0000 0.0000
# 3 38.7154 24.8641 139.2155 0.0000 0.0000 0.0000
# 4 0.0000 0.0000 0.0000 2.8853 0.0000 0.0000
# 5 0.0000 0.0000 0.0000 0.0000 32.9669 0.0000
# 6 0.0000 0.0000 0.0000 0.0000 0.0000 20.4213
#
#
#
# Elastic Compliance Matrix: (Units=1/GPa)
#
#
# Indices 1 2 3 4 5 6 
#
# 1 0.028078 -0.006902 -0.006576 0.000000 0.000000 0.000000
# 2 -0.006902 0.021887 -0.001990 0.000000 0.000000 0.000000
# 3 -0.006576 -0.001990 0.009367 0.000000 0.000000 0.000000
# 4 0.000000 0.000000 0.000000 0.346582 0.000000 0.000000
# 5 0.000000 0.000000 0.000000 0.000000 0.030333 0.000000
# 6 0.000000 0.000000 0.000000 0.000000 0.000000 0.048969
#
#
# Mechanical properties :
#
#
# Convention : Reuss Voigt Hill
#
# Bulk Modulus (GPa) = 35.21450 45.32198 40.26824
# Shear Modulus (GPa) = 9.51266 21.91409 15.71337
#
# Velocity S-wave (km/s) = 2.11254 3.20638 2.71512
# Velocity P-wave (km/s) = 4.74037 5.91358 5.35918
#
# Compressibility (1/GPa) = 0.02839740
#
# Stress axis : x y z
#
# Youngs Moduli (GPa) = 35.61570 45.68926 106.75645
#
# Poissons Ratio (x) = 0.31534 0.70199
# Poissons Ratio (y) = 0.24581 0.21241
# Poissons Ratio (z) = 0.23419 0.09091
#
# Static dielectric constant tensor:
#      x y z
#    x 1.803890 0.000000 0.000000 
#    y 0.000000 1.768450 0.000000 
#    z 0.000000 0.000000 1.814130 
# 
# From -- ./inp_files/35372.got.cif
#   From: 2010.05.17/outbox.cif.g08.bks.cpg/sg63_18_cif.got.tgz:35372.got - 2010.06.03 15:47:04.
