data_PCOD9472316
_publ_section_title
;
Structure prediction by ZEFSAII (Michael W. Deem and Ramdas Pophale) SiO2 
 PCOD9472316
Probable space group: C M C M
;
_chemical_formula_sum "Si O2"
_cell_formula_units_Z 128
_cell_length_a 21.499485
_cell_length_b 14.171994
_cell_length_c 22.205646
_cell_angle_alpha 90.000000
_cell_angle_beta 90.000000
_cell_angle_gamma 90.000000
_cell_volume 6765.850991
_symmetry_space_group_name_H-M "C M C M"
_symmetry_group_IT_number 63
_symmetry_cell_setting 'orthorhombic'
loop_
_space_group_symop_operation_xyz
x,y,z
-x,-y,1/2+z
x,-y,-z
-x,y,1/2-z
-x,-y,-z
x,y,1/2-z
-x,y,z
x,-y,1/2+z
1/2+x,1/2+y,z
1/2-x,1/2-y,1/2+z
1/2+x,1/2-y,-z
1/2-x,1/2+y,1/2-z
1/2-x,1/2-y,-z
1/2+x,1/2+y,1/2-z
1/2-x,1/2+y,z
1/2+x,1/2-y,1/2+z
loop_
_atom_site_type_symbol
_atom_site_label
_atom_site_fract_x
_atom_site_fract_y
_atom_site_fract_z
Si Si1 0.573420 0.243985 0.888075
Si Si2 0.687761 0.508150 0.180204
Si Si3 0.312049 0.267005 0.817400
Si Si4 0.928163 0.120053 0.679238
Si Si5 0.752130 0.131530 0.912293
Si Si6 0.929533 0.095227 0.024483
Si Si7 0.619645 0.725130 0.571293
Si Si8 0.628706 0.106192 0.986384
O O1 0.500000 0.248785 0.877336
O O2 0.616522 0.237396 0.829926
O O3 0.588993 0.159728 0.934702
O O4 0.595793 0.340541 0.921775
O O5 0.702705 0.481249 0.250000
O O6 0.693117 0.620312 0.176784
O O7 0.617639 0.468843 0.168708
O O8 0.729920 0.455805 0.130900
O O9 0.292550 0.240421 0.750000
O O10 0.273295 0.212992 0.867944
O O11 0.925806 0.141981 0.750000
O O12 0.900050 0.204783 0.639476
O O13 0.000000 0.100899 0.663333
O O14 0.814679 0.173451 0.940929
O O15 0.699065 0.107581 0.960325
O O16 0.929161 0.167236 0.968896
O O17 0.000000 0.069969 0.042355
O O18 0.898151 0.000000 0.000000
O O19 0.623652 0.830027 0.546187
O O20 0.609206 0.000000 0.000000
#
# Coordination Sequence:
#
# PCOD9472316 Si02
#       8
#    16  16  16  16  16  16  16  16
#     4   9  20  37  55  79 109 137 181 226 270 330
#     4   9  19  34  54  82 111 147 186 220 268 324
#     4  10  21  36  55  80 112 146 183 224 271 324
#     4   9  18  33  54  81 113 142 174 222 276 334
#     4  10  21  35  55  77 112 144 184 230 269 322
#     4   9  18  31  50  77 110 144 172 210 266 325
#     4  10  20  34  53  80 108 144 183 219 272 328
#     4  10  22  38  56  79 106 141 186 233 277 320
#
# _framework density 18.918537000000001
#
# number of rings (size 3 to 8) (size 9 to 14) (size 15 to 20)
#    0.000    2.500    0.000    1.125    5.250    2.500 
#    0.000    1.250    0.000    0.750    0.000    0.000 
#    0.000    0.000    0.000    0.000    0.000    0.000 
#
# Total GULP energy -356855.783396 kJ/mol
# GULP energy per Si atom -5575.871616 kJ/mol
# Density = 1.887548 g / cm^3
# Si number density = 18.918537 Si / 1000 Ang^3
#
#
#
# Elastic Constant Matrix: (Units=GPa)
#
#
# Indices 1 2 3 4 5 6 
#
# 1 59.8522 6.0860 3.6161 0.0000 0.0000 0.0000
# 2 6.0860 106.0386 28.2396 0.0000 0.0000 0.0000
# 3 3.6161 28.2396 44.7869 0.0000 0.0000 0.0000
# 4 0.0000 0.0000 0.0000 23.4887 0.0000 0.0000
# 5 0.0000 0.0000 0.0000 0.0000 15.9629 0.0000
# 6 0.0000 0.0000 0.0000 0.0000 0.0000 12.4880
#
#
#
# Elastic Compliance Matrix: (Units=1/GPa)
#
#
# Indices 1 2 3 4 5 6 
#
# 1 0.016836 -0.000726 -0.000901 0.000000 0.000000 0.000000
# 2 -0.000726 0.011365 -0.007107 0.000000 0.000000 0.000000
# 3 -0.000901 -0.007107 0.026882 0.000000 0.000000 0.000000
# 4 0.000000 0.000000 0.000000 0.042574 0.000000 0.000000
# 5 0.000000 0.000000 0.000000 0.000000 0.062645 0.000000
# 6 0.000000 0.000000 0.000000 0.000000 0.000000 0.080077
#
#
# Mechanical properties :
#
#
# Convention : Reuss Voigt Hill
#
# Bulk Modulus (GPa) = 26.58640 31.84012 29.21326
# Shear Modulus (GPa) = 18.49204 21.90367 20.19786
#
# Velocity S-wave (km/s) = 3.12982 3.40632 3.27099
# Velocity P-wave (km/s) = 5.21005 5.68659 5.45353
#
# Compressibility (1/GPa) = 0.03761322
#
# Stress axis : x y z
#
# Youngs Moduli (GPa) = 59.39602 87.98950 37.19939
#
# Poissons Ratio (x) = 0.06390 0.03353
# Poissons Ratio (y) = 0.04313 0.26439
# Poissons Ratio (z) = 0.05354 0.62537
#
# Static dielectric constant tensor:
#      x y z
#    x 1.681110 0.000000 0.000000 
#    y 0.000000 1.644840 0.000000 
#    z 0.000000 0.000000 1.674160 
# 
# From -- ./inp_files/65178.got.cif
#   From: 2010.05.17/outbox.cif.g08.bks.cpg/sg63_33_cif.got.tgz:65178.got - 2010.06.03 15:47:04.
