data_PCOD9472444
_publ_section_title
;
Structure prediction by ZEFSAII (Michael W. Deem and Ramdas Pophale) SiO2 
 PCOD9472444
Probable space group: C M C M
;
_chemical_formula_sum "Si O2"
_cell_formula_units_Z 116
_cell_length_a 22.166666
_cell_length_b 33.039162
_cell_length_c 9.174966
_cell_angle_alpha 90.000000
_cell_angle_beta 90.000000
_cell_angle_gamma 90.000000
_cell_volume 6719.452132
_symmetry_space_group_name_H-M "C M C M"
_symmetry_group_IT_number 63
_symmetry_cell_setting 'orthorhombic'
loop_
_space_group_symop_operation_xyz
x,y,z
-x,-y,1/2+z
x,-y,-z
-x,y,1/2-z
-x,-y,-z
x,y,1/2-z
-x,y,z
x,-y,1/2+z
1/2+x,1/2+y,z
1/2-x,1/2-y,1/2+z
1/2+x,1/2-y,-z
1/2-x,1/2+y,1/2-z
1/2-x,1/2-y,-z
1/2+x,1/2+y,1/2-z
1/2-x,1/2+y,z
1/2+x,1/2-y,1/2+z
loop_
_atom_site_type_symbol
_atom_site_label
_atom_site_fract_x
_atom_site_fract_y
_atom_site_fract_z
Si Si1 0.572238 0.824266 0.919578
Si Si2 0.377031 0.540806 0.409753
Si Si3 0.571721 0.090986 0.922827
Si Si4 0.672787 0.041603 0.422942
Si Si5 0.781042 0.895324 0.923364
Si Si6 0.344342 0.238289 0.920056
Si Si7 0.717675 0.309750 0.419839
Si Si8 0.500000 0.445735 0.750000
O O1 0.590216 0.828460 0.750000
O O2 0.500000 0.819161 0.925552
O O3 0.586930 0.865415 0.006580
O O4 0.605410 0.786661 0.993408
O O5 0.374137 0.500000 0.500000
O O6 0.348387 0.532261 0.250000
O O7 0.338881 0.578078 0.470550
O O8 0.445923 0.552380 0.374475
O O9 0.584240 0.091445 0.750000
O O10 0.500000 0.084442 0.943123
O O11 0.611428 0.057544 0.003508
O O12 0.665176 0.035607 0.250000
O O13 0.722904 0.076315 0.445610
O O14 0.691691 0.000000 0.500000
O O15 0.785961 0.886358 0.750000
O O16 0.777749 0.853781 0.010108
O O17 0.359988 0.242840 0.750000
O O18 0.282934 0.211877 0.929561
O O19 0.328613 0.281129 0.993063
O O20 0.701059 0.311789 0.250000
#
# Coordination Sequence:
#
# PCOD9472444 Si02
#       8
#    16  16  16  16  16  16  16   4
#     4  10  20  34  55  82 112 143 177 222 269 318
#     4   9  18  32  54  80 106 136 173 215 259 310
#     4  10  21  37  56  79 107 144 189 231 270 320
#     4  11  23  37  55  78 109 145 181 227 279 330
#     4  10  21  36  53  78 111 142 177 218 272 325
#     4  10  20  35  56  81 107 138 181 220 267 319
#     4  10  21  35  55  80 107 140 176 223 267 320
#     4   8  18  32  58  80 106 136 172 220 258 308
#
# _framework density 17.263311000000002
#
# number of rings (size 3 to 8) (size 9 to 14) (size 15 to 20)
#    0.414    1.655    0.000    3.517    0.000    7.448 
#    0.000    0.000    1.517    0.000    0.000    0.000 
#    0.000    0.000    0.000    0.000    0.000    0.000 
#
# Total GULP energy -323070.764019 kJ/mol
# GULP energy per Si atom -5570.185587 kJ/mol
# Density = 1.722402 g / cm^3
# Si number density = 17.263311 Si / 1000 Ang^3
#
#
#
# Elastic Constant Matrix: (Units=GPa)
#
#
# Indices 1 2 3 4 5 6 
#
# 1 34.9798 35.8412 39.1042 0.0000 0.0000 0.0000
# 2 35.8412 109.3828 63.2874 0.0000 0.0000 0.0000
# 3 39.1042 63.2874 104.2043 0.0000 0.0000 0.0000
# 4 0.0000 0.0000 0.0000 30.7908 0.0000 0.0000
# 5 0.0000 0.0000 0.0000 0.0000 25.3294 0.0000
# 6 0.0000 0.0000 0.0000 0.0000 0.0000 24.8479
#
#
#
# Elastic Compliance Matrix: (Units=1/GPa)
#
#
# Indices 1 2 3 4 5 6 
#
# 1 0.054811 -0.009342 -0.014895 0.000000 0.000000 0.000000
# 2 -0.009342 0.015687 -0.006022 0.000000 0.000000 0.000000
# 3 -0.014895 -0.006022 0.018843 0.000000 0.000000 0.000000
# 4 0.000000 0.000000 0.000000 0.032477 0.000000 0.000000
# 5 0.000000 0.000000 0.000000 0.000000 0.039480 0.000000
# 6 0.000000 0.000000 0.000000 0.000000 0.000000 0.040245
#
#
# Mechanical properties :
#
#
# Convention : Reuss Voigt Hill
#
# Bulk Modulus (GPa) = 34.69281 58.33697 46.51489
# Shear Modulus (GPa) = 18.40473 23.54923 20.97698
#
# Velocity S-wave (km/s) = 3.26869 3.69741 3.48964
# Velocity P-wave (km/s) = 5.86393 7.21759 6.57568
#
# Compressibility (1/GPa) = 0.02882441
#
# Stress axis : x y z
#
# Youngs Moduli (GPa) = 18.24453 63.74533 53.06871
#
# Poissons Ratio (x) = 0.59549 0.79046
# Poissons Ratio (y) = 0.17044 0.31958
# Poissons Ratio (z) = 0.27175 0.38387
#
# Static dielectric constant tensor:
#      x y z
#    x 1.580230 0.000000 0.000000 
#    y 0.000000 1.562580 0.000000 
#    z 0.000000 0.000000 1.590030 
# 
# From -- ./inp_files/11217.got.cif
#   From: 2010.05.17/outbox.cif.g08.bks.cpg/sg63_6_cif.got.tgz:11217.got - 2010.06.03 15:47:04.
