data_PCOD9472156
_publ_section_title
;
Structure prediction by ZEFSAII (Michael W. Deem and Ramdas Pophale) SiO2 
 PCOD9472156
Probable space group: C M C M
;
_chemical_formula_sum "Si O2"
_cell_formula_units_Z 96
_cell_length_a 14.844022
_cell_length_b 31.543240
_cell_length_c 9.773695
_cell_angle_alpha 90.000000
_cell_angle_beta 90.000000
_cell_angle_gamma 90.000000
_cell_volume 4576.323023
_symmetry_space_group_name_H-M "C M C M"
_symmetry_group_IT_number 63
_symmetry_cell_setting 'orthorhombic'
loop_
_space_group_symop_operation_xyz
x,y,z
-x,-y,1/2+z
x,-y,-z
-x,y,1/2-z
-x,-y,-z
x,y,1/2-z
-x,y,z
x,-y,1/2+z
1/2+x,1/2+y,z
1/2-x,1/2-y,1/2+z
1/2+x,1/2-y,-z
1/2-x,1/2+y,1/2-z
1/2-x,1/2-y,-z
1/2+x,1/2+y,1/2-z
1/2-x,1/2+y,z
1/2+x,1/2-y,1/2+z
loop_
_atom_site_type_symbol
_atom_site_label
_atom_site_fract_x
_atom_site_fract_y
_atom_site_fract_z
Si Si1 0.389662 0.709790 0.093401
Si Si2 0.146132 0.462096 0.405065
Si Si3 0.390272 0.212854 0.406089
Si Si4 0.108563 0.616408 0.404118
Si Si5 0.860749 0.962775 0.404512
Si Si6 0.892303 0.132610 0.594343
O O1 0.359392 0.708341 0.250000
O O2 0.500000 0.709583 0.094891
O O3 0.360762 0.752288 0.014789
O O4 0.359279 0.669010 0.006770
O O5 0.109211 0.500000 0.500000
O O6 0.110173 0.462111 0.250000
O O7 0.133715 0.417838 0.483120
O O8 0.253374 0.468641 0.395177
O O9 0.364533 0.224016 0.250000
O O10 0.500000 0.212988 0.408389
O O11 0.361740 0.164538 0.434482
O O12 0.140430 0.604759 0.250000
O O13 0.000000 0.617209 0.399074
O O14 0.897052 0.964738 0.250000
O O15 0.876348 0.915116 0.456890
O O16 0.896306 0.000000 0.500000
O O17 0.855575 0.136020 0.750000
O O18 0.000000 0.138185 0.603825
#
# Coordination Sequence:
#
# PCOD9472156 Si02
#       6
#    16  16  16  16  16  16
#     4   9  16  25  40  66  97 124 152 188 227 268
#     4  10  20  34  51  69  92 123 157 192 231 278
#     4   8  14  26  44  65  91 123 153 182 223 274
#     4   9  18  32  50  73  98 122 153 193 233 274
#     4   9  19  34  50  69  92 121 157 193 231 278
#     4   9  17  30  48  69  94 124 156 190 231 277
#
# _framework density 20.977539
#
# number of rings (size 3 to 8) (size 9 to 14) (size 15 to 20)
#    0.000    3.000    0.000    2.000    0.000    5.000 
#    0.000    1.667    0.000    1.000    0.000    0.000 
#    0.000    0.000    0.000    0.000    0.000    0.000 
#
# Total GULP energy -267870.815215 kJ/mol
# GULP energy per Si atom -5580.641984 kJ/mol
# Density = 2.092979 g / cm^3
# Si number density = 20.977539 Si / 1000 Ang^3
#
#
#
# Elastic Constant Matrix: (Units=GPa)
#
#
# Indices 1 2 3 4 5 6 
#
# 1 50.9418 -3.8002 5.9915 0.0000 0.0000 0.0000
# 2 -3.8002 178.2823 144.3928 0.0000 0.0000 0.0000
# 3 5.9915 144.3928 177.7649 0.0000 0.0000 0.0000
# 4 0.0000 0.0000 0.0000 25.4871 0.0000 0.0000
# 5 0.0000 0.0000 0.0000 0.0000 -15.8315 0.0000
# 6 0.0000 0.0000 0.0000 0.0000 0.0000 25.1075
#
#
#
# Elastic Compliance Matrix: (Units=1/GPa)
#
#
# Indices 1 2 3 4 5 6 
#
# 1 0.020199 0.002870 -0.003012 0.000000 0.000000 0.000000
# 2 0.002870 0.016802 -0.013745 0.000000 0.000000 0.000000
# 3 -0.003012 -0.013745 0.016891 0.000000 0.000000 0.000000
# 4 0.000000 0.000000 0.000000 0.039236 0.000000 0.000000
# 5 0.000000 0.000000 0.000000 0.000000 -0.063165 0.000000
# 6 0.000000 0.000000 0.000000 0.000000 0.000000 0.039829
#
#
# Mechanical properties :
#
#
# Convention : Reuss Voigt Hill
#
# Bulk Modulus (GPa) = 38.28663 77.79524 58.04093
# Shear Modulus (GPa) = 47.04975 24.31294 35.68134
#
# Velocity S-wave (km/s) = 4.74103 3.40810 4.12871
# Velocity P-wave (km/s) = 6.94699 7.25620 7.10327
#
# Compressibility (1/GPa) = 0.02611878
#
# Stress axis : x y z
#
# Youngs Moduli (GPa) = 49.50844 59.51616 59.20233
#
# Poissons Ratio (x) = -0.17081 0.17832
# Poissons Ratio (y) = -0.14209 0.81371
# Poissons Ratio (z) = 0.14912 0.81803
#
# Static dielectric constant tensor:
#      x y z
#    x 1.792600 0.000000 0.000000 
#    y 0.000000 1.725970 0.000000 
#    z 0.000000 0.000000 1.747140 
# 
# From -- ./inp_files/8634.got.cif
#   From: 2010.05.17/outbox.cif.g08.bks.cpg/sg63_5_cif.got.tgz:8634.got - 2010.06.03 15:47:04.
