data_PCOD9472131
_publ_section_title
;
Structure prediction by ZEFSAII (Michael W. Deem and Ramdas Pophale) SiO2 
 PCOD9472131
Probable space group: C M C M
;
_chemical_formula_sum "Si O2"
_cell_formula_units_Z 84
_cell_length_a 12.434153
_cell_length_b 17.710238
_cell_length_c 19.966541
_cell_angle_alpha 90.000000
_cell_angle_beta 90.000000
_cell_angle_gamma 90.000000
_cell_volume 4396.868112
_symmetry_space_group_name_H-M "C M C M"
_symmetry_group_IT_number 63
_symmetry_cell_setting 'orthorhombic'
loop_
_space_group_symop_operation_xyz
x,y,z
-x,-y,1/2+z
x,-y,-z
-x,y,1/2-z
-x,-y,-z
x,y,1/2-z
-x,y,z
x,-y,1/2+z
1/2+x,1/2+y,z
1/2-x,1/2-y,1/2+z
1/2+x,1/2-y,-z
1/2-x,1/2+y,1/2-z
1/2-x,1/2-y,-z
1/2+x,1/2+y,1/2-z
1/2-x,1/2+y,z
1/2+x,1/2-y,1/2+z
loop_
_atom_site_type_symbol
_atom_site_label
_atom_site_fract_x
_atom_site_fract_y
_atom_site_fract_z
Si Si1 0.000000 0.124914 0.619986
Si Si2 0.500000 0.794034 0.830971
Si Si3 0.125554 0.463884 0.250000
Si Si4 0.126560 0.543733 0.894411
Si Si5 0.715525 0.128144 0.115641
Si Si6 0.500000 0.482727 0.250000
Si Si7 0.798594 0.093167 0.250000
Si Si8 0.688754 0.411739 0.483501
O O1 0.000000 0.064873 0.681002
O O2 0.897756 0.115625 0.570625
O O3 0.000000 0.205097 0.656346
O O4 0.500000 0.810692 0.750000
O O5 0.606837 0.826401 0.867527
O O6 0.147089 0.423395 0.180045
O O7 0.192600 0.540391 0.250000
O O8 0.000000 0.484380 0.250000
O O9 0.173420 0.458644 0.892353
O O10 0.194597 0.586848 0.948822
O O11 0.000000 0.542097 0.907784
O O12 0.789884 0.137532 0.181089
O O13 0.790892 0.137043 0.050351
O O14 0.396577 0.536004 0.250000
O O15 0.660458 0.500000 0.500000
#
# Coordination Sequence:
#
# PCOD9472131 Si02
#       8
#     8   8   8  16  16   4   8  16
#     4  12  25  42  57  86 129 167 205 235 295 372
#     4  12  24  41  64  87 119 158 208 257 286 353
#     4   8  14  24  43  74 113 149 173 228 298 356
#     4   9  16  28  52  89 116 143 189 254 316 350
#     4  10  20  35  60  89 116 152 199 256 303 348
#     4  12  22  38  60  88 124 168 204 240 304 364
#     4  10  20  33  58  89 118 147 197 248 298 352
#     4  10  22  36  59  89 122 158 194 254 310 358
#
# _framework density 19.104509
#
# number of rings (size 3 to 8) (size 9 to 14) (size 15 to 20)
#    0.000    1.905    2.381    3.714    2.667    2.667 
#    0.000    0.000    0.000    0.000    0.000    0.000 
#    2.857    0.000    0.000    0.000    0.000    0.000 
#
# Total GULP energy -234019.128907 kJ/mol
# GULP energy per Si atom -5571.884022 kJ/mol
# Density = 1.906103 g / cm^3
# Si number density = 19.104509 Si / 1000 Ang^3
#
#
#
# Elastic Constant Matrix: (Units=GPa)
#
#
# Indices 1 2 3 4 5 6 
#
# 1 35.0028 12.9097 42.5994 0.0000 0.0000 0.0000
# 2 12.9097 27.6658 8.7008 0.0000 0.0000 0.0000
# 3 42.5994 8.7008 118.1848 0.0000 0.0000 0.0000
# 4 0.0000 0.0000 0.0000 15.7716 0.0000 0.0000
# 5 0.0000 0.0000 0.0000 0.0000 27.3867 0.0000
# 6 0.0000 0.0000 0.0000 0.0000 0.0000 3.5285
#
#
#
# Elastic Compliance Matrix: (Units=1/GPa)
#
#
# Indices 1 2 3 4 5 6 
#
# 1 0.062060 -0.022444 -0.020717 0.000000 0.000000 0.000000
# 2 -0.022444 0.045119 0.004768 0.000000 0.000000 0.000000
# 3 -0.020717 0.004768 0.015578 0.000000 0.000000 0.000000
# 4 0.000000 0.000000 0.000000 0.063405 0.000000 0.000000
# 5 0.000000 0.000000 0.000000 0.000000 0.036514 0.000000
# 6 0.000000 0.000000 0.000000 0.000000 0.000000 0.283410
#
#
# Mechanical properties :
#
#
# Convention : Reuss Voigt Hill
#
# Bulk Modulus (GPa) = 21.75259 34.36370 28.05815
# Shear Modulus (GPa) = 8.35848 17.11359 12.73603
#
# Velocity S-wave (km/s) = 2.09395 2.99622 2.58476
# Velocity P-wave (km/s) = 4.15415 5.47686 4.86071
#
# Compressibility (1/GPa) = 0.04597153
#
# Stress axis : x y z
#
# Youngs Moduli (GPa) = 16.11338 22.16360 64.19414
#
# Poissons Ratio (x) = 0.49743 1.32992
# Poissons Ratio (y) = 0.36164 -0.30608
# Poissons Ratio (z) = 0.33382 -0.10568
#
# Static dielectric constant tensor:
#      x y z
#    x 1.649650 0.000000 0.000000 
#    y 0.000000 1.630240 0.000000 
#    z 0.000000 0.000000 1.800810 
# 
# From -- ./inp_files/52524.got.cif
#   From: 2010.05.17/outbox.cif.g08.bks.cpg/sg63_27_cif.got.tgz:52524.got - 2010.06.03 15:47:04.
