data_PCOD9472321
_publ_section_title
;
Structure prediction by ZEFSAII (Michael W. Deem and Ramdas Pophale) SiO2 
 PCOD9472321
Probable space group: C M C M
;
_chemical_formula_sum "Si O2"
_cell_formula_units_Z 112
_cell_length_a 15.878035
_cell_length_b 21.200887
_cell_length_c 14.067086
_cell_angle_alpha 90.000000
_cell_angle_beta 90.000000
_cell_angle_gamma 90.000000
_cell_volume 4735.381016
_symmetry_space_group_name_H-M "C M C M"
_symmetry_group_IT_number 63
_symmetry_cell_setting 'orthorhombic'
loop_
_space_group_symop_operation_xyz
x,y,z
-x,-y,1/2+z
x,-y,-z
-x,y,1/2-z
-x,-y,-z
x,y,1/2-z
-x,y,z
x,-y,1/2+z
1/2+x,1/2+y,z
1/2-x,1/2-y,1/2+z
1/2+x,1/2-y,-z
1/2-x,1/2+y,1/2-z
1/2-x,1/2-y,-z
1/2+x,1/2+y,1/2-z
1/2-x,1/2+y,z
1/2+x,1/2-y,1/2+z
loop_
_atom_site_type_symbol
_atom_site_label
_atom_site_fract_x
_atom_site_fract_y
_atom_site_fract_z
Si Si1 0.902689 0.635732 0.865676
Si Si2 0.717381 0.980461 0.134736
Si Si3 0.593615 0.088247 0.134502
Si Si4 0.125791 0.269188 0.859602
Si Si5 0.589198 0.343533 0.005210
Si Si6 0.093286 0.034498 0.636569
Si Si7 0.675596 0.729751 0.358287
O O1 0.903983 0.633656 0.750000
O O2 0.831585 0.584187 0.894734
O O3 0.873318 0.706912 0.889563
O O4 0.000000 0.623298 0.896336
O O5 0.714077 0.978436 0.250000
O O6 0.815566 0.994572 0.113100
O O7 0.662136 0.039009 0.100886
O O8 0.598668 0.089521 0.250000
O O9 0.500000 0.066725 0.109285
O O10 0.607360 0.160284 0.104946
O O11 0.097294 0.264532 0.750000
O O12 0.088364 0.215989 0.924975
O O13 0.225601 0.257255 0.860043
O O14 0.500000 0.347304 0.952820
O O15 0.596920 0.403032 0.072909
O O16 0.658350 0.328542 0.927170
O O17 0.094660 0.048456 0.750000
O O18 0.000000 0.004482 0.618251
O O19 0.650877 0.715088 0.250000
#
# Coordination Sequence:
#
# PCOD9472321 Si02
#       7
#    16  16  16  16  16  16  16
#     4   9  16  27  46  72 101 133 172 221 273 322
#     4   9  16  28  49  77 108 143 182 224 272 324
#     4   9  17  30  51  81 115 149 185 225 272 332
#     4  10  20  34  53  80 116 153 187 225 274 338
#     4  11  21  33  54  81 110 145 183 228 285 342
#     4   9  18  32  52  81 113 143 182 233 283 332
#     4  10  21  36  54  77 107 145 189 234 281 336
#
# _framework density 23.651738999999999
#
# number of rings (size 3 to 8) (size 9 to 14) (size 15 to 20)
#    0.000    2.429    0.000    3.000    0.000    6.286 
#    0.000    0.000    0.000    5.143    0.000   18.000 
#    0.000    0.000    0.000    0.000    0.000    0.286 
#
# Total GULP energy -312918.939654 kJ/mol
# GULP energy per Si atom -5587.838208 kJ/mol
# Density = 2.359791 g / cm^3
# Si number density = 23.651739 Si / 1000 Ang^3
#
#
#
# Elastic Constant Matrix: (Units=GPa)
#
#
# Indices 1 2 3 4 5 6 
#
# 1 167.5566 37.8612 21.6500 0.0000 0.0000 0.0000
# 2 37.8612 53.7127 8.8460 0.0000 0.0000 0.0000
# 3 21.6500 8.8460 85.5144 0.0000 0.0000 0.0000
# 4 0.0000 0.0000 0.0000 23.1955 0.0000 0.0000
# 5 0.0000 0.0000 0.0000 0.0000 40.6813 0.0000
# 6 0.0000 0.0000 0.0000 0.0000 0.0000 56.1752
#
#
#
# Elastic Compliance Matrix: (Units=1/GPa)
#
#
# Indices 1 2 3 4 5 6 
#
# 1 0.007244 -0.004888 -0.001328 0.000000 0.000000 0.000000
# 2 -0.004888 0.022238 -0.001063 0.000000 0.000000 0.000000
# 3 -0.001328 -0.001063 0.012140 0.000000 0.000000 0.000000
# 4 0.000000 0.000000 0.000000 0.043112 0.000000 0.000000
# 5 0.000000 0.000000 0.000000 0.000000 0.024581 0.000000
# 6 0.000000 0.000000 0.000000 0.000000 0.000000 0.017801
#
#
# Mechanical properties :
#
#
# Convention : Reuss Voigt Hill
#
# Bulk Modulus (GPa) = 36.94910 49.27759 43.11335
# Shear Modulus (GPa) = 33.17937 39.90550 36.54244
#
# Velocity S-wave (km/s) = 3.74950 4.11202 3.93494
# Velocity P-wave (km/s) = 5.86524 6.58976 6.23803
#
# Compressibility (1/GPa) = 0.02706426
#
# Stress axis : x y z
#
# Youngs Moduli (GPa) = 138.04204 44.96850 82.37078
#
# Poissons Ratio (x) = 0.21978 0.10943
# Poissons Ratio (y) = 0.67468 0.08756
# Poissons Ratio (z) = 0.18338 0.04780
#
# Static dielectric constant tensor:
#      x y z
#    x 2.060560 0.000000 0.000000 
#    y 0.000000 1.845660 0.000000 
#    z 0.000000 0.000000 1.904710 
# 
# From -- ./inp_files/32330.got.cif
#   From: 2010.05.17/outbox.cif.g08.bks.cpg/sg63_17_cif.got.tgz:32330.got - 2010.06.03 15:47:04.
