data_PCOD9472313
_publ_section_title
;
Structure prediction by ZEFSAII (Michael W. Deem and Ramdas Pophale) SiO2 
 PCOD9472313
Probable space group: C M C M
;
_chemical_formula_sum "Si O2"
_cell_formula_units_Z 92
_cell_length_a 22.514457
_cell_length_b 28.010049
_cell_length_c 8.969643
_cell_angle_alpha 90.000000
_cell_angle_beta 90.000000
_cell_angle_gamma 90.000000
_cell_volume 5656.535327
_symmetry_space_group_name_H-M "C M C M"
_symmetry_group_IT_number 63
_symmetry_cell_setting 'orthorhombic'
loop_
_space_group_symop_operation_xyz
x,y,z
-x,-y,1/2+z
x,-y,-z
-x,y,1/2-z
-x,-y,-z
x,y,1/2-z
-x,y,z
x,-y,1/2+z
1/2+x,1/2+y,z
1/2-x,1/2-y,1/2+z
1/2+x,1/2-y,-z
1/2-x,1/2+y,1/2-z
1/2-x,1/2-y,-z
1/2+x,1/2+y,1/2-z
1/2-x,1/2+y,z
1/2+x,1/2-y,1/2+z
loop_
_atom_site_type_symbol
_atom_site_label
_atom_site_fract_x
_atom_site_fract_y
_atom_site_fract_z
Si Si1 0.677934 0.693328 0.424915
Si Si2 0.623030 0.783973 0.914192
Si Si3 0.736575 0.451139 0.428460
Si Si4 0.000000 0.715905 0.250000
Si Si5 0.500000 0.552654 0.928804
Si Si6 0.706475 0.150073 0.927321
Si Si7 0.619072 0.409691 0.573964
O O1 0.689123 0.700778 0.250000
O O2 0.644430 0.738212 0.494167
O O3 0.739347 0.681865 0.508861
O O4 0.638071 0.645567 0.441136
O O5 0.652528 0.781973 0.750000
O O6 0.553331 0.783819 0.877742
O O7 0.647015 0.830711 0.996994
O O8 0.759496 0.500000 0.500000
O O9 0.730618 0.455472 0.250000
O O10 0.777099 0.404882 0.461267
O O11 0.672631 0.439805 0.501640
O O12 0.500000 0.550134 0.750000
O O13 0.500000 0.500000 0.000000
O O14 0.441435 0.579014 0.988911
O O15 0.703874 0.155465 0.750000
O O16 0.613518 0.420882 0.750000
#
# Coordination Sequence:
#
# PCOD9472313 Si02
#       7
#    16  16  16   4   8  16  16
#     4  10  20  34  55  82 110 145 181 229 278 321
#     4  10  20  37  55  77 110 143 185 218 266 321
#     4  10  20  34  53  79 112 139 172 220 281 329
#     4   8  24  38  54  76 108 150 182 212 264 326
#     4  12  24  37  52  68  93 139 194 237 278 317
#     4  10  20  34  56  85 112 143 182 225 274 326
#     4  10  21  36  51  72 103 141 187 229 273 322
#
# _framework density 16.264372000000002
#
# number of rings (size 3 to 8) (size 9 to 14) (size 15 to 20)
#    0.522    1.391    0.000    4.435    0.000    4.870 
#    1.565    2.609    0.000    0.000    0.000    0.609 
#    0.000    0.000    0.000    0.000    0.000    0.000 
#
# Total GULP energy -256133.208278 kJ/mol
# GULP energy per Si atom -5568.113223 kJ/mol
# Density = 1.622735 g / cm^3
# Si number density = 16.264372 Si / 1000 Ang^3
#
#
#
# Elastic Constant Matrix: (Units=GPa)
#
#
# Indices 1 2 3 4 5 6 
#
# 1 79.2787 48.0802 35.4818 0.0000 0.0000 0.0000
# 2 48.0802 85.1333 54.2081 0.0000 0.0000 0.0000
# 3 35.4818 54.2081 97.9900 0.0000 0.0000 0.0000
# 4 0.0000 0.0000 0.0000 25.8666 0.0000 0.0000
# 5 0.0000 0.0000 0.0000 0.0000 35.1841 0.0000
# 6 0.0000 0.0000 0.0000 0.0000 0.0000 6.1401
#
#
#
# Elastic Compliance Matrix: (Units=1/GPa)
#
#
# Indices 1 2 3 4 5 6 
#
# 1 0.019323 -0.009970 -0.001482 0.000000 0.000000 0.000000
# 2 -0.009970 0.023278 -0.009267 0.000000 0.000000 0.000000
# 3 -0.001482 -0.009267 0.015868 0.000000 0.000000 0.000000
# 4 0.000000 0.000000 0.000000 0.038660 0.000000 0.000000
# 5 0.000000 0.000000 0.000000 0.000000 0.028422 0.000000
# 6 0.000000 0.000000 0.000000 0.000000 0.000000 0.162863
#
#
# Mechanical properties :
#
#
# Convention : Reuss Voigt Hill
#
# Bulk Modulus (GPa) = 58.71280 59.77135 59.24208
# Shear Modulus (GPa) = 14.90188 21.74697 18.32443
#
# Velocity S-wave (km/s) = 3.03021 3.66059 3.36022
# Velocity P-wave (km/s) = 6.95847 7.39569 7.18041
#
# Compressibility (1/GPa) = 0.01703206
#
# Stress axis : x y z
#
# Youngs Moduli (GPa) = 51.75163 42.95987 63.01891
#
# Poissons Ratio (x) = 0.42829 0.09337
# Poissons Ratio (y) = 0.51594 0.58401
# Poissons Ratio (z) = 0.07668 0.39812
#
# Static dielectric constant tensor:
#      x y z
#    x 1.519860 0.000000 0.000000 
#    y 0.000000 1.561550 0.000000 
#    z 0.000000 0.000000 1.547160 
# 
# From -- ./inp_files/8697.got.cif
#   From: 2010.05.17/outbox.cif.g08.bks.cpg/sg63_5_cif.got.tgz:8697.got - 2010.06.03 15:47:04.
