data_PCOD9472093
_publ_section_title
;
Structure prediction by ZEFSAII (Michael W. Deem and Ramdas Pophale) SiO2 
 PCOD9472093
Probable space group: C M C M
;
_chemical_formula_sum "Si O2"
_cell_formula_units_Z 80
_cell_length_a 7.815583
_cell_length_b 23.873069
_cell_length_c 24.943619
_cell_angle_alpha 90.000000
_cell_angle_beta 90.000000
_cell_angle_gamma 90.000000
_cell_volume 4654.029129
_symmetry_space_group_name_H-M "C M C M"
_symmetry_group_IT_number 63
_symmetry_cell_setting 'orthorhombic'
loop_
_space_group_symop_operation_xyz
x,y,z
-x,-y,1/2+z
x,-y,-z
-x,y,1/2-z
-x,-y,-z
x,y,1/2-z
-x,y,z
x,-y,1/2+z
1/2+x,1/2+y,z
1/2-x,1/2-y,1/2+z
1/2+x,1/2-y,-z
1/2-x,1/2+y,1/2-z
1/2-x,1/2-y,-z
1/2+x,1/2+y,1/2-z
1/2-x,1/2+y,z
1/2+x,1/2-y,1/2+z
loop_
_atom_site_type_symbol
_atom_site_label
_atom_site_fract_x
_atom_site_fract_y
_atom_site_fract_z
Si Si1 0.000000 0.134503 0.185729
Si Si2 0.795233 0.815176 0.508680
Si Si3 0.000000 0.005773 0.314938
Si Si4 0.802731 0.695624 0.125385
Si Si5 0.306146 0.075238 0.813199
Si Si6 0.206397 0.827029 0.391121
O O1 0.832222 0.165124 0.163017
O O2 0.000000 0.136137 0.250000
O O3 0.000000 0.069800 0.166962
O O4 0.750000 0.750000 0.500000
O O5 0.712782 0.830113 0.565365
O O6 0.740413 0.842147 0.452172
O O7 0.000000 0.820901 0.513880
O O8 0.167170 0.970535 0.330918
O O9 0.000000 0.007602 0.250000
O O10 0.754348 0.761690 0.120359
O O11 0.000000 0.692034 0.143147
O O12 0.276263 0.087484 0.750000
O O13 0.500000 0.054357 0.818631
O O14 0.282901 0.131097 0.847918
O O15 0.000000 0.831411 0.389076
#
# Coordination Sequence:
#
# PCOD9472093 Si02
#       6
#     8  16   8  16  16  16
#     4  11  24  40  59  79 109 153 186 223 275 331
#     4   9  16  29  51  79 110 146 184 222 263 325
#     4   9  20  40  57  73 103 143 191 232 269 320
#     4  10  21  36  54  82 115 147 184 223 272 327
#     4  10  20  33  54  81 106 139 182 229 277 328
#     4   9  18  31  53  84 115 144 176 220 279 324
#
# _framework density 17.189406999999999
#
# number of rings (size 3 to 8) (size 9 to 14) (size 15 to 20)
#    0.000    2.400    2.000    1.800    1.400    3.600 
#    0.000    4.000    0.000    2.400    0.000    2.800 
#    0.000    0.000    0.000    0.000    0.000    0.000 
#
# Total GULP energy -222914.372989 kJ/mol
# GULP energy per Si atom -5572.859325 kJ/mol
# Density = 1.715028 g / cm^3
# Si number density = 17.189407 Si / 1000 Ang^3
#
#
#
# Elastic Constant Matrix: (Units=GPa)
#
#
# Indices 1 2 3 4 5 6 
#
# 1 98.9700 57.9311 47.1108 0.0000 0.0000 0.0000
# 2 57.9311 79.5234 42.6645 0.0000 0.0000 0.0000
# 3 47.1108 42.6645 85.3201 0.0000 0.0000 0.0000
# 4 0.0000 0.0000 0.0000 -8.2115 0.0000 0.0000
# 5 0.0000 0.0000 0.0000 0.0000 23.5200 0.0000
# 6 0.0000 0.0000 0.0000 0.0000 0.0000 15.2099
#
#
#
# Elastic Compliance Matrix: (Units=1/GPa)
#
#
# Indices 1 2 3 4 5 6 
#
# 1 0.018993 -0.011219 -0.004877 0.000000 0.000000 0.000000
# 2 -0.011219 0.023813 -0.005713 0.000000 0.000000 0.000000
# 3 -0.004877 -0.005713 0.017270 0.000000 0.000000 0.000000
# 4 0.000000 0.000000 0.000000 -0.121781 0.000000 0.000000
# 5 0.000000 0.000000 0.000000 0.000000 0.042517 0.000000
# 6 0.000000 0.000000 0.000000 0.000000 0.000000 0.065747
#
#
# Mechanical properties :
#
#
# Convention : Reuss Voigt Hill
#
# Bulk Modulus (GPa) = 60.76162 62.13626 61.44894
# Shear Modulus (GPa) = 52.26735 13.84416 33.05575
#
# Velocity S-wave (km/s) = 5.52021 2.84102 4.38999
# Velocity P-wave (km/s) = 8.72097 6.85480 7.84358
#
# Compressibility (1/GPa) = 0.01645776
#
# Stress axis : x y z
#
# Youngs Moduli (GPa) = 52.65221 41.99424 57.90364
#
# Poissons Ratio (x) = 0.47114 0.28239
# Poissons Ratio (y) = 0.59072 0.33079
# Poissons Ratio (z) = 0.25678 0.23990
#
# Static dielectric constant tensor:
#      x y z
#    x 1.612320 0.000000 0.000000 
#    y 0.000000 1.546300 0.000000 
#    z 0.000000 0.000000 1.602810 
# 
# From -- ./inp_files/59486.got.cif
#   From: 2010.05.17/outbox.cif.g08.bks.cpg/sg63_30_cif.got.tgz:59486.got - 2010.06.03 15:47:04.
