data_PCOD9472436
_publ_section_title
;
Structure prediction by ZEFSAII (Michael W. Deem and Ramdas Pophale) SiO2 
 PCOD9472436
Probable space group: C M C M
;
_chemical_formula_sum "Si O2"
_cell_formula_units_Z 96
_cell_length_a 29.245453
_cell_length_b 10.568429
_cell_length_c 15.677923
_cell_angle_alpha 90.000000
_cell_angle_beta 90.000000
_cell_angle_gamma 90.000000
_cell_volume 4845.708824
_symmetry_space_group_name_H-M "C M C M"
_symmetry_group_IT_number 63
_symmetry_cell_setting 'orthorhombic'
loop_
_space_group_symop_operation_xyz
x,y,z
-x,-y,1/2+z
x,-y,-z
-x,y,1/2-z
-x,-y,-z
x,y,1/2-z
-x,y,z
x,-y,1/2+z
1/2+x,1/2+y,z
1/2-x,1/2-y,1/2+z
1/2+x,1/2-y,-z
1/2-x,1/2+y,1/2-z
1/2-x,1/2-y,-z
1/2+x,1/2+y,1/2-z
1/2-x,1/2+y,z
1/2+x,1/2-y,1/2+z
loop_
_atom_site_type_symbol
_atom_site_label
_atom_site_fract_x
_atom_site_fract_y
_atom_site_fract_z
Si Si1 0.051136 0.630656 0.645953
Si Si2 0.144546 0.486317 0.150812
Si Si3 0.799746 0.765019 0.611596
Si Si4 0.352726 0.486998 0.101407
Si Si5 0.695485 0.766718 0.593200
Si Si6 0.550579 0.575655 0.352807
O O1 0.052157 0.629647 0.750000
O O2 0.094231 0.549415 0.616231
O O3 0.057309 0.777675 0.620301
O O4 0.000000 0.589689 0.620145
O O5 0.139731 0.520579 0.250000
O O6 0.175605 0.360660 0.144778
O O7 0.168580 0.603344 0.105798
O O8 0.746187 0.774365 0.632561
O O9 0.800948 0.754747 0.508528
O O10 0.827324 0.890055 0.639535
O O11 0.330903 0.355060 0.129639
O O12 0.406574 0.494938 0.117869
O O13 0.345837 0.500000 0.000000
O O14 0.550465 0.575397 0.250000
O O15 0.500000 0.534293 0.381585
#
# Coordination Sequence:
#
# PCOD9472436 Si02
#       6
#    16  16  16  16  16  16
#     4   8  15  30  53  78 103 138 180 214 257 324
#     4  11  21  34  56  85 110 138 177 227 275 310
#     4  10  20  39  59  74 103 153 190 209 255 332
#     4  10  20  34  55  82 106 139 184 227 267 307
#     4  10  22  37  55  79 110 143 180 223 270 322
#     4   9  17  32  55  78 103 142 185 219 261 327
#
# _framework density 19.811343000000001
#
# number of rings (size 3 to 8) (size 9 to 14) (size 15 to 20)
#    0.000    2.333    1.667    2.500    0.000    4.333 
#    0.000    2.500    0.000    5.000    0.000    0.000 
#    0.000    0.000    0.000    0.000    0.000    0.000 
#
# Total GULP energy -267893.484606 kJ/mol
# GULP energy per Si atom -5581.114263 kJ/mol
# Density = 1.976625 g / cm^3
# Si number density = 19.811343 Si / 1000 Ang^3
#
#
#
# Elastic Constant Matrix: (Units=GPa)
#
#
# Indices 1 2 3 4 5 6 
#
# 1 181.3346 81.6108 1.9729 0.0000 0.0000 0.0000
# 2 81.6108 125.3910 0.9567 0.0000 0.0000 0.0000
# 3 1.9729 0.9567 16.6944 0.0000 0.0000 0.0000
# 4 0.0000 0.0000 0.0000 -4.9143 0.0000 0.0000
# 5 0.0000 0.0000 0.0000 0.0000 16.7941 0.0000
# 6 0.0000 0.0000 0.0000 0.0000 0.0000 16.4370
#
#
#
# Elastic Compliance Matrix: (Units=1/GPa)
#
#
# Indices 1 2 3 4 5 6 
#
# 1 0.007806 -0.005076 -0.000632 0.000000 0.000000 0.000000
# 2 -0.005076 0.011279 -0.000047 0.000000 0.000000 0.000000
# 3 -0.000632 -0.000047 0.059978 0.000000 0.000000 0.000000
# 4 0.000000 0.000000 0.000000 -0.203486 0.000000 0.000000
# 5 0.000000 0.000000 0.000000 0.000000 0.059545 0.000000
# 6 0.000000 0.000000 0.000000 0.000000 0.000000 0.060838
#
#
# Mechanical properties :
#
#
# Convention : Reuss Voigt Hill
#
# Bulk Modulus (GPa) = 14.80279 54.72231 34.76255
# Shear Modulus (GPa) = 166.75085 21.58866 94.16976
#
# Velocity S-wave (km/s) = 9.18434 3.30466 6.90192
# Velocity P-wave (km/s) = 10.95251 6.49944 9.00556
#
# Compressibility (1/GPa) = 0.06755484
#
# Stress axis : x y z
#
# Youngs Moduli (GPa) = 128.10880 88.66117 16.67289
#
# Poissons Ratio (x) = 0.45001 0.01053
# Poissons Ratio (y) = 0.65023 0.00078
# Poissons Ratio (z) = 0.08091 0.00413
#
# Static dielectric constant tensor:
#      x y z
#    x 1.706610 0.000000 0.000000 
#    y 0.000000 1.664920 0.000000 
#    z 0.000000 0.000000 1.723400 
# 
# From -- ./inp_files/57508.got.cif
#   From: 2010.05.17/outbox.cif.g08.bks.cpg/sg63_29_cif.got.tgz:57508.got - 2010.06.03 15:47:04.
