data_PCOD9472154
_publ_section_title
;
Structure prediction by ZEFSAII (Michael W. Deem and Ramdas Pophale) SiO2 
 PCOD9472154
Probable space group: C M C M
;
_chemical_formula_sum "Si O2"
_cell_formula_units_Z 72
_cell_length_a 29.968092
_cell_length_b 15.591988
_cell_length_c 8.768084
_cell_angle_alpha 90.000000
_cell_angle_beta 90.000000
_cell_angle_gamma 90.000000
_cell_volume 4096.993613
_symmetry_space_group_name_H-M "C M C M"
_symmetry_group_IT_number 63
_symmetry_cell_setting 'orthorhombic'
loop_
_space_group_symop_operation_xyz
x,y,z
-x,-y,1/2+z
x,-y,-z
-x,y,1/2-z
-x,-y,-z
x,y,1/2-z
-x,y,z
x,-y,1/2+z
1/2+x,1/2+y,z
1/2-x,1/2-y,1/2+z
1/2+x,1/2-y,-z
1/2-x,1/2+y,1/2-z
1/2-x,1/2-y,-z
1/2+x,1/2+y,1/2-z
1/2-x,1/2+y,z
1/2+x,1/2-y,1/2+z
loop_
_atom_site_type_symbol
_atom_site_label
_atom_site_fract_x
_atom_site_fract_y
_atom_site_fract_z
Si Si1 0.548731 0.756671 0.932663
Si Si2 0.858112 0.731439 0.932901
Si Si3 0.000000 0.093477 0.932006
Si Si4 0.185585 0.091841 0.066160
Si Si5 0.215487 0.592021 0.565786
O O1 0.552343 0.761891 0.750000
O O2 0.500000 0.795252 0.975444
O O3 0.541527 0.655613 0.974417
O O4 0.593128 0.791772 0.006415
O O5 0.859256 0.730741 0.750000
O O6 0.844545 0.827612 0.981294
O O7 0.819608 0.665094 0.979722
O O8 0.000000 0.086036 0.750000
O O9 0.000000 0.000000 0.000000
O O10 0.187092 0.087117 0.250000
O O11 0.235512 0.108256 0.003213
O O12 0.170893 0.000000 0.000000
O O13 0.200990 0.500000 0.500000
O O14 0.218587 0.588506 0.750000
#
# Coordination Sequence:
#
# PCOD9472154 Si02
#       5
#    16  16   8  16  16
#     4   8  18  34  49  70  98 129 167 207 249 296
#     4  10  21  34  52  77 103 134 172 211 254 304
#     4   8  16  30  46  68  95 126 163 202 243 292
#     4  10  20  34  50  74 106 138 171 207 250 300
#     4  10  20  35  53  76 103 132 170 212 256 306
#
# _framework density 17.573861999999998
#
# number of rings (size 3 to 8) (size 9 to 14) (size 15 to 20)
#    0.667    2.000    0.000    3.333    0.000    5.778 
#    0.000    4.444    0.000    0.667    0.000    0.000 
#    0.000    0.000    0.000    0.000    0.000    0.000 
#
# Total GULP energy -200446.556507 kJ/mol
# GULP energy per Si atom -5567.959903 kJ/mol
# Density = 1.753386 g / cm^3
# Si number density = 17.573862 Si / 1000 Ang^3
#
#
#
# Elastic Constant Matrix: (Units=GPa)
#
#
# Indices 1 2 3 4 5 6 
#
# 1 76.5618 39.6272 14.8069 0.0000 0.0000 0.0000
# 2 39.6272 46.2698 15.0618 0.0000 0.0000 0.0000
# 3 14.8069 15.0618 28.7811 0.0000 0.0000 0.0000
# 4 0.0000 0.0000 0.0000 23.7502 0.0000 0.0000
# 5 0.0000 0.0000 0.0000 0.0000 28.4440 0.0000
# 6 0.0000 0.0000 0.0000 0.0000 0.0000 8.5092
#
#
#
# Elastic Compliance Matrix: (Units=1/GPa)
#
#
# Indices 1 2 3 4 5 6 
#
# 1 0.023545 -0.019553 -0.001881 0.000000 0.000000 0.000000
# 2 -0.019553 0.042288 -0.012071 0.000000 0.000000 0.000000
# 3 -0.001881 -0.012071 0.042030 0.000000 0.000000 0.000000
# 4 0.000000 0.000000 0.000000 0.042105 0.000000 0.000000
# 5 0.000000 0.000000 0.000000 0.000000 0.035157 0.000000
# 6 0.000000 0.000000 0.000000 0.000000 0.000000 0.117520
#
#
# Mechanical properties :
#
#
# Convention : Reuss Voigt Hill
#
# Bulk Modulus (GPa) = 24.47771 32.28941 28.38356
# Shear Modulus (GPa) = 13.04560 17.61512 15.33036
#
# Velocity S-wave (km/s) = 2.72753 3.16942 2.95674
# Velocity P-wave (km/s) = 4.88650 5.63978 5.27660
#
# Compressibility (1/GPa) = 0.04085349
#
# Stress axis : x y z
#
# Youngs Moduli (GPa) = 42.47112 23.64764 23.79280
#
# Poissons Ratio (x) = 0.46238 0.04475
# Poissons Ratio (y) = 0.83044 0.28720
# Poissons Ratio (z) = 0.07988 0.28544
#
# Static dielectric constant tensor:
#      x y z
#    x 1.606410 0.000000 0.000000 
#    y 0.000000 1.607980 0.000000 
#    z 0.000000 0.000000 1.596090 
# 
# From -- ./inp_files/13919.got.cif
#   From: 2010.05.17/outbox.cif.g08.bks.cpg/sg63_7_cif.got.tgz:13919.got - 2010.06.03 15:47:04.
