data_PCOD9472116
_publ_section_title
;
Structure prediction by ZEFSAII (Michael W. Deem and Ramdas Pophale) SiO2 
 PCOD9472116
Probable space group: C M C M
;
_chemical_formula_sum "Si O2"
_cell_formula_units_Z 96
_cell_length_a 14.714267
_cell_length_b 22.256758
_cell_length_c 14.590798
_cell_angle_alpha 90.000000
_cell_angle_beta 90.000000
_cell_angle_gamma 90.000000
_cell_volume 4778.367864
_symmetry_space_group_name_H-M "C M C M"
_symmetry_group_IT_number 63
_symmetry_cell_setting 'orthorhombic'
loop_
_space_group_symop_operation_xyz
x,y,z
-x,-y,1/2+z
x,-y,-z
-x,y,1/2-z
-x,-y,-z
x,y,1/2-z
-x,y,z
x,-y,1/2+z
1/2+x,1/2+y,z
1/2-x,1/2-y,1/2+z
1/2+x,1/2-y,-z
1/2-x,1/2+y,1/2-z
1/2-x,1/2-y,-z
1/2+x,1/2+y,1/2-z
1/2-x,1/2+y,z
1/2+x,1/2-y,1/2+z
loop_
_atom_site_type_symbol
_atom_site_label
_atom_site_fract_x
_atom_site_fract_y
_atom_site_fract_z
Si Si1 0.104697 0.578361 0.750000
Si Si2 0.108889 0.776445 0.936830
Si Si3 0.837156 0.714112 0.750000
Si Si4 0.897013 0.113725 0.936589
Si Si5 0.889246 0.660430 0.450477
Si Si6 0.871794 0.186209 0.750000
Si Si7 0.103194 0.672064 0.250000
Si Si8 0.293717 0.943266 0.435940
O O1 0.105512 0.652023 0.750000
O O2 0.157780 0.554058 0.838142
O O3 0.000000 0.559145 0.750000
O O4 0.148216 0.754419 0.840270
O O5 0.000000 0.774111 0.926135
O O6 0.129065 0.841170 0.980026
O O7 0.133769 0.726682 0.012846
O O8 0.736295 0.688698 0.750000
O O9 0.900206 0.152497 0.842612
O O10 0.814323 0.067636 0.926639
O O11 0.000000 0.090585 0.952006
O O12 0.855692 0.652979 0.346420
O O13 0.841000 0.613653 0.515868
O O14 0.000000 0.654541 0.453615
O O15 0.901635 0.255459 0.750000
O O16 0.000000 0.648899 0.250000
O O17 0.311027 0.000000 0.500000
#
# Coordination Sequence:
#
# PCOD9472116 Si02
#       8
#     8  16   8  16  16   8   8  16
#     4  12  24  44  69  94 125 163 206 260 318 375
#     4  10  20  35  59  92 127 162 201 250 314 383
#     4  12  22  34  61  96 131 166 205 249 314 384
#     4  11  23  41  65  94 129 167 210 261 316 369
#     4  10  20  36  60  91 129 164 198 253 318 379
#     4  12  20  33  64  99 127 161 202 255 319 381
#     4  10  20  33  55  95 135 166 198 246 320 392
#     4  12  27  45  64  91 124 166 225 264 304 364
#
# _framework density 20.090541999999999
#
# number of rings (size 3 to 8) (size 9 to 14) (size 15 to 20)
#    0.000    1.000    5.000    2.000    2.333    3.667 
#    0.000    1.667    0.000    0.000    0.000    0.000 
#    0.000    0.000    0.000    0.000    0.000    0.000 
#
# Total GULP energy -268247.497931 kJ/mol
# GULP energy per Si atom -5588.489540 kJ/mol
# Density = 2.004482 g / cm^3
# Si number density = 20.090542 Si / 1000 Ang^3
#
#
#
# Elastic Constant Matrix: (Units=GPa)
#
#
# Indices 1 2 3 4 5 6 
#
# 1 112.9024 30.3628 44.4420 0.0000 0.0000 0.0000
# 2 30.3628 26.0857 13.4936 0.0000 0.0000 0.0000
# 3 44.4420 13.4936 155.6410 0.0000 0.0000 0.0000
# 4 0.0000 0.0000 0.0000 11.5142 0.0000 0.0000
# 5 0.0000 0.0000 0.0000 0.0000 23.8909 0.0000
# 6 0.0000 0.0000 0.0000 0.0000 0.0000 -35.3245
#
#
#
# Elastic Compliance Matrix: (Units=1/GPa)
#
#
# Indices 1 2 3 4 5 6 
#
# 1 0.013888 -0.014776 -0.002684 0.000000 0.000000 0.000000
# 2 -0.014776 0.055856 -0.000623 0.000000 0.000000 0.000000
# 3 -0.002684 -0.000623 0.007246 0.000000 0.000000 0.000000
# 4 0.000000 0.000000 0.000000 0.086849 0.000000 0.000000
# 5 0.000000 0.000000 0.000000 0.000000 0.041857 0.000000
# 6 0.000000 0.000000 0.000000 0.000000 0.000000 -0.028309
#
#
# Mechanical properties :
#
#
# Convention : Reuss Voigt Hill
#
# Bulk Modulus (GPa) = 24.49671 52.35843 38.42757
# Shear Modulus (GPa) = 22.01072 13.77149 17.89110
#
# Velocity S-wave (km/s) = 3.31354 2.62099 2.98740
# Velocity P-wave (km/s) = 5.18257 5.93947 5.57388
#
# Compressibility (1/GPa) = 0.04082181
#
# Stress axis : x y z
#
# Youngs Moduli (GPa) = 72.00664 17.90307 138.01454
#
# Poissons Ratio (x) = 0.26454 0.37049
# Poissons Ratio (y) = 1.06397 0.08604
# Poissons Ratio (z) = 0.19330 0.01116
#
# Static dielectric constant tensor:
#      x y z
#    x 1.742210 0.000000 0.000000 
#    y 0.000000 1.677740 0.000000 
#    z 0.000000 0.000000 1.730930 
# 
# From -- ./inp_files/32003.got.cif
#   From: 2010.05.17/outbox.cif.g08.bks.cpg/sg63_17_cif.got.tgz:32003.got - 2010.06.03 15:47:04.
