data_PCOD9472388
_publ_section_title
;
Structure prediction by ZEFSAII (Michael W. Deem and Ramdas Pophale) SiO2 
 PCOD9472388
Probable space group: C M C M
;
_chemical_formula_sum "Si O2"
_cell_formula_units_Z 112
_cell_length_a 15.496182
_cell_length_b 14.114370
_cell_length_c 24.301694
_cell_angle_alpha 90.000000
_cell_angle_beta 90.000000
_cell_angle_gamma 90.000000
_cell_volume 5315.238476
_symmetry_space_group_name_H-M "C M C M"
_symmetry_group_IT_number 63
_symmetry_cell_setting 'orthorhombic'
loop_
_space_group_symop_operation_xyz
x,y,z
-x,-y,1/2+z
x,-y,-z
-x,y,1/2-z
-x,-y,-z
x,y,1/2-z
-x,y,z
x,-y,1/2+z
1/2+x,1/2+y,z
1/2-x,1/2-y,1/2+z
1/2+x,1/2-y,-z
1/2-x,1/2+y,1/2-z
1/2-x,1/2-y,-z
1/2+x,1/2+y,1/2-z
1/2-x,1/2+y,z
1/2+x,1/2-y,1/2+z
loop_
_atom_site_type_symbol
_atom_site_label
_atom_site_fract_x
_atom_site_fract_y
_atom_site_fract_z
Si Si1 0.899582 0.327685 0.091819
Si Si2 0.146388 0.887411 0.912779
Si Si3 0.208529 0.646562 0.489386
Si Si4 0.094658 0.919687 0.366157
Si Si5 0.222309 0.625282 0.312621
Si Si6 0.283146 0.908243 0.312688
Si Si7 0.402330 0.785706 0.890812
O O1 0.898361 0.214432 0.078336
O O2 0.842904 0.348762 0.146144
O O3 0.000000 0.356941 0.095824
O O4 0.844696 0.379670 0.043575
O O5 0.211910 0.909024 0.962746
O O6 0.201587 0.869843 0.856947
O O7 0.095529 0.982643 0.899606
O O8 0.250000 0.750000 0.500000
O O9 0.141416 0.657497 0.439683
O O10 0.181942 0.914526 0.330052
O O11 0.101365 0.826093 0.403738
O O12 0.000000 0.912504 0.337734
O O13 0.248810 0.643336 0.250000
O O14 0.186986 0.517894 0.315422
O O15 0.150390 0.696125 0.335168
O O16 0.289835 0.874818 0.250000
O O17 0.500000 0.814683 0.883596
#
# Coordination Sequence:
#
# PCOD9472388 Si02
#       7
#    16  16  16  16  16  16  16
#     4  11  22  37  60  88 119 157 198 241 292 350
#     4   9  19  36  58  86 119 152 189 238 294 347
#     4   9  18  36  58  79 111 153 191 233 281 336
#     4  10  20  36  60  89 118 151 193 238 291 355
#     4   9  19  37  59  80 107 148 192 235 287 343
#     4  10  22  40  60  83 114 151 193 243 296 351
#     4  10  20  34  54  81 112 144 183 233 282 333
#
# _framework density 21.071491000000002
#
# number of rings (size 3 to 8) (size 9 to 14) (size 15 to 20)
#    0.000    2.286    0.000    3.429    0.000    3.714 
#    0.000   19.286    0.000   24.000    0.000    0.000 
#    0.000    0.000    0.000    0.000    0.000    0.000 
#
# Total GULP energy -312280.589856 kJ/mol
# GULP energy per Si atom -5576.439105 kJ/mol
# Density = 2.102353 g / cm^3
# Si number density = 21.071491 Si / 1000 Ang^3
#
#
#
# Elastic Constant Matrix: (Units=GPa)
#
#
# Indices 1 2 3 4 5 6 
#
# 1 141.7125 22.7198 52.4744 0.0000 0.0000 0.0000
# 2 22.7198 71.8067 11.1653 0.0000 0.0000 0.0000
# 3 52.4744 11.1653 110.7916 0.0000 0.0000 0.0000
# 4 0.0000 0.0000 0.0000 20.8893 0.0000 0.0000
# 5 0.0000 0.0000 0.0000 0.0000 6.9726 0.0000
# 6 0.0000 0.0000 0.0000 0.0000 0.0000 22.6616
#
#
#
# Elastic Compliance Matrix: (Units=1/GPa)
#
#
# Indices 1 2 3 4 5 6 
#
# 1 0.008884 -0.002191 -0.003987 0.000000 0.000000 0.000000
# 2 -0.002191 0.014688 -0.000443 0.000000 0.000000 0.000000
# 3 -0.003987 -0.000443 0.010959 0.000000 0.000000 0.000000
# 4 0.000000 0.000000 0.000000 0.047871 0.000000 0.000000
# 5 0.000000 0.000000 0.000000 0.000000 0.143419 0.000000
# 6 0.000000 0.000000 0.000000 0.000000 0.000000 0.044127
#
#
# Mechanical properties :
#
#
# Convention : Reuss Voigt Hill
#
# Bulk Modulus (GPa) = 46.96972 55.22552 51.09762
# Shear Modulus (GPa) = 17.22433 25.96813 21.59623
#
# Velocity S-wave (km/s) = 2.86216 3.51434 3.20488
# Velocity P-wave (km/s) = 5.76729 6.53705 6.16420
#
# Compressibility (1/GPa) = 0.02129031
#
# Stress axis : x y z
#
# Youngs Moduli (GPa) = 112.55999 68.08132 91.24982
#
# Poissons Ratio (x) = 0.14917 0.36381
# Poissons Ratio (y) = 0.24662 0.04038
# Poissons Ratio (z) = 0.44878 0.03013
#
# Static dielectric constant tensor:
#      x y z
#    x 1.744790 0.000000 0.000000 
#    y 0.000000 1.843450 0.000000 
#    z 0.000000 0.000000 1.768600 
# 
# From -- ./inp_files/62979.got.cif
#   From: 2010.05.17/outbox.cif.g08.bks.cpg/sg63_32_cif.got.tgz:62979.got - 2010.06.03 15:47:04.
