data_PCOD9472927
_publ_section_title
;
Structure prediction by ZEFSAII (Michael W. Deem and Ramdas Pophale) SiO2 
 PCOD9472927
Probable space group: C M C M
;
_chemical_formula_sum "Si O2"
_cell_formula_units_Z 128
_cell_length_a 24.289802
_cell_length_b 15.988480
_cell_length_c 16.731248
_cell_angle_alpha 90.000000
_cell_angle_beta 90.000000
_cell_angle_gamma 90.000000
_cell_volume 6497.697505
_symmetry_space_group_name_H-M "C M C M"
_symmetry_group_IT_number 63
_symmetry_cell_setting 'orthorhombic'
loop_
_space_group_symop_operation_xyz
x,y,z
-x,-y,1/2+z
x,-y,-z
-x,y,1/2-z
-x,-y,-z
x,y,1/2-z
-x,y,z
x,-y,1/2+z
1/2+x,1/2+y,z
1/2-x,1/2-y,1/2+z
1/2+x,1/2-y,-z
1/2-x,1/2+y,1/2-z
1/2-x,1/2-y,-z
1/2+x,1/2+y,1/2-z
1/2-x,1/2+y,z
1/2+x,1/2-y,1/2+z
loop_
_atom_site_type_symbol
_atom_site_label
_atom_site_fract_x
_atom_site_fract_y
_atom_site_fract_z
Si Si1 0.838287 0.155331 0.380800
Si Si2 0.437550 0.414685 0.961948
Si Si3 0.152357 0.671622 0.585202
Si Si4 0.787603 0.984869 0.336522
Si Si5 0.331961 0.994750 0.596623
Si Si6 0.283882 0.666282 0.943302
Si Si7 0.651402 0.193232 0.155350
Si Si8 0.563240 0.759494 0.544496
O O1 0.898825 0.118164 0.392579
O O2 0.843209 0.250906 0.353131
O O3 0.807095 0.080308 0.339149
O O4 0.808644 0.164917 0.467844
O O5 0.500000 0.429395 0.935547
O O6 0.416170 0.500000 0.000000
O O7 0.437312 0.338914 0.024860
O O8 0.134639 0.579881 0.614874
O O9 0.216845 0.663207 0.555592
O O10 0.106642 0.699789 0.519368
O O11 0.799529 0.948198 0.250000
O O12 0.723463 0.991570 0.354346
O O13 0.806767 0.918261 0.402177
O O14 0.349063 0.901944 0.622037
O O15 0.324473 0.000000 0.500000
O O16 0.305510 0.745889 0.891910
O O17 0.661884 0.194454 0.250000
O O18 0.591357 0.226791 0.129831
O O19 0.500000 0.789699 0.537452
#
# Coordination Sequence:
#
# PCOD9472927 Si02
#       8
#    16  16  16  16  16  16  16  16
#     4  11  19  33  58  85 109 155 196 242 287 354
#     4   9  17  31  54  84 114 150 200 246 280 334
#     4  10  20  35  60  82 110 147 201 247 290 340
#     4  11  23  34  51  86 125 154 187 240 298 361
#     4  11  20  38  57  79 110 154 198 240 292 352
#     4  11  20  36  58  84 119 160 196 235 292 369
#     4  12  24  38  59  89 126 162 193 245 308 366
#     4  10  21  38  59  87 119 155 201 252 301 352
#
# _framework density 19.699286000000001
#
# number of rings (size 3 to 8) (size 9 to 14) (size 15 to 20)
#    0.000    1.375    3.750    4.500    0.000    0.250 
#    0.000    4.375    0.000    0.375    0.000    0.000 
#    0.000   16.000    0.000    0.000    0.000    0.000 
#
# Total GULP energy -356453.229080 kJ/mol
# GULP energy per Si atom -5569.581704 kJ/mol
# Density = 1.965445 g / cm^3
# Si number density = 19.699286 Si / 1000 Ang^3
#
#
#
# Elastic Constant Matrix: (Units=GPa)
#
#
# Indices 1 2 3 4 5 6 
#
# 1 89.7480 19.8751 15.9009 0.0000 0.0000 0.0000
# 2 19.8751 138.3623 27.7297 0.0000 0.0000 0.0000
# 3 15.9009 27.7297 79.0031 0.0000 0.0000 0.0000
# 4 0.0000 0.0000 0.0000 12.4718 0.0000 0.0000
# 5 0.0000 0.0000 0.0000 0.0000 41.1718 0.0000
# 6 0.0000 0.0000 0.0000 0.0000 0.0000 25.1044
#
#
#
# Elastic Compliance Matrix: (Units=1/GPa)
#
#
# Indices 1 2 3 4 5 6 
#
# 1 0.011770 -0.001308 -0.001910 0.000000 0.000000 0.000000
# 2 -0.001308 0.007920 -0.002516 0.000000 0.000000 0.000000
# 3 -0.001910 -0.002516 0.013925 0.000000 0.000000 0.000000
# 4 0.000000 0.000000 0.000000 0.080181 0.000000 0.000000
# 5 0.000000 0.000000 0.000000 0.000000 0.024288 0.000000
# 6 0.000000 0.000000 0.000000 0.000000 0.000000 0.039834
#
#
# Mechanical properties :
#
#
# Convention : Reuss Voigt Hill
#
# Bulk Modulus (GPa) = 45.15365 48.23611 46.69488
# Shear Modulus (GPa) = 25.41048 31.99011 28.70030
#
# Velocity S-wave (km/s) = 3.59544 4.03416 3.82110
# Velocity P-wave (km/s) = 6.34094 6.79990 6.57443
#
# Compressibility (1/GPa) = 0.02214660
#
# Stress axis : x y z
#
# Youngs Moduli (GPa) = 84.95923 126.26861 71.81115
#
# Poissons Ratio (x) = 0.16516 0.13715
# Poissons Ratio (y) = 0.11113 0.18071
# Poissons Ratio (z) = 0.16227 0.31775
#
# Static dielectric constant tensor:
#      x y z
#    x 1.717670 0.000000 0.000000 
#    y 0.000000 1.800210 0.000000 
#    z 0.000000 0.000000 1.741520 
# 
# From -- ./inp_files/48412.got.cif
#   From: 2010.05.17/outbox.cif.g08.bks.cpg/sg63_25_cif.got.tgz:48412.got - 2010.06.03 15:47:04.
