data_PCOD9472022
_publ_section_title
;
Structure prediction by ZEFSAII (Michael W. Deem and Ramdas Pophale) SiO2 
 PCOD9472022
Probable space group: C M C M
;
_chemical_formula_sum "Si O2"
_cell_formula_units_Z 64
_cell_length_a 7.420973
_cell_length_b 37.087236
_cell_length_c 10.165926
_cell_angle_alpha 90.000000
_cell_angle_beta 90.000000
_cell_angle_gamma 90.000000
_cell_volume 2797.900484
_symmetry_space_group_name_H-M "C M C M"
_symmetry_group_IT_number 63
_symmetry_cell_setting 'orthorhombic'
loop_
_space_group_symop_operation_xyz
x,y,z
-x,-y,1/2+z
x,-y,-z
-x,y,1/2-z
-x,-y,-z
x,y,1/2-z
-x,y,z
x,-y,1/2+z
1/2+x,1/2+y,z
1/2-x,1/2-y,1/2+z
1/2+x,1/2-y,-z
1/2-x,1/2+y,1/2-z
1/2-x,1/2-y,-z
1/2+x,1/2+y,1/2-z
1/2-x,1/2+y,z
1/2+x,1/2-y,1/2+z
loop_
_atom_site_type_symbol
_atom_site_label
_atom_site_fract_x
_atom_site_fract_y
_atom_site_fract_z
Si Si1 0.780252 0.032341 0.401495
Si Si2 0.713572 0.589758 0.893296
Si Si3 0.791458 0.311422 0.750000
Si Si4 0.781443 0.272470 0.250000
Si Si5 0.782961 0.671259 0.966710
O O1 0.718440 0.029521 0.250000
O O2 0.719537 0.068271 0.479205
O O3 0.000000 0.032039 0.395012
O O4 0.728568 0.000000 0.500000
O O5 0.786445 0.578138 0.750000
O O6 0.500000 0.582628 0.889397
O O7 0.739586 0.632375 0.908263
O O8 0.785587 0.268123 0.750000
O O9 0.710998 0.325290 0.614137
O O10 0.000000 0.323092 0.750000
O O11 0.721466 0.295755 0.124190
O O12 0.000000 0.270921 0.250000
O O13 0.000000 0.674120 0.969904
#
# Coordination Sequence:
#
# PCOD9472022 Si02
#       5
#    16  16   8   8  16
#     4   9  17  30  50  77 110 143 174 214 263 310
#     4  10  20  33  52  79 107 138 179 222 262 308
#     4  10  22  36  54  78 105 136 175 221 268 317
#     4  10  20  36  56  76 101 138 179 217 264 319
#     4  10  21  37  54  76 107 142 176 214 266 321
#
# _framework density 22.874293000000002
#
# number of rings (size 3 to 8) (size 9 to 14) (size 15 to 20)
#    0.000    2.250    1.250    1.500    1.750    5.000 
#    0.000    0.000    0.000    0.750    0.000    0.000 
#    0.000    0.000    0.000    0.000    0.000    0.000 
#
# Total GULP energy -178787.506010 kJ/mol
# GULP energy per Si atom -5587.109563 kJ/mol
# Density = 2.282223 g / cm^3
# Si number density = 22.874293 Si / 1000 Ang^3
#
#
#
# Elastic Constant Matrix: (Units=GPa)
#
#
# Indices 1 2 3 4 5 6 
#
# 1 74.1279 -16.8402 8.8012 0.0000 0.0000 0.0000
# 2 -16.8402 68.1828 46.5761 0.0000 0.0000 0.0000
# 3 8.8012 46.5761 228.6096 0.0000 0.0000 0.0000
# 4 0.0000 0.0000 0.0000 35.3419 0.0000 0.0000
# 5 0.0000 0.0000 0.0000 0.0000 -3.8990 0.0000
# 6 0.0000 0.0000 0.0000 0.0000 0.0000 -14.3627
#
#
#
# Elastic Compliance Matrix: (Units=1/GPa)
#
#
# Indices 1 2 3 4 5 6 
#
# 1 0.014733 0.004677 -0.001520 0.000000 0.000000 0.000000
# 2 0.004677 0.018523 -0.003954 0.000000 0.000000 0.000000
# 3 -0.001520 -0.003954 0.005238 0.000000 0.000000 0.000000
# 4 0.000000 0.000000 0.000000 0.028295 0.000000 0.000000
# 5 0.000000 0.000000 0.000000 0.000000 -0.256478 0.000000
# 6 0.000000 0.000000 0.000000 0.000000 0.000000 -0.069625
#
#
# Mechanical properties :
#
#
# Convention : Reuss Voigt Hill
#
# Bulk Modulus (GPa) = 27.09958 49.77718 38.43838
# Shear Modulus (GPa) = -20.37323 25.57491 2.60084
#
# Velocity S-wave (km/s) = -2.98763 3.34737 1.06747
# Velocity P-wave (km/s) = 0.16839 6.06204 4.28485
#
# Compressibility (1/GPa) = 0.03690095
#
# Stress axis : x y z
#
# Youngs Moduli (GPa) = 67.87358 53.98819 190.90061
#
# Poissons Ratio (x) = -0.25252 0.29020
# Poissons Ratio (y) = -0.31747 0.75478
# Poissons Ratio (z) = 0.10318 0.21346
#
# Static dielectric constant tensor:
#      x y z
#    x 1.835650 0.000000 0.000000 
#    y 0.000000 1.790140 0.000000 
#    z 0.000000 0.000000 1.872830 
# 
# From -- ./inp_files/3207.got.cif
#   From: 2010.05.17/outbox.cif.g08.bks.cpg/sg63_2_cif.got.tgz:3207.got - 2010.06.03 15:47:04.
