data_PCOD9472722
_publ_section_title
;
Structure prediction by ZEFSAII (Michael W. Deem and Ramdas Pophale) SiO2 
 PCOD9472722
Probable space group: C M C M
;
_chemical_formula_sum "Si O2"
_cell_formula_units_Z 68
_cell_length_a 21.427328
_cell_length_b 21.415423
_cell_length_c 7.637575
_cell_angle_alpha 90.000000
_cell_angle_beta 90.000000
_cell_angle_gamma 90.000000
_cell_volume 3504.694465
_symmetry_space_group_name_H-M "C M C M"
_symmetry_group_IT_number 63
_symmetry_cell_setting 'orthorhombic'
loop_
_space_group_symop_operation_xyz
x,y,z
-x,-y,1/2+z
x,-y,-z
-x,y,1/2-z
-x,-y,-z
x,y,1/2-z
-x,y,z
x,-y,1/2+z
1/2+x,1/2+y,z
1/2-x,1/2-y,1/2+z
1/2+x,1/2-y,-z
1/2-x,1/2+y,1/2-z
1/2-x,1/2-y,-z
1/2+x,1/2+y,1/2-z
1/2-x,1/2+y,z
1/2+x,1/2-y,1/2+z
loop_
_atom_site_type_symbol
_atom_site_label
_atom_site_fract_x
_atom_site_fract_y
_atom_site_fract_z
Si Si1 0.929602 0.762020 0.961070
Si Si2 0.303744 0.198654 0.539056
Si Si3 0.605192 0.595494 0.959797
Si Si4 0.754301 0.929983 0.040055
Si Si5 0.500000 0.500000 0.500000
O O1 0.931033 0.756741 0.750000
O O2 0.871593 0.720486 0.026271
O O3 0.000000 0.748237 0.025060
O O4 0.911372 0.832870 0.006370
O O5 0.307285 0.195891 0.750000
O O6 0.250000 0.250000 0.500000
O O7 0.284196 0.129874 0.474535
O O8 0.600347 0.584752 0.750000
O O9 0.674453 0.578858 0.022179
O O10 0.554168 0.551369 0.042573
O O11 0.756482 0.924666 0.250000
O O12 0.731998 0.000000 0.000000
#
# Coordination Sequence:
#
# PCOD9472722 Si02
#       5
#    16  16  16  16   4
#     4  10  21  35  53  78 107 138 174 216 267 320
#     4  10  20  35  56  80 106 138 179 225 268 317
#     4  11  22  34  50  73 104 143 181 215 251 303
#     4  10  21  36  52  75 104 137 178 221 264 311
#     4  12  22  32  44  70 110 148 172 202 246 308
#
# _framework density 19.402546999999998
#
# number of rings (size 3 to 8) (size 9 to 14) (size 15 to 20)
#    0.000    1.647    4.706    0.353    0.000    3.765 
#    0.000    0.000    0.000    0.706    0.000    0.000 
#    0.000    0.000    0.000    0.000    0.000    0.000 
#
# Total GULP energy -189360.409463 kJ/mol
# GULP energy per Si atom -5569.423808 kJ/mol
# Density = 1.935839 g / cm^3
# Si number density = 19.402547 Si / 1000 Ang^3
#
#
#
# Elastic Constant Matrix: (Units=GPa)
#
#
# Indices 1 2 3 4 5 6 
#
# 1 136.2506 111.3692 9.0730 0.0000 0.0000 0.0000
# 2 111.3692 183.4623 2.5198 0.0000 0.0000 0.0000
# 3 9.0730 2.5198 42.1922 0.0000 0.0000 0.0000
# 4 0.0000 0.0000 0.0000 27.9872 0.0000 0.0000
# 5 0.0000 0.0000 0.0000 0.0000 -1.6900 0.0000
# 6 0.0000 0.0000 0.0000 0.0000 0.0000 45.7809
#
#
#
# Elastic Compliance Matrix: (Units=1/GPa)
#
#
# Indices 1 2 3 4 5 6 
#
# 1 0.014860 -0.008984 -0.002659 0.000000 0.000000 0.000000
# 2 -0.008984 0.010887 0.001282 0.000000 0.000000 0.000000
# 3 -0.002659 0.001282 0.024196 0.000000 0.000000 0.000000
# 4 0.000000 0.000000 0.000000 0.035731 0.000000 0.000000
# 5 0.000000 0.000000 0.000000 0.000000 -0.591729 0.000000
# 6 0.000000 0.000000 0.000000 0.000000 0.000000 0.021843
#
#
# Mechanical properties :
#
#
# Convention : Reuss Voigt Hill
#
# Bulk Modulus (GPa) = 34.22249 67.53657 50.87953
# Shear Modulus (GPa) = -11.01929 30.34517 9.66294
#
# Velocity S-wave (km/s) = -2.38571 3.95901 2.23407
# Velocity P-wave (km/s) = 3.17610 7.46873 5.73888
#
# Compressibility (1/GPa) = 0.02922055
#
# Stress axis : x y z
#
# Youngs Moduli (GPa) = 67.29506 91.85421 41.32860
#
# Poissons Ratio (x) = 0.82523 0.10989
# Poissons Ratio (y) = 0.60458 -0.05297
# Poissons Ratio (z) = 0.17893 -0.11774
#
# Static dielectric constant tensor:
#      x y z
#    x 1.663440 0.000000 0.000000 
#    y 0.000000 1.671070 0.000000 
#    z 0.000000 0.000000 1.755640 
# 
# From -- ./inp_files/5883.got.cif
#   From: 2010.05.17/outbox.cif.g08.bks.cpg/sg63_3_cif.got.tgz:5883.got - 2010.06.03 15:47:04.
