data_PCOD9472869
_publ_section_title
;
Structure prediction by ZEFSAII (Michael W. Deem and Ramdas Pophale) SiO2 
 PCOD9472869
Probable space group: C M C M
;
_chemical_formula_sum "Si O2"
_cell_formula_units_Z 100
_cell_length_a 10.441389
_cell_length_b 20.000654
_cell_length_c 26.736621
_cell_angle_alpha 90.000000
_cell_angle_beta 90.000000
_cell_angle_gamma 90.000000
_cell_volume 5583.531784
_symmetry_space_group_name_H-M "C M C M"
_symmetry_group_IT_number 63
_symmetry_cell_setting 'orthorhombic'
loop_
_space_group_symop_operation_xyz
x,y,z
-x,-y,1/2+z
x,-y,-z
-x,y,1/2-z
-x,-y,-z
x,y,1/2-z
-x,y,z
x,-y,1/2+z
1/2+x,1/2+y,z
1/2-x,1/2-y,1/2+z
1/2+x,1/2-y,-z
1/2-x,1/2+y,1/2-z
1/2-x,1/2-y,-z
1/2+x,1/2+y,1/2-z
1/2-x,1/2+y,z
1/2+x,1/2-y,1/2+z
loop_
_atom_site_type_symbol
_atom_site_label
_atom_site_fract_x
_atom_site_fract_y
_atom_site_fract_z
Si Si1 0.145272 0.816039 0.553208
Si Si2 0.644532 0.702061 0.690322
Si Si3 0.145613 0.658606 0.974357
Si Si4 0.222063 0.166428 0.332169
Si Si5 0.000000 0.811149 0.750000
Si Si6 0.151033 0.473535 0.692463
Si Si7 0.849387 0.390508 0.134891
O O1 0.153003 0.736053 0.543632
O O2 0.249516 0.849847 0.517213
O O3 0.175244 0.829012 0.610937
O O4 0.000000 0.836831 0.541321
O O5 0.658913 0.693963 0.750000
O O6 0.500000 0.681166 0.676438
O O7 0.666165 0.779410 0.676432
O O8 0.753785 0.660377 0.662126
O O9 0.168126 0.615346 0.924610
O O10 0.000000 0.646922 0.992340
O O11 0.111328 0.186483 0.293695
O O12 0.269102 0.091967 0.320329
O O13 0.177294 0.493671 0.750000
O O14 0.176441 0.536055 0.656540
O O15 0.000000 0.457692 0.688809
O O16 0.000000 0.374002 0.145358
#
# Coordination Sequence:
#
# PCOD9472869 Si02
#       7
#    16  16  16  16   4  16  16
#     4  10  20  35  58  86 117 150 194 244 297 352
#     4  11  23  36  54  87 121 153 190 248 303 352
#     4   9  19  36  58  86 116 149 196 247 296 352
#     4  12  22  38  60  87 119 155 201 244 294 355
#     4  12  24  36  62  92 118 164 202 248 302 348
#     4  10  21  39  59  85 117 159 197 241 299 360
#     4  10  21  39  63  85 116 156 202 245 293 357
#
# _framework density 17.90981
#
# number of rings (size 3 to 8) (size 9 to 14) (size 15 to 20)
#    0.000    1.600    4.000    0.960    1.120    4.160 
#    1.440    0.800    0.000    3.840    0.000    0.000 
#    0.000    0.000    0.000    0.000    0.000    0.000 
#
# Total GULP energy -278592.343685 kJ/mol
# GULP energy per Si atom -5571.846874 kJ/mol
# Density = 1.786905 g / cm^3
# Si number density = 17.909810 Si / 1000 Ang^3
#
#
#
# Elastic Constant Matrix: (Units=GPa)
#
#
# Indices 1 2 3 4 5 6 
#
# 1 89.8363 15.4344 65.4840 0.0000 0.0000 0.0000
# 2 15.4344 24.5545 10.1770 0.0000 0.0000 0.0000
# 3 65.4840 10.1770 116.2720 0.0000 0.0000 0.0000
# 4 0.0000 0.0000 0.0000 19.3866 0.0000 0.0000
# 5 0.0000 0.0000 0.0000 0.0000 2.6072 0.0000
# 6 0.0000 0.0000 0.0000 0.0000 0.0000 1.7550
#
#
#
# Elastic Compliance Matrix: (Units=1/GPa)
#
#
# Indices 1 2 3 4 5 6 
#
# 1 0.020418 -0.008372 -0.010766 0.000000 0.000000 0.000000
# 2 -0.008372 0.045691 0.000716 0.000000 0.000000 0.000000
# 3 -0.010766 0.000716 0.014601 0.000000 0.000000 0.000000
# 4 0.000000 0.000000 0.000000 0.051582 0.000000 0.000000
# 5 0.000000 0.000000 0.000000 0.000000 0.383555 0.000000
# 6 0.000000 0.000000 0.000000 0.000000 0.000000 0.569789
#
#
# Mechanical properties :
#
#
# Convention : Reuss Voigt Hill
#
# Bulk Modulus (GPa) = 22.79690 45.87263 34.33477
# Shear Modulus (GPa) = 4.39714 14.05426 9.22570
#
# Velocity S-wave (km/s) = 1.56859 2.80433 2.27209
# Velocity P-wave (km/s) = 4.00462 6.01286 5.10840
#
# Compressibility (1/GPa) = 0.04386561
#
# Stress axis : x y z
#
# Youngs Moduli (GPa) = 48.97748 21.88594 68.48637
#
# Poissons Ratio (x) = 0.18322 0.73735
# Poissons Ratio (y) = 0.41003 -0.04902
# Poissons Ratio (z) = 0.52731 -0.01566
#
# Static dielectric constant tensor:
#      x y z
#    x 1.622020 0.000000 0.000000 
#    y 0.000000 1.597740 0.000000 
#    z 0.000000 0.000000 1.595750 
# 
# From -- ./inp_files/67071.got.cif
#   From: 2010.05.17/outbox.cif.g08.bks.cpg/sg63_34_cif.got.tgz:67071.got - 2010.06.03 15:47:04.
