data_PCOD9472402
_publ_section_title
;
Structure prediction by ZEFSAII (Michael W. Deem and Ramdas Pophale) SiO2 
 PCOD9472402
Probable space group: C M C M
;
_chemical_formula_sum "Si O2"
_cell_formula_units_Z 88
_cell_length_a 17.284316
_cell_length_b 29.351125
_cell_length_c 8.711123
_cell_angle_alpha 90.000000
_cell_angle_beta 90.000000
_cell_angle_gamma 90.000000
_cell_volume 4419.275694
_symmetry_space_group_name_H-M "C M C M"
_symmetry_group_IT_number 63
_symmetry_cell_setting 'orthorhombic'
loop_
_space_group_symop_operation_xyz
x,y,z
-x,-y,1/2+z
x,-y,-z
-x,y,1/2-z
-x,-y,-z
x,y,1/2-z
-x,y,z
x,-y,1/2+z
1/2+x,1/2+y,z
1/2-x,1/2-y,1/2+z
1/2+x,1/2-y,-z
1/2-x,1/2+y,1/2-z
1/2-x,1/2-y,-z
1/2+x,1/2+y,1/2-z
1/2-x,1/2+y,z
1/2+x,1/2-y,1/2+z
loop_
_atom_site_type_symbol
_atom_site_label
_atom_site_fract_x
_atom_site_fract_y
_atom_site_fract_z
Si Si1 0.313523 0.449624 0.935274
Si Si2 0.000000 0.550433 0.567139
Si Si3 0.152537 0.597254 0.066719
Si Si4 0.411119 0.636886 0.437649
Si Si5 0.087559 0.317339 0.067077
Si Si6 0.326404 0.272975 0.567615
O O1 0.314270 0.452128 0.750000
O O2 0.230035 0.428944 0.981775
O O3 0.376848 0.412086 0.982997
O O4 0.325109 0.500000 0.000000
O O5 0.000000 0.500000 0.500000
O O6 0.077224 0.574854 0.508263
O O7 0.000000 0.549920 0.750000
O O8 0.147159 0.594475 0.250000
O O9 0.148292 0.649868 0.016198
O O10 0.410326 0.638332 0.250000
O O11 0.500000 0.643057 0.485966
O O12 0.355840 0.678177 0.491017
O O13 0.091794 0.326092 0.250000
O O14 0.106890 0.264637 0.042592
O O15 0.000000 0.327406 0.015495
O O16 0.314235 0.277524 0.750000
O O17 0.250000 0.250000 0.500000
#
# Coordination Sequence:
#
# PCOD9472402 Si02
#       6
#    16   8  16  16  16  16
#     4  10  22  38  58  84 112 146 192 243 296 351
#     4  12  24  38  56  80 112 152 200 248 293 346
#     4  11  22  37  56  82 115 153 195 239 294 353
#     4   9  18  36  61  86 114 152 196 238 283 346
#     4  10  20  34  54  82 114 149 189 234 283 340
#     4  10  20  35  57  85 116 152 192 233 284 345
#
# _framework density 19.912766999999999
#
# number of rings (size 3 to 8) (size 9 to 14) (size 15 to 20)
#    0.000    1.818    0.909    3.545    0.000    7.636 
#    0.000    0.909    0.000    2.727    0.000    0.000 
#    0.000    0.000    0.000    0.000    0.000    0.000 
#
# Total GULP energy -245765.103266 kJ/mol
# GULP energy per Si atom -5585.570529 kJ/mol
# Density = 1.986744 g / cm^3
# Si number density = 19.912767 Si / 1000 Ang^3
#
#
#
# Elastic Constant Matrix: (Units=GPa)
#
#
# Indices 1 2 3 4 5 6 
#
# 1 121.6012 66.1805 20.2335 0.0000 0.0000 0.0000
# 2 66.1805 157.5968 32.7029 0.0000 0.0000 0.0000
# 3 20.2335 32.7029 21.5126 0.0000 0.0000 0.0000
# 4 0.0000 0.0000 0.0000 26.5821 0.0000 0.0000
# 5 0.0000 0.0000 0.0000 0.0000 17.6369 0.0000
# 6 0.0000 0.0000 0.0000 0.0000 0.0000 24.8158
#
#
#
# Elastic Compliance Matrix: (Units=1/GPa)
#
#
# Indices 1 2 3 4 5 6 
#
# 1 0.010996 -0.003610 -0.004854 0.000000 0.000000 0.000000
# 2 -0.003610 0.010455 -0.012497 0.000000 0.000000 0.000000
# 3 -0.004854 -0.012497 0.070048 0.000000 0.000000 0.000000
# 4 0.000000 0.000000 0.000000 0.037619 0.000000 0.000000
# 5 0.000000 0.000000 0.000000 0.000000 0.056699 0.000000
# 6 0.000000 0.000000 0.000000 0.000000 0.000000 0.040297
#
#
# Mechanical properties :
#
#
# Convention : Reuss Voigt Hill
#
# Bulk Modulus (GPa) = 20.17126 59.88270 40.02698
# Shear Modulus (GPa) = 17.57082 25.91321 21.74202
#
# Velocity S-wave (km/s) = 2.97373 3.61132 3.30792
# Velocity P-wave (km/s) = 4.68429 6.89396 5.89361
#
# Compressibility (1/GPa) = 0.04957548
#
# Stress axis : x y z
#
# Youngs Moduli (GPa) = 90.94034 95.65000 14.27598
#
# Poissons Ratio (x) = 0.34534 0.06929
# Poissons Ratio (y) = 0.32834 0.17841
# Poissons Ratio (z) = 0.44141 1.19536
#
# Static dielectric constant tensor:
#      x y z
#    x 1.704790 0.000000 0.000000 
#    y 0.000000 1.716230 0.000000 
#    z 0.000000 0.000000 1.680750 
# 
# From -- ./inp_files/6783.got.cif
#   From: 2010.05.17/outbox.cif.g08.bks.cpg/sg63_4_cif.got.tgz:6783.got - 2010.06.03 15:47:04.
