data_PCOD9472515
_publ_section_title
;
Structure prediction by ZEFSAII (Michael W. Deem and Ramdas Pophale) SiO2 
 PCOD9472515
Probable space group: C M C M
;
_chemical_formula_sum "Si O2"
_cell_formula_units_Z 96
_cell_length_a 8.711054
_cell_length_b 20.808340
_cell_length_c 28.791155
_cell_angle_alpha 90.000000
_cell_angle_beta 90.000000
_cell_angle_gamma 90.000000
_cell_volume 5218.758846
_symmetry_space_group_name_H-M "C M C M"
_symmetry_group_IT_number 63
_symmetry_cell_setting 'orthorhombic'
loop_
_space_group_symop_operation_xyz
x,y,z
-x,-y,1/2+z
x,-y,-z
-x,y,1/2-z
-x,-y,-z
x,y,1/2-z
-x,y,z
x,-y,1/2+z
1/2+x,1/2+y,z
1/2-x,1/2-y,1/2+z
1/2+x,1/2-y,-z
1/2-x,1/2+y,1/2-z
1/2-x,1/2-y,-z
1/2+x,1/2+y,1/2-z
1/2-x,1/2+y,z
1/2+x,1/2-y,1/2+z
loop_
_atom_site_type_symbol
_atom_site_label
_atom_site_fract_x
_atom_site_fract_y
_atom_site_fract_z
Si Si1 0.685160 0.990980 0.053440
Si Si2 0.315808 0.319467 0.697635
Si Si3 0.683334 0.141142 0.896341
Si Si4 0.683940 0.385642 0.603382
Si Si5 0.683182 0.676401 0.802978
Si Si6 0.182985 0.262944 0.550837
O O1 0.500000 0.995470 0.054130
O O2 0.752101 0.047298 0.085115
O O3 0.726987 0.921465 0.073970
O O4 0.735663 0.000000 0.000000
O O5 0.281261 0.342329 0.750000
O O6 0.500000 0.308737 0.694624
O O7 0.272595 0.367508 0.656356
O O8 0.234897 0.250674 0.691167
O O9 0.500000 0.149894 0.899314
O O10 0.734015 0.136033 0.842857
O O11 0.764987 0.203808 0.917042
O O12 0.500000 0.385753 0.600299
O O13 0.749597 0.328516 0.571585
O O14 0.723190 0.657947 0.750000
O O15 0.500000 0.672122 0.808399
O O16 0.250000 0.250000 0.500000
O O17 0.000000 0.267221 0.548964
#
# Coordination Sequence:
#
# PCOD9472515 Si02
#       6
#    16  16  16  16  16  16
#     4  10  23  42  61  81 113 158 201 244 297 355
#     4   9  18  34  57  85 118 154 191 235 289 351
#     4  11  22  38  60  87 118 155 199 244 299 355
#     4  11  22  37  60  89 119 153 196 240 293 355
#     4  10  20  34  56  87 119 154 196 243 295 349
#     4  12  24  38  59  86 118 151 193 248 297 349
#
# _framework density 18.395178000000001
#
# number of rings (size 3 to 8) (size 9 to 14) (size 15 to 20)
#    0.000    1.500    1.667    4.000    0.000    4.667 
#    0.000    0.833    0.000    3.000    0.000    0.000 
#    0.000    0.000    0.000    0.000    0.000    0.000 
#
# Total GULP energy -268225.291770 kJ/mol
# GULP energy per Si atom -5588.026912 kJ/mol
# Density = 1.835331 g / cm^3
# Si number density = 18.395178 Si / 1000 Ang^3
#
#
#
# Elastic Constant Matrix: (Units=GPa)
#
#
# Indices 1 2 3 4 5 6 
#
# 1 21.9039 3.3138 6.6216 0.0000 0.0000 0.0000
# 2 3.3138 30.1506 -11.7707 0.0000 0.0000 0.0000
# 3 6.6216 -11.7707 85.5664 0.0000 0.0000 0.0000
# 4 0.0000 0.0000 0.0000 33.2230 0.0000 0.0000
# 5 0.0000 0.0000 0.0000 0.0000 29.5126 0.0000
# 6 0.0000 0.0000 0.0000 0.0000 0.0000 30.7196
#
#
#
# Elastic Compliance Matrix: (Units=1/GPa)
#
#
# Indices 1 2 3 4 5 6 
#
# 1 0.048156 -0.007130 -0.004707 0.000000 0.000000 0.000000
# 2 -0.007130 0.036105 0.005518 0.000000 0.000000 0.000000
# 3 -0.004707 0.005518 0.012810 0.000000 0.000000 0.000000
# 4 0.000000 0.000000 0.000000 0.030100 0.000000 0.000000
# 5 0.000000 0.000000 0.000000 0.000000 0.033884 0.000000
# 6 0.000000 0.000000 0.000000 0.000000 0.000000 0.032553
#
#
# Mechanical properties :
#
#
# Convention : Reuss Voigt Hill
#
# Bulk Modulus (GPa) = 11.84384 14.88335 13.36359
# Shear Modulus (GPa) = 21.33199 27.98813 24.66006
#
# Velocity S-wave (km/s) = 3.40906 3.90486 3.66535
# Velocity P-wave (km/s) = 4.68488 5.33283 5.01932
#
# Compressibility (1/GPa) = 0.08443210
#
# Stress axis : x y z
#
# Youngs Moduli (GPa) = 20.76593 27.69708 78.06248
#
# Poissons Ratio (x) = 0.19749 0.36747
# Poissons Ratio (y) = 0.14807 -0.43078
# Poissons Ratio (z) = 0.09775 -0.15285
#
# Static dielectric constant tensor:
#      x y z
#    x 1.616610 0.000000 0.000000 
#    y 0.000000 1.591910 0.000000 
#    z 0.000000 0.000000 1.648160 
# 
# From -- ./inp_files/66984.got.cif
#   From: 2010.05.17/outbox.cif.g08.bks.cpg/sg63_34_cif.got.tgz:66984.got - 2010.06.03 15:47:04.
