data_PCOD9472514
_publ_section_title
;
Structure prediction by ZEFSAII (Michael W. Deem and Ramdas Pophale) SiO2 
 PCOD9472514
Probable space group: C M C M
;
_chemical_formula_sum "Si O2"
_cell_formula_units_Z 80
_cell_length_a 13.990713
_cell_length_b 17.702206
_cell_length_c 16.649462
_cell_angle_alpha 90.000000
_cell_angle_beta 90.000000
_cell_angle_gamma 90.000000
_cell_volume 4123.513708
_symmetry_space_group_name_H-M "C M C M"
_symmetry_group_IT_number 63
_symmetry_cell_setting 'orthorhombic'
loop_
_space_group_symop_operation_xyz
x,y,z
-x,-y,1/2+z
x,-y,-z
-x,y,1/2-z
-x,-y,-z
x,y,1/2-z
-x,y,z
x,-y,1/2+z
1/2+x,1/2+y,z
1/2-x,1/2-y,1/2+z
1/2+x,1/2-y,-z
1/2-x,1/2+y,1/2-z
1/2-x,1/2-y,-z
1/2+x,1/2+y,1/2-z
1/2-x,1/2+y,z
1/2+x,1/2-y,1/2+z
loop_
_atom_site_type_symbol
_atom_site_label
_atom_site_fract_x
_atom_site_fract_y
_atom_site_fract_z
Si Si1 0.215773 0.340513 0.077194
Si Si2 0.296852 0.321880 0.658143
Si Si3 0.886537 0.910542 0.514302
Si Si4 0.107128 0.467539 0.341643
Si Si5 0.890769 0.627956 0.088068
O O1 0.197374 0.259923 0.116631
O O2 0.184009 0.405053 0.138447
O O3 0.322284 0.359847 0.045997
O O4 0.149062 0.348690 0.998565
O O5 0.329419 0.321607 0.750000
O O6 0.352237 0.382322 0.602269
O O7 0.184489 0.341026 0.651946
O O8 0.000000 0.899165 0.504812
O O9 0.865879 0.000000 0.500000
O O10 0.116285 0.495030 0.250000
O O11 0.114121 0.537589 0.401655
O O12 0.000000 0.434776 0.350076
O O13 0.000000 0.651334 0.099849
#
# Coordination Sequence:
#
# PCOD9472514 Si02
#       5
#    16  16  16  16  16
#     4  11  21  36  59  85 117 153 189 233 285 342
#     4  11  24  39  58  86 117 149 185 234 295 347
#     4  10  22  41  63  84 111 155 207 247 279 329
#     4  10  20  34  56  87 118 148 185 231 283 336
#     4  10  20  36  58  82 111 148 189 230 276 338
#
# _framework density 19.400929999999999
#
# number of rings (size 3 to 8) (size 9 to 14) (size 15 to 20)
#    0.000    1.600    0.000    7.200    0.000    7.200 
#    0.000    1.000    0.000    4.200    0.000    0.000 
#    0.000    0.000    0.000    0.000    0.000    0.000 
#
# Total GULP energy -223356.159775 kJ/mol
# GULP energy per Si atom -5583.903994 kJ/mol
# Density = 1.935677 g / cm^3
# Si number density = 19.400930 Si / 1000 Ang^3
#
#
#
# Elastic Constant Matrix: (Units=GPa)
#
#
# Indices 1 2 3 4 5 6 
#
# 1 99.0422 42.3948 43.3634 0.0000 0.0000 0.0000
# 2 42.3948 100.1885 64.2981 0.0000 0.0000 0.0000
# 3 43.3634 64.2981 117.0611 0.0000 0.0000 0.0000
# 4 0.0000 0.0000 0.0000 57.2770 0.0000 0.0000
# 5 0.0000 0.0000 0.0000 0.0000 12.0242 0.0000
# 6 0.0000 0.0000 0.0000 0.0000 0.0000 -20.2652
#
#
#
# Elastic Compliance Matrix: (Units=1/GPa)
#
#
# Indices 1 2 3 4 5 6 
#
# 1 0.012877 -0.003687 -0.002745 0.000000 0.000000 0.000000
# 2 -0.003687 0.016471 -0.007681 0.000000 0.000000 0.000000
# 3 -0.002745 -0.007681 0.013778 0.000000 0.000000 0.000000
# 4 0.000000 0.000000 0.000000 0.017459 0.000000 0.000000
# 5 0.000000 0.000000 0.000000 0.000000 0.083166 0.000000
# 6 0.000000 0.000000 0.000000 0.000000 0.000000 -0.049346
#
#
# Mechanical properties :
#
#
# Convention : Reuss Voigt Hill
#
# Bulk Modulus (GPa) = 67.11494 68.48937 67.80215
# Shear Modulus (GPa) = 39.18554 20.88955 30.03754
#
# Velocity S-wave (km/s) = 4.49907 3.28491 3.93905
# Velocity P-wave (km/s) = 7.85223 7.05452 7.46404
#
# Compressibility (1/GPa) = 0.01489981
#
# Stress axis : x y z
#
# Youngs Moduli (GPa) = 77.65930 60.71274 72.57817
#
# Poissons Ratio (x) = 0.22387 0.19920
# Poissons Ratio (y) = 0.28636 0.55748
# Poissons Ratio (z) = 0.21315 0.46634
#
# Static dielectric constant tensor:
#      x y z
#    x 1.687170 0.000000 0.000000 
#    y 0.000000 1.694680 0.000000 
#    z 0.000000 0.000000 1.700580 
# 
# From -- ./inp_files/43977.got.cif
#   From: 2010.05.17/outbox.cif.g08.bks.cpg/sg63_22_cif.got.tgz:43977.got - 2010.06.03 15:47:04.
