data_PCOD9472787
_publ_section_title
;
Structure prediction by ZEFSAII (Michael W. Deem and Ramdas Pophale) SiO2 
 PCOD9472787
Probable space group: C M C M
;
_chemical_formula_sum "Si O2"
_cell_formula_units_Z 96
_cell_length_a 7.349953
_cell_length_b 20.730840
_cell_length_c 25.462300
_cell_angle_alpha 90.000000
_cell_angle_beta 90.000000
_cell_angle_gamma 90.000000
_cell_volume 3879.708466
_symmetry_space_group_name_H-M "C M C M"
_symmetry_group_IT_number 63
_symmetry_cell_setting 'orthorhombic'
loop_
_space_group_symop_operation_xyz
x,y,z
-x,-y,1/2+z
x,-y,-z
-x,y,1/2-z
-x,-y,-z
x,y,1/2-z
-x,y,z
x,-y,1/2+z
1/2+x,1/2+y,z
1/2-x,1/2-y,1/2+z
1/2+x,1/2-y,-z
1/2-x,1/2+y,1/2-z
1/2-x,1/2-y,-z
1/2+x,1/2+y,1/2-z
1/2-x,1/2+y,z
1/2+x,1/2-y,1/2+z
loop_
_atom_site_type_symbol
_atom_site_label
_atom_site_fract_x
_atom_site_fract_y
_atom_site_fract_z
Si Si1 0.705142 0.161358 0.808538
Si Si2 0.221848 0.876984 0.690384
Si Si3 0.219752 0.172360 0.418515
Si Si4 0.703310 0.517513 0.687156
Si Si5 0.776243 0.688341 0.577583
Si Si6 0.709261 0.072041 0.994329
O O1 0.786206 0.170131 0.750000
O O2 0.500000 0.187802 0.805615
O O3 0.696435 0.084442 0.819466
O O4 0.787311 0.186558 0.862029
O O5 0.281989 0.862005 0.750000
O O6 0.273114 0.831363 0.642684
O O7 0.000000 0.879440 0.692360
O O8 0.282643 0.948649 0.672316
O O9 0.279100 0.240865 0.442206
O O10 0.286507 0.111171 0.451146
O O11 0.000000 0.169822 0.420352
O O12 0.686746 0.510461 0.750000
O O13 0.500000 0.524340 0.664533
O O14 0.712745 0.625251 0.546192
O O15 0.000000 0.686558 0.577227
O O16 0.500000 0.062067 0.977356
O O17 0.788823 0.000000 0.000000
#
# Coordination Sequence:
#
# PCOD9472787 Si02
#       6
#    16  16  16  16  16  16
#     4   9  17  29  48  75 104 133 169 212 255 304
#     4   8  15  28  48  76 107 135 163 203 261 316
#     4  10  20  35  57  81 105 134 174 223 260 302
#     4   8  14  26  43  65  97 133 164 197 243 299
#     4   9  19  35  53  76 107 139 171 211 264 318
#     4  10  22  39  57  75 102 142 179 215 267 323
#
# _framework density 24.744129000000001
#
# number of rings (size 3 to 8) (size 9 to 14) (size 15 to 20)
#    0.000    3.000    0.000    1.500    2.333    1.000 
#    0.000    5.000    0.000    0.500    0.000    0.000 
#    0.000    0.000    0.000    0.000    0.000    0.000 
#
# Total GULP energy -267724.963414 kJ/mol
# GULP energy per Si atom -5577.603404 kJ/mol
# Density = 2.468781 g / cm^3
# Si number density = 24.744129 Si / 1000 Ang^3
#
#
#
# Elastic Constant Matrix: (Units=GPa)
#
#
# Indices 1 2 3 4 5 6 
#
# 1 89.0330 -2.5706 -9.5323 0.0000 0.0000 0.0000
# 2 -2.5706 183.2904 64.4536 0.0000 0.0000 0.0000
# 3 -9.5323 64.4536 142.5446 0.0000 0.0000 0.0000
# 4 0.0000 0.0000 0.0000 57.8641 0.0000 0.0000
# 5 0.0000 0.0000 0.0000 0.0000 1.3325 0.0000
# 6 0.0000 0.0000 0.0000 0.0000 0.0000 -11.3496
#
#
#
# Elastic Compliance Matrix: (Units=1/GPa)
#
#
# Indices 1 2 3 4 5 6 
#
# 1 0.011315 -0.000128 0.000814 0.000000 0.000000 0.000000
# 2 -0.000128 0.006489 -0.002943 0.000000 0.000000 0.000000
# 3 0.000814 -0.002943 0.008400 0.000000 0.000000 0.000000
# 4 0.000000 0.000000 0.000000 0.017282 0.000000 0.000000
# 5 0.000000 0.000000 0.000000 0.000000 0.750453 0.000000
# 6 0.000000 0.000000 0.000000 0.000000 0.000000 -0.088109
#
#
# Mechanical properties :
#
#
# Convention : Reuss Voigt Hill
#
# Bulk Modulus (GPa) = 46.09829 57.72994 51.91411
# Shear Modulus (GPa) = 6.96793 33.73722 20.35258
#
# Velocity S-wave (km/s) = 1.67991 3.69649 2.87108
# Velocity P-wave (km/s) = 4.73637 6.44982 5.65833
#
# Compressibility (1/GPa) = 0.02169278
#
# Stress axis : x y z
#
# Youngs Moduli (GPa) = 88.37591 154.11253 119.04312
#
# Poissons Ratio (x) = 0.01968 -0.09695
# Poissons Ratio (y) = 0.01129 0.35029
# Poissons Ratio (z) = -0.07198 0.45348
#
# Static dielectric constant tensor:
#      x y z
#    x 1.981170 0.000000 0.000000 
#    y 0.000000 1.972010 0.000000 
#    z 0.000000 0.000000 1.950250 
# 
# From -- ./inp_files/68300.got.cif
#   From: 2010.05.17/outbox.cif.g08.bks.cpg/sg63_35_cif.got.tgz:68300.got - 2010.06.03 15:47:04.
