data_PCOD9472872
_publ_section_title
;
Structure prediction by ZEFSAII (Michael W. Deem and Ramdas Pophale) SiO2 
 PCOD9472872
Probable space group: C M C M
;
_chemical_formula_sum "Si O2"
_cell_formula_units_Z 100
_cell_length_a 7.886435
_cell_length_b 29.787105
_cell_length_c 19.125263
_cell_angle_alpha 90.000000
_cell_angle_beta 90.000000
_cell_angle_gamma 90.000000
_cell_volume 4492.793322
_symmetry_space_group_name_H-M "C M C M"
_symmetry_group_IT_number 63
_symmetry_cell_setting 'orthorhombic'
loop_
_space_group_symop_operation_xyz
x,y,z
-x,-y,1/2+z
x,-y,-z
-x,y,1/2-z
-x,-y,-z
x,y,1/2-z
-x,y,z
x,-y,1/2+z
1/2+x,1/2+y,z
1/2-x,1/2-y,1/2+z
1/2+x,1/2-y,-z
1/2-x,1/2+y,1/2-z
1/2-x,1/2-y,-z
1/2+x,1/2+y,1/2-z
1/2-x,1/2+y,z
1/2+x,1/2-y,1/2+z
loop_
_atom_site_type_symbol
_atom_site_label
_atom_site_fract_x
_atom_site_fract_y
_atom_site_fract_z
Si Si1 0.500000 0.456828 0.750000
Si Si2 0.205345 0.770950 0.828815
Si Si3 0.187227 0.483535 0.844524
Si Si4 0.798304 0.660703 0.048496
Si Si5 0.204318 0.676035 0.611275
Si Si6 0.298419 0.577977 0.631513
Si Si7 0.803943 0.063808 0.471557
O O1 0.348167 0.459938 0.809410
O O2 0.262190 0.782790 0.750000
O O3 0.260284 0.804425 0.890152
O O4 0.262820 0.720794 0.849697
O O5 0.000000 0.771008 0.828274
O O6 0.209144 0.536651 0.830739
O O7 0.206507 0.472385 0.926370
O O8 0.000000 0.468529 0.823774
O O9 0.715606 0.612646 0.063851
O O10 0.000000 0.654118 0.044287
O O11 0.739280 0.676166 0.970608
O O12 0.259880 0.629658 0.647660
O O13 0.000000 0.676435 0.611018
O O14 0.500000 0.570684 0.638646
O O15 0.245170 0.572483 0.550449
O O16 0.000000 0.050906 0.475173
#
# Coordination Sequence:
#
# PCOD9472872 Si02
#       7
#     4  16  16  16  16  16  16
#     4  12  26  48  58  86 128 172 222 250 300 374
#     4  10  21  38  56  80 114 156 200 250 310 374
#     4  12  24  42  66  90 124 168 211 259 307 367
#     4  10  20  35  58  87 117 151 199 253 308 373
#     4   9  19  36  58  86 118 153 200 251 307 375
#     4  10  20  37  63  95 125 154 196 256 319 373
#     4  10  20  38  64  93 123 155 197 256 319 373
#
# _framework density 22.257866
#
# number of rings (size 3 to 8) (size 9 to 14) (size 15 to 20)
#    0.000    1.760    1.600    2.640    0.000    5.440 
#    2.880    0.000    0.000    0.000    0.000    0.000 
#    0.000    0.000    0.000    0.000    0.000    0.000 
#
# Total GULP energy -278844.942603 kJ/mol
# GULP energy per Si atom -5576.898852 kJ/mol
# Density = 2.220721 g / cm^3
# Si number density = 22.257866 Si / 1000 Ang^3
#
#
#
# Elastic Constant Matrix: (Units=GPa)
#
#
# Indices 1 2 3 4 5 6 
#
# 1 92.1322 3.8910 15.1788 0.0000 0.0000 0.0000
# 2 3.8910 68.9167 -4.6465 0.0000 0.0000 0.0000
# 3 15.1788 -4.6465 52.6588 0.0000 0.0000 0.0000
# 4 0.0000 0.0000 0.0000 -91.7604 0.0000 0.0000
# 5 0.0000 0.0000 0.0000 0.0000 -22.3341 0.0000
# 6 0.0000 0.0000 0.0000 0.0000 0.0000 28.3630
#
#
#
# Elastic Compliance Matrix: (Units=1/GPa)
#
#
# Indices 1 2 3 4 5 6 
#
# 1 0.011447 -0.000874 -0.003377 0.000000 0.000000 0.000000
# 2 -0.000874 0.014664 0.001546 0.000000 0.000000 0.000000
# 3 -0.003377 0.001546 0.020100 0.000000 0.000000 0.000000
# 4 0.000000 0.000000 0.000000 -0.010898 0.000000 0.000000
# 5 0.000000 0.000000 0.000000 0.000000 -0.044775 0.000000
# 6 0.000000 0.000000 0.000000 0.000000 0.000000 0.035257
#
#
# Mechanical properties :
#
#
# Convention : Reuss Voigt Hill
#
# Bulk Modulus (GPa) = 24.50912 26.95050 25.72981
# Shear Modulus (GPa) = 111.59254 -3.86067 53.86593
#
# Velocity S-wave (km/s) = 7.08838 -1.31844 4.92477
# Velocity P-wave (km/s) = 8.83339 3.13319 6.62743
#
# Compressibility (1/GPa) = 0.04080114
#
# Stress axis : x y z
#
# Youngs Moduli (GPa) = 87.35764 68.19496 49.75142
#
# Poissons Ratio (x) = 0.05960 0.16800
# Poissons Ratio (y) = 0.07635 -0.07691
# Poissons Ratio (z) = 0.29499 -0.10542
#
# Static dielectric constant tensor:
#      x y z
#    x 1.801220 0.000000 0.000000 
#    y 0.000000 1.828290 0.000000 
#    z 0.000000 0.000000 1.690440 
# 
# From -- ./inp_files/51526.got.cif
#   From: 2010.05.17/outbox.cif.g08.bks.cpg/sg63_26_cif.got.tgz:51526.got - 2010.06.03 15:47:04.
