data_PCOD9472231
_publ_section_title
;
Structure prediction by ZEFSAII (Michael W. Deem and Ramdas Pophale) SiO2 
 PCOD9472231
Probable space group: C M C M
;
_chemical_formula_sum "Si O2"
_cell_formula_units_Z 96
_cell_length_a 13.139938
_cell_length_b 15.626929
_cell_length_c 24.340864
_cell_angle_alpha 90.000000
_cell_angle_beta 90.000000
_cell_angle_gamma 90.000000
_cell_volume 4998.077026
_symmetry_space_group_name_H-M "C M C M"
_symmetry_group_IT_number 63
_symmetry_cell_setting 'orthorhombic'
loop_
_space_group_symop_operation_xyz
x,y,z
-x,-y,1/2+z
x,-y,-z
-x,y,1/2-z
-x,-y,-z
x,y,1/2-z
-x,y,z
x,-y,1/2+z
1/2+x,1/2+y,z
1/2-x,1/2-y,1/2+z
1/2+x,1/2-y,-z
1/2-x,1/2+y,1/2-z
1/2-x,1/2-y,-z
1/2+x,1/2+y,1/2-z
1/2-x,1/2+y,z
1/2+x,1/2-y,1/2+z
loop_
_atom_site_type_symbol
_atom_site_label
_atom_site_fract_x
_atom_site_fract_y
_atom_site_fract_z
Si Si1 0.883873 0.685755 0.121334
Si Si2 0.804947 0.597047 0.016056
Si Si3 0.881753 0.337375 0.313321
Si Si4 0.726118 0.637402 0.904885
Si Si5 0.188596 0.139670 0.186818
Si Si6 0.115643 0.041101 0.416380
O O1 0.874279 0.635833 0.063507
O O2 0.840846 0.780591 0.109713
O O3 0.804546 0.645233 0.164624
O O4 0.000000 0.686614 0.140234
O O5 0.693147 0.590739 0.043909
O O6 0.835172 0.500000 0.000000
O O7 0.792263 0.650328 0.960247
O O8 0.863997 0.362947 0.250000
O O9 0.804525 0.380689 0.355487
O O10 0.858098 0.235527 0.316823
O O11 0.000000 0.352446 0.326688
O O12 0.655290 0.555840 0.914991
O O13 0.183434 0.112182 0.250000
O O14 0.129191 0.080231 0.144284
O O15 0.000000 0.047507 0.434580
#
# Coordination Sequence:
#
# PCOD9472231 Si02
#       6
#    16  16  16  16  16  16
#     4  10  20  34  53  77 106 139 173 212 260 310
#     4   9  20  36  52  74 104 137 176 216 252 300
#     4   9  18  34  55  76 100 133 171 211 254 300
#     4  10  20  34  52  79 109 135 168 212 261 312
#     4   9  19  36  55  76 102 132 173 216 251 301
#     4  10  20  34  54  78 103 133 169 212 260 306
#
# _framework density 19.207388000000002
#
# number of rings (size 3 to 8) (size 9 to 14) (size 15 to 20)
#    0.000    2.500    0.000    1.500    0.000    6.667 
#    0.000    6.667    0.000    3.000    0.000    0.000 
#    0.000    0.000    0.000    0.000    0.000    0.000 
#
# Total GULP energy -267942.207675 kJ/mol
# GULP energy per Si atom -5582.129327 kJ/mol
# Density = 1.916367 g / cm^3
# Si number density = 19.207388 Si / 1000 Ang^3
#
#
#
# Elastic Constant Matrix: (Units=GPa)
#
#
# Indices 1 2 3 4 5 6 
#
# 1 97.8246 3.9831 12.1985 0.0000 0.0000 0.0000
# 2 3.9831 7.4978 -0.0660 0.0000 0.0000 0.0000
# 3 12.1985 -0.0660 69.8218 0.0000 0.0000 0.0000
# 4 0.0000 0.0000 0.0000 27.1603 0.0000 0.0000
# 5 0.0000 0.0000 0.0000 0.0000 7.0097 0.0000
# 6 0.0000 0.0000 0.0000 0.0000 0.0000 15.2050
#
#
#
# Elastic Compliance Matrix: (Units=1/GPa)
#
#
# Indices 1 2 3 4 5 6 
#
# 1 0.010688 -0.005694 -0.001873 0.000000 0.000000 0.000000
# 2 -0.005694 0.136407 0.001124 0.000000 0.000000 0.000000
# 3 -0.001873 0.001124 0.014650 0.000000 0.000000 0.000000
# 4 0.000000 0.000000 0.000000 0.036818 0.000000 0.000000
# 5 0.000000 0.000000 0.000000 0.000000 0.142659 0.000000
# 6 0.000000 0.000000 0.000000 0.000000 0.000000 0.065768
#
#
# Mechanical properties :
#
#
# Convention : Reuss Voigt Hill
#
# Bulk Modulus (GPa) = 6.71774 23.04169 14.87972
# Shear Modulus (GPa) = 10.64970 20.47691 15.56330
#
# Velocity S-wave (km/s) = 2.35725 3.26865 2.84962
# Velocity P-wave (km/s) = 3.30362 5.12521 4.31171
#
# Compressibility (1/GPa) = 0.14885960
#
# Stress axis : x y z
#
# Youngs Moduli (GPa) = 93.56512 7.33098 68.25754
#
# Poissons Ratio (x) = 0.04174 0.12782
# Poissons Ratio (y) = 0.53278 -0.07671
# Poissons Ratio (z) = 0.17521 -0.00824
#
# Static dielectric constant tensor:
#      x y z
#    x 1.643730 0.000000 0.000000 
#    y 0.000000 1.668130 0.000000 
#    z 0.000000 0.000000 1.674850 
# 
# From -- ./inp_files/61444.got.cif
#   From: 2010.05.17/outbox.cif.g08.bks.cpg/sg63_31_cif.got.tgz:61444.got - 2010.06.03 15:47:04.
