data_PCOD9472553
_publ_section_title
;
Structure prediction by ZEFSAII (Michael W. Deem and Ramdas Pophale) SiO2 
 PCOD9472553
Probable space group: C M C M
;
_chemical_formula_sum "Si O2"
_cell_formula_units_Z 112
_cell_length_a 19.989402
_cell_length_b 14.230910
_cell_length_c 18.389931
_cell_angle_alpha 90.000000
_cell_angle_beta 90.000000
_cell_angle_gamma 90.000000
_cell_volume 5231.335505
_symmetry_space_group_name_H-M "C M C M"
_symmetry_group_IT_number 63
_symmetry_cell_setting 'orthorhombic'
loop_
_space_group_symop_operation_xyz
x,y,z
-x,-y,1/2+z
x,-y,-z
-x,y,1/2-z
-x,-y,-z
x,y,1/2-z
-x,y,z
x,-y,1/2+z
1/2+x,1/2+y,z
1/2-x,1/2-y,1/2+z
1/2+x,1/2-y,-z
1/2-x,1/2+y,1/2-z
1/2-x,1/2-y,-z
1/2+x,1/2+y,1/2-z
1/2-x,1/2+y,z
1/2+x,1/2-y,1/2+z
loop_
_atom_site_type_symbol
_atom_site_label
_atom_site_fract_x
_atom_site_fract_y
_atom_site_fract_z
Si Si1 0.733169 0.104971 0.515919
Si Si2 0.925547 0.260574 0.124219
Si Si3 0.381395 0.418961 0.046833
Si Si4 0.390974 0.207282 0.038772
Si Si5 0.924801 0.565646 0.167082
Si Si6 0.921230 0.952449 0.664780
Si Si7 0.819014 0.602429 0.671775
O O1 0.812150 0.100671 0.503144
O O2 0.687788 0.179540 0.472940
O O3 0.726564 0.118164 0.602202
O O4 0.705905 0.000000 0.500000
O O5 0.914103 0.148895 0.126227
O O6 0.869673 0.310578 0.170871
O O7 0.000000 0.276626 0.152665
O O8 0.919732 0.303600 0.042904
O O9 0.408364 0.314779 0.057100
O O10 0.376798 0.470088 0.124418
O O11 0.418380 0.500000 0.000000
O O12 0.416631 0.140405 0.102560
O O13 0.919251 0.604648 0.250000
O O14 0.867155 0.487667 0.160328
O O15 0.000000 0.524447 0.161195
O O16 0.905661 0.942254 0.750000
O O17 0.000000 0.979241 0.658849
O O18 0.785100 0.593718 0.750000
#
# Coordination Sequence:
#
# PCOD9472553 Si02
#       7
#    16  16  16  16  16  16  16
#     4  10  21  39  61  85 114 148 193 242 289 344
#     4  10  20  34  58  88 118 153 194 243 292 346
#     4  11  23  40  61  85 113 153 196 238 291 347
#     4  11  21  38  60  87 116 155 197 245 294 354
#     4  10  21  36  56  86 123 160 197 241 298 363
#     4  10  22  40  61  89 122 155 196 246 296 349
#     4  10  20  36  57  84 118 155 192 239 296 354
#
# _framework density 21.409447
#
# number of rings (size 3 to 8) (size 9 to 14) (size 15 to 20)
#    0.000    1.714    2.857    1.714    0.000    4.000 
#    0.000    3.571    0.000    0.000    0.000    0.000 
#    0.000    0.000    0.000    0.000    0.000    0.000 
#
# Total GULP energy -312373.052128 kJ/mol
# GULP energy per Si atom -5578.090217 kJ/mol
# Density = 2.136072 g / cm^3
# Si number density = 21.409447 Si / 1000 Ang^3
#
#
#
# Elastic Constant Matrix: (Units=GPa)
#
#
# Indices 1 2 3 4 5 6 
#
# 1 47.6134 -0.8230 8.4377 0.0000 0.0000 0.0000
# 2 -0.8230 84.9423 10.7038 0.0000 0.0000 0.0000
# 3 8.4377 10.7038 102.8725 0.0000 0.0000 0.0000
# 4 0.0000 0.0000 0.0000 27.2756 0.0000 0.0000
# 5 0.0000 0.0000 0.0000 0.0000 30.6624 0.0000
# 6 0.0000 0.0000 0.0000 0.0000 0.0000 18.7962
#
#
#
# Elastic Compliance Matrix: (Units=1/GPa)
#
#
# Indices 1 2 3 4 5 6 
#
# 1 0.021328 0.000433 -0.001794 0.000000 0.000000 0.000000
# 2 0.000433 0.011938 -0.001278 0.000000 0.000000 0.000000
# 3 -0.001794 -0.001278 0.010001 0.000000 0.000000 0.000000
# 4 0.000000 0.000000 0.000000 0.036663 0.000000 0.000000
# 5 0.000000 0.000000 0.000000 0.000000 0.032613 0.000000
# 6 0.000000 0.000000 0.000000 0.000000 0.000000 0.053202
#
#
# Mechanical properties :
#
#
# Convention : Reuss Voigt Hill
#
# Bulk Modulus (GPa) = 26.32391 30.22946 28.27668
# Shear Modulus (GPa) = 27.22034 29.82083 28.52058
#
# Velocity S-wave (km/s) = 3.56956 3.73618 3.65382
# Velocity P-wave (km/s) = 5.41398 5.72385 5.57107
#
# Compressibility (1/GPa) = 0.03798827
#
# Stress axis : x y z
#
# Youngs Moduli (GPa) = 46.88685 83.76687 99.99119
#
# Poissons Ratio (x) = -0.03625 0.17942
# Poissons Ratio (y) = -0.02029 0.12775
# Poissons Ratio (z) = 0.08413 0.10702
#
# Static dielectric constant tensor:
#      x y z
#    x 1.803000 0.000000 0.000000 
#    y 0.000000 1.797130 0.000000 
#    z 0.000000 0.000000 1.803390 
# 
# From -- ./inp_files/36902.got.cif
#   From: 2010.05.17/outbox.cif.g08.bks.cpg/sg63_19_cif.got.tgz:36902.got - 2010.06.03 15:47:04.
