data_PCOD9472650
_publ_section_title
;
Structure prediction by ZEFSAII (Michael W. Deem and Ramdas Pophale) SiO2 
 PCOD9472650
Probable space group: C M C M
;
_chemical_formula_sum "Si O2"
_cell_formula_units_Z 96
_cell_length_a 16.251255
_cell_length_b 15.918686
_cell_length_c 19.719154
_cell_angle_alpha 90.000000
_cell_angle_beta 90.000000
_cell_angle_gamma 90.000000
_cell_volume 5101.318035
_symmetry_space_group_name_H-M "C M C M"
_symmetry_group_IT_number 63
_symmetry_cell_setting 'orthorhombic'
loop_
_space_group_symop_operation_xyz
x,y,z
-x,-y,1/2+z
x,-y,-z
-x,y,1/2-z
-x,-y,-z
x,y,1/2-z
-x,y,z
x,-y,1/2+z
1/2+x,1/2+y,z
1/2-x,1/2-y,1/2+z
1/2+x,1/2-y,-z
1/2-x,1/2+y,1/2-z
1/2-x,1/2-y,-z
1/2+x,1/2+y,1/2-z
1/2-x,1/2+y,z
1/2+x,1/2-y,1/2+z
loop_
_atom_site_type_symbol
_atom_site_label
_atom_site_fract_x
_atom_site_fract_y
_atom_site_fract_z
Si Si1 0.327768 0.259558 0.048216
Si Si2 0.780689 0.308923 0.328062
Si Si3 0.096200 0.425544 0.950851
Si Si4 0.401627 0.585359 0.031211
Si Si5 0.593736 0.045432 0.669582
Si Si6 0.901924 0.849958 0.674833
O O1 0.293270 0.287644 0.121404
O O2 0.367651 0.167424 0.047253
O O3 0.250000 0.250000 0.000000
O O4 0.380285 0.333536 0.013737
O O5 0.753578 0.320434 0.250000
O O6 0.835306 0.388975 0.349657
O O7 0.846709 0.233092 0.328522
O O8 0.103261 0.462873 0.875341
O O9 0.000000 0.417365 0.968939
O O10 0.130085 0.500000 0.000000
O O11 0.500000 0.578333 0.032432
O O12 0.376150 0.596624 0.109549
O O13 0.366124 0.500000 0.000000
O O14 0.599527 0.030378 0.750000
O O15 0.500000 0.078176 0.656402
O O16 0.889759 0.888241 0.750000
O O17 0.000000 0.830601 0.669128
#
# Coordination Sequence:
#
# PCOD9472650 Si02
#       6
#    16  16  16  16  16  16
#     4  12  23  37  56  83 117 155 185 235 292 355
#     4  10  20  35  54  85 120 151 187 232 289 346
#     4  10  22  38  58  83 111 147 193 238 284 341
#     4  10  22  40  61  84 113 151 197 243 285 338
#     4   9  18  35  60  86 112 145 188 238 288 339
#     4   9  17  33  59  86 111 144 190 241 287 332
#
# _framework density 18.818664999999999
#
# number of rings (size 3 to 8) (size 9 to 14) (size 15 to 20)
#    0.000    2.000    1.667    2.000    0.000    4.667 
#    0.000    0.833    0.000    2.500    0.000    0.000 
#    0.000    0.000    0.000    0.000    0.000    0.000 
#
# Total GULP energy -267667.168461 kJ/mol
# GULP energy per Si atom -5576.399343 kJ/mol
# Density = 1.877583 g / cm^3
# Si number density = 18.818665 Si / 1000 Ang^3
#
#
#
# Elastic Constant Matrix: (Units=GPa)
#
#
# Indices 1 2 3 4 5 6 
#
# 1 27.1650 36.8661 34.2743 0.0000 0.0000 0.0000
# 2 36.8661 137.7188 68.1979 0.0000 0.0000 0.0000
# 3 34.2743 68.1979 115.7223 0.0000 0.0000 0.0000
# 4 0.0000 0.0000 0.0000 25.7845 0.0000 0.0000
# 5 0.0000 0.0000 0.0000 0.0000 21.0096 0.0000
# 6 0.0000 0.0000 0.0000 0.0000 0.0000 -29.8136
#
#
#
# Elastic Compliance Matrix: (Units=1/GPa)
#
#
# Indices 1 2 3 4 5 6 
#
# 1 0.070595 -0.012065 -0.013799 0.000000 0.000000 0.000000
# 2 -0.012065 0.012315 -0.003684 0.000000 0.000000 0.000000
# 3 -0.013799 -0.003684 0.014900 0.000000 0.000000 0.000000
# 4 0.000000 0.000000 0.000000 0.038783 0.000000 0.000000
# 5 0.000000 0.000000 0.000000 0.000000 0.047597 0.000000
# 6 0.000000 0.000000 0.000000 0.000000 0.000000 -0.033542
#
#
# Mechanical properties :
#
#
# Convention : Reuss Voigt Hill
#
# Bulk Modulus (GPa) = 25.83012 62.14252 43.98632
# Shear Modulus (GPa) = 22.45687 12.81395 17.63541
#
# Velocity S-wave (km/s) = 3.45821 2.61227 3.06457
# Velocity P-wave (km/s) = 5.44988 6.49554 5.99555
#
# Compressibility (1/GPa) = 0.03871450
#
# Stress axis : x y z
#
# Youngs Moduli (GPa) = 14.16527 81.19990 67.11609
#
# Poissons Ratio (x) = 0.97965 0.92612
# Poissons Ratio (y) = 0.17090 0.24728
# Poissons Ratio (z) = 0.19546 0.29917
#
# Static dielectric constant tensor:
#      x y z
#    x 1.665420 0.000000 0.000000 
#    y 0.000000 1.649200 0.000000 
#    z 0.000000 0.000000 1.788570 
# 
# From -- ./inp_files/54214.got.cif
#   From: 2010.05.17/outbox.cif.g08.bks.cpg/sg63_28_cif.got.tgz:54214.got - 2010.06.03 15:47:04.
