data_PCOD9472808
_publ_section_title
;
Structure prediction by ZEFSAII (Michael W. Deem and Ramdas Pophale) SiO2 
 PCOD9472808
Probable space group: C M C M
;
_chemical_formula_sum "Si O2"
_cell_formula_units_Z 96
_cell_length_a 13.325875
_cell_length_b 19.700148
_cell_length_c 20.900890
_cell_angle_alpha 90.000000
_cell_angle_beta 90.000000
_cell_angle_gamma 90.000000
_cell_volume 5486.937378
_symmetry_space_group_name_H-M "C M C M"
_symmetry_group_IT_number 63
_symmetry_cell_setting 'orthorhombic'
loop_
_space_group_symop_operation_xyz
x,y,z
-x,-y,1/2+z
x,-y,-z
-x,y,1/2-z
-x,-y,-z
x,y,1/2-z
-x,y,z
x,-y,1/2+z
1/2+x,1/2+y,z
1/2-x,1/2-y,1/2+z
1/2+x,1/2-y,-z
1/2-x,1/2+y,1/2-z
1/2-x,1/2-y,-z
1/2+x,1/2+y,1/2-z
1/2-x,1/2+y,z
1/2+x,1/2-y,1/2+z
loop_
_atom_site_type_symbol
_atom_site_label
_atom_site_fract_x
_atom_site_fract_y
_atom_site_fract_z
Si Si1 0.754651 0.786170 0.099060
Si Si2 0.883877 0.033142 0.432270
Si Si3 0.116852 0.673927 0.326737
Si Si4 0.884358 0.185268 0.480282
Si Si5 0.780793 0.471133 0.825531
Si Si6 0.113390 0.387861 0.174116
O O1 0.820578 0.733621 0.140220
O O2 0.673305 0.741947 0.060158
O O3 0.694780 0.840754 0.140338
O O4 0.827192 0.821232 0.047483
O O5 0.881003 0.113986 0.443424
O O6 0.812086 0.016923 0.373064
O O7 0.000000 0.012548 0.420888
O O8 0.852077 0.000000 0.500000
O O9 0.120151 0.682380 0.250000
O O10 0.166708 0.600759 0.340937
O O11 0.000000 0.674691 0.346608
O O12 0.000000 0.203818 0.490632
O O13 0.751842 0.469911 0.750000
O O14 0.857451 0.533386 0.834323
O O15 0.115615 0.374075 0.250000
O O16 0.000000 0.374987 0.150827
#
# Coordination Sequence:
#
# PCOD9472808 Si02
#       6
#    16  16  16  16  16  16
#     4  11  20  35  57  80 112 146 187 235 275 336
#     4  10  20  36  57  81 113 151 192 234 287 344
#     4  10  20  35  57  84 113 148 189 234 285 336
#     4  10  21  35  53  78 110 150 187 228 280 332
#     4  10  20  37  59  83 114 149 190 236 287 342
#     4  10  21  37  58  83 111 145 183 228 285 342
#
# _framework density 17.496099999999998
#
# number of rings (size 3 to 8) (size 9 to 14) (size 15 to 20)
#    0.000    1.833    1.667    3.000    0.000    2.333 
#    0.000    0.833    0.000    4.000    0.000    0.000 
#    0.000    0.000    0.000    0.000    0.000    0.000 
#
# Total GULP energy -267900.268782 kJ/mol
# GULP energy per Si atom -5581.255600 kJ/mol
# Density = 1.745628 g / cm^3
# Si number density = 17.496100 Si / 1000 Ang^3
#
#
#
# Elastic Constant Matrix: (Units=GPa)
#
#
# Indices 1 2 3 4 5 6 
#
# 1 128.0980 25.8354 57.7378 0.0000 0.0000 0.0000
# 2 25.8354 51.2880 23.9753 0.0000 0.0000 0.0000
# 3 57.7378 23.9753 61.7248 0.0000 0.0000 0.0000
# 4 0.0000 0.0000 0.0000 23.1778 0.0000 0.0000
# 5 0.0000 0.0000 0.0000 0.0000 28.4042 0.0000
# 6 0.0000 0.0000 0.0000 0.0000 0.0000 23.3467
#
#
#
# Elastic Compliance Matrix: (Units=1/GPa)
#
#
# Indices 1 2 3 4 5 6 
#
# 1 0.013548 -0.001100 -0.012245 0.000000 0.000000 0.000000
# 2 -0.001100 0.023913 -0.008259 0.000000 0.000000 0.000000
# 3 -0.012245 -0.008259 0.030863 0.000000 0.000000 0.000000
# 4 0.000000 0.000000 0.000000 0.043145 0.000000 0.000000
# 5 0.000000 0.000000 0.000000 0.000000 0.035206 0.000000
# 6 0.000000 0.000000 0.000000 0.000000 0.000000 0.042833
#
#
# Mechanical properties :
#
#
# Convention : Reuss Voigt Hill
#
# Bulk Modulus (GPa) = 39.81750 50.68975 45.25362
# Shear Modulus (GPa) = 20.73930 23.88989 22.31460
#
# Velocity S-wave (km/s) = 3.44665 3.69920 3.57515
# Velocity P-wave (km/s) = 6.21663 6.87607 6.55465
#
# Compressibility (1/GPa) = 0.02511458
#
# Stress axis : x y z
#
# Youngs Moduli (GPa) = 73.81293 41.81865 32.40094
#
# Poissons Ratio (x) = 0.04601 0.39676
# Poissons Ratio (y) = 0.08121 0.26760
# Poissons Ratio (z) = 0.90386 0.34539
#
# Static dielectric constant tensor:
#      x y z
#    x 1.580200 0.000000 0.000000 
#    y 0.000000 1.577550 0.000000 
#    z 0.000000 0.000000 1.576180 
# 
# From -- ./inp_files/52844.got.cif
#   From: 2010.05.17/outbox.cif.g08.bks.cpg/sg63_27_cif.got.tgz:52844.got - 2010.06.03 15:47:04.
