data_PCOD9472592
_publ_section_title
;
Structure prediction by ZEFSAII (Michael W. Deem and Ramdas Pophale) SiO2 
 PCOD9472592
Probable space group: C M C M
;
_chemical_formula_sum "Si O2"
_cell_formula_units_Z 80
_cell_length_a 8.778673
_cell_length_b 19.988077
_cell_length_c 26.452570
_cell_angle_alpha 90.000000
_cell_angle_beta 90.000000
_cell_angle_gamma 90.000000
_cell_volume 4641.600500
_symmetry_space_group_name_H-M "C M C M"
_symmetry_group_IT_number 63
_symmetry_cell_setting 'orthorhombic'
loop_
_space_group_symop_operation_xyz
x,y,z
-x,-y,1/2+z
x,-y,-z
-x,y,1/2-z
-x,-y,-z
x,y,1/2-z
-x,y,z
x,-y,1/2+z
1/2+x,1/2+y,z
1/2-x,1/2-y,1/2+z
1/2+x,1/2-y,-z
1/2-x,1/2+y,1/2-z
1/2-x,1/2-y,-z
1/2+x,1/2+y,1/2-z
1/2-x,1/2+y,z
1/2+x,1/2-y,1/2+z
loop_
_atom_site_type_symbol
_atom_site_label
_atom_site_fract_x
_atom_site_fract_y
_atom_site_fract_z
Si Si1 0.174454 0.419389 0.750000
Si Si2 0.316935 0.822657 0.555764
Si Si3 0.685260 0.069952 0.359567
Si Si4 0.681221 0.421792 0.143392
Si Si5 0.818429 0.676698 0.560869
Si Si6 0.674975 0.082089 0.750000
O O1 0.240468 0.401991 0.695120
O O2 0.173294 0.500624 0.750000
O O3 0.000000 0.394884 0.750000
O O4 0.500000 0.812626 0.558684
O O5 0.275147 0.880624 0.594995
O O6 0.235731 0.752938 0.568270
O O7 0.280783 0.840599 0.497603
O O8 0.500000 0.064424 0.357074
O O9 0.751284 0.995866 0.366241
O O10 0.500000 0.425308 0.144798
O O11 0.737463 0.372095 0.100011
O O12 0.742850 0.398325 0.198198
O O13 0.000000 0.671710 0.567161
O O14 0.500000 0.104557 0.750000
#
# Coordination Sequence:
#
# PCOD9472592 Si02
#       6
#     8  16  16  16  16   8
#     4   7  12  25  48  73  96 125 157 195 247 303
#     4   9  19  35  54  74  99 135 178 220 262 311
#     4   9  17  32  53  76 102 133 170 211 258 308
#     4  11  21  33  52  79 107 134 170 212 253 303
#     4  10  20  35  53  72 100 139 177 215 263 313
#     4   9  17  33  54  75 102 135 169 205 253 305
#
# _framework density 17.235434000000001
#
# number of rings (size 3 to 8) (size 9 to 14) (size 15 to 20)
#    0.000    2.600    0.000    3.900    0.000    2.400 
#    0.000    5.000    0.000    2.400    0.000    0.000 
#    0.000    0.000    0.000    0.000    0.000    0.000 
#
# Total GULP energy -222971.655422 kJ/mol
# GULP energy per Si atom -5574.291386 kJ/mol
# Density = 1.719621 g / cm^3
# Si number density = 17.235434 Si / 1000 Ang^3
#
#
#
# Elastic Constant Matrix: (Units=GPa)
#
#
# Indices 1 2 3 4 5 6 
#
# 1 66.0354 44.0193 64.8820 0.0000 0.0000 0.0000
# 2 44.0193 75.3706 94.9931 0.0000 0.0000 0.0000
# 3 64.8820 94.9931 167.7720 0.0000 0.0000 0.0000
# 4 0.0000 0.0000 0.0000 -29.5176 0.0000 0.0000
# 5 0.0000 0.0000 0.0000 0.0000 21.0885 0.0000
# 6 0.0000 0.0000 0.0000 0.0000 0.0000 26.1327
#
#
#
# Elastic Compliance Matrix: (Units=1/GPa)
#
#
# Indices 1 2 3 4 5 6 
#
# 1 0.025983 -0.008767 -0.005085 0.000000 0.000000 0.000000
# 2 -0.008767 0.049286 -0.024516 0.000000 0.000000 0.000000
# 3 -0.005085 -0.024516 0.021808 0.000000 0.000000 0.000000
# 4 0.000000 0.000000 0.000000 -0.033878 0.000000 0.000000
# 5 0.000000 0.000000 0.000000 0.000000 0.047419 0.000000
# 6 0.000000 0.000000 0.000000 0.000000 0.000000 0.038266
#
#
# Mechanical properties :
#
#
# Convention : Reuss Voigt Hill
#
# Bulk Modulus (GPa) = 49.15726 79.66299 64.41012
# Shear Modulus (GPa) = 21.51473 10.55963 16.03718
#
# Velocity S-wave (km/s) = 3.53694 2.47790 3.05368
# Velocity P-wave (km/s) = 6.72777 7.38292 7.06294
#
# Compressibility (1/GPa) = 0.02034287
#
# Stress axis : x y z
#
# Youngs Moduli (GPa) = 38.48645 20.28974 45.85552
#
# Poissons Ratio (x) = 0.17788 0.23316
# Poissons Ratio (y) = 0.33740 1.12417
# Poissons Ratio (z) = 0.19569 0.49741
#
# Static dielectric constant tensor:
#      x y z
#    x 1.580020 0.000000 0.000000 
#    y 0.000000 1.541880 0.000000 
#    z 0.000000 0.000000 1.608500 
# 
# From -- ./inp_files/59559.got.cif
#   From: 2010.05.17/outbox.cif.g08.bks.cpg/sg63_30_cif.got.tgz:59559.got - 2010.06.03 15:47:04.
