data_PCOD9472555
_publ_section_title
;
Structure prediction by ZEFSAII (Michael W. Deem and Ramdas Pophale) SiO2 
 PCOD9472555
Probable space group: C M C M
;
_chemical_formula_sum "Si O2"
_cell_formula_units_Z 120
_cell_length_a 17.526723
_cell_length_b 17.463252
_cell_length_c 19.908979
_cell_angle_alpha 90.000000
_cell_angle_beta 90.000000
_cell_angle_gamma 90.000000
_cell_volume 6093.612486
_symmetry_space_group_name_H-M "C M C M"
_symmetry_group_IT_number 63
_symmetry_cell_setting 'orthorhombic'
loop_
_space_group_symop_operation_xyz
x,y,z
-x,-y,1/2+z
x,-y,-z
-x,y,1/2-z
-x,-y,-z
x,y,1/2-z
-x,y,z
x,-y,1/2+z
1/2+x,1/2+y,z
1/2-x,1/2-y,1/2+z
1/2+x,1/2-y,-z
1/2-x,1/2+y,1/2-z
1/2-x,1/2-y,-z
1/2+x,1/2+y,1/2-z
1/2-x,1/2+y,z
1/2+x,1/2-y,1/2+z
loop_
_atom_site_type_symbol
_atom_site_label
_atom_site_fract_x
_atom_site_fract_y
_atom_site_fract_z
Si Si1 0.294570 0.737292 0.674364
Si Si2 0.885606 0.238405 0.324695
Si Si3 0.832888 0.275522 0.972882
Si Si4 0.000000 0.643567 0.889168
Si Si5 0.143933 0.432153 0.446853
Si Si6 0.586234 0.620196 0.990243
Si Si7 0.196454 0.932883 0.126818
Si Si8 0.914083 0.063905 0.357819
O O1 0.316073 0.762881 0.750000
O O2 0.204403 0.751759 0.664872
O O3 0.332837 0.775223 0.608618
O O4 0.307004 0.645863 0.668453
O O5 0.904199 0.267266 0.250000
O O6 0.934264 0.290650 0.373350
O O7 0.904167 0.148675 0.328197
O O8 0.891973 0.209650 0.995138
O O9 0.750000 0.250000 0.000000
O O10 0.846995 0.356333 0.006975
O O11 0.067668 0.581048 0.904945
O O12 0.138707 0.500000 0.500000
O O13 0.217259 0.444460 0.398626
O O14 0.500000 0.611492 0.964696
O O15 0.646866 0.584843 0.939749
O O16 0.590665 0.580377 0.062280
O O17 0.152989 0.004688 0.160016
O O18 0.000000 0.035779 0.342009
#
# Coordination Sequence:
#
# PCOD9472555 Si02
#       8
#    16  16  16   8  16  16  16  16
#     4  10  22  41  63  90 124 169 217 256 310 383
#     4  11  23  40  65  91 122 167 214 262 314 376
#     4  11  20  38  63  92 122 164 212 263 316 372
#     4  12  22  44  62  92 130 158 210 272 321 375
#     4  12  25  38  62  95 128 163 207 267 332 381
#     4  10  20  34  58  90 122 163 204 254 315 379
#     4  11  22  38  58  87 133 167 203 253 323 379
#     4  11  22  34  59  94 130 160 203 258 315 373
#
# _framework density 19.692753
#
# number of rings (size 3 to 8) (size 9 to 14) (size 15 to 20)
#    0.000    1.067    4.667    3.600    4.667    1.600 
#    0.000    0.000    0.000   11.200    0.000    0.000 
#    0.000    0.000    0.000    0.000    0.000    0.000 
#
# Total GULP energy -334150.346584 kJ/mol
# GULP energy per Si atom -5569.172443 kJ/mol
# Density = 1.964793 g / cm^3
# Si number density = 19.692753 Si / 1000 Ang^3
#
#
#
# Elastic Constant Matrix: (Units=GPa)
#
#
# Indices 1 2 3 4 5 6 
#
# 1 126.2200 32.5775 19.7555 0.0000 0.0000 0.0000
# 2 32.5775 87.5929 0.6286 0.0000 0.0000 0.0000
# 3 19.7555 0.6286 65.6732 0.0000 0.0000 0.0000
# 4 0.0000 0.0000 0.0000 -29.7669 0.0000 0.0000
# 5 0.0000 0.0000 0.0000 0.0000 7.4297 0.0000
# 6 0.0000 0.0000 0.0000 0.0000 0.0000 14.8227
#
#
#
# Elastic Compliance Matrix: (Units=1/GPa)
#
#
# Indices 1 2 3 4 5 6 
#
# 1 0.009234 -0.003414 -0.002745 0.000000 0.000000 0.000000
# 2 -0.003414 0.012680 0.000906 0.000000 0.000000 0.000000
# 3 -0.002745 0.000906 0.016044 0.000000 0.000000 0.000000
# 4 0.000000 0.000000 0.000000 -0.033594 0.000000 0.000000
# 5 0.000000 0.000000 0.000000 0.000000 0.134595 0.000000
# 6 0.000000 0.000000 0.000000 0.000000 0.000000 0.067464
#
#
# Mechanical properties :
#
#
# Convention : Reuss Voigt Hill
#
# Bulk Modulus (GPa) = 36.42970 42.82327 39.62649
# Shear Modulus (GPa) = 22.11615 13.59874 17.85744
#
# Velocity S-wave (km/s) = 3.35484 2.63067 3.01458
# Velocity P-wave (km/s) = 5.79188 5.56958 5.68181
#
# Compressibility (1/GPa) = 0.02745013
#
# Stress axis : x y z
#
# Youngs Moduli (GPa) = 108.30045 78.86526 62.32880
#
# Poissons Ratio (x) = 0.26928 0.17109
# Poissons Ratio (y) = 0.36979 -0.05645
# Poissons Ratio (z) = 0.29728 -0.07143
#
# Static dielectric constant tensor:
#      x y z
#    x 1.688230 0.000000 0.000000 
#    y 0.000000 1.710130 0.000000 
#    z 0.000000 0.000000 1.734830 
# 
# From -- ./inp_files/55881.got.cif
#   From: 2010.05.17/outbox.cif.g08.bks.cpg/sg63_28_cif.got.tgz:55881.got - 2010.06.03 15:47:04.
