data_PCOD9472977
_publ_section_title
;
Structure prediction by ZEFSAII (Michael W. Deem and Ramdas Pophale) SiO2 
 PCOD9472977
Probable space group: C M C M
;
_chemical_formula_sum "Si O2"
_cell_formula_units_Z 116
_cell_length_a 21.146697
_cell_length_b 18.998814
_cell_length_c 17.791698
_cell_angle_alpha 90.000000
_cell_angle_beta 90.000000
_cell_angle_gamma 90.000000
_cell_volume 7148.031072
_symmetry_space_group_name_H-M "C M C M"
_symmetry_group_IT_number 63
_symmetry_cell_setting 'orthorhombic'
loop_
_space_group_symop_operation_xyz
x,y,z
-x,-y,1/2+z
x,-y,-z
-x,y,1/2-z
-x,-y,-z
x,y,1/2-z
-x,y,z
x,-y,1/2+z
1/2+x,1/2+y,z
1/2-x,1/2-y,1/2+z
1/2+x,1/2-y,-z
1/2-x,1/2+y,1/2-z
1/2-x,1/2-y,-z
1/2+x,1/2+y,1/2-z
1/2-x,1/2+y,z
1/2+x,1/2-y,1/2+z
loop_
_atom_site_type_symbol
_atom_site_label
_atom_site_fract_x
_atom_site_fract_y
_atom_site_fract_z
Si Si1 0.430475 0.441854 0.434200
Si Si2 0.388884 0.228258 0.877616
Si Si3 0.500000 0.223265 0.750000
Si Si4 0.821594 0.751249 0.161921
Si Si5 0.780292 0.376292 0.161094
Si Si6 0.200489 0.995928 0.089986
Si Si7 0.572079 0.278425 0.040670
Si Si8 0.290360 0.351747 0.838936
O O1 0.432565 0.500000 0.500000
O O2 0.500000 0.443933 0.396051
O O3 0.367532 0.461236 0.388559
O O4 0.422413 0.363511 0.467347
O O5 0.444345 0.224096 0.816371
O O6 0.343208 0.160213 0.871379
O O7 0.344435 0.295569 0.859320
O O8 0.413409 0.241185 0.961791
O O9 0.839991 0.748362 0.250000
O O10 0.775917 0.818919 0.152248
O O11 0.879367 0.756340 0.105228
O O12 0.776650 0.685045 0.143973
O O13 0.789722 0.387233 0.250000
O O14 0.755945 0.447147 0.122381
O O15 0.202210 0.074737 0.120147
O O16 0.204595 0.000000 0.000000
O O17 0.500000 0.263588 0.062844
O O18 0.293267 0.363249 0.750000
#
# Coordination Sequence:
#
# PCOD9472977 Si02
#       8
#    16  16   4  16  16  16  16  16
#     4   9  18  33  47  74 116 151 182 217 267 319
#     4  11  21  36  58  84 112 143 184 232 277 332
#     4  12  20  40  56  88 118 140 182 230 276 340
#     4   9  20  37  56  78 110 143 180 238 274 320
#     4  10  20  36  55  78 112 147 180 228 286 318
#     4  11  21  33  53  83 109 147 188 230 265 332
#     4  11  21  33  57  83 105 149 188 224 275 331
#     4  10  21  37  54  79 111 148 185 223 282 324
#
# _framework density 16.228245000000001
#
# number of rings (size 3 to 8) (size 9 to 14) (size 15 to 20)
#    0.000    1.793    3.448    2.897    1.931    1.379 
#    1.241    0.000    0.000    1.241    1.793    1.448 
#    0.000    0.000    0.000    0.000    0.000    0.000 
#
# Total GULP energy -322877.017267 kJ/mol
# GULP energy per Si atom -5566.845125 kJ/mol
# Density = 1.619131 g / cm^3
# Si number density = 16.228245 Si / 1000 Ang^3
#
#
#
# Elastic Constant Matrix: (Units=GPa)
#
#
# Indices 1 2 3 4 5 6 
#
# 1 126.3454 36.9081 59.1906 0.0000 0.0000 0.0000
# 2 36.9081 54.3629 8.8889 0.0000 0.0000 0.0000
# 3 59.1906 8.8889 52.3666 0.0000 0.0000 0.0000
# 4 0.0000 0.0000 0.0000 24.6259 0.0000 0.0000
# 5 0.0000 0.0000 0.0000 0.0000 29.0506 0.0000
# 6 0.0000 0.0000 0.0000 0.0000 0.0000 44.6813
#
#
#
# Elastic Compliance Matrix: (Units=1/GPa)
#
#
# Indices 1 2 3 4 5 6 
#
# 1 0.021839 -0.011099 -0.022800 0.000000 0.000000 0.000000
# 2 -0.011099 0.024560 0.008376 0.000000 0.000000 0.000000
# 3 -0.022800 0.008376 0.043446 0.000000 0.000000 0.000000
# 4 0.000000 0.000000 0.000000 0.040608 0.000000 0.000000
# 5 0.000000 0.000000 0.000000 0.000000 0.034423 0.000000
# 6 0.000000 0.000000 0.000000 0.000000 0.000000 0.022381
#
#
# Mechanical properties :
#
#
# Convention : Reuss Voigt Hill
#
# Bulk Modulus (GPa) = 25.77411 49.22778 37.50094
# Shear Modulus (GPa) = 19.90168 28.21074 24.05621
#
# Velocity S-wave (km/s) = 3.50574 4.17390 3.85433
# Velocity P-wave (km/s) = 5.68363 7.32319 6.55488
#
# Compressibility (1/GPa) = 0.03879863
#
# Stress axis : x y z
#
# Youngs Moduli (GPa) = 45.79061 40.71604 23.01705
#
# Poissons Ratio (x) = 0.45189 0.52480
# Poissons Ratio (y) = 0.50821 -0.19279
# Poissons Ratio (z) = 1.04405 -0.34103
#
# Static dielectric constant tensor:
#      x y z
#    x 1.560770 0.000000 0.000000 
#    y 0.000000 1.545980 0.000000 
#    z 0.000000 0.000000 1.530250 
# 
# From -- ./inp_files/45930.got.cif
#   From: 2010.05.17/outbox.cif.g08.bks.cpg/sg63_23_cif.got.tgz:45930.got - 2010.06.03 15:47:04.
