data_PCOD9472123
_publ_section_title
;
Structure prediction by ZEFSAII (Michael W. Deem and Ramdas Pophale) SiO2 
 PCOD9472123
Probable space group: C M C M
;
_chemical_formula_sum "Si O2"
_cell_formula_units_Z 96
_cell_length_a 14.582076
_cell_length_b 15.220124
_cell_length_c 22.623863
_cell_angle_alpha 90.000000
_cell_angle_beta 90.000000
_cell_angle_gamma 90.000000
_cell_volume 5021.162889
_symmetry_space_group_name_H-M "C M C M"
_symmetry_group_IT_number 63
_symmetry_cell_setting 'orthorhombic'
loop_
_space_group_symop_operation_xyz
x,y,z
-x,-y,1/2+z
x,-y,-z
-x,y,1/2-z
-x,-y,-z
x,y,1/2-z
-x,y,z
x,-y,1/2+z
1/2+x,1/2+y,z
1/2-x,1/2-y,1/2+z
1/2+x,1/2-y,-z
1/2-x,1/2+y,1/2-z
1/2-x,1/2-y,-z
1/2+x,1/2+y,1/2-z
1/2-x,1/2+y,z
1/2+x,1/2-y,1/2+z
loop_
_atom_site_type_symbol
_atom_site_label
_atom_site_fract_x
_atom_site_fract_y
_atom_site_fract_z
Si Si1 0.389023 0.361963 0.878434
Si Si2 0.398951 0.785889 0.604511
Si Si3 0.100575 0.514669 0.431468
Si Si4 0.890880 0.870178 0.017617
Si Si5 0.756841 0.725221 0.819556
Si Si6 0.787646 0.961235 0.377896
O O1 0.500000 0.363794 0.871416
O O2 0.343510 0.273837 0.850914
O O3 0.341449 0.452312 0.854228
O O4 0.366485 0.363367 0.948874
O O5 0.500000 0.757134 0.624869
O O6 0.372329 0.721691 0.550913
O O7 0.327961 0.783347 0.657482
O O8 0.403865 0.882160 0.578874
O O9 0.120361 0.500000 0.500000
O O10 0.182814 0.481692 0.392237
O O11 0.000000 0.475640 0.418073
O O12 0.838038 0.937569 0.059977
O O13 0.000000 0.889111 0.020541
O O14 0.770972 0.726617 0.750000
O O15 0.722416 0.627720 0.839456
#
# Coordination Sequence:
#
# PCOD9472123 Si02
#       6
#    16  16  16  16  16  16
#     4  11  23  41  66  95 127 165 203 252 314 378
#     4   9  19  38  62  89 119 154 196 247 304 366
#     4  10  20  33  56  92 128 156 190 239 304 382
#     4   9  19  35  61  95 128 155 192 246 311 379
#     4  11  26  43  60  85 119 161 213 264 305 354
#     4  11  22  38  63  91 126 162 204 252 312 372
#
# _framework density 19.119077000000001
#
# number of rings (size 3 to 8) (size 9 to 14) (size 15 to 20)
#    0.000    1.833    1.667    2.000    2.333    5.333 
#    0.000    0.000    0.000    0.000    0.000    0.000 
#    0.000    0.000    0.000    0.000    0.000    0.000 
#
# Total GULP energy -267531.691856 kJ/mol
# GULP energy per Si atom -5573.576914 kJ/mol
# Density = 1.907556 g / cm^3
# Si number density = 19.119077 Si / 1000 Ang^3
#
#
#
# Elastic Constant Matrix: (Units=GPa)
#
#
# Indices 1 2 3 4 5 6 
#
# 1 62.2950 15.5303 32.4907 0.0000 0.0000 0.0000
# 2 15.5303 42.7332 38.5086 0.0000 0.0000 0.0000
# 3 32.4907 38.5086 77.0809 0.0000 0.0000 0.0000
# 4 0.0000 0.0000 0.0000 10.7708 0.0000 0.0000
# 5 0.0000 0.0000 0.0000 0.0000 29.2263 0.0000
# 6 0.0000 0.0000 0.0000 0.0000 0.0000 23.3248
#
#
#
# Elastic Compliance Matrix: (Units=1/GPa)
#
#
# Indices 1 2 3 4 5 6 
#
# 1 0.020585 0.000615 -0.008984 0.000000 0.000000 0.000000
# 2 0.000615 0.042581 -0.021532 0.000000 0.000000 0.000000
# 3 -0.008984 -0.021532 0.027517 0.000000 0.000000 0.000000
# 4 0.000000 0.000000 0.000000 0.092844 0.000000 0.000000
# 5 0.000000 0.000000 0.000000 0.000000 0.034216 0.000000
# 6 0.000000 0.000000 0.000000 0.000000 0.000000 0.042873
#
#
# Mechanical properties :
#
#
# Convention : Reuss Voigt Hill
#
# Bulk Modulus (GPa) = 32.38256 39.46314 35.92285
# Shear Modulus (GPa) = 15.11891 19.03634 17.07763
#
# Velocity S-wave (km/s) = 2.81513 3.15885 2.99193
# Velocity P-wave (km/s) = 5.24792 5.83009 5.54665
#
# Compressibility (1/GPa) = 0.03088082
#
# Stress axis : x y z
#
# Youngs Moduli (GPa) = 48.57882 23.48471 36.34075
#
# Poissons Ratio (x) = -0.01444 0.32648
# Poissons Ratio (y) = -0.02986 0.78249
# Poissons Ratio (z) = 0.43643 0.50567
#
# Static dielectric constant tensor:
#      x y z
#    x 1.713780 0.000000 0.000000 
#    y 0.000000 1.718570 0.000000 
#    z 0.000000 0.000000 1.627010 
# 
# From -- ./inp_files/54182.got.cif
#   From: 2010.05.17/outbox.cif.g08.bks.cpg/sg63_28_cif.got.tgz:54182.got - 2010.06.03 15:47:04.
