data_PCOD9472655
_publ_section_title
;
Structure prediction by ZEFSAII (Michael W. Deem and Ramdas Pophale) SiO2 
 PCOD9472655
Probable space group: C M C M
;
_chemical_formula_sum "Si O2"
_cell_formula_units_Z 100
_cell_length_a 20.278875
_cell_length_b 29.571564
_cell_length_c 7.922317
_cell_angle_alpha 90.000000
_cell_angle_beta 90.000000
_cell_angle_gamma 90.000000
_cell_volume 4750.839609
_symmetry_space_group_name_H-M "C M C M"
_symmetry_group_IT_number 63
_symmetry_cell_setting 'orthorhombic'
loop_
_space_group_symop_operation_xyz
x,y,z
-x,-y,1/2+z
x,-y,-z
-x,y,1/2-z
-x,-y,-z
x,y,1/2-z
-x,y,z
x,-y,1/2+z
1/2+x,1/2+y,z
1/2-x,1/2-y,1/2+z
1/2+x,1/2-y,-z
1/2-x,1/2+y,1/2-z
1/2-x,1/2-y,-z
1/2+x,1/2+y,1/2-z
1/2-x,1/2+y,z
1/2+x,1/2-y,1/2+z
loop_
_atom_site_type_symbol
_atom_site_label
_atom_site_fract_x
_atom_site_fract_y
_atom_site_fract_z
Si Si1 0.103554 0.226876 0.061046
Si Si2 0.304425 0.198434 0.443889
Si Si3 0.000000 0.241034 0.750000
Si Si4 0.726913 0.550186 0.451167
Si Si5 0.427958 0.856177 0.447572
Si Si6 0.176027 0.854564 0.056931
Si Si7 0.620301 0.950053 0.548025
O O1 0.078132 0.236682 0.250000
O O2 0.170490 0.256299 0.034518
O O3 0.057171 0.238649 0.902520
O O4 0.123969 0.174299 0.049434
O O5 0.287498 0.207361 0.250000
O O6 0.369083 0.166634 0.452660
O O7 0.246400 0.169861 0.528443
O O8 0.703266 0.500000 0.500000
O O9 0.728623 0.553233 0.250000
O O10 0.685881 0.592764 0.516349
O O11 0.803205 0.554017 0.511405
O O12 0.421813 0.844678 0.250000
O O13 0.500000 0.841542 0.509602
O O14 0.420573 0.909789 0.467612
O O15 0.156313 0.849443 0.250000
O O16 0.618711 0.945101 0.750000
O O17 0.597175 0.000000 0.500000
#
# Coordination Sequence:
#
# PCOD9472655 Si02
#       7
#    16  16   4  16  16  16  16
#     4  12  26  46  71 100 136 177 223 273 325 396
#     4  12  24  41  62  93 130 174 222 277 328 388
#     4  12  26  52  68 106 134 176 224 264 336 398
#     4  10  20  35  58  92 128 168 210 267 334 395
#     4  11  24  38  54  80 112 160 216 268 326 387
#     4  12  23  41  66  99 137 173 221 274 333 391
#     4  10  20  35  55  77 108 153 203 261 322 382
#
# _framework density 21.048912000000001
#
# number of rings (size 3 to 8) (size 9 to 14) (size 15 to 20)
#    0.000    0.800    3.200    5.040    1.120    2.880 
#    0.000    0.000    0.000    0.000    0.000    0.560 
#    0.000    0.000    0.000    0.000    0.000    0.000 
#
# Total GULP energy -279241.120090 kJ/mol
# GULP energy per Si atom -5584.822402 kJ/mol
# Density = 2.100100 g / cm^3
# Si number density = 21.048912 Si / 1000 Ang^3
#
#
#
# Elastic Constant Matrix: (Units=GPa)
#
#
# Indices 1 2 3 4 5 6 
#
# 1 30.3494 26.5624 11.0632 0.0000 0.0000 0.0000
# 2 26.5624 133.4024 19.0739 0.0000 0.0000 0.0000
# 3 11.0632 19.0739 124.6663 0.0000 0.0000 0.0000
# 4 0.0000 0.0000 0.0000 29.0306 0.0000 0.0000
# 5 0.0000 0.0000 0.0000 0.0000 17.8177 0.0000
# 6 0.0000 0.0000 0.0000 0.0000 0.0000 6.8655
#
#
#
# Elastic Compliance Matrix: (Units=1/GPa)
#
#
# Indices 1 2 3 4 5 6 
#
# 1 0.040605 -0.007739 -0.002419 0.000000 0.000000 0.000000
# 2 -0.007739 0.009139 -0.000711 0.000000 0.000000 0.000000
# 3 -0.002419 -0.000711 0.008345 0.000000 0.000000 0.000000
# 4 0.000000 0.000000 0.000000 0.034446 0.000000 0.000000
# 5 0.000000 0.000000 0.000000 0.000000 0.056124 0.000000
# 6 0.000000 0.000000 0.000000 0.000000 0.000000 0.145655
#
#
# Mechanical properties :
#
#
# Convention : Reuss Voigt Hill
#
# Bulk Modulus (GPa) = 27.51115 44.64636 36.07875
# Shear Modulus (GPa) = 15.23601 26.19067 20.71334
#
# Velocity S-wave (km/s) = 2.69334 3.53126 3.14037
# Velocity P-wave (km/s) = 4.77186 6.15493 5.50699
#
# Compressibility (1/GPa) = 0.03634890
#
# Stress axis : x y z
#
# Youngs Moduli (GPa) = 24.62758 109.42338 119.83277
#
# Poissons Ratio (x) = 0.84684 0.28991
# Poissons Ratio (y) = 0.19060 0.08525
# Poissons Ratio (z) = 0.05958 0.07785
#
# Static dielectric constant tensor:
#      x y z
#    x 1.768040 0.000000 0.000000 
#    y 0.000000 1.812830 0.000000 
#    z 0.000000 0.000000 1.755020 
# 
# From -- ./inp_files/8742.got.cif
#   From: 2010.05.17/outbox.cif.g08.bks.cpg/sg63_5_cif.got.tgz:8742.got - 2010.06.03 15:47:04.
