data_PCOD9472552
_publ_section_title
;
Structure prediction by ZEFSAII (Michael W. Deem and Ramdas Pophale) SiO2 
 PCOD9472552
Probable space group: C M C M
;
_chemical_formula_sum "Si O2"
_cell_formula_units_Z 68
_cell_length_a 21.193426
_cell_length_b 21.106872
_cell_length_c 7.614568
_cell_angle_alpha 90.000000
_cell_angle_beta 90.000000
_cell_angle_gamma 90.000000
_cell_volume 3406.201325
_symmetry_space_group_name_H-M "C M C M"
_symmetry_group_IT_number 63
_symmetry_cell_setting 'orthorhombic'
loop_
_space_group_symop_operation_xyz
x,y,z
-x,-y,1/2+z
x,-y,-z
-x,y,1/2-z
-x,-y,-z
x,y,1/2-z
-x,y,z
x,-y,1/2+z
1/2+x,1/2+y,z
1/2-x,1/2-y,1/2+z
1/2+x,1/2-y,-z
1/2-x,1/2+y,1/2-z
1/2-x,1/2-y,-z
1/2+x,1/2+y,1/2-z
1/2-x,1/2+y,z
1/2+x,1/2-y,1/2+z
loop_
_atom_site_type_symbol
_atom_site_label
_atom_site_fract_x
_atom_site_fract_y
_atom_site_fract_z
Si Si1 0.236856 0.430351 0.959656
Si Si2 0.929737 0.739761 0.961888
Si Si3 0.906510 0.590793 0.950063
Si Si4 0.500000 0.952832 0.750000
Si Si5 0.302721 0.303019 0.961117
O O1 0.229559 0.424204 0.750000
O O2 0.278702 0.371364 0.023659
O O3 0.262981 0.500000 0.000000
O O4 0.167198 0.424827 0.040522
O O5 0.931396 0.747347 0.750000
O O6 0.915857 0.665518 0.990919
O O7 0.870726 0.780205 0.029539
O O8 0.000000 0.754733 0.029064
O O9 0.929333 0.579506 0.750000
O O10 0.945477 0.555367 0.096962
O O11 0.307807 0.306538 0.750000
O O12 0.250000 0.250000 0.000000
#
# Coordination Sequence:
#
# PCOD9472552 Si02
#       5
#    16  16  16   4  16
#     4  11  23  39  59  83 117 159 204 253 300 358
#     4   9  17  32  56  85 120 153 191 243 309 360
#     4  11  21  36  60  84 119 160 199 248 301 352
#     4  12  22  36  58  86 122 164 204 244 288 376
#     4  10  20  34  58  88 115 151 199 250 303 357
#
# _framework density 19.963588000000001
#
# number of rings (size 3 to 8) (size 9 to 14) (size 15 to 20)
#    0.000    1.647    4.706    1.059    0.000    0.941 
#    0.000    0.588    0.000    0.706    0.000    0.000 
#    0.000    0.000    0.000    0.000    0.000    0.235 
#
# Total GULP energy -189643.526463 kJ/mol
# GULP energy per Si atom -5577.750778 kJ/mol
# Density = 1.991815 g / cm^3
# Si number density = 19.963588 Si / 1000 Ang^3
#
#
#
# Elastic Constant Matrix: (Units=GPa)
#
#
# Indices 1 2 3 4 5 6 
#
# 1 144.9566 94.1484 22.0359 0.0000 0.0000 0.0000
# 2 94.1484 150.8230 29.5396 0.0000 0.0000 0.0000
# 3 22.0359 29.5396 101.3429 0.0000 0.0000 0.0000
# 4 0.0000 0.0000 0.0000 17.0029 0.0000 0.0000
# 5 0.0000 0.0000 0.0000 0.0000 39.4266 0.0000
# 6 0.0000 0.0000 0.0000 0.0000 0.0000 2.8130
#
#
#
# Elastic Compliance Matrix: (Units=1/GPa)
#
#
# Indices 1 2 3 4 5 6 
#
# 1 0.011621 -0.007169 -0.000437 0.000000 0.000000 0.000000
# 2 -0.007169 0.011454 -0.001780 0.000000 0.000000 0.000000
# 3 -0.000437 -0.001780 0.010481 0.000000 0.000000 0.000000
# 4 0.000000 0.000000 0.000000 0.058813 0.000000 0.000000
# 5 0.000000 0.000000 0.000000 0.000000 0.025364 0.000000
# 6 0.000000 0.000000 0.000000 0.000000 0.000000 0.355498
#
#
# Mechanical properties :
#
#
# Convention : Reuss Voigt Hill
#
# Bulk Modulus (GPa) = 67.63777 76.50783 72.07280
# Shear Modulus (GPa) = 10.06176 28.60840 19.33508
#
# Velocity S-wave (km/s) = 2.24744 3.78964 3.11548
# Velocity P-wave (km/s) = 6.37878 7.58653 7.00872
#
# Compressibility (1/GPa) = 0.01478464
#
# Stress axis : x y z
#
# Youngs Moduli (GPa) = 86.05083 87.30794 95.40728
#
# Poissons Ratio (x) = 0.62587 0.04173
# Poissons Ratio (y) = 0.61686 0.16981
# Poissons Ratio (z) = 0.03764 0.15539
#
# Static dielectric constant tensor:
#      x y z
#    x 1.696770 0.000000 0.000000 
#    y 0.000000 1.739930 0.000000 
#    z 0.000000 0.000000 1.756780 
# 
# From -- ./inp_files/5834.got.cif
#   From: 2010.05.17/outbox.cif.g08.bks.cpg/sg63_3_cif.got.tgz:5834.got - 2010.06.03 15:47:04.
