data_PCOD9472756
_publ_section_title
;
Structure prediction by ZEFSAII (Michael W. Deem and Ramdas Pophale) SiO2 
 PCOD9472756
Probable space group: C M C M
;
_chemical_formula_sum "Si O2"
_cell_formula_units_Z 64
_cell_length_a 11.606865
_cell_length_b 9.362983
_cell_length_c 27.556795
_cell_angle_alpha 90.000000
_cell_angle_beta 90.000000
_cell_angle_gamma 90.000000
_cell_volume 2994.731381
_symmetry_space_group_name_H-M "C M C M"
_symmetry_group_IT_number 63
_symmetry_cell_setting 'orthorhombic'
loop_
_space_group_symop_operation_xyz
x,y,z
-x,-y,1/2+z
x,-y,-z
-x,y,1/2-z
-x,-y,-z
x,y,1/2-z
-x,y,z
x,-y,1/2+z
1/2+x,1/2+y,z
1/2-x,1/2-y,1/2+z
1/2+x,1/2-y,-z
1/2-x,1/2+y,1/2-z
1/2-x,1/2-y,-z
1/2+x,1/2+y,1/2-z
1/2-x,1/2+y,z
1/2+x,1/2-y,1/2+z
loop_
_atom_site_type_symbol
_atom_site_label
_atom_site_fract_x
_atom_site_fract_y
_atom_site_fract_z
Si Si1 0.132862 0.903307 0.691879
Si Si2 0.678241 0.877989 0.564009
Si Si3 0.131102 0.232095 0.662482
Si Si4 0.125253 0.688345 0.546457
O O1 0.133118 0.921126 0.750000
O O2 0.145559 0.061764 0.668810
O O3 0.000000 0.851491 0.679379
O O4 0.248581 0.808718 0.680437
O O5 0.625445 0.788523 0.607319
O O6 0.808150 0.829017 0.558745
O O7 0.626053 0.838356 0.511451
O O8 0.675505 0.046249 0.570056
O O9 0.000000 0.265119 0.683407
O O10 0.000000 0.699980 0.565896
#
# Coordination Sequence:
#
# PCOD9472756 Si02
#       4
#    16  16  16  16
#     4  10  23  41  59  83 114 145 182 234 291 346
#     4  10  20  35  56  83 112 150 192 231 278 329
#     4  11  22  38  62  88 115 149 192 237 284 342
#     4  10  20  36  54  77 117 155 188 232 277 325
#
# _framework density 21.370864999999998
#
# number of rings (size 3 to 8) (size 9 to 14) (size 15 to 20)
#    0.000    1.750    0.000    5.250    0.000    3.500 
#    0.000   12.500    0.000    0.000    0.000    0.000 
#    0.000    0.000    0.000    0.000    0.000    0.000 
#
# Total GULP energy -178242.315361 kJ/mol
# GULP energy per Si atom -5570.072355 kJ/mol
# Density = 2.132222 g / cm^3
# Si number density = 21.370865 Si / 1000 Ang^3
#
#
#
# Elastic Constant Matrix: (Units=GPa)
#
#
# Indices 1 2 3 4 5 6 
#
# 1 241.0624 16.5001 -3.1751 0.0000 0.0000 0.0000
# 2 16.5001 217.6637 31.3880 0.0000 0.0000 0.0000
# 3 -3.1751 31.3880 58.9821 0.0000 0.0000 0.0000
# 4 0.0000 0.0000 0.0000 25.1764 0.0000 0.0000
# 5 0.0000 0.0000 0.0000 0.0000 74.8474 0.0000
# 6 0.0000 0.0000 0.0000 0.0000 0.0000 -141.9977
#
#
#
# Elastic Compliance Matrix: (Units=1/GPa)
#
#
# Indices 1 2 3 4 5 6 
#
# 1 0.004180 -0.000378 0.000426 0.000000 0.000000 0.000000
# 2 -0.000378 0.005010 -0.002687 0.000000 0.000000 0.000000
# 3 0.000426 -0.002687 0.018407 0.000000 0.000000 0.000000
# 4 0.000000 0.000000 0.000000 0.039720 0.000000 0.000000
# 5 0.000000 0.000000 0.000000 0.000000 0.013361 0.000000
# 6 0.000000 0.000000 0.000000 0.000000 0.000000 -0.007042
#
#
# Mechanical properties :
#
#
# Convention : Reuss Voigt Hill
#
# Bulk Modulus (GPa) = 44.80325 67.45937 56.13131
# Shear Modulus (GPa) = 57.90230 23.13823 40.52027
#
# Velocity S-wave (km/s) = 5.21084 3.29401 4.35909
# Velocity P-wave (km/s) = 7.56399 6.78984 7.18735
#
# Compressibility (1/GPa) = 0.02231981
#
# Stress axis : x y z
#
# Youngs Moduli (GPa) = 239.24506 199.58669 54.32716
#
# Poissons Ratio (x) = 0.07551 -0.02316
# Poissons Ratio (y) = 0.09051 0.14596
# Poissons Ratio (z) = -0.10200 0.53623
#
# Static dielectric constant tensor:
#      x y z
#    x 1.830450 0.000000 0.000000 
#    y 0.000000 1.702250 0.000000 
#    z 0.000000 0.000000 1.783420 
# 
# From -- ./inp_files/72362.got.cif
#   From: 2010.05.17/outbox.cif.g08.bks.cpg/sg63_37_cif.got.tgz:72362.got - 2010.06.03 15:47:04.
