data_PCOD9472004
_publ_section_title
;
Structure prediction by ZEFSAII (Michael W. Deem and Ramdas Pophale) SiO2 
 PCOD9472004
Probable space group: C M C M
;
_chemical_formula_sum "Si O2"
_cell_formula_units_Z 96
_cell_length_a 23.826286
_cell_length_b 13.956429
_cell_length_c 17.765431
_cell_angle_alpha 90.000000
_cell_angle_beta 90.000000
_cell_angle_gamma 90.000000
_cell_volume 5907.536441
_symmetry_space_group_name_H-M "C M C M"
_symmetry_group_IT_number 63
_symmetry_cell_setting 'orthorhombic'
loop_
_space_group_symop_operation_xyz
x,y,z
-x,-y,1/2+z
x,-y,-z
-x,y,1/2-z
-x,-y,-z
x,y,1/2-z
-x,y,z
x,-y,1/2+z
1/2+x,1/2+y,z
1/2-x,1/2-y,1/2+z
1/2+x,1/2-y,-z
1/2-x,1/2+y,1/2-z
1/2-x,1/2-y,-z
1/2+x,1/2+y,1/2-z
1/2-x,1/2+y,z
1/2+x,1/2-y,1/2+z
loop_
_atom_site_type_symbol
_atom_site_label
_atom_site_fract_x
_atom_site_fract_y
_atom_site_fract_z
Si Si1 0.565246 0.937296 0.575142
Si Si2 0.328049 0.222490 0.903128
Si Si3 0.668423 0.800518 0.579779
Si Si4 0.564001 0.126045 0.661373
Si Si5 0.771641 0.903466 0.840708
Si Si6 0.781630 0.875392 0.160734
O O1 0.500000 0.907957 0.570231
O O2 0.607971 0.850450 0.584207
O O3 0.578271 0.000000 0.500000
O O4 0.571804 0.014023 0.642117
O O5 0.389434 0.185234 0.882658
O O6 0.317076 0.329146 0.872851
O O7 0.280963 0.158387 0.861823
O O8 0.317924 0.213079 0.991886
O O9 0.713709 0.870337 0.619836
O O10 0.676598 0.697748 0.619262
O O11 0.570178 0.142476 0.750000
O O12 0.500000 0.149782 0.638515
O O13 0.766682 0.893672 0.750000
O O14 0.786595 0.012924 0.858700
O O15 0.788447 0.864580 0.250000
#
# Coordination Sequence:
#
# PCOD9472004 Si02
#       6
#    16  16  16  16  16  16
#     4  10  20  35  52  75 107 137 166 204 257 308
#     4  11  20  32  51  76 104 135 168 212 263 308
#     4  11  21  31  53  78 101 136 172 210 258 312
#     4  10  20  33  52  77 103 134 172 211 252 306
#     4  10  21  35  52  73 104 141 174 215 261 307
#     4  10  21  35  50  72 102 135 172 213 254 306
#
# _framework density 16.250429
#
# number of rings (size 3 to 8) (size 9 to 14) (size 15 to 20)
#    0.000    1.667    1.667    6.000    0.000    4.667 
#    0.000    0.000    0.000    1.000    0.000    4.667 
#    0.000    0.000    0.000    0.000    0.000    0.000 
#
# Total GULP energy -267882.657316 kJ/mol
# GULP energy per Si atom -5580.888694 kJ/mol
# Density = 1.621344 g / cm^3
# Si number density = 16.250429 Si / 1000 Ang^3
#
#
#
# Elastic Constant Matrix: (Units=GPa)
#
#
# Indices 1 2 3 4 5 6 
#
# 1 98.7000 72.9806 43.3493 0.0000 0.0000 0.0000
# 2 72.9806 134.6141 48.6836 0.0000 0.0000 0.0000
# 3 43.3493 48.6836 76.2850 0.0000 0.0000 0.0000
# 4 0.0000 0.0000 0.0000 23.1445 0.0000 0.0000
# 5 0.0000 0.0000 0.0000 0.0000 21.3174 0.0000
# 6 0.0000 0.0000 0.0000 0.0000 0.0000 20.3758
#
#
#
# Elastic Compliance Matrix: (Units=1/GPa)
#
#
# Indices 1 2 3 4 5 6 
#
# 1 0.018439 -0.008070 -0.005328 0.000000 0.000000 0.000000
# 2 -0.008070 0.013189 -0.003832 0.000000 0.000000 0.000000
# 3 -0.005328 -0.003832 0.018582 0.000000 0.000000 0.000000
# 4 0.000000 0.000000 0.000000 0.043207 0.000000 0.000000
# 5 0.000000 0.000000 0.000000 0.000000 0.046910 0.000000
# 6 0.000000 0.000000 0.000000 0.000000 0.000000 0.049078
#
#
# Mechanical properties :
#
#
# Convention : Reuss Voigt Hill
#
# Bulk Modulus (GPa) = 63.48702 71.06958 67.27830
# Shear Modulus (GPa) = 21.82335 22.60658 22.21496
#
# Velocity S-wave (km/s) = 3.66859 3.73384 3.70136
# Velocity P-wave (km/s) = 7.55629 7.90049 7.73030
#
# Compressibility (1/GPa) = 0.01575125
#
# Stress axis : x y z
#
# Youngs Moduli (GPa) = 54.23427 75.81958 53.81669
#
# Poissons Ratio (x) = 0.61183 0.28673
# Poissons Ratio (y) = 0.43764 0.20620
# Poissons Ratio (z) = 0.28896 0.29051
#
# Static dielectric constant tensor:
#      x y z
#    x 1.535220 0.000000 0.000000 
#    y 0.000000 1.537490 0.000000 
#    z 0.000000 0.000000 1.568960 
# 
# From -- ./inp_files/48050.got.cif
#   From: 2010.05.17/outbox.cif.g08.bks.cpg/sg63_25_cif.got.tgz:48050.got - 2010.06.03 15:47:04.
