data_PCOD9472751
_publ_section_title
;
Structure prediction by ZEFSAII (Michael W. Deem and Ramdas Pophale) SiO2 
 PCOD9472751
Probable space group: C M C M
;
_chemical_formula_sum "Si O2"
_cell_formula_units_Z 84
_cell_length_a 23.045375
_cell_length_b 7.490087
_cell_length_c 22.827670
_cell_angle_alpha 90.000000
_cell_angle_beta 90.000000
_cell_angle_gamma 90.000000
_cell_volume 3940.326663
_symmetry_space_group_name_H-M "C M C M"
_symmetry_group_IT_number 63
_symmetry_cell_setting 'orthorhombic'
loop_
_space_group_symop_operation_xyz
x,y,z
-x,-y,1/2+z
x,-y,-z
-x,y,1/2-z
-x,-y,-z
x,y,1/2-z
-x,y,z
x,-y,1/2+z
1/2+x,1/2+y,z
1/2-x,1/2-y,1/2+z
1/2+x,1/2-y,-z
1/2-x,1/2+y,1/2-z
1/2-x,1/2-y,-z
1/2+x,1/2+y,1/2-z
1/2-x,1/2+y,z
1/2+x,1/2-y,1/2+z
loop_
_atom_site_type_symbol
_atom_site_label
_atom_site_fract_x
_atom_site_fract_y
_atom_site_fract_z
Si Si1 0.565556 0.675400 0.898212
Si Si2 0.331542 0.557577 0.817045
Si Si3 0.000000 0.356719 0.250000
Si Si4 0.707282 0.851982 0.183360
Si Si5 0.412437 0.925381 0.141186
Si Si6 0.069788 0.696546 0.518777
O O1 0.500000 0.601406 0.893335
O O2 0.611881 0.592339 0.854827
O O3 0.586280 0.673028 0.965757
O O4 0.562426 0.885423 0.880624
O O5 0.341883 0.619692 0.750000
O O6 0.316736 0.348320 0.815644
O O7 0.272115 0.644010 0.841593
O O8 0.051107 0.364492 0.302180
O O9 0.714183 0.918577 0.250000
O O10 0.655201 0.960080 0.154625
O O11 0.415115 0.786550 0.086917
O O12 0.092001 0.500000 0.500000
O O13 0.000000 0.693821 0.516193
#
# Coordination Sequence:
#
# PCOD9472751 Si02
#       6
#    16  16   4  16  16  16
#     4  10  20  35  56  82 114 147 186 225 272 325
#     4  10  22  38  56  79 110 145 187 230 282 330
#     4  12  20  28  54  94 122 136 186 226 270 332
#     4  10  21  38  56  80 111 148 182 231 282 335
#     4  11  19  33  56  86 115 143 185 223 273 327
#     4   8  15  31  51  76 110 151 182 219 265 323
#
# _framework density 21.318028000000002
#
# number of rings (size 3 to 8) (size 9 to 14) (size 15 to 20)
#    0.000    2.095    2.857    2.286    1.333    1.905 
#    1.714    1.905    0.000    2.286    0.000    0.000 
#    0.000    0.000    0.000    0.000    0.000    0.000 
#
# Total GULP energy -233877.514397 kJ/mol
# GULP energy per Si atom -5568.512248 kJ/mol
# Density = 2.126951 g / cm^3
# Si number density = 21.318028 Si / 1000 Ang^3
#
#
#
# Elastic Constant Matrix: (Units=GPa)
#
#
# Indices 1 2 3 4 5 6 
#
# 1 131.6644 33.4094 64.6101 0.0000 0.0000 0.0000
# 2 33.4094 33.6439 22.7190 0.0000 0.0000 0.0000
# 3 64.6101 22.7190 159.2727 0.0000 0.0000 0.0000
# 4 0.0000 0.0000 0.0000 20.7794 0.0000 0.0000
# 5 0.0000 0.0000 0.0000 0.0000 22.7007 0.0000
# 6 0.0000 0.0000 0.0000 0.0000 0.0000 24.8106
#
#
#
# Elastic Compliance Matrix: (Units=1/GPa)
#
#
# Indices 1 2 3 4 5 6 
#
# 1 0.011601 -0.009231 -0.003389 0.000000 0.000000 0.000000
# 2 -0.009231 0.040237 -0.001995 0.000000 0.000000 0.000000
# 3 -0.003389 -0.001995 0.007938 0.000000 0.000000 0.000000
# 4 0.000000 0.000000 0.000000 0.048125 0.000000 0.000000
# 5 0.000000 0.000000 0.000000 0.000000 0.044052 0.000000
# 6 0.000000 0.000000 0.000000 0.000000 0.000000 0.040305
#
#
# Mechanical properties :
#
#
# Convention : Reuss Voigt Hill
#
# Bulk Modulus (GPa) = 32.73827 62.89532 47.81680
# Shear Modulus (GPa) = 21.58256 27.24763 24.41510
#
# Velocity S-wave (km/s) = 3.18529 3.57900 3.38787
# Velocity P-wave (km/s) = 5.37759 6.82982 6.14674
#
# Compressibility (1/GPa) = 0.03054529
#
# Stress axis : x y z
#
# Youngs Moduli (GPa) = 86.20317 24.85285 125.97799
#
# Poissons Ratio (x) = 0.22942 0.42695
# Poissons Ratio (y) = 0.79575 0.25130
# Poissons Ratio (z) = 0.29215 0.04958
#
# Static dielectric constant tensor:
#      x y z
#    x 1.766250 0.000000 0.000000 
#    y 0.000000 1.857260 0.000000 
#    z 0.000000 0.000000 1.798950 
# 
# From -- ./inp_files/57265.got.cif
#   From: 2010.05.17/outbox.cif.g08.bks.cpg/sg63_29_cif.got.tgz:57265.got - 2010.06.03 15:47:04.
