data_PCOD9472880
_publ_section_title
;
Structure prediction by ZEFSAII (Michael W. Deem and Ramdas Pophale) SiO2 
 PCOD9472880
Probable space group: C M C M
;
_chemical_formula_sum "Si O2"
_cell_formula_units_Z 104
_cell_length_a 22.056518
_cell_length_b 29.001151
_cell_length_c 8.571059
_cell_angle_alpha 90.000000
_cell_angle_beta 90.000000
_cell_angle_gamma 90.000000
_cell_volume 5482.601390
_symmetry_space_group_name_H-M "C M C M"
_symmetry_group_IT_number 63
_symmetry_cell_setting 'orthorhombic'
loop_
_space_group_symop_operation_xyz
x,y,z
-x,-y,1/2+z
x,-y,-z
-x,y,1/2-z
-x,-y,-z
x,y,1/2-z
-x,y,z
x,-y,1/2+z
1/2+x,1/2+y,z
1/2-x,1/2-y,1/2+z
1/2+x,1/2-y,-z
1/2-x,1/2+y,1/2-z
1/2-x,1/2-y,-z
1/2+x,1/2+y,1/2-z
1/2-x,1/2+y,z
1/2+x,1/2-y,1/2+z
loop_
_atom_site_type_symbol
_atom_site_label
_atom_site_fract_x
_atom_site_fract_y
_atom_site_fract_z
Si Si1 0.623529 0.901617 0.936611
Si Si2 0.678615 0.192440 0.564363
Si Si3 0.500000 0.947069 0.437347
Si Si4 0.153705 0.881273 0.931071
Si Si5 0.818252 0.211067 0.565968
Si Si6 0.243214 0.449036 0.063291
Si Si7 0.572378 0.547974 0.927467
O O1 0.622365 0.904781 0.750000
O O2 0.642638 0.849441 0.985472
O O3 0.559776 0.919857 0.003655
O O4 0.677079 0.933638 0.004184
O O5 0.677299 0.184888 0.750000
O O6 0.749604 0.196625 0.514420
O O7 0.657078 0.243775 0.520285
O O8 0.500000 0.948521 0.250000
O O9 0.500000 0.000000 0.500000
O O10 0.164374 0.871427 0.750000
O O11 0.145229 0.834456 0.025921
O O12 0.209136 0.911755 0.998025
O O13 0.095428 0.912388 0.960662
O O14 0.815839 0.220606 0.750000
O O15 0.244699 0.448618 0.250000
O O16 0.256950 0.500000 0.000000
O O17 0.595420 0.553866 0.750000
O O18 0.500000 0.546968 0.921462
O O19 0.593966 0.500000 0.000000
#
# Coordination Sequence:
#
# PCOD9472880 Si02
#       7
#    16  16   8  16  16  16  16
#     4  12  24  41  64  91 122 159 203 250 306 364
#     4  10  20  36  60  89 121 157 195 240 294 353
#     4  12  26  46  68  92 124 164 212 260 311 372
#     4  12  23  36  57  86 119 155 194 242 295 351
#     4  10  20  35  58  88 123 157 195 241 293 352
#     4  12  24  39  57  84 120 157 196 243 298 356
#     4  10  21  38  59  82 112 152 196 239 286 345
#
# _framework density 18.969097000000001
#
# number of rings (size 3 to 8) (size 9 to 14) (size 15 to 20)
#    0.000    0.923    1.538    7.154    0.000    2.154 
#    0.000    0.000    1.692    0.000    0.000    0.000 
#    0.000    0.000    0.000    0.000    0.000    0.000 
#
# Total GULP energy -290636.801129 kJ/mol
# GULP energy per Si atom -5589.169252 kJ/mol
# Density = 1.892592 g / cm^3
# Si number density = 18.969097 Si / 1000 Ang^3
#
#
#
# Elastic Constant Matrix: (Units=GPa)
#
#
# Indices 1 2 3 4 5 6 
#
# 1 64.6410 27.1551 27.6312 0.0000 0.0000 0.0000
# 2 27.1551 112.7776 6.7002 0.0000 0.0000 0.0000
# 3 27.6312 6.7002 101.7276 0.0000 0.0000 0.0000
# 4 0.0000 0.0000 0.0000 37.6424 0.0000 0.0000
# 5 0.0000 0.0000 0.0000 0.0000 27.4998 0.0000
# 6 0.0000 0.0000 0.0000 0.0000 0.0000 19.3065
#
#
#
# Elastic Compliance Matrix: (Units=1/GPa)
#
#
# Indices 1 2 3 4 5 6 
#
# 1 0.019447 -0.004386 -0.004993 0.000000 0.000000 0.000000
# 2 -0.004386 0.009891 0.000540 0.000000 0.000000 0.000000
# 3 -0.004993 0.000540 0.011151 0.000000 0.000000 0.000000
# 4 0.000000 0.000000 0.000000 0.026566 0.000000 0.000000
# 5 0.000000 0.000000 0.000000 0.000000 0.036364 0.000000
# 6 0.000000 0.000000 0.000000 0.000000 0.000000 0.051796
#
#
# Mechanical properties :
#
#
# Convention : Reuss Voigt Hill
#
# Bulk Modulus (GPa) = 43.84013 44.67990 44.26001
# Shear Modulus (GPa) = 27.70136 31.40040 29.55088
#
# Velocity S-wave (km/s) = 3.82559 4.07301 3.95123
# Velocity P-wave (km/s) = 6.53261 6.76198 6.64828
#
# Compressibility (1/GPa) = 0.02281015
#
# Stress axis : x y z
#
# Youngs Moduli (GPa) = 51.42194 101.10214 89.67891
#
# Poissons Ratio (x) = 0.44342 0.44779
# Poissons Ratio (y) = 0.22553 -0.04841
# Poissons Ratio (z) = 0.25677 -0.05458
#
# Static dielectric constant tensor:
#      x y z
#    x 1.666000 0.000000 0.000000 
#    y 0.000000 1.697420 0.000000 
#    z 0.000000 0.000000 1.643750 
# 
# From -- ./inp_files/8759.got.cif
#   From: 2010.05.17/outbox.cif.g08.bks.cpg/sg63_5_cif.got.tgz:8759.got - 2010.06.03 15:47:04.
