data_PCOD9472212
_publ_section_title
;
Structure prediction by ZEFSAII (Michael W. Deem and Ramdas Pophale) SiO2 
 PCOD9472212
Probable space group: C M C M
;
_chemical_formula_sum "Si O2"
_cell_formula_units_Z 104
_cell_length_a 21.332504
_cell_length_b 27.883463
_cell_length_c 9.376919
_cell_angle_alpha 90.000000
_cell_angle_beta 90.000000
_cell_angle_gamma 90.000000
_cell_volume 5577.617273
_symmetry_space_group_name_H-M "C M C M"
_symmetry_group_IT_number 63
_symmetry_cell_setting 'orthorhombic'
loop_
_space_group_symop_operation_xyz
x,y,z
-x,-y,1/2+z
x,-y,-z
-x,y,1/2-z
-x,-y,-z
x,y,1/2-z
-x,y,z
x,-y,1/2+z
1/2+x,1/2+y,z
1/2-x,1/2-y,1/2+z
1/2+x,1/2-y,-z
1/2-x,1/2+y,1/2-z
1/2-x,1/2-y,-z
1/2+x,1/2+y,1/2-z
1/2-x,1/2+y,z
1/2+x,1/2-y,1/2+z
loop_
_atom_site_type_symbol
_atom_site_label
_atom_site_fract_x
_atom_site_fract_y
_atom_site_fract_z
Si Si1 0.172526 0.547006 0.417107
Si Si2 0.403895 0.633271 0.080920
Si Si3 0.072906 0.602971 0.584592
Si Si4 0.000000 0.949687 0.580261
Si Si5 0.756312 0.858544 0.584062
Si Si6 0.842275 0.301481 0.416195
Si Si7 0.929994 0.229470 0.580298
O O1 0.193959 0.500000 0.500000
O O2 0.166525 0.537280 0.250000
O O3 0.107260 0.565139 0.483866
O O4 0.220146 0.591248 0.436934
O O5 0.415391 0.642939 0.250000
O O6 0.439816 0.583935 0.047055
O O7 0.329369 0.632687 0.058113
O O8 0.429022 0.676481 0.985599
O O9 0.078194 0.587497 0.750000
O O10 0.110511 0.652963 0.572999
O O11 0.000000 0.609339 0.550279
O O12 0.000000 0.958492 0.750000
O O13 0.000000 0.000000 0.500000
O O14 0.748011 0.844403 0.750000
O O15 0.722697 0.819296 0.485232
O O16 0.834779 0.288911 0.250000
O O17 0.876039 0.259470 0.502493
O O18 0.920280 0.228645 0.750000
O O19 0.000000 0.250170 0.553033
#
# Coordination Sequence:
#
# PCOD9472212 Si02
#       7
#    16  16  16   8  16  16  16
#     4  10  20  34  52  75 104 139 180 226 278 333
#     4  10  21  40  63  86 114 150 190 233 285 343
#     4   9  18  33  52  75 104 139 183 231 275 324
#     4  10  22  40  64  92 120 152 192 240 297 358
#     4   9  20  38  58  81 112 147 188 238 286 339
#     4  10  20  35  57  84 114 152 193 232 281 339
#     4  11  23  37  57  86 119 153 191 236 284 336
#
# _framework density 18.645955000000001
#
# number of rings (size 3 to 8) (size 9 to 14) (size 15 to 20)
#    0.000    2.154    0.769    1.846    0.000    5.846 
#    0.000    0.000    0.000    0.000    0.000    0.000 
#    0.000    0.000    0.000    0.000    0.000    0.000 
#
# Total GULP energy -290334.831905 kJ/mol
# GULP energy per Si atom -5583.362152 kJ/mol
# Density = 1.860352 g / cm^3
# Si number density = 18.645955 Si / 1000 Ang^3
#
#
#
# Elastic Constant Matrix: (Units=GPa)
#
#
# Indices 1 2 3 4 5 6 
#
# 1 124.0709 41.4192 62.4560 0.0000 0.0000 0.0000
# 2 41.4192 94.1383 71.3206 0.0000 0.0000 0.0000
# 3 62.4560 71.3206 95.1935 0.0000 0.0000 0.0000
# 4 0.0000 0.0000 0.0000 36.0896 0.0000 0.0000
# 5 0.0000 0.0000 0.0000 0.0000 24.0730 0.0000
# 6 0.0000 0.0000 0.0000 0.0000 0.0000 10.3829
#
#
#
# Elastic Compliance Matrix: (Units=1/GPa)
#
#
# Indices 1 2 3 4 5 6 
#
# 1 0.012138 0.001603 -0.009165 0.000000 0.000000 0.000000
# 2 0.001603 0.024779 -0.019617 0.000000 0.000000 0.000000
# 3 -0.009165 -0.019617 0.031215 0.000000 0.000000 0.000000
# 4 0.000000 0.000000 0.000000 0.027709 0.000000 0.000000
# 5 0.000000 0.000000 0.000000 0.000000 0.041540 0.000000
# 6 0.000000 0.000000 0.000000 0.000000 0.000000 0.096312
#
#
# Mechanical properties :
#
#
# Convention : Reuss Voigt Hill
#
# Bulk Modulus (GPa) = 72.59336 73.75493 73.17414
# Shear Modulus (GPa) = 17.08567 23.32287 20.20427
#
# Velocity S-wave (km/s) = 3.03036 3.54054 3.29534
# Velocity P-wave (km/s) = 7.15969 7.50701 7.33541
#
# Compressibility (1/GPa) = 0.01377537
#
# Stress axis : x y z
#
# Youngs Moduli (GPa) = 82.38431 40.35607 32.03608
#
# Poissons Ratio (x) = -0.06467 0.29359
# Poissons Ratio (y) = -0.13203 0.62844
# Poissons Ratio (z) = 0.75501 0.79165
#
# Static dielectric constant tensor:
#      x y z
#    x 1.650570 0.000000 0.000000 
#    y 0.000000 1.629840 0.000000 
#    z 0.000000 0.000000 1.623390 
# 
# From -- ./inp_files/8825.got.cif
#   From: 2010.05.17/outbox.cif.g08.bks.cpg/sg63_5_cif.got.tgz:8825.got - 2010.06.03 15:47:04.
