data_PCOD9472471
_publ_section_title
;
Structure prediction by ZEFSAII (Michael W. Deem and Ramdas Pophale) SiO2 
 PCOD9472471
Probable space group: C M C M
;
_chemical_formula_sum "Si O2"
_cell_formula_units_Z 96
_cell_length_a 7.836386
_cell_length_b 21.251231
_cell_length_c 28.669676
_cell_angle_alpha 90.000000
_cell_angle_beta 90.000000
_cell_angle_gamma 90.000000
_cell_volume 4774.442827
_symmetry_space_group_name_H-M "C M C M"
_symmetry_group_IT_number 63
_symmetry_cell_setting 'orthorhombic'
loop_
_space_group_symop_operation_xyz
x,y,z
-x,-y,1/2+z
x,-y,-z
-x,y,1/2-z
-x,-y,-z
x,y,1/2-z
-x,y,z
x,-y,1/2+z
1/2+x,1/2+y,z
1/2-x,1/2-y,1/2+z
1/2+x,1/2-y,-z
1/2-x,1/2+y,1/2-z
1/2-x,1/2-y,-z
1/2+x,1/2+y,1/2-z
1/2-x,1/2+y,z
1/2+x,1/2-y,1/2+z
loop_
_atom_site_type_symbol
_atom_site_label
_atom_site_fract_x
_atom_site_fract_y
_atom_site_fract_z
Si Si1 0.800557 0.611503 0.052874
Si Si2 0.709615 0.760109 0.899587
Si Si3 0.801958 0.866105 0.050803
Si Si4 0.294548 0.193540 0.301925
Si Si5 0.300166 0.987092 0.397230
Si Si6 0.795784 0.952582 0.697301
O O1 0.731721 0.676087 0.074834
O O2 0.727754 0.547188 0.074168
O O3 0.000000 0.610387 0.066253
O O4 0.785510 0.614626 0.997428
O O5 0.500000 0.758814 0.900106
O O6 0.767639 0.698029 0.926605
O O7 0.764411 0.765256 0.845664
O O8 0.000000 0.855536 0.039189
O O9 0.787291 0.923035 0.087113
O O10 0.229238 0.209373 0.250000
O O11 0.500000 0.197888 0.300653
O O12 0.250881 0.120483 0.311406
O O13 0.500000 0.979699 0.408667
O O14 0.280286 0.004702 0.343181
O O15 0.737649 0.967639 0.750000
O O16 0.000000 0.958137 0.695749
#
# Coordination Sequence:
#
# PCOD9472471 Si02
#       6
#    16  16  16  16  16  16
#     4  10  20  37  58  78 104 143 192 233 269 322
#     4   9  18  35  55  80 111 144 182 225 271 325
#     4  11  23  36  53  79 115 148 182 231 281 328
#     4   9  16  31  57  83 106 139 182 220 261 321
#     4  11  22  38  59  80 108 147 186 225 270 327
#     4  10  20  34  55  85 115 139 172 224 277 320
#
# _framework density 20.107057000000001
#
# number of rings (size 3 to 8) (size 9 to 14) (size 15 to 20)
#    0.000    2.000    1.667    2.500    0.000    4.333 
#    0.000    3.333    0.000    3.000    0.000    0.000 
#    0.000    0.000    0.000    0.000    0.000    0.000 
#
# Total GULP energy -268024.107832 kJ/mol
# GULP energy per Si atom -5583.835580 kJ/mol
# Density = 2.006129 g / cm^3
# Si number density = 20.107057 Si / 1000 Ang^3
#
#
#
# Elastic Constant Matrix: (Units=GPa)
#
#
# Indices 1 2 3 4 5 6 
#
# 1 25.7206 -1.5950 -11.7972 0.0000 0.0000 0.0000
# 2 -1.5950 58.2600 11.4541 0.0000 0.0000 0.0000
# 3 -11.7972 11.4541 87.4214 0.0000 0.0000 0.0000
# 4 0.0000 0.0000 0.0000 -1.6110 0.0000 0.0000
# 5 0.0000 0.0000 0.0000 0.0000 16.3536 0.0000
# 6 0.0000 0.0000 0.0000 0.0000 0.0000 16.9079
#
#
#
# Elastic Compliance Matrix: (Units=1/GPa)
#
#
# Indices 1 2 3 4 5 6 
#
# 1 0.041445 0.000036 0.005588 0.000000 0.000000 0.000000
# 2 0.000036 0.017618 -0.002304 0.000000 0.000000 0.000000
# 3 0.005588 -0.002304 0.012495 0.000000 0.000000 0.000000
# 4 0.000000 0.000000 0.000000 -0.620741 0.000000 0.000000
# 5 0.000000 0.000000 0.000000 0.000000 0.061149 0.000000
# 6 0.000000 0.000000 0.000000 0.000000 0.000000 0.059144
#
#
# Mechanical properties :
#
#
# Convention : Reuss Voigt Hill
#
# Bulk Modulus (GPa) = 12.78792 18.61399 15.70095
# Shear Modulus (GPa) = -12.21105 17.88611 2.83753
#
# Velocity S-wave (km/s) = -2.46702 2.98576 1.18923
# Velocity P-wave (km/s) = 1.31955 4.60042 3.11630
#
# Compressibility (1/GPa) = 0.07819880
#
# Stress axis : x y z
#
# Youngs Moduli (GPa) = 24.12856 56.75918 80.03364
#
# Poissons Ratio (x) = -0.00204 -0.44723
# Poissons Ratio (y) = -0.00087 0.18436
# Poissons Ratio (z) = -0.13483 0.13075
#
# Static dielectric constant tensor:
#      x y z
#    x 1.731400 0.000000 0.000000 
#    y 0.000000 1.683220 0.000000 
#    z 0.000000 0.000000 1.714460 
# 
# From -- ./inp_files/59935.got.cif
#   From: 2010.05.17/outbox.cif.g08.bks.cpg/sg63_30_cif.got.tgz:59935.got - 2010.06.03 15:47:04.
