data_PCOD9472634
_publ_section_title
;
Structure prediction by ZEFSAII (Michael W. Deem and Ramdas Pophale) SiO2 
 PCOD9472634
Probable space group: C M C M
;
_chemical_formula_sum "Si O2"
_cell_formula_units_Z 104
_cell_length_a 20.687891
_cell_length_b 30.118117
_cell_length_c 8.840339
_cell_angle_alpha 90.000000
_cell_angle_beta 90.000000
_cell_angle_gamma 90.000000
_cell_volume 5508.241267
_symmetry_space_group_name_H-M "C M C M"
_symmetry_group_IT_number 63
_symmetry_cell_setting 'orthorhombic'
loop_
_space_group_symop_operation_xyz
x,y,z
-x,-y,1/2+z
x,-y,-z
-x,y,1/2-z
-x,-y,-z
x,y,1/2-z
-x,y,z
x,-y,1/2+z
1/2+x,1/2+y,z
1/2-x,1/2-y,1/2+z
1/2+x,1/2-y,-z
1/2-x,1/2+y,1/2-z
1/2-x,1/2-y,-z
1/2+x,1/2+y,1/2-z
1/2-x,1/2+y,z
1/2+x,1/2-y,1/2+z
loop_
_atom_site_type_symbol
_atom_site_label
_atom_site_fract_x
_atom_site_fract_y
_atom_site_fract_z
Si Si1 0.326983 0.800943 0.931025
Si Si2 0.122916 0.388713 0.067547
Si Si3 0.500000 0.950002 0.432876
Si Si4 0.322416 0.295029 0.569462
Si Si5 0.071362 0.142071 0.567984
Si Si6 0.386161 0.453943 0.068780
Si Si7 0.263629 0.046598 0.568112
O O1 0.331765 0.800699 0.750000
O O2 0.251192 0.808002 0.974128
O O3 0.371651 0.839851 0.997197
O O4 0.340877 0.752077 0.995418
O O5 0.121404 0.384561 0.250000
O O6 0.062749 0.420349 0.024155
O O7 0.188429 0.414438 0.021723
O O8 0.500000 0.954356 0.250000
O O9 0.500000 0.000000 0.500000
O O10 0.323982 0.290625 0.750000
O O11 0.372405 0.331301 0.512323
O O12 0.080048 0.144877 0.750000
O O13 0.076246 0.090270 0.526161
O O14 0.000000 0.159277 0.530553
O O15 0.387686 0.457928 0.250000
O O16 0.310949 0.447225 0.021888
O O17 0.409709 0.500000 0.000000
O O18 0.265308 0.043865 0.750000
O O19 0.286453 0.000000 0.500000
#
# Coordination Sequence:
#
# PCOD9472634 Si02
#       7
#    16  16   8  16  16  16  16
#     4  10  21  37  60  87 111 139 180 229 283 339
#     4  10  20  35  54  79 110 147 188 231 281 335
#     4  10  22  38  56  80 114 156 198 238 285 344
#     4  10  21  38  60  86 113 142 179 228 283 338
#     4  10  21  37  56  79 110 149 188 223 266 323
#     4   9  18  32  50  75 106 140 179 224 270 315
#     4   9  17  29  48  73 102 137 177 223 273 321
#
# _framework density 18.880801000000002
#
# number of rings (size 3 to 8) (size 9 to 14) (size 15 to 20)
#    0.000    2.308    0.000    2.308    0.000    5.538 
#    1.385    3.077    0.000    0.000    0.000    0.000 
#    0.000    0.000    0.000    0.000    0.000    0.000 
#
# Total GULP energy -290211.925878 kJ/mol
# GULP energy per Si atom -5580.998575 kJ/mol
# Density = 1.883783 g / cm^3
# Si number density = 18.880801 Si / 1000 Ang^3
#
#
#
# Elastic Constant Matrix: (Units=GPa)
#
#
# Indices 1 2 3 4 5 6 
#
# 1 57.1299 54.3772 24.4488 0.0000 0.0000 0.0000
# 2 54.3772 130.1748 32.9578 0.0000 0.0000 0.0000
# 3 24.4488 32.9578 17.4278 0.0000 0.0000 0.0000
# 4 0.0000 0.0000 0.0000 38.3028 0.0000 0.0000
# 5 0.0000 0.0000 0.0000 0.0000 13.7692 0.0000
# 6 0.0000 0.0000 0.0000 0.0000 0.0000 24.1910
#
#
#
# Elastic Compliance Matrix: (Units=1/GPa)
#
#
# Indices 1 2 3 4 5 6 
#
# 1 0.045757 -0.005491 -0.053807 0.000000 0.000000 0.000000
# 2 -0.005491 0.015398 -0.021416 0.000000 0.000000 0.000000
# 3 -0.053807 -0.021416 0.173362 0.000000 0.000000 0.000000
# 4 0.000000 0.000000 0.000000 0.026108 0.000000 0.000000
# 5 0.000000 0.000000 0.000000 0.000000 0.072626 0.000000
# 6 0.000000 0.000000 0.000000 0.000000 0.000000 0.041338
#
#
# Mechanical properties :
#
#
# Convention : Reuss Voigt Hill
#
# Bulk Modulus (GPa) = 13.68170 47.58888 30.63529
# Shear Modulus (GPa) = 8.92255 21.44919 15.18587
#
# Velocity S-wave (km/s) = 2.17623 3.37416 2.83910
# Velocity P-wave (km/s) = 3.68466 6.35921 5.19694
#
# Compressibility (1/GPa) = 0.07309032
#
# Stress axis : x y z
#
# Youngs Moduli (GPa) = 21.85460 64.94453 5.76827
#
# Poissons Ratio (x) = 0.35661 0.31037
# Poissons Ratio (y) = 0.12000 0.12353
# Poissons Ratio (z) = 1.17592 1.39084
#
# Static dielectric constant tensor:
#      x y z
#    x 1.662180 0.000000 0.000000 
#    y 0.000000 1.631970 0.000000 
#    z 0.000000 0.000000 1.632110 
# 
# From -- ./inp_files/8768.got.cif
#   From: 2010.05.17/outbox.cif.g08.bks.cpg/sg63_5_cif.got.tgz:8768.got - 2010.06.03 15:47:04.
