data_PCOD9472630
_publ_section_title
;
Structure prediction by ZEFSAII (Michael W. Deem and Ramdas Pophale) SiO2 
 PCOD9472630
Probable space group: C M C M
;
_chemical_formula_sum "Si O2"
_cell_formula_units_Z 96
_cell_length_a 11.538879
_cell_length_b 23.438244
_cell_length_c 20.744932
_cell_angle_alpha 90.000000
_cell_angle_beta 90.000000
_cell_angle_gamma 90.000000
_cell_volume 5610.488880
_symmetry_space_group_name_H-M "C M C M"
_symmetry_group_IT_number 63
_symmetry_cell_setting 'orthorhombic'
loop_
_space_group_symop_operation_xyz
x,y,z
-x,-y,1/2+z
x,-y,-z
-x,y,1/2-z
-x,-y,-z
x,y,1/2-z
-x,y,z
x,-y,1/2+z
1/2+x,1/2+y,z
1/2-x,1/2-y,1/2+z
1/2+x,1/2-y,-z
1/2-x,1/2+y,1/2-z
1/2-x,1/2-y,-z
1/2+x,1/2+y,1/2-z
1/2-x,1/2+y,z
1/2+x,1/2-y,1/2+z
loop_
_atom_site_type_symbol
_atom_site_label
_atom_site_fract_x
_atom_site_fract_y
_atom_site_fract_z
Si Si1 0.862250 0.733319 0.082532
Si Si2 0.000000 0.997650 0.391320
Si Si3 0.744615 0.481879 0.826905
Si Si4 0.500000 0.596596 0.498405
Si Si5 0.630980 0.132979 0.173357
Si Si6 0.734084 0.659335 0.525674
Si Si7 0.637622 0.956874 0.442712
O O1 0.841208 0.694556 0.144857
O O2 0.801649 0.794648 0.079820
O O3 0.000000 0.740940 0.074485
O O4 0.810450 0.694605 0.025202
O O5 0.000000 0.940184 0.434820
O O6 0.885259 0.002932 0.348240
O O7 0.000000 0.050093 0.441756
O O8 0.761623 0.489775 0.750000
O O9 0.778793 0.416474 0.843803
O O10 0.826994 0.518591 0.873308
O O11 0.614364 0.635400 0.496067
O O12 0.627351 0.135666 0.250000
O O13 0.500000 0.117292 0.149999
O O14 0.803550 0.604178 0.548201
O O15 0.500000 0.952108 0.448508
O O16 0.678958 0.000000 0.500000
#
# Coordination Sequence:
#
# PCOD9472630 Si02
#       7
#    16   8  16   8  16  16  16
#     4  10  20  35  54  77 110 142 180 233 274 321
#     4  11  21  34  56  80 116 150 178 220 276 346
#     4  11  22  36  56  84 114 145 184 231 283 340
#     4  11  20  34  56  82 112 148 183 224 280 340
#     4   9  18  34  56  78 102 137 181 225 270 318
#     4  11  21  34  53  81 111 142 184 226 278 330
#     4  11  22  37  59  84 111 144 186 232 282 338
#
# _framework density 17.110807999999999
#
# number of rings (size 3 to 8) (size 9 to 14) (size 15 to 20)
#    0.000    1.500    2.500    4.250    0.000    3.667 
#    0.000    0.833    0.000    0.000    0.000    0.000 
#    0.000    0.000    0.000    0.000    0.000    0.000 
#
# Total GULP energy -267845.490835 kJ/mol
# GULP energy per Si atom -5580.114392 kJ/mol
# Density = 1.707186 g / cm^3
# Si number density = 17.110808 Si / 1000 Ang^3
#
#
#
# Elastic Constant Matrix: (Units=GPa)
#
#
# Indices 1 2 3 4 5 6 
#
# 1 70.7346 39.9151 21.7852 0.0000 0.0000 0.0000
# 2 39.9151 119.5866 34.9591 0.0000 0.0000 0.0000
# 3 21.7852 34.9591 57.3416 0.0000 0.0000 0.0000
# 4 0.0000 0.0000 0.0000 28.4046 0.0000 0.0000
# 5 0.0000 0.0000 0.0000 0.0000 18.2365 0.0000
# 6 0.0000 0.0000 0.0000 0.0000 0.0000 27.8671
#
#
#
# Elastic Compliance Matrix: (Units=1/GPa)
#
#
# Indices 1 2 3 4 5 6 
#
# 1 0.018103 -0.004906 -0.003887 0.000000 0.000000 0.000000
# 2 -0.004906 0.011505 -0.005150 0.000000 0.000000 0.000000
# 3 -0.003887 -0.005150 0.022056 0.000000 0.000000 0.000000
# 4 0.000000 0.000000 0.000000 0.035206 0.000000 0.000000
# 5 0.000000 0.000000 0.000000 0.000000 0.054835 0.000000
# 6 0.000000 0.000000 0.000000 0.000000 0.000000 0.035885
#
#
# Mechanical properties :
#
#
# Convention : Reuss Voigt Hill
#
# Bulk Modulus (GPa) = 42.05584 48.99795 45.52690
# Shear Modulus (GPa) = 23.42998 24.96852 24.19925
#
# Velocity S-wave (km/s) = 3.70443 3.82412 3.76475
# Velocity P-wave (km/s) = 6.55202 6.94236 6.75001
#
# Compressibility (1/GPa) = 0.02377791
#
# Stress axis : x y z
#
# Youngs Moduli (GPa) = 55.23989 86.91626 45.33919
#
# Poissons Ratio (x) = 0.42642 0.17621
# Poissons Ratio (y) = 0.27101 0.23352
# Poissons Ratio (z) = 0.21469 0.44766
#
# Static dielectric constant tensor:
#      x y z
#    x 1.590060 0.000000 0.000000 
#    y 0.000000 1.570400 0.000000 
#    z 0.000000 0.000000 1.575890 
# 
# From -- ./inp_files/52925.got.cif
#   From: 2010.05.17/outbox.cif.g08.bks.cpg/sg63_27_cif.got.tgz:52925.got - 2010.06.03 15:47:04.
