data_PCOD9472812
_publ_section_title
;
Structure prediction by ZEFSAII (Michael W. Deem and Ramdas Pophale) SiO2 
 PCOD9472812
Probable space group: C M C M
;
_chemical_formula_sum "Si O2"
_cell_formula_units_Z 88
_cell_length_a 23.918314
_cell_length_b 20.565264
_cell_length_c 8.904104
_cell_angle_alpha 90.000000
_cell_angle_beta 90.000000
_cell_angle_gamma 90.000000
_cell_volume 4379.808034
_symmetry_space_group_name_H-M "C M C M"
_symmetry_group_IT_number 63
_symmetry_cell_setting 'orthorhombic'
loop_
_space_group_symop_operation_xyz
x,y,z
-x,-y,1/2+z
x,-y,-z
-x,y,1/2-z
-x,-y,-z
x,y,1/2-z
-x,y,z
x,-y,1/2+z
1/2+x,1/2+y,z
1/2-x,1/2-y,1/2+z
1/2+x,1/2-y,-z
1/2-x,1/2+y,1/2-z
1/2-x,1/2-y,-z
1/2+x,1/2+y,1/2-z
1/2-x,1/2+y,z
1/2+x,1/2-y,1/2+z
loop_
_atom_site_type_symbol
_atom_site_label
_atom_site_fract_x
_atom_site_fract_y
_atom_site_fract_z
Si Si1 0.585201 0.564120 0.419177
Si Si2 0.218875 0.064767 0.079377
Si Si3 0.893063 0.336394 0.928995
Si Si4 0.500000 0.072963 0.431920
Si Si5 0.773269 0.683180 0.571761
Si Si6 0.434459 0.707211 0.421932
O O1 0.563985 0.500000 0.500000
O O2 0.563160 0.566226 0.250000
O O3 0.652128 0.558235 0.411364
O O4 0.573194 0.634845 0.486136
O O5 0.240297 0.072469 0.250000
O O6 0.231399 0.126735 0.978580
O O7 0.241702 0.000000 0.000000
O O8 0.886382 0.342197 0.750000
O O9 0.943680 0.385807 0.974335
O O10 0.833056 0.342077 0.009024
O O11 0.910394 0.263506 0.975436
O O12 0.500000 0.068425 0.250000
O O13 0.500000 0.000000 0.500000
O O14 0.776394 0.691137 0.750000
O O15 0.750000 0.750000 0.500000
O O16 0.410350 0.709380 0.250000
O O17 0.500000 0.719340 0.409551
#
# Coordination Sequence:
#
# PCOD9472812 Si02
#       6
#    16  16  16   8  16  16
#     4   9  19  34  53  80 115 154 198 243 291 346
#     4  10  20  37  59  84 118 159 203 251 304 365
#     4  11  23  42  64  91 125 161 206 262 319 383
#     4  10  24  44  68  96 127 164 213 268 327 388
#     4  12  25  41  63  94 127 165 210 262 323 388
#     4  10  20  35  57  84 116 156 200 247 299 358
#
# _framework density 20.092203999999999
#
# number of rings (size 3 to 8) (size 9 to 14) (size 15 to 20)
#    0.000    1.636    0.909    3.818    0.000    5.455 
#    0.000    1.818    0.000    0.000    0.000    0.000 
#    0.000    0.000    0.000    0.000    0.000    0.000 
#
# Total GULP energy -245553.433216 kJ/mol
# GULP energy per Si atom -5580.759846 kJ/mol
# Density = 2.004647 g / cm^3
# Si number density = 20.092204 Si / 1000 Ang^3
#
#
#
# Elastic Constant Matrix: (Units=GPa)
#
#
# Indices 1 2 3 4 5 6 
#
# 1 82.2743 28.4055 39.8436 0.0000 0.0000 0.0000
# 2 28.4055 129.3917 41.6343 0.0000 0.0000 0.0000
# 3 39.8436 41.6343 98.4498 0.0000 0.0000 0.0000
# 4 0.0000 0.0000 0.0000 27.6485 0.0000 0.0000
# 5 0.0000 0.0000 0.0000 0.0000 9.2103 0.0000
# 6 0.0000 0.0000 0.0000 0.0000 0.0000 17.2088
#
#
#
# Elastic Compliance Matrix: (Units=1/GPa)
#
#
# Indices 1 2 3 4 5 6 
#
# 1 0.015395 -0.001591 -0.005558 0.000000 0.000000 0.000000
# 2 -0.001591 0.009110 -0.003209 0.000000 0.000000 0.000000
# 3 -0.005558 -0.003209 0.013764 0.000000 0.000000 0.000000
# 4 0.000000 0.000000 0.000000 0.036168 0.000000 0.000000
# 5 0.000000 0.000000 0.000000 0.000000 0.108574 0.000000
# 6 0.000000 0.000000 0.000000 0.000000 0.000000 0.058110
#
#
# Mechanical properties :
#
#
# Convention : Reuss Voigt Hill
#
# Bulk Modulus (GPa) = 56.96782 58.87587 57.92185
# Shear Modulus (GPa) = 18.67846 24.16235 21.42041
#
# Velocity S-wave (km/s) = 3.05230 3.47158 3.26867
# Velocity P-wave (km/s) = 6.39037 6.74059 6.56782
#
# Compressibility (1/GPa) = 0.01755377
#
# Stress axis : x y z
#
# Youngs Moduli (GPa) = 64.95463 109.76592 72.65528
#
# Poissons Ratio (x) = 0.17469 0.40379
# Poissons Ratio (y) = 0.10337 0.23313
# Poissons Ratio (z) = 0.36099 0.35220
#
# Static dielectric constant tensor:
#      x y z
#    x 1.788170 0.000000 0.000000 
#    y 0.000000 1.748280 0.000000 
#    z 0.000000 0.000000 1.713430 
# 
# From -- ./inp_files/10197.got.cif
#   From: 2010.05.17/outbox.cif.g08.bks.cpg/sg63_6_cif.got.tgz:10197.got - 2010.06.03 15:47:04.
