data_PCOD9472970
_publ_section_title
;
Structure prediction by ZEFSAII (Michael W. Deem and Ramdas Pophale) SiO2 
 PCOD9472970
Probable space group: C M C M
;
_chemical_formula_sum "Si O2"
_cell_formula_units_Z 96
_cell_length_a 20.990290
_cell_length_b 8.739014
_cell_length_c 30.072345
_cell_angle_alpha 90.000000
_cell_angle_beta 90.000000
_cell_angle_gamma 90.000000
_cell_volume 5516.303710
_symmetry_space_group_name_H-M "C M C M"
_symmetry_group_IT_number 63
_symmetry_cell_setting 'orthorhombic'
loop_
_space_group_symop_operation_xyz
x,y,z
-x,-y,1/2+z
x,-y,-z
-x,y,1/2-z
-x,-y,-z
x,y,1/2-z
-x,y,z
x,-y,1/2+z
1/2+x,1/2+y,z
1/2-x,1/2-y,1/2+z
1/2+x,1/2-y,-z
1/2-x,1/2+y,1/2-z
1/2-x,1/2-y,-z
1/2+x,1/2+y,1/2-z
1/2-x,1/2+y,z
1/2+x,1/2-y,1/2+z
loop_
_atom_site_type_symbol
_atom_site_label
_atom_site_fract_x
_atom_site_fract_y
_atom_site_fract_z
Si Si1 0.330543 0.139940 0.802699
Si Si2 0.572957 0.126636 0.539093
Si Si3 0.225559 0.068639 0.349212
Si Si4 0.168471 0.225084 0.606807
Si Si5 0.074280 0.531980 0.135224
Si Si6 0.679387 0.681143 0.504816
O O1 0.337633 0.142169 0.750000
O O2 0.314351 0.307419 0.821845
O O3 0.272103 0.028846 0.817147
O O4 0.391232 0.070389 0.827905
O O5 0.500000 0.188161 0.537734
O O6 0.628631 0.247087 0.529256
O O7 0.577410 0.000000 0.500000
O O8 0.582746 0.048836 0.587038
O O9 0.270754 0.166009 0.382418
O O10 0.184547 0.943469 0.375452
O O11 0.110178 0.306115 0.631689
O O12 0.156559 0.220418 0.554532
O O13 0.000000 0.549506 0.143696
O O14 0.683134 0.500000 0.500000
O O15 0.750000 0.750000 0.500000
#
# Coordination Sequence:
#
# PCOD9472970 Si02
#       6
#    16  16  16  16  16  16
#     4  10  20  36  62  87 113 144 183 234 288 347
#     4  10  21  40  59  79 113 157 197 232 281 340
#     4   9  20  35  58  85 118 145 181 227 293 346
#     4  10  20  36  54  81 117 153 186 232 283 335
#     4  10  22  39  60  82 111 152 194 235 280 338
#     4  12  25  33  55  86 120 152 195 240 282 329
#
# _framework density 17.402957000000001
#
# number of rings (size 3 to 8) (size 9 to 14) (size 15 to 20)
#    0.000    1.833    1.667    2.000    9.333    0.667 
#    0.000    1.667    0.000    0.000    0.000    0.000 
#    0.000    0.000    0.000    0.000    0.000    0.000 
#
# Total GULP energy -268041.249217 kJ/mol
# GULP energy per Si atom -5584.192692 kJ/mol
# Density = 1.736335 g / cm^3
# Si number density = 17.402957 Si / 1000 Ang^3
#
#
#
# Elastic Constant Matrix: (Units=GPa)
#
#
# Indices 1 2 3 4 5 6 
#
# 1 84.7229 42.4038 7.3636 0.0000 0.0000 0.0000
# 2 42.4038 104.2896 7.8360 0.0000 0.0000 0.0000
# 3 7.3636 7.8360 54.2123 0.0000 0.0000 0.0000
# 4 0.0000 0.0000 0.0000 16.1468 0.0000 0.0000
# 5 0.0000 0.0000 0.0000 0.0000 16.3602 0.0000
# 6 0.0000 0.0000 0.0000 0.0000 0.0000 15.6767
#
#
#
# Elastic Compliance Matrix: (Units=1/GPa)
#
#
# Indices 1 2 3 4 5 6 
#
# 1 0.014891 -0.005967 -0.001160 0.000000 0.000000 0.000000
# 2 -0.005967 0.012085 -0.000936 0.000000 0.000000 0.000000
# 3 -0.001160 -0.000936 0.018739 0.000000 0.000000 0.000000
# 4 0.000000 0.000000 0.000000 0.061932 0.000000 0.000000
# 5 0.000000 0.000000 0.000000 0.000000 0.061124 0.000000
# 6 0.000000 0.000000 0.000000 0.000000 0.000000 0.063789
#
#
# Mechanical properties :
#
#
# Convention : Reuss Voigt Hill
#
# Bulk Modulus (GPa) = 33.79802 39.82572 36.81187
# Shear Modulus (GPa) = 19.33866 22.01150 20.67508
#
# Velocity S-wave (km/s) = 3.33713 3.56028 3.45051
# Velocity P-wave (km/s) = 5.85761 6.31149 6.08878
#
# Compressibility (1/GPa) = 0.02958753
#
# Stress axis : x y z
#
# Youngs Moduli (GPa) = 67.15623 82.74494 53.36487
#
# Poissons Ratio (x) = 0.49377 0.06191
# Poissons Ratio (y) = 0.40074 0.04997
# Poissons Ratio (z) = 0.07790 0.07748
#
# Static dielectric constant tensor:
#      x y z
#    x 1.584180 0.000000 0.000000 
#    y 0.000000 1.576270 0.000000 
#    z 0.000000 0.000000 1.573580 
# 
# From -- ./inp_files/70253.got.cif
#   From: 2010.05.17/outbox.cif.g08.bks.cpg/sg63_36_cif.got.tgz:70253.got - 2010.06.03 15:47:04.
