data_PCOD9472882
_publ_section_title
;
Structure prediction by ZEFSAII (Michael W. Deem and Ramdas Pophale) SiO2 
 PCOD9472882
Probable space group: C M C M
;
_chemical_formula_sum "Si O2"
_cell_formula_units_Z 96
_cell_length_a 8.624906
_cell_length_b 20.960075
_cell_length_c 28.828442
_cell_angle_alpha 90.000000
_cell_angle_beta 90.000000
_cell_angle_gamma 90.000000
_cell_volume 5211.567594
_symmetry_space_group_name_H-M "C M C M"
_symmetry_group_IT_number 63
_symmetry_cell_setting 'orthorhombic'
loop_
_space_group_symop_operation_xyz
x,y,z
-x,-y,1/2+z
x,-y,-z
-x,y,1/2-z
-x,-y,-z
x,y,1/2-z
-x,y,z
x,-y,1/2+z
1/2+x,1/2+y,z
1/2-x,1/2-y,1/2+z
1/2+x,1/2-y,-z
1/2-x,1/2+y,1/2-z
1/2-x,1/2-y,-z
1/2+x,1/2+y,1/2-z
1/2-x,1/2+y,z
1/2+x,1/2-y,1/2+z
loop_
_atom_site_type_symbol
_atom_site_label
_atom_site_fract_x
_atom_site_fract_y
_atom_site_fract_z
Si Si1 0.686943 0.498082 0.898869
Si Si2 0.185188 0.129783 0.948550
Si Si3 0.183197 0.750630 0.895276
Si Si4 0.315017 0.199211 0.303100
Si Si5 0.813308 0.056426 0.197999
Si Si6 0.316280 0.127076 0.448233
O O1 0.500000 0.491826 0.902526
O O2 0.729681 0.566038 0.920379
O O3 0.729187 0.488915 0.844766
O O4 0.762422 0.440277 0.927181
O O5 0.231040 0.192015 0.919643
O O6 0.000000 0.128674 0.956130
O O7 0.268525 0.130492 0.998101
O O8 0.500000 0.796985 0.809023
O O9 0.232699 0.758834 0.841901
O O10 0.232889 0.815865 0.920811
O O11 0.276390 0.216854 0.250000
O O12 0.262361 0.125736 0.309418
O O13 0.000000 0.257959 0.399379
O O14 0.771114 0.034248 0.250000
O O15 0.000000 0.064697 0.196892
O O16 0.500000 0.134419 0.442913
#
# Coordination Sequence:
#
# PCOD9472882 Si02
#       6
#    16  16  16  16  16  16
#     4  10  21  38  60  87 119 156 194 237 290 348
#     4  11  24  41  59  83 120 159 197 242 294 350
#     4  12  24  40  61  86 118 155 198 242 293 350
#     4  10  20  35  58  89 119 149 190 240 290 340
#     4   9  17  32  57  87 116 149 190 233 280 340
#     4  12  24  39  61  87 115 152 199 247 294 346
#
# _framework density 18.420560999999999
#
# number of rings (size 3 to 8) (size 9 to 14) (size 15 to 20)
#    0.000    1.333    1.667    5.000    0.000    4.333 
#    0.000    0.833    0.000    3.000    0.000    0.000 
#    0.000    0.000    0.000    0.000    0.000    0.000 
#
# Total GULP energy -268300.483752 kJ/mol
# GULP energy per Si atom -5589.593412 kJ/mol
# Density = 1.837863 g / cm^3
# Si number density = 18.420561 Si / 1000 Ang^3
#
#
#
# Elastic Constant Matrix: (Units=GPa)
#
#
# Indices 1 2 3 4 5 6 
#
# 1 4.8289 -2.3732 -1.8101 0.0000 0.0000 0.0000
# 2 -2.3732 62.2123 14.3862 0.0000 0.0000 0.0000
# 3 -1.8101 14.3862 96.5858 0.0000 0.0000 0.0000
# 4 0.0000 0.0000 0.0000 -31.7607 0.0000 0.0000
# 5 0.0000 0.0000 0.0000 0.0000 28.3615 0.0000
# 6 0.0000 0.0000 0.0000 0.0000 0.0000 24.1816
#
#
#
# Elastic Compliance Matrix: (Units=1/GPa)
#
#
# Indices 1 2 3 4 5 6 
#
# 1 0.211807 0.007417 0.002865 0.000000 0.000000 0.000000
# 2 0.007417 0.016907 -0.002379 0.000000 0.000000 0.000000
# 3 0.002865 -0.002379 0.010762 0.000000 0.000000 0.000000
# 4 0.000000 0.000000 0.000000 -0.031485 0.000000 0.000000
# 5 0.000000 0.000000 0.000000 0.000000 0.035259 0.000000
# 6 0.000000 0.000000 0.000000 0.000000 0.000000 0.041354
#
#
# Mechanical properties :
#
#
# Convention : Reuss Voigt Hill
#
# Bulk Modulus (GPa) = 3.91725 20.44809 12.18267
# Shear Modulus (GPa) = 14.12862 14.38477 14.25670
#
# Velocity S-wave (km/s) = 2.77249 2.79751 2.78502
# Velocity P-wave (km/s) = 3.51853 4.64322 4.11944
#
# Compressibility (1/GPa) = 0.25528140
#
# Stress axis : x y z
#
# Youngs Moduli (GPa) = 4.72127 59.14665 92.92341
#
# Poissons Ratio (x) = -0.43872 -0.26619
# Poissons Ratio (y) = -0.03502 0.22109
# Poissons Ratio (z) = -0.01352 0.14073
#
# Static dielectric constant tensor:
#      x y z
#    x 1.617020 0.000000 0.000000 
#    y 0.000000 1.588230 0.000000 
#    z 0.000000 0.000000 1.644220 
# 
# From -- ./inp_files/66964.got.cif
#   From: 2010.05.17/outbox.cif.g08.bks.cpg/sg63_34_cif.got.tgz:66964.got - 2010.06.03 15:47:04.
