data_PCOD9472543
_publ_section_title
;
Structure prediction by ZEFSAII (Michael W. Deem and Ramdas Pophale) SiO2 
 PCOD9472543
Probable space group: C M C M
;
_chemical_formula_sum "Si O2"
_cell_formula_units_Z 112
_cell_length_a 15.081888
_cell_length_b 14.725594
_cell_length_c 23.317258
_cell_angle_alpha 90.000000
_cell_angle_beta 90.000000
_cell_angle_gamma 90.000000
_cell_volume 5178.524220
_symmetry_space_group_name_H-M "C M C M"
_symmetry_group_IT_number 63
_symmetry_cell_setting 'orthorhombic'
loop_
_space_group_symop_operation_xyz
x,y,z
-x,-y,1/2+z
x,-y,-z
-x,y,1/2-z
-x,-y,-z
x,y,1/2-z
-x,y,z
x,-y,1/2+z
1/2+x,1/2+y,z
1/2-x,1/2-y,1/2+z
1/2+x,1/2-y,-z
1/2-x,1/2+y,1/2-z
1/2-x,1/2-y,-z
1/2+x,1/2+y,1/2-z
1/2-x,1/2+y,z
1/2+x,1/2-y,1/2+z
loop_
_atom_site_type_symbol
_atom_site_label
_atom_site_fract_x
_atom_site_fract_y
_atom_site_fract_z
Si Si1 0.398156 0.367299 0.897376
Si Si2 0.134614 0.600754 0.518532
Si Si3 0.341718 0.398973 0.014842
Si Si4 0.715058 0.698894 0.685803
Si Si5 0.404489 0.170325 0.644343
Si Si6 0.399584 0.762646 0.912271
Si Si7 0.106337 0.983161 0.312814
O O1 0.500000 0.385272 0.915142
O O2 0.345033 0.346541 0.954465
O O3 0.401468 0.279901 0.857547
O O4 0.360513 0.453036 0.863667
O O5 0.104972 0.500000 0.500000
O O6 0.239554 0.594611 0.531379
O O7 0.095675 0.636006 0.578479
O O8 0.116798 0.668077 0.465116
O O9 0.375707 0.500000 0.000000
O O10 0.393121 0.338394 0.060188
O O11 0.717661 0.738809 0.750000
O O12 0.809974 0.651508 0.672965
O O13 0.677093 0.765416 0.636327
O O14 0.644847 0.616838 0.685167
O O15 0.500000 0.142269 0.670022
O O16 0.500000 0.777071 0.890217
O O17 0.128502 0.022383 0.250000
O O18 0.000000 0.980964 0.317249
#
# Coordination Sequence:
#
# PCOD9472543 Si02
#       7
#    16  16  16  16  16  16  16
#     4  10  20  34  57  90 124 156 197 252 309 371
#     4  11  24  42  65  92 128 172 219 267 317 373
#     4  11  21  34  58  93 129 163 200 250 314 378
#     4  11  24  42  62  92 129 165 207 255 313 382
#     4  11  23  42  65  88 120 161 213 268 316 367
#     4  12  23  39  65  96 131 169 208 256 318 386
#     4   9  19  37  61  90 126 165 201 244 310 387
#
# _framework density 21.627783999999998
#
# number of rings (size 3 to 8) (size 9 to 14) (size 15 to 20)
#    0.000    1.286    2.857    3.429    2.000    5.143 
#    0.000    1.429    0.000    0.000    0.000    2.000 
#    0.000    0.000    0.000    0.000    0.000    0.000 
#
# Total GULP energy -312688.402250 kJ/mol
# GULP energy per Si atom -5583.721469 kJ/mol
# Density = 2.157856 g / cm^3
# Si number density = 21.627784 Si / 1000 Ang^3
#
#
#
# Elastic Constant Matrix: (Units=GPa)
#
#
# Indices 1 2 3 4 5 6 
#
# 1 73.5498 -0.5634 26.9830 0.0000 0.0000 0.0000
# 2 -0.5634 64.0770 8.6037 0.0000 0.0000 0.0000
# 3 26.9830 8.6037 102.1449 0.0000 0.0000 0.0000
# 4 0.0000 0.0000 0.0000 20.2427 0.0000 0.0000
# 5 0.0000 0.0000 0.0000 0.0000 4.1153 0.0000
# 6 0.0000 0.0000 0.0000 0.0000 0.0000 13.1366
#
#
#
# Elastic Compliance Matrix: (Units=1/GPa)
#
#
# Indices 1 2 3 4 5 6 
#
# 1 0.015084 0.000675 -0.004042 0.000000 0.000000 0.000000
# 2 0.000675 0.015815 -0.001510 0.000000 0.000000 0.000000
# 3 -0.004042 -0.001510 0.010985 0.000000 0.000000 0.000000
# 4 0.000000 0.000000 0.000000 0.049400 0.000000 0.000000
# 5 0.000000 0.000000 0.000000 0.000000 0.242996 0.000000
# 6 0.000000 0.000000 0.000000 0.000000 0.000000 0.076123
#
#
# Mechanical properties :
#
#
# Convention : Reuss Voigt Hill
#
# Bulk Modulus (GPa) = 31.12311 34.42426 32.77369
# Shear Modulus (GPa) = 11.60451 21.14882 16.37666
#
# Velocity S-wave (km/s) = 2.31888 3.13046 2.75472
# Velocity P-wave (km/s) = 4.64663 5.38680 5.03035
#
# Compressibility (1/GPa) = 0.03213046
#
# Stress axis : x y z
#
# Youngs Moduli (GPa) = 66.29487 63.23122 91.03416
#
# Poissons Ratio (x) = -0.04270 0.36792
# Poissons Ratio (y) = -0.04477 0.13751
# Poissons Ratio (z) = 0.26794 0.09551
#
# Static dielectric constant tensor:
#      x y z
#    x 1.816210 0.000000 0.000000 
#    y 0.000000 1.789300 0.000000 
#    z 0.000000 0.000000 1.834510 
# 
# From -- ./inp_files/62991.got.cif
#   From: 2010.05.17/outbox.cif.g08.bks.cpg/sg63_32_cif.got.tgz:62991.got - 2010.06.03 15:47:04.
