data_PCOD9472081
_publ_section_title
;
Structure prediction by ZEFSAII (Michael W. Deem and Ramdas Pophale) SiO2 
 PCOD9472081
Probable space group: C M C M
;
_chemical_formula_sum "Si O2"
_cell_formula_units_Z 80
_cell_length_a 22.274141
_cell_length_b 11.315719
_cell_length_c 16.769991
_cell_angle_alpha 90.000000
_cell_angle_beta 90.000000
_cell_angle_gamma 90.000000
_cell_volume 4226.841359
_symmetry_space_group_name_H-M "C M C M"
_symmetry_group_IT_number 63
_symmetry_cell_setting 'orthorhombic'
loop_
_space_group_symop_operation_xyz
x,y,z
-x,-y,1/2+z
x,-y,-z
-x,y,1/2-z
-x,-y,-z
x,y,1/2-z
-x,y,z
x,-y,1/2+z
1/2+x,1/2+y,z
1/2-x,1/2-y,1/2+z
1/2+x,1/2-y,-z
1/2-x,1/2+y,1/2-z
1/2-x,1/2-y,-z
1/2+x,1/2+y,1/2-z
1/2-x,1/2+y,z
1/2+x,1/2-y,1/2+z
loop_
_atom_site_type_symbol
_atom_site_label
_atom_site_fract_x
_atom_site_fract_y
_atom_site_fract_z
Si Si1 0.199118 0.549099 0.661366
Si Si2 0.161378 0.017886 0.157316
Si Si3 0.188916 0.238021 0.053552
Si Si4 0.066406 0.186832 0.844853
Si Si5 0.107958 0.601173 0.054603
O O1 0.174467 0.535194 0.750000
O O2 0.268762 0.516242 0.661090
O O3 0.198229 0.683316 0.632268
O O4 0.160819 0.467698 0.601975
O O5 0.144745 0.053751 0.250000
O O6 0.163667 0.115089 0.087132
O O7 0.118837 0.907156 0.134928
O O8 0.250000 0.250000 0.000000
O O9 0.138712 0.304890 0.003588
O O10 0.070736 0.203333 0.750000
O O11 0.072580 0.314928 0.885395
O O12 0.000000 0.138125 0.863889
O O13 0.077377 0.500000 0.000000
#
# Coordination Sequence:
#
# PCOD9472081 Si02
#       5
#    16  16  16  16  16
#     4  10  20  33  53  81 115 149 185 234 291 353
#     4  10  21  35  56  84 115 154 197 239 285 347
#     4  11  20  33  52  81 120 151 183 231 300 355
#     4  10  22  41  62  82 112 157 202 239 280 342
#     4  10  21  35  56  85 114 148 188 241 296 343
#
# _framework density 18.926662
#
# number of rings (size 3 to 8) (size 9 to 14) (size 15 to 20)
#    0.000    1.800    2.000    2.400    0.000    2.800 
#    0.000    2.000    0.000    1.200    0.000   11.200 
#    0.000    0.000    0.000    0.000    0.000    0.000 
#
# Total GULP energy -222803.888948 kJ/mol
# GULP energy per Si atom -5570.097224 kJ/mol
# Density = 1.888358 g / cm^3
# Si number density = 18.926662 Si / 1000 Ang^3
#
#
#
# Elastic Constant Matrix: (Units=GPa)
#
#
# Indices 1 2 3 4 5 6 
#
# 1 56.2293 35.0109 27.4841 0.0000 0.0000 0.0000
# 2 35.0109 109.6336 55.2027 0.0000 0.0000 0.0000
# 3 27.4841 55.2027 75.8319 0.0000 0.0000 0.0000
# 4 0.0000 0.0000 0.0000 42.9151 0.0000 0.0000
# 5 0.0000 0.0000 0.0000 0.0000 44.6303 0.0000
# 6 0.0000 0.0000 0.0000 0.0000 0.0000 18.8618
#
#
#
# Elastic Compliance Matrix: (Units=1/GPa)
#
#
# Indices 1 2 3 4 5 6 
#
# 1 0.023241 -0.005021 -0.004768 0.000000 0.000000 0.000000
# 2 -0.005021 0.015484 -0.009452 0.000000 0.000000 0.000000
# 3 -0.004768 -0.009452 0.021796 0.000000 0.000000 0.000000
# 4 0.000000 0.000000 0.000000 0.023302 0.000000 0.000000
# 5 0.000000 0.000000 0.000000 0.000000 0.022406 0.000000
# 6 0.000000 0.000000 0.000000 0.000000 0.000000 0.053017
#
#
# Mechanical properties :
#
#
# Convention : Reuss Voigt Hill
#
# Bulk Modulus (GPa) = 45.37495 53.01005 49.19250
# Shear Modulus (GPa) = 24.38127 29.54792 26.96460
#
# Velocity S-wave (km/s) = 3.59304 3.95546 3.77860
# Velocity P-wave (km/s) = 6.42179 6.99499 6.71451
#
# Compressibility (1/GPa) = 0.02203859
#
# Stress axis : x y z
#
# Youngs Moduli (GPa) = 43.02673 64.58291 45.88011
#
# Poissons Ratio (x) = 0.32427 0.21877
# Poissons Ratio (y) = 0.21604 0.43366
# Poissons Ratio (z) = 0.20517 0.61043
#
# Static dielectric constant tensor:
#      x y z
#    x 1.688950 0.000000 0.000000 
#    y 0.000000 1.690030 0.000000 
#    z 0.000000 0.000000 1.710520 
# 
# From -- ./inp_files/36435.got.cif
#   From: 2010.05.17/outbox.cif.g08.bks.cpg/sg63_19_cif.got.tgz:36435.got - 2010.06.03 15:47:04.
