data_PCOD9472743
_publ_section_title
;
Structure prediction by ZEFSAII (Michael W. Deem and Ramdas Pophale) SiO2 
 PCOD9472743
Probable space group: C M C M
;
_chemical_formula_sum "Si O2"
_cell_formula_units_Z 80
_cell_length_a 14.750163
_cell_length_b 30.717799
_cell_length_c 9.101302
_cell_angle_alpha 90.000000
_cell_angle_beta 90.000000
_cell_angle_gamma 90.000000
_cell_volume 4123.732061
_symmetry_space_group_name_H-M "C M C M"
_symmetry_group_IT_number 63
_symmetry_cell_setting 'orthorhombic'
loop_
_space_group_symop_operation_xyz
x,y,z
-x,-y,1/2+z
x,-y,-z
-x,y,1/2-z
-x,-y,-z
x,y,1/2-z
-x,y,z
x,-y,1/2+z
1/2+x,1/2+y,z
1/2-x,1/2-y,1/2+z
1/2+x,1/2-y,-z
1/2-x,1/2+y,1/2-z
1/2-x,1/2-y,-z
1/2+x,1/2+y,1/2-z
1/2-x,1/2+y,z
1/2+x,1/2-y,1/2+z
loop_
_atom_site_type_symbol
_atom_site_label
_atom_site_fract_x
_atom_site_fract_y
_atom_site_fract_z
Si Si1 0.000000 0.797232 0.571718
Si Si2 0.500000 0.196961 0.572603
Si Si3 0.355421 0.632609 0.075262
Si Si4 0.359601 0.866058 0.924832
Si Si5 0.139119 0.455968 0.419783
Si Si6 0.139911 0.956330 0.418212
O O1 0.000000 0.747335 0.524098
O O2 0.087046 0.825668 0.526503
O O3 0.000000 0.795845 0.750000
O O4 0.500000 0.194638 0.750000
O O5 0.585929 0.171542 0.506856
O O6 0.368663 0.626876 0.250000
O O7 0.248281 0.638798 0.050580
O O8 0.386393 0.588424 0.996700
O O9 0.376566 0.865333 0.750000
O O10 0.387431 0.912658 0.992603
O O11 0.108907 0.500000 0.500000
O O12 0.110399 0.454374 0.250000
O O13 0.249530 0.456820 0.420449
O O14 0.110868 0.956787 0.250000
O O15 0.109764 0.000000 0.500000
#
# Coordination Sequence:
#
# PCOD9472743 Si02
#       6
#     8   8  16  16  16  16
#     4   9  20  39  60  81 106 139 180 226 277 329
#     4  11  23  39  58  79 106 141 181 226 276 329
#     4   9  18  35  58  81 108 143 181 222 269 321
#     4  10  20  35  56  82 111 143 180 223 270 319
#     4   9  16  28  49  78 111 146 181 217 261 315
#     4   9  16  27  47  77 111 145 181 219 261 313
#
# _framework density 19.399902999999998
#
# number of rings (size 3 to 8) (size 9 to 14) (size 15 to 20)
#    0.000    2.600    0.000    2.100    0.000    6.400 
#    0.000    3.500    0.000    0.000    0.000    0.000 
#    0.000    0.000    0.000    0.000    0.000    0.000 
#
# Total GULP energy -223394.585925 kJ/mol
# GULP energy per Si atom -5584.864648 kJ/mol
# Density = 1.935575 g / cm^3
# Si number density = 19.399903 Si / 1000 Ang^3
#
#
#
# Elastic Constant Matrix: (Units=GPa)
#
#
# Indices 1 2 3 4 5 6 
#
# 1 83.0650 68.3935 48.6899 0.0000 0.0000 0.0000
# 2 68.3935 236.5429 97.3016 0.0000 0.0000 0.0000
# 3 48.6899 97.3016 114.5888 0.0000 0.0000 0.0000
# 4 0.0000 0.0000 0.0000 33.2825 0.0000 0.0000
# 5 0.0000 0.0000 0.0000 0.0000 37.4155 0.0000
# 6 0.0000 0.0000 0.0000 0.0000 0.0000 33.8009
#
#
#
# Elastic Compliance Matrix: (Units=1/GPa)
#
#
# Indices 1 2 3 4 5 6 
#
# 1 0.017354 -0.003050 -0.004784 0.000000 0.000000 0.000000
# 2 -0.003050 0.007033 -0.004676 0.000000 0.000000 0.000000
# 3 -0.004784 -0.004676 0.014730 0.000000 0.000000 0.000000
# 4 0.000000 0.000000 0.000000 0.030046 0.000000 0.000000
# 5 0.000000 0.000000 0.000000 0.000000 0.026727 0.000000
# 6 0.000000 0.000000 0.000000 0.000000 0.000000 0.029585
#
#
# Mechanical properties :
#
#
# Convention : Reuss Voigt Hill
#
# Bulk Modulus (GPa) = 70.93564 95.88518 83.41041
# Shear Modulus (GPa) = 32.21770 35.55390 33.88580
#
# Velocity S-wave (km/s) = 4.07961 4.28563 4.18389
# Velocity P-wave (km/s) = 7.67041 8.60359 8.15037
#
# Compressibility (1/GPa) = 0.01409729
#
# Stress axis : x y z
#
# Youngs Moduli (GPa) = 57.62276 142.19082 67.88733
#
# Poissons Ratio (x) = 0.43365 0.32480
# Poissons Ratio (y) = 0.17573 0.31744
# Poissons Ratio (z) = 0.27569 0.66488
#
# Static dielectric constant tensor:
#      x y z
#    x 1.732750 0.000000 0.000000 
#    y 0.000000 1.633550 0.000000 
#    z 0.000000 0.000000 1.645480 
# 
# From -- ./inp_files/6515.got.cif
#   From: 2010.05.17/outbox.cif.g08.bks.cpg/sg63_4_cif.got.tgz:6515.got - 2010.06.03 15:47:04.
