data_PCOD9472417
_publ_section_title
;
Structure prediction by ZEFSAII (Michael W. Deem and Ramdas Pophale) SiO2 
 PCOD9472417
Probable space group: C M C M
;
_chemical_formula_sum "Si O2"
_cell_formula_units_Z 80
_cell_length_a 21.626525
_cell_length_b 14.506335
_cell_length_c 12.901074
_cell_angle_alpha 90.000000
_cell_angle_beta 90.000000
_cell_angle_gamma 90.000000
_cell_volume 4047.345790
_symmetry_space_group_name_H-M "C M C M"
_symmetry_group_IT_number 63
_symmetry_cell_setting 'orthorhombic'
loop_
_space_group_symop_operation_xyz
x,y,z
-x,-y,1/2+z
x,-y,-z
-x,y,1/2-z
-x,-y,-z
x,y,1/2-z
-x,y,z
x,-y,1/2+z
1/2+x,1/2+y,z
1/2-x,1/2-y,1/2+z
1/2+x,1/2-y,-z
1/2-x,1/2+y,1/2-z
1/2-x,1/2-y,-z
1/2+x,1/2+y,1/2-z
1/2-x,1/2+y,z
1/2+x,1/2-y,1/2+z
loop_
_atom_site_type_symbol
_atom_site_label
_atom_site_fract_x
_atom_site_fract_y
_atom_site_fract_z
Si Si1 0.788995 0.336273 0.370375
Si Si2 0.265866 0.044861 0.127983
Si Si3 0.126160 0.931749 0.868716
Si Si4 0.334596 0.774032 0.577154
Si Si5 0.571831 0.626776 0.920558
O O1 0.807225 0.330211 0.250000
O O2 0.784540 0.442615 0.407223
O O3 0.721949 0.290014 0.384598
O O4 0.831936 0.283923 0.452232
O O5 0.255625 0.030960 0.250000
O O6 0.197411 0.076213 0.092921
O O7 0.316617 0.124378 0.115914
O O8 0.120396 0.898298 0.750000
O O9 0.108075 0.040129 0.871520
O O10 0.082750 0.886510 0.955547
O O11 0.396382 0.722709 0.610266
O O12 0.500000 0.621533 0.895265
#
# Coordination Sequence:
#
# PCOD9472417 Si02
#       5
#    16  16  16  16  16
#     4  10  20  34  54  84 113 139 179 234 289 337
#     4  10  20  34  58  87 114 140 176 233 295 340
#     4  10  20  37  57  80 110 144 184 231 287 336
#     4  11  21  34  56  80 113 148 184 225 281 329
#     4  11  24  37  52  79 114 153 193 224 262 332
#
# _framework density 19.766038999999999
#
# number of rings (size 3 to 8) (size 9 to 14) (size 15 to 20)
#    0.000    1.600    2.000    4.800    2.800    4.800 
#    0.000    0.000    0.000    2.400    0.000    2.800 
#    0.000    0.000    0.000    0.000    0.000    0.000 
#
# Total GULP energy -223409.459921 kJ/mol
# GULP energy per Si atom -5585.236498 kJ/mol
# Density = 1.972105 g / cm^3
# Si number density = 19.766039 Si / 1000 Ang^3
#
#
#
# Elastic Constant Matrix: (Units=GPa)
#
#
# Indices 1 2 3 4 5 6 
#
# 1 56.3633 20.4486 -6.5594 0.0000 0.0000 0.0000
# 2 20.4486 119.3071 -4.8850 0.0000 0.0000 0.0000
# 3 -6.5594 -4.8850 48.7980 0.0000 0.0000 0.0000
# 4 0.0000 0.0000 0.0000 17.2881 0.0000 0.0000
# 5 0.0000 0.0000 0.0000 0.0000 6.2836 0.0000
# 6 0.0000 0.0000 0.0000 0.0000 0.0000 22.5249
#
#
#
# Elastic Compliance Matrix: (Units=1/GPa)
#
#
# Indices 1 2 3 4 5 6 
#
# 1 0.019163 -0.003192 0.002256 0.000000 0.000000 0.000000
# 2 -0.003192 0.008948 0.000467 0.000000 0.000000 0.000000
# 3 0.002256 0.000467 0.020843 0.000000 0.000000 0.000000
# 4 0.000000 0.000000 0.000000 0.057843 0.000000 0.000000
# 5 0.000000 0.000000 0.000000 0.000000 0.159145 0.000000
# 6 0.000000 0.000000 0.000000 0.000000 0.000000 0.044395
#
#
# Mechanical properties :
#
#
# Convention : Reuss Voigt Hill
#
# Bulk Modulus (GPa) = 20.82671 26.94186 23.88428
# Shear Modulus (GPa) = 15.27745 23.58360 19.43053
#
# Velocity S-wave (km/s) = 2.78315 3.45793 3.13873
# Velocity P-wave (km/s) = 4.57027 5.44086 5.02446
#
# Compressibility (1/GPa) = 0.04801526
#
# Stress axis : x y z
#
# Youngs Moduli (GPa) = 52.18474 111.75764 47.97853
#
# Poissons Ratio (x) = 0.35673 -0.10825
# Poissons Ratio (y) = 0.16657 -0.02239
# Poissons Ratio (z) = -0.11774 -0.05216
#
# Static dielectric constant tensor:
#      x y z
#    x 1.638230 0.000000 0.000000 
#    y 0.000000 1.728510 0.000000 
#    z 0.000000 0.000000 1.803490 
# 
# From -- ./inp_files/35109.got.cif
#   From: 2010.05.17/outbox.cif.g08.bks.cpg/sg63_18_cif.got.tgz:35109.got - 2010.06.03 15:47:04.
