data_PCOD9472161
_publ_section_title
;
Structure prediction by ZEFSAII (Michael W. Deem and Ramdas Pophale) SiO2 
 PCOD9472161
Probable space group: C M C M
;
_chemical_formula_sum "Si O2"
_cell_formula_units_Z 88
_cell_length_a 17.479384
_cell_length_b 31.115142
_cell_length_c 7.451578
_cell_angle_alpha 90.000000
_cell_angle_beta 90.000000
_cell_angle_gamma 90.000000
_cell_volume 4052.715921
_symmetry_space_group_name_H-M "C M C M"
_symmetry_group_IT_number 63
_symmetry_cell_setting 'orthorhombic'
loop_
_space_group_symop_operation_xyz
x,y,z
-x,-y,1/2+z
x,-y,-z
-x,y,1/2-z
-x,-y,-z
x,y,1/2-z
-x,y,z
x,-y,1/2+z
1/2+x,1/2+y,z
1/2-x,1/2-y,1/2+z
1/2+x,1/2-y,-z
1/2-x,1/2+y,1/2-z
1/2-x,1/2-y,-z
1/2+x,1/2+y,1/2-z
1/2-x,1/2+y,z
1/2+x,1/2-y,1/2+z
loop_
_atom_site_type_symbol
_atom_site_label
_atom_site_fract_x
_atom_site_fract_y
_atom_site_fract_z
Si Si1 0.413759 0.953312 0.464041
Si Si2 0.408422 0.700149 0.454569
Si Si3 0.310688 0.124825 0.970474
Si Si4 0.589228 0.794202 0.469488
Si Si5 0.358369 0.392725 0.046438
Si Si6 0.000000 0.051177 0.965781
O O1 0.418725 0.948497 0.250000
O O2 0.500000 0.953044 0.537463
O O3 0.365166 0.913729 0.529483
O O4 0.379098 0.000000 0.500000
O O5 0.379711 0.696073 0.250000
O O6 0.500000 0.703193 0.447992
O O7 0.384650 0.746600 0.528895
O O8 0.388836 0.656109 0.550758
O O9 0.307871 0.126469 0.750000
O O10 0.351360 0.169159 0.025649
O O11 0.225772 0.113147 0.034710
O O12 0.588023 0.793248 0.250000
O O13 0.500000 0.802408 0.522905
O O14 0.346583 0.408612 0.250000
O O15 0.423735 0.423844 0.966457
O O16 0.000000 0.057269 0.750000
O O17 0.000000 0.000000 0.000000
#
# Coordination Sequence:
#
# PCOD9472161 Si02
#       6
#    16  16  16  16  16   8
#     4   9  17  30  49  71  94 124 160 196 237 286
#     4   9  17  30  50  73  97 127 164 201 237 283
#     4   9  17  29  47  71  99 129 161 198 241 289
#     4   8  14  26  46  73 101 129 163 201 234 274
#     4  10  20  34  51  72  98 127 159 199 247 296
#     4  10  22  38  54  72  94 124 164 208 251 296
#
# _framework density 21.713833000000001
#
# number of rings (size 3 to 8) (size 9 to 14) (size 15 to 20)
#    0.000    2.909    0.909    1.636    0.000    4.364 
#    0.000    0.909    0.000    1.091    0.000    2.545 
#    0.000    0.000    0.000    0.000    0.000    0.000 
#
# Total GULP energy -245310.844897 kJ/mol
# GULP energy per Si atom -5575.246475 kJ/mol
# Density = 2.166441 g / cm^3
# Si number density = 21.713833 Si / 1000 Ang^3
#
#
#
# Elastic Constant Matrix: (Units=GPa)
#
#
# Indices 1 2 3 4 5 6 
#
# 1 104.9773 84.7630 4.1035 0.0000 0.0000 0.0000
# 2 84.7630 182.5612 -2.1050 0.0000 0.0000 0.0000
# 3 4.1035 -2.1050 64.4913 0.0000 0.0000 0.0000
# 4 0.0000 0.0000 0.0000 9.6024 0.0000 0.0000
# 5 0.0000 0.0000 0.0000 0.0000 -5.0858 0.0000
# 6 0.0000 0.0000 0.0000 0.0000 0.0000 4.7839
#
#
#
# Elastic Compliance Matrix: (Units=1/GPa)
#
#
# Indices 1 2 3 4 5 6 
#
# 1 0.015332 -0.007133 -0.001208 0.000000 0.000000 0.000000
# 2 -0.007133 0.008798 0.000741 0.000000 0.000000 0.000000
# 3 -0.001208 0.000741 0.015607 0.000000 0.000000 0.000000
# 4 0.000000 0.000000 0.000000 0.104141 0.000000 0.000000
# 5 0.000000 0.000000 0.000000 0.000000 -0.196624 0.000000
# 6 0.000000 0.000000 0.000000 0.000000 0.000000 0.209036
#
#
# Mechanical properties :
#
#
# Convention : Reuss Voigt Hill
#
# Bulk Modulus (GPa) = 40.75466 58.39473 49.57469
# Shear Modulus (GPa) = 27.82890 19.54464 23.68677
#
# Velocity S-wave (km/s) = 3.58386 3.00342 3.30640
# Velocity P-wave (km/s) = 5.99459 6.24329 6.12020
#
# Compressibility (1/GPa) = 0.02453707
#
# Stress axis : x y z
#
# Youngs Moduli (GPa) = 65.22151 113.66378 64.07362
#
# Poissons Ratio (x) = 0.81073 0.07743
# Poissons Ratio (y) = 0.46521 -0.04748
# Poissons Ratio (z) = 0.07881 -0.08423
#
# Static dielectric constant tensor:
#      x y z
#    x 1.791760 0.000000 0.000000 
#    y 0.000000 1.777430 0.000000 
#    z 0.000000 0.000000 1.890490 
# 
# From -- ./inp_files/6799.got.cif
#   From: 2010.05.17/outbox.cif.g08.bks.cpg/sg63_4_cif.got.tgz:6799.got - 2010.06.03 15:47:04.
