data_PCOD9472406
_publ_section_title
;
Structure prediction by ZEFSAII (Michael W. Deem and Ramdas Pophale) SiO2 
 PCOD9472406
Probable space group: C M C M
;
_chemical_formula_sum "Si O2"
_cell_formula_units_Z 72
_cell_length_a 17.666117
_cell_length_b 22.766154
_cell_length_c 8.973976
_cell_angle_alpha 90.000000
_cell_angle_beta 90.000000
_cell_angle_gamma 90.000000
_cell_volume 3609.239281
_symmetry_space_group_name_H-M "C M C M"
_symmetry_group_IT_number 63
_symmetry_cell_setting 'orthorhombic'
loop_
_space_group_symop_operation_xyz
x,y,z
-x,-y,1/2+z
x,-y,-z
-x,y,1/2-z
-x,-y,-z
x,y,1/2-z
-x,y,z
x,-y,1/2+z
1/2+x,1/2+y,z
1/2-x,1/2-y,1/2+z
1/2+x,1/2-y,-z
1/2-x,1/2+y,1/2-z
1/2-x,1/2-y,-z
1/2+x,1/2+y,1/2-z
1/2-x,1/2+y,z
1/2+x,1/2-y,1/2+z
loop_
_atom_site_type_symbol
_atom_site_label
_atom_site_fract_x
_atom_site_fract_y
_atom_site_fract_z
Si Si1 0.500000 0.564466 0.070926
Si Si2 0.731037 0.940294 0.073846
Si Si3 0.589890 0.767744 0.423131
Si Si4 0.588452 0.108799 0.074318
Si Si5 0.351550 0.359339 0.929250
O O1 0.500000 0.558450 0.250000
O O2 0.425514 0.602045 0.030438
O O3 0.500000 0.500000 0.000000
O O4 0.735534 0.944264 0.250000
O O5 0.645441 0.930443 0.019640
O O6 0.780360 0.886667 0.011906
O O7 0.761120 0.000000 0.000000
O O8 0.607453 0.782759 0.250000
O O9 0.500000 0.753984 0.428381
O O10 0.603220 0.823778 0.526150
O O11 0.633587 0.708720 0.465507
O O12 0.602166 0.100979 0.250000
O O13 0.500000 0.096793 0.043268
O O14 0.341804 0.363388 0.750000
#
# Coordination Sequence:
#
# PCOD9472406 Si02
#       5
#     8  16  16  16  16
#     4  10  20  34  54  82 116 160 205 244 289 342
#     4  12  26  43  62  86 118 157 200 248 300 355
#     4   9  17  34  61  91 123 159 198 243 294 349
#     4  10  22  41  65  92 120 152 193 245 301 359
#     4  10  20  37  60  87 122 161 201 245 294 347
#
# _framework density 19.948803000000002
#
# number of rings (size 3 to 8) (size 9 to 14) (size 15 to 20)
#    0.000    1.778    1.111    3.333    0.000    6.222 
#    0.000    0.000    0.000    0.000    0.000    0.000 
#    0.000    0.000    0.000    0.000    0.000    0.000 
#
# Total GULP energy -201262.618809 kJ/mol
# GULP energy per Si atom -5590.628300 kJ/mol
# Density = 1.990340 g / cm^3
# Si number density = 19.948803 Si / 1000 Ang^3
#
#
#
# Elastic Constant Matrix: (Units=GPa)
#
#
# Indices 1 2 3 4 5 6 
#
# 1 57.7831 10.2577 34.1039 0.0000 0.0000 0.0000
# 2 10.2577 35.2339 11.5349 0.0000 0.0000 0.0000
# 3 34.1039 11.5349 53.1955 0.0000 0.0000 0.0000
# 4 0.0000 0.0000 0.0000 29.7635 0.0000 0.0000
# 5 0.0000 0.0000 0.0000 0.0000 23.8692 0.0000
# 6 0.0000 0.0000 0.0000 0.0000 0.0000 30.3024
#
#
#
# Elastic Compliance Matrix: (Units=1/GPa)
#
#
# Indices 1 2 3 4 5 6 
#
# 1 0.028036 -0.002452 -0.017442 0.000000 0.000000 0.000000
# 2 -0.002452 0.030765 -0.005099 0.000000 0.000000 0.000000
# 3 -0.017442 -0.005099 0.031087 0.000000 0.000000 0.000000
# 4 0.000000 0.000000 0.000000 0.033598 0.000000 0.000000
# 5 0.000000 0.000000 0.000000 0.000000 0.041895 0.000000
# 6 0.000000 0.000000 0.000000 0.000000 0.000000 0.033001
#
#
# Mechanical properties :
#
#
# Convention : Reuss Voigt Hill
#
# Bulk Modulus (GPa) = 25.06213 28.66727 26.86470
# Shear Modulus (GPa) = 19.10817 22.80808 20.95812
#
# Velocity S-wave (km/s) = 3.09829 3.38499 3.24481
# Velocity P-wave (km/s) = 5.03882 5.44785 5.24732
#
# Compressibility (1/GPa) = 0.03990084
#
# Stress axis : x y z
#
# Youngs Moduli (GPa) = 35.66862 32.50452 32.16821
#
# Poissons Ratio (x) = 0.07970 0.56109
# Poissons Ratio (y) = 0.08746 0.16403
# Poissons Ratio (z) = 0.62214 0.16574
#
# Static dielectric constant tensor:
#      x y z
#    x 1.713860 0.000000 0.000000 
#    y 0.000000 1.692750 0.000000 
#    z 0.000000 0.000000 1.660870 
# 
# From -- ./inp_files/6141.got.cif
#   From: 2010.05.17/outbox.cif.g08.bks.cpg/sg63_4_cif.got.tgz:6141.got - 2010.06.03 15:47:04.
