data_PCOD9472190
_publ_section_title
;
Structure prediction by ZEFSAII (Michael W. Deem and Ramdas Pophale) SiO2 
 PCOD9472190
Probable space group: C M C M
;
_chemical_formula_sum "Si O2"
_cell_formula_units_Z 96
_cell_length_a 21.963154
_cell_length_b 24.352359
_cell_length_c 7.739170
_cell_angle_alpha 90.000000
_cell_angle_beta 90.000000
_cell_angle_gamma 90.000000
_cell_volume 4139.330760
_symmetry_space_group_name_H-M "C M C M"
_symmetry_group_IT_number 63
_symmetry_cell_setting 'orthorhombic'
loop_
_space_group_symop_operation_xyz
x,y,z
-x,-y,1/2+z
x,-y,-z
-x,y,1/2-z
-x,-y,-z
x,y,1/2-z
-x,y,z
x,-y,1/2+z
1/2+x,1/2+y,z
1/2-x,1/2-y,1/2+z
1/2+x,1/2-y,-z
1/2-x,1/2+y,1/2-z
1/2-x,1/2-y,-z
1/2+x,1/2+y,1/2-z
1/2-x,1/2+y,z
1/2+x,1/2-y,1/2+z
loop_
_atom_site_type_symbol
_atom_site_label
_atom_site_fract_x
_atom_site_fract_y
_atom_site_fract_z
Si Si1 0.868072 0.175725 0.458262
Si Si2 0.303250 0.941140 0.455771
Si Si3 0.565023 0.092399 0.538780
Si Si4 0.600933 0.210880 0.948614
Si Si5 0.732959 0.824580 0.948401
Si Si6 0.930576 0.939062 0.044781
O O1 0.864567 0.180629 0.250000
O O2 0.907475 0.228009 0.522115
O O3 0.799461 0.186035 0.524499
O O4 0.893219 0.115140 0.493426
O O5 0.300795 0.932119 0.250000
O O6 0.373947 0.938424 0.514801
O O7 0.271629 0.890447 0.546449
O O8 0.276922 0.000000 0.500000
O O9 0.565773 0.092996 0.750000
O O10 0.500000 0.069873 0.481685
O O11 0.571621 0.155684 0.476600
O O12 0.580349 0.212679 0.750000
O O13 0.673565 0.197734 0.954651
O O14 0.729281 0.805687 0.750000
O O15 0.934211 0.937357 0.250000
O O16 0.000000 0.935638 0.972799
O O17 0.906060 0.000000 0.000000
#
# Coordination Sequence:
#
# PCOD9472190 Si02
#       6
#    16  16  16  16  16  16
#     4  10  21  35  55  83 109 139 178 214 255 313
#     4  10  20  34  52  73 100 135 175 218 265 315
#     4   8  15  29  49  73 101 133 169 209 252 300
#     4   9  18  33  53  78 108 141 176 214 259 307
#     4  10  20  34  52  76 108 142 176 216 263 311
#     4  10  22  40  60  81 107 139 174 216 266 316
#
# _framework density 23.192155
#
# number of rings (size 3 to 8) (size 9 to 14) (size 15 to 20)
#    0.000    2.500    0.000    3.000    0.000    4.667 
#    0.000    1.667    0.000   12.000    0.000    0.000 
#    0.000    0.000    0.000    0.000    0.000    0.000 
#
# Total GULP energy -267869.955262 kJ/mol
# GULP energy per Si atom -5580.624068 kJ/mol
# Density = 2.313937 g / cm^3
# Si number density = 23.192155 Si / 1000 Ang^3
#
#
#
# Elastic Constant Matrix: (Units=GPa)
#
#
# Indices 1 2 3 4 5 6 
#
# 1 35.9887 -2.5082 -2.2935 0.0000 0.0000 0.0000
# 2 -2.5082 132.4201 -6.9379 0.0000 0.0000 0.0000
# 3 -2.2935 -6.9379 53.2272 0.0000 0.0000 0.0000
# 4 0.0000 0.0000 0.0000 19.7136 0.0000 0.0000
# 5 0.0000 0.0000 0.0000 0.0000 8.7151 0.0000
# 6 0.0000 0.0000 0.0000 0.0000 0.0000 -15.7599
#
#
#
# Elastic Compliance Matrix: (Units=1/GPa)
#
#
# Indices 1 2 3 4 5 6 
#
# 1 0.027910 0.000596 0.001280 0.000000 0.000000 0.000000
# 2 0.000596 0.007616 0.001018 0.000000 0.000000 0.000000
# 3 0.001280 0.001018 0.018975 0.000000 0.000000 0.000000
# 4 0.000000 0.000000 0.000000 0.050726 0.000000 0.000000
# 5 0.000000 0.000000 0.000000 0.000000 0.114744 0.000000
# 6 0.000000 0.000000 0.000000 0.000000 0.000000 -0.063452
#
#
# Mechanical properties :
#
#
# Convention : Reuss Voigt Hill
#
# Bulk Modulus (GPa) = 16.58647 22.01741 19.30194
# Shear Modulus (GPa) = 29.26934 18.09212 23.68073
#
# Velocity S-wave (km/s) = 3.55637 2.79605 3.19888
# Velocity P-wave (km/s) = 4.90214 4.46519 4.68876
#
# Compressibility (1/GPa) = 0.06029011
#
# Stress axis : x y z
#
# Youngs Moduli (GPa) = 35.82995 131.29622 52.70006
#
# Poissons Ratio (x) = -0.07822 -0.06747
# Poissons Ratio (y) = -0.02134 -0.05367
# Poissons Ratio (z) = -0.04587 -0.13372
#
# Static dielectric constant tensor:
#      x y z
#    x 1.878950 0.000000 0.000000 
#    y 0.000000 1.897410 0.000000 
#    z 0.000000 0.000000 1.944180 
# 
# From -- ./inp_files/10490.got.cif
#   From: 2010.05.17/outbox.cif.g08.bks.cpg/sg63_6_cif.got.tgz:10490.got - 2010.06.03 15:47:04.
