data_PCOD9472342
_publ_section_title
;
Structure prediction by ZEFSAII (Michael W. Deem and Ramdas Pophale) SiO2 
 PCOD9472342
Probable space group: C M C M
;
_chemical_formula_sum "Si O2"
_cell_formula_units_Z 80
_cell_length_a 9.096273
_cell_length_b 26.369502
_cell_length_c 19.267050
_cell_angle_alpha 90.000000
_cell_angle_beta 90.000000
_cell_angle_gamma 90.000000
_cell_volume 4621.475324
_symmetry_space_group_name_H-M "C M C M"
_symmetry_group_IT_number 63
_symmetry_cell_setting 'orthorhombic'
loop_
_space_group_symop_operation_xyz
x,y,z
-x,-y,1/2+z
x,-y,-z
-x,y,1/2-z
-x,-y,-z
x,y,1/2-z
-x,y,z
x,-y,1/2+z
1/2+x,1/2+y,z
1/2-x,1/2-y,1/2+z
1/2+x,1/2-y,-z
1/2-x,1/2+y,1/2-z
1/2-x,1/2-y,-z
1/2+x,1/2+y,1/2-z
1/2-x,1/2+y,z
1/2+x,1/2-y,1/2+z
loop_
_atom_site_type_symbol
_atom_site_label
_atom_site_fract_x
_atom_site_fract_y
_atom_site_fract_z
Si Si1 0.668383 0.496490 0.415725
Si Si2 0.325375 0.806626 0.667620
Si Si3 0.174584 0.394651 0.424723
Si Si4 0.826224 0.810431 0.167299
Si Si5 0.676406 0.608675 0.424470
O O1 0.668506 0.500000 0.500000
O O2 0.500000 0.486434 0.394081
O O3 0.769822 0.449313 0.396987
O O4 0.713653 0.552962 0.393202
O O5 0.299959 0.812751 0.750000
O O6 0.500000 0.814061 0.655295
O O7 0.290744 0.748090 0.649577
O O8 0.233229 0.846487 0.623842
O O9 0.231662 0.350252 0.375173
O O10 0.248241 0.387384 0.500298
O O11 0.000000 0.394338 0.431143
O O12 0.805373 0.816307 0.250000
O O13 0.000000 0.818313 0.152904
O O14 0.500000 0.609822 0.432909
#
# Coordination Sequence:
#
# PCOD9472342 Si02
#       5
#    16  16  16  16  16
#     4   8  16  32  51  72 101 136 170 204 248 303
#     4   9  19  36  56  77 102 133 169 211 259 304
#     4  11  21  32  52  80 106 133 168 213 258 297
#     4   9  19  37  57  74  99 137 173 207 254 308
#     4  10  20  34  54  78 104 136 172 208 249 302
#
# _framework density 17.310490000000001
#
# number of rings (size 3 to 8) (size 9 to 14) (size 15 to 20)
#    0.000    2.600    0.000    4.800    0.000    6.800 
#    0.000    3.000    0.000    1.200    0.000    0.000 
#    0.000    0.000    0.000    0.000    0.000    0.000 
#
# Total GULP energy -223071.377513 kJ/mol
# GULP energy per Si atom -5576.784438 kJ/mol
# Density = 1.727109 g / cm^3
# Si number density = 17.310490 Si / 1000 Ang^3
#
#
#
# Elastic Constant Matrix: (Units=GPa)
#
#
# Indices 1 2 3 4 5 6 
#
# 1 103.7915 101.3221 50.0735 0.0000 0.0000 0.0000
# 2 101.3221 162.8771 63.4476 0.0000 0.0000 0.0000
# 3 50.0735 63.4476 36.9646 0.0000 0.0000 0.0000
# 4 0.0000 0.0000 0.0000-7260.3764 0.0000 0.0000
# 5 0.0000 0.0000 0.0000 0.0000 24.9554 0.0000
# 6 0.0000 0.0000 0.0000 0.0000 0.0000 30.5675
#
#
#
# Elastic Compliance Matrix: (Units=1/GPa)
#
#
# Indices 1 2 3 4 5 6 
#
# 1 0.031665 -0.009019 -0.027412 0.000000 0.000000 0.000000
# 2 -0.009019 0.021097 -0.023993 0.000000 0.000000 0.000000
# 3 -0.027412 -0.023993 0.105370 0.000000 0.000000 0.000000
# 4 0.000000 0.000000 0.000000 -0.000138 0.000000 0.000000
# 5 0.000000 0.000000 0.000000 0.000000 0.040072 0.000000
# 6 0.000000 0.000000 0.000000 0.000000 0.000000 0.032715
#
#
# Mechanical properties :
#
#
# Convention : Reuss Voigt Hill
#
# Bulk Modulus (GPa) = 26.82354 81.47998 54.15176
# Shear Modulus (GPa) = 13.73409 -1435.05138 -710.65864
#
# Velocity S-wave (km/s) = 2.81979 -28.82371 -20.28368
# Velocity P-wave (km/s) = 5.11183 32.56640 22.74246
#
# Compressibility (1/GPa) = 0.03728069
#
# Stress axis : x y z
#
# Youngs Moduli (GPa) = 31.58109 47.40041 9.49036
#
# Poissons Ratio (x) = 0.42753 0.26015
# Poissons Ratio (y) = 0.28484 0.22771
# Poissons Ratio (z) = 0.86572 1.13730
#
# Static dielectric constant tensor:
#      x y z
#    x 1.572650 0.000000 0.000000 
#    y 0.000000 1.600360 0.000000 
#    z 0.000000 0.000000 1.562960 
# 
# From -- ./inp_files/40431.got.cif
#   From: 2010.05.17/outbox.cif.g08.bks.cpg/sg63_21_cif.got.tgz:40431.got - 2010.06.03 15:47:04.
