data_PCOD9472253
_publ_section_title
;
Structure prediction by ZEFSAII (Michael W. Deem and Ramdas Pophale) SiO2 
 PCOD9472253
Probable space group: C M C M
;
_chemical_formula_sum "Si O2"
_cell_formula_units_Z 96
_cell_length_a 20.008362
_cell_length_b 20.696606
_cell_length_c 14.137278
_cell_angle_alpha 90.000000
_cell_angle_beta 90.000000
_cell_angle_gamma 90.000000
_cell_volume 5854.320122
_symmetry_space_group_name_H-M "C M C M"
_symmetry_group_IT_number 63
_symmetry_cell_setting 'orthorhombic'
loop_
_space_group_symop_operation_xyz
x,y,z
-x,-y,1/2+z
x,-y,-z
-x,y,1/2-z
-x,-y,-z
x,y,1/2-z
-x,y,z
x,-y,1/2+z
1/2+x,1/2+y,z
1/2-x,1/2-y,1/2+z
1/2+x,1/2-y,-z
1/2-x,1/2+y,1/2-z
1/2-x,1/2-y,-z
1/2+x,1/2+y,1/2-z
1/2-x,1/2+y,z
1/2+x,1/2-y,1/2+z
loop_
_atom_site_type_symbol
_atom_site_label
_atom_site_fract_x
_atom_site_fract_y
_atom_site_fract_z
Si Si1 0.704033 0.997012 0.750000
Si Si2 0.422305 0.084316 0.750000
Si Si3 0.718742 0.683464 0.538597
Si Si4 0.922984 0.625611 0.538713
Si Si5 0.294917 0.065064 0.449160
Si Si6 0.073647 0.187398 0.750000
Si Si7 0.575208 0.269404 0.042396
Si Si8 0.284984 0.367110 0.250000
O O1 0.711420 0.952142 0.840463
O O2 0.629310 0.025947 0.750000
O O3 0.751566 0.061488 0.750000
O O4 0.500000 0.064606 0.750000
O O5 0.410304 0.122252 0.651739
O O6 0.750000 0.750000 0.500000
O O7 0.751685 0.625162 0.482387
O O8 0.639302 0.687377 0.518688
O O9 0.732498 0.669510 0.650935
O O10 0.870015 0.581265 0.484429
O O11 0.915601 0.698567 0.501256
O O12 0.000000 0.605657 0.522699
O O13 0.272046 0.000000 0.500000
O O14 0.078019 0.231234 0.843355
O O15 0.133920 0.136239 0.750000
O O16 0.000000 0.156443 0.750000
O O17 0.500000 0.292022 0.016341
#
# Coordination Sequence:
#
# PCOD9472253 Si02
#       8
#     8   8  16  16  16   8  16   8
#     4  12  24  38  56  80 117 154 192 229 289 334
#     4  10  20  34  53  75 107 160 200 220 266 339
#     4  11  21  37  60  86 113 149 195 236 288 336
#     4  10  20  35  55  81 113 152 192 231 277 333
#     4  12  23  38  57  82 114 152 187 235 282 338
#     4   8  16  31  55  83 111 142 180 233 294 337
#     4   9  18  34  57  85 116 144 182 236 287 337
#     4  10  20  35  58  80 113 154 184 238 285 340
#
# _framework density 16.398147000000002
#
# number of rings (size 3 to 8) (size 9 to 14) (size 15 to 20)
#    0.000    1.667    5.000    0.000    0.000    2.333 
#    0.000    1.667    0.000    1.500    0.000    0.000 
#    0.000    0.000    0.000    0.000    0.000    0.000 
#
# Total GULP energy -267393.286422 kJ/mol
# GULP energy per Si atom -5570.693467 kJ/mol
# Density = 1.636082 g / cm^3
# Si number density = 16.398147 Si / 1000 Ang^3
#
#
#
# Elastic Constant Matrix: (Units=GPa)
#
#
# Indices 1 2 3 4 5 6 
#
# 1 101.7535 65.0111 65.5127 0.0000 0.0000 0.0000
# 2 65.0111 109.0674 66.2312 0.0000 0.0000 0.0000
# 3 65.5127 66.2312 135.6657 0.0000 0.0000 0.0000
# 4 0.0000 0.0000 0.0000 33.9401 0.0000 0.0000
# 5 0.0000 0.0000 0.0000 0.0000 26.0934 0.0000
# 6 0.0000 0.0000 0.0000 0.0000 0.0000 25.4438
#
#
#
# Elastic Compliance Matrix: (Units=1/GPa)
#
#
# Indices 1 2 3 4 5 6 
#
# 1 0.017889 -0.007700 -0.004879 0.000000 0.000000 0.000000
# 2 -0.007700 0.016346 -0.004262 0.000000 0.000000 0.000000
# 3 -0.004879 -0.004262 0.011808 0.000000 0.000000 0.000000
# 4 0.000000 0.000000 0.000000 0.029464 0.000000 0.000000
# 5 0.000000 0.000000 0.000000 0.000000 0.038324 0.000000
# 6 0.000000 0.000000 0.000000 0.000000 0.000000 0.039302
#
#
# Mechanical properties :
#
#
# Convention : Reuss Voigt Hill
#
# Bulk Modulus (GPa) = 80.90192 82.22184 81.56188
# Shear Modulus (GPa) = 26.18690 27.07757 26.63223
#
# Velocity S-wave (km/s) = 4.00051 4.06798 4.03438
# Velocity P-wave (km/s) = 8.41320 8.50378 8.45861
#
# Compressibility (1/GPa) = 0.01236065
#
# Stress axis : x y z
#
# Youngs Moduli (GPa) = 55.90129 61.17614 84.68846
#
# Poissons Ratio (x) = 0.47104 0.41323
# Poissons Ratio (y) = 0.43043 0.36094
# Poissons Ratio (z) = 0.27277 0.26073
#
# Static dielectric constant tensor:
#      x y z
#    x 1.595030 0.000000 0.000000 
#    y 0.000000 1.507010 0.000000 
#    z 0.000000 0.000000 1.586520 
# 
# From -- ./inp_files/22854.got.cif
#   From: 2010.05.17/outbox.cif.g08.bks.cpg/sg63_12_cif.got.tgz:22854.got - 2010.06.03 15:47:04.
