data_PCOD9472654
_publ_section_title
;
Structure prediction by ZEFSAII (Michael W. Deem and Ramdas Pophale) SiO2 
 PCOD9472654
Probable space group: C M C M
;
_chemical_formula_sum "Si O2"
_cell_formula_units_Z 80
_cell_length_a 7.484883
_cell_length_b 14.586499
_cell_length_c 31.199839
_cell_angle_alpha 90.000000
_cell_angle_beta 90.000000
_cell_angle_gamma 90.000000
_cell_volume 3406.343460
_symmetry_space_group_name_H-M "C M C M"
_symmetry_group_IT_number 63
_symmetry_cell_setting 'orthorhombic'
loop_
_space_group_symop_operation_xyz
x,y,z
-x,-y,1/2+z
x,-y,-z
-x,y,1/2-z
-x,-y,-z
x,y,1/2-z
-x,y,z
x,-y,1/2+z
1/2+x,1/2+y,z
1/2-x,1/2-y,1/2+z
1/2+x,1/2-y,-z
1/2-x,1/2+y,1/2-z
1/2-x,1/2-y,-z
1/2+x,1/2+y,1/2-z
1/2-x,1/2+y,z
1/2+x,1/2-y,1/2+z
loop_
_atom_site_type_symbol
_atom_site_label
_atom_site_fract_x
_atom_site_fract_y
_atom_site_fract_z
Si Si1 0.794406 0.344651 0.296659
Si Si2 0.713753 0.130360 0.204064
Si Si3 0.280099 0.819519 0.110706
Si Si4 0.202600 0.539343 0.543282
Si Si5 0.208799 0.892041 0.611130
O O1 0.715241 0.369835 0.250000
O O2 0.794118 0.232893 0.296904
O O3 0.718033 0.363049 0.343958
O O4 0.000000 0.377796 0.296416
O O5 0.763624 0.088381 0.250000
O O6 0.500000 0.140216 0.203107
O O7 0.768819 0.080605 0.160836
O O8 0.500000 0.822345 0.111977
O O9 0.227454 0.713239 0.108255
O O10 0.217316 0.875991 0.069599
O O11 0.287378 0.500000 0.500000
O O12 0.197418 0.458859 0.578302
O O13 0.000000 0.567665 0.531589
O O14 0.000000 0.893510 0.600456
#
# Coordination Sequence:
#
# PCOD9472654 Si02
#       5
#    16  16  16  16  16
#     4   8  13  24  45  71  99 133 168 201 243 299
#     4   9  16  27  47  76 107 137 169 205 246 298
#     4   8  16  32  52  74 102 135 170 208 256 315
#     4  10  21  37  55  75 102 136 176 224 272 316
#     4  10  20  35  55  77 104 137 172 213 259 311
#
# _framework density 23.485593000000001
#
# number of rings (size 3 to 8) (size 9 to 14) (size 15 to 20)
#    0.000    3.000    0.000    2.400    0.000    2.400 
#    0.000    6.000    0.000    3.600    0.000    0.000 
#    0.000    0.000    0.000    0.000    0.000    0.000 
#
# Total GULP energy -223160.151083 kJ/mol
# GULP energy per Si atom -5579.003777 kJ/mol
# Density = 2.343214 g / cm^3
# Si number density = 23.485593 Si / 1000 Ang^3
#
#
#
# Elastic Constant Matrix: (Units=GPa)
#
#
# Indices 1 2 3 4 5 6 
#
# 1 74.8878 -5.4952 -12.6737 0.0000 0.0000 0.0000
# 2 -5.4952 74.3784 10.1088 0.0000 0.0000 0.0000
# 3 -12.6737 10.1088 109.0039 0.0000 0.0000 0.0000
# 4 0.0000 0.0000 0.0000 36.1150 0.0000 0.0000
# 5 0.0000 0.0000 0.0000 0.0000 33.9671 0.0000
# 6 0.0000 0.0000 0.0000 0.0000 0.0000 -0.6079
#
#
#
# Elastic Compliance Matrix: (Units=1/GPa)
#
#
# Indices 1 2 3 4 5 6 
#
# 1 0.013669 0.000804 0.001515 0.000000 0.000000 0.000000
# 2 0.000804 0.013664 -0.001174 0.000000 0.000000 0.000000
# 3 0.001515 -0.001174 0.009459 0.000000 0.000000 0.000000
# 4 0.000000 0.000000 0.000000 0.027689 0.000000 0.000000
# 5 0.000000 0.000000 0.000000 0.000000 0.029440 0.000000
# 6 0.000000 0.000000 0.000000 0.000000 0.000000 -1.644877
#
#
# Mechanical properties :
#
#
# Convention : Reuss Voigt Hill
#
# Bulk Modulus (GPa) = 25.58770 26.90554 26.24662
# Shear Modulus (GPa) = -3.24629 31.65016 14.20194
#
# Velocity S-wave (km/s) = -1.17697 3.67501 2.46175
# Velocity P-wave (km/s) = 3.01193 5.43034 4.39092
#
# Compressibility (1/GPa) = 0.03908128
#
# Stress axis : x y z
#
# Youngs Moduli (GPa) = 73.16014 73.18672 105.72016
#
# Poissons Ratio (x) = -0.05884 -0.16013
# Poissons Ratio (y) = -0.05882 0.12408
# Poissons Ratio (z) = -0.11081 0.08590
#
# Static dielectric constant tensor:
#      x y z
#    x 1.871070 0.000000 0.000000 
#    y 0.000000 1.889190 0.000000 
#    z 0.000000 0.000000 1.908820 
# 
# From -- ./inp_files/71564.got.cif
#   From: 2010.05.17/outbox.cif.g08.bks.cpg/sg63_36_cif.got.tgz:71564.got - 2010.06.03 15:47:04.
