data_PCOD9472886
_publ_section_title
;
Structure prediction by ZEFSAII (Michael W. Deem and Ramdas Pophale) SiO2 
 PCOD9472886
Probable space group: C M C M
;
_chemical_formula_sum "Si O2"
_cell_formula_units_Z 112
_cell_length_a 14.373182
_cell_length_b 13.895925
_cell_length_c 27.591408
_cell_angle_alpha 90.000000
_cell_angle_beta 90.000000
_cell_angle_gamma 90.000000
_cell_volume 5510.794922
_symmetry_space_group_name_H-M "C M C M"
_symmetry_group_IT_number 63
_symmetry_cell_setting 'orthorhombic'
loop_
_space_group_symop_operation_xyz
x,y,z
-x,-y,1/2+z
x,-y,-z
-x,y,1/2-z
-x,-y,-z
x,y,1/2-z
-x,y,z
x,-y,1/2+z
1/2+x,1/2+y,z
1/2-x,1/2-y,1/2+z
1/2+x,1/2-y,-z
1/2-x,1/2+y,1/2-z
1/2-x,1/2-y,-z
1/2+x,1/2+y,1/2-z
1/2-x,1/2+y,z
1/2+x,1/2-y,1/2+z
loop_
_atom_site_type_symbol
_atom_site_label
_atom_site_fract_x
_atom_site_fract_y
_atom_site_fract_z
Si Si1 0.098974 0.603242 0.024635
Si Si2 0.271510 0.654213 0.192759
Si Si3 0.812978 0.260904 0.047019
Si Si4 0.891071 0.948288 0.547632
Si Si5 0.776844 0.645476 0.853469
Si Si6 0.385815 0.946059 0.631453
Si Si7 0.108030 0.979090 0.345764
O O1 0.147850 0.585752 0.076785
O O2 0.000000 0.637994 0.043362
O O3 0.098741 0.500000 0.000000
O O4 0.113718 0.669429 0.977789
O O5 0.259373 0.648101 0.250000
O O6 0.303724 0.761048 0.177435
O O7 0.174433 0.623285 0.166546
O O8 0.348934 0.576753 0.175962
O O9 0.849752 0.155751 0.058857
O O10 0.766562 0.312008 0.092338
O O11 0.750000 0.250000 0.000000
O O12 0.000000 0.932100 0.537176
O O13 0.848722 0.000000 0.500000
O O14 0.884491 0.011444 0.595749
O O15 0.847663 0.554728 0.857598
O O16 0.679828 0.604890 0.832811
O O17 0.500000 0.944139 0.636332
O O18 0.000000 0.965658 0.332956
#
# Coordination Sequence:
#
# PCOD9472886 Si02
#       7
#    16  16  16  16  16  16  16
#     4  10  20  35  58  91 129 169 206 248 304 384
#     4  11  25  46  67  94 128 168 219 277 335 390
#     4  12  22  32  57  90 128 172 213 251 314 382
#     4  10  21  37  57  87 128 171 214 259 311 381
#     4  11  23  40  65  98 129 171 218 272 324 384
#     4  10  23  43  68  99 135 171 213 265 325 390
#     4  10  23  44  68  93 128 170 216 270 327 386
#
# _framework density 20.323746
#
# number of rings (size 3 to 8) (size 9 to 14) (size 15 to 20)
#    0.000    1.429    2.857    2.143    2.000    5.143 
#    0.000    3.571    0.000    0.000    0.000    0.000 
#    0.000    0.000    0.000    0.000    0.000    0.000 
#
# Total GULP energy -311957.164979 kJ/mol
# GULP energy per Si atom -5570.663660 kJ/mol
# Density = 2.027749 g / cm^3
# Si number density = 20.323746 Si / 1000 Ang^3
#
#
#
# Elastic Constant Matrix: (Units=GPa)
#
#
# Indices 1 2 3 4 5 6 
#
# 1 78.6916 17.0529 8.0919 0.0000 0.0000 0.0000
# 2 17.0529 83.4512 4.6342 0.0000 0.0000 0.0000
# 3 8.0919 4.6342 90.7600 0.0000 0.0000 0.0000
# 4 0.0000 0.0000 0.0000 15.5200 0.0000 0.0000
# 5 0.0000 0.0000 0.0000 0.0000 18.0861 0.0000
# 6 0.0000 0.0000 0.0000 0.0000 0.0000 15.0548
#
#
#
# Elastic Compliance Matrix: (Units=1/GPa)
#
#
# Indices 1 2 3 4 5 6 
#
# 1 0.013397 -0.002679 -0.001058 0.000000 0.000000 0.000000
# 2 -0.002679 0.012553 -0.000402 0.000000 0.000000 0.000000
# 3 -0.001058 -0.000402 0.011133 0.000000 0.000000 0.000000
# 4 0.000000 0.000000 0.000000 0.064433 0.000000 0.000000
# 5 0.000000 0.000000 0.000000 0.000000 0.055291 0.000000
# 6 0.000000 0.000000 0.000000 0.000000 0.000000 0.066424
#
#
# Mechanical properties :
#
#
# Convention : Reuss Voigt Hill
#
# Bulk Modulus (GPa) = 34.71564 34.71789 34.71676
# Shear Modulus (GPa) = 20.73740 24.60709 22.67224
#
# Velocity S-wave (km/s) = 3.19776 3.48337 3.34361
# Velocity P-wave (km/s) = 5.54551 5.77044 5.65909
#
# Compressibility (1/GPa) = 0.02880546
#
# Stress axis : x y z
#
# Youngs Moduli (GPa) = 74.64288 79.66345 89.82388
#
# Poissons Ratio (x) = 0.21341 0.09500
# Poissons Ratio (y) = 0.19996 0.03612
# Poissons Ratio (z) = 0.07895 0.03203
#
# Static dielectric constant tensor:
#      x y z
#    x 1.803990 0.000000 0.000000 
#    y 0.000000 1.652140 0.000000 
#    z 0.000000 0.000000 1.740600 
# 
# From -- ./inp_files/63006.got.cif
#   From: 2010.05.17/outbox.cif.g08.bks.cpg/sg63_32_cif.got.tgz:63006.got - 2010.06.03 15:47:04.
