data_PCOD9472066
_publ_section_title
;
Structure prediction by ZEFSAII (Michael W. Deem and Ramdas Pophale) SiO2 
 PCOD9472066
Probable space group: C M C M
;
_chemical_formula_sum "Si O2"
_cell_formula_units_Z 112
_cell_length_a 15.870722
_cell_length_b 15.543658
_cell_length_c 27.972066
_cell_angle_alpha 90.000000
_cell_angle_beta 90.000000
_cell_angle_gamma 90.000000
_cell_volume 6900.403087
_symmetry_space_group_name_H-M "C M C M"
_symmetry_group_IT_number 63
_symmetry_cell_setting 'orthorhombic'
loop_
_space_group_symop_operation_xyz
x,y,z
-x,-y,1/2+z
x,-y,-z
-x,y,1/2-z
-x,-y,-z
x,y,1/2-z
-x,y,z
x,-y,1/2+z
1/2+x,1/2+y,z
1/2-x,1/2-y,1/2+z
1/2+x,1/2-y,-z
1/2-x,1/2+y,1/2-z
1/2-x,1/2-y,-z
1/2+x,1/2+y,1/2-z
1/2-x,1/2+y,z
1/2+x,1/2-y,1/2+z
loop_
_atom_site_type_symbol
_atom_site_label
_atom_site_fract_x
_atom_site_fract_y
_atom_site_fract_z
Si Si1 0.188961 0.438673 0.104956
Si Si2 0.748727 0.103162 0.447431
Si Si3 0.899705 0.718449 0.303752
Si Si4 0.811435 0.777728 0.399057
Si Si5 0.900272 0.512713 0.195591
Si Si6 0.596417 0.323830 0.003514
Si Si7 0.906102 0.374163 0.481517
O O1 0.243819 0.517369 0.083768
O O2 0.243683 0.352835 0.105233
O O3 0.153418 0.464636 0.156110
O O4 0.112383 0.419549 0.068535
O O5 0.731318 0.188349 0.415934
O O6 0.833906 0.117276 0.477671
O O7 0.669359 0.099388 0.483533
O O8 0.870952 0.743248 0.250000
O O9 0.856150 0.763492 0.348419
O O10 0.887118 0.615559 0.308774
O O11 0.000000 0.733389 0.305942
O O12 0.874708 0.804926 0.441992
O O13 0.879194 0.487989 0.250000
O O14 0.000000 0.497480 0.188401
O O15 0.500000 0.355058 0.001461
O O16 0.599567 0.229621 0.978405
O O17 0.000000 0.394148 0.499750
#
# Coordination Sequence:
#
# PCOD9472066 Si02
#       7
#    16  16  16  16  16  16  16
#     4  12  21  32  56  78 109 138 179 215 266 318
#     4  11  21  37  50  77 113 145 176 221 262 313
#     4   9  18  35  57  79 105 136 172 219 275 324
#     4  11  20  35  53  79 109 139 180 223 262 317
#     4   9  19  35  54  80 109 135 168 216 277 335
#     4  10  20  37  55  73 108 151 186 222 263 308
#     4  10  20  33  53  79 107 138 176 219 266 317
#
# _framework density 16.230934999999999
#
# number of rings (size 3 to 8) (size 9 to 14) (size 15 to 20)
#    0.000    1.714    4.286    3.000    0.000    2.857 
#    0.000    2.143    0.000    0.000    0.000    0.000 
#    0.000    3.429    0.000    0.000    0.000    0.000 
#
# Total GULP energy -312459.229711 kJ/mol
# GULP energy per Si atom -5579.629102 kJ/mol
# Density = 1.619399 g / cm^3
# Si number density = 16.230935 Si / 1000 Ang^3
#
#
#
# Elastic Constant Matrix: (Units=GPa)
#
#
# Indices 1 2 3 4 5 6 
#
# 1 91.6619 35.7516 53.8926 0.0000 0.0000 0.0000
# 2 35.7516 69.8488 46.7489 0.0000 0.0000 0.0000
# 3 53.8926 46.7489 118.7978 0.0000 0.0000 0.0000
# 4 0.0000 0.0000 0.0000 16.8417 0.0000 0.0000
# 5 0.0000 0.0000 0.0000 0.0000 28.1968 0.0000
# 6 0.0000 0.0000 0.0000 0.0000 0.0000 8.5438
#
#
#
# Elastic Compliance Matrix: (Units=1/GPa)
#
#
# Indices 1 2 3 4 5 6 
#
# 1 0.015847 -0.004480 -0.005426 0.000000 0.000000 0.000000
# 2 -0.004480 0.020702 -0.006114 0.000000 0.000000 0.000000
# 3 -0.005426 -0.006114 0.013285 0.000000 0.000000 0.000000
# 4 0.000000 0.000000 0.000000 0.059377 0.000000 0.000000
# 5 0.000000 0.000000 0.000000 0.000000 0.035465 0.000000
# 6 0.000000 0.000000 0.000000 0.000000 0.000000 0.117044
#
#
# Mechanical properties :
#
#
# Convention : Reuss Voigt Hill
#
# Bulk Modulus (GPa) = 56.19876 61.45496 58.82686
# Shear Modulus (GPa) = 16.68379 20.31080 18.49729
#
# Velocity S-wave (km/s) = 3.20957 3.54130 3.37951
# Velocity P-wave (km/s) = 6.95951 7.39365 7.17986
#
# Compressibility (1/GPa) = 0.01779399
#
# Stress axis : x y z
#
# Youngs Moduli (GPa) = 63.10238 48.30528 75.27052
#
# Poissons Ratio (x) = 0.21638 0.40844
# Poissons Ratio (y) = 0.28267 0.46023
# Poissons Ratio (z) = 0.34242 0.29535
#
# Static dielectric constant tensor:
#      x y z
#    x 1.537320 0.000000 0.000000 
#    y 0.000000 1.545930 0.000000 
#    z 0.000000 0.000000 1.541770 
# 
# From -- ./inp_files/69406.got.cif
#   From: 2010.05.17/outbox.cif.g08.bks.cpg/sg63_35_cif.got.tgz:69406.got - 2010.06.03 15:47:04.
