data_PCOD9472470
_publ_section_title
;
Structure prediction by ZEFSAII (Michael W. Deem and Ramdas Pophale) SiO2 
 PCOD9472470
Probable space group: C M C M
;
_chemical_formula_sum "Si O2"
_cell_formula_units_Z 116
_cell_length_a 14.856153
_cell_length_b 16.147641
_cell_length_c 23.914959
_cell_angle_alpha 90.000000
_cell_angle_beta 90.000000
_cell_angle_gamma 90.000000
_cell_volume 5737.003166
_symmetry_space_group_name_H-M "C M C M"
_symmetry_group_IT_number 63
_symmetry_cell_setting 'orthorhombic'
loop_
_space_group_symop_operation_xyz
x,y,z
-x,-y,1/2+z
x,-y,-z
-x,y,1/2-z
-x,-y,-z
x,y,1/2-z
-x,y,z
x,-y,1/2+z
1/2+x,1/2+y,z
1/2-x,1/2-y,1/2+z
1/2+x,1/2-y,-z
1/2-x,1/2+y,1/2-z
1/2-x,1/2-y,-z
1/2+x,1/2+y,1/2-z
1/2-x,1/2+y,z
1/2+x,1/2-y,1/2+z
loop_
_atom_site_type_symbol
_atom_site_label
_atom_site_fract_x
_atom_site_fract_y
_atom_site_fract_z
Si Si1 0.279203 0.966772 0.413823
Si Si2 0.101729 0.791513 0.131693
Si Si3 0.274412 0.845931 0.312238
Si Si4 0.203054 0.835210 0.482909
Si Si5 0.500000 0.056596 0.250000
Si Si6 0.140800 0.398450 0.846791
Si Si7 0.600781 0.570737 0.080223
Si Si8 0.661208 0.340771 0.812941
O O1 0.299005 0.909720 0.360135
O O2 0.277059 0.905672 0.466845
O O3 0.342691 0.045190 0.401839
O O4 0.176138 0.000042 0.413290
O O5 0.168643 0.826448 0.178903
O O6 0.146134 0.816537 0.072911
O O7 0.104394 0.692142 0.137207
O O8 0.000000 0.821300 0.136893
O O9 0.292467 0.876801 0.250000
O O10 0.324015 0.757835 0.319827
O O11 0.250000 0.750000 0.500000
O O12 0.139460 0.870896 0.531198
O O13 0.422093 0.062671 0.299654
O O14 0.240283 0.381633 0.821507
O O15 0.500000 0.541194 0.068002
O O16 0.602331 0.621955 0.137778
O O17 0.629122 0.356689 0.750000
#
# Coordination Sequence:
#
# PCOD9472470 Si02
#       8
#    16  16  16  16   4  16  16  16
#     4  10  22  37  57  84 118 154 190 242 291 359
#     4  10  20  34  55  85 112 138 184 247 292 332
#     4   9  19  33  56  79 110 154 193 230 283 351
#     4  11  22  41  64  80 104 156 202 245 298 351
#     4  12  20  32  64  92 124 164 194 246 292 376
#     4  10  20  34  58  91 120 152 192 236 299 357
#     4  11  23  37  60  90 118 152 201 248 305 373
#     4   9  18  37  59  85 117 158 197 243 300 365
#
# _framework density 20.219617
#
# number of rings (size 3 to 8) (size 9 to 14) (size 15 to 20)
#    0.000    1.931    1.379    4.138    1.931    4.414 
#    0.000    0.000    7.586    0.828    0.000    0.000 
#    0.000    0.000    0.000    0.000    0.000    0.000 
#
# Total GULP energy -323184.598374 kJ/mol
# GULP energy per Si atom -5572.148248 kJ/mol
# Density = 2.017360 g / cm^3
# Si number density = 20.219617 Si / 1000 Ang^3
#
#
#
# Elastic Constant Matrix: (Units=GPa)
#
#
# Indices 1 2 3 4 5 6 
#
# 1 48.7695 0.7054 8.0135 0.0000 0.0000 0.0000
# 2 0.7054 42.7423 20.2433 0.0000 0.0000 0.0000
# 3 8.0135 20.2433 100.7579 0.0000 0.0000 0.0000
# 4 0.0000 0.0000 0.0000 26.0632 0.0000 0.0000
# 5 0.0000 0.0000 0.0000 0.0000 21.7515 0.0000
# 6 0.0000 0.0000 0.0000 0.0000 0.0000 3.2187
#
#
#
# Elastic Compliance Matrix: (Units=1/GPa)
#
#
# Indices 1 2 3 4 5 6 
#
# 1 0.020785 0.000486 -0.001751 0.000000 0.000000 0.000000
# 2 0.000486 0.025868 -0.005236 0.000000 0.000000 0.000000
# 3 -0.001751 -0.005236 0.011116 0.000000 0.000000 0.000000
# 4 0.000000 0.000000 0.000000 0.038368 0.000000 0.000000
# 5 0.000000 0.000000 0.000000 0.000000 0.045974 0.000000
# 6 0.000000 0.000000 0.000000 0.000000 0.000000 0.310689
#
#
# Mechanical properties :
#
#
# Convention : Reuss Voigt Hill
#
# Bulk Modulus (GPa) = 22.33729 27.79935 25.06832
# Shear Modulus (GPa) = 10.40098 21.09381 15.74740
#
# Velocity S-wave (km/s) = 2.27050 3.23342 2.79376
# Velocity P-wave (km/s) = 4.23614 5.26484 4.77825
#
# Compressibility (1/GPa) = 0.04476819
#
# Stress axis : x y z
#
# Youngs Moduli (GPa) = 48.11097 38.65819 89.96087
#
# Poissons Ratio (x) = -0.01879 0.15750
# Poissons Ratio (y) = -0.02339 0.47101
# Poissons Ratio (z) = 0.08423 0.20241
#
# Static dielectric constant tensor:
#      x y z
#    x 1.701460 0.000000 0.000000 
#    y 0.000000 1.754120 0.000000 
#    z 0.000000 0.000000 1.720530 
# 
# From -- ./inp_files/63198.got.cif
#   From: 2010.05.17/outbox.cif.g08.bks.cpg/sg63_32_cif.got.tgz:63198.got - 2010.06.03 15:47:04.
