data_PCOD9472259
_publ_section_title
;
Structure prediction by ZEFSAII (Michael W. Deem and Ramdas Pophale) SiO2 
 PCOD9472259
Probable space group: C M C M
;
_chemical_formula_sum "Si O2"
_cell_formula_units_Z 120
_cell_length_a 28.279167
_cell_length_b 12.434940
_cell_length_c 20.977748
_cell_angle_alpha 90.000000
_cell_angle_beta 90.000000
_cell_angle_gamma 90.000000
_cell_volume 7376.819733
_symmetry_space_group_name_H-M "C M C M"
_symmetry_group_IT_number 63
_symmetry_cell_setting 'orthorhombic'
loop_
_space_group_symop_operation_xyz
x,y,z
-x,-y,1/2+z
x,-y,-z
-x,y,1/2-z
-x,-y,-z
x,y,1/2-z
-x,y,z
x,-y,1/2+z
1/2+x,1/2+y,z
1/2-x,1/2-y,1/2+z
1/2+x,1/2-y,-z
1/2-x,1/2+y,1/2-z
1/2-x,1/2-y,-z
1/2+x,1/2+y,1/2-z
1/2-x,1/2+y,z
1/2+x,1/2-y,1/2+z
loop_
_atom_site_type_symbol
_atom_site_label
_atom_site_fract_x
_atom_site_fract_y
_atom_site_fract_z
Si Si1 0.335016 0.500000 0.000000
Si Si2 0.866804 0.756694 0.996217
Si Si3 0.685426 0.214323 0.373723
Si Si4 0.719151 0.558566 0.628664
Si Si5 0.889605 0.449634 0.823362
Si Si6 0.443824 0.899140 0.953341
Si Si7 0.777256 0.841793 0.682046
Si Si8 0.673297 0.145658 0.630852
O O1 0.363671 0.612933 0.010959
O O2 0.301980 0.523534 0.939273
O O3 0.832946 0.724004 0.054723
O O4 0.916620 0.704826 0.018223
O O5 0.847421 0.693584 0.934639
O O6 0.692317 0.334600 0.349261
O O7 0.650459 0.141504 0.333239
O O8 0.738119 0.167780 0.372665
O O9 0.707100 0.463195 0.676444
O O10 0.775129 0.587687 0.624378
O O11 0.906984 0.448284 0.750000
O O12 0.925888 0.426432 0.881554
O O13 0.862949 0.561803 0.838414
O O14 0.500000 0.884112 0.953472
O O15 0.432144 0.000000 0.000000
O O16 0.753234 0.823307 0.750000
O O17 0.816104 0.751254 0.672661
#
# Coordination Sequence:
#
# PCOD9472259 Si02
#       8
#     8  16  16  16  16  16  16  16
#     4  10  20  34  53  76 104 134 183 222 262 298
#     4  10  20  36  56  77 104 133 176 225 270 316
#     4   9  21  32  47  72 100 143 179 217 256 302
#     4  10  21  30  48  71 103 144 184 222 250 294
#     4  11  21  35  55  79 109 140 174 215 260 319
#     4  10  21  38  60  84 107 133 163 210 275 334
#     4  11  21  32  44  66 103 145 185 222 254 298
#     4  11  21  32  50  75 106 144 182 221 261 302
#
# _framework density 16.267171999999999
#
# number of rings (size 3 to 8) (size 9 to 14) (size 15 to 20)
#    0.000    1.733    4.000    0.800    1.867    4.533 
#    0.000    0.333    0.000    0.000    0.000    0.000 
#    0.000    0.000    0.000    0.000    0.000    0.000 
#
# Total GULP energy -334179.531108 kJ/mol
# GULP energy per Si atom -5569.658852 kJ/mol
# Density = 1.623015 g / cm^3
# Si number density = 16.267172 Si / 1000 Ang^3
#
#
#
# Elastic Constant Matrix: (Units=GPa)
#
#
# Indices 1 2 3 4 5 6 
#
# 1 47.8108 26.2434 24.9883 0.0000 0.0000 0.0000
# 2 26.2434 113.9107 43.3516 0.0000 0.0000 0.0000
# 3 24.9883 43.3516 83.8530 0.0000 0.0000 0.0000
# 4 0.0000 0.0000 0.0000 -4.7438 0.0000 0.0000
# 5 0.0000 0.0000 0.0000 0.0000 10.9705 0.0000
# 6 0.0000 0.0000 0.0000 0.0000 0.0000 15.9653
#
#
#
# Elastic Compliance Matrix: (Units=1/GPa)
#
#
# Indices 1 2 3 4 5 6 
#
# 1 0.026025 -0.003790 -0.005796 0.000000 0.000000 0.000000
# 2 -0.003790 0.011481 -0.004806 0.000000 0.000000 0.000000
# 3 -0.005796 -0.004806 0.016138 0.000000 0.000000 0.000000
# 4 0.000000 0.000000 0.000000 -0.210800 0.000000 0.000000
# 5 0.000000 0.000000 0.000000 0.000000 0.091153 0.000000
# 6 0.000000 0.000000 0.000000 0.000000 0.000000 0.062636
#
#
# Mechanical properties :
#
#
# Convention : Reuss Voigt Hill
#
# Bulk Modulus (GPa) = 40.22628 48.30458 44.26543
# Shear Modulus (GPa) = 148.34435 14.50447 81.42441
#
# Velocity S-wave (km/s) = 9.55983 2.98927 7.08259
# Velocity P-wave (km/s) = 12.10934 6.45549 9.70334
#
# Compressibility (1/GPa) = 0.02485937
#
# Stress axis : x y z
#
# Youngs Moduli (GPa) = 38.42386 87.09959 61.96654
#
# Poissons Ratio (x) = 0.33011 0.35917
# Poissons Ratio (y) = 0.14563 0.29783
# Poissons Ratio (z) = 0.22271 0.41862
#
# Static dielectric constant tensor:
#      x y z
#    x 1.524120 0.000000 0.000000 
#    y 0.000000 1.594230 0.000000 
#    z 0.000000 0.000000 1.564420 
# 
# From -- ./inp_files/58364.got.cif
#   From: 2010.05.17/outbox.cif.g08.bks.cpg/sg63_30_cif.got.tgz:58364.got - 2010.06.03 15:47:04.
