data_PCOD9472943
_publ_section_title
;
Structure prediction by ZEFSAII (Michael W. Deem and Ramdas Pophale) SiO2 
 PCOD9472943
Probable space group: C M C M
;
_chemical_formula_sum "Si O2"
_cell_formula_units_Z 92
_cell_length_a 10.865734
_cell_length_b 19.550688
_cell_length_c 22.873149
_cell_angle_alpha 90.000000
_cell_angle_beta 90.000000
_cell_angle_gamma 90.000000
_cell_volume 4859.001948
_symmetry_space_group_name_H-M "C M C M"
_symmetry_group_IT_number 63
_symmetry_cell_setting 'orthorhombic'
loop_
_space_group_symop_operation_xyz
x,y,z
-x,-y,1/2+z
x,-y,-z
-x,y,1/2-z
-x,-y,-z
x,y,1/2-z
-x,y,z
x,-y,1/2+z
1/2+x,1/2+y,z
1/2-x,1/2-y,1/2+z
1/2+x,1/2-y,-z
1/2-x,1/2+y,1/2-z
1/2-x,1/2-y,-z
1/2+x,1/2+y,1/2-z
1/2-x,1/2+y,z
1/2+x,1/2-y,1/2+z
loop_
_atom_site_type_symbol
_atom_site_label
_atom_site_fract_x
_atom_site_fract_y
_atom_site_fract_z
Si Si1 0.853636 0.077908 0.250000
Si Si2 0.852941 0.734167 0.950170
Si Si3 0.242756 0.849135 0.867062
Si Si4 0.500000 0.336241 0.250000
Si Si5 0.000000 0.296960 0.683427
Si Si6 0.239362 0.076189 0.750000
Si Si7 0.642457 0.968113 0.938957
Si Si8 0.860668 0.608998 0.871316
O O1 0.817893 0.120100 0.308391
O O2 0.000000 0.064386 0.250000
O O3 0.779459 0.005826 0.250000
O O4 0.836325 0.791844 0.900077
O O5 0.814267 0.662316 0.919818
O O6 0.000000 0.731348 0.968427
O O7 0.750000 0.750000 0.000000
O O8 0.375955 0.819136 0.848421
O O9 0.273351 0.909358 0.912815
O O10 0.500000 0.284150 0.195364
O O11 0.388345 0.386195 0.250000
O O12 0.000000 0.327235 0.750000
O O13 0.302010 0.103821 0.808328
O O14 0.500000 0.943768 0.946374
O O15 0.641289 0.032272 0.895688
O O16 0.684177 0.000000 0.000000
O O17 0.000000 0.631840 0.862606
#
# Coordination Sequence:
#
# PCOD9472943 Si02
#       8
#     8  16  16   4   8   8  16  16
#     4  12  25  41  62  97 133 173 212 268 338 400
#     4  11  26  46  69  97 131 177 224 273 333 394
#     4  12  22  41  68  95 136 165 220 272 335 397
#     4  10  22  38  54  86 134 160 216 240 320 394
#     4  10  22  38  63 103 123 167 217 274 325 393
#     4  12  21  39  62  92 127 172 206 262 326 399
#     4  10  20  35  61  93 126 165 210 267 322 377
#     4  10  22  40  64  94 125 161 215 269 321 384
#
# _framework density 18.933928999999999
#
# number of rings (size 3 to 8) (size 9 to 14) (size 15 to 20)
#    0.261    0.870    3.913    2.870    1.217    2.087 
#    3.130    0.870    0.000    2.087    0.000    0.000 
#    0.000    0.000    0.000    0.000    0.000    0.000 
#
# Total GULP energy -256617.255224 kJ/mol
# GULP energy per Si atom -5578.635983 kJ/mol
# Density = 1.889083 g / cm^3
# Si number density = 18.933929 Si / 1000 Ang^3
#
#
#
# Elastic Constant Matrix: (Units=GPa)
#
#
# Indices 1 2 3 4 5 6 
#
# 1 55.1329 0.8203 25.1010 0.0000 0.0000 0.0000
# 2 0.8203 54.9392 -12.8384 0.0000 0.0000 0.0000
# 3 25.1010 -12.8384 65.9775 0.0000 0.0000 0.0000
# 4 0.0000 0.0000 0.0000 41.1980 0.0000 0.0000
# 5 0.0000 0.0000 0.0000 0.0000 40.1482 0.0000
# 6 0.0000 0.0000 0.0000 0.0000 0.0000 26.3337
#
#
#
# Elastic Compliance Matrix: (Units=1/GPa)
#
#
# Indices 1 2 3 4 5 6 
#
# 1 0.022241 -0.002419 -0.008932 0.000000 0.000000 0.000000
# 2 -0.002419 0.019332 0.004682 0.000000 0.000000 0.000000
# 3 -0.008932 0.004682 0.019466 0.000000 0.000000 0.000000
# 4 0.000000 0.000000 0.000000 0.024273 0.000000 0.000000
# 5 0.000000 0.000000 0.000000 0.000000 0.024908 0.000000
# 6 0.000000 0.000000 0.000000 0.000000 0.000000 0.037974
#
#
# Mechanical properties :
#
#
# Convention : Reuss Voigt Hill
#
# Bulk Modulus (GPa) = 20.96421 22.46835 21.71628
# Shear Modulus (GPa) = 28.17973 32.40042 30.29008
#
# Velocity S-wave (km/s) = 3.86206 4.14120 4.00406
# Velocity P-wave (km/s) = 5.56630 5.89563 5.73333
#
# Compressibility (1/GPa) = 0.04770033
#
# Stress axis : x y z
#
# Youngs Moduli (GPa) = 44.96272 51.72707 51.37154
#
# Poissons Ratio (x) = 0.12515 0.45886
# Poissons Ratio (y) = 0.10878 -0.24054
# Poissons Ratio (z) = 0.40162 -0.24220
#
# Static dielectric constant tensor:
#      x y z
#    x 1.641840 0.000000 0.000000 
#    y 0.000000 1.661470 0.000000 
#    z 0.000000 0.000000 1.686110 
# 
# From -- ./inp_files/52613.got.cif
#   From: 2010.05.17/outbox.cif.g08.bks.cpg/sg63_27_cif.got.tgz:52613.got - 2010.06.03 15:47:04.
