data_PCOD9472767
_publ_section_title
;
Structure prediction by ZEFSAII (Michael W. Deem and Ramdas Pophale) SiO2 
 PCOD9472767
Probable space group: C M C M
;
_chemical_formula_sum "Si O2"
_cell_formula_units_Z 96
_cell_length_a 20.986671
_cell_length_b 12.015341
_cell_length_c 19.592022
_cell_angle_alpha 90.000000
_cell_angle_beta 90.000000
_cell_angle_gamma 90.000000
_cell_volume 4940.363618
_symmetry_space_group_name_H-M "C M C M"
_symmetry_group_IT_number 63
_symmetry_cell_setting 'orthorhombic'
loop_
_space_group_symop_operation_xyz
x,y,z
-x,-y,1/2+z
x,-y,-z
-x,y,1/2-z
-x,-y,-z
x,y,1/2-z
-x,y,z
x,-y,1/2+z
1/2+x,1/2+y,z
1/2-x,1/2-y,1/2+z
1/2+x,1/2-y,-z
1/2-x,1/2+y,1/2-z
1/2-x,1/2-y,-z
1/2+x,1/2+y,1/2-z
1/2-x,1/2+y,z
1/2+x,1/2-y,1/2+z
loop_
_atom_site_type_symbol
_atom_site_label
_atom_site_fract_x
_atom_site_fract_y
_atom_site_fract_z
Si Si1 0.428834 0.382108 0.170420
Si Si2 0.779947 0.895596 0.546029
Si Si3 0.071096 0.546217 0.075848
Si Si4 0.135996 0.106128 0.328585
Si Si5 0.924404 0.345890 0.169279
Si Si6 0.159311 0.241442 0.932247
O O1 0.425092 0.349259 0.250000
O O2 0.500000 0.352312 0.144748
O O3 0.420102 0.515440 0.167373
O O4 0.369637 0.330160 0.129594
O O5 0.811897 0.930802 0.616597
O O6 0.833462 0.837482 0.498203
O O7 0.727466 0.804096 0.567507
O O8 0.755071 0.000000 0.500000
O O9 0.099193 0.449906 0.124471
O O10 0.110710 0.656908 0.067319
O O11 0.000000 0.570526 0.102656
O O12 0.066221 0.500000 0.000000
O O13 0.159087 0.105243 0.250000
O O14 0.111586 0.230395 0.344668
O O15 0.918229 0.369537 0.250000
O O16 0.000000 0.331234 0.154322
#
# Coordination Sequence:
#
# PCOD9472767 Si02
#       6
#    16  16  16  16  16  16
#     4  10  21  39  64  94 128 162 200 259 327 382
#     4  11  23  41  61  86 122 168 215 262 308 373
#     4  10  20  35  56  84 117 149 192 248 304 359
#     4  10  20  38  62  89 122 161 208 257 314 375
#     4   9  18  34  58  87 118 155 197 243 300 368
#     4  11  23  39  62  85 121 163 208 254 315 373
#
# _framework density 19.431768999999999
#
# number of rings (size 3 to 8) (size 9 to 14) (size 15 to 20)
#    0.000    1.833    1.667    2.500    0.000    4.667 
#    0.000    5.000    0.000    0.000    0.000    0.000 
#    0.000    0.000    0.000    0.000    0.000    0.000 
#
# Total GULP energy -267437.717402 kJ/mol
# GULP energy per Si atom -5571.619113 kJ/mol
# Density = 1.938754 g / cm^3
# Si number density = 19.431769 Si / 1000 Ang^3
#
#
#
# Elastic Constant Matrix: (Units=GPa)
#
#
# Indices 1 2 3 4 5 6 
#
# 1 54.4606 21.3174 38.1953 0.0000 0.0000 0.0000
# 2 21.3174 90.3666 29.1135 0.0000 0.0000 0.0000
# 3 38.1953 29.1135 74.1734 0.0000 0.0000 0.0000
# 4 0.0000 0.0000 0.0000 30.3530 0.0000 0.0000
# 5 0.0000 0.0000 0.0000 0.0000 24.3130 0.0000
# 6 0.0000 0.0000 0.0000 0.0000 0.0000 32.0275
#
#
#
# Elastic Compliance Matrix: (Units=1/GPa)
#
#
# Indices 1 2 3 4 5 6 
#
# 1 0.029167 -0.002337 -0.014102 0.000000 0.000000 0.000000
# 2 -0.002337 0.012855 -0.003842 0.000000 0.000000 0.000000
# 3 -0.014102 -0.003842 0.022252 0.000000 0.000000 0.000000
# 4 0.000000 0.000000 0.000000 0.032946 0.000000 0.000000
# 5 0.000000 0.000000 0.000000 0.000000 0.041130 0.000000
# 6 0.000000 0.000000 0.000000 0.000000 0.000000 0.031223
#
#
# Mechanical properties :
#
#
# Convention : Reuss Voigt Hill
#
# Bulk Modulus (GPa) = 42.17437 44.02812 43.10124
# Shear Modulus (GPa) = 22.93157 26.03032 24.48095
#
# Velocity S-wave (km/s) = 3.43900 3.66399 3.55327
# Velocity P-wave (km/s) = 6.12535 6.37234 6.25007
#
# Compressibility (1/GPa) = 0.02371109
#
# Stress axis : x y z
#
# Youngs Moduli (GPa) = 34.28522 77.78938 44.94008
#
# Poissons Ratio (x) = 0.18181 0.63375
# Poissons Ratio (y) = 0.08013 0.17267
# Poissons Ratio (z) = 0.48349 0.29888
#
# Static dielectric constant tensor:
#      x y z
#    x 1.692850 0.000000 0.000000 
#    y 0.000000 1.719370 0.000000 
#    z 0.000000 0.000000 1.658800 
# 
# From -- ./inp_files/56544.got.cif
#   From: 2010.05.17/outbox.cif.g08.bks.cpg/sg63_29_cif.got.tgz:56544.got - 2010.06.03 15:47:04.
