data_PCOD9472707
_publ_section_title
;
Structure prediction by ZEFSAII (Michael W. Deem and Ramdas Pophale) SiO2 
 PCOD9472707
Probable space group: C M C M
;
_chemical_formula_sum "Si O2"
_cell_formula_units_Z 88
_cell_length_a 16.898516
_cell_length_b 23.189698
_cell_length_c 13.291350
_cell_angle_alpha 90.000000
_cell_angle_beta 90.000000
_cell_angle_gamma 90.000000
_cell_volume 5208.501031
_symmetry_space_group_name_H-M "C M C M"
_symmetry_group_IT_number 63
_symmetry_cell_setting 'orthorhombic'
loop_
_space_group_symop_operation_xyz
x,y,z
-x,-y,1/2+z
x,-y,-z
-x,y,1/2-z
-x,-y,-z
x,y,1/2-z
-x,y,z
x,-y,1/2+z
1/2+x,1/2+y,z
1/2-x,1/2-y,1/2+z
1/2+x,1/2-y,-z
1/2-x,1/2+y,1/2-z
1/2-x,1/2-y,-z
1/2+x,1/2+y,1/2-z
1/2-x,1/2+y,z
1/2+x,1/2-y,1/2+z
loop_
_atom_site_type_symbol
_atom_site_label
_atom_site_fract_x
_atom_site_fract_y
_atom_site_fract_z
Si Si1 0.000000 0.913209 0.369422
Si Si2 0.704139 0.000000 0.500000
Si Si3 0.763315 0.302527 0.364531
Si Si4 0.407304 0.918909 0.867039
Si Si5 0.149247 0.294851 0.932387
Si Si6 0.823569 0.923123 0.369665
Si Si7 0.500000 0.275744 0.130120
O O1 0.913819 0.933245 0.407066
O O2 0.000000 0.844147 0.379897
O O3 0.000000 0.925781 0.250000
O O4 0.647336 0.039586 0.432484
O O5 0.760712 0.039365 0.569292
O O6 0.792841 0.306472 0.250000
O O7 0.827606 0.307432 0.452365
O O8 0.720514 0.241101 0.381784
O O9 0.701569 0.355614 0.378699
O O10 0.403561 0.935363 0.750000
O O11 0.500000 0.919793 0.897896
O O12 0.373768 0.854355 0.879879
O O13 0.075528 0.252628 0.920624
O O14 0.820231 0.936224 0.250000
O O15 0.500000 0.262239 0.250000
#
# Coordination Sequence:
#
# PCOD9472707 Si02
#       7
#     8   8  16  16  16  16   8
#     4   9  18  33  55  84 107 134 176 228 273 311
#     4  12  23  39  54  78 110 152 188 217 269 330
#     4  10  20  35  55  82 113 143 176 220 276 336
#     4  11  23  38  57  82 111 143 185 234 274 317
#     4  11  20  33  57  86 110 137 174 228 279 325
#     4  10  20  36  57  79 108 143 183 227 269 319
#     4  11  18  30  56  85 111 135 175 227 275 322
#
# _framework density 16.895455999999999
#
# number of rings (size 3 to 8) (size 9 to 14) (size 15 to 20)
#    0.000    1.455    4.545    2.455    0.000    0.364 
#    0.000    0.455    0.000    1.091    0.000    0.000 
#    0.000    0.000    0.000    0.000    0.000    0.000 
#
# Total GULP energy -245403.875340 kJ/mol
# GULP energy per Si atom -5577.360803 kJ/mol
# Density = 1.685700 g / cm^3
# Si number density = 16.895456 Si / 1000 Ang^3
#
#
#
# Elastic Constant Matrix: (Units=GPa)
#
#
# Indices 1 2 3 4 5 6 
#
# 1 115.5639 46.6825 55.5758 0.0000 0.0000 0.0000
# 2 46.6825 73.8874 28.5295 0.0000 0.0000 0.0000
# 3 55.5758 28.5295 85.2561 0.0000 0.0000 0.0000
# 4 0.0000 0.0000 0.0000 21.8441 0.0000 0.0000
# 5 0.0000 0.0000 0.0000 0.0000 27.5344 0.0000
# 6 0.0000 0.0000 0.0000 0.0000 0.0000 31.5195
#
#
#
# Elastic Compliance Matrix: (Units=1/GPa)
#
#
# Indices 1 2 3 4 5 6 
#
# 1 0.014908 -0.006508 -0.007541 0.000000 0.000000 0.000000
# 2 -0.006508 0.018383 -0.001909 0.000000 0.000000 0.000000
# 3 -0.007541 -0.001909 0.017284 0.000000 0.000000 0.000000
# 4 0.000000 0.000000 0.000000 0.045779 0.000000 0.000000
# 5 0.000000 0.000000 0.000000 0.000000 0.036318 0.000000
# 6 0.000000 0.000000 0.000000 0.000000 0.000000 0.031726
#
#
# Mechanical properties :
#
#
# Convention : Reuss Voigt Hill
#
# Bulk Modulus (GPa) = 53.59118 59.58700 56.58909
# Shear Modulus (GPa) = 24.68723 25.77425 25.23074
#
# Velocity S-wave (km/s) = 3.82668 3.91002 3.86857
# Velocity P-wave (km/s) = 7.16329 7.46518 7.31580
#
# Compressibility (1/GPa) = 0.01865979
#
# Stress axis : x y z
#
# Youngs Moduli (GPa) = 67.07641 54.39832 57.85754
#
# Poissons Ratio (x) = 0.35400 0.43628
# Poissons Ratio (y) = 0.43651 0.11047
# Poissons Ratio (z) = 0.50580 0.10387
#
# Static dielectric constant tensor:
#      x y z
#    x 1.579160 0.000000 0.000000 
#    y 0.000000 1.557290 0.000000 
#    z 0.000000 0.000000 1.560780 
# 
# From -- ./inp_files/21173.got.cif
#   From: 2010.05.17/outbox.cif.g08.bks.cpg/sg63_11_cif.got.tgz:21173.got - 2010.06.03 15:47:04.
