data_PCOD9472147
_publ_section_title
;
Structure prediction by ZEFSAII (Michael W. Deem and Ramdas Pophale) SiO2 
 PCOD9472147
Probable space group: C M C M
;
_chemical_formula_sum "Si O2"
_cell_formula_units_Z 112
_cell_length_a 29.939252
_cell_length_b 16.167321
_cell_length_c 13.885163
_cell_angle_alpha 90.000000
_cell_angle_beta 90.000000
_cell_angle_gamma 90.000000
_cell_volume 6720.939552
_symmetry_space_group_name_H-M "C M C M"
_symmetry_group_IT_number 63
_symmetry_cell_setting 'orthorhombic'
loop_
_space_group_symop_operation_xyz
x,y,z
-x,-y,1/2+z
x,-y,-z
-x,y,1/2-z
-x,-y,-z
x,y,1/2-z
-x,y,z
x,-y,1/2+z
1/2+x,1/2+y,z
1/2-x,1/2-y,1/2+z
1/2+x,1/2-y,-z
1/2-x,1/2+y,1/2-z
1/2-x,1/2-y,-z
1/2+x,1/2+y,1/2-z
1/2-x,1/2+y,z
1/2+x,1/2-y,1/2+z
loop_
_atom_site_type_symbol
_atom_site_label
_atom_site_fract_x
_atom_site_fract_y
_atom_site_fract_z
Si Si1 0.880220 0.361187 0.994088
Si Si2 0.449148 0.840776 0.359438
Si Si3 0.210494 0.088082 0.961733
Si Si4 0.449206 0.959000 0.637825
Si Si5 0.195101 0.610059 0.862347
Si Si6 0.670975 0.265965 0.141409
Si Si7 0.226651 0.204193 0.144473
O O1 0.913134 0.311520 0.065069
O O2 0.844900 0.408613 0.063554
O O3 0.911612 0.418948 0.928362
O O4 0.855166 0.296469 0.926459
O O5 0.438009 0.817839 0.250000
O O6 0.500000 0.816057 0.379621
O O7 0.447384 0.941276 0.365025
O O8 0.257389 0.077920 0.903167
O O9 0.176222 0.140850 0.897549
O O10 0.219210 0.145025 0.055120
O O11 0.195014 0.000000 0.000000
O O12 0.443482 0.935215 0.750000
O O13 0.500000 0.935538 0.607379
O O14 0.187922 0.585100 0.750000
O O15 0.199485 0.710152 0.864104
O O16 0.653506 0.264366 0.250000
O O17 0.721915 0.232707 0.142618
O O18 0.217415 0.166873 0.250000
#
# Coordination Sequence:
#
# PCOD9472147 Si02
#       7
#    16  16  16  16  16  16  16
#     4  12  18  29  51  71  95 130 170 197 242 286
#     4   9  19  34  49  68  99 134 165 199 239 284
#     4  11  20  34  52  70  93 128 165 200 243 291
#     4   9  19  34  49  69  98 132 166 200 241 286
#     4  10  20  34  50  68  96 128 164 207 243 283
#     4  10  20  35  51  69  97 126 160 203 245 284
#     4   9  17  34  52  66  90 128 164 195 239 292
#
# _framework density 16.664335999999999
#
# number of rings (size 3 to 8) (size 9 to 14) (size 15 to 20)
#    0.000    2.000    2.857    4.714    0.000    3.429 
#    0.000    0.000    0.000    0.000    0.000    0.000 
#    0.000    2.286    0.000    3.429    0.000    0.000 
#
# Total GULP energy -312474.191499 kJ/mol
# GULP energy per Si atom -5579.896277 kJ/mol
# Density = 1.662641 g / cm^3
# Si number density = 16.664336 Si / 1000 Ang^3
#
#
#
# Elastic Constant Matrix: (Units=GPa)
#
#
# Indices 1 2 3 4 5 6 
#
# 1 61.1723 5.8872 43.2433 0.0000 0.0000 0.0000
# 2 5.8872 27.1792 15.9428 0.0000 0.0000 0.0000
# 3 43.2433 15.9428 116.5317 0.0000 0.0000 0.0000
# 4 0.0000 0.0000 0.0000 17.2076 0.0000 0.0000
# 5 0.0000 0.0000 0.0000 0.0000 20.4847 0.0000
# 6 0.0000 0.0000 0.0000 0.0000 0.0000 14.7610
#
#
#
# Elastic Compliance Matrix: (Units=1/GPa)
#
#
# Indices 1 2 3 4 5 6 
#
# 1 0.022161 0.000026 -0.008227 0.000000 0.000000 0.000000
# 2 0.000026 0.040003 -0.005482 0.000000 0.000000 0.000000
# 3 -0.008227 -0.005482 0.012384 0.000000 0.000000 0.000000
# 4 0.000000 0.000000 0.000000 0.058114 0.000000 0.000000
# 5 0.000000 0.000000 0.000000 0.000000 0.048817 0.000000
# 6 0.000000 0.000000 0.000000 0.000000 0.000000 0.067746
#
#
# Mechanical properties :
#
#
# Convention : Reuss Voigt Hill
#
# Bulk Modulus (GPa) = 21.19514 37.22552 29.21033
# Shear Modulus (GPa) = 17.10459 19.81132 18.45795
#
# Velocity S-wave (km/s) = 3.20725 3.45170 3.33172
# Velocity P-wave (km/s) = 5.14410 6.18649 5.68922
#
# Compressibility (1/GPa) = 0.04718064
#
# Stress axis : x y z
#
# Youngs Moduli (GPa) = 45.12530 24.99801 80.74726
#
# Poissons Ratio (x) = -0.00064 0.66431
# Poissons Ratio (y) = -0.00116 0.44269
# Poissons Ratio (z) = 0.37124 0.13705
#
# Static dielectric constant tensor:
#      x y z
#    x 1.576230 0.000000 0.000000 
#    y 0.000000 1.539370 0.000000 
#    z 0.000000 0.000000 1.622660 
# 
# From -- ./inp_files/38711.got.cif
#   From: 2010.05.17/outbox.cif.g08.bks.cpg/sg63_20_cif.got.tgz:38711.got - 2010.06.03 15:47:04.
