data_PCOD9472303
_publ_section_title
;
Structure prediction by ZEFSAII (Michael W. Deem and Ramdas Pophale) SiO2 
 PCOD9472303
Probable space group: C M C M
;
_chemical_formula_sum "Si O2"
_cell_formula_units_Z 80
_cell_length_a 13.924148
_cell_length_b 18.086342
_cell_length_c 14.995407
_cell_angle_alpha 90.000000
_cell_angle_beta 90.000000
_cell_angle_gamma 90.000000
_cell_volume 3776.396855
_symmetry_space_group_name_H-M "C M C M"
_symmetry_group_IT_number 63
_symmetry_cell_setting 'orthorhombic'
loop_
_space_group_symop_operation_xyz
x,y,z
-x,-y,1/2+z
x,-y,-z
-x,y,1/2-z
-x,-y,-z
x,y,1/2-z
-x,y,z
x,-y,1/2+z
1/2+x,1/2+y,z
1/2-x,1/2-y,1/2+z
1/2+x,1/2-y,-z
1/2-x,1/2+y,1/2-z
1/2-x,1/2-y,-z
1/2+x,1/2+y,1/2-z
1/2-x,1/2+y,z
1/2+x,1/2-y,1/2+z
loop_
_atom_site_type_symbol
_atom_site_label
_atom_site_fract_x
_atom_site_fract_y
_atom_site_fract_z
Si Si1 0.114520 0.169369 0.024936
Si Si2 0.610282 0.024739 0.897307
Si Si3 0.115872 0.309301 0.149168
Si Si4 0.112284 0.747180 0.147435
Si Si5 0.245831 0.604081 0.348834
O O1 0.139353 0.243064 0.082577
O O2 0.175862 0.106598 0.073117
O O3 0.000000 0.156130 0.030806
O O4 0.139719 0.190230 0.923610
O O5 0.500000 0.018061 0.863695
O O6 0.641392 0.109568 0.885831
O O7 0.682659 0.969333 0.850507
O O8 0.609138 0.000000 0.000000
O O9 0.152510 0.297459 0.250000
O O10 0.000000 0.308804 0.153532
O O11 0.120177 0.771274 0.250000
O O12 0.173224 0.672770 0.136143
O O13 0.000000 0.729211 0.129453
O O14 0.289942 0.613394 0.250000
#
# Coordination Sequence:
#
# PCOD9472303 Si02
#       5
#    16  16  16  16  16
#     4  10  20  35  55  81 114 149 186 228 273 325
#     4  10  20  34  53  78 110 147 185 230 285 338
#     4   9  17  30  49  74 107 145 181 220 270 325
#     4   9  18  32  50  74 105 140 179 227 282 335
#     4  11  21  32  52  82 114 149 187 227 274 330
#
# _framework density 21.184214000000001
#
# number of rings (size 3 to 8) (size 9 to 14) (size 15 to 20)
#    0.000    2.200    0.000    3.600    0.000    6.400 
#    0.000    0.000    0.000    1.800    0.000    2.800 
#    0.000    9.600    0.000    0.000    0.000    0.000 
#
# Total GULP energy -223620.481458 kJ/mol
# GULP energy per Si atom -5590.512036 kJ/mol
# Density = 2.113600 g / cm^3
# Si number density = 21.184214 Si / 1000 Ang^3
#
#
#
# Elastic Constant Matrix: (Units=GPa)
#
#
# Indices 1 2 3 4 5 6 
#
# 1 76.6487 21.4667 7.4327 0.0000 0.0000 0.0000
# 2 21.4667 49.6020 2.2622 0.0000 0.0000 0.0000
# 3 7.4327 2.2622 81.5647 0.0000 0.0000 0.0000
# 4 0.0000 0.0000 0.0000 14.2520 0.0000 0.0000
# 5 0.0000 0.0000 0.0000 0.0000 -54.1710 0.0000
# 6 0.0000 0.0000 0.0000 0.0000 0.0000 29.4366
#
#
#
# Elastic Compliance Matrix: (Units=1/GPa)
#
#
# Indices 1 2 3 4 5 6 
#
# 1 0.014960 -0.006420 -0.001185 0.000000 0.000000 0.000000
# 2 -0.006420 0.022941 -0.000051 0.000000 0.000000 0.000000
# 3 -0.001185 -0.000051 0.012370 0.000000 0.000000 0.000000
# 4 0.000000 0.000000 0.000000 0.070166 0.000000 0.000000
# 5 0.000000 0.000000 0.000000 0.000000 -0.018460 0.000000
# 6 0.000000 0.000000 0.000000 0.000000 0.000000 0.033971
#
#
# Mechanical properties :
#
#
# Convention : Reuss Voigt Hill
#
# Bulk Modulus (GPa) = 28.60621 30.01541 29.31081
# Shear Modulus (GPa) = 30.69128 9.68043 20.18585
#
# Velocity S-wave (km/s) = 3.81041 2.13999 3.09021
# Velocity P-wave (km/s) = 5.73514 4.50617 5.15740
#
# Compressibility (1/GPa) = 0.03495744
#
# Stress axis : x y z
#
# Youngs Moduli (GPa) = 66.84707 43.58953 80.84314
#
# Poissons Ratio (x) = 0.27985 0.09581
# Poissons Ratio (y) = 0.42917 0.00414
# Poissons Ratio (z) = 0.07922 0.00223
#
# Static dielectric constant tensor:
#      x y z
#    x 1.796840 0.000000 0.000000 
#    y 0.000000 1.711500 0.000000 
#    z 0.000000 0.000000 1.795810 
# 
# From -- ./inp_files/31674.got.cif
#   From: 2010.05.17/outbox.cif.g08.bks.cpg/sg63_16_cif.got.tgz:31674.got - 2010.06.03 15:47:04.
