data_PCOD9472441
_publ_section_title
;
Structure prediction by ZEFSAII (Michael W. Deem and Ramdas Pophale) SiO2 
 PCOD9472441
Probable space group: C M C M
;
_chemical_formula_sum "Si O2"
_cell_formula_units_Z 80
_cell_length_a 8.907228
_cell_length_b 27.533193
_cell_length_c 18.709718
_cell_angle_alpha 90.000000
_cell_angle_beta 90.000000
_cell_angle_gamma 90.000000
_cell_volume 4588.454082
_symmetry_space_group_name_H-M "C M C M"
_symmetry_group_IT_number 63
_symmetry_cell_setting 'orthorhombic'
loop_
_space_group_symop_operation_xyz
x,y,z
-x,-y,1/2+z
x,-y,-z
-x,y,1/2-z
-x,-y,-z
x,y,1/2-z
-x,y,z
x,-y,1/2+z
1/2+x,1/2+y,z
1/2-x,1/2-y,1/2+z
1/2+x,1/2-y,-z
1/2-x,1/2+y,1/2-z
1/2-x,1/2-y,-z
1/2+x,1/2+y,1/2-z
1/2-x,1/2+y,z
1/2+x,1/2-y,1/2+z
loop_
_atom_site_type_symbol
_atom_site_label
_atom_site_fract_x
_atom_site_fract_y
_atom_site_fract_z
Si Si1 0.321660 0.179708 0.458096
Si Si2 0.679271 0.678995 0.750000
Si Si3 0.321798 0.072074 0.750000
Si Si4 0.820646 0.923885 0.961953
Si Si5 0.678859 0.227541 0.610844
Si Si6 0.820291 0.024484 0.887994
O O1 0.500000 0.183890 0.447460
O O2 0.265557 0.125337 0.445592
O O3 0.289035 0.194902 0.540436
O O4 0.237652 0.218922 0.409004
O O5 0.500000 0.677881 0.750000
O O6 0.743390 0.624534 0.750000
O O7 0.739551 0.706006 0.820435
O O8 0.500000 0.078369 0.750000
O O9 0.268209 0.043331 0.679949
O O10 0.000000 0.915523 0.958081
O O11 0.784961 0.969107 0.910208
O O12 0.787547 0.942608 0.042311
O O13 0.500000 0.227965 0.622090
O O14 0.000000 0.027425 0.875145
#
# Coordination Sequence:
#
# PCOD9472441 Si02
#       6
#    16   8   8  16  16  16
#     4  10  20  34  55  82 110 142 179 220 266 316
#     4  12  24  38  57  80 109 142 176 219 269 319
#     4  12  24  36  53  80 111 142 176 215 263 317
#     4   9  18  34  57  81 105 138 180 223 267 316
#     4  10  21  37  56  80 110 142 179 221 265 317
#     4   9  19  36  56  79 107 140 179 221 266 316
#
# _framework density 17.435065999999999
#
# number of rings (size 3 to 8) (size 9 to 14) (size 15 to 20)
#    0.000    2.000    0.000    5.400    0.000    7.200 
#    0.000    3.000    0.000    3.600    0.000    0.000 
#    0.000    0.000    0.000    0.000    0.000    0.000 
#
# Total GULP energy -223438.639712 kJ/mol
# GULP energy per Si atom -5585.965993 kJ/mol
# Density = 1.739538 g / cm^3
# Si number density = 17.435066 Si / 1000 Ang^3
#
#
#
# Elastic Constant Matrix: (Units=GPa)
#
#
# Indices 1 2 3 4 5 6 
#
# 1 96.7563 70.2820 79.1972 0.0000 0.0000 0.0000
# 2 70.2820 131.9122 66.8516 0.0000 0.0000 0.0000
# 3 79.1972 66.8516 120.6139 0.0000 0.0000 0.0000
# 4 0.0000 0.0000 0.0000 11.7398 0.0000 0.0000
# 5 0.0000 0.0000 0.0000 0.0000 23.9335 0.0000
# 6 0.0000 0.0000 0.0000 0.0000 0.0000 34.5500
#
#
#
# Elastic Compliance Matrix: (Units=1/GPa)
#
#
# Indices 1 2 3 4 5 6 
#
# 1 0.026728 -0.007435 -0.013429 0.000000 0.000000 0.000000
# 2 -0.007435 0.012610 -0.002108 0.000000 0.000000 0.000000
# 3 -0.013429 -0.002108 0.018277 0.000000 0.000000 0.000000
# 4 0.000000 0.000000 0.000000 0.085180 0.000000 0.000000
# 5 0.000000 0.000000 0.000000 0.000000 0.041782 0.000000
# 6 0.000000 0.000000 0.000000 0.000000 0.000000 0.028944
#
#
# Mechanical properties :
#
#
# Convention : Reuss Voigt Hill
#
# Bulk Modulus (GPa) = 85.67551 86.88265 86.27908
# Shear Modulus (GPa) = 18.98589 22.90812 20.94700
#
# Velocity S-wave (km/s) = 3.30350 3.62872 3.46992
# Velocity P-wave (km/s) = 7.98732 8.21567 8.10230
#
# Compressibility (1/GPa) = 0.01167195
#
# Stress axis : x y z
#
# Youngs Moduli (GPa) = 37.41449 79.30226 54.71410
#
# Poissons Ratio (x) = 0.58958 0.73476
# Poissons Ratio (y) = 0.27816 0.11531
# Poissons Ratio (z) = 0.50244 0.16713
#
# Static dielectric constant tensor:
#      x y z
#    x 1.578300 0.000000 0.000000 
#    y 0.000000 1.569730 0.000000 
#    z 0.000000 0.000000 1.569150 
# 
# From -- ./inp_files/40603.got.cif
#   From: 2010.05.17/outbox.cif.g08.bks.cpg/sg63_21_cif.got.tgz:40603.got - 2010.06.03 15:47:04.
