data_PCOD9472176
_publ_section_title
;
Structure prediction by ZEFSAII (Michael W. Deem and Ramdas Pophale) SiO2 
 PCOD9472176
Probable space group: C M C M
;
_chemical_formula_sum "Si O2"
_cell_formula_units_Z 96
_cell_length_a 13.723682
_cell_length_b 26.290054
_cell_length_c 16.088819
_cell_angle_alpha 90.000000
_cell_angle_beta 90.000000
_cell_angle_gamma 90.000000
_cell_volume 5804.787024
_symmetry_space_group_name_H-M "C M C M"
_symmetry_group_IT_number 63
_symmetry_cell_setting 'orthorhombic'
loop_
_space_group_symop_operation_xyz
x,y,z
-x,-y,1/2+z
x,-y,-z
-x,y,1/2-z
-x,-y,-z
x,y,1/2-z
-x,y,z
x,-y,1/2+z
1/2+x,1/2+y,z
1/2-x,1/2-y,1/2+z
1/2+x,1/2-y,-z
1/2-x,1/2+y,1/2-z
1/2-x,1/2-y,-z
1/2+x,1/2+y,1/2-z
1/2-x,1/2+y,z
1/2+x,1/2-y,1/2+z
loop_
_atom_site_type_symbol
_atom_site_label
_atom_site_fract_x
_atom_site_fract_y
_atom_site_fract_z
Si Si1 0.617933 0.034477 0.920352
Si Si2 0.888283 0.191619 0.849561
Si Si3 0.608604 0.244965 0.848022
Si Si4 0.697315 0.851709 0.080158
Si Si5 0.882172 0.361354 0.750000
Si Si6 0.382123 0.020070 0.250000
Si Si7 0.696152 0.796903 0.903470
O O1 0.500000 0.038375 0.920419
O O2 0.661187 0.090903 0.923756
O O3 0.649397 0.007577 0.834516
O O4 0.644960 0.000000 0.000000
O O5 0.872072 0.198668 0.750000
O O6 0.807421 0.153777 0.885936
O O7 0.867837 0.245781 0.893567
O O8 0.000000 0.176097 0.861819
O O9 0.612955 0.255731 0.750000
O O10 0.500000 0.255901 0.879148
O O11 0.633330 0.185538 0.861697
O O12 0.693432 0.277362 0.890827
O O13 0.688015 0.825352 0.990286
O O14 0.855731 0.420698 0.750000
O O15 0.838424 0.333879 0.669629
O O16 0.000000 0.356304 0.750000
O O17 0.500000 0.018482 0.250000
#
# Coordination Sequence:
#
# PCOD9472176 Si02
#       7
#    16  16  16  16   8   8  16
#     4  10  21  37  53  78 109 135 176 222 266 321
#     4  10  20  35  53  78 111 143 178 218 259 313
#     4  10  20  34  51  76 112 143 171 209 255 315
#     4  11  22  32  54  79 107 141 178 217 263 318
#     4  11  20  34  54  75 103 141 180 214 260 315
#     4   9  20  34  53  73  99 139 171 214 269 311
#     4  11  20  33  51  78 108 139 177 216 256 313
#
# _framework density 16.538074999999999
#
# number of rings (size 3 to 8) (size 9 to 14) (size 15 to 20)
#    0.000    1.667    1.667    5.500    2.333    6.000 
#    0.000    0.000    0.000    0.500    0.000    2.333 
#    0.000    0.000    0.000    0.000    0.000    0.000 
#
# Total GULP energy -267973.527795 kJ/mol
# GULP energy per Si atom -5582.781829 kJ/mol
# Density = 1.650043 g / cm^3
# Si number density = 16.538075 Si / 1000 Ang^3
#
#
#
# Elastic Constant Matrix: (Units=GPa)
#
#
# Indices 1 2 3 4 5 6 
#
# 1 73.5712 30.3660 24.7918 0.0000 0.0000 0.0000
# 2 30.3660 119.1285 40.8074 0.0000 0.0000 0.0000
# 3 24.7918 40.8074 88.6376 0.0000 0.0000 0.0000
# 4 0.0000 0.0000 0.0000 17.4954 0.0000 0.0000
# 5 0.0000 0.0000 0.0000 0.0000 7.9473 0.0000
# 6 0.0000 0.0000 0.0000 0.0000 0.0000 15.8189
#
#
#
# Elastic Compliance Matrix: (Units=1/GPa)
#
#
# Indices 1 2 3 4 5 6 
#
# 1 0.015859 -0.002995 -0.003057 0.000000 0.000000 0.000000
# 2 -0.002995 0.010532 -0.004011 0.000000 0.000000 0.000000
# 3 -0.003057 -0.004011 0.013983 0.000000 0.000000 0.000000
# 4 0.000000 0.000000 0.000000 0.057158 0.000000 0.000000
# 5 0.000000 0.000000 0.000000 0.000000 0.125829 0.000000
# 6 0.000000 0.000000 0.000000 0.000000 0.000000 0.063215
#
#
# Mechanical properties :
#
#
# Convention : Reuss Voigt Hill
#
# Bulk Modulus (GPa) = 49.38744 52.58529 50.98636
# Shear Modulus (GPa) = 15.95146 20.61047 18.28096
#
# Velocity S-wave (km/s) = 3.10906 3.53405 3.32834
# Velocity P-wave (km/s) = 6.54339 6.96550 6.75774
#
# Compressibility (1/GPa) = 0.02024806
#
# Stress axis : x y z
#
# Youngs Moduli (GPa) = 63.05736 94.95119 71.51359
#
# Poissons Ratio (x) = 0.28441 0.21859
# Poissons Ratio (y) = 0.18888 0.28683
# Poissons Ratio (z) = 0.19274 0.38084
#
# Static dielectric constant tensor:
#      x y z
#    x 1.556920 0.000000 0.000000 
#    y 0.000000 1.525150 0.000000 
#    z 0.000000 0.000000 1.578290 
# 
# From -- ./inp_files/32212.got.cif
#   From: 2010.05.17/outbox.cif.g08.bks.cpg/sg63_17_cif.got.tgz:32212.got - 2010.06.03 15:47:04.
