data_PCOD9472732
_publ_section_title
;
Structure prediction by ZEFSAII (Michael W. Deem and Ramdas Pophale) SiO2 
 PCOD9472732
Probable space group: C M C M
;
_chemical_formula_sum "Si O2"
_cell_formula_units_Z 96
_cell_length_a 8.691890
_cell_length_b 26.063981
_cell_length_c 24.152865
_cell_angle_alpha 90.000000
_cell_angle_beta 90.000000
_cell_angle_gamma 90.000000
_cell_volume 5471.716980
_symmetry_space_group_name_H-M "C M C M"
_symmetry_group_IT_number 63
_symmetry_cell_setting 'orthorhombic'
loop_
_space_group_symop_operation_xyz
x,y,z
-x,-y,1/2+z
x,-y,-z
-x,y,1/2-z
-x,-y,-z
x,y,1/2-z
-x,y,z
x,-y,1/2+z
1/2+x,1/2+y,z
1/2-x,1/2-y,1/2+z
1/2+x,1/2-y,-z
1/2-x,1/2+y,1/2-z
1/2-x,1/2-y,-z
1/2+x,1/2+y,1/2-z
1/2-x,1/2+y,z
1/2+x,1/2-y,1/2+z
loop_
_atom_site_type_symbol
_atom_site_label
_atom_site_fract_x
_atom_site_fract_y
_atom_site_fract_z
Si Si1 0.184088 0.810916 0.813837
Si Si2 0.814286 0.498778 0.313698
Si Si3 0.314121 0.402044 0.378877
Si Si4 0.185792 0.939877 0.000303
Si Si5 0.315612 0.902638 0.885648
Si Si6 0.314845 0.698626 0.814178
O O1 0.232789 0.822086 0.750000
O O2 0.253629 0.852110 0.855585
O O3 0.239919 0.753374 0.826742
O O4 0.000000 0.813036 0.816015
O O5 0.765771 0.504133 0.250000
O O6 0.747999 0.447525 0.340576
O O7 0.765422 0.547947 0.349491
O O8 0.000000 0.496446 0.315174
O O9 0.500000 0.403354 0.377174
O O10 0.266645 0.413970 0.441843
O O11 0.264768 0.347281 0.354328
O O12 0.253732 0.911351 0.947304
O O13 0.000000 0.938641 0.996937
O O14 0.232686 0.000000 0.000000
O O15 0.500000 0.901212 0.886347
O O16 0.278197 0.685474 0.750000
O O17 0.500000 0.703775 0.817992
#
# Coordination Sequence:
#
# PCOD9472732 Si02
#       6
#    16  16  16  16  16  16
#     4  10  21  37  58  83 110 142 180 224 277 331
#     4  10  21  34  50  77 111 142 174 220 274 325
#     4  10  20  35  56  81 109 144 184 224 270 326
#     4  10  20  36  56  79 111 148 186 229 275 322
#     4  11  22  36  56  80 110 146 187 228 271 326
#     4   9  18  34  56  81 109 141 178 221 271 327
#
# _framework density 17.544768000000001
#
# number of rings (size 3 to 8) (size 9 to 14) (size 15 to 20)
#    0.000    2.000    1.667    2.000    0.000    5.000 
#    0.000    2.500    0.000    0.000    0.000    0.000 
#    0.000    0.000    0.000    0.000    0.000    0.000 
#
# Total GULP energy -268023.062068 kJ/mol
# GULP energy per Si atom -5583.813793 kJ/mol
# Density = 1.750483 g / cm^3
# Si number density = 17.544768 Si / 1000 Ang^3
#
#
#
# Elastic Constant Matrix: (Units=GPa)
#
#
# Indices 1 2 3 4 5 6 
#
# 1 11.4537 20.7666 19.1286 0.0000 0.0000 0.0000
# 2 20.7666 112.8741 59.5625 0.0000 0.0000 0.0000
# 3 19.1286 59.5625 108.8753 0.0000 0.0000 0.0000
# 4 0.0000 0.0000 0.0000 18.4137 0.0000 0.0000
# 5 0.0000 0.0000 0.0000 0.0000 23.9529 0.0000
# 6 0.0000 0.0000 0.0000 0.0000 0.0000 26.7756
#
#
#
# Elastic Compliance Matrix: (Units=1/GPa)
#
#
# Indices 1 2 3 4 5 6 
#
# 1 0.147686 -0.018950 -0.015581 0.000000 0.000000 0.000000
# 2 -0.018950 0.014886 -0.004815 0.000000 0.000000 0.000000
# 3 -0.015581 -0.004815 0.014556 0.000000 0.000000 0.000000
# 4 0.000000 0.000000 0.000000 0.054307 0.000000 0.000000
# 5 0.000000 0.000000 0.000000 0.000000 0.041749 0.000000
# 6 0.000000 0.000000 0.000000 0.000000 0.000000 0.037347
#
#
# Mechanical properties :
#
#
# Convention : Reuss Voigt Hill
#
# Bulk Modulus (GPa) = 10.15855 48.01317 29.08586
# Shear Modulus (GPa) = 11.84736 22.74481 17.29608
#
# Velocity S-wave (km/s) = 2.60140 3.60444 3.14319
# Velocity P-wave (km/s) = 3.85042 6.68941 5.45774
#
# Compressibility (1/GPa) = 0.09843920
#
# Stress axis : x y z
#
# Youngs Moduli (GPa) = 6.77110 67.17535 68.69940
#
# Poissons Ratio (x) = 1.27295 1.07038
# Poissons Ratio (y) = 0.12831 0.33076
# Poissons Ratio (z) = 0.10550 0.32342
#
# Static dielectric constant tensor:
#      x y z
#    x 1.589010 0.000000 0.000000 
#    y 0.000000 1.566010 0.000000 
#    z 0.000000 0.000000 1.583940 
# 
# From -- ./inp_files/51314.got.cif
#   From: 2010.05.17/outbox.cif.g08.bks.cpg/sg63_26_cif.got.tgz:51314.got - 2010.06.03 15:47:04.
