data_PCOD9472413
_publ_section_title
;
Structure prediction by ZEFSAII (Michael W. Deem and Ramdas Pophale) SiO2 
 PCOD9472413
Probable space group: C M C M
;
_chemical_formula_sum "Si O2"
_cell_formula_units_Z 72
_cell_length_a 26.853653
_cell_length_b 14.240581
_cell_length_c 9.444288
_cell_angle_alpha 90.000000
_cell_angle_beta 90.000000
_cell_angle_gamma 90.000000
_cell_volume 3611.605480
_symmetry_space_group_name_H-M "C M C M"
_symmetry_group_IT_number 63
_symmetry_cell_setting 'orthorhombic'
loop_
_space_group_symop_operation_xyz
x,y,z
-x,-y,1/2+z
x,-y,-z
-x,y,1/2-z
-x,-y,-z
x,y,1/2-z
-x,y,z
x,-y,1/2+z
1/2+x,1/2+y,z
1/2-x,1/2-y,1/2+z
1/2+x,1/2-y,-z
1/2-x,1/2+y,1/2-z
1/2-x,1/2-y,-z
1/2+x,1/2+y,1/2-z
1/2-x,1/2+y,z
1/2+x,1/2-y,1/2+z
loop_
_atom_site_type_symbol
_atom_site_label
_atom_site_fract_x
_atom_site_fract_y
_atom_site_fract_z
Si Si1 0.894809 0.589617 0.415183
Si Si2 0.779467 0.621426 0.403077
Si Si3 0.693028 0.343078 0.091053
Si Si4 0.099368 0.214625 0.419073
Si Si5 0.500000 0.595971 0.415876
O O1 0.915440 0.500000 0.500000
O O2 0.910574 0.594363 0.250000
O O3 0.834567 0.580220 0.413489
O O4 0.904779 0.685772 0.499870
O O5 0.757499 0.596261 0.250000
O O6 0.740585 0.603820 0.527432
O O7 0.790195 0.733678 0.401697
O O8 0.679939 0.373104 0.250000
O O9 0.646041 0.341147 0.986475
O O10 0.106570 0.228860 0.250000
O O11 0.049156 0.156904 0.444300
O O12 0.500000 0.500000 0.500000
O O13 0.500000 0.573467 0.250000
#
# Coordination Sequence:
#
# PCOD9472413 Si02
#       5
#    16  16  16  16   8
#     4  10  20  34  54  83 117 155 194 229 271 326
#     4   8  15  27  44  70 106 146 186 224 264 312
#     4   9  16  27  47  76 106 141 185 227 271 320
#     4  10  20  37  59  83 112 145 184 232 286 340
#     4  10  24  44  67  90 109 136 177 230 290 346
#
# _framework density 19.935732999999999
#
# number of rings (size 3 to 8) (size 9 to 14) (size 15 to 20)
#    0.000    2.667    0.000    3.333    0.000    8.000 
#    0.000    1.667    0.000    0.000    0.000    0.000 
#    0.000    0.000    0.000    0.000    0.000    0.000 
#
# Total GULP energy -200806.665793 kJ/mol
# GULP energy per Si atom -5577.962939 kJ/mol
# Density = 1.989036 g / cm^3
# Si number density = 19.935733 Si / 1000 Ang^3
#
#
#
# Elastic Constant Matrix: (Units=GPa)
#
#
# Indices 1 2 3 4 5 6 
#
# 1 74.4855 25.4919 69.3082 0.0000 0.0000 0.0000
# 2 25.4919 61.6580 56.7516 0.0000 0.0000 0.0000
# 3 69.3082 56.7516 165.4245 0.0000 0.0000 0.0000
# 4 0.0000 0.0000 0.0000 24.2028 0.0000 0.0000
# 5 0.0000 0.0000 0.0000 0.0000 24.8206 0.0000
# 6 0.0000 0.0000 0.0000 0.0000 0.0000 5.5375
#
#
#
# Elastic Compliance Matrix: (Units=1/GPa)
#
#
# Indices 1 2 3 4 5 6 
#
# 1 0.022037 -0.000896 -0.008926 0.000000 0.000000 0.000000
# 2 -0.000896 0.023740 -0.007769 0.000000 0.000000 0.000000
# 3 -0.008926 -0.007769 0.012450 0.000000 0.000000 0.000000
# 4 0.000000 0.000000 0.000000 0.041318 0.000000 0.000000
# 5 0.000000 0.000000 0.000000 0.000000 0.040289 0.000000
# 6 0.000000 0.000000 0.000000 0.000000 0.000000 0.180586
#
#
# Mechanical properties :
#
#
# Convention : Reuss Voigt Hill
#
# Bulk Modulus (GPa) = 43.39131 67.18572 55.28851
# Shear Modulus (GPa) = 13.76342 20.91328 17.33835
#
# Velocity S-wave (km/s) = 2.63038 3.24239 2.95229
# Velocity P-wave (km/s) = 5.57118 6.91316 6.27813
#
# Compressibility (1/GPa) = 0.02304609
#
# Stress axis : x y z
#
# Youngs Moduli (GPa) = 45.37767 42.12368 80.32141
#
# Poissons Ratio (x) = 0.03773 0.71693
# Poissons Ratio (y) = 0.04064 0.62402
# Poissons Ratio (z) = 0.40503 0.32726
#
# Static dielectric constant tensor:
#      x y z
#    x 1.684340 0.000000 0.000000 
#    y 0.000000 1.733190 0.000000 
#    z 0.000000 0.000000 1.754530 
# 
# From -- ./inp_files/11744.got.cif
#   From: 2010.05.17/outbox.cif.g08.bks.cpg/sg63_6_cif.got.tgz:11744.got - 2010.06.03 15:47:04.
