data_PCOD9472477
_publ_section_title
;
Structure prediction by ZEFSAII (Michael W. Deem and Ramdas Pophale) SiO2 
 PCOD9472477
Probable space group: C M C M
;
_chemical_formula_sum "Si O2"
_cell_formula_units_Z 112
_cell_length_a 15.634860
_cell_length_b 21.546281
_cell_length_c 13.838136
_cell_angle_alpha 90.000000
_cell_angle_beta 90.000000
_cell_angle_gamma 90.000000
_cell_volume 4661.695592
_symmetry_space_group_name_H-M "C M C M"
_symmetry_group_IT_number 63
_symmetry_cell_setting 'orthorhombic'
loop_
_space_group_symop_operation_xyz
x,y,z
-x,-y,1/2+z
x,-y,-z
-x,y,1/2-z
-x,-y,-z
x,y,1/2-z
-x,y,z
x,-y,1/2+z
1/2+x,1/2+y,z
1/2-x,1/2-y,1/2+z
1/2+x,1/2-y,-z
1/2-x,1/2+y,1/2-z
1/2-x,1/2-y,-z
1/2+x,1/2+y,1/2-z
1/2-x,1/2+y,z
1/2+x,1/2-y,1/2+z
loop_
_atom_site_type_symbol
_atom_site_label
_atom_site_fract_x
_atom_site_fract_y
_atom_site_fract_z
Si Si1 0.403479 0.477489 0.367174
Si Si2 0.626594 0.156969 0.860251
Si Si3 0.171235 0.849422 0.363494
Si Si4 0.902771 0.802826 0.632408
Si Si5 0.592700 0.093149 0.047332
Si Si6 0.097933 0.272115 0.641516
Si Si7 0.774445 0.913353 0.866862
O O1 0.400922 0.474357 0.250000
O O2 0.500000 0.491173 0.394750
O O3 0.373525 0.410298 0.402929
O O4 0.339964 0.532221 0.392550
O O5 0.598188 0.149367 0.750000
O O6 0.727840 0.145899 0.864593
O O7 0.608852 0.229088 0.887872
O O8 0.591198 0.106242 0.933563
O O9 0.144216 0.844174 0.250000
O O10 0.146457 0.783806 0.408628
O O11 0.903925 0.807461 0.750000
O O12 0.823343 0.848583 0.605020
O O13 0.000000 0.820960 0.599410
O O14 0.500000 0.065602 0.077233
O O15 0.597657 0.162713 0.090273
O O16 0.683760 0.068822 0.084220
O O17 0.132777 0.282986 0.750000
O O18 0.000000 0.251210 0.648108
O O19 0.762028 0.911901 0.750000
#
# Coordination Sequence:
#
# PCOD9472477 Si02
#       7
#    16  16  16  16  16  16  16
#     4   9  17  32  58  90 122 158 196 233 280 339
#     4  10  21  37  57  79 106 143 190 247 303 350
#     4   9  17  31  54  83 114 152 196 237 281 335
#     4   9  17  31  53  82 117 154 188 227 281 342
#     4  11  23  37  56  82 111 150 197 242 296 355
#     4   9  17  30  50  81 121 156 185 223 275 341
#     4  10  20  34  55  86 123 158 191 230 279 343
#
# _framework density 24.025594000000002
#
# number of rings (size 3 to 8) (size 9 to 14) (size 15 to 20)
#    0.000    2.429    0.000    2.571    0.000    9.714 
#    0.000    0.714    0.000    6.000    0.000    8.000 
#    0.000    0.000    0.000    0.000    0.000    0.000 
#
# Total GULP energy -312962.498127 kJ/mol
# GULP energy per Si atom -5588.616038 kJ/mol
# Density = 2.397091 g / cm^3
# Si number density = 24.025594 Si / 1000 Ang^3
#
#
#
# Elastic Constant Matrix: (Units=GPa)
#
#
# Indices 1 2 3 4 5 6 
#
# 1 180.5607 44.8026 13.7138 0.0000 0.0000 0.0000
# 2 44.8026 34.9153 8.7135 0.0000 0.0000 0.0000
# 3 13.7138 8.7135 85.1328 0.0000 0.0000 0.0000
# 4 0.0000 0.0000 0.0000 16.8088 0.0000 0.0000
# 5 0.0000 0.0000 0.0000 0.0000 5.8475 0.0000
# 6 0.0000 0.0000 0.0000 0.0000 0.0000 87.1902
#
#
#
# Elastic Compliance Matrix: (Units=1/GPa)
#
#
# Indices 1 2 3 4 5 6 
#
# 1 0.008131 -0.010371 -0.000248 0.000000 0.000000 0.000000
# 2 -0.010371 0.042620 -0.002692 0.000000 0.000000 0.000000
# 3 -0.000248 -0.002692 0.012062 0.000000 0.000000 0.000000
# 4 0.000000 0.000000 0.000000 0.059493 0.000000 0.000000
# 5 0.000000 0.000000 0.000000 0.000000 0.171013 0.000000
# 6 0.000000 0.000000 0.000000 0.000000 0.000000 0.011469
#
#
# Mechanical properties :
#
#
# Convention : Reuss Voigt Hill
#
# Bulk Modulus (GPa) = 27.63121 48.34093 37.98607
# Shear Modulus (GPa) = 14.55718 37.52789 26.04254
#
# Velocity S-wave (km/s) = 2.46418 3.95650 3.29591
# Velocity P-wave (km/s) = 4.42967 6.40594 5.50718
#
# Compressibility (1/GPa) = 0.03619096
#
# Stress axis : x y z
#
# Youngs Moduli (GPa) = 122.99363 23.46304 82.90609
#
# Poissons Ratio (x) = 0.24333 0.02058
# Poissons Ratio (y) = 1.27556 0.22315
# Poissons Ratio (z) = 0.03053 0.06315
#
# Static dielectric constant tensor:
#      x y z
#    x 2.017790 0.000000 0.000000 
#    y 0.000000 1.880220 0.000000 
#    z 0.000000 0.000000 2.024430 
# 
# From -- ./inp_files/32273.got.cif
#   From: 2010.05.17/outbox.cif.g08.bks.cpg/sg63_17_cif.got.tgz:32273.got - 2010.06.03 15:47:04.
