data_PCOD9472573
_publ_section_title
;
Structure prediction by ZEFSAII (Michael W. Deem and Ramdas Pophale) SiO2 
 PCOD9472573
Probable space group: C M C M
;
_chemical_formula_sum "Si O2"
_cell_formula_units_Z 72
_cell_length_a 15.716886
_cell_length_b 12.710427
_cell_length_c 14.939319
_cell_angle_alpha 90.000000
_cell_angle_beta 90.000000
_cell_angle_gamma 90.000000
_cell_volume 2984.402840
_symmetry_space_group_name_H-M "C M C M"
_symmetry_group_IT_number 63
_symmetry_cell_setting 'orthorhombic'
loop_
_space_group_symop_operation_xyz
x,y,z
-x,-y,1/2+z
x,-y,-z
-x,y,1/2-z
-x,-y,-z
x,y,1/2-z
-x,y,z
x,-y,1/2+z
1/2+x,1/2+y,z
1/2-x,1/2-y,1/2+z
1/2+x,1/2-y,-z
1/2-x,1/2+y,1/2-z
1/2-x,1/2-y,-z
1/2+x,1/2+y,1/2-z
1/2-x,1/2+y,z
1/2+x,1/2-y,1/2+z
loop_
_atom_site_type_symbol
_atom_site_label
_atom_site_fract_x
_atom_site_fract_y
_atom_site_fract_z
Si Si1 0.167738 0.262602 0.857436
Si Si2 0.821092 0.971093 0.396920
Si Si3 0.635013 0.692103 0.352624
Si Si4 0.500000 0.841600 0.429513
Si Si5 0.126546 0.488311 0.854266
O O1 0.161734 0.264576 0.750000
O O2 0.267300 0.282588 0.878030
O O3 0.117932 0.367258 0.887527
O O4 0.143681 0.146224 0.887084
O O5 0.873706 0.066206 0.353928
O O6 0.725789 0.978961 0.356846
O O7 0.812841 0.000000 0.500000
O O8 0.619134 0.730411 0.250000
O O9 0.573537 0.749955 0.419637
O O10 0.426901 0.067859 0.588199
O O11 0.099731 0.493756 0.750000
#
# Coordination Sequence:
#
# PCOD9472573 Si02
#       5
#    16  16  16   8  16
#     4   9  18  36  60  84 113 148 194 243 285 339
#     4  11  22  37  59  83 122 160 199 234 283 352
#     4  10  20  34  61  91 116 149 194 246 293 342
#     4  12  21  38  64  92 117 144 192 251 299 348
#     4  10  20  35  61  90 116 148 193 249 298 338
#
# _framework density 24.125426999999998
#
# number of rings (size 3 to 8) (size 9 to 14) (size 15 to 20)
#    0.000    1.778    2.222    5.333    0.000    3.556 
#    0.000    2.222    0.000    2.667    0.000    0.000 
#    0.000    0.000    0.000    0.000    0.000    0.000 
#
# Total GULP energy -200521.857556 kJ/mol
# GULP energy per Si atom -5570.051599 kJ/mol
# Density = 2.407052 g / cm^3
# Si number density = 24.125427 Si / 1000 Ang^3
#
#
#
# Elastic Constant Matrix: (Units=GPa)
#
#
# Indices 1 2 3 4 5 6 
#
# 1 41.5388 42.7702 4.5923 0.0000 0.0000 0.0000
# 2 42.7702 243.6889 10.8946 0.0000 0.0000 0.0000
# 3 4.5923 10.8946 68.5451 0.0000 0.0000 0.0000
# 4 0.0000 0.0000 0.0000 12.3705 0.0000 0.0000
# 5 0.0000 0.0000 0.0000 0.0000 -47.7946 0.0000
# 6 0.0000 0.0000 0.0000 0.0000 0.0000 32.1874
#
#
#
# Elastic Compliance Matrix: (Units=1/GPa)
#
#
# Indices 1 2 3 4 5 6 
#
# 1 0.029475 -0.005121 -0.001161 0.000000 0.000000 0.000000
# 2 -0.005121 0.005023 -0.000455 0.000000 0.000000 0.000000
# 3 -0.001161 -0.000455 0.014739 0.000000 0.000000 0.000000
# 4 0.000000 0.000000 0.000000 0.080837 0.000000 0.000000
# 5 0.000000 0.000000 0.000000 0.000000 -0.020923 0.000000
# 6 0.000000 0.000000 0.000000 0.000000 0.000000 0.031068
#
#
# Mechanical properties :
#
#
# Convention : Reuss Voigt Hill
#
# Bulk Modulus (GPa) = 27.96221 52.25411 40.10816
# Shear Modulus (GPa) = 30.19044 19.05371 24.62208
#
# Velocity S-wave (km/s) = 3.54134 2.81335 3.19813
# Velocity P-wave (km/s) = 5.32325 5.67975 5.50439
#
# Compressibility (1/GPa) = 0.03576255
#
# Stress axis : x y z
#
# Youngs Moduli (GPa) = 33.92660 199.09197 67.84699
#
# Poissons Ratio (x) = 1.01962 0.07875
# Poissons Ratio (y) = 0.17375 0.03088
# Poissons Ratio (z) = 0.03938 0.09063
#
# Static dielectric constant tensor:
#      x y z
#    x 1.938800 0.000000 0.000000 
#    y 0.000000 1.951560 0.000000 
#    z 0.000000 0.000000 2.013650 
# 
# From -- ./inp_files/33654.got.cif
#   From: 2010.05.17/outbox.cif.g08.bks.cpg/sg63_17_cif.got.tgz:33654.got - 2010.06.03 15:47:04.
