data_PCOD9472000
_publ_section_title
;
Structure prediction by ZEFSAII (Michael W. Deem and Ramdas Pophale) SiO2 
 PCOD9472000
Probable space group: C M C M
;
_chemical_formula_sum "Si O2"
_cell_formula_units_Z 112
_cell_length_a 7.364358
_cell_length_b 21.040889
_cell_length_c 30.418658
_cell_angle_alpha 90.000000
_cell_angle_beta 90.000000
_cell_angle_gamma 90.000000
_cell_volume 4713.451339
_symmetry_space_group_name_H-M "C M C M"
_symmetry_group_IT_number 63
_symmetry_cell_setting 'orthorhombic'
loop_
_space_group_symop_operation_xyz
x,y,z
-x,-y,1/2+z
x,-y,-z
-x,y,1/2-z
-x,-y,-z
x,y,1/2-z
-x,y,z
x,-y,1/2+z
1/2+x,1/2+y,z
1/2-x,1/2-y,1/2+z
1/2+x,1/2-y,-z
1/2-x,1/2+y,1/2-z
1/2-x,1/2-y,-z
1/2+x,1/2+y,1/2-z
1/2-x,1/2+y,z
1/2+x,1/2-y,1/2+z
loop_
_atom_site_type_symbol
_atom_site_label
_atom_site_fract_x
_atom_site_fract_y
_atom_site_fract_z
Si Si1 0.278313 0.988226 0.357372
Si Si2 0.211855 0.340788 0.977581
Si Si3 0.210237 0.745893 0.341516
Si Si4 0.777997 0.525161 0.047360
Si Si5 0.718812 0.873308 0.298226
Si Si6 0.778034 0.612737 0.198708
Si Si7 0.781008 0.788802 0.064744
O O1 0.500000 0.988133 0.357104
O O2 0.219043 0.992206 0.407900
O O3 0.224415 0.050675 0.329395
O O4 0.216842 0.923515 0.334263
O O5 0.283319 0.401766 0.952821
O O6 0.288525 0.275356 0.959184
O O7 0.000000 0.338021 0.966999
O O8 0.225862 0.343726 0.030566
O O9 0.219736 0.801376 0.305791
O O10 0.284201 0.678809 0.324120
O O11 0.285122 0.780026 0.385579
O O12 0.000000 0.732062 0.352038
O O13 0.000000 0.523508 0.047179
O O14 0.719334 0.500000 0.000000
O O15 0.773402 0.896055 0.250000
O O16 0.500000 0.872414 0.299863
O O17 0.722467 0.609561 0.250000
O O18 0.000000 0.613721 0.198957
O O19 0.000000 0.792185 0.064989
#
# Coordination Sequence:
#
# PCOD9472000 Si02
#       7
#    16  16  16  16  16  16  16
#     4   9  17  30  49  73 102 131 164 211 258 297
#     4   9  17  30  49  71  98 129 167 209 248 289
#     4  10  20  33  52  76 104 135 170 209 253 304
#     4   9  17  27  43  69  97 125 161 201 239 285
#     4  10  21  35  52  77 107 135 165 207 259 310
#     4   9  16  28  49  73  94 123 166 211 253 295
#     4   9  18  31  47  70  99 132 165 201 246 297
#
# _framework density 23.761780000000002
#
# number of rings (size 3 to 8) (size 9 to 14) (size 15 to 20)
#    0.000    2.714    0.000    1.714    2.000    6.571 
#    0.000    0.000    0.000    2.143    0.000    0.000 
#    0.000    0.000    0.000    0.000    0.000    0.000 
#
# Total GULP energy -312655.585781 kJ/mol
# GULP energy per Si atom -5583.135460 kJ/mol
# Density = 2.370770 g / cm^3
# Si number density = 23.761780 Si / 1000 Ang^3
#
#
#
# Elastic Constant Matrix: (Units=GPa)
#
#
# Indices 1 2 3 4 5 6 
#
# 1 83.1357 -7.3409 -8.6078 0.0000 0.0000 0.0000
# 2 -7.3409 84.2493 16.3235 0.0000 0.0000 0.0000
# 3 -8.6078 16.3235 118.4072 0.0000 0.0000 0.0000
# 4 0.0000 0.0000 0.0000 33.4973 0.0000 0.0000
# 5 0.0000 0.0000 0.0000 0.0000 -4.3429 0.0000
# 6 0.0000 0.0000 0.0000 0.0000 0.0000 -6.0337
#
#
#
# Elastic Compliance Matrix: (Units=1/GPa)
#
#
# Indices 1 2 3 4 5 6 
#
# 1 0.012188 0.000915 0.000760 0.000000 0.000000 0.000000
# 2 0.000915 0.012264 -0.001624 0.000000 0.000000 0.000000
# 3 0.000760 -0.001624 0.008725 0.000000 0.000000 0.000000
# 4 0.000000 0.000000 0.000000 0.029853 0.000000 0.000000
# 5 0.000000 0.000000 0.000000 0.000000 -0.230262 0.000000
# 6 0.000000 0.000000 0.000000 0.000000 0.000000 -0.165735
#
#
# Mechanical properties :
#
#
# Convention : Reuss Voigt Hill
#
# Bulk Modulus (GPa) = 30.05042 31.83800 30.94421
# Shear Modulus (GPa) = -15.52910 23.65197 4.06143
#
# Velocity S-wave (km/s) = -2.55920 3.15838 1.30879
# Velocity P-wave (km/s) = 1.98527 5.16996 3.91598
#
# Compressibility (1/GPa) = 0.03327740
#
# Stress axis : x y z
#
# Youngs Moduli (GPa) = 82.04809 81.53996 114.61867
#
# Poissons Ratio (x) = -0.07459 -0.08710
# Poissons Ratio (y) = -0.07505 0.18616
# Poissons Ratio (z) = -0.06235 0.13244
#
# Static dielectric constant tensor:
#      x y z
#    x 1.928440 0.000000 0.000000 
#    y 0.000000 1.885880 0.000000 
#    z 0.000000 0.000000 1.922080 
# 
# From -- ./inp_files/68628.got.cif
#   From: 2010.05.17/outbox.cif.g08.bks.cpg/sg63_35_cif.got.tgz:68628.got - 2010.06.03 15:47:04.
