data_PCOD9472672
_publ_section_title
;
Structure prediction by ZEFSAII (Michael W. Deem and Ramdas Pophale) SiO2 
 PCOD9472672
Probable space group: C M C M
;
_chemical_formula_sum "Si O2"
_cell_formula_units_Z 104
_cell_length_a 20.837452
_cell_length_b 31.841249
_cell_length_c 9.033978
_cell_angle_alpha 90.000000
_cell_angle_beta 90.000000
_cell_angle_gamma 90.000000
_cell_volume 5993.958559
_symmetry_space_group_name_H-M "C M C M"
_symmetry_group_IT_number 63
_symmetry_cell_setting 'orthorhombic'
loop_
_space_group_symop_operation_xyz
x,y,z
-x,-y,1/2+z
x,-y,-z
-x,y,1/2-z
-x,-y,-z
x,y,1/2-z
-x,y,z
x,-y,1/2+z
1/2+x,1/2+y,z
1/2-x,1/2-y,1/2+z
1/2+x,1/2-y,-z
1/2-x,1/2+y,1/2-z
1/2-x,1/2-y,-z
1/2+x,1/2+y,1/2-z
1/2-x,1/2+y,z
1/2+x,1/2-y,1/2+z
loop_
_atom_site_type_symbol
_atom_site_label
_atom_site_fract_x
_atom_site_fract_y
_atom_site_fract_z
Si Si1 0.254589 0.457922 0.572816
Si Si2 0.194930 0.865175 0.926200
Si Si3 0.872411 0.574083 0.920866
Si Si4 0.319808 0.168792 0.919801
Si Si5 0.927265 0.175279 0.927011
Si Si6 0.427184 0.774905 0.927317
Si Si7 0.000000 0.454184 0.573312
O O1 0.282875 0.500000 0.500000
O O2 0.249591 0.462455 0.750000
O O3 0.291839 0.414431 0.540116
O O4 0.184748 0.451074 0.499749
O O5 0.196941 0.860399 0.750000
O O6 0.252470 0.837682 0.996613
O O7 0.127640 0.850002 0.990485
O O8 0.880528 0.560220 0.750000
O O9 0.851749 0.622627 0.920355
O O10 0.936906 0.568491 0.012546
O O11 0.307976 0.181338 0.750000
O O12 0.370378 0.199872 0.995310
O O13 0.920705 0.169727 0.750000
O O14 0.920700 0.225158 0.956501
O O15 0.000000 0.163047 0.968728
O O16 0.423318 0.780979 0.750000
O O17 0.500000 0.787609 0.973537
O O18 0.000000 0.500000 0.500000
O O19 0.000000 0.456616 0.750000
#
# Coordination Sequence:
#
# PCOD9472672 Si02
#       7
#    16  16  16  16  16  16   8
#     4  10  20  35  55  79 105 135 172 213 261 316
#     4  10  21  36  56  82 110 139 176 219 264 316
#     4  10  21  36  51  71 101 135 174 221 267 314
#     4  10  21  35  53  77 106 141 181 223 267 313
#     4   9  19  37  59  82 109 141 176 214 263 321
#     4   9  19  35  54  77 107 144 183 223 267 316
#     4  12  24  36  50  68  94 132 176 222 272 320
#
# _framework density 17.350804
#
# number of rings (size 3 to 8) (size 9 to 14) (size 15 to 20)
#    0.000    2.154    0.000    3.923    1.077    5.538 
#    0.000    1.538    0.000    0.462    0.000    0.000 
#    0.000    0.000    0.000    0.000    0.000    0.000 
#
# Total GULP energy -290272.701732 kJ/mol
# GULP energy per Si atom -5582.167341 kJ/mol
# Density = 1.731131 g / cm^3
# Si number density = 17.350804 Si / 1000 Ang^3
#
#
#
# Elastic Constant Matrix: (Units=GPa)
#
#
# Indices 1 2 3 4 5 6 
#
# 1 151.6417 72.2862 78.3163 0.0000 0.0000 0.0000
# 2 72.2862 65.8478 56.6684 0.0000 0.0000 0.0000
# 3 78.3163 56.6684 103.4762 0.0000 0.0000 0.0000
# 4 0.0000 0.0000 0.0000 30.5387 0.0000 0.0000
# 5 0.0000 0.0000 0.0000 0.0000 33.7287 0.0000
# 6 0.0000 0.0000 0.0000 0.0000 0.0000 9.7465
#
#
#
# Elastic Compliance Matrix: (Units=1/GPa)
#
#
# Indices 1 2 3 4 5 6 
#
# 1 0.014805 -0.012501 -0.004359 0.000000 0.000000 0.000000
# 2 -0.012501 0.039281 -0.012050 0.000000 0.000000 0.000000
# 3 -0.004359 -0.012050 0.019562 0.000000 0.000000 0.000000
# 4 0.000000 0.000000 0.000000 0.032745 0.000000 0.000000
# 5 0.000000 0.000000 0.000000 0.000000 0.029648 0.000000
# 6 0.000000 0.000000 0.000000 0.000000 0.000000 0.102601
#
#
# Mechanical properties :
#
#
# Convention : Reuss Voigt Hill
#
# Bulk Modulus (GPa) = 63.18289 81.72305 72.45297
# Shear Modulus (GPa) = 16.57063 22.38243 19.47653
#
# Velocity S-wave (km/s) = 3.09372 3.59554 3.35403
# Velocity P-wave (km/s) = 7.01822 8.02745 7.53974
#
# Compressibility (1/GPa) = 0.01582707
#
# Stress axis : x y z
#
# Youngs Moduli (GPa) = 67.54528 25.45792 51.11872
#
# Poissons Ratio (x) = 0.31826 0.22282
# Poissons Ratio (y) = 0.84440 0.61599
# Poissons Ratio (z) = 0.29442 0.30677
#
# Static dielectric constant tensor:
#      x y z
#    x 1.561340 0.000000 0.000000 
#    y 0.000000 1.594130 0.000000 
#    z 0.000000 0.000000 1.583040 
# 
# From -- ./inp_files/8806.got.cif
#   From: 2010.05.17/outbox.cif.g08.bks.cpg/sg63_5_cif.got.tgz:8806.got - 2010.06.03 15:47:04.
