data_PCOD9472911
_publ_section_title
;
Structure prediction by ZEFSAII (Michael W. Deem and Ramdas Pophale) SiO2 
 PCOD9472911
Probable space group: C M C M
;
_chemical_formula_sum "Si O2"
_cell_formula_units_Z 96
_cell_length_a 8.819783
_cell_length_b 25.341553
_cell_length_c 24.074459
_cell_angle_alpha 90.000000
_cell_angle_beta 90.000000
_cell_angle_gamma 90.000000
_cell_volume 5380.810068
_symmetry_space_group_name_H-M "C M C M"
_symmetry_group_IT_number 63
_symmetry_cell_setting 'orthorhombic'
loop_
_space_group_symop_operation_xyz
x,y,z
-x,-y,1/2+z
x,-y,-z
-x,y,1/2-z
-x,-y,-z
x,y,1/2-z
-x,y,z
x,-y,1/2+z
1/2+x,1/2+y,z
1/2-x,1/2-y,1/2+z
1/2+x,1/2-y,-z
1/2-x,1/2+y,1/2-z
1/2-x,1/2-y,-z
1/2+x,1/2+y,1/2-z
1/2-x,1/2+y,z
1/2+x,1/2-y,1/2+z
loop_
_atom_site_type_symbol
_atom_site_label
_atom_site_fract_x
_atom_site_fract_y
_atom_site_fract_z
Si Si1 0.180722 0.607900 0.750000
Si Si2 0.819109 0.827826 0.063912
Si Si3 0.180865 0.764967 0.636392
Si Si4 0.180429 0.932626 0.136898
Si Si5 0.182371 0.137914 0.059666
Si Si6 0.318663 0.977934 0.938841
Si Si7 0.180717 0.225600 0.750000
O O1 0.238927 0.578612 0.695061
O O2 0.250221 0.666730 0.750000
O O3 0.000000 0.611602 0.750000
O O4 0.731388 0.780911 0.093968
O O5 0.790750 0.882105 0.097167
O O6 0.000000 0.817099 0.066613
O O7 0.775715 0.836678 0.999903
O O8 0.219288 0.820751 0.608087
O O9 0.262487 0.754554 0.694608
O O10 0.000000 0.762350 0.644361
O O11 0.000000 0.936458 0.145080
O O12 0.242651 0.984171 0.106352
O O13 0.261506 0.081777 0.066157
O O14 0.000000 0.130165 0.058647
O O15 0.500000 0.980259 0.933554
O O16 0.277122 0.000000 0.000000
O O17 0.000000 0.221395 0.750000
#
# Coordination Sequence:
#
# PCOD9472911 Si02
#       7
#     8  16  16  16  16  16   8
#     4  12  24  40  63  90 123 154 198 254 300 348
#     4  10  20  35  59  89 123 159 195 239 298 364
#     4  11  23  38  60  89 121 155 200 253 301 352
#     4  11  22  38  63  91 122 158 200 244 298 361
#     4  10  22  40  60  87 122 163 202 243 301 364
#     4  11  23  38  60  90 122 158 202 251 299 350
#     4  12  24  40  61  84 117 160 202 242 298 364
#
# _framework density 17.841179
#
# number of rings (size 3 to 8) (size 9 to 14) (size 15 to 20)
#    0.000    1.167    3.333    3.500    0.000    3.333 
#    0.000    0.833    0.000    3.000    0.000    0.000 
#    0.000    0.000    0.000    0.000    0.000    0.000 
#
# Total GULP energy -268412.100392 kJ/mol
# GULP energy per Si atom -5591.918758 kJ/mol
# Density = 1.780057 g / cm^3
# Si number density = 17.841179 Si / 1000 Ang^3
#
#
#
# Elastic Constant Matrix: (Units=GPa)
#
#
# Indices 1 2 3 4 5 6 
#
# 1 88.3309 75.4892 79.2259 0.0000 0.0000 0.0000
# 2 75.4892 139.2641 84.3051 0.0000 0.0000 0.0000
# 3 79.2259 84.3051 159.4189 0.0000 0.0000 0.0000
# 4 0.0000 0.0000 0.0000 30.1335 0.0000 0.0000
# 5 0.0000 0.0000 0.0000 0.0000 25.1752 0.0000
# 6 0.0000 0.0000 0.0000 0.0000 0.0000 30.2302
#
#
#
# Elastic Compliance Matrix: (Units=1/GPa)
#
#
# Indices 1 2 3 4 5 6 
#
# 1 0.026998 -0.009579 -0.008352 0.000000 0.000000 0.000000
# 2 -0.009579 0.013960 -0.002622 0.000000 0.000000 0.000000
# 3 -0.008352 -0.002622 0.011810 0.000000 0.000000 0.000000
# 4 0.000000 0.000000 0.000000 0.033186 0.000000 0.000000
# 5 0.000000 0.000000 0.000000 0.000000 0.039722 0.000000
# 6 0.000000 0.000000 0.000000 0.000000 0.000000 0.033079
#
#
# Mechanical properties :
#
#
# Convention : Reuss Voigt Hill
#
# Bulk Modulus (GPa) = 85.74108 96.11711 90.92910
# Shear Modulus (GPa) = 24.54017 26.97405 25.75711
#
# Velocity S-wave (km/s) = 3.71277 3.89253 3.80371
# Velocity P-wave (km/s) = 8.15732 8.61354 8.38853
#
# Compressibility (1/GPa) = 0.01166302
#
# Stress axis : x y z
#
# Youngs Moduli (GPa) = 37.03990 71.63207 84.67430
#
# Poissons Ratio (x) = 0.68614 0.70716
# Poissons Ratio (y) = 0.35479 0.22204
# Poissons Ratio (z) = 0.30934 0.18784
#
# Static dielectric constant tensor:
#      x y z
#    x 1.594490 0.000000 0.000000 
#    y 0.000000 1.573040 0.000000 
#    z 0.000000 0.000000 1.591990 
# 
# From -- ./inp_files/60031.got.cif
#   From: 2010.05.17/outbox.cif.g08.bks.cpg/sg63_31_cif.got.tgz:60031.got - 2010.06.03 15:47:04.
