data_PCOD9472051
_publ_section_title
;
Structure prediction by ZEFSAII (Michael W. Deem and Ramdas Pophale) SiO2 
 PCOD9472051
Probable space group: C M C M
;
_chemical_formula_sum "Si O2"
_cell_formula_units_Z 96
_cell_length_a 18.004843
_cell_length_b 11.290191
_cell_length_c 25.487134
_cell_angle_alpha 90.000000
_cell_angle_beta 90.000000
_cell_angle_gamma 90.000000
_cell_volume 5180.976592
_symmetry_space_group_name_H-M "C M C M"
_symmetry_group_IT_number 63
_symmetry_cell_setting 'orthorhombic'
loop_
_space_group_symop_operation_xyz
x,y,z
-x,-y,1/2+z
x,-y,-z
-x,y,1/2-z
-x,-y,-z
x,y,1/2-z
-x,y,z
x,-y,1/2+z
1/2+x,1/2+y,z
1/2-x,1/2-y,1/2+z
1/2+x,1/2-y,-z
1/2-x,1/2+y,1/2-z
1/2-x,1/2-y,-z
1/2+x,1/2+y,1/2-z
1/2-x,1/2+y,z
1/2+x,1/2-y,1/2+z
loop_
_atom_site_type_symbol
_atom_site_label
_atom_site_fract_x
_atom_site_fract_y
_atom_site_fract_z
Si Si1 0.805001 0.809335 0.958264
Si Si2 0.165524 0.380887 0.367465
Si Si3 0.413282 0.325427 0.812070
Si Si4 0.087211 0.549449 0.444198
Si Si5 0.586434 0.331544 0.452585
Si Si6 0.313895 0.494174 0.120398
O O1 0.823118 0.709329 0.916037
O O2 0.777842 0.922117 0.925100
O O3 0.750000 0.750000 0.000000
O O4 0.877226 0.850939 0.990366
O O5 0.120308 0.303740 0.325748
O O6 0.121486 0.489052 0.393196
O O7 0.246583 0.427415 0.350945
O O8 0.409363 0.346567 0.750000
O O9 0.500000 0.331127 0.828474
O O10 0.363743 0.421721 0.843034
O O11 0.117971 0.500000 0.500000
O O12 0.094004 0.690704 0.443271
O O13 0.000000 0.518441 0.444089
O O14 0.500000 0.363710 0.451328
O O15 0.633684 0.401784 0.409694
#
# Coordination Sequence:
#
# PCOD9472051 Si02
#       6
#    16  16  16  16  16  16
#     4  11  21  34  51  82 126 163 196 231 288 347
#     4  11  22  35  63  87 118 156 205 248 298 359
#     4  10  24  47  69  87 114 155 205 263 323 375
#     4  10  20  33  52  81 124 166 200 239 285 349
#     4  11  22  34  53  83 124 169 206 240 290 359
#     4  11  24  36  60  90 118 155 198 257 302 360
#
# _framework density 18.529326000000001
#
# number of rings (size 3 to 8) (size 9 to 14) (size 15 to 20)
#    0.000    1.333    3.333    2.500    2.333    4.667 
#    0.000    0.000    0.000    0.000    0.000    4.667 
#    0.000    0.000    0.000    0.000    0.000    0.000 
#
# Total GULP energy -268112.445906 kJ/mol
# GULP energy per Si atom -5585.675956 kJ/mol
# Density = 1.848715 g / cm^3
# Si number density = 18.529326 Si / 1000 Ang^3
#
#
#
# Elastic Constant Matrix: (Units=GPa)
#
#
# Indices 1 2 3 4 5 6 
#
# 1 115.7495 42.8194 37.1256 0.0000 0.0000 0.0000
# 2 42.8194 55.1005 23.6097 0.0000 0.0000 0.0000
# 3 37.1256 23.6097 53.5128 0.0000 0.0000 0.0000
# 4 0.0000 0.0000 0.0000 20.5096 0.0000 0.0000
# 5 0.0000 0.0000 0.0000 0.0000 23.8237 0.0000
# 6 0.0000 0.0000 0.0000 0.0000 0.0000 29.1768
#
#
#
# Elastic Compliance Matrix: (Units=1/GPa)
#
#
# Indices 1 2 3 4 5 6 
#
# 1 0.013450 -0.007959 -0.005820 0.000000 0.000000 0.000000
# 2 -0.007959 0.027089 -0.006430 0.000000 0.000000 0.000000
# 3 -0.005820 -0.006430 0.025562 0.000000 0.000000 0.000000
# 4 0.000000 0.000000 0.000000 0.048758 0.000000 0.000000
# 5 0.000000 0.000000 0.000000 0.000000 0.041975 0.000000
# 6 0.000000 0.000000 0.000000 0.000000 0.000000 0.034274
#
#
# Mechanical properties :
#
#
# Convention : Reuss Voigt Hill
#
# Bulk Modulus (GPa) = 38.93574 47.94134 43.43854
# Shear Modulus (GPa) = 20.82592 22.75587 21.79090
#
# Velocity S-wave (km/s) = 3.35616 3.50823 3.43304
# Velocity P-wave (km/s) = 6.00642 6.50689 6.26166
#
# Compressibility (1/GPa) = 0.02568335
#
# Stress axis : x y z
#
# Youngs Moduli (GPa) = 74.34832 36.91601 39.12089
#
# Poissons Ratio (x) = 0.29380 0.22769
# Poissons Ratio (y) = 0.59170 0.25155
# Poissons Ratio (z) = 0.43271 0.23737
#
# Static dielectric constant tensor:
#      x y z
#    x 1.686400 0.000000 0.000000 
#    y 0.000000 1.649730 0.000000 
#    z 0.000000 0.000000 1.609520 
# 
# From -- ./inp_files/63711.got.cif
#   From: 2010.05.17/outbox.cif.g08.bks.cpg/sg63_32_cif.got.tgz:63711.got - 2010.06.03 15:47:04.
