data_PCOD9472897
_publ_section_title
;
Structure prediction by ZEFSAII (Michael W. Deem and Ramdas Pophale) SiO2 
 PCOD9472897
Probable space group: C M C M
;
_chemical_formula_sum "Si O2"
_cell_formula_units_Z 128
_cell_length_a 19.063647
_cell_length_b 20.941779
_cell_length_c 16.439995
_cell_angle_alpha 90.000000
_cell_angle_beta 90.000000
_cell_angle_gamma 90.000000
_cell_volume 6563.284663
_symmetry_space_group_name_H-M "C M C M"
_symmetry_group_IT_number 63
_symmetry_cell_setting 'orthorhombic'
loop_
_space_group_symop_operation_xyz
x,y,z
-x,-y,1/2+z
x,-y,-z
-x,y,1/2-z
-x,-y,-z
x,y,1/2-z
-x,y,z
x,-y,1/2+z
1/2+x,1/2+y,z
1/2-x,1/2-y,1/2+z
1/2+x,1/2-y,-z
1/2-x,1/2+y,1/2-z
1/2-x,1/2-y,-z
1/2+x,1/2+y,1/2-z
1/2-x,1/2+y,z
1/2+x,1/2-y,1/2+z
loop_
_atom_site_type_symbol
_atom_site_label
_atom_site_fract_x
_atom_site_fract_y
_atom_site_fract_z
Si Si1 0.915691 0.446418 0.397922
Si Si2 0.915776 0.584367 0.412449
Si Si3 0.157249 0.712024 0.348774
Si Si4 0.917629 0.840453 0.093020
Si Si5 0.918317 0.106407 0.090164
Si Si6 0.084594 0.974074 0.341160
Si Si7 0.421124 0.811798 0.344501
Si Si8 0.317052 0.708691 0.154180
O O1 0.889729 0.516806 0.374634
O O2 0.901831 0.427368 0.491624
O O3 0.895118 0.384371 0.348055
O O4 0.000000 0.451383 0.390572
O O5 0.881369 0.647908 0.378443
O O6 0.000000 0.589647 0.402467
O O7 0.152978 0.715344 0.250000
O O8 0.123082 0.776034 0.385731
O O9 0.238134 0.706652 0.377043
O O10 0.889045 0.903034 0.140128
O O11 0.000000 0.830189 0.113459
O O12 0.914665 0.863422 0.999447
O O13 0.862735 0.145374 0.142682
O O14 0.000000 0.113421 0.118165
O O15 0.899808 0.031479 0.096877
O O16 0.104743 0.993980 0.250000
O O17 0.000000 0.967861 0.343864
O O18 0.428153 0.793932 0.250000
O O19 0.500000 0.807278 0.381087
O O20 0.365247 0.764561 0.383495
O O21 0.309122 0.721573 0.250000
#
# Coordination Sequence:
#
# PCOD9472897 Si02
#       8
#    16  16  16  16  16  16  16  16
#     4   8  16  32  55  82 108 133 173 227 281 325
#     4   9  18  34  56  80 107 141 178 224 271 322
#     4  11  24  39  54  77 113 155 192 225 271 332
#     4  10  21  36  56  84 115 146 185 232 276 328
#     4  10  20  35  59  86 109 142 187 235 285 336
#     4   9  17  32  57  85 112 142 179 228 280 327
#     4   9  17  31  54  80 105 135 175 226 279 330
#     4  10  22  38  53  77 113 148 184 229 278 331
#
# _framework density 19.50243
#
# number of rings (size 3 to 8) (size 9 to 14) (size 15 to 20)
#    0.000    2.500    0.000    2.625    1.750    5.250 
#    0.000    2.500    2.750    3.000    0.000    0.000 
#    0.000    0.000    0.000    0.000    0.000    0.000 
#
# Total GULP energy -356570.783822 kJ/mol
# GULP energy per Si atom -5571.418497 kJ/mol
# Density = 1.945804 g / cm^3
# Si number density = 19.502430 Si / 1000 Ang^3
#
#
#
# Elastic Constant Matrix: (Units=GPa)
#
#
# Indices 1 2 3 4 5 6 
#
# 1 85.8073 72.7695 21.7835 0.0000 0.0000 0.0000
# 2 72.7695 183.4934 33.1882 0.0000 0.0000 0.0000
# 3 21.7835 33.1882 22.0511 0.0000 0.0000 0.0000
# 4 0.0000 0.0000 0.0000 33.4730 0.0000 0.0000
# 5 0.0000 0.0000 0.0000 0.0000 14.6320 0.0000
# 6 0.0000 0.0000 0.0000 0.0000 0.0000 -31.5107
#
#
#
# Elastic Compliance Matrix: (Units=1/GPa)
#
#
# Indices 1 2 3 4 5 6 
#
# 1 0.019114 -0.005723 -0.010269 0.000000 0.000000 0.000000
# 2 -0.005723 0.009202 -0.008196 0.000000 0.000000 0.000000
# 3 -0.010269 -0.008196 0.067828 0.000000 0.000000 0.000000
# 4 0.000000 0.000000 0.000000 0.029875 0.000000 0.000000
# 5 0.000000 0.000000 0.000000 0.000000 0.068343 0.000000
# 6 0.000000 0.000000 0.000000 0.000000 0.000000 -0.031735
#
#
# Mechanical properties :
#
#
# Convention : Reuss Voigt Hill
#
# Bulk Modulus (GPa) = 20.93394 60.75934 40.84664
# Shear Modulus (GPa) = 22.03369 14.22624 18.12996
#
# Velocity S-wave (km/s) = 3.36488 2.70378 3.05228
# Velocity P-wave (km/s) = 5.08467 6.40075 5.78029
#
# Compressibility (1/GPa) = 0.04776931
#
# Stress axis : x y z
#
# Youngs Moduli (GPa) = 52.31656 108.67514 14.74314
#
# Poissons Ratio (x) = 0.62195 0.15140
# Poissons Ratio (y) = 0.29941 0.12083
# Poissons Ratio (z) = 0.53723 0.89065
#
# Static dielectric constant tensor:
#      x y z
#    x 1.674930 0.000000 0.000000 
#    y 0.000000 0.644860 0.000000 
#    z 0.000000 0.000000 1.724080 
# 
# From -- ./inp_files/56069.got.cif
#   From: 2010.05.17/outbox.cif.g08.bks.cpg/sg63_29_cif.got.tgz:56069.got - 2010.06.03 15:47:04.
