data_PCOD9472829
_publ_section_title
;
Structure prediction by ZEFSAII (Michael W. Deem and Ramdas Pophale) SiO2 
 PCOD9472829
Probable space group: C M C M
;
_chemical_formula_sum "Si O2"
_cell_formula_units_Z 96
_cell_length_a 14.400002
_cell_length_b 11.926331
_cell_length_c 23.346343
_cell_angle_alpha 90.000000
_cell_angle_beta 90.000000
_cell_angle_gamma 90.000000
_cell_volume 4009.482042
_symmetry_space_group_name_H-M "C M C M"
_symmetry_group_IT_number 63
_symmetry_cell_setting 'orthorhombic'
loop_
_space_group_symop_operation_xyz
x,y,z
-x,-y,1/2+z
x,-y,-z
-x,y,1/2-z
-x,-y,-z
x,y,1/2-z
-x,y,z
x,-y,1/2+z
1/2+x,1/2+y,z
1/2-x,1/2-y,1/2+z
1/2+x,1/2-y,-z
1/2-x,1/2+y,1/2-z
1/2-x,1/2-y,-z
1/2+x,1/2+y,1/2-z
1/2-x,1/2+y,z
1/2+x,1/2-y,1/2+z
loop_
_atom_site_type_symbol
_atom_site_label
_atom_site_fract_x
_atom_site_fract_y
_atom_site_fract_z
Si Si1 0.656639 0.403099 0.534700
Si Si2 0.113046 0.060066 0.868898
Si Si3 0.387966 0.452386 0.750000
Si Si4 0.114149 0.306488 0.250000
Si Si5 0.855154 0.344587 0.479747
Si Si6 0.104772 0.310261 0.609901
Si Si7 0.888716 0.457316 0.357799
O O1 0.603998 0.500000 0.500000
O O2 0.663740 0.464710 0.594425
O O3 0.749989 0.375439 0.498934
O O4 0.617497 0.280080 0.540707
O O5 0.134997 0.026595 0.804729
O O6 0.000000 0.052042 0.877863
O O7 0.146267 0.185511 0.885579
O O8 0.500000 0.441045 0.750000
O O9 0.353651 0.323385 0.750000
O O10 0.143791 0.373880 0.192406
O O11 0.000000 0.305086 0.250000
O O12 0.899660 0.347896 0.543191
O O13 0.874176 0.416206 0.423239
O O14 0.146599 0.414094 0.644681
O O15 0.000000 0.294643 0.631231
O O16 0.000000 0.464020 0.350824
#
# Coordination Sequence:
#
# PCOD9472829 Si02
#       7
#    16  16   8   8  16  16  16
#     4  11  22  37  56  83 116 154 195 243 295 355
#     4  10  21  37  60  90 121 155 199 248 302 360
#     4   9  18  35  59  86 118 154 195 250 305 355
#     4   9  18  33  55  84 118 156 199 248 301 355
#     4  11  22  36  57  84 118 160 198 244 298 355
#     4  10  20  35  57  88 123 156 195 244 301 362
#     4  10  20  35  57  86 120 158 202 249 298 356
#
# _framework density 23.943242000000001
#
# number of rings (size 3 to 8) (size 9 to 14) (size 15 to 20)
#    0.000    1.833    1.667    3.000    0.000    5.000 
#    0.000    3.333    0.000    5.000    0.000    0.000 
#    0.000    0.000    0.000    0.000    0.000    0.000 
#
# Total GULP energy -267696.839949 kJ/mol
# GULP energy per Si atom -5577.017499 kJ/mol
# Density = 2.388875 g / cm^3
# Si number density = 23.943242 Si / 1000 Ang^3
#
#
#
# Elastic Constant Matrix: (Units=GPa)
#
#
# Indices 1 2 3 4 5 6 
#
# 1 66.0388 18.7674 8.2225 0.0000 0.0000 0.0000
# 2 18.7674 202.8073 69.6795 0.0000 0.0000 0.0000
# 3 8.2225 69.6795 151.0259 0.0000 0.0000 0.0000
# 4 0.0000 0.0000 0.0000 30.3961 0.0000 0.0000
# 5 0.0000 0.0000 0.0000 0.0000 -106.2684 0.0000
# 6 0.0000 0.0000 0.0000 0.0000 0.0000 -2.1934
#
#
#
# Elastic Compliance Matrix: (Units=1/GPa)
#
#
# Indices 1 2 3 4 5 6 
#
# 1 0.015558 -0.001365 -0.000217 0.000000 0.000000 0.000000
# 2 -0.001365 0.005979 -0.002684 0.000000 0.000000 0.000000
# 3 -0.000217 -0.002684 0.007872 0.000000 0.000000 0.000000
# 4 0.000000 0.000000 0.000000 0.032899 0.000000 0.000000
# 5 0.000000 0.000000 0.000000 0.000000 -0.009410 0.000000
# 6 0.000000 0.000000 0.000000 0.000000 0.000000 -0.455920
#
#
# Mechanical properties :
#
#
# Convention : Reuss Voigt Hill
#
# Bulk Modulus (GPa) = 47.90341 68.13454 58.01898
# Shear Modulus (GPa) = -12.90220 5.93371 -3.48425
#
# Velocity S-wave (km/s) = -2.32387 1.57595 -1.20763
# Velocity P-wave (km/s) = 3.58469 5.64180 4.72652
#
# Compressibility (1/GPa) = 0.02087534
#
# Stress axis : x y z
#
# Youngs Moduli (GPa) = 64.27732 167.24066 127.03683
#
# Poissons Ratio (x) = 0.22829 0.02760
# Poissons Ratio (y) = 0.08774 0.34102
# Poissons Ratio (z) = 0.01396 0.44895
#
# Static dielectric constant tensor:
#      x y z
#    x 1.998330 0.000000 0.000000 
#    y 0.000000 1.970640 0.000000 
#    z 0.000000 0.000000 1.922250 
# 
# From -- ./inp_files/56607.got.cif
#   From: 2010.05.17/outbox.cif.g08.bks.cpg/sg63_29_cif.got.tgz:56607.got - 2010.06.03 15:47:04.
