data_PCOD9472136
_publ_section_title
;
Structure prediction by ZEFSAII (Michael W. Deem and Ramdas Pophale) SiO2 
 PCOD9472136
Probable space group: C M C M
;
_chemical_formula_sum "Si O2"
_cell_formula_units_Z 88
_cell_length_a 29.655032
_cell_length_b 5.078414
_cell_length_c 32.105219
_cell_angle_alpha 90.000000
_cell_angle_beta 90.000000
_cell_angle_gamma 90.000000
_cell_volume 4835.062987
_symmetry_space_group_name_H-M "C M C M"
_symmetry_group_IT_number 63
_symmetry_cell_setting 'orthorhombic'
loop_
_space_group_symop_operation_xyz
x,y,z
-x,-y,1/2+z
x,-y,-z
-x,y,1/2-z
-x,-y,-z
x,y,1/2-z
-x,y,z
x,-y,1/2+z
1/2+x,1/2+y,z
1/2-x,1/2-y,1/2+z
1/2+x,1/2-y,-z
1/2-x,1/2+y,1/2-z
1/2-x,1/2-y,-z
1/2+x,1/2+y,1/2-z
1/2-x,1/2+y,z
1/2+x,1/2-y,1/2+z
loop_
_atom_site_type_symbol
_atom_site_label
_atom_site_fract_x
_atom_site_fract_y
_atom_site_fract_z
Si Si1 0.054118 0.996544 0.350486
Si Si2 0.629967 0.647427 0.418259
Si Si3 0.903199 0.343792 0.543511
Si Si4 0.779163 0.022254 0.549297
Si Si5 0.500000 0.244744 0.030648
Si Si6 0.053416 0.505419 0.296334
O O1 0.092578 0.075007 0.383688
O O2 0.058166 0.212370 0.313802
O O3 0.000000 0.002317 0.363522
O O4 0.067406 0.715741 0.331053
O O5 0.615485 0.448867 0.455481
O O6 0.682551 0.570694 0.418200
O O7 0.623410 0.955359 0.427240
O O8 0.902873 0.500000 0.500000
O O9 0.954970 0.295814 0.556660
O O10 0.762504 0.320313 0.554537
O O11 0.792795 0.000000 0.500000
O O12 0.500000 0.500000 0.000000
O O13 0.500000 0.000000 0.000000
O O14 0.073181 0.537930 0.250000
O O15 0.000000 0.555686 0.292747
#
# Coordination Sequence:
#
# PCOD9472136 Si02
#       6
#    16  16  16  16   8  16
#     4  10  21  33  50  79 114 142 172 212 264 319
#     4  12  23  35  55  78 108 137 174 229 287 325
#     4  11  22  34  50  68  98 141 186 218 253 312
#     4  10  21  38  58  76  97 131 183 239 283 322
#     4  10  20  34  46  64  92 132 183 216 235 288
#     4   9  17  33  54  75 104 146 184 211 243 301
#
# _framework density 18.200385000000001
#
# number of rings (size 3 to 8) (size 9 to 14) (size 15 to 20)
#    0.000    1.636    0.000    6.545    2.545    3.636 
#    0.000    0.000    0.000    0.000    0.000    0.000 
#    0.000   14.545    0.000    0.000    0.000    0.000 
#
# Total GULP energy -244963.473452 kJ/mol
# GULP energy per Si atom -5567.351669 kJ/mol
# Density = 1.815896 g / cm^3
# Si number density = 18.200385 Si / 1000 Ang^3
#
#
#
# Elastic Constant Matrix: (Units=GPa)
#
#
# Indices 1 2 3 4 5 6 
#
# 1 68.9247 -0.8773 20.5558 0.0000 0.0000 0.0000
# 2 -0.8773 69.3384 -4.0428 0.0000 0.0000 0.0000
# 3 20.5558 -4.0428 55.6285 0.0000 0.0000 0.0000
# 4 0.0000 0.0000 0.0000 7.8870 0.0000 0.0000
# 5 0.0000 0.0000 0.0000 0.0000 8.6266 0.0000
# 6 0.0000 0.0000 0.0000 0.0000 0.0000 15.8763
#
#
#
# Elastic Compliance Matrix: (Units=1/GPa)
#
#
# Indices 1 2 3 4 5 6 
#
# 1 0.016307 -0.000146 -0.006036 0.000000 0.000000 0.000000
# 2 -0.000146 0.014485 0.001106 0.000000 0.000000 0.000000
# 3 -0.006036 0.001106 0.020287 0.000000 0.000000 0.000000
# 4 0.000000 0.000000 0.000000 0.126791 0.000000 0.000000
# 5 0.000000 0.000000 0.000000 0.000000 0.115921 0.000000
# 6 0.000000 0.000000 0.000000 0.000000 0.000000 0.062987
#
#
# Mechanical properties :
#
#
# Convention : Reuss Voigt Hill
#
# Bulk Modulus (GPa) = 24.43310 25.01812 24.72561
# Shear Modulus (GPa) = 13.13814 18.36170 15.74992
#
# Velocity S-wave (km/s) = 2.68966 3.17971 2.94489
# Velocity P-wave (km/s) = 4.80618 5.22077 5.01776
#
# Compressibility (1/GPa) = 0.04092808
#
# Stress axis : x y z
#
# Youngs Moduli (GPa) = 61.32342 69.03840 49.29183
#
# Poissons Ratio (x) = 0.01005 0.29754
# Poissons Ratio (y) = 0.00893 -0.05454
# Poissons Ratio (z) = 0.37017 -0.07639
#
# Static dielectric constant tensor:
#      x y z
#    x 1.716700 0.000000 0.000000 
#    y 0.000000 1.380800 0.000000 
#    z 0.000000 0.000000 1.542970 
# 
# From -- ./inp_files/74393.got.cif
#   From: 2010.05.17/outbox.cif.g08.bks.cpg/sg63_38_cif.got.tgz:74393.got - 2010.06.03 15:47:04.
