data_PCOD9472917
_publ_section_title
;
Structure prediction by ZEFSAII (Michael W. Deem and Ramdas Pophale) SiO2 
 PCOD9472917
Probable space group: C M C M
;
_chemical_formula_sum "Si O2"
_cell_formula_units_Z 88
_cell_length_a 16.013542
_cell_length_b 15.721252
_cell_length_c 19.040017
_cell_angle_alpha 90.000000
_cell_angle_beta 90.000000
_cell_angle_gamma 90.000000
_cell_volume 4793.380052
_symmetry_space_group_name_H-M "C M C M"
_symmetry_group_IT_number 63
_symmetry_cell_setting 'orthorhombic'
loop_
_space_group_symop_operation_xyz
x,y,z
-x,-y,1/2+z
x,-y,-z
-x,y,1/2-z
-x,-y,-z
x,y,1/2-z
-x,y,z
x,-y,1/2+z
1/2+x,1/2+y,z
1/2-x,1/2-y,1/2+z
1/2+x,1/2-y,-z
1/2-x,1/2+y,1/2-z
1/2-x,1/2-y,-z
1/2+x,1/2+y,1/2-z
1/2-x,1/2+y,z
1/2+x,1/2-y,1/2+z
loop_
_atom_site_type_symbol
_atom_site_label
_atom_site_fract_x
_atom_site_fract_y
_atom_site_fract_z
Si Si1 0.357899 0.807368 0.038787
Si Si2 0.000000 0.558560 0.332123
Si Si3 0.329781 0.541143 0.885875
Si Si4 0.206161 0.875671 0.529293
Si Si5 0.500000 0.774837 0.571857
Si Si6 0.856527 0.580076 0.668132
Si Si7 0.000000 0.109488 0.830070
O O1 0.308906 0.720003 0.055120
O O2 0.385110 0.849748 0.111425
O O3 0.301270 0.876287 0.997721
O O4 0.424042 0.779049 0.981993
O O5 0.916964 0.501069 0.344066
O O6 0.000000 0.582700 0.250000
O O7 0.000000 0.641399 0.379978
O O8 0.317637 0.445246 0.913633
O O9 0.242482 0.564700 0.847314
O O10 0.414893 0.556548 0.843798
O O11 0.339176 0.598394 0.956604
O O12 0.500000 0.691343 0.619453
O O13 0.866590 0.604127 0.750000
O O14 0.000000 0.138963 0.750000
#
# Coordination Sequence:
#
# PCOD9472917 Si02
#       7
#    16   8  16  16   8  16   8
#     4  10  20  35  59  91 119 148 195 248 291 358
#     4  10  22  39  60  87 119 153 195 241 299 372
#     4  10  20  38  60  83 117 161 196 244 290 352
#     4   9  19  36  59  87 115 147 201 241 288 343
#     4  12  22  37  60  89 117 153 199 252 308 348
#     4  10  21  39  59  85 121 158 192 243 306 358
#     4  12  25  39  56  85 123 162 205 251 301 359
#
# _framework density 18.358651999999999
#
# number of rings (size 3 to 8) (size 9 to 14) (size 15 to 20)
#    0.000    1.818    1.818    2.455    0.000    5.091 
#    0.000    1.818    0.000    1.091    0.000    0.000 
#    0.000    0.000    0.000    0.000    0.000    0.000 
#
# Total GULP energy -245152.550397 kJ/mol
# GULP energy per Si atom -5571.648873 kJ/mol
# Density = 1.831687 g / cm^3
# Si number density = 18.358652 Si / 1000 Ang^3
#
#
#
# Elastic Constant Matrix: (Units=GPa)
#
#
# Indices 1 2 3 4 5 6 
#
# 1 84.4040 26.8837 36.5388 0.0000 0.0000 0.0000
# 2 26.8837 86.0609 51.5231 0.0000 0.0000 0.0000
# 3 36.5388 51.5231 110.0473 0.0000 0.0000 0.0000
# 4 0.0000 0.0000 0.0000 12.1758 0.0000 0.0000
# 5 0.0000 0.0000 0.0000 0.0000 2.7686 0.0000
# 6 0.0000 0.0000 0.0000 0.0000 0.0000 19.5529
#
#
#
# Elastic Compliance Matrix: (Units=1/GPa)
#
#
# Indices 1 2 3 4 5 6 
#
# 1 0.014138 -0.002232 -0.003650 0.000000 0.000000 0.000000
# 2 -0.002232 0.016497 -0.006983 0.000000 0.000000 0.000000
# 3 -0.003650 -0.006983 0.013568 0.000000 0.000000 0.000000
# 4 0.000000 0.000000 0.000000 0.082130 0.000000 0.000000
# 5 0.000000 0.000000 0.000000 0.000000 0.361187 0.000000
# 6 0.000000 0.000000 0.000000 0.000000 0.000000 0.051143
#
#
# Mechanical properties :
#
#
# Convention : Reuss Voigt Hill
#
# Bulk Modulus (GPa) = 54.12521 56.71148 55.41835
# Shear Modulus (GPa) = 8.76345 17.93725 13.35035
#
# Velocity S-wave (km/s) = 2.18720 3.12916 2.69958
# Velocity P-wave (km/s) = 5.99371 6.63427 6.32211
#
# Compressibility (1/GPa) = 0.01847568
#
# Stress axis : x y z
#
# Youngs Moduli (GPa) = 70.72896 60.61573 73.70233
#
# Poissons Ratio (x) = 0.13527 0.26898
# Poissons Ratio (y) = 0.15784 0.51466
# Poissons Ratio (z) = 0.25813 0.42328
#
# Static dielectric constant tensor:
#      x y z
#    x 1.733970 0.000000 0.000000 
#    y 0.000000 1.614580 0.000000 
#    z 0.000000 0.000000 1.621280 
# 
# From -- ./inp_files/45574.got.cif
#   From: 2010.05.17/outbox.cif.g08.bks.cpg/sg63_23_cif.got.tgz:45574.got - 2010.06.03 15:47:04.
