data_PCOD9472461
_publ_section_title
;
Structure prediction by ZEFSAII (Michael W. Deem and Ramdas Pophale) SiO2 
 PCOD9472461
Probable space group: C M C M
;
_chemical_formula_sum "Si O2"
_cell_formula_units_Z 96
_cell_length_a 24.407927
_cell_length_b 15.216292
_cell_length_c 13.707252
_cell_angle_alpha 90.000000
_cell_angle_beta 90.000000
_cell_angle_gamma 90.000000
_cell_volume 5090.847957
_symmetry_space_group_name_H-M "C M C M"
_symmetry_group_IT_number 63
_symmetry_cell_setting 'orthorhombic'
loop_
_space_group_symop_operation_xyz
x,y,z
-x,-y,1/2+z
x,-y,-z
-x,y,1/2-z
-x,-y,-z
x,y,1/2-z
-x,y,z
x,-y,1/2+z
1/2+x,1/2+y,z
1/2-x,1/2-y,1/2+z
1/2+x,1/2-y,-z
1/2-x,1/2+y,1/2-z
1/2-x,1/2-y,-z
1/2+x,1/2+y,1/2-z
1/2-x,1/2+y,z
1/2+x,1/2-y,1/2+z
loop_
_atom_site_type_symbol
_atom_site_label
_atom_site_fract_x
_atom_site_fract_y
_atom_site_fract_z
Si Si1 0.936894 0.730280 0.134516
Si Si2 0.356889 0.097876 0.477183
Si Si3 0.220932 0.677426 0.867400
Si Si4 0.060391 0.929815 0.088397
Si Si5 0.245539 0.122484 0.367282
Si Si6 0.684635 0.456509 0.136807
O O1 0.920613 0.743581 0.250000
O O2 0.898912 0.661233 0.078634
O O3 0.936449 0.823764 0.077584
O O4 0.000000 0.700185 0.135616
O O5 0.331528 0.140456 0.575355
O O6 0.303575 0.091087 0.408016
O O7 0.378010 0.000000 0.500000
O O8 0.213588 0.672539 0.750000
O O9 0.231432 0.778313 0.895007
O O10 0.274800 0.620925 0.897602
O O11 0.119794 0.946116 0.133511
O O12 0.000000 0.942517 0.137202
O O13 0.059245 0.000000 0.000000
O O14 0.248255 0.123856 0.250000
O O15 0.201251 0.051698 0.403218
O O16 0.699328 0.460249 0.250000
#
# Coordination Sequence:
#
# PCOD9472461 Si02
#       6
#    16  16  16  16  16  16
#     4  10  23  44  67  91 121 160 210 262 308 363
#     4  12  23  36  63  91 118 160 202 259 315 370
#     4  10  22  38  56  85 121 161 202 248 307 368
#     4  10  22  37  59  89 121 157 200 251 301 356
#     4  10  21  36  54  83 120 158 200 242 296 365
#     4  10  20  34  55  83 118 156 197 242 293 359
#
# _framework density 18.857368999999998
#
# number of rings (size 3 to 8) (size 9 to 14) (size 15 to 20)
#    0.000    1.667    1.667    2.500    4.667    3.333 
#    0.000    0.000    0.000    0.500    0.000    0.000 
#    0.000    0.000    0.000    0.000    0.000    0.000 
#
# Total GULP energy -267433.915728 kJ/mol
# GULP energy per Si atom -5571.539911 kJ/mol
# Density = 1.881445 g / cm^3
# Si number density = 18.857369 Si / 1000 Ang^3
#
#
#
# Elastic Constant Matrix: (Units=GPa)
#
#
# Indices 1 2 3 4 5 6 
#
# 1 106.0112 71.3828 24.8281 0.0000 0.0000 0.0000
# 2 71.3828 158.0546 49.3613 0.0000 0.0000 0.0000
# 3 24.8281 49.3613 75.8616 0.0000 0.0000 0.0000
# 4 0.0000 0.0000 0.0000 24.2887 0.0000 0.0000
# 5 0.0000 0.0000 0.0000 0.0000 16.3157 0.0000
# 6 0.0000 0.0000 0.0000 0.0000 0.0000 35.7767
#
#
#
# Elastic Compliance Matrix: (Units=1/GPa)
#
#
# Indices 1 2 3 4 5 6 
#
# 1 0.013575 -0.005953 -0.000569 0.000000 0.000000 0.000000
# 2 -0.005953 0.010551 -0.004917 0.000000 0.000000 0.000000
# 3 -0.000569 -0.004917 0.016568 0.000000 0.000000 0.000000
# 4 0.000000 0.000000 0.000000 0.041171 0.000000 0.000000
# 5 0.000000 0.000000 0.000000 0.000000 0.061291 0.000000
# 6 0.000000 0.000000 0.000000 0.000000 0.000000 0.027951
#
#
# Mechanical properties :
#
#
# Convention : Reuss Voigt Hill
#
# Bulk Modulus (GPa) = 56.13312 70.11911 63.12611
# Shear Modulus (GPa) = 25.00953 28.23323 26.62138
#
# Velocity S-wave (km/s) = 3.64572 3.87356 3.76137
# Velocity P-wave (km/s) = 6.89591 7.56774 7.23962
#
# Compressibility (1/GPa) = 0.01781480
#
# Stress axis : x y z
#
# Youngs Moduli (GPa) = 73.66603 94.77650 60.35874
#
# Poissons Ratio (x) = 0.56421 0.03436
# Poissons Ratio (y) = 0.43854 0.29679
# Poissons Ratio (z) = 0.04194 0.46602
#
# Static dielectric constant tensor:
#      x y z
#    x 1.634230 0.000000 0.000000 
#    y 0.000000 1.674280 0.000000 
#    z 0.000000 0.000000 1.711560 
# 
# From -- ./inp_files/35339.got.cif
#   From: 2010.05.17/outbox.cif.g08.bks.cpg/sg63_18_cif.got.tgz:35339.got - 2010.06.03 15:47:04.
