data_PCOD9472204
_publ_section_title
;
Structure prediction by ZEFSAII (Michael W. Deem and Ramdas Pophale) SiO2 
 PCOD9472204
Probable space group: C M C M
;
_chemical_formula_sum "Si O2"
_cell_formula_units_Z 96
_cell_length_a 22.932106
_cell_length_b 28.415921
_cell_length_c 8.396971
_cell_angle_alpha 90.000000
_cell_angle_beta 90.000000
_cell_angle_gamma 90.000000
_cell_volume 5471.776256
_symmetry_space_group_name_H-M "C M C M"
_symmetry_group_IT_number 63
_symmetry_cell_setting 'orthorhombic'
loop_
_space_group_symop_operation_xyz
x,y,z
-x,-y,1/2+z
x,-y,-z
-x,y,1/2-z
-x,-y,-z
x,y,1/2-z
-x,y,z
x,-y,1/2+z
1/2+x,1/2+y,z
1/2-x,1/2-y,1/2+z
1/2+x,1/2-y,-z
1/2-x,1/2+y,1/2-z
1/2-x,1/2-y,-z
1/2+x,1/2+y,1/2-z
1/2-x,1/2+y,z
1/2+x,1/2-y,1/2+z
loop_
_atom_site_type_symbol
_atom_site_label
_atom_site_fract_x
_atom_site_fract_y
_atom_site_fract_z
Si Si1 0.373723 0.899635 0.941456
Si Si2 0.193022 0.142757 0.559782
Si Si3 0.500000 0.880830 0.944756
Si Si4 0.811468 0.691757 0.557438
Si Si5 0.500000 0.770591 0.559220
Si Si6 0.755275 0.552036 0.059382
Si Si7 0.883123 0.220355 0.059522
O O1 0.373910 0.903026 0.750000
O O2 0.440160 0.905928 0.997637
O O3 0.320203 0.932066 0.000062
O O4 0.355849 0.846978 0.990725
O O5 0.192940 0.141881 0.750000
O O6 0.248046 0.174646 0.503174
O O7 0.209011 0.090940 0.498438
O O8 0.135255 0.169002 0.500981
O O9 0.500000 0.880565 0.750000
O O10 0.500000 0.825558 0.994890
O O11 0.812545 0.690289 0.750000
O O12 0.833321 0.742570 0.504388
O O13 0.500000 0.771641 0.750000
O O14 0.556693 0.742441 0.500610
O O15 0.756270 0.552804 0.250000
O O16 0.742158 0.500000 0.000000
O O17 0.884024 0.219681 0.250000
#
# Coordination Sequence:
#
# PCOD9472204 Si02
#       7
#    16  16   8  16   8  16  16
#     4   9  17  30  49  71  96 132 176 217 256 304
#     4  10  20  34  52  75 101 132 170 211 257 311
#     4   9  16  29  48  70  96 133 180 219 251 294
#     4   9  18  30  46  70 102 135 168 209 253 301
#     4  11  21  33  51  72 101 145 185 214 248 295
#     4  10  20  35  55  76 100 129 165 215 271 320
#     4  11  21  33  48  73 107 139 172 210 254 302
#
# _framework density 17.544577
#
# number of rings (size 3 to 8) (size 9 to 14) (size 15 to 20)
#    0.000    2.167    1.667    2.250    0.000    2.000 
#    0.000    0.833    0.000    0.000    0.000    0.583 
#    0.000    0.000    0.000    0.000    0.000    0.000 
#
# Total GULP energy -267663.338272 kJ/mol
# GULP energy per Si atom -5576.319547 kJ/mol
# Density = 1.750464 g / cm^3
# Si number density = 17.544577 Si / 1000 Ang^3
#
#
#
# Elastic Constant Matrix: (Units=GPa)
#
#
# Indices 1 2 3 4 5 6 
#
# 1 30.0735 29.9412 8.3926 0.0000 0.0000 0.0000
# 2 29.9412 106.7550 22.0217 0.0000 0.0000 0.0000
# 3 8.3926 22.0217 22.5664 0.0000 0.0000 0.0000
# 4 0.0000 0.0000 0.0000 21.2077 0.0000 0.0000
# 5 0.0000 0.0000 0.0000 0.0000 20.9398 0.0000
# 6 0.0000 0.0000 0.0000 0.0000 0.0000 17.6626
#
#
#
# Elastic Compliance Matrix: (Units=1/GPa)
#
#
# Indices 1 2 3 4 5 6 
#
# 1 0.046721 -0.011919 -0.005745 0.000000 0.000000 0.000000
# 2 -0.011919 0.014769 -0.009979 0.000000 0.000000 0.000000
# 3 -0.005745 -0.009979 0.056189 0.000000 0.000000 0.000000
# 4 0.000000 0.000000 0.000000 0.047153 0.000000 0.000000
# 5 0.000000 0.000000 0.000000 0.000000 0.047756 0.000000
# 6 0.000000 0.000000 0.000000 0.000000 0.000000 0.056617
#
#
# Mechanical properties :
#
#
# Convention : Reuss Voigt Hill
#
# Bulk Modulus (GPa) = 16.02756 31.12285 23.57520
# Shear Modulus (GPa) = 14.48066 18.56465 16.52265
#
# Velocity S-wave (km/s) = 2.87603 3.25644 3.07213
# Velocity P-wave (km/s) = 4.49265 5.64951 5.10396
#
# Compressibility (1/GPa) = 0.06239254
#
# Stress axis : x y z
#
# Youngs Moduli (GPa) = 21.40346 67.71106 17.79712
#
# Poissons Ratio (x) = 0.80703 0.10224
# Poissons Ratio (y) = 0.25510 0.17761
# Poissons Ratio (z) = 0.12296 0.67572
#
# Static dielectric constant tensor:
#      x y z
#    x 1.628910 0.000000 0.000000 
#    y 0.000000 1.580960 0.000000 
#    z 0.000000 0.000000 1.586810 
# 
# From -- ./inp_files/10562.got.cif
#   From: 2010.05.17/outbox.cif.g08.bks.cpg/sg63_6_cif.got.tgz:10562.got - 2010.06.03 15:47:04.
