data_PCOD9472870
_publ_section_title
;
Structure prediction by ZEFSAII (Michael W. Deem and Ramdas Pophale) SiO2 
 PCOD9472870
Probable space group: C M C M
;
_chemical_formula_sum "Si O2"
_cell_formula_units_Z 116
_cell_length_a 25.584064
_cell_length_b 29.550995
_cell_length_c 7.618249
_cell_angle_alpha 90.000000
_cell_angle_beta 90.000000
_cell_angle_gamma 90.000000
_cell_volume 5759.659434
_symmetry_space_group_name_H-M "C M C M"
_symmetry_group_IT_number 63
_symmetry_cell_setting 'orthorhombic'
loop_
_space_group_symop_operation_xyz
x,y,z
-x,-y,1/2+z
x,-y,-z
-x,y,1/2-z
-x,-y,-z
x,y,1/2-z
-x,y,z
x,-y,1/2+z
1/2+x,1/2+y,z
1/2-x,1/2-y,1/2+z
1/2+x,1/2-y,-z
1/2-x,1/2+y,1/2-z
1/2-x,1/2-y,-z
1/2+x,1/2+y,1/2-z
1/2-x,1/2+y,z
1/2+x,1/2-y,1/2+z
loop_
_atom_site_type_symbol
_atom_site_label
_atom_site_fract_x
_atom_site_fract_y
_atom_site_fract_z
Si Si1 0.097467 0.712636 0.963758
Si Si2 0.584144 0.316298 0.964418
Si Si3 0.851178 0.448460 0.460452
Si Si4 0.500000 0.344562 0.250000
Si Si5 0.767785 0.051345 0.540993
Si Si6 0.197255 0.145304 0.450959
Si Si7 0.213956 0.291959 0.050100
Si Si8 0.942776 0.382936 0.035112
O O1 0.095976 0.710921 0.750000
O O2 0.078057 0.762834 0.006768
O O3 0.156865 0.706525 0.034180
O O4 0.065159 0.668974 0.021167
O O5 0.576883 0.322411 0.750000
O O6 0.643572 0.331417 0.008585
O O7 0.545230 0.342179 0.092880
O O8 0.866821 0.500000 0.500000
O O9 0.848293 0.443259 0.250000
O O10 0.791832 0.442524 0.527871
O O11 0.894239 0.413312 0.526042
O O12 0.767142 0.056399 0.750000
O O13 0.803438 0.091337 0.467901
O O14 0.783863 0.000000 0.500000
O O15 0.203677 0.158918 0.250000
O O16 0.249876 0.163977 0.538656
O O17 0.200924 0.283975 0.250000
O O18 0.250000 0.250000 0.000000
O O19 0.941643 0.383956 0.250000
O O20 0.000000 0.399572 0.980626
#
# Coordination Sequence:
#
# PCOD9472870 Si02
#       8
#    16  16  16   4  16  16  16  16
#     4   9  18  34  53  76 110 151 198 246 301 354
#     4  10  23  41  61  87 119 158 203 250 298 354
#     4   9  18  33  52  76 105 142 187 236 293 355
#     4  12  26  40  64  86 118 160 206 252 294 346
#     4  10  20  35  58  86 119 152 187 234 294 363
#     4  11  22  37  57  87 124 157 194 240 297 361
#     4  11  20  32  53  80 115 156 197 244 296 360
#     4   9  17  29  50  74  96 140 199 246 291 346
#
# _framework density 20.140079
#
# number of rings (size 3 to 8) (size 9 to 14) (size 15 to 20)
#    0.000    2.069    1.379    2.276    2.897    3.034 
#    1.241    0.000    1.517    0.000    0.000    0.483 
#    0.000    0.000    0.000    0.000    0.000    0.000 
#
# Total GULP energy -323091.194203 kJ/mol
# GULP energy per Si atom -5570.537831 kJ/mol
# Density = 2.009424 g / cm^3
# Si number density = 20.140079 Si / 1000 Ang^3
#
#
#
# Elastic Constant Matrix: (Units=GPa)
#
#
# Indices 1 2 3 4 5 6 
#
# 1 31.4558 0.7367 7.2323 0.0000 0.0000 0.0000
# 2 0.7367 81.6743 -10.2176 0.0000 0.0000 0.0000
# 3 7.2323 -10.2176 52.7686 0.0000 0.0000 0.0000
# 4 0.0000 0.0000 0.0000 19.8503 0.0000 0.0000
# 5 0.0000 0.0000 0.0000 0.0000 49.3562 0.0000
# 6 0.0000 0.0000 0.0000 0.0000 0.0000 12.4918
#
#
#
# Elastic Compliance Matrix: (Units=1/GPa)
#
#
# Indices 1 2 3 4 5 6 
#
# 1 0.032887 -0.000882 -0.004678 0.000000 0.000000 0.000000
# 2 -0.000882 0.012571 0.002555 0.000000 0.000000 0.000000
# 3 -0.004678 0.002555 0.020087 0.000000 0.000000 0.000000
# 4 0.000000 0.000000 0.000000 0.050377 0.000000 0.000000
# 5 0.000000 0.000000 0.000000 0.000000 0.020261 0.000000
# 6 0.000000 0.000000 0.000000 0.000000 0.000000 0.080053
#
#
# Mechanical properties :
#
#
# Convention : Reuss Voigt Hill
#
# Bulk Modulus (GPa) = 16.79689 17.93352 17.36521
# Shear Modulus (GPa) = 20.65345 27.54947 24.10146
#
# Velocity S-wave (km/s) = 3.20580 3.70252 3.46308
# Velocity P-wave (km/s) = 4.69692 5.21554 4.96301
#
# Compressibility (1/GPa) = 0.05953482
#
# Stress axis : x y z
#
# Youngs Moduli (GPa) = 30.40727 79.54597 49.78448
#
# Poissons Ratio (x) = 0.07015 0.23290
# Poissons Ratio (y) = 0.02682 -0.12720
# Poissons Ratio (z) = 0.14225 -0.20324
#
# Static dielectric constant tensor:
#      x y z
#    x 1.700780 0.000000 0.000000 
#    y 0.000000 1.712070 0.000000 
#    z 0.000000 0.000000 1.762520 
# 
# From -- ./inp_files/11160.got.cif
#   From: 2010.05.17/outbox.cif.g08.bks.cpg/sg63_6_cif.got.tgz:11160.got - 2010.06.03 15:47:04.
