data_PCOD9472662
_publ_section_title
;
Structure prediction by ZEFSAII (Michael W. Deem and Ramdas Pophale) SiO2 
 PCOD9472662
Probable space group: C M C M
;
_chemical_formula_sum "Si O2"
_cell_formula_units_Z 72
_cell_length_a 30.394757
_cell_length_b 14.079922
_cell_length_c 7.577334
_cell_angle_alpha 90.000000
_cell_angle_beta 90.000000
_cell_angle_gamma 90.000000
_cell_volume 3242.764093
_symmetry_space_group_name_H-M "C M C M"
_symmetry_group_IT_number 63
_symmetry_cell_setting 'orthorhombic'
loop_
_space_group_symop_operation_xyz
x,y,z
-x,-y,1/2+z
x,-y,-z
-x,y,1/2-z
-x,-y,-z
x,y,1/2-z
-x,y,z
x,-y,1/2+z
1/2+x,1/2+y,z
1/2-x,1/2-y,1/2+z
1/2+x,1/2-y,-z
1/2-x,1/2+y,1/2-z
1/2-x,1/2-y,-z
1/2+x,1/2+y,1/2-z
1/2-x,1/2+y,z
1/2+x,1/2-y,1/2+z
loop_
_atom_site_type_symbol
_atom_site_label
_atom_site_fract_x
_atom_site_fract_y
_atom_site_fract_z
Si Si1 0.185379 0.688903 0.956616
Si Si2 0.722703 0.390662 0.039315
Si Si3 0.000000 0.390180 0.460386
Si Si4 0.449787 0.605887 0.039319
Si Si5 0.909672 0.296129 0.466579
O O1 0.184386 0.664655 0.750000
O O2 0.227962 0.634397 0.030477
O O3 0.137209 0.666347 0.030881
O O4 0.193434 0.802758 0.970721
O O5 0.722649 0.380269 0.250000
O O6 0.710786 0.500000 0.000000
O O7 0.000000 0.500000 0.500000
O O8 0.954123 0.347494 0.526781
O O9 0.000000 0.372110 0.250000
O O10 0.452789 0.615758 0.250000
O O11 0.500000 0.617661 0.970283
O O12 0.417339 0.687311 0.977510
O O13 0.434903 0.500000 0.000000
O O14 0.908501 0.300121 0.250000
#
# Coordination Sequence:
#
# PCOD9472662 Si02
#       5
#    16  16   8  16  16
#     4   9  19  35  55  79 104 136 177 218 261 312
#     4  10  20  35  55  78 106 138 172 215 266 317
#     4  10  20  36  55  76 104 140 179 216 255 300
#     4   9  16  28  47  70  95 128 164 200 244 295
#     4   9  17  33  55  75 102 139 175 209 254 308
#
# _framework density 22.203281
#
# number of rings (size 3 to 8) (size 9 to 14) (size 15 to 20)
#    0.000    2.667    1.111    0.667    0.000    2.667 
#    0.000    5.556    0.000    0.000    0.000    0.000 
#    0.000    0.000    0.000    0.000    0.000    0.000 
#
# Total GULP energy -200836.929766 kJ/mol
# GULP energy per Si atom -5578.803605 kJ/mol
# Density = 2.215275 g / cm^3
# Si number density = 22.203281 Si / 1000 Ang^3
#
#
#
# Elastic Constant Matrix: (Units=GPa)
#
#
# Indices 1 2 3 4 5 6 
#
# 1 116.7251 2.1486 -1.8996 0.0000 0.0000 0.0000
# 2 2.1486 38.6522 -19.8173 0.0000 0.0000 0.0000
# 3 -1.8996 -19.8173 50.1507 0.0000 0.0000 0.0000
# 4 0.0000 0.0000 0.0000 18.1748 0.0000 0.0000
# 5 0.0000 0.0000 0.0000 0.0000 4.4440 0.0000
# 6 0.0000 0.0000 0.0000 0.0000 0.0000 7.8320
#
#
#
# Elastic Compliance Matrix: (Units=1/GPa)
#
#
# Indices 1 2 3 4 5 6 
#
# 1 0.008577 -0.000389 0.000171 0.000000 0.000000 0.000000
# 2 -0.000389 0.032463 0.012813 0.000000 0.000000 0.000000
# 3 0.000171 0.012813 0.025010 0.000000 0.000000 0.000000
# 4 0.000000 0.000000 0.000000 0.055021 0.000000 0.000000
# 5 0.000000 0.000000 0.000000 0.000000 0.225020 0.000000
# 6 0.000000 0.000000 0.000000 0.000000 0.000000 0.127682
#
#
# Mechanical properties :
#
#
# Convention : Reuss Voigt Hill
#
# Bulk Modulus (GPa) = 10.96010 18.48791 14.72401
# Shear Modulus (GPa) = 10.43851 21.09659 15.76755
#
# Velocity S-wave (km/s) = 2.17061 3.08580 2.66775
# Velocity P-wave (km/s) = 3.35097 4.58705 4.01684
#
# Compressibility (1/GPa) = 0.09124002
#
# Stress axis : x y z
#
# Youngs Moduli (GPa) = 116.58974 30.80448 39.98467
#
# Poissons Ratio (x) = 0.01198 -0.00684
# Poissons Ratio (y) = 0.04536 -0.51233
# Poissons Ratio (z) = -0.01996 -0.39470
#
# Static dielectric constant tensor:
#      x y z
#    x 1.864010 0.000000 0.000000 
#    y 0.000000 1.788960 0.000000 
#    z 0.000000 0.000000 1.833540 
# 
# From -- ./inp_files/13882.got.cif
#   From: 2010.05.17/outbox.cif.g08.bks.cpg/sg63_7_cif.got.tgz:13882.got - 2010.06.03 15:47:04.
