data_PCOD9472649
_publ_section_title
;
Structure prediction by ZEFSAII (Michael W. Deem and Ramdas Pophale) SiO2 
 PCOD9472649
Probable space group: C M C M
;
_chemical_formula_sum "Si O2"
_cell_formula_units_Z 96
_cell_length_a 8.778824
_cell_length_b 24.134721
_cell_length_c 25.880482
_cell_angle_alpha 90.000000
_cell_angle_beta 90.000000
_cell_angle_gamma 90.000000
_cell_volume 5483.413354
_symmetry_space_group_name_H-M "C M C M"
_symmetry_group_IT_number 63
_symmetry_cell_setting 'orthorhombic'
loop_
_space_group_symop_operation_xyz
x,y,z
-x,-y,1/2+z
x,-y,-z
-x,y,1/2-z
-x,-y,-z
x,y,1/2-z
-x,y,z
x,-y,1/2+z
1/2+x,1/2+y,z
1/2-x,1/2-y,1/2+z
1/2+x,1/2-y,-z
1/2-x,1/2+y,1/2-z
1/2-x,1/2-y,-z
1/2+x,1/2+y,1/2-z
1/2-x,1/2+y,z
1/2+x,1/2-y,1/2+z
loop_
_atom_site_type_symbol
_atom_site_label
_atom_site_fract_x
_atom_site_fract_y
_atom_site_fract_z
Si Si1 0.181462 0.367847 0.846764
Si Si2 0.816009 0.063643 0.060554
Si Si3 0.183327 0.368058 0.151745
Si Si4 0.184254 0.556938 0.750000
Si Si5 0.183913 0.246491 0.188842
Si Si6 0.183078 0.936165 0.059178
Si Si7 0.681973 0.434385 0.750000
O O1 0.238332 0.394751 0.900000
O O2 0.239424 0.305351 0.838935
O O3 0.253665 0.403543 0.800304
O O4 0.000000 0.370106 0.843360
O O5 0.000000 0.067537 0.065149
O O6 0.772578 0.999689 0.072403
O O7 0.775364 0.074136 0.000642
O O8 0.227204 0.407882 0.199383
O O9 0.230850 0.305379 0.164774
O O10 0.247422 0.393263 0.099199
O O11 0.000000 0.368108 0.149556
O O12 0.262403 0.497530 0.750000
O O13 0.000000 0.550225 0.750000
O O14 0.221022 0.245641 0.250000
O O15 0.000000 0.241654 0.184879
O O16 0.000000 0.933892 0.062114
O O17 0.500000 0.431291 0.750000
#
# Coordination Sequence:
#
# PCOD9472649 Si02
#       7
#    16  16  16   8  16  16   8
#     4  12  24  37  56  85 113 141 186 239 282 324
#     4   9  19  38  60  82 113 152 188 226 278 339
#     4  10  20  35  57  84 114 147 186 230 280 334
#     4  10  20  35  54  83 117 144 178 230 279 328
#     4  10  20  38  60  79 107 154 194 223 277 343
#     4   9  19  36  59  85 113 148 190 231 275 331
#     4  12  24  37  54  79 113 152 184 218 275 342
#
# _framework density 17.507344
#
# number of rings (size 3 to 8) (size 9 to 14) (size 15 to 20)
#    0.000    1.833    1.667    4.250    0.000    5.333 
#    0.000    2.500    0.000    0.000    0.000    0.000 
#    0.000    0.000    0.000    0.000    0.000    0.000 
#
# Total GULP energy -268121.953261 kJ/mol
# GULP energy per Si atom -5585.874026 kJ/mol
# Density = 1.746750 g / cm^3
# Si number density = 17.507344 Si / 1000 Ang^3
#
#
#
# Elastic Constant Matrix: (Units=GPa)
#
#
# Indices 1 2 3 4 5 6 
#
# 1 51.9698 58.4688 46.0520 0.0000 0.0000 0.0000
# 2 58.4688 175.4747 99.9912 0.0000 0.0000 0.0000
# 3 46.0520 99.9912 121.4127 0.0000 0.0000 0.0000
# 4 0.0000 0.0000 0.0000 6.0374 0.0000 0.0000
# 5 0.0000 0.0000 0.0000 0.0000 21.4741 0.0000
# 6 0.0000 0.0000 0.0000 0.0000 0.0000 30.0988
#
#
#
# Elastic Compliance Matrix: (Units=1/GPa)
#
#
# Indices 1 2 3 4 5 6 
#
# 1 0.033366 -0.007360 -0.006594 0.000000 0.000000 0.000000
# 2 -0.007360 0.012362 -0.007389 0.000000 0.000000 0.000000
# 3 -0.006594 -0.007389 0.016823 0.000000 0.000000 0.000000
# 4 0.000000 0.000000 0.000000 0.165633 0.000000 0.000000
# 5 0.000000 0.000000 0.000000 0.000000 0.046568 0.000000
# 6 0.000000 0.000000 0.000000 0.000000 0.000000 0.033224
#
#
# Mechanical properties :
#
#
# Convention : Reuss Voigt Hill
#
# Bulk Modulus (GPa) = 50.34280 84.20902 67.27591
# Shear Modulus (GPa) = 13.99452 21.14509 17.56980
#
# Velocity S-wave (km/s) = 2.83035 3.47909 3.17135
# Velocity P-wave (km/s) = 6.28481 8.02137 7.20560
#
# Compressibility (1/GPa) = 0.01986381
#
# Stress axis : x y z
#
# Youngs Moduli (GPa) = 29.97101 80.89517 59.44282
#
# Poissons Ratio (x) = 0.59538 0.39198
# Poissons Ratio (y) = 0.22058 0.43922
# Poissons Ratio (z) = 0.19764 0.59773
#
# Static dielectric constant tensor:
#      x y z
#    x 1.587090 0.000000 0.000000 
#    y 0.000000 1.576130 0.000000 
#    z 0.000000 0.000000 1.575730 
# 
# From -- ./inp_files/60050.got.cif
#   From: 2010.05.17/outbox.cif.g08.bks.cpg/sg63_31_cif.got.tgz:60050.got - 2010.06.03 15:47:04.
