data_PCOD9472354
_publ_section_title
;
Structure prediction by ZEFSAII (Michael W. Deem and Ramdas Pophale) SiO2 
 PCOD9472354
Probable space group: C M C M
;
_chemical_formula_sum "Si O2"
_cell_formula_units_Z 96
_cell_length_a 17.730856
_cell_length_b 30.686158
_cell_length_c 8.410297
_cell_angle_alpha 90.000000
_cell_angle_beta 90.000000
_cell_angle_gamma 90.000000
_cell_volume 4575.974043
_symmetry_space_group_name_H-M "C M C M"
_symmetry_group_IT_number 63
_symmetry_cell_setting 'orthorhombic'
loop_
_space_group_symop_operation_xyz
x,y,z
-x,-y,1/2+z
x,-y,-z
-x,y,1/2-z
-x,-y,-z
x,y,1/2-z
-x,y,z
x,-y,1/2+z
1/2+x,1/2+y,z
1/2-x,1/2-y,1/2+z
1/2+x,1/2-y,-z
1/2-x,1/2+y,1/2-z
1/2-x,1/2-y,-z
1/2+x,1/2+y,1/2-z
1/2-x,1/2+y,z
1/2+x,1/2-y,1/2+z
loop_
_atom_site_type_symbol
_atom_site_label
_atom_site_fract_x
_atom_site_fract_y
_atom_site_fract_z
Si Si1 0.589462 0.716494 0.927394
Si Si2 0.813111 0.282390 0.070759
Si Si3 0.135661 0.452993 0.440951
Si Si4 0.088653 0.874107 0.561948
Si Si5 0.584312 0.141920 0.555145
Si Si6 0.811895 0.952876 0.059405
O O1 0.613612 0.730192 0.750000
O O2 0.500000 0.713321 0.928027
O O3 0.614778 0.750950 0.057049
O O4 0.618234 0.668417 0.969630
O O5 0.790373 0.292177 0.250000
O O6 0.846405 0.327323 0.998489
O O7 0.750000 0.250000 0.000000
O O8 0.107212 0.500000 0.500000
O O9 0.132039 0.453995 0.250000
O O10 0.095527 0.408449 0.493092
O O11 0.223872 0.448944 0.487924
O O12 0.093027 0.865541 0.750000
O O13 0.137909 0.915315 0.515573
O O14 0.000000 0.881155 0.522267
O O15 0.586336 0.143545 0.750000
O O16 0.500000 0.156625 0.506032
O O17 0.816057 0.950419 0.250000
O O18 0.838349 0.000000 0.000000
#
# Coordination Sequence:
#
# PCOD9472354 Si02
#       6
#    16  16  16  16  16  16
#     4  10  21  38  59  82 113 152 192 238 291 349
#     4  11  23  38  59  88 119 156 199 245 295 351
#     4   9  19  36  58  86 116 151 192 238 290 349
#     4  10  21  36  55  81 111 146 192 242 293 353
#     4   9  19  37  61  87 118 156 195 237 291 355
#     4  10  20  34  54  78 110 150 191 241 296 353
#
# _framework density 20.979140999999998
#
# number of rings (size 3 to 8) (size 9 to 14) (size 15 to 20)
#    0.000    2.167    0.000    2.500    2.333    4.000 
#    0.000    1.667    0.000    2.000    0.000    0.000 
#    0.000    0.000    0.000    0.000    0.000    0.000 
#
# Total GULP energy -267759.999722 kJ/mol
# GULP energy per Si atom -5578.333328 kJ/mol
# Density = 2.093139 g / cm^3
# Si number density = 20.979141 Si / 1000 Ang^3
#
#
#
# Elastic Constant Matrix: (Units=GPa)
#
#
# Indices 1 2 3 4 5 6 
#
# 1 52.0379 36.2707 10.5274 0.0000 0.0000 0.0000
# 2 36.2707 116.9582 -2.1947 0.0000 0.0000 0.0000
# 3 10.5274 -2.1947 17.0776 0.0000 0.0000 0.0000
# 4 0.0000 0.0000 0.0000 29.2854 0.0000 0.0000
# 5 0.0000 0.0000 0.0000 0.0000 10.3482 0.0000
# 6 0.0000 0.0000 0.0000 0.0000 0.0000 37.9645
#
#
#
# Elastic Compliance Matrix: (Units=1/GPa)
#
#
# Indices 1 2 3 4 5 6 
#
# 1 0.029926 -0.009650 -0.019688 0.000000 0.000000 0.000000
# 2 -0.009650 0.011682 0.007450 0.000000 0.000000 0.000000
# 3 -0.019688 0.007450 0.071650 0.000000 0.000000 0.000000
# 4 0.000000 0.000000 0.000000 0.034147 0.000000 0.000000
# 5 0.000000 0.000000 0.000000 0.000000 0.096635 0.000000
# 6 0.000000 0.000000 0.000000 0.000000 0.000000 0.026340
#
#
# Mechanical properties :
#
#
# Convention : Reuss Voigt Hill
#
# Bulk Modulus (GPa) = 14.39201 30.58673 22.48937
# Shear Modulus (GPa) = 14.82287 24.95096 19.88692
#
# Velocity S-wave (km/s) = 2.66099 3.45240 3.08220
# Velocity P-wave (km/s) = 4.03933 5.52298 4.83836
#
# Compressibility (1/GPa) = 0.06948299
#
# Stress axis : x y z
#
# Youngs Moduli (GPa) = 33.41617 85.59849 13.95674
#
# Poissons Ratio (x) = 0.82601 0.27477
# Poissons Ratio (y) = 0.32246 -0.10398
# Poissons Ratio (z) = 0.65788 -0.63770
#
# Static dielectric constant tensor:
#      x y z
#    x 1.787640 0.000000 0.000000 
#    y 0.000000 1.748250 0.000000 
#    z 0.000000 0.000000 1.768390 
# 
# From -- ./inp_files/8637.got.cif
#   From: 2010.05.17/outbox.cif.g08.bks.cpg/sg63_5_cif.got.tgz:8637.got - 2010.06.03 15:47:04.
