data_PCOD9472508
_publ_section_title
;
Structure prediction by ZEFSAII (Michael W. Deem and Ramdas Pophale) SiO2 
 PCOD9472508
Probable space group: C M C M
;
_chemical_formula_sum "Si O2"
_cell_formula_units_Z 56
_cell_length_a 23.309201
_cell_length_b 14.573942
_cell_length_c 8.737022
_cell_angle_alpha 90.000000
_cell_angle_beta 90.000000
_cell_angle_gamma 90.000000
_cell_volume 2968.027038
_symmetry_space_group_name_H-M "C M C M"
_symmetry_group_IT_number 63
_symmetry_cell_setting 'orthorhombic'
loop_
_space_group_symop_operation_xyz
x,y,z
-x,-y,1/2+z
x,-y,-z
-x,y,1/2-z
-x,-y,-z
x,y,1/2-z
-x,y,z
x,-y,1/2+z
1/2+x,1/2+y,z
1/2-x,1/2-y,1/2+z
1/2+x,1/2-y,-z
1/2-x,1/2+y,1/2-z
1/2-x,1/2-y,-z
1/2+x,1/2+y,1/2-z
1/2-x,1/2+y,z
1/2+x,1/2-y,1/2+z
loop_
_atom_site_type_symbol
_atom_site_label
_atom_site_fract_x
_atom_site_fract_y
_atom_site_fract_z
Si Si1 0.735618 0.150389 0.066310
Si Si2 0.611082 0.799216 0.934509
Si Si3 0.351888 0.407216 0.067254
Si Si4 0.500000 0.897597 0.432029
O O1 0.741549 0.146999 0.250000
O O2 0.668269 0.140858 0.028936
O O3 0.750000 0.250000 0.000000
O O4 0.785863 0.093341 0.988812
O O5 0.604991 0.799915 0.750000
O O6 0.621724 0.692034 0.979594
O O7 0.555934 0.843021 0.010931
O O8 0.353327 0.410815 0.250000
O O9 0.379419 0.500000 0.000000
O O10 0.500000 0.903450 0.250000
O O11 0.500000 0.000000 0.500000
#
# Coordination Sequence:
#
# PCOD9472508 Si02
#       4
#    16  16  16   8
#     4   9  17  31  53  80 111 147 183 224 273 324
#     4   9  20  39  59  81 113 149 187 233 281 327
#     4  10  20  34  56  86 119 154 187 227 277 332
#     4  12  26  42  63  84 105 140 185 234 284 334
#
# _framework density 18.867751999999999
#
# number of rings (size 3 to 8) (size 9 to 14) (size 15 to 20)
#    0.000    2.286    0.000    4.714    0.000    8.000 
#    0.000    0.714    0.000    0.000    0.000    0.000 
#    0.000    0.000    0.000    0.000    0.000    0.000 
#
# Total GULP energy -156020.656965 kJ/mol
# GULP energy per Si atom -5572.166320 kJ/mol
# Density = 1.882481 g / cm^3
# Si number density = 18.867752 Si / 1000 Ang^3
#
#
#
# Elastic Constant Matrix: (Units=GPa)
#
#
# Indices 1 2 3 4 5 6 
#
# 1 133.6618 61.0038 50.0189 0.0000 0.0000 0.0000
# 2 61.0038 144.1436 40.0944 0.0000 0.0000 0.0000
# 3 50.0189 40.0944 53.1583 0.0000 0.0000 0.0000
# 4 0.0000 0.0000 0.0000 31.4007 0.0000 0.0000
# 5 0.0000 0.0000 0.0000 0.0000 32.9385 0.0000
# 6 0.0000 0.0000 0.0000 0.0000 0.0000 18.4761
#
#
#
# Elastic Compliance Matrix: (Units=1/GPa)
#
#
# Indices 1 2 3 4 5 6 
#
# 1 0.012219 -0.002497 -0.009614 0.000000 0.000000 0.000000
# 2 -0.002497 0.009290 -0.004657 0.000000 0.000000 0.000000
# 3 -0.009614 -0.004657 0.031370 0.000000 0.000000 0.000000
# 4 0.000000 0.000000 0.000000 0.031846 0.000000 0.000000
# 5 0.000000 0.000000 0.000000 0.000000 0.030360 0.000000
# 6 0.000000 0.000000 0.000000 0.000000 0.000000 0.054124
#
#
# Mechanical properties :
#
#
# Convention : Reuss Voigt Hill
#
# Bulk Modulus (GPa) = 51.69849 70.35532 61.02690
# Shear Modulus (GPa) = 23.90135 28.55284 26.22709
#
# Velocity S-wave (km/s) = 3.56305 3.89435 3.73238
# Velocity P-wave (km/s) = 6.66236 7.58887 7.14066
#
# Compressibility (1/GPa) = 0.01934293
#
# Stress axis : x y z
#
# Youngs Moduli (GPa) = 81.84004 107.64565 31.87709
#
# Poissons Ratio (x) = 0.26880 0.30646
# Poissons Ratio (y) = 0.20436 0.14846
# Poissons Ratio (z) = 0.78680 0.50132
#
# Static dielectric constant tensor:
#      x y z
#    x 1.658600 0.000000 0.000000 
#    y 0.000000 1.665930 0.000000 
#    z 0.000000 0.000000 1.630120 
# 
# From -- ./inp_files/7300.got.cif
#   From: 2010.05.17/outbox.cif.g08.bks.cpg/sg63_4_cif.got.tgz:7300.got - 2010.06.03 15:47:04.
