data_PCOD9472023
_publ_section_title
;
Structure prediction by ZEFSAII (Michael W. Deem and Ramdas Pophale) SiO2 
 PCOD9472023
Probable space group: C M C M
;
_chemical_formula_sum "Si O2"
_cell_formula_units_Z 96
_cell_length_a 7.229137
_cell_length_b 23.716176
_cell_length_c 21.729435
_cell_angle_alpha 90.000000
_cell_angle_beta 90.000000
_cell_angle_gamma 90.000000
_cell_volume 3725.456990
_symmetry_space_group_name_H-M "C M C M"
_symmetry_group_IT_number 63
_symmetry_cell_setting 'orthorhombic'
loop_
_space_group_symop_operation_xyz
x,y,z
-x,-y,1/2+z
x,-y,-z
-x,y,1/2-z
-x,-y,-z
x,y,1/2-z
-x,y,z
x,-y,1/2+z
1/2+x,1/2+y,z
1/2-x,1/2-y,1/2+z
1/2+x,1/2-y,-z
1/2-x,1/2+y,1/2-z
1/2-x,1/2-y,-z
1/2+x,1/2+y,1/2-z
1/2-x,1/2+y,z
1/2+x,1/2-y,1/2+z
loop_
_atom_site_type_symbol
_atom_site_label
_atom_site_fract_x
_atom_site_fract_y
_atom_site_fract_z
Si Si1 0.781015 0.267490 0.930751
Si Si2 0.724240 0.351887 0.250000
Si Si3 0.776779 0.277690 0.750000
Si Si4 0.726703 0.351768 0.115882
Si Si5 0.775889 0.511470 0.319913
Si Si6 0.223119 0.636394 0.143960
Si Si7 0.711285 0.544815 0.548777
O O1 0.713368 0.212841 0.892749
O O2 0.714596 0.331216 0.917495
O O3 0.000000 0.269224 0.917840
O O4 0.750000 0.250000 0.000000
O O5 0.500000 0.354810 0.250000
O O6 0.782539 0.286345 0.250000
O O7 0.784649 0.374029 0.183518
O O8 0.724991 0.315297 0.692284
O O9 0.000000 0.274856 0.750000
O O10 0.500000 0.352234 0.114978
O O11 0.791255 0.393090 0.061546
O O12 0.716855 0.494813 0.250000
O O13 0.713237 0.575915 0.333349
O O14 0.712400 0.480116 0.381842
O O15 0.000000 0.509248 0.319678
O O16 0.000000 0.629845 0.142871
O O17 0.793083 0.500000 0.500000
O O18 0.500000 0.553084 0.527949
#
# Coordination Sequence:
#
# PCOD9472023 Si02
#       7
#    16   8   8  16  16  16  16
#     4  10  20  33  52  79 108 138 174 217 268 325
#     4   9  14  24  47  76 100 126 168 221 270 313
#     4   9  12  22  45  74 102 124 154 205 264 313
#     4   9  18  32  51  76 105 136 175 224 272 317
#     4  10  21  37  58  84 112 143 184 235 285 333
#     4   9  16  29  50  77 106 133 165 212 270 325
#     4  10  23  40  56  77 110 153 194 231 273 326
#
# _framework density 25.768650999999998
#
# number of rings (size 3 to 8) (size 9 to 14) (size 15 to 20)
#    0.000    2.500    2.500    0.000    3.500    0.667 
#    0.000    0.833    0.000    0.000    0.000    1.167 
#    0.000    0.000    0.000    0.000    0.000    0.000 
#
# Total GULP energy -267965.036703 kJ/mol
# GULP energy per Si atom -5582.604931 kJ/mol
# Density = 2.571000 g / cm^3
# Si number density = 25.768651 Si / 1000 Ang^3
#
#
#
# Elastic Constant Matrix: (Units=GPa)
#
#
# Indices 1 2 3 4 5 6 
#
# 1 125.7748 -5.3039 -15.3648 0.0000 0.0000 0.0000
# 2 -5.3039 75.8607 15.8169 0.0000 0.0000 0.0000
# 3 -15.3648 15.8169 111.4535 0.0000 0.0000 0.0000
# 4 0.0000 0.0000 0.0000 47.8705 0.0000 0.0000
# 5 0.0000 0.0000 0.0000 0.0000 10.9517 0.0000
# 6 0.0000 0.0000 0.0000 0.0000 0.0000 -8.7867
#
#
#
# Elastic Compliance Matrix: (Units=1/GPa)
#
#
# Indices 1 2 3 4 5 6 
#
# 1 0.008096 0.000343 0.001067 0.000000 0.000000 0.000000
# 2 0.000343 0.013599 -0.001882 0.000000 0.000000 0.000000
# 3 0.001067 -0.001882 0.009387 0.000000 0.000000 0.000000
# 4 0.000000 0.000000 0.000000 0.020890 0.000000 0.000000
# 5 0.000000 0.000000 0.000000 0.000000 0.091310 0.000000
# 6 0.000000 0.000000 0.000000 0.000000 0.000000 -0.113809
#
#
# Mechanical properties :
#
#
# Convention : Reuss Voigt Hill
#
# Bulk Modulus (GPa) = 33.18139 33.70949 33.44544
# Shear Modulus (GPa) = 123.57666 31.20317 77.38992
#
# Velocity S-wave (km/s) = 6.93255 3.48357 5.48614
# Velocity P-wave (km/s) = 8.77411 5.41205 7.28956
#
# Compressibility (1/GPa) = 0.03013738
#
# Stress axis : x y z
#
# Youngs Moduli (GPa) = 123.52416 73.53720 106.53440
#
# Poissons Ratio (x) = -0.02526 -0.11370
# Poissons Ratio (y) = -0.04243 0.20055
# Poissons Ratio (z) = -0.13184 0.13843
#
# Static dielectric constant tensor:
#      x y z
#    x 2.018770 0.000000 0.000000 
#    y 0.000000 1.997800 0.000000 
#    z 0.000000 0.000000 2.099290 
# 
# From -- ./inp_files/42529.got.cif
#   From: 2010.05.17/outbox.cif.g08.bks.cpg/sg63_22_cif.got.tgz:42529.got - 2010.06.03 15:47:04.
