data_PCOD9472288
_publ_section_title
;
Structure prediction by ZEFSAII (Michael W. Deem and Ramdas Pophale) SiO2 
 PCOD9472288
Probable space group: C M C M
;
_chemical_formula_sum "Si O2"
_cell_formula_units_Z 80
_cell_length_a 8.903386
_cell_length_b 19.124281
_cell_length_c 26.405104
_cell_angle_alpha 90.000000
_cell_angle_beta 90.000000
_cell_angle_gamma 90.000000
_cell_volume 4496.019653
_symmetry_space_group_name_H-M "C M C M"
_symmetry_group_IT_number 63
_symmetry_cell_setting 'orthorhombic'
loop_
_space_group_symop_operation_xyz
x,y,z
-x,-y,1/2+z
x,-y,-z
-x,y,1/2-z
-x,-y,-z
x,y,1/2-z
-x,y,z
x,-y,1/2+z
1/2+x,1/2+y,z
1/2-x,1/2-y,1/2+z
1/2+x,1/2-y,-z
1/2-x,1/2+y,1/2-z
1/2-x,1/2-y,-z
1/2+x,1/2+y,1/2-z
1/2-x,1/2+y,z
1/2+x,1/2-y,1/2+z
loop_
_atom_site_type_symbol
_atom_site_label
_atom_site_fract_x
_atom_site_fract_y
_atom_site_fract_z
Si Si1 0.682831 0.298007 0.750000
Si Si2 0.319360 0.539831 0.250000
Si Si3 0.179547 0.543874 0.843132
Si Si4 0.678185 0.291517 0.046178
Si Si5 0.320451 0.456688 0.049426
Si Si6 0.180836 0.291977 0.153481
O O1 0.500000 0.296336 0.750000
O O2 0.727921 0.378818 0.750000
O O3 0.731207 0.256371 0.800138
O O4 0.500000 0.536875 0.250000
O O5 0.256369 0.501040 0.200541
O O6 0.237258 0.522936 0.898871
O O7 0.217867 0.626397 0.836536
O O8 0.000000 0.537206 0.839963
O O9 0.500000 0.281032 0.046741
O O10 0.707815 0.374484 0.040417
O O11 0.747391 0.270577 0.100222
O O12 0.750000 0.250000 0.000000
O O13 0.500000 0.466133 0.056599
O O14 0.274267 0.500000 0.000000
O O15 0.000000 0.287606 0.149211
#
# Coordination Sequence:
#
# PCOD9472288 Si02
#       6
#     8   8  16  16  16  16
#     4   9  19  35  55  77 100 133 174 210 250 303
#     4  11  22  35  53  77 106 137 170 210 256 309
#     4  10  20  35  56  79 104 135 172 216 262 306
#     4  10  20  34  53  78 106 136 172 213 257 304
#     4   9  19  36  56  77 103 138 178 214 251 304
#     4   9  18  36  58  76  99 135 177 214 251 302
#
# _framework density 17.793517000000001
#
# number of rings (size 3 to 8) (size 9 to 14) (size 15 to 20)
#    0.000    2.400    0.000    2.100    0.000    5.200 
#    0.000   10.500    0.000    0.000    0.000    0.000 
#    0.000    0.000    0.000    0.000    0.000    0.000 
#
# Total GULP energy -223274.405211 kJ/mol
# GULP energy per Si atom -5581.860130 kJ/mol
# Density = 1.775302 g / cm^3
# Si number density = 17.793517 Si / 1000 Ang^3
#
#
#
# Elastic Constant Matrix: (Units=GPa)
#
#
# Indices 1 2 3 4 5 6 
#
# 1 38.5898 47.4579 67.7888 0.0000 0.0000 0.0000
# 2 47.4579 92.3880 114.9811 0.0000 0.0000 0.0000
# 3 67.7888 114.9811 215.5726 0.0000 0.0000 0.0000
# 4 0.0000 0.0000 0.0000 39.8123 0.0000 0.0000
# 5 0.0000 0.0000 0.0000 0.0000 37.0848 0.0000
# 6 0.0000 0.0000 0.0000 0.0000 0.0000 23.6685
#
#
#
# Elastic Compliance Matrix: (Units=1/GPa)
#
#
# Indices 1 2 3 4 5 6 
#
# 1 0.075981 -0.027645 -0.009148 0.000000 0.000000 0.000000
# 2 -0.027645 0.042254 -0.013844 0.000000 0.000000 0.000000
# 3 -0.009148 -0.013844 0.014900 0.000000 0.000000 0.000000
# 4 0.000000 0.000000 0.000000 0.025118 0.000000 0.000000
# 5 0.000000 0.000000 0.000000 0.000000 0.026965 0.000000
# 6 0.000000 0.000000 0.000000 0.000000 0.000000 0.042250
#
#
# Mechanical properties :
#
#
# Convention : Reuss Voigt Hill
#
# Bulk Modulus (GPa) = 31.38650 89.66731 60.52691
# Shear Modulus (GPa) = 14.73349 27.86796 21.30072
#
# Velocity S-wave (km/s) = 2.88067 3.96180 3.46368
# Velocity P-wave (km/s) = 5.36115 8.45165 7.07716
#
# Compressibility (1/GPa) = 0.03186083
#
# Stress axis : x y z
#
# Youngs Moduli (GPa) = 13.16117 23.66612 67.11633
#
# Poissons Ratio (x) = 0.65426 0.61395
# Poissons Ratio (y) = 0.36385 0.92917
# Poissons Ratio (z) = 0.12039 0.32764
#
# Static dielectric constant tensor:
#      x y z
#    x 1.595510 0.000000 0.000000 
#    y 0.000000 1.596470 0.000000 
#    z 0.000000 0.000000 1.576210 
# 
# From -- ./inp_files/66649.got.cif
#   From: 2010.05.17/outbox.cif.g08.bks.cpg/sg63_34_cif.got.tgz:66649.got - 2010.06.03 15:47:04.
