data_PCOD9472424
_publ_section_title
;
Structure prediction by ZEFSAII (Michael W. Deem and Ramdas Pophale) SiO2 
 PCOD9472424
Probable space group: C M C M
;
_chemical_formula_sum "Si O2"
_cell_formula_units_Z 116
_cell_length_a 26.429304
_cell_length_b 26.758037
_cell_length_c 7.772020
_cell_angle_alpha 90.000000
_cell_angle_beta 90.000000
_cell_angle_gamma 90.000000
_cell_volume 5496.343743
_symmetry_space_group_name_H-M "C M C M"
_symmetry_group_IT_number 63
_symmetry_cell_setting 'orthorhombic'
loop_
_space_group_symop_operation_xyz
x,y,z
-x,-y,1/2+z
x,-y,-z
-x,y,1/2-z
-x,-y,-z
x,y,1/2-z
-x,y,z
x,-y,1/2+z
1/2+x,1/2+y,z
1/2-x,1/2-y,1/2+z
1/2+x,1/2-y,-z
1/2-x,1/2+y,1/2-z
1/2-x,1/2-y,-z
1/2+x,1/2+y,1/2-z
1/2-x,1/2+y,z
1/2+x,1/2-y,1/2+z
loop_
_atom_site_type_symbol
_atom_site_label
_atom_site_fract_x
_atom_site_fract_y
_atom_site_fract_z
Si Si1 0.554360 0.094149 0.939859
Si Si2 0.802011 0.945192 0.544865
Si Si3 0.846948 0.783435 0.038684
Si Si4 0.080433 0.054509 0.045287
Si Si5 0.361578 0.170595 0.447499
Si Si6 0.250183 0.655897 0.551190
Si Si7 0.000000 0.450522 0.750000
Si Si8 0.553572 0.337978 0.450617
O O1 0.557219 0.069981 0.750000
O O2 0.500000 0.123522 0.943794
O O3 0.600984 0.131454 0.963328
O O4 0.543914 0.056451 0.096545
O O5 0.800380 0.938488 0.750000
O O6 0.860719 0.944723 0.488825
O O7 0.774301 0.898971 0.459211
O O8 0.781260 0.000000 0.500000
O O9 0.844558 0.784470 0.250000
O O10 0.859667 0.727239 0.983929
O O11 0.792846 0.805648 0.981996
O O12 0.893653 0.817518 0.977829
O O13 0.078051 0.060676 0.250000
O O14 0.055190 0.102340 0.962564
O O15 0.059959 0.000000 0.000000
O O16 0.379042 0.172845 0.250000
O O17 0.303002 0.154962 0.455495
O O18 0.239803 0.668782 0.750000
O O19 0.553489 0.323340 0.250000
O O20 0.500000 0.320433 0.527395
#
# Coordination Sequence:
#
# PCOD9472424 Si02
#       8
#    16  16  16  16  16  16   4  16
#     4   9  17  31  51  77 105 139 182 224 268 320
#     4  10  20  35  56  81 104 138 174 219 277 339
#     4   9  20  35  52  72 102 143 186 227 279 336
#     4  10  20  34  55  77 100 131 171 222 281 340
#     4  11  20  34  53  78 109 148 189 230 279 330
#     4  11  21  35  54  79 108 141 180 228 274 334
#     4   8  14  32  52  74 104 144 172 224 278 306
#     4  10  20  36  55  76 101 135 180 229 281 338
#
# _framework density 21.104939000000002
#
# number of rings (size 3 to 8) (size 9 to 14) (size 15 to 20)
#    0.414    1.655    2.069    2.069    0.000    2.207 
#    0.000    4.828    0.000    0.000    0.000    0.000 
#    0.000    0.552    0.000    3.310    0.000    6.483 
#
# Total GULP energy -322952.485007 kJ/mol
# GULP energy per Si atom -5568.146293 kJ/mol
# Density = 2.105690 g / cm^3
# Si number density = 21.104939 Si / 1000 Ang^3
#
#
#
# Elastic Constant Matrix: (Units=GPa)
#
#
# Indices 1 2 3 4 5 6 
#
# 1 102.6602 15.1018 4.9917 0.0000 0.0000 0.0000
# 2 15.1018 47.1419 1.2947 0.0000 0.0000 0.0000
# 3 4.9917 1.2947 77.2029 0.0000 0.0000 0.0000
# 4 0.0000 0.0000 0.0000 14.6140 0.0000 0.0000
# 5 0.0000 0.0000 0.0000 0.0000 -2.9301 0.0000
# 6 0.0000 0.0000 0.0000 0.0000 0.0000 -33.1298
#
#
#
# Elastic Compliance Matrix: (Units=1/GPa)
#
#
# Indices 1 2 3 4 5 6 
#
# 1 0.010251 -0.003267 -0.000608 0.000000 0.000000 0.000000
# 2 -0.003267 0.022264 -0.000162 0.000000 0.000000 0.000000
# 3 -0.000608 -0.000162 0.012995 0.000000 0.000000 0.000000
# 4 0.000000 0.000000 0.000000 0.068427 0.000000 0.000000
# 5 0.000000 0.000000 0.000000 0.000000 -0.341284 0.000000
# 6 0.000000 0.000000 0.000000 0.000000 0.000000 -0.030184
#
#
# Mechanical properties :
#
#
# Convention : Reuss Voigt Hill
#
# Bulk Modulus (GPa) = 26.71302 29.97573 28.34437
# Shear Modulus (GPa) = -21.09897 9.41861 -5.84018
#
# Velocity S-wave (km/s) = -3.16526 2.11481 -1.66530
# Velocity P-wave (km/s) = 0.82084 4.49414 3.12438
#
# Compressibility (1/GPa) = 0.03743493
#
# Stress axis : x y z
#
# Youngs Moduli (GPa) = 97.55093 44.91626 76.95320
#
# Poissons Ratio (x) = 0.14675 0.04679
# Poissons Ratio (y) = 0.31872 0.01248
# Poissons Ratio (z) = 0.05931 0.00728
#
# Static dielectric constant tensor:
#      x y z
#    x 1.776200 0.000000 0.000000 
#    y 0.000000 1.759250 0.000000 
#    z 0.000000 0.000000 1.870700 
# 
# From -- ./inp_files/11212.got.cif
#   From: 2010.05.17/outbox.cif.g08.bks.cpg/sg63_6_cif.got.tgz:11212.got - 2010.06.03 15:47:04.
