data_PCOD9472683
_publ_section_title
;
Structure prediction by ZEFSAII (Michael W. Deem and Ramdas Pophale) SiO2 
 PCOD9472683
Probable space group: C M C M
;
_chemical_formula_sum "Si O2"
_cell_formula_units_Z 112
_cell_length_a 13.705363
_cell_length_b 14.966402
_cell_length_c 31.743592
_cell_angle_alpha 90.000000
_cell_angle_beta 90.000000
_cell_angle_gamma 90.000000
_cell_volume 6511.244709
_symmetry_space_group_name_H-M "C M C M"
_symmetry_group_IT_number 63
_symmetry_cell_setting 'orthorhombic'
loop_
_space_group_symop_operation_xyz
x,y,z
-x,-y,1/2+z
x,-y,-z
-x,y,1/2-z
-x,-y,-z
x,y,1/2-z
-x,y,z
x,-y,1/2+z
1/2+x,1/2+y,z
1/2-x,1/2-y,1/2+z
1/2+x,1/2-y,-z
1/2-x,1/2+y,1/2-z
1/2-x,1/2-y,-z
1/2+x,1/2+y,1/2-z
1/2-x,1/2+y,z
1/2+x,1/2-y,1/2+z
loop_
_atom_site_type_symbol
_atom_site_label
_atom_site_fract_x
_atom_site_fract_y
_atom_site_fract_z
Si Si1 0.884815 0.197327 0.829709
Si Si2 0.885550 0.605960 0.298187
Si Si3 0.262634 0.550552 0.369852
Si Si4 0.115395 0.010030 0.705353
Si Si5 0.255307 0.355218 0.091252
Si Si6 0.115511 0.804721 0.578006
Si Si7 0.612852 0.602971 0.987808
O O1 0.871829 0.287935 0.804201
O O2 0.857699 0.113458 0.800740
O O3 0.820064 0.189858 0.871635
O O4 0.000000 0.189633 0.840793
O O5 0.859164 0.580364 0.250000
O O6 0.827171 0.567772 0.338106
O O7 0.000000 0.585707 0.302910
O O8 0.348360 0.536636 0.336134
O O9 0.241801 0.458643 0.394728
O O10 0.307037 0.628532 0.399011
O O11 0.152613 0.974949 0.750000
O O12 0.000000 0.004706 0.706307
O O13 0.159270 0.294568 0.084817
O O14 0.317340 0.360252 0.048388
O O15 0.117968 0.836177 0.529391
O O16 0.000000 0.812192 0.591147
O O17 0.500000 0.601430 0.972720
O O18 0.637258 0.500000 0.000000
#
# Coordination Sequence:
#
# PCOD9472683 Si02
#       7
#    16  16  16  16  16  16  16
#     4   9  17  30  52  81 106 134 180 236 289 334
#     4  10  20  35  55  79 110 147 189 237 286 337
#     4  11  21  35  56  81 109 151 194 232 277 345
#     4   9  17  29  48  76 106 135 175 231 285 332
#     4  11  21  36  59  85 114 151 190 234 287 346
#     4  11  23  39  58  85 119 155 190 235 292 344
#     4  10  20  36  61  89 116 147 191 242 291 346
#
# _framework density 17.201011999999999
#
# number of rings (size 3 to 8) (size 9 to 14) (size 15 to 20)
#    0.000    1.857    2.857    2.143    0.000    3.429 
#    0.000    0.000    0.000    0.429    0.000    0.000 
#    0.000    0.000    0.000    0.000    0.000    0.000 
#
# Total GULP energy -311786.306900 kJ/mol
# GULP energy per Si atom -5567.612623 kJ/mol
# Density = 1.716186 g / cm^3
# Si number density = 17.201012 Si / 1000 Ang^3
#
#
#
# Elastic Constant Matrix: (Units=GPa)
#
#
# Indices 1 2 3 4 5 6 
#
# 1 77.6602 33.1288 49.5752 0.0000 0.0000 0.0000
# 2 33.1288 55.9645 28.7671 0.0000 0.0000 0.0000
# 3 49.5752 28.7671 85.3544 0.0000 0.0000 0.0000
# 4 0.0000 0.0000 0.0000 -0.5208 0.0000 0.0000
# 5 0.0000 0.0000 0.0000 0.0000 31.4633 0.0000
# 6 0.0000 0.0000 0.0000 0.0000 0.0000 25.2918
#
#
#
# Elastic Compliance Matrix: (Units=1/GPa)
#
#
# Indices 1 2 3 4 5 6 
#
# 1 0.023235 -0.008246 -0.010716 0.000000 0.000000 0.000000
# 2 -0.008246 0.024539 -0.003481 0.000000 0.000000 0.000000
# 3 -0.010716 -0.003481 0.019113 0.000000 0.000000 0.000000
# 4 0.000000 0.000000 0.000000 -1.920039 0.000000 0.000000
# 5 0.000000 0.000000 0.000000 0.000000 0.031783 0.000000
# 6 0.000000 0.000000 0.000000 0.000000 0.000000 0.039538
#
#
# Mechanical properties :
#
#
# Convention : Reuss Voigt Hill
#
# Bulk Modulus (GPa) = 45.45238 49.10236 47.27737
# Shear Modulus (GPa) = -2.89082 18.41406 7.76162
#
# Velocity S-wave (km/s) = -1.29779 3.27543 2.12652
# Velocity P-wave (km/s) = 4.92300 6.55079 5.79434
#
# Compressibility (1/GPa) = 0.02200105
#
# Stress axis : x y z
#
# Youngs Moduli (GPa) = 43.03871 40.75142 52.31985
#
# Poissons Ratio (x) = 0.33603 0.56067
# Poissons Ratio (y) = 0.35489 0.18213
# Poissons Ratio (z) = 0.46121 0.14186
#
# Static dielectric constant tensor:
#      x y z
#    x 1.598660 0.000000 0.000000 
#    y 0.000000 1.598340 0.000000 
#    z 0.000000 0.000000 1.752710 
# 
# From -- ./inp_files/69405.got.cif
#   From: 2010.05.17/outbox.cif.g08.bks.cpg/sg63_35_cif.got.tgz:69405.got - 2010.06.03 15:47:04.
