data_PCOD9472653
_publ_section_title
;
Structure prediction by ZEFSAII (Michael W. Deem and Ramdas Pophale) SiO2 
 PCOD9472653
Probable space group: C M C M
;
_chemical_formula_sum "Si O2"
_cell_formula_units_Z 80
_cell_length_a 8.555367
_cell_length_b 28.335039
_cell_length_c 18.635222
_cell_angle_alpha 90.000000
_cell_angle_beta 90.000000
_cell_angle_gamma 90.000000
_cell_volume 4517.488231
_symmetry_space_group_name_H-M "C M C M"
_symmetry_group_IT_number 63
_symmetry_cell_setting 'orthorhombic'
loop_
_space_group_symop_operation_xyz
x,y,z
-x,-y,1/2+z
x,-y,-z
-x,y,1/2-z
-x,-y,-z
x,y,1/2-z
-x,y,z
x,-y,1/2+z
1/2+x,1/2+y,z
1/2-x,1/2-y,1/2+z
1/2+x,1/2-y,-z
1/2-x,1/2+y,1/2-z
1/2-x,1/2-y,-z
1/2+x,1/2+y,1/2-z
1/2-x,1/2+y,z
1/2+x,1/2-y,1/2+z
loop_
_atom_site_type_symbol
_atom_site_label
_atom_site_fract_x
_atom_site_fract_y
_atom_site_fract_z
Si Si1 0.812828 0.147760 0.046740
Si Si2 0.685624 0.194496 0.594865
Si Si3 0.309798 0.550711 0.526378
Si Si4 0.188904 0.898263 0.168906
Si Si5 0.312965 0.210699 0.332915
O O1 0.740991 0.166186 0.120308
O O2 0.000000 0.148517 0.051308
O O3 0.761400 0.182400 0.982062
O O4 0.762198 0.095185 0.022792
O O5 0.500000 0.195480 0.586715
O O6 0.736818 0.151542 0.646566
O O7 0.743856 0.243088 0.628715
O O8 0.252549 0.500000 0.500000
O O9 0.500000 0.549590 0.524547
O O10 0.265072 0.564336 0.607698
O O11 0.230798 0.911328 0.250000
O O12 0.000000 0.892869 0.165216
O O13 0.261931 0.208371 0.250000
O O14 0.500000 0.214084 0.334472
#
# Coordination Sequence:
#
# PCOD9472653 Si02
#       5
#    16  16  16  16  16
#     4  10  20  35  55  77 102 132 169 211 251 297
#     4  11  21  33  52  76 103 134 169 208 251 301
#     4   8  15  30  52  76 100 128 165 210 257 301
#     4   9  17  30  49  74 103 133 167 210 259 305
#     4  11  23  37  52  72 103 140 173 206 247 296
#
# _framework density 17.708956000000001
#
# number of rings (size 3 to 8) (size 9 to 14) (size 15 to 20)
#    0.000    2.200    0.000    5.400    0.000    4.400 
#    0.000    1.000    0.000   18.600    0.000    0.000 
#    0.000    0.000    0.000    0.000    0.000    0.000 
#
# Total GULP energy -223268.885218 kJ/mol
# GULP energy per Si atom -5581.722130 kJ/mol
# Density = 1.766865 g / cm^3
# Si number density = 17.708956 Si / 1000 Ang^3
#
#
#
# Elastic Constant Matrix: (Units=GPa)
#
#
# Indices 1 2 3 4 5 6 
#
# 1 24.4566 4.6853 -3.5558 0.0000 0.0000 0.0000
# 2 4.6853 99.9340 55.7374 0.0000 0.0000 0.0000
# 3 -3.5558 55.7374 69.0520 0.0000 0.0000 0.0000
# 4 0.0000 0.0000 0.0000 15.5983 0.0000 0.0000
# 5 0.0000 0.0000 0.0000 0.0000 24.4749 0.0000
# 6 0.0000 0.0000 0.0000 0.0000 0.0000 15.7301
#
#
#
# Elastic Compliance Matrix: (Units=1/GPa)
#
#
# Indices 1 2 3 4 5 6 
#
# 1 0.043039 -0.005918 0.006994 0.000000 0.000000 0.000000
# 2 -0.005918 0.019014 -0.015653 0.000000 0.000000 0.000000
# 3 0.006994 -0.015653 0.027477 0.000000 0.000000 0.000000
# 4 0.000000 0.000000 0.000000 0.064109 0.000000 0.000000
# 5 0.000000 0.000000 0.000000 0.000000 0.040858 0.000000
# 6 0.000000 0.000000 0.000000 0.000000 0.000000 0.063572
#
#
# Mechanical properties :
#
#
# Convention : Reuss Voigt Hill
#
# Bulk Modulus (GPa) = 16.56316 34.13070 25.34693
# Shear Modulus (GPa) = 16.26809 20.26571 18.26690
#
# Velocity S-wave (km/s) = 3.03419 3.38653 3.21519
# Velocity P-wave (km/s) = 4.65278 5.88272 5.30353
#
# Compressibility (1/GPa) = 0.06037494
#
# Stress axis : x y z
#
# Youngs Moduli (GPa) = 23.23455 52.59208 36.39469
#
# Poissons Ratio (x) = 0.31126 -0.25453
# Poissons Ratio (y) = 0.13751 0.56968
# Poissons Ratio (z) = -0.16249 0.82321
#
# Static dielectric constant tensor:
#      x y z
#    x 1.600450 0.000000 0.000000 
#    y 0.000000 1.588270 0.000000 
#    z 0.000000 0.000000 1.607770 
# 
# From -- ./inp_files/40422.got.cif
#   From: 2010.05.17/outbox.cif.g08.bks.cpg/sg63_21_cif.got.tgz:40422.got - 2010.06.03 15:47:04.
