data_PCOD9472358
_publ_section_title
;
Structure prediction by ZEFSAII (Michael W. Deem and Ramdas Pophale) SiO2 
 PCOD9472358
Probable space group: C M C M
;
_chemical_formula_sum "Si O2"
_cell_formula_units_Z 80
_cell_length_a 8.934474
_cell_length_b 27.893221
_cell_length_c 18.470767
_cell_angle_alpha 90.000000
_cell_angle_beta 90.000000
_cell_angle_gamma 90.000000
_cell_volume 4603.123077
_symmetry_space_group_name_H-M "C M C M"
_symmetry_group_IT_number 63
_symmetry_cell_setting 'orthorhombic'
loop_
_space_group_symop_operation_xyz
x,y,z
-x,-y,1/2+z
x,-y,-z
-x,y,1/2-z
-x,-y,-z
x,y,1/2-z
-x,y,z
x,-y,1/2+z
1/2+x,1/2+y,z
1/2-x,1/2-y,1/2+z
1/2+x,1/2-y,-z
1/2-x,1/2+y,1/2-z
1/2-x,1/2-y,-z
1/2+x,1/2+y,1/2-z
1/2-x,1/2+y,z
1/2+x,1/2-y,1/2+z
loop_
_atom_site_type_symbol
_atom_site_label
_atom_site_fract_x
_atom_site_fract_y
_atom_site_fract_z
Si Si1 0.821485 0.959324 0.834381
Si Si2 0.821342 0.153251 0.666993
Si Si3 0.821931 0.602038 0.453764
Si Si4 0.320781 0.798090 0.031135
Si Si5 0.679227 0.942959 0.392522
O O1 0.782098 0.953048 0.750000
O O2 0.766591 0.915822 0.884323
O O3 0.000000 0.964700 0.839699
O O4 0.743505 0.007053 0.865261
O O5 0.791623 0.166739 0.750000
O O6 0.746952 0.188620 0.609168
O O7 0.753100 0.100794 0.651236
O O8 0.000000 0.151646 0.655941
O O9 0.787152 0.655848 0.480202
O O10 0.788495 0.567858 0.522866
O O11 0.000000 0.598846 0.440200
O O12 0.500000 0.794237 0.036102
O O13 0.250000 0.750000 0.000000
O O14 0.500000 0.941521 0.383767
#
# Coordination Sequence:
#
# PCOD9472358 Si02
#       5
#    16  16  16  16  16
#     4  11  23  35  49  75 109 143 180 218 257 307
#     4  10  20  34  54  82 113 141 174 219 267 315
#     4   9  20  37  55  77 103 134 175 218 260 312
#     4  10  21  38  60  83 107 137 176 221 269 323
#     4  10  20  34  54  79 107 140 178 218 262 315
#
# _framework density 17.379504000000001
#
# number of rings (size 3 to 8) (size 9 to 14) (size 15 to 20)
#    0.000    2.000    0.000    4.800    0.000   12.800 
#    0.000    1.000    0.000    1.200    0.000    0.000 
#    0.000    0.000    0.000    0.000    0.000    0.000 
#
# Total GULP energy -223411.529194 kJ/mol
# GULP energy per Si atom -5585.288230 kJ/mol
# Density = 1.733995 g / cm^3
# Si number density = 17.379504 Si / 1000 Ang^3
#
#
#
# Elastic Constant Matrix: (Units=GPa)
#
#
# Indices 1 2 3 4 5 6 
#
# 1 76.7647 62.6552 77.3378 0.0000 0.0000 0.0000
# 2 62.6552 101.6170 89.3290 0.0000 0.0000 0.0000
# 3 77.3378 89.3290 132.7936 0.0000 0.0000 0.0000
# 4 0.0000 0.0000 0.0000 16.3612 0.0000 0.0000
# 5 0.0000 0.0000 0.0000 0.0000 2.7350 0.0000
# 6 0.0000 0.0000 0.0000 0.0000 0.0000 33.7100
#
#
#
# Elastic Compliance Matrix: (Units=1/GPa)
#
#
# Indices 1 2 3 4 5 6 
#
# 1 0.034480 -0.008827 -0.014143 0.000000 0.000000 0.000000
# 2 -0.008827 0.026341 -0.012579 0.000000 0.000000 0.000000
# 3 -0.014143 -0.012579 0.024229 0.000000 0.000000 0.000000
# 4 0.000000 0.000000 0.000000 0.061120 0.000000 0.000000
# 5 0.000000 0.000000 0.000000 0.000000 0.365631 0.000000
# 6 0.000000 0.000000 0.000000 0.000000 0.000000 0.029665
#
#
# Mechanical properties :
#
#
# Convention : Reuss Voigt Hill
#
# Bulk Modulus (GPa) = 71.67138 85.53547 78.60342
# Shear Modulus (GPa) = 8.10093 16.01813 12.05953
#
# Velocity S-wave (km/s) = 2.16132 3.03919 2.63704
# Velocity P-wave (km/s) = 6.89616 7.85103 7.38904
#
# Compressibility (1/GPa) = 0.01395257
#
# Stress axis : x y z
#
# Youngs Moduli (GPa) = 29.00242 37.96379 41.27331
#
# Poissons Ratio (x) = 0.33510 0.58373
# Poissons Ratio (y) = 0.25600 0.51916
# Poissons Ratio (z) = 0.41018 0.47753
#
# Static dielectric constant tensor:
#      x y z
#    x 1.576010 0.000000 0.000000 
#    y 0.000000 1.565290 0.000000 
#    z 0.000000 0.000000 1.584730 
# 
# From -- ./inp_files/40438.got.cif
#   From: 2010.05.17/outbox.cif.g08.bks.cpg/sg63_21_cif.got.tgz:40438.got - 2010.06.03 15:47:04.
