data_PCOD9472235
_publ_section_title
;
Structure prediction by ZEFSAII (Michael W. Deem and Ramdas Pophale) SiO2 
 PCOD9472235
Probable space group: C M C M
;
_chemical_formula_sum "Si O2"
_cell_formula_units_Z 112
_cell_length_a 14.269524
_cell_length_b 26.964952
_cell_length_c 14.555628
_cell_angle_alpha 90.000000
_cell_angle_beta 90.000000
_cell_angle_gamma 90.000000
_cell_volume 5600.671308
_symmetry_space_group_name_H-M "C M C M"
_symmetry_group_IT_number 63
_symmetry_cell_setting 'orthorhombic'
loop_
_space_group_symop_operation_xyz
x,y,z
-x,-y,1/2+z
x,-y,-z
-x,y,1/2-z
-x,-y,-z
x,y,1/2-z
-x,y,z
x,-y,1/2+z
1/2+x,1/2+y,z
1/2-x,1/2-y,1/2+z
1/2+x,1/2-y,-z
1/2-x,1/2+y,1/2-z
1/2-x,1/2-y,-z
1/2+x,1/2+y,1/2-z
1/2-x,1/2+y,z
1/2+x,1/2-y,1/2+z
loop_
_atom_site_type_symbol
_atom_site_label
_atom_site_fract_x
_atom_site_fract_y
_atom_site_fract_z
Si Si1 0.396298 0.649428 0.973443
Si Si2 0.103320 0.035570 0.911449
Si Si3 0.109253 0.757543 0.145611
Si Si4 0.387687 0.128336 0.641303
Si Si5 0.698391 0.827043 0.531777
Si Si6 0.810164 0.478166 0.145122
Si Si7 0.388513 0.081246 0.359030
O O1 0.500000 0.657831 0.013922
O O2 0.309142 0.663722 0.036007
O O3 0.389714 0.592460 0.943947
O O4 0.388533 0.685390 0.885367
O O5 0.197797 0.024461 0.856831
O O6 0.000000 0.029068 0.867450
O O7 0.105548 0.000000 0.000000
O O8 0.140944 0.751105 0.250000
O O9 0.167952 0.724568 0.075672
O O10 0.000000 0.741546 0.140083
O O11 0.364754 0.134692 0.750000
O O12 0.500000 0.131458 0.631449
O O13 0.336702 0.166490 0.573245
O O14 0.352669 0.073547 0.610209
O O15 0.648320 0.870782 0.588560
O O16 0.845181 0.480186 0.250000
O O17 0.843041 0.530246 0.103476
O O18 0.366436 0.086441 0.250000
O O19 0.500000 0.077498 0.368450
#
# Coordination Sequence:
#
# PCOD9472235 Si02
#       7
#    16  16  16  16  16  16  16
#     4  10  22  39  59  84 117 156 198 248 301 353
#     4  10  20  36  57  83 114 150 196 247 297 351
#     4  10  22  40  63  92 122 153 197 252 301 350
#     4  10  21  35  52  81 121 158 194 240 295 357
#     4  12  21  37  62  88 118 155 204 247 300 359
#     4  10  20  34  52  79 115 156 197 243 296 356
#     4  10  21  36  57  87 122 159 201 248 298 357
#
# _framework density 19.997602000000001
#
# number of rings (size 3 to 8) (size 9 to 14) (size 15 to 20)
#    0.000    1.714    1.429    3.429    0.000    4.286 
#    0.000    2.857    0.000    2.571    0.000    2.000 
#    0.000    0.000    0.000    0.000    0.000    0.000 
#
# Total GULP energy -312743.109048 kJ/mol
# GULP energy per Si atom -5584.698376 kJ/mol
# Density = 1.995209 g / cm^3
# Si number density = 19.997602 Si / 1000 Ang^3
#
#
#
# Elastic Constant Matrix: (Units=GPa)
#
#
# Indices 1 2 3 4 5 6 
#
# 1 106.8598 28.2108 31.6507 0.0000 0.0000 0.0000
# 2 28.2108 98.6770 48.1817 0.0000 0.0000 0.0000
# 3 31.6507 48.1817 71.3560 0.0000 0.0000 0.0000
# 4 0.0000 0.0000 0.0000 13.4516 0.0000 0.0000
# 5 0.0000 0.0000 0.0000 0.0000 22.2464 0.0000
# 6 0.0000 0.0000 0.0000 0.0000 0.0000 50.4940
#
#
#
# Elastic Compliance Matrix: (Units=1/GPa)
#
#
# Indices 1 2 3 4 5 6 
#
# 1 0.010856 -0.001123 -0.004057 0.000000 0.000000 0.000000
# 2 -0.001123 0.015235 -0.009789 0.000000 0.000000 0.000000
# 3 -0.004057 -0.009789 0.022424 0.000000 0.000000 0.000000
# 4 0.000000 0.000000 0.000000 0.074341 0.000000 0.000000
# 5 0.000000 0.000000 0.000000 0.000000 0.044951 0.000000
# 6 0.000000 0.000000 0.000000 0.000000 0.000000 0.019804
#
#
# Mechanical properties :
#
#
# Convention : Reuss Voigt Hill
#
# Bulk Modulus (GPa) = 53.83074 54.77548 54.30311
# Shear Modulus (GPa) = 22.34726 28.49504 25.42115
#
# Velocity S-wave (km/s) = 3.34653 3.77891 3.56927
# Velocity P-wave (km/s) = 6.47374 6.81841 6.64831
#
# Compressibility (1/GPa) = 0.01857675
#
# Stress axis : x y z
#
# Youngs Moduli (GPa) = 92.11365 65.63935 44.59548
#
# Poissons Ratio (x) = 0.07368 0.18094
# Poissons Ratio (y) = 0.10340 0.43655
# Poissons Ratio (z) = 0.37374 0.64255
#
# Static dielectric constant tensor:
#      x y z
#    x 1.712150 0.000000 0.000000 
#    y 0.000000 1.708970 0.000000 
#    z 0.000000 0.000000 1.713460 
# 
# From -- ./inp_files/32304.got.cif
#   From: 2010.05.17/outbox.cif.g08.bks.cpg/sg63_17_cif.got.tgz:32304.got - 2010.06.03 15:47:04.
