data_PCOD9472361
_publ_section_title
;
Structure prediction by ZEFSAII (Michael W. Deem and Ramdas Pophale) SiO2 
 PCOD9472361
Probable space group: C M C M
;
_chemical_formula_sum "Si O2"
_cell_formula_units_Z 96
_cell_length_a 7.598095
_cell_length_b 21.371004
_cell_length_c 27.534960
_cell_angle_alpha 90.000000
_cell_angle_beta 90.000000
_cell_angle_gamma 90.000000
_cell_volume 4471.097030
_symmetry_space_group_name_H-M "C M C M"
_symmetry_group_IT_number 63
_symmetry_cell_setting 'orthorhombic'
loop_
_space_group_symop_operation_xyz
x,y,z
-x,-y,1/2+z
x,-y,-z
-x,y,1/2-z
-x,-y,-z
x,y,1/2-z
-x,y,z
x,-y,1/2+z
1/2+x,1/2+y,z
1/2-x,1/2-y,1/2+z
1/2+x,1/2-y,-z
1/2-x,1/2+y,1/2-z
1/2-x,1/2-y,-z
1/2+x,1/2+y,1/2-z
1/2-x,1/2+y,z
1/2+x,1/2-y,1/2+z
loop_
_atom_site_type_symbol
_atom_site_label
_atom_site_fract_x
_atom_site_fract_y
_atom_site_fract_z
Si Si1 0.787700 0.059940 0.305587
Si Si2 0.284583 0.313656 0.859483
Si Si3 0.208336 0.434575 0.134818
Si Si4 0.206417 0.063133 0.522722
Si Si5 0.211443 0.812890 0.529187
Si Si6 0.284724 0.813460 0.305890
O O1 0.723857 0.056701 0.250000
O O2 0.726904 0.123008 0.332553
O O3 0.000000 0.063042 0.304020
O O4 0.741055 0.997960 0.335453
O O5 0.500000 0.314028 0.859369
O O6 0.224938 0.311747 0.915306
O O7 0.229920 0.251071 0.831275
O O8 0.281848 0.437829 0.080630
O O9 0.275399 0.374233 0.164312
O O10 0.000000 0.426655 0.129447
O O11 0.280735 0.126631 0.499693
O O12 0.000000 0.063302 0.509469
O O13 0.284597 0.000000 0.500000
O O14 0.250000 0.750000 0.500000
O O15 0.000000 0.817171 0.531831
O O16 0.228231 0.816241 0.250000
O O17 0.500000 0.814123 0.305846
#
# Coordination Sequence:
#
# PCOD9472361 Si02
#       6
#    16  16  16  16  16  16
#     4  10  20  35  57  82 107 139 180 223 265 314
#     4   9  17  32  54  78 103 135 178 222 261 306
#     4  11  22  35  54  80 111 144 177 220 272 324
#     4  10  21  38  58  78 104 141 184 228 270 316
#     4  10  20  34  54  79 108 140 175 222 274 322
#     4   9  17  30  50  77 107 138 174 216 259 306
#
# _framework density 21.471242
#
# number of rings (size 3 to 8) (size 9 to 14) (size 15 to 20)
#    0.000    2.167    0.000    3.500    0.000    8.000 
#    0.000    2.500    0.000    2.000    0.000    0.000 
#    0.000    0.000    0.000    0.000    0.000    0.000 
#
# Total GULP energy -268309.008370 kJ/mol
# GULP energy per Si atom -5589.771008 kJ/mol
# Density = 2.142237 g / cm^3
# Si number density = 21.471242 Si / 1000 Ang^3
#
#
#
# Elastic Constant Matrix: (Units=GPa)
#
#
# Indices 1 2 3 4 5 6 
#
# 1 44.3300 -5.3430 -15.0440 0.0000 0.0000 0.0000
# 2 -5.3430 232.8754 110.3117 0.0000 0.0000 0.0000
# 3 -15.0440 110.3117 167.1841 0.0000 0.0000 0.0000
# 4 0.0000 0.0000 0.0000 48.8346 0.0000 0.0000
# 5 0.0000 0.0000 0.0000 0.0000 0.3933 0.0000
# 6 0.0000 0.0000 0.0000 0.0000 0.0000 -49.3609
#
#
#
# Elastic Compliance Matrix: (Units=1/GPa)
#
#
# Indices 1 2 3 4 5 6 
#
# 1 0.023340 -0.000668 0.002541 0.000000 0.000000 0.000000
# 2 -0.000668 0.006266 -0.004194 0.000000 0.000000 0.000000
# 3 0.002541 -0.004194 0.008978 0.000000 0.000000 0.000000
# 4 0.000000 0.000000 0.000000 0.020477 0.000000 0.000000
# 5 0.000000 0.000000 0.000000 0.000000 2.542810 0.000000
# 6 0.000000 0.000000 0.000000 0.000000 0.000000 -0.020259
#
#
# Mechanical properties :
#
#
# Convention : Reuss Voigt Hill
#
# Bulk Modulus (GPa) = 29.46344 69.35988 49.41166
# Shear Modulus (GPa) = 1.92488 23.60437 12.76462
#
# Velocity S-wave (km/s) = 0.94786 3.31924 2.44088
# Velocity P-wave (km/s) = 3.86652 6.86029 5.56837
#
# Compressibility (1/GPa) = 0.03394036
#
# Stress axis : x y z
#
# Youngs Moduli (GPa) = 42.84500 159.60043 111.38815
#
# Poissons Ratio (x) = 0.10665 -0.28305
# Poissons Ratio (y) = 0.02863 0.46720
# Poissons Ratio (z) = -0.10888 0.66942
#
# Static dielectric constant tensor:
#      x y z
#    x 1.818800 0.000000 0.000000 
#    y 0.000000 1.675900 0.000000 
#    z 0.000000 0.000000 1.727140 
# 
# From -- ./inp_files/66903.got.cif
#   From: 2010.05.17/outbox.cif.g08.bks.cpg/sg63_34_cif.got.tgz:66903.got - 2010.06.03 15:47:04.
