data_PCOD9472837
_publ_section_title
;
Structure prediction by ZEFSAII (Michael W. Deem and Ramdas Pophale) SiO2 
 PCOD9472837
Probable space group: C M C M
;
_chemical_formula_sum "Si O2"
_cell_formula_units_Z 64
_cell_length_a 14.378609
_cell_length_b 24.134932
_cell_length_c 9.851633
_cell_angle_alpha 90.000000
_cell_angle_beta 90.000000
_cell_angle_gamma 90.000000
_cell_volume 3418.780187
_symmetry_space_group_name_H-M "C M C M"
_symmetry_group_IT_number 63
_symmetry_cell_setting 'orthorhombic'
loop_
_space_group_symop_operation_xyz
x,y,z
-x,-y,1/2+z
x,-y,-z
-x,y,1/2-z
-x,-y,-z
x,y,1/2-z
-x,y,z
x,-y,1/2+z
1/2+x,1/2+y,z
1/2-x,1/2-y,1/2+z
1/2+x,1/2-y,-z
1/2-x,1/2+y,1/2-z
1/2-x,1/2-y,-z
1/2+x,1/2+y,1/2-z
1/2-x,1/2+y,z
1/2+x,1/2-y,1/2+z
loop_
_atom_site_type_symbol
_atom_site_label
_atom_site_fract_x
_atom_site_fract_y
_atom_site_fract_z
Si Si1 0.390144 0.040819 0.750000
Si Si2 0.341243 0.756092 0.407254
Si Si3 0.307628 0.122106 0.964238
Si Si4 0.399252 0.661605 0.591327
Si Si5 0.889159 0.591624 0.250000
O O1 0.500000 0.052682 0.750000
O O2 0.343491 0.069972 0.879262
O O3 0.379081 0.974935 0.750000
O O4 0.330525 0.739589 0.250000
O O5 0.250000 0.750000 0.500000
O O6 0.357973 0.821887 0.410481
O O7 0.404403 0.713589 0.489449
O O8 0.196189 0.129525 0.944842
O O9 0.338755 0.115375 0.118189
O O10 0.388749 0.679127 0.750000
O O11 0.500000 0.631975 0.581625
O O12 0.000000 0.604235 0.250000
#
# Coordination Sequence:
#
# PCOD9472837 Si02
#       5
#     8  16  16  16   8
#     4  11  22  42  64  85 113 149 202 252 304 357
#     4  10  20  35  57  87 120 157 197 237 284 342
#     4  11  21  40  62  87 119 160 194 239 300 353
#     4  10  22  39  61  90 124 161 198 240 292 352
#     4  11  26  40  60  89 117 151 196 254 304 353
#
# _framework density 18.720127000000002
#
# number of rings (size 3 to 8) (size 9 to 14) (size 15 to 20)
#    0.000    1.500    2.500    3.750    8.750    4.500 
#    0.000    0.000    0.000    4.500    0.000    0.000 
#    0.000    0.000    0.000    0.000    0.000    0.000 
#
# Total GULP energy -178322.857720 kJ/mol
# GULP energy per Si atom -5572.589304 kJ/mol
# Density = 1.867752 g / cm^3
# Si number density = 18.720127 Si / 1000 Ang^3
#
#
#
# Elastic Constant Matrix: (Units=GPa)
#
#
# Indices 1 2 3 4 5 6 
#
# 1 153.3812 38.4084 64.2006 0.0000 0.0000 0.0000
# 2 38.4084 48.1618 31.0105 0.0000 0.0000 0.0000
# 3 64.2006 31.0105 195.8171 0.0000 0.0000 0.0000
# 4 0.0000 0.0000 0.0000 47.5646 0.0000 0.0000
# 5 0.0000 0.0000 0.0000 0.0000 18.1790 0.0000
# 6 0.0000 0.0000 0.0000 0.0000 0.0000 18.7966
#
#
#
# Elastic Compliance Matrix: (Units=1/GPa)
#
#
# Indices 1 2 3 4 5 6 
#
# 1 0.008780 -0.005733 -0.001971 0.000000 0.000000 0.000000
# 2 -0.005733 0.026865 -0.002375 0.000000 0.000000 0.000000
# 3 -0.001971 -0.002375 0.006129 0.000000 0.000000 0.000000
# 4 0.000000 0.000000 0.000000 0.021024 0.000000 0.000000
# 5 0.000000 0.000000 0.000000 0.000000 0.055009 0.000000
# 6 0.000000 0.000000 0.000000 0.000000 0.000000 0.053201
#
#
# Mechanical properties :
#
#
# Convention : Reuss Voigt Hill
#
# Bulk Modulus (GPa) = 46.26102 73.84434 60.05268
# Shear Modulus (GPa) = 25.20538 34.49075 29.84806
#
# Velocity S-wave (km/s) = 3.67336 4.29702 3.99737
# Velocity P-wave (km/s) = 6.53888 8.00945 7.31124
#
# Compressibility (1/GPa) = 0.02161647
#
# Stress axis : x y z
#
# Youngs Moduli (GPa) = 113.89181 37.22379 163.15854
#
# Poissons Ratio (x) = 0.21341 0.32155
# Poissons Ratio (y) = 0.65297 0.38745
# Poissons Ratio (z) = 0.22445 0.08840
#
# Static dielectric constant tensor:
#      x y z
#    x 1.728880 0.000000 0.000000 
#    y 0.000000 1.664380 0.000000 
#    z 0.000000 0.000000 1.659440 
# 
# From -- ./inp_files/4309.got.cif
#   From: 2010.05.17/outbox.cif.g08.bks.cpg/sg63_3_cif.got.tgz:4309.got - 2010.06.03 15:47:04.
