data_PCOD9472717
_publ_section_title
;
Structure prediction by ZEFSAII (Michael W. Deem and Ramdas Pophale) SiO2 
 PCOD9472717
Probable space group: C M C M
;
_chemical_formula_sum "Si O2"
_cell_formula_units_Z 80
_cell_length_a 11.615384
_cell_length_b 24.259079
_cell_length_c 13.073431
_cell_angle_alpha 90.000000
_cell_angle_beta 90.000000
_cell_angle_gamma 90.000000
_cell_volume 3683.812013
_symmetry_space_group_name_H-M "C M C M"
_symmetry_group_IT_number 63
_symmetry_cell_setting 'orthorhombic'
loop_
_space_group_symop_operation_xyz
x,y,z
-x,-y,1/2+z
x,-y,-z
-x,y,1/2-z
-x,-y,-z
x,y,1/2-z
-x,y,z
x,-y,1/2+z
1/2+x,1/2+y,z
1/2-x,1/2-y,1/2+z
1/2+x,1/2-y,-z
1/2-x,1/2+y,1/2-z
1/2-x,1/2-y,-z
1/2+x,1/2+y,1/2-z
1/2-x,1/2+y,z
1/2+x,1/2-y,1/2+z
loop_
_atom_site_type_symbol
_atom_site_label
_atom_site_fract_x
_atom_site_fract_y
_atom_site_fract_z
Si Si1 0.869222 0.474398 0.126050
Si Si2 0.371769 0.421041 0.369464
Si Si3 0.122965 0.208023 0.590296
Si Si4 0.697679 0.301083 0.866593
Si Si5 0.375040 0.103435 0.373110
O O1 0.868593 0.470343 0.250000
O O2 0.749630 0.445705 0.091993
O O3 0.862163 0.539276 0.099144
O O4 0.000000 0.455120 0.097247
O O5 0.377564 0.436884 0.250000
O O6 0.500000 0.435683 0.414388
O O7 0.362020 0.355084 0.376865
O O8 0.219877 0.247979 0.632136
O O9 0.121553 0.208383 0.466569
O O10 0.000000 0.228131 0.628497
O O11 0.652062 0.308213 0.750000
O O12 0.773304 0.354770 0.897096
O O13 0.378790 0.103664 0.250000
O O14 0.500000 0.123563 0.410694
#
# Coordination Sequence:
#
# PCOD9472717 Si02
#       5
#    16  16  16  16  16
#     4   8  14  27  49  77 107 138 175 222 272 316
#     4   9  17  31  52  77 107 145 185 220 259 317
#     4  10  21  36  54  78 107 138 175 218 267 326
#     4  10  20  35  56  79 103 134 174 220 270 322
#     4   8  14  27  50  77 102 132 173 218 264 315
#
# _framework density 21.716635
#
# number of rings (size 3 to 8) (size 9 to 14) (size 15 to 20)
#    0.000    3.000    0.000    2.400    0.000    2.400 
#    0.000    7.000    0.000   13.200    0.000    0.000 
#    0.000    0.000    0.000    0.000    0.000    1.600 
#
# Total GULP energy -222863.110888 kJ/mol
# GULP energy per Si atom -5571.577772 kJ/mol
# Density = 2.166721 g / cm^3
# Si number density = 21.716635 Si / 1000 Ang^3
#
#
#
# Elastic Constant Matrix: (Units=GPa)
#
#
# Indices 1 2 3 4 5 6 
#
# 1 159.0973 50.8478 20.0944 0.0000 0.0000 0.0000
# 2 50.8478 61.5501 -6.9722 0.0000 0.0000 0.0000
# 3 20.0944 -6.9722 95.0787 0.0000 0.0000 0.0000
# 4 0.0000 0.0000 0.0000 26.1661 0.0000 0.0000
# 5 0.0000 0.0000 0.0000 0.0000 -21.8993 0.0000
# 6 0.0000 0.0000 0.0000 0.0000 0.0000 70.1867
#
#
#
# Elastic Compliance Matrix: (Units=1/GPa)
#
#
# Indices 1 2 3 4 5 6 
#
# 1 0.009091 -0.007792 -0.002493 0.000000 0.000000 0.000000
# 2 -0.007792 0.023063 0.003338 0.000000 0.000000 0.000000
# 3 -0.002493 0.003338 0.011289 0.000000 0.000000 0.000000
# 4 0.000000 0.000000 0.000000 0.038217 0.000000 0.000000
# 5 0.000000 0.000000 0.000000 0.000000 -0.045664 0.000000
# 6 0.000000 0.000000 0.000000 0.000000 0.000000 0.014248
#
#
# Mechanical properties :
#
#
# Convention : Reuss Voigt Hill
#
# Bulk Modulus (GPa) = 33.84277 49.29623 41.56950
# Shear Modulus (GPa) = 67.57878 31.67445 49.62661
#
# Velocity S-wave (km/s) = 5.58444 3.82322 4.78555
# Velocity P-wave (km/s) = 7.56300 6.49911 7.05115
#
# Compressibility (1/GPa) = 0.02954841
#
# Stress axis : x y z
#
# Youngs Moduli (GPa) = 110.00160 43.36029 88.58020
#
# Poissons Ratio (x) = 0.33788 0.22081
# Poissons Ratio (y) = 0.85718 -0.29569
# Poissons Ratio (z) = 0.27420 -0.14474
#
# Static dielectric constant tensor:
#      x y z
#    x 1.847320 0.000000 0.000000 
#    y 0.000000 1.739430 0.000000 
#    z 0.000000 0.000000 1.847700 
# 
# From -- ./inp_files/29721.got.cif
#   From: 2010.05.17/outbox.cif.g08.bks.cpg/sg63_15_cif.got.tgz:29721.got - 2010.06.03 15:47:04.
