data_PCOD9472817
_publ_section_title
;
Structure prediction by ZEFSAII (Michael W. Deem and Ramdas Pophale) SiO2 
 PCOD9472817
Probable space group: C M C M
;
_chemical_formula_sum "Si O2"
_cell_formula_units_Z 64
_cell_length_a 8.748559
_cell_length_b 20.542812
_cell_length_c 20.142332
_cell_angle_alpha 90.000000
_cell_angle_beta 90.000000
_cell_angle_gamma 90.000000
_cell_volume 3619.979964
_symmetry_space_group_name_H-M "C M C M"
_symmetry_group_IT_number 63
_symmetry_cell_setting 'orthorhombic'
loop_
_space_group_symop_operation_xyz
x,y,z
-x,-y,1/2+z
x,-y,-z
-x,y,1/2-z
-x,-y,-z
x,y,1/2-z
-x,y,z
x,-y,1/2+z
1/2+x,1/2+y,z
1/2-x,1/2-y,1/2+z
1/2+x,1/2-y,-z
1/2-x,1/2+y,1/2-z
1/2-x,1/2-y,-z
1/2+x,1/2+y,1/2-z
1/2-x,1/2+y,z
1/2+x,1/2-y,1/2+z
loop_
_atom_site_type_symbol
_atom_site_label
_atom_site_fract_x
_atom_site_fract_y
_atom_site_fract_z
Si Si1 0.182566 0.949441 0.589694
Si Si2 0.817170 0.269474 0.071580
Si Si3 0.817412 0.665353 0.172605
Si Si4 0.817128 0.417731 0.054904
O O1 0.242586 0.900974 0.645711
O O2 0.248119 0.923563 0.519226
O O3 0.000000 0.949636 0.586912
O O4 0.245494 0.022760 0.595712
O O5 0.745847 0.223656 0.127430
O O6 0.784464 0.345931 0.082212
O O7 0.000000 0.260589 0.070131
O O8 0.750000 0.250000 0.000000
O O9 0.782913 0.675431 0.250000
O O10 0.000000 0.661046 0.164165
O O11 0.000000 0.425997 0.050606
#
# Coordination Sequence:
#
# PCOD9472817 Si02
#       4
#    16  16  16  16
#     4  11  21  34  57  86 115 149 191 242 290 344
#     4  11  22  36  60  89 119 154 194 243 293 350
#     4  11  24  41  60  83 117 159 199 243 298 357
#     4  10  20  35  57  85 118 151 188 237 290 345
#
# _framework density 17.679656000000001
#
# number of rings (size 3 to 8) (size 9 to 14) (size 15 to 20)
#    0.000    1.250    2.500    6.000    0.000    5.000 
#    0.000    1.250    0.000    1.500    0.000    0.000 
#    0.000    0.000    0.000    0.000    0.000    0.000 
#
# Total GULP energy -178842.100912 kJ/mol
# GULP energy per Si atom -5588.815654 kJ/mol
# Density = 1.763942 g / cm^3
# Si number density = 17.679656 Si / 1000 Ang^3
#
#
#
# Elastic Constant Matrix: (Units=GPa)
#
#
# Indices 1 2 3 4 5 6 
#
# 1 113.7975 85.1176 67.9517 0.0000 0.0000 0.0000
# 2 85.1176 168.6333 87.1830 0.0000 0.0000 0.0000
# 3 67.9517 87.1830 109.1258 0.0000 0.0000 0.0000
# 4 0.0000 0.0000 0.0000 28.0328 0.0000 0.0000
# 5 0.0000 0.0000 0.0000 0.0000 24.1027 0.0000
# 6 0.0000 0.0000 0.0000 0.0000 0.0000 34.8302
#
#
#
# Elastic Compliance Matrix: (Units=1/GPa)
#
#
# Indices 1 2 3 4 5 6 
#
# 1 0.016160 -0.005033 -0.006041 0.000000 0.000000 0.000000
# 2 -0.005033 0.011671 -0.006190 0.000000 0.000000 0.000000
# 3 -0.006041 -0.006190 0.017871 0.000000 0.000000 0.000000
# 4 0.000000 0.000000 0.000000 0.035673 0.000000 0.000000
# 5 0.000000 0.000000 0.000000 0.000000 0.041489 0.000000
# 6 0.000000 0.000000 0.000000 0.000000 0.000000 0.028711
#
#
# Mechanical properties :
#
#
# Convention : Reuss Voigt Hill
#
# Bulk Modulus (GPa) = 89.50620 96.89570 93.20095
# Shear Modulus (GPa) = 26.33983 27.48008 26.90995
#
# Velocity S-wave (km/s) = 3.86403 3.94678 3.90562
# Velocity P-wave (km/s) = 8.40501 8.70027 8.55392
#
# Compressibility (1/GPa) = 0.01117241
#
# Stress axis : x y z
#
# Youngs Moduli (GPa) = 61.88208 85.68483 55.95719
#
# Poissons Ratio (x) = 0.43128 0.33806
# Poissons Ratio (y) = 0.31147 0.34636
# Poissons Ratio (z) = 0.37385 0.53037
#
# Static dielectric constant tensor:
#      x y z
#    x 1.590940 0.000000 0.000000 
#    y 0.000000 1.616290 0.000000 
#    z 0.000000 0.000000 1.567340 
# 
# From -- ./inp_files/39847.got.cif
#   From: 2010.05.17/outbox.cif.g08.bks.cpg/sg63_20_cif.got.tgz:39847.got - 2010.06.03 15:47:04.
