data_PCOD9472464
_publ_section_title
;
Structure prediction by ZEFSAII (Michael W. Deem and Ramdas Pophale) SiO2 
 PCOD9472464
Probable space group: C M C M
;
_chemical_formula_sum "Si O2"
_cell_formula_units_Z 96
_cell_length_a 8.674588
_cell_length_b 21.168037
_cell_length_c 28.903712
_cell_angle_alpha 90.000000
_cell_angle_beta 90.000000
_cell_angle_gamma 90.000000
_cell_volume 5307.415205
_symmetry_space_group_name_H-M "C M C M"
_symmetry_group_IT_number 63
_symmetry_cell_setting 'orthorhombic'
loop_
_space_group_symop_operation_xyz
x,y,z
-x,-y,1/2+z
x,-y,-z
-x,y,1/2-z
-x,-y,-z
x,y,1/2-z
-x,y,z
x,-y,1/2+z
1/2+x,1/2+y,z
1/2-x,1/2-y,1/2+z
1/2+x,1/2-y,-z
1/2-x,1/2+y,1/2-z
1/2-x,1/2-y,-z
1/2+x,1/2+y,1/2-z
1/2-x,1/2+y,z
1/2+x,1/2-y,1/2+z
loop_
_atom_site_type_symbol
_atom_site_label
_atom_site_fract_x
_atom_site_fract_y
_atom_site_fract_z
Si Si1 0.315104 0.371886 0.105666
Si Si2 0.188051 0.999390 0.053401
Si Si3 0.315555 0.177805 0.697032
Si Si4 0.684036 0.181481 0.197114
Si Si5 0.686047 0.624835 0.107680
Si Si6 0.685039 0.248911 0.948354
O O1 0.500000 0.369078 0.104675
O O2 0.264838 0.435873 0.079966
O O3 0.257730 0.366450 0.158267
O O4 0.249014 0.311492 0.078705
O O5 0.000000 0.999953 0.052599
O O6 0.236943 0.061856 0.081065
O O7 0.239525 0.000000 0.000000
O O8 0.273614 0.161447 0.750000
O O9 0.500000 0.176925 0.692792
O O10 0.258052 0.249511 0.688680
O O11 0.722374 0.163246 0.250000
O O12 0.500000 0.187550 0.193406
O O13 0.745611 0.133907 0.158607
O O14 0.500000 0.623767 0.110900
O O15 0.729935 0.686848 0.078211
O O16 0.500000 0.246145 0.949446
O O17 0.750000 0.250000 0.000000
#
# Coordination Sequence:
#
# PCOD9472464 Si02
#       6
#    16  16  16  16  16  16
#     4  11  21  35  58  85 113 145 186 237 286 333
#     4   9  19  37  58  80 110 151 192 229 276 335
#     4  10  20  35  56  82 113 149 187 228 279 340
#     4  10  20  34  55  84 115 146 183 230 284 336
#     4  10  20  36  58  82 110 148 190 229 277 335
#     4  11  22  35  55  82 111 144 186 236 285 336
#
# _framework density 18.087900999999999
#
# number of rings (size 3 to 8) (size 9 to 14) (size 15 to 20)
#    0.000    1.833    1.667    3.000    0.000    5.333 
#    0.000    2.500    0.000    8.500    0.000    0.000 
#    0.000    0.000    0.000    0.000    0.000    0.000 
#
# Total GULP energy -268089.871118 kJ/mol
# GULP energy per Si atom -5585.205648 kJ/mol
# Density = 1.804673 g / cm^3
# Si number density = 18.087901 Si / 1000 Ang^3
#
#
#
# Elastic Constant Matrix: (Units=GPa)
#
#
# Indices 1 2 3 4 5 6 
#
# 1 31.7967 35.6885 39.1954 0.0000 0.0000 0.0000
# 2 35.6885 152.0863 96.1851 0.0000 0.0000 0.0000
# 3 39.1954 96.1851 174.6740 0.0000 0.0000 0.0000
# 4 0.0000 0.0000 0.0000 34.4166 0.0000 0.0000
# 5 0.0000 0.0000 0.0000 0.0000 35.9449 0.0000
# 6 0.0000 0.0000 0.0000 0.0000 0.0000 22.3991
#
#
#
# Elastic Compliance Matrix: (Units=1/GPa)
#
#
# Indices 1 2 3 4 5 6 
#
# 1 0.047632 -0.006778 -0.006956 0.000000 0.000000 0.000000
# 2 -0.006778 0.011053 -0.004566 0.000000 0.000000 0.000000
# 3 -0.006956 -0.004566 0.009800 0.000000 0.000000 0.000000
# 4 0.000000 0.000000 0.000000 0.029056 0.000000 0.000000
# 5 0.000000 0.000000 0.000000 0.000000 0.027820 0.000000
# 6 0.000000 0.000000 0.000000 0.000000 0.000000 0.044645
#
#
# Mechanical properties :
#
#
# Convention : Reuss Voigt Hill
#
# Bulk Modulus (GPa) = 31.36179 77.85501 54.60840
# Shear Modulus (GPa) = 23.01673 31.05131 27.03402
#
# Velocity S-wave (km/s) = 3.57107 4.14779 3.87019
# Velocity P-wave (km/s) = 5.86341 8.12865 7.08712
#
# Compressibility (1/GPa) = 0.03188594
#
# Stress axis : x y z
#
# Youngs Moduli (GPa) = 20.99433 90.47155 102.04308
#
# Poissons Ratio (x) = 0.61324 0.70978
# Poissons Ratio (y) = 0.14230 0.46588
# Poissons Ratio (z) = 0.14603 0.41305
#
# Static dielectric constant tensor:
#      x y z
#    x 1.614690 0.000000 0.000000 
#    y 0.000000 1.592560 0.000000 
#    z 0.000000 0.000000 1.624760 
# 
# From -- ./inp_files/66899.got.cif
#   From: 2010.05.17/outbox.cif.g08.bks.cpg/sg63_34_cif.got.tgz:66899.got - 2010.06.03 15:47:04.
