data_PCOD9472455
_publ_section_title
;
Structure prediction by ZEFSAII (Michael W. Deem and Ramdas Pophale) SiO2 
 PCOD9472455
Probable space group: C M C M
;
_chemical_formula_sum "Si O2"
_cell_formula_units_Z 88
_cell_length_a 23.070693
_cell_length_b 23.327260
_cell_length_c 8.700786
_cell_angle_alpha 90.000000
_cell_angle_beta 90.000000
_cell_angle_gamma 90.000000
_cell_volume 4682.554676
_symmetry_space_group_name_H-M "C M C M"
_symmetry_group_IT_number 63
_symmetry_cell_setting 'orthorhombic'
loop_
_space_group_symop_operation_xyz
x,y,z
-x,-y,1/2+z
x,-y,-z
-x,y,1/2-z
-x,-y,-z
x,y,1/2-z
-x,y,z
x,-y,1/2+z
1/2+x,1/2+y,z
1/2-x,1/2-y,1/2+z
1/2+x,1/2-y,-z
1/2-x,1/2+y,1/2-z
1/2-x,1/2-y,-z
1/2+x,1/2+y,1/2-z
1/2-x,1/2+y,z
1/2+x,1/2-y,1/2+z
loop_
_atom_site_type_symbol
_atom_site_label
_atom_site_fract_x
_atom_site_fract_y
_atom_site_fract_z
Si Si1 0.000000 0.934555 0.565675
Si Si2 0.668638 0.860192 0.934034
Si Si3 0.735390 0.560704 0.567615
Si Si4 0.618213 0.619072 0.564115
Si Si5 0.436457 0.936601 0.935220
Si Si6 0.686578 0.266008 0.433060
O O1 0.942321 0.900644 0.509054
O O2 0.000000 0.937771 0.750000
O O3 0.000000 0.000000 0.500000
O O4 0.675300 0.866467 0.750000
O O5 0.615692 0.898139 0.991176
O O6 0.654694 0.794048 0.962708
O O7 0.726397 0.886271 0.007941
O O8 0.755329 0.500000 0.500000
O O9 0.740460 0.558597 0.750000
O O10 0.668479 0.572869 0.527580
O O11 0.610902 0.621447 0.750000
O O12 0.648183 0.679697 0.514002
O O13 0.433926 0.938851 0.750000
O O14 0.500000 0.914300 0.978889
O O15 0.430609 0.000000 0.000000
O O16 0.694619 0.274450 0.250000
O O17 0.750000 0.250000 0.500000
#
# Coordination Sequence:
#
# PCOD9472455 Si02
#       6
#     8  16  16  16  16  16
#     4  12  26  44  68  94 122 160 205 258 315 370
#     4  10  20  34  55  83 113 147 189 236 286 343
#     4  11  22  35  55  84 116 150 189 237 293 351
#     4  10  22  41  62  88 121 158 200 244 300 364
#     4   9  18  33  51  74 105 141 182 225 273 329
#     4  10  20  37  60  87 117 153 191 234 289 348
#
# _framework density 18.793161000000001
#
# number of rings (size 3 to 8) (size 9 to 14) (size 15 to 20)
#    0.000    1.818    1.818    2.455    0.000    5.818 
#    1.636    0.000    0.000    0.000    0.000    0.000 
#    0.000    0.000    0.000    0.000    0.000    0.000 
#
# Total GULP energy -245369.815767 kJ/mol
# GULP energy per Si atom -5576.586722 kJ/mol
# Density = 1.875039 g / cm^3
# Si number density = 18.793161 Si / 1000 Ang^3
#
#
#
# Elastic Constant Matrix: (Units=GPa)
#
#
# Indices 1 2 3 4 5 6 
#
# 1 132.2223 59.4187 35.7569 0.0000 0.0000 0.0000
# 2 59.4187 108.1877 34.3440 0.0000 0.0000 0.0000
# 3 35.7569 34.3440 25.4719 0.0000 0.0000 0.0000
# 4 0.0000 0.0000 0.0000 18.3352 0.0000 0.0000
# 5 0.0000 0.0000 0.0000 0.0000 25.9788 0.0000
# 6 0.0000 0.0000 0.0000 0.0000 0.0000 22.6665
#
#
#
# Elastic Compliance Matrix: (Units=1/GPa)
#
#
# Indices 1 2 3 4 5 6 
#
# 1 0.012500 -0.002264 -0.014495 0.000000 0.000000 0.000000
# 2 -0.002264 0.016570 -0.019163 0.000000 0.000000 0.000000
# 3 -0.014495 -0.019163 0.085445 0.000000 0.000000 0.000000
# 4 0.000000 0.000000 0.000000 0.054540 0.000000 0.000000
# 5 0.000000 0.000000 0.000000 0.000000 0.038493 0.000000
# 6 0.000000 0.000000 0.000000 0.000000 0.000000 0.044118
#
#
# Mechanical properties :
#
#
# Convention : Reuss Voigt Hill
#
# Bulk Modulus (GPa) = 23.43543 58.32457 40.88000
# Shear Modulus (GPa) = 14.80450 22.48690 18.64570
#
# Velocity S-wave (km/s) = 2.80975 3.46287 3.15326
# Velocity P-wave (km/s) = 4.79828 6.86229 5.92092
#
# Compressibility (1/GPa) = 0.04267043
#
# Stress axis : x y z
#
# Youngs Moduli (GPa) = 79.99768 60.35013 11.70340
#
# Poissons Ratio (x) = 0.13663 0.16964
# Poissons Ratio (y) = 0.18111 0.22428
# Poissons Ratio (z) = 1.15959 1.15651
#
# Static dielectric constant tensor:
#      x y z
#    x 1.665920 0.000000 0.000000 
#    y 0.000000 1.742620 0.000000 
#    z 0.000000 0.000000 1.704020 
# 
# From -- ./inp_files/8151.got.cif
#   From: 2010.05.17/outbox.cif.g08.bks.cpg/sg63_5_cif.got.tgz:8151.got - 2010.06.03 15:47:04.
