data_PCOD9472679
_publ_section_title
;
Structure prediction by ZEFSAII (Michael W. Deem and Ramdas Pophale) SiO2 
 PCOD9472679
Probable space group: C M C M
;
_chemical_formula_sum "Si O2"
_cell_formula_units_Z 88
_cell_length_a 22.813610
_cell_length_b 25.263525
_cell_length_c 8.724770
_cell_angle_alpha 90.000000
_cell_angle_beta 90.000000
_cell_angle_gamma 90.000000
_cell_volume 5028.540441
_symmetry_space_group_name_H-M "C M C M"
_symmetry_group_IT_number 63
_symmetry_cell_setting 'orthorhombic'
loop_
_space_group_symop_operation_xyz
x,y,z
-x,-y,1/2+z
x,-y,-z
-x,y,1/2-z
-x,-y,-z
x,y,1/2-z
-x,y,z
x,-y,1/2+z
1/2+x,1/2+y,z
1/2-x,1/2-y,1/2+z
1/2+x,1/2-y,-z
1/2-x,1/2+y,1/2-z
1/2-x,1/2-y,-z
1/2+x,1/2+y,1/2-z
1/2-x,1/2+y,z
1/2+x,1/2-y,1/2+z
loop_
_atom_site_type_symbol
_atom_site_label
_atom_site_fract_x
_atom_site_fract_y
_atom_site_fract_z
Si Si1 0.109918 0.375851 0.932301
Si Si2 0.431555 0.346111 0.434804
Si Si3 0.500000 0.059283 0.933696
Si Si4 0.286335 0.057670 0.565946
Si Si5 0.150027 0.942900 0.065722
Si Si6 0.070002 0.267669 0.431526
O O1 0.106437 0.381145 0.750000
O O2 0.057087 0.409328 0.007875
O O3 0.170426 0.399593 0.994512
O O4 0.101716 0.315137 0.981689
O O5 0.427345 0.341335 0.250000
O O6 0.500000 0.355526 0.472814
O O7 0.391519 0.395088 0.485274
O O8 0.413445 0.290474 0.509054
O O9 0.500000 0.057758 0.750000
O O10 0.500000 0.000000 0.000000
O O11 0.291731 0.057288 0.750000
O O12 0.218144 0.066967 0.524879
O O13 0.302625 0.000000 0.500000
O O14 0.146853 0.945775 0.250000
O O15 0.132818 0.000000 0.000000
O O16 0.080023 0.272153 0.250000
O O17 0.000000 0.273544 0.459065
#
# Coordination Sequence:
#
# PCOD9472679 Si02
#       6
#    16  16   8  16  16  16
#     4  12  23  36  55  79 106 141 183 224 273 322
#     4   9  18  34  56  82 112 143 178 221 271 325
#     4  12  24  38  54  78 110 142 179 226 273 318
#     4  10  20  36  55  76 106 143 184 225 270 323
#     4   9  19  35  56  81 110 145 180 220 270 325
#     4  10  20  35  55  79 108 142 180 223 272 323
#
# _framework density 17.500108999999998
#
# number of rings (size 3 to 8) (size 9 to 14) (size 15 to 20)
#    0.000    1.818    0.909    4.091    0.000    2.545 
#    0.000    0.909    0.000    0.000    0.000    0.000 
#    0.000    0.000    0.000    0.000    0.000    0.000 
#
# Total GULP energy -245771.135227 kJ/mol
# GULP energy per Si atom -5585.707619 kJ/mol
# Density = 1.746028 g / cm^3
# Si number density = 17.500109 Si / 1000 Ang^3
#
#
#
# Elastic Constant Matrix: (Units=GPa)
#
#
# Indices 1 2 3 4 5 6 
#
# 1 69.7011 83.6127 42.7834 0.0000 0.0000 0.0000
# 2 83.6127 167.8119 63.6972 0.0000 0.0000 0.0000
# 3 42.7834 63.6972 81.9861 0.0000 0.0000 0.0000
# 4 0.0000 0.0000 0.0000 33.3101 0.0000 0.0000
# 5 0.0000 0.0000 0.0000 0.0000 16.8849 0.0000
# 6 0.0000 0.0000 0.0000 0.0000 0.0000 19.7740
#
#
#
# Elastic Compliance Matrix: (Units=1/GPa)
#
#
# Indices 1 2 3 4 5 6 
#
# 1 0.038565 -0.016418 -0.007369 0.000000 0.000000 0.000000
# 2 -0.016418 0.015441 -0.003429 0.000000 0.000000 0.000000
# 3 -0.007369 -0.003429 0.018707 0.000000 0.000000 0.000000
# 4 0.000000 0.000000 0.000000 0.030021 0.000000 0.000000
# 5 0.000000 0.000000 0.000000 0.000000 0.059224 0.000000
# 6 0.000000 0.000000 0.000000 0.000000 0.000000 0.050571
#
#
# Mechanical properties :
#
#
# Convention : Reuss Voigt Hill
#
# Bulk Modulus (GPa) = 54.70281 77.74286 66.22283
# Shear Modulus (GPa) = 18.31132 22.62087 20.46610
#
# Velocity S-wave (km/s) = 3.23825 3.59919 3.42348
# Velocity P-wave (km/s) = 6.73113 7.86085 7.31782
#
# Compressibility (1/GPa) = 0.01828060
#
# Stress axis : x y z
#
# Youngs Moduli (GPa) = 25.93016 64.76303 53.45681
#
# Poissons Ratio (x) = 1.06328 0.39393
# Poissons Ratio (y) = 0.42572 0.18330
# Poissons Ratio (z) = 0.19108 0.22207
#
# Static dielectric constant tensor:
#      x y z
#    x 1.584810 0.000000 0.000000 
#    y 0.000000 1.571730 0.000000 
#    z 0.000000 0.000000 1.584940 
# 
# From -- ./inp_files/8164.got.cif
#   From: 2010.05.17/outbox.cif.g08.bks.cpg/sg63_5_cif.got.tgz:8164.got - 2010.06.03 15:47:04.
