data_PCOD9472382
_publ_section_title
;
Structure prediction by ZEFSAII (Michael W. Deem and Ramdas Pophale) SiO2 
 PCOD9472382
Probable space group: C M C M
;
_chemical_formula_sum "Si O2"
_cell_formula_units_Z 104
_cell_length_a 21.558616
_cell_length_b 26.654451
_cell_length_c 9.051983
_cell_angle_alpha 90.000000
_cell_angle_beta 90.000000
_cell_angle_gamma 90.000000
_cell_volume 5201.568815
_symmetry_space_group_name_H-M "C M C M"
_symmetry_group_IT_number 63
_symmetry_cell_setting 'orthorhombic'
loop_
_space_group_symop_operation_xyz
x,y,z
-x,-y,1/2+z
x,-y,-z
-x,y,1/2-z
-x,-y,-z
x,y,1/2-z
-x,y,z
x,-y,1/2+z
1/2+x,1/2+y,z
1/2-x,1/2-y,1/2+z
1/2+x,1/2-y,-z
1/2-x,1/2+y,1/2-z
1/2-x,1/2-y,-z
1/2+x,1/2+y,1/2-z
1/2-x,1/2+y,z
1/2+x,1/2-y,1/2+z
loop_
_atom_site_type_symbol
_atom_site_label
_atom_site_fract_x
_atom_site_fract_y
_atom_site_fract_z
Si Si1 0.000000 0.447256 0.923397
Si Si2 0.927292 0.264030 0.573209
Si Si3 0.573502 0.446593 0.422290
Si Si4 0.320797 0.602832 0.424347
Si Si5 0.306166 0.719001 0.074538
Si Si6 0.117138 0.378111 0.924528
Si Si7 0.789147 0.551343 0.575063
O O1 0.059748 0.414337 0.956861
O O2 0.000000 0.456447 0.750000
O O3 0.000000 0.500000 0.000000
O O4 0.924338 0.254573 0.750000
O O5 0.873671 0.232866 0.491681
O O6 0.906083 0.321791 0.549547
O O7 0.000000 0.257245 0.528875
O O8 0.585872 0.500000 0.500000
O O9 0.591522 0.448210 0.250000
O O10 0.500000 0.437694 0.430098
O O11 0.611040 0.404485 0.509622
O O12 0.319421 0.592401 0.250000
O O13 0.297381 0.659470 0.447700
O O14 0.278455 0.563278 0.510831
O O15 0.305682 0.728984 0.250000
O O16 0.250000 0.750000 0.000000
O O17 0.134284 0.381970 0.750000
O O18 0.171335 0.400527 0.023492
O O19 0.813123 0.500000 0.500000
O O20 0.789402 0.545712 0.750000
#
# Coordination Sequence:
#
# PCOD9472382 Si02
#       7
#     8  16  16  16  16  16  16
#     4  10  20  34  54  80 114 152 194 240 287 342
#     4  10  21  40  66  93 124 165 207 253 313 372
#     4  10  21  38  62  92 125 160 197 239 292 357
#     4  11  24  42  62  86 119 158 199 248 305 361
#     4  11  25  43  64  91 123 161 206 260 317 371
#     4  10  20  38  60  85 119 158 201 246 296 353
#     4  12  25  40  60  88 121 159 202 249 302 360
#
# _framework density 19.993967999999999
#
# number of rings (size 3 to 8) (size 9 to 14) (size 15 to 20)
#    0.000    1.385    0.769    4.615    0.000   10.462 
#    0.000    3.077    0.000    0.000    0.000    0.000 
#    0.000    0.000    0.000    0.000    0.000    0.000 
#
# Total GULP energy -290615.409961 kJ/mol
# GULP energy per Si atom -5588.757884 kJ/mol
# Density = 1.994846 g / cm^3
# Si number density = 19.993968 Si / 1000 Ang^3
#
#
#
# Elastic Constant Matrix: (Units=GPa)
#
#
# Indices 1 2 3 4 5 6 
#
# 1 96.9895 31.0039 64.0059 0.0000 0.0000 0.0000
# 2 31.0039 54.0501 50.2387 0.0000 0.0000 0.0000
# 3 64.0059 50.2387 97.2370 0.0000 0.0000 0.0000
# 4 0.0000 0.0000 0.0000 26.6990 0.0000 0.0000
# 5 0.0000 0.0000 0.0000 0.0000 33.9678 0.0000
# 6 0.0000 0.0000 0.0000 0.0000 0.0000 43.4337
#
#
#
# Elastic Compliance Matrix: (Units=1/GPa)
#
#
# Indices 1 2 3 4 5 6 
#
# 1 0.018280 0.001344 -0.012727 0.000000 0.000000 0.000000
# 2 0.001344 0.035694 -0.019326 0.000000 0.000000 0.000000
# 3 -0.012727 -0.019326 0.028647 0.000000 0.000000 0.000000
# 4 0.000000 0.000000 0.000000 0.037455 0.000000 0.000000
# 5 0.000000 0.000000 0.000000 0.000000 0.029440 0.000000
# 6 0.000000 0.000000 0.000000 0.000000 0.000000 0.023024
#
#
# Mechanical properties :
#
#
# Convention : Reuss Voigt Hill
#
# Bulk Modulus (GPa) = 47.16579 59.86371 53.51475
# Shear Modulus (GPa) = 20.74483 27.68864 24.21673
#
# Velocity S-wave (km/s) = 3.22460 3.72539 3.48401
# Velocity P-wave (km/s) = 6.12416 6.96496 6.55805
#
# Compressibility (1/GPa) = 0.02120181
#
# Stress axis : x y z
#
# Youngs Moduli (GPa) = 54.70596 28.01590 34.90797
#
# Poissons Ratio (x) = -0.03765 0.44427
# Poissons Ratio (y) = -0.07352 0.67465
# Poissons Ratio (z) = 0.69623 0.54145
#
# Static dielectric constant tensor:
#      x y z
#    x 1.756070 0.000000 0.000000 
#    y 0.000000 1.720860 0.000000 
#    z 0.000000 0.000000 1.665920 
# 
# From -- ./inp_files/8754.got.cif
#   From: 2010.05.17/outbox.cif.g08.bks.cpg/sg63_5_cif.got.tgz:8754.got - 2010.06.03 15:47:04.
