data_PCOD9472921
_publ_section_title
;
Structure prediction by ZEFSAII (Michael W. Deem and Ramdas Pophale) SiO2 
 PCOD9472921
Probable space group: C M C M
;
_chemical_formula_sum "Si O2"
_cell_formula_units_Z 88
_cell_length_a 25.453119
_cell_length_b 12.920927
_cell_length_c 13.124676
_cell_angle_alpha 90.000000
_cell_angle_beta 90.000000
_cell_angle_gamma 90.000000
_cell_volume 4316.415783
_symmetry_space_group_name_H-M "C M C M"
_symmetry_group_IT_number 63
_symmetry_cell_setting 'orthorhombic'
loop_
_space_group_symop_operation_xyz
x,y,z
-x,-y,1/2+z
x,-y,-z
-x,y,1/2-z
-x,-y,-z
x,y,1/2-z
-x,y,z
x,-y,1/2+z
1/2+x,1/2+y,z
1/2-x,1/2-y,1/2+z
1/2+x,1/2-y,-z
1/2-x,1/2+y,1/2-z
1/2-x,1/2-y,-z
1/2+x,1/2+y,1/2-z
1/2-x,1/2+y,z
1/2+x,1/2-y,1/2+z
loop_
_atom_site_type_symbol
_atom_site_label
_atom_site_fract_x
_atom_site_fract_y
_atom_site_fract_z
Si Si1 0.559056 0.391101 0.250000
Si Si2 0.356860 0.879327 0.750000
Si Si3 0.326918 0.888227 0.250000
Si Si4 0.941660 0.136553 0.250000
Si Si5 0.059110 0.602623 0.068276
Si Si6 0.614535 0.760572 0.419474
Si Si7 0.141454 0.101993 0.570567
Si Si8 0.208012 0.838273 0.250000
O O1 0.500000 0.345983 0.250000
O O2 0.554715 0.514578 0.250000
O O3 0.592068 0.371162 0.353747
O O4 0.396166 0.884640 0.653229
O O5 0.321308 0.774776 0.750000
O O6 0.324696 0.987268 0.750000
O O7 0.358189 0.846457 0.150850
O O8 0.270347 0.834378 0.250000
O O9 0.910000 0.175297 0.153623
O O10 0.000000 0.182433 0.250000
O O11 0.000000 0.602702 0.110931
O O12 0.065954 0.500000 0.000000
O O13 0.068141 0.692084 0.986261
O O14 0.651632 0.699091 0.496722
O O15 0.188484 0.097785 0.651388
O O16 0.134332 0.000000 0.500000
#
# Coordination Sequence:
#
# PCOD9472921 Si02
#       8
#     8   8   8   8  16  16  16   8
#     4  10  22  37  59  93 134 178 219 266 323 377
#     4  12  23  48  68 100 140 164 229 284 324 408
#     4  11  27  45  71  96 132 170 217 286 339 389
#     4  10  20  35  59  91 128 172 217 262 317 383
#     4  11  23  41  68 100 136 179 216 269 345 407
#     4  11  22  42  63  94 131 172 221 272 330 398
#     4  11  23  43  64  92 136 171 226 277 324 398
#     4  11  27  47  69 100 124 178 223 284 343 389
#
# _framework density 20.387286
#
# number of rings (size 3 to 8) (size 9 to 14) (size 15 to 20)
#    0.000    1.091    5.455    0.818    0.000    4.000 
#    3.273    0.000    0.000    0.000    0.000    0.000 
#    0.000    0.000    0.000    0.000    0.000    0.000 
#
# Total GULP energy -245518.322676 kJ/mol
# GULP energy per Si atom -5579.961879 kJ/mol
# Density = 2.034088 g / cm^3
# Si number density = 20.387286 Si / 1000 Ang^3
#
#
#
# Elastic Constant Matrix: (Units=GPa)
#
#
# Indices 1 2 3 4 5 6 
#
# 1 91.4466 17.0202 22.0946 0.0000 0.0000 0.0000
# 2 17.0202 95.1980 37.3356 0.0000 0.0000 0.0000
# 3 22.0946 37.3356 110.3661 0.0000 0.0000 0.0000
# 4 0.0000 0.0000 0.0000 70.6257 0.0000 0.0000
# 5 0.0000 0.0000 0.0000 0.0000 1.2393 0.0000
# 6 0.0000 0.0000 0.0000 0.0000 0.0000 21.9180
#
#
#
# Elastic Compliance Matrix: (Units=1/GPa)
#
#
# Indices 1 2 3 4 5 6 
#
# 1 0.011639 -0.001346 -0.001875 0.000000 0.000000 0.000000
# 2 -0.001346 0.012267 -0.003880 0.000000 0.000000 0.000000
# 3 -0.001875 -0.003880 0.010749 0.000000 0.000000 0.000000
# 4 0.000000 0.000000 0.000000 0.014159 0.000000 0.000000
# 5 0.000000 0.000000 0.000000 0.000000 0.806909 0.000000
# 6 0.000000 0.000000 0.000000 0.000000 0.000000 0.045625
#
#
# Mechanical properties :
#
#
# Convention : Reuss Voigt Hill
#
# Bulk Modulus (GPa) = 48.89293 49.99016 49.44154
# Shear Modulus (GPa) = 5.42084 33.46064 19.44074
#
# Velocity S-wave (km/s) = 1.63239 4.05563 3.09135
# Velocity P-wave (km/s) = 5.25234 6.81941 6.08652
#
# Compressibility (1/GPa) = 0.02045286
#
# Stress axis : x y z
#
# Youngs Moduli (GPa) = 85.91981 81.52065 93.03401
#
# Poissons Ratio (x) = 0.10969 0.17442
# Poissons Ratio (y) = 0.11561 0.36100
# Poissons Ratio (z) = 0.16108 0.31633
#
# Static dielectric constant tensor:
#      x y z
#    x 1.709940 0.000000 0.000000 
#    y 0.000000 1.739220 0.000000 
#    z 0.000000 0.000000 1.735940 
# 
# From -- ./inp_files/24935.got.cif
#   From: 2010.05.17/outbox.cif.g08.bks.cpg/sg63_13_cif.got.tgz:24935.got - 2010.06.03 15:47:04.
