data_PCOD9472549
_publ_section_title
;
Structure prediction by ZEFSAII (Michael W. Deem and Ramdas Pophale) SiO2 
 PCOD9472549
Probable space group: C M C M
;
_chemical_formula_sum "Si O2"
_cell_formula_units_Z 116
_cell_length_a 17.937316
_cell_length_b 22.445040
_cell_length_c 14.473547
_cell_angle_alpha 90.000000
_cell_angle_beta 90.000000
_cell_angle_gamma 90.000000
_cell_volume 5827.104661
_symmetry_space_group_name_H-M "C M C M"
_symmetry_group_IT_number 63
_symmetry_cell_setting 'orthorhombic'
loop_
_space_group_symop_operation_xyz
x,y,z
-x,-y,1/2+z
x,-y,-z
-x,y,1/2-z
-x,-y,-z
x,y,1/2-z
-x,y,z
x,-y,1/2+z
1/2+x,1/2+y,z
1/2-x,1/2-y,1/2+z
1/2+x,1/2-y,-z
1/2-x,1/2+y,1/2-z
1/2-x,1/2-y,-z
1/2+x,1/2+y,1/2-z
1/2-x,1/2+y,z
1/2+x,1/2-y,1/2+z
loop_
_atom_site_type_symbol
_atom_site_label
_atom_site_fract_x
_atom_site_fract_y
_atom_site_fract_z
Si Si1 0.825043 0.102075 0.859772
Si Si2 0.284914 0.532161 0.142378
Si Si3 0.882408 0.562045 0.109128
Si Si4 0.415755 0.719804 0.361151
Si Si5 0.916152 0.094276 0.033700
Si Si6 0.084446 0.426645 0.392325
Si Si7 0.194039 0.679652 0.855632
Si Si8 0.500000 0.890828 0.750000
O O1 0.840316 0.108562 0.750000
O O2 0.771336 0.155105 0.895194
O O3 0.780838 0.039307 0.870354
O O4 0.896072 0.099797 0.925773
O O5 0.301507 0.543218 0.250000
O O6 0.206994 0.564123 0.118855
O O7 0.352670 0.554470 0.080385
O O8 0.902266 0.494326 0.139911
O O9 0.933755 0.604291 0.170218
O O10 0.903673 0.570395 0.002642
O O11 0.407232 0.710388 0.250000
O O12 0.500000 0.744116 0.374495
O O13 0.411201 0.657991 0.415309
O O14 0.353189 0.765925 0.395591
O O15 0.000000 0.071272 0.047064
O O16 0.139942 0.377493 0.354515
O O17 0.000000 0.410198 0.370086
O O18 0.210864 0.696349 0.750000
#
# Coordination Sequence:
#
# PCOD9472549 Si02
#       8
#    16  16  16  16  16  16  16   4
#     4  10  22  38  57  86 116 150 193 242 299 366
#     4  11  22  36  58  84 117 156 195 245 300 357
#     4  11  21  33  49  78 118 158 198 231 279 343
#     4   9  19  38  60  88 118 147 192 246 298 355
#     4  11  24  41  62  85 114 157 201 255 310 352
#     4  11  20  30  47  80 114 154 192 228 277 343
#     4  10  20  34  58  86 117 149 185 240 297 353
#     4  12  20  34  52  76 120 168 200 236 270 356
#
# _framework density 19.906972
#
# number of rings (size 3 to 8) (size 9 to 14) (size 15 to 20)
#    0.000    1.517    3.448    2.483    2.897    3.586 
#    0.000    1.379    0.000    0.000    1.793    0.000 
#    0.000    0.000    0.000    0.000    0.000    0.000 
#
# Total GULP energy -323274.525121 kJ/mol
# GULP energy per Si atom -5573.698709 kJ/mol
# Density = 1.986166 g / cm^3
# Si number density = 19.906972 Si / 1000 Ang^3
#
#
#
# Elastic Constant Matrix: (Units=GPa)
#
#
# Indices 1 2 3 4 5 6 
#
# 1 130.2973 15.7881 38.6132 0.0000 0.0000 0.0000
# 2 15.7881 42.5056 7.5072 0.0000 0.0000 0.0000
# 3 38.6132 7.5072 68.7954 0.0000 0.0000 0.0000
# 4 0.0000 0.0000 0.0000 16.0615 0.0000 0.0000
# 5 0.0000 0.0000 0.0000 0.0000 26.0176 0.0000
# 6 0.0000 0.0000 0.0000 0.0000 0.0000 25.4167
#
#
#
# Elastic Compliance Matrix: (Units=1/GPa)
#
#
# Indices 1 2 3 4 5 6 
#
# 1 0.009487 -0.002634 -0.005037 0.000000 0.000000 0.000000
# 2 -0.002634 0.024720 -0.001219 0.000000 0.000000 0.000000
# 3 -0.005037 -0.001219 0.017496 0.000000 0.000000 0.000000
# 4 0.000000 0.000000 0.000000 0.062261 0.000000 0.000000
# 5 0.000000 0.000000 0.000000 0.000000 0.038435 0.000000
# 6 0.000000 0.000000 0.000000 0.000000 0.000000 0.039344
#
#
# Mechanical properties :
#
#
# Convention : Reuss Voigt Hill
#
# Bulk Modulus (GPa) = 29.47930 40.60171 35.04051
# Shear Modulus (GPa) = 22.64174 25.47850 24.06012
#
# Velocity S-wave (km/s) = 3.37616 3.58142 3.48030
# Velocity P-wave (km/s) = 5.48075 6.12716 5.81295
#
# Compressibility (1/GPa) = 0.03392211
#
# Stress axis : x y z
#
# Youngs Moduli (GPa) = 105.41086 40.45312 57.15541
#
# Poissons Ratio (x) = 0.10656 0.28790
# Poissons Ratio (y) = 0.27766 0.06968
# Poissons Ratio (z) = 0.53098 0.04932
#
# Static dielectric constant tensor:
#      x y z
#    x 1.708710 0.000000 0.000000 
#    y 0.000000 1.706790 0.000000 
#    z 0.000000 0.000000 1.706820 
# 
# From -- ./inp_files/34414.got.cif
#   From: 2010.05.17/outbox.cif.g08.bks.cpg/sg63_18_cif.got.tgz:34414.got - 2010.06.03 15:47:04.
