data_PCOD9472315
_publ_section_title
;
Structure prediction by ZEFSAII (Michael W. Deem and Ramdas Pophale) SiO2 
 PCOD9472315
Probable space group: C M C M
;
_chemical_formula_sum "Si O2"
_cell_formula_units_Z 116
_cell_length_a 23.917478
_cell_length_b 29.095057
_cell_length_c 7.946992
_cell_angle_alpha 90.000000
_cell_angle_beta 90.000000
_cell_angle_gamma 90.000000
_cell_volume 5530.155858
_symmetry_space_group_name_H-M "C M C M"
_symmetry_group_IT_number 63
_symmetry_cell_setting 'orthorhombic'
loop_
_space_group_symop_operation_xyz
x,y,z
-x,-y,1/2+z
x,-y,-z
-x,y,1/2-z
-x,-y,-z
x,y,1/2-z
-x,y,z
x,-y,1/2+z
1/2+x,1/2+y,z
1/2-x,1/2-y,1/2+z
1/2+x,1/2-y,-z
1/2-x,1/2+y,1/2-z
1/2-x,1/2-y,-z
1/2+x,1/2+y,1/2-z
1/2-x,1/2+y,z
1/2+x,1/2-y,1/2+z
loop_
_atom_site_type_symbol
_atom_site_label
_atom_site_fract_x
_atom_site_fract_y
_atom_site_fract_z
Si Si1 0.714381 0.549745 0.050338
Si Si2 0.174019 0.795319 0.453619
Si Si3 0.500000 0.084115 0.750000
Si Si4 0.319344 0.904439 0.436246
Si Si5 0.913183 0.050611 0.451542
Si Si6 0.938978 0.152932 0.950519
Si Si7 0.576376 0.947379 0.556065
Si Si8 0.802389 0.308478 0.948013
O O1 0.712520 0.553864 0.250000
O O2 0.651139 0.551847 0.985616
O O3 0.737465 0.500000 0.000000
O O4 0.754683 0.587668 0.977641
O O5 0.176600 0.799518 0.250000
O O6 0.118940 0.823355 0.514048
O O7 0.172199 0.740961 0.495593
O O8 0.235361 0.809049 0.520714
O O9 0.547618 0.080971 0.596044
O O10 0.329228 0.921436 0.250000
O O11 0.358780 0.933795 0.554600
O O12 0.330019 0.850610 0.455775
O O13 0.914922 0.052925 0.250000
O O14 0.937937 0.098075 0.518438
O O15 0.935523 0.000000 0.500000
O O16 0.938635 0.160771 0.750000
O O17 0.000000 0.169886 0.015462
O O18 0.557634 0.941393 0.750000
O O19 0.567446 0.000000 0.500000
O O20 0.811506 0.315456 0.750000
#
# Coordination Sequence:
#
# PCOD9472315 Si02
#       8
#    16  16   4  16  16  16  16  16
#     4  10  20  34  53  79 115 153 189 233 289 351
#     4   9  19  37  60  87 114 148 193 234 294 357
#     4  12  24  44  62  90 112 158 206 256 296 366
#     4  12  23  37  54  84 120 154 193 239 303 360
#     4  10  21  36  55  81 113 152 193 234 279 336
#     4  10  21  37  58  82 111 149 191 236 280 337
#     4  12  24  40  63  88 117 155 203 256 302 360
#     4  10  20  35  59  88 118 148 185 242 297 361
#
# _framework density 20.975899999999999
#
# number of rings (size 3 to 8) (size 9 to 14) (size 15 to 20)
#    0.000    1.517    1.379    4.138    0.000    5.517 
#    0.000    0.000    1.517    0.000    0.000    0.000 
#    0.000    0.000    0.000    0.000    0.000    0.000 
#
# Total GULP energy -323125.565474 kJ/mol
# GULP energy per Si atom -5571.130439 kJ/mol
# Density = 2.092816 g / cm^3
# Si number density = 20.975900 Si / 1000 Ang^3
#
#
#
# Elastic Constant Matrix: (Units=GPa)
#
#
# Indices 1 2 3 4 5 6 
#
# 1 103.6730 32.4474 16.6395 0.0000 0.0000 0.0000
# 2 32.4474 69.8526 7.2536 0.0000 0.0000 0.0000
# 3 16.6395 7.2536 89.4598 0.0000 0.0000 0.0000
# 4 0.0000 0.0000 0.0000 25.5005 0.0000 0.0000
# 5 0.0000 0.0000 0.0000 0.0000 13.2359 0.0000
# 6 0.0000 0.0000 0.0000 0.0000 0.0000 19.2469
#
#
#
# Elastic Compliance Matrix: (Units=1/GPa)
#
#
# Indices 1 2 3 4 5 6 
#
# 1 0.011545 -0.005184 -0.001727 0.000000 0.000000 0.000000
# 2 -0.005184 0.016765 -0.000395 0.000000 0.000000 0.000000
# 3 -0.001727 -0.000395 0.011531 0.000000 0.000000 0.000000
# 4 0.000000 0.000000 0.000000 0.039215 0.000000 0.000000
# 5 0.000000 0.000000 0.000000 0.000000 0.075552 0.000000
# 6 0.000000 0.000000 0.000000 0.000000 0.000000 0.051956
#
#
# Mechanical properties :
#
#
# Convention : Reuss Voigt Hill
#
# Bulk Modulus (GPa) = 39.63576 41.74070 40.68823
# Shear Modulus (GPa) = 21.77828 25.37299 23.57564
#
# Velocity S-wave (km/s) = 3.22569 3.48174 3.35616
# Velocity P-wave (km/s) = 5.72803 6.00882 5.87010
#
# Compressibility (1/GPa) = 0.02522974
#
# Stress axis : x y z
#
# Youngs Moduli (GPa) = 86.61561 59.64909 86.71903
#
# Poissons Ratio (x) = 0.30920 0.14977
# Poissons Ratio (y) = 0.44898 0.03427
# Poissons Ratio (z) = 0.14960 0.02357
#
# Static dielectric constant tensor:
#      x y z
#    x 1.839100 0.000000 0.000000 
#    y 0.000000 1.749610 0.000000 
#    z 0.000000 0.000000 1.746690 
# 
# From -- ./inp_files/11174.got.cif
#   From: 2010.05.17/outbox.cif.g08.bks.cpg/sg63_6_cif.got.tgz:11174.got - 2010.06.03 15:47:04.
