data_PCOD9472643
_publ_section_title
;
Structure prediction by ZEFSAII (Michael W. Deem and Ramdas Pophale) SiO2 
 PCOD9472643
Probable space group: C M C M
;
_chemical_formula_sum "Si O2"
_cell_formula_units_Z 96
_cell_length_a 22.213601
_cell_length_b 28.315496
_cell_length_c 8.776819
_cell_angle_alpha 90.000000
_cell_angle_beta 90.000000
_cell_angle_gamma 90.000000
_cell_volume 5520.523749
_symmetry_space_group_name_H-M "C M C M"
_symmetry_group_IT_number 63
_symmetry_cell_setting 'orthorhombic'
loop_
_space_group_symop_operation_xyz
x,y,z
-x,-y,1/2+z
x,-y,-z
-x,y,1/2-z
-x,-y,-z
x,y,1/2-z
-x,y,z
x,-y,1/2+z
1/2+x,1/2+y,z
1/2-x,1/2-y,1/2+z
1/2+x,1/2-y,-z
1/2-x,1/2+y,1/2-z
1/2-x,1/2-y,-z
1/2+x,1/2+y,1/2-z
1/2-x,1/2+y,z
1/2+x,1/2-y,1/2+z
loop_
_atom_site_type_symbol
_atom_site_label
_atom_site_fract_x
_atom_site_fract_y
_atom_site_fract_z
Si Si1 0.375229 0.364254 0.566408
Si Si2 0.311620 0.891711 0.567761
Si Si3 0.500000 0.219594 0.432450
Si Si4 0.296218 0.448417 0.067768
Si Si5 0.432873 0.862339 0.070331
Si Si6 0.234438 0.800206 0.568013
Si Si7 0.500000 0.669862 0.566873
O O1 0.376393 0.367514 0.750000
O O2 0.344081 0.411000 0.499232
O O3 0.330505 0.321128 0.522755
O O4 0.440619 0.354243 0.500392
O O5 0.307610 0.897445 0.750000
O O6 0.269198 0.930054 0.487843
O O7 0.380000 0.889948 0.512179
O O8 0.282489 0.840800 0.526521
O O9 0.500000 0.215499 0.250000
O O10 0.556581 0.190108 0.499897
O O11 0.500000 0.274342 0.474917
O O12 0.298893 0.448851 0.250000
O O13 0.307384 0.500000 0.000000
O O14 0.420652 0.858681 0.250000
O O15 0.500000 0.884023 0.050489
O O16 0.234951 0.796291 0.750000
O O17 0.250000 0.750000 0.500000
O O18 0.500000 0.666728 0.750000
#
# Coordination Sequence:
#
# PCOD9472643 Si02
#       7
#    16  16   8  16  16  16   8
#     4  10  22  40  58  83 115 151 191 237 287 341
#     4  10  20  35  54  80 111 146 189 234 283 338
#     4   9  19  33  49  74 109 154 197 233 271 325
#     4  11  22  40  65  89 113 143 183 235 292 350
#     4   9  19  32  49  76 110 149 194 234 275 328
#     4   9  20  33  49  75 108 145 185 229 276 329
#     4  11  23  37  56  82 115 156 198 237 286 339
#
# _framework density 17.389655000000001
#
# number of rings (size 3 to 8) (size 9 to 14) (size 15 to 20)
#    0.500    1.667    0.000    4.250    2.333    5.333 
#    0.000    0.417    0.000    0.500    0.000    0.000 
#    0.000    0.000    0.000    0.000    0.000    0.000 
#
# Total GULP energy -267722.805285 kJ/mol
# GULP energy per Si atom -5577.558443 kJ/mol
# Density = 1.735008 g / cm^3
# Si number density = 17.389655 Si / 1000 Ang^3
#
#
#
# Elastic Constant Matrix: (Units=GPa)
#
#
# Indices 1 2 3 4 5 6 
#
# 1 126.2109 49.6189 49.1837 0.0000 0.0000 0.0000
# 2 49.6189 101.1336 38.3021 0.0000 0.0000 0.0000
# 3 49.1837 38.3021 86.2378 0.0000 0.0000 0.0000
# 4 0.0000 0.0000 0.0000 29.1236 0.0000 0.0000
# 5 0.0000 0.0000 0.0000 0.0000 30.8675 0.0000
# 6 0.0000 0.0000 0.0000 0.0000 0.0000 10.6003
#
#
#
# Elastic Compliance Matrix: (Units=1/GPa)
#
#
# Indices 1 2 3 4 5 6 
#
# 1 0.011237 -0.003710 -0.004761 0.000000 0.000000 0.000000
# 2 -0.003710 0.013112 -0.003708 0.000000 0.000000 0.000000
# 3 -0.004761 -0.003708 0.015958 0.000000 0.000000 0.000000
# 4 0.000000 0.000000 0.000000 0.034336 0.000000 0.000000
# 5 0.000000 0.000000 0.000000 0.000000 0.032397 0.000000
# 6 0.000000 0.000000 0.000000 0.000000 0.000000 0.094337
#
#
# Mechanical properties :
#
#
# Convention : Reuss Voigt Hill
#
# Bulk Modulus (GPa) = 62.69736 65.31019 64.00377
# Shear Modulus (GPa) = 21.64014 25.88345 23.76180
#
# Velocity S-wave (km/s) = 3.53147 3.86222 3.70054
# Velocity P-wave (km/s) = 7.26368 7.58468 7.42592
#
# Compressibility (1/GPa) = 0.01594964
#
# Stress axis : x y z
#
# Youngs Moduli (GPa) = 88.99009 76.26323 62.66447
#
# Poissons Ratio (x) = 0.28295 0.29835
# Poissons Ratio (y) = 0.33017 0.23235
# Poissons Ratio (z) = 0.42368 0.28277
#
# Static dielectric constant tensor:
#      x y z
#    x 1.620590 0.000000 0.000000 
#    y 0.000000 1.572680 0.000000 
#    z 0.000000 0.000000 1.579520 
# 
# From -- ./inp_files/10783.got.cif
#   From: 2010.05.17/outbox.cif.g08.bks.cpg/sg63_6_cif.got.tgz:10783.got - 2010.06.03 15:47:04.
