data_PCOD9472266
_publ_section_title
;
Structure prediction by ZEFSAII (Michael W. Deem and Ramdas Pophale) SiO2 
 PCOD9472266
Probable space group: C M C M
;
_chemical_formula_sum "Si O2"
_cell_formula_units_Z 80
_cell_length_a 26.096427
_cell_length_b 9.878373
_cell_length_c 17.132392
_cell_angle_alpha 90.000000
_cell_angle_beta 90.000000
_cell_angle_gamma 90.000000
_cell_volume 4416.563443
_symmetry_space_group_name_H-M "C M C M"
_symmetry_group_IT_number 63
_symmetry_cell_setting 'orthorhombic'
loop_
_space_group_symop_operation_xyz
x,y,z
-x,-y,1/2+z
x,-y,-z
-x,y,1/2-z
-x,-y,-z
x,y,1/2-z
-x,y,z
x,-y,1/2+z
1/2+x,1/2+y,z
1/2-x,1/2-y,1/2+z
1/2+x,1/2-y,-z
1/2-x,1/2+y,1/2-z
1/2-x,1/2-y,-z
1/2+x,1/2+y,1/2-z
1/2-x,1/2+y,z
1/2+x,1/2-y,1/2+z
loop_
_atom_site_type_symbol
_atom_site_label
_atom_site_fract_x
_atom_site_fract_y
_atom_site_fract_z
Si Si1 0.167362 0.168529 0.921164
Si Si2 0.144904 0.869235 0.603547
Si Si3 0.274452 0.162556 0.839460
Si Si4 0.058952 0.326850 0.155612
Si Si5 0.138437 0.443468 0.843148
O O1 0.226996 0.172708 0.897279
O O2 0.141671 0.303283 0.887907
O O3 0.145482 0.029650 0.884902
O O4 0.159430 0.159177 0.013603
O O5 0.188380 0.792098 0.653089
O O6 0.091141 0.799008 0.622970
O O7 0.256007 0.152351 0.750000
O O8 0.310537 0.033596 0.857388
O O9 0.060645 0.319262 0.250000
O O10 0.090685 0.461726 0.133755
O O11 0.000000 0.329715 0.130814
O O12 0.136086 0.419816 0.750000
#
# Coordination Sequence:
#
# PCOD9472266 Si02
#       5
#    16  16  16  16  16
#     4  11  21  33  50  78 113 144 173 214 260 306
#     4  10  22  36  51  78 111 144 178 211 258 317
#     4  10  20  34  53  76 106 146 183 213 255 313
#     4   9  19  39  62  78  98 133 176 220 266 317
#     4   9  19  34  54  80 104 133 179 225 260 304
#
# _framework density 18.113631000000002
#
# number of rings (size 3 to 8) (size 9 to 14) (size 15 to 20)
#    0.000    2.200    0.000    4.200    0.000    9.600 
#    0.000    5.000    0.000    2.400    0.000    0.000 
#    0.000    0.000    0.000    0.000    0.000    0.000 
#
# Total GULP energy -223379.069892 kJ/mol
# GULP energy per Si atom -5584.476747 kJ/mol
# Density = 1.807240 g / cm^3
# Si number density = 18.113631 Si / 1000 Ang^3
#
#
#
# Elastic Constant Matrix: (Units=GPa)
#
#
# Indices 1 2 3 4 5 6 
#
# 1 129.4538 41.9588 31.4339 0.0000 0.0000 0.0000
# 2 41.9588 121.9749 30.1322 0.0000 0.0000 0.0000
# 3 31.4339 30.1322 30.2200 0.0000 0.0000 0.0000
# 4 0.0000 0.0000 0.0000 29.2367 0.0000 0.0000
# 5 0.0000 0.0000 0.0000 0.0000 -29.6422 0.0000
# 6 0.0000 0.0000 0.0000 0.0000 0.0000 -57.8765
#
#
#
# Elastic Compliance Matrix: (Units=1/GPa)
#
#
# Indices 1 2 3 4 5 6 
#
# 1 0.010468 -0.001209 -0.009683 0.000000 0.000000 0.000000
# 2 -0.001209 0.011017 -0.009728 0.000000 0.000000 0.000000
# 3 -0.009683 -0.009728 0.052862 0.000000 0.000000 0.000000
# 4 0.000000 0.000000 0.000000 0.034204 0.000000 0.000000
# 5 0.000000 0.000000 0.000000 0.000000 -0.033736 0.000000
# 6 0.000000 0.000000 0.000000 0.000000 0.000000 -0.017278
#
#
# Mechanical properties :
#
#
# Convention : Reuss Voigt Hill
#
# Bulk Modulus (GPa) = 30.20421 54.29984 42.25202
# Shear Modulus (GPa) = 45.53201 0.21851 22.87526
#
# Velocity S-wave (km/s) = 5.01911 0.34770 3.55755
# Velocity P-wave (km/s) = 7.09222 5.49578 6.34442
#
# Compressibility (1/GPa) = 0.03310797
#
# Stress axis : x y z
#
# Youngs Moduli (GPa) = 95.53132 90.76536 18.91705
#
# Poissons Ratio (x) = 0.10972 0.18317
# Poissons Ratio (y) = 0.11548 0.18403
# Poissons Ratio (z) = 0.92502 0.88297
#
# Static dielectric constant tensor:
#      x y z
#    x 1.602270 0.000000 0.000000 
#    y 0.000000 1.625200 0.000000 
#    z 0.000000 0.000000 1.628210 
# 
# From -- ./inp_files/48733.got.cif
#   From: 2010.05.17/outbox.cif.g08.bks.cpg/sg63_25_cif.got.tgz:48733.got - 2010.06.03 15:47:04.
