data_PCOD9472234
_publ_section_title
;
Structure prediction by ZEFSAII (Michael W. Deem and Ramdas Pophale) SiO2 
 PCOD9472234
Probable space group: C M C M
;
_chemical_formula_sum "Si O2"
_cell_formula_units_Z 96
_cell_length_a 10.943314
_cell_length_b 19.723021
_cell_length_c 22.777694
_cell_angle_alpha 90.000000
_cell_angle_beta 90.000000
_cell_angle_gamma 90.000000
_cell_volume 4916.228410
_symmetry_space_group_name_H-M "C M C M"
_symmetry_group_IT_number 63
_symmetry_cell_setting 'orthorhombic'
loop_
_space_group_symop_operation_xyz
x,y,z
-x,-y,1/2+z
x,-y,-z
-x,y,1/2-z
-x,-y,-z
x,y,1/2-z
-x,y,z
x,-y,1/2+z
1/2+x,1/2+y,z
1/2-x,1/2-y,1/2+z
1/2+x,1/2-y,-z
1/2-x,1/2+y,1/2-z
1/2-x,1/2-y,-z
1/2+x,1/2+y,1/2-z
1/2-x,1/2+y,z
1/2+x,1/2-y,1/2+z
loop_
_atom_site_type_symbol
_atom_site_label
_atom_site_fract_x
_atom_site_fract_y
_atom_site_fract_z
Si Si1 0.140784 0.972109 0.643251
Si Si2 0.359423 0.319994 0.682351
Si Si3 0.296801 0.933640 0.968742
Si Si4 0.134844 0.299837 0.595093
Si Si5 0.852226 0.883905 0.187292
Si Si6 0.642985 0.342963 0.441592
O O1 0.146583 0.901905 0.678177
O O2 0.214741 0.964167 0.583492
O O3 0.000000 0.983875 0.627134
O O4 0.179970 0.036800 0.680678
O O5 0.342422 0.299236 0.750000
O O6 0.500000 0.301391 0.664175
O O7 0.249343 0.297867 0.639676
O O8 0.368064 0.872677 0.936662
O O9 0.216661 0.891559 0.015693
O O10 0.354221 0.000000 0.000000
O O11 0.150313 0.237918 0.549345
O O12 0.000000 0.288640 0.623380
O O13 0.805938 0.857366 0.250000
O O14 0.813608 0.851971 0.125789
O O15 0.000000 0.878106 0.188653
O O16 0.500000 0.361822 0.445572
#
# Coordination Sequence:
#
# PCOD9472234 Si02
#       6
#    16  16  16  16  16  16
#     4   9  16  27  47  79 113 140 172 228 294 337
#     4   9  18  34  58  86 113 146 192 240 284 334
#     4  11  20  33  55  79 106 146 199 246 285 333
#     4  10  23  39  54  80 120 158 191 230 288 353
#     4   9  16  26  44  73 108 141 174 221 283 343
#     4  10  20  34  52  79 114 149 189 237 291 348
#
# _framework density 19.527163999999999
#
# number of rings (size 3 to 8) (size 9 to 14) (size 15 to 20)
#    0.000    2.333    1.667    1.500    0.000    4.667 
#    0.000    2.500    0.000    0.000    0.000    0.000 
#    0.000    0.000    0.000    0.000    0.000    0.000 
#
# Total GULP energy -267252.730851 kJ/mol
# GULP energy per Si atom -5567.765226 kJ/mol
# Density = 1.948272 g / cm^3
# Si number density = 19.527164 Si / 1000 Ang^3
#
#
#
# Elastic Constant Matrix: (Units=GPa)
#
#
# Indices 1 2 3 4 5 6 
#
# 1 95.9269 26.4647 45.3380 0.0000 0.0000 0.0000
# 2 26.4647 81.2210 9.7069 0.0000 0.0000 0.0000
# 3 45.3380 9.7069 97.3097 0.0000 0.0000 0.0000
# 4 0.0000 0.0000 0.0000 3.4671 0.0000 0.0000
# 5 0.0000 0.0000 0.0000 0.0000 114.4200 0.0000
# 6 0.0000 0.0000 0.0000 0.0000 0.0000 17.7958
#
#
#
# Elastic Compliance Matrix: (Units=1/GPa)
#
#
# Indices 1 2 3 4 5 6 
#
# 1 0.014534 -0.003974 -0.006375 0.000000 0.000000 0.000000
# 2 -0.003974 0.013547 0.000500 0.000000 0.000000 0.000000
# 3 -0.006375 0.000500 0.013197 0.000000 0.000000 0.000000
# 4 0.000000 0.000000 0.000000 0.288422 0.000000 0.000000
# 5 0.000000 0.000000 0.000000 0.000000 0.008740 0.000000
# 6 0.000000 0.000000 0.000000 0.000000 0.000000 0.056193
#
#
# Mechanical properties :
#
#
# Convention : Reuss Voigt Hill
#
# Bulk Modulus (GPa) = 46.33877 48.60852 47.47365
# Shear Modulus (GPa) = 11.86173 39.99980 25.93077
#
# Velocity S-wave (km/s) = 2.46732 4.53086 3.64803
# Velocity P-wave (km/s) = 5.64790 7.23314 6.48911
#
# Compressibility (1/GPa) = 0.02158020
#
# Stress axis : x y z
#
# Youngs Moduli (GPa) = 68.80409 73.81645 75.77542
#
# Poissons Ratio (x) = 0.29333 0.48308
# Poissons Ratio (y) = 0.27341 -0.03789
# Poissons Ratio (z) = 0.43864 -0.03691
#
# Static dielectric constant tensor:
#      x y z
#    x 1.664050 0.000000 0.000000 
#    y 0.000000 1.718020 0.000000 
#    z 0.000000 0.000000 1.693430 
# 
# From -- ./inp_files/61663.got.cif
#   From: 2010.05.17/outbox.cif.g08.bks.cpg/sg63_31_cif.got.tgz:61663.got - 2010.06.03 15:47:04.
