data_PCOD9472916
_publ_section_title
;
Structure prediction by ZEFSAII (Michael W. Deem and Ramdas Pophale) SiO2 
 PCOD9472916
Probable space group: C M C M
;
_chemical_formula_sum "Si O2"
_cell_formula_units_Z 64
_cell_length_a 17.698662
_cell_length_b 9.154254
_cell_length_c 20.538487
_cell_angle_alpha 90.000000
_cell_angle_beta 90.000000
_cell_angle_gamma 90.000000
_cell_volume 3327.605560
_symmetry_space_group_name_H-M "C M C M"
_symmetry_group_IT_number 63
_symmetry_cell_setting 'orthorhombic'
loop_
_space_group_symop_operation_xyz
x,y,z
-x,-y,1/2+z
x,-y,-z
-x,y,1/2-z
-x,-y,-z
x,y,1/2-z
-x,y,z
x,-y,1/2+z
1/2+x,1/2+y,z
1/2-x,1/2-y,1/2+z
1/2+x,1/2-y,-z
1/2-x,1/2+y,1/2-z
1/2-x,1/2-y,-z
1/2+x,1/2+y,1/2-z
1/2-x,1/2+y,z
1/2+x,1/2-y,1/2+z
loop_
_atom_site_type_symbol
_atom_site_label
_atom_site_fract_x
_atom_site_fract_y
_atom_site_fract_z
Si Si1 0.000000 0.430187 0.073651
Si Si2 0.635023 0.970836 0.321391
Si Si3 0.157595 0.999022 0.076863
Si Si4 0.000000 0.917599 0.930193
Si Si5 0.760901 0.734348 0.140781
O O1 0.074298 0.466338 0.118855
O O2 0.000000 0.256008 0.061764
O O3 0.000000 0.500000 0.000000
O O4 0.598022 0.958040 0.250000
O O5 0.696989 0.838947 0.326881
O O6 0.683646 0.121429 0.322619
O O7 0.214526 0.126216 0.095161
O O8 0.075786 0.034832 0.105659
O O9 0.187128 0.846173 0.101995
O O10 0.152007 0.000000 0.000000
O O11 0.000000 0.000000 0.000000
#
# Coordination Sequence:
#
# PCOD9472916 Si02
#       5
#     8  16  16   8  16
#     4  12  27  43  67  97 130 170 215 266 323 379
#     4  11  24  44  67  93 131 170 214 262 320 382
#     4  10  20  35  59  90 131 164 206 261 320 371
#     4  10  22  39  59  87 128 166 203 255 323 368
#     4  10  22  38  63  94 124 167 214 259 314 381
#
# _framework density 19.233049000000001
#
# number of rings (size 3 to 8) (size 9 to 14) (size 15 to 20)
#    0.000    1.500    2.500    1.875    7.000    4.000 
#    0.000    0.000    0.000    0.000    0.000    0.000 
#    0.000    0.000    0.000    0.000    0.000    0.000 
#
# Total GULP energy -178222.463089 kJ/mol
# GULP energy per Si atom -5569.451972 kJ/mol
# Density = 1.918927 g / cm^3
# Si number density = 19.233049 Si / 1000 Ang^3
#
#
#
# Elastic Constant Matrix: (Units=GPa)
#
#
# Indices 1 2 3 4 5 6 
#
# 1 125.8569 59.7167 53.0666 0.0000 0.0000 0.0000
# 2 59.7167 152.6397 44.7958 0.0000 0.0000 0.0000
# 3 53.0666 44.7958 116.2296 0.0000 0.0000 0.0000
# 4 0.0000 0.0000 0.0000 -10.8476 0.0000 0.0000
# 5 0.0000 0.0000 0.0000 0.0000 57.9963 0.0000
# 6 0.0000 0.0000 0.0000 0.0000 0.0000 -8.2913
#
#
#
# Elastic Compliance Matrix: (Units=1/GPa)
#
#
# Indices 1 2 3 4 5 6 
#
# 1 0.011082 -0.003214 -0.003821 0.000000 0.000000 0.000000
# 2 -0.003214 0.008319 -0.001739 0.000000 0.000000 0.000000
# 3 -0.003821 -0.001739 0.011018 0.000000 0.000000 0.000000
# 4 0.000000 0.000000 0.000000 -0.092186 0.000000 0.000000
# 5 0.000000 0.000000 0.000000 0.000000 0.017242 0.000000
# 6 0.000000 0.000000 0.000000 0.000000 0.000000 -0.120609
#
#
# Mechanical properties :
#
#
# Convention : Reuss Voigt Hill
#
# Bulk Modulus (GPa) = 77.69029 78.87605 78.28317
# Shear Modulus (GPa) = -34.89286 23.58128 -5.65579
#
# Velocity S-wave (km/s) = -4.26398 3.50534 -1.71670
# Velocity P-wave (km/s) = 4.02987 7.58175 6.07136
#
# Compressibility (1/GPa) = 0.01287162
#
# Stress axis : x y z
#
# Youngs Moduli (GPa) = 90.24011 120.20517 90.75872
#
# Poissons Ratio (x) = 0.38635 0.34676
# Poissons Ratio (y) = 0.29004 0.15781
# Poissons Ratio (z) = 0.34478 0.20901
#
# Static dielectric constant tensor:
#      x y z
#    x 1.717930 0.000000 0.000000 
#    y 0.000000 1.642680 0.000000 
#    z 0.000000 0.000000 1.673570 
# 
# From -- ./inp_files/55056.got.cif
#   From: 2010.05.17/outbox.cif.g08.bks.cpg/sg63_28_cif.got.tgz:55056.got - 2010.06.03 15:47:04.
