data_PCOD9472278
_publ_section_title
;
Structure prediction by ZEFSAII (Michael W. Deem and Ramdas Pophale) SiO2 
 PCOD9472278
Probable space group: C M C M
;
_chemical_formula_sum "Si O2"
_cell_formula_units_Z 96
_cell_length_a 7.443314
_cell_length_b 20.791714
_cell_length_c 27.581468
_cell_angle_alpha 90.000000
_cell_angle_beta 90.000000
_cell_angle_gamma 90.000000
_cell_volume 4268.487464
_symmetry_space_group_name_H-M "C M C M"
_symmetry_group_IT_number 63
_symmetry_cell_setting 'orthorhombic'
loop_
_space_group_symop_operation_xyz
x,y,z
-x,-y,1/2+z
x,-y,-z
-x,y,1/2-z
-x,-y,-z
x,y,1/2-z
-x,y,z
x,-y,1/2+z
1/2+x,1/2+y,z
1/2-x,1/2-y,1/2+z
1/2+x,1/2-y,-z
1/2-x,1/2+y,1/2-z
1/2-x,1/2-y,-z
1/2+x,1/2+y,1/2-z
1/2-x,1/2+y,z
1/2+x,1/2-y,1/2+z
loop_
_atom_site_type_symbol
_atom_site_label
_atom_site_fract_x
_atom_site_fract_y
_atom_site_fract_z
Si Si1 0.780119 0.710152 0.694053
Si Si2 0.713807 0.679011 0.479615
Si Si3 0.216998 0.048478 0.195451
Si Si4 0.293525 0.947829 0.037109
Si Si5 0.289262 0.081229 0.857537
Si Si6 0.219320 0.166873 0.368878
O O1 0.722457 0.711928 0.750000
O O2 0.716867 0.646038 0.666562
O O3 0.725686 0.772702 0.663814
O O4 0.000000 0.709363 0.694818
O O5 0.500000 0.669281 0.479637
O O6 0.750000 0.750000 0.500000
O O7 0.791719 0.622005 0.512265
O O8 0.778960 0.673169 0.424282
O O9 0.277470 0.063360 0.250000
O O10 0.278781 0.101398 0.156894
O O11 0.000000 0.050198 0.195570
O O12 0.272949 0.977800 0.179127
O O13 0.500000 0.969478 0.044772
O O14 0.211046 0.940082 0.090535
O O15 0.212235 0.000000 0.000000
O O16 0.500000 0.094596 0.866494
O O17 0.000000 0.166913 0.369571
#
# Coordination Sequence:
#
# PCOD9472278 Si02
#       6
#    16  16  16  16  16  16
#     4   9  16  28  49  74  98 128 169 213 253 300
#     4  11  22  36  56  80 109 144 182 226 274 330
#     4  10  20  34  54  80 108 137 172 217 265 314
#     4  10  21  37  56  79 109 144 183 229 278 326
#     4  10  20  34  53  77 106 139 175 217 264 317
#     4   9  18  33  52  75 103 135 172 214 261 313
#
# _framework density 22.490402
#
# number of rings (size 3 to 8) (size 9 to 14) (size 15 to 20)
#    0.000    2.167    0.000    3.500    0.000    6.667 
#    0.000    0.833    0.000    1.000    0.000    0.000 
#    0.000    0.000    0.000    0.000    0.000    0.000 
#
# Total GULP energy -268381.240760 kJ/mol
# GULP energy per Si atom -5591.275849 kJ/mol
# Density = 2.243921 g / cm^3
# Si number density = 22.490402 Si / 1000 Ang^3
#
#
#
# Elastic Constant Matrix: (Units=GPa)
#
#
# Indices 1 2 3 4 5 6 
#
# 1 70.8970 -18.5491 -4.3034 0.0000 0.0000 0.0000
# 2 -18.5491 78.9214 -12.3470 0.0000 0.0000 0.0000
# 3 -4.3034 -12.3470 101.2171 0.0000 0.0000 0.0000
# 4 0.0000 0.0000 0.0000 46.5957 0.0000 0.0000
# 5 0.0000 0.0000 0.0000 0.0000 -6.2700 0.0000
# 6 0.0000 0.0000 0.0000 0.0000 0.0000 15.7875
#
#
#
# Elastic Compliance Matrix: (Units=1/GPa)
#
#
# Indices 1 2 3 4 5 6 
#
# 1 0.015148 0.003732 0.001099 0.000000 0.000000 0.000000
# 2 0.003732 0.013837 0.001847 0.000000 0.000000 0.000000
# 3 0.001099 0.001847 0.010152 0.000000 0.000000 0.000000
# 4 0.000000 0.000000 0.000000 0.021461 0.000000 0.000000
# 5 0.000000 0.000000 0.000000 0.000000 -0.159490 0.000000
# 6 0.000000 0.000000 0.000000 0.000000 0.000000 0.063341
#
#
# Mechanical properties :
#
#
# Convention : Reuss Voigt Hill
#
# Bulk Modulus (GPa) = 19.05004 20.07073 19.56038
# Shear Modulus (GPa) = -159.18585 30.30498 -64.44044
#
# Velocity S-wave (km/s) = -8.42218 3.67476 -5.35860
# Velocity P-wave (km/s) = 9.27841 5.19121 5.43784
#
# Compressibility (1/GPa) = 0.05249333
#
# Stress axis : x y z
#
# Youngs Moduli (GPa) = 66.01444 72.27034 98.50519
#
# Poissons Ratio (x) = -0.26973 -0.10829
# Poissons Ratio (y) = -0.24639 -0.18190
# Poissons Ratio (z) = -0.07257 -0.13345
#
# Static dielectric constant tensor:
#      x y z
#    x 1.896160 0.000000 0.000000 
#    y 0.000000 1.759400 0.000000 
#    z 0.000000 0.000000 1.806080 
# 
# From -- ./inp_files/66901.got.cif
#   From: 2010.05.17/outbox.cif.g08.bks.cpg/sg63_34_cif.got.tgz:66901.got - 2010.06.03 15:47:04.
