data_PCOD9472778
_publ_section_title
;
Structure prediction by ZEFSAII (Michael W. Deem and Ramdas Pophale) SiO2 
 PCOD9472778
Probable space group: C M C M
;
_chemical_formula_sum "Si O2"
_cell_formula_units_Z 116
_cell_length_a 32.834068
_cell_length_b 22.135631
_cell_length_c 7.741054
_cell_angle_alpha 90.000000
_cell_angle_beta 90.000000
_cell_angle_gamma 90.000000
_cell_volume 5626.219826
_symmetry_space_group_name_H-M "C M C M"
_symmetry_group_IT_number 63
_symmetry_cell_setting 'orthorhombic'
loop_
_space_group_symop_operation_xyz
x,y,z
-x,-y,1/2+z
x,-y,-z
-x,y,1/2-z
-x,-y,-z
x,y,1/2-z
-x,y,z
x,-y,1/2+z
1/2+x,1/2+y,z
1/2-x,1/2-y,1/2+z
1/2+x,1/2-y,-z
1/2-x,1/2+y,1/2-z
1/2-x,1/2-y,-z
1/2+x,1/2+y,1/2-z
1/2-x,1/2+y,z
1/2+x,1/2-y,1/2+z
loop_
_atom_site_type_symbol
_atom_site_label
_atom_site_fract_x
_atom_site_fract_y
_atom_site_fract_z
Si Si1 0.878412 0.931577 0.941986
Si Si2 0.288648 0.434598 0.053796
Si Si3 0.622860 0.934205 0.956350
Si Si4 0.570716 0.184473 0.045256
Si Si5 0.000000 0.690430 0.750000
Si Si6 0.794061 0.608904 0.447205
Si Si7 0.623217 0.697944 0.039009
Si Si8 0.296906 0.760521 0.043923
O O1 0.894999 0.928946 0.750000
O O2 0.891218 0.867930 0.027231
O O3 0.829063 0.925737 0.942595
O O4 0.887106 0.000000 0.000000
O O5 0.303305 0.436028 0.250000
O O6 0.271681 0.500000 0.000000
O O7 0.249819 0.392176 0.036210
O O8 0.627233 0.930587 0.750000
O O9 0.596109 0.876217 0.004436
O O10 0.669024 0.928854 0.028119
O O11 0.605370 0.000000 0.000000
O O12 0.558863 0.178610 0.250000
O O13 0.535235 0.190108 0.904473
O O14 0.598043 0.244943 0.027550
O O15 0.786309 0.590093 0.250000
O O16 0.809503 0.677435 0.453531
O O17 0.620867 0.697784 0.250000
O O18 0.670688 0.709530 0.992247
O O19 0.300204 0.768102 0.250000
O O20 0.250000 0.750000 0.000000
#
# Coordination Sequence:
#
# PCOD9472778 Si02
#       8
#    16  16  16  16   4  16  16  16
#     4  10  20  35  56  85 125 169 216 264 316 374
#     4  11  21  33  48  72 110 161 217 269 321 370
#     4  10  23  39  63  92 124 165 212 264 323 394
#     4  11  24  45  73 105 133 170 216 263 328 401
#     4  12  26  48  78 102 140 168 204 272 334 394
#     4  11  21  35  51  77 113 157 215 272 321 380
#     4  10  21  39  62  90 128 171 215 269 323 382
#     4  11  22  34  53  81 119 169 220 271 327 374
#
# _framework density 20.617750999999998
#
# number of rings (size 3 to 8) (size 9 to 14) (size 15 to 20)
#    0.000    1.379    2.069    4.759    0.966    4.966 
#    0.000    0.345    0.000    0.000    0.000    0.483 
#    0.000    0.000    0.000    0.000    0.000    0.000 
#
# Total GULP energy -323007.237590 kJ/mol
# GULP energy per Si atom -5569.090303 kJ/mol
# Density = 2.057082 g / cm^3
# Si number density = 20.617751 Si / 1000 Ang^3
#
#
#
# Elastic Constant Matrix: (Units=GPa)
#
#
# Indices 1 2 3 4 5 6 
#
# 1 74.5168 26.7757 21.5449 0.0000 0.0000 0.0000
# 2 26.7757 157.1875 3.6533 0.0000 0.0000 0.0000
# 3 21.5449 3.6533 74.4154 0.0000 0.0000 0.0000
# 4 0.0000 0.0000 0.0000 21.9068 0.0000 0.0000
# 5 0.0000 0.0000 0.0000 0.0000 25.8142 0.0000
# 6 0.0000 0.0000 0.0000 0.0000 0.0000 -4.9432
#
#
#
# Elastic Compliance Matrix: (Units=1/GPa)
#
#
# Indices 1 2 3 4 5 6 
#
# 1 0.015609 -0.002557 -0.004394 0.000000 0.000000 0.000000
# 2 -0.002557 0.006788 0.000407 0.000000 0.000000 0.000000
# 3 -0.004394 0.000407 0.014690 0.000000 0.000000 0.000000
# 4 0.000000 0.000000 0.000000 0.045648 0.000000 0.000000
# 5 0.000000 0.000000 0.000000 0.000000 0.038738 0.000000
# 6 0.000000 0.000000 0.000000 0.000000 0.000000 -0.202299
#
#
# Mechanical properties :
#
#
# Convention : Reuss Voigt Hill
#
# Bulk Modulus (GPa) = 41.66630 45.56303 43.61466
# Shear Modulus (GPa) = -83.69655 25.49861 -29.09897
#
# Velocity S-wave (km/s) = -6.37829 3.52053 -3.76088
# Velocity P-wave (km/s) = 5.83014 6.21872 1.53001
#
# Compressibility (1/GPa) = 0.02400021
#
# Stress axis : x y z
#
# Youngs Moduli (GPa) = 64.06650 147.32121 68.07295
#
# Poissons Ratio (x) = 0.37666 0.29908
# Poissons Ratio (y) = 0.16380 -0.02770
# Poissons Ratio (z) = 0.28148 -0.05996
#
# Static dielectric constant tensor:
#      x y z
#    x 1.711270 0.000000 0.000000 
#    y 0.000000 1.844850 0.000000 
#    z 0.000000 0.000000 1.742800 
# 
# From -- ./inp_files/14725.got.cif
#   From: 2010.05.17/outbox.cif.g08.bks.cpg/sg63_8_cif.got.tgz:14725.got - 2010.06.03 15:47:04.
