data_PCOD9472720
_publ_section_title
;
Structure prediction by ZEFSAII (Michael W. Deem and Ramdas Pophale) SiO2 
 PCOD9472720
Probable space group: C M C M
;
_chemical_formula_sum "Si O2"
_cell_formula_units_Z 64
_cell_length_a 24.718589
_cell_length_b 12.820291
_cell_length_c 9.466386
_cell_angle_alpha 90.000000
_cell_angle_beta 90.000000
_cell_angle_gamma 90.000000
_cell_volume 2999.893029
_symmetry_space_group_name_H-M "C M C M"
_symmetry_group_IT_number 63
_symmetry_cell_setting 'orthorhombic'
loop_
_space_group_symop_operation_xyz
x,y,z
-x,-y,1/2+z
x,-y,-z
-x,y,1/2-z
-x,-y,-z
x,y,1/2-z
-x,y,z
x,-y,1/2+z
1/2+x,1/2+y,z
1/2-x,1/2-y,1/2+z
1/2+x,1/2-y,-z
1/2-x,1/2+y,1/2-z
1/2-x,1/2-y,-z
1/2+x,1/2+y,1/2-z
1/2-x,1/2+y,z
1/2+x,1/2-y,1/2+z
loop_
_atom_site_type_symbol
_atom_site_label
_atom_site_fract_x
_atom_site_fract_y
_atom_site_fract_z
Si Si1 0.781920 0.099405 0.084588
Si Si2 0.677963 0.831899 0.415187
Si Si3 0.939815 0.692600 0.917607
Si Si4 0.563981 0.595105 0.593217
O O1 0.778404 0.076894 0.250000
O O2 0.816282 0.205877 0.068181
O O3 0.722746 0.122476 0.018741
O O4 0.802469 0.000000 0.000000
O O5 0.690820 0.854503 0.250000
O O6 0.616418 0.867048 0.444538
O O7 0.938487 0.718779 0.750000
O O8 0.000000 0.646633 0.945784
O O9 0.934527 0.796657 0.009958
O O10 0.584780 0.500000 0.500000
O O11 0.588623 0.601210 0.750000
O O12 0.500000 0.574080 0.611023
#
# Coordination Sequence:
#
# PCOD9472720 Si02
#       4
#    16  16  16  16
#     4  10  20  35  56  79 104 136 173 218 267 310
#     4   9  19  35  54  79 108 137 173 214 258 311
#     4   9  17  30  48  70  99 134 167 202 249 304
#     4   9  16  25  37  55  83 121 164 205 242 286
#
# _framework density 21.334095000000001
#
# number of rings (size 3 to 8) (size 9 to 14) (size 15 to 20)
#    0.000    2.750    0.000    1.500    0.000    6.000 
#    0.000    2.500    0.000    0.750    0.000    0.000 
#    0.000    0.000    0.000    0.000    0.000    0.000 
#
# Total GULP energy -178465.538881 kJ/mol
# GULP energy per Si atom -5577.048090 kJ/mol
# Density = 2.128554 g / cm^3
# Si number density = 21.334095 Si / 1000 Ang^3
#
#
#
# Elastic Constant Matrix: (Units=GPa)
#
#
# Indices 1 2 3 4 5 6 
#
# 1 165.4346 6.5051 52.8766 0.0000 0.0000 0.0000
# 2 6.5051 41.9422 21.8920 0.0000 0.0000 0.0000
# 3 52.8766 21.8920 73.1728 0.0000 0.0000 0.0000
# 4 0.0000 0.0000 0.0000 25.3731 0.0000 0.0000
# 5 0.0000 0.0000 0.0000 0.0000 13.4521 0.0000
# 6 0.0000 0.0000 0.0000 0.0000 0.0000 -2.5435
#
#
#
# Elastic Compliance Matrix: (Units=1/GPa)
#
#
# Indices 1 2 3 4 5 6 
#
# 1 0.008015 0.002109 -0.006423 0.000000 0.000000 0.000000
# 2 0.002109 0.028810 -0.010144 0.000000 0.000000 0.000000
# 3 -0.006423 -0.010144 0.021342 0.000000 0.000000 0.000000
# 4 0.000000 0.000000 0.000000 0.039412 0.000000 0.000000
# 5 0.000000 0.000000 0.000000 0.000000 0.074338 0.000000
# 6 0.000000 0.000000 0.000000 0.000000 0.000000 -0.393162
#
#
# Mechanical properties :
#
#
# Convention : Reuss Voigt Hill
#
# Bulk Modulus (GPa) = 34.18492 49.23301 41.70896
# Shear Modulus (GPa) = -27.38507 20.54140 -3.42183
#
# Velocity S-wave (km/s) = -3.58666 3.10634 -1.26784
# Velocity P-wave (km/s) = 1.04586 5.99942 4.17727
#
# Compressibility (1/GPa) = 0.02925267
#
# Stress axis : x y z
#
# Youngs Moduli (GPa) = 124.77313 34.71050 46.85552
#
# Poissons Ratio (x) = -0.07321 0.30093
# Poissons Ratio (y) = -0.26318 0.47528
# Poissons Ratio (z) = 0.80137 0.35209
#
# Static dielectric constant tensor:
#      x y z
#    x 1.826460 0.000000 0.000000 
#    y 0.000000 1.769450 0.000000 
#    z 0.000000 0.000000 1.734590 
# 
# From -- ./inp_files/13734.got.cif
#   From: 2010.05.17/outbox.cif.g08.bks.cpg/sg63_7_cif.got.tgz:13734.got - 2010.06.03 15:47:04.
