data_PCOD9472353
_publ_section_title
;
Structure prediction by ZEFSAII (Michael W. Deem and Ramdas Pophale) SiO2 
 PCOD9472353
Probable space group: C M C M
;
_chemical_formula_sum "Si O2"
_cell_formula_units_Z 88
_cell_length_a 21.019421
_cell_length_b 18.486749
_cell_length_c 11.497265
_cell_angle_alpha 90.000000
_cell_angle_beta 90.000000
_cell_angle_gamma 90.000000
_cell_volume 4467.615973
_symmetry_space_group_name_H-M "C M C M"
_symmetry_group_IT_number 63
_symmetry_cell_setting 'orthorhombic'
loop_
_space_group_symop_operation_xyz
x,y,z
-x,-y,1/2+z
x,-y,-z
-x,y,1/2-z
-x,-y,-z
x,y,1/2-z
-x,y,z
x,-y,1/2+z
1/2+x,1/2+y,z
1/2-x,1/2-y,1/2+z
1/2+x,1/2-y,-z
1/2-x,1/2+y,1/2-z
1/2-x,1/2-y,-z
1/2+x,1/2+y,1/2-z
1/2-x,1/2+y,z
1/2+x,1/2-y,1/2+z
loop_
_atom_site_type_symbol
_atom_site_label
_atom_site_fract_x
_atom_site_fract_y
_atom_site_fract_z
Si Si1 0.266794 0.824759 0.373416
Si Si2 0.075076 0.297313 0.886456
Si Si3 0.371980 0.918781 0.458044
Si Si4 0.423792 0.550060 0.115822
Si Si5 0.348483 0.308222 0.544649
Si Si6 0.000000 0.540890 0.625481
O O1 0.233857 0.820027 0.250000
O O2 0.311588 0.893327 0.387867
O O3 0.316006 0.757250 0.382981
O O4 0.212999 0.830015 0.469721
O O5 0.085393 0.286600 0.750000
O O6 0.099857 0.229804 0.960883
O O7 0.000000 0.310210 0.905467
O O8 0.114952 0.365716 0.933496
O O9 0.435662 0.914158 0.381326
O O10 0.364288 0.000000 0.500000
O O11 0.412921 0.520966 0.250000
O O12 0.500000 0.565315 0.109092
O O13 0.409667 0.500000 0.000000
O O14 0.382088 0.623440 0.103968
O O15 0.000000 0.500000 0.500000
O O16 0.000000 0.499158 0.750000
#
# Coordination Sequence:
#
# PCOD9472353 Si02
#       6
#    16  16  16  16  16   8
#     4  10  21  37  57  81 113 155 201 247 294 351
#     4  10  20  34  55  83 115 152 198 248 300 358
#     4  10  21  36  53  81 114 152 194 243 295 354
#     4  10  22  41  66  96 127 159 199 249 310 371
#     4  10  21  38  59  83 116 155 200 247 299 358
#     4  10  20  34  54  78 108 148 187 234 289 344
#
# _framework density 19.697306999999999
#
# number of rings (size 3 to 8) (size 9 to 14) (size 15 to 20)
#    0.000    2.000    0.909    2.182    0.000    5.818 
#    0.000    2.727    0.000    0.000    0.000    0.000 
#    0.000    0.000    0.000    0.000    0.000    0.000 
#
# Total GULP energy -245059.631836 kJ/mol
# GULP energy per Si atom -5569.537087 kJ/mol
# Density = 1.965247 g / cm^3
# Si number density = 19.697307 Si / 1000 Ang^3
#
#
#
# Elastic Constant Matrix: (Units=GPa)
#
#
# Indices 1 2 3 4 5 6 
#
# 1 41.3056 21.4969 18.0489 0.0000 0.0000 0.0000
# 2 21.4969 72.4237 26.2385 0.0000 0.0000 0.0000
# 3 18.0489 26.2385 122.8466 0.0000 0.0000 0.0000
# 4 0.0000 0.0000 0.0000 2.7005 0.0000 0.0000
# 5 0.0000 0.0000 0.0000 0.0000 13.1470 0.0000
# 6 0.0000 0.0000 0.0000 0.0000 0.0000 28.5229
#
#
#
# Elastic Compliance Matrix: (Units=1/GPa)
#
#
# Indices 1 2 3 4 5 6 
#
# 1 0.029415 -0.007766 -0.002663 0.000000 0.000000 0.000000
# 2 -0.007766 0.017016 -0.002493 0.000000 0.000000 0.000000
# 3 -0.002663 -0.002493 0.009064 0.000000 0.000000 0.000000
# 4 0.000000 0.000000 0.000000 0.370299 0.000000 0.000000
# 5 0.000000 0.000000 0.000000 0.000000 0.076063 0.000000
# 6 0.000000 0.000000 0.000000 0.000000 0.000000 0.035060
#
#
# Mechanical properties :
#
#
# Convention : Reuss Voigt Hill
#
# Bulk Modulus (GPa) = 33.72666 40.90494 37.31580
# Shear Modulus (GPa) = 8.73140 20.26018 14.49579
#
# Velocity S-wave (km/s) = 2.10770 3.21062 2.71574
# Velocity P-wave (km/s) = 4.80446 5.87843 5.36837
#
# Compressibility (1/GPa) = 0.02965014
#
# Stress axis : x y z
#
# Youngs Moduli (GPa) = 33.99589 58.76757 110.32603
#
# Poissons Ratio (x) = 0.45641 0.29379
# Poissons Ratio (y) = 0.26402 0.27509
# Poissons Ratio (z) = 0.09053 0.14653
#
# Static dielectric constant tensor:
#      x y z
#    x 1.677240 0.000000 0.000000 
#    y 0.000000 1.699330 0.000000 
#    z 0.000000 0.000000 1.807240 
# 
# From -- ./inp_files/22579.got.cif
#   From: 2010.05.17/outbox.cif.g08.bks.cpg/sg63_12_cif.got.tgz:22579.got - 2010.06.03 15:47:04.
