data_PCOD9472017
_publ_section_title
;
Structure prediction by ZEFSAII (Michael W. Deem and Ramdas Pophale) SiO2 
 PCOD9472017
Probable space group: C M C M
;
_chemical_formula_sum "Si O2"
_cell_formula_units_Z 64
_cell_length_a 9.892311
_cell_length_b 41.977403
_cell_length_c 7.932282
_cell_angle_alpha 90.000000
_cell_angle_beta 90.000000
_cell_angle_gamma 90.000000
_cell_volume 3293.908065
_symmetry_space_group_name_H-M "C M C M"
_symmetry_group_IT_number 63
_symmetry_cell_setting 'orthorhombic'
loop_
_space_group_symop_operation_xyz
x,y,z
-x,-y,1/2+z
x,-y,-z
-x,y,1/2-z
-x,-y,-z
x,y,1/2-z
-x,y,z
x,-y,1/2+z
1/2+x,1/2+y,z
1/2-x,1/2-y,1/2+z
1/2+x,1/2-y,-z
1/2-x,1/2+y,1/2-z
1/2-x,1/2-y,-z
1/2+x,1/2+y,1/2-z
1/2-x,1/2+y,z
1/2+x,1/2-y,1/2+z
loop_
_atom_site_type_symbol
_atom_site_label
_atom_site_fract_x
_atom_site_fract_y
_atom_site_fract_z
Si Si1 0.346703 0.093173 0.548158
Si Si2 0.155975 0.850154 0.043972
Si Si3 0.652542 0.463567 0.951292
Si Si4 0.347150 0.721392 0.952657
O O1 0.355292 0.097012 0.750000
O O2 0.500000 0.092076 0.481758
O O3 0.258442 0.122924 0.482600
O O4 0.262807 0.061151 0.515368
O O5 0.157081 0.850754 0.250000
O O6 0.193655 0.814207 0.990545
O O7 0.000000 0.856309 0.993525
O O8 0.649852 0.461503 0.750000
O O9 0.500000 0.456049 0.015332
O O10 0.682445 0.500000 0.000000
O O11 0.351596 0.720080 0.750000
O O12 0.500000 0.727222 0.014117
O O13 0.250000 0.750000 0.000000
#
# Coordination Sequence:
#
# PCOD9472017 Si02
#       4
#    16  16  16  16
#     4  10  20  33  52  79 106 132 165 206 253 302
#     4   8  15  30  51  72  97 132 172 211 249 294
#     4  10  21  37  57  79 102 132 170 208 247 294
#     4   9  18  32  50  74 102 132 169 211 254 301
#
# _framework density 19.429808000000001
#
# number of rings (size 3 to 8) (size 9 to 14) (size 15 to 20)
#    0.000    2.750    0.000    3.000    0.000    5.000 
#    0.000    3.750    0.000    1.500    0.000    0.000 
#    0.000    0.000    0.000    0.000    0.000    0.000 
#
# Total GULP energy -178510.435364 kJ/mol
# GULP energy per Si atom -5578.451105 kJ/mol
# Density = 1.938558 g / cm^3
# Si number density = 19.429808 Si / 1000 Ang^3
#
#
#
# Elastic Constant Matrix: (Units=GPa)
#
#
# Indices 1 2 3 4 5 6 
#
# 1 169.5905 144.0097 9.2478 0.0000 0.0000 0.0000
# 2 144.0097 169.2658 2.2329 0.0000 0.0000 0.0000
# 3 9.2478 2.2329 16.2645 0.0000 0.0000 0.0000
# 4 0.0000 0.0000 0.0000 24.3934 0.0000 0.0000
# 5 0.0000 0.0000 0.0000 0.0000 19.1008 0.0000
# 6 0.0000 0.0000 0.0000 0.0000 0.0000 36.2080
#
#
#
# Elastic Compliance Matrix: (Units=1/GPa)
#
#
# Indices 1 2 3 4 5 6 
#
# 1 0.022861 -0.019313 -0.010347 0.000000 0.000000 0.000000
# 2 -0.019313 0.022235 0.007929 0.000000 0.000000 0.000000
# 3 -0.010347 0.007929 0.066278 0.000000 0.000000 0.000000
# 4 0.000000 0.000000 0.000000 0.040995 0.000000 0.000000
# 5 0.000000 0.000000 0.000000 0.000000 0.052354 0.000000
# 6 0.000000 0.000000 0.000000 0.000000 0.000000 0.027618
#
#
# Mechanical properties :
#
#
# Convention : Reuss Voigt Hill
#
# Bulk Modulus (GPa) = 14.72514 74.01126 44.36820
# Shear Modulus (GPa) = 16.75372 29.24913 23.00143
#
# Velocity S-wave (km/s) = 2.93963 3.88412 3.44440
# Velocity P-wave (km/s) = 4.37230 7.63476 6.22119
#
# Compressibility (1/GPa) = 0.06791108
#
# Stress axis : x y z
#
# Youngs Moduli (GPa) = 43.74276 44.97436 15.08788
#
# Poissons Ratio (x) = 0.86861 0.15611
# Poissons Ratio (y) = 0.84482 -0.11963
# Poissons Ratio (z) = 0.45260 -0.35659
#
# Static dielectric constant tensor:
#      x y z
#    x 1.679650 0.000000 0.000000 
#    y 0.000000 1.662030 0.000000 
#    z 0.000000 0.000000 1.712990 
# 
# From -- ./inp_files/16174.got.cif
#   From: 2010.05.17/outbox.cif.g08.bks.cpg/sg63_9_cif.got.tgz:16174.got - 2010.06.03 15:47:04.
