data_PCOD9472777
_publ_section_title
;
Structure prediction by ZEFSAII (Michael W. Deem and Ramdas Pophale) SiO2 
 PCOD9472777
Probable space group: C M C M
;
_chemical_formula_sum "Si O2"
_cell_formula_units_Z 112
_cell_length_a 16.620896
_cell_length_b 9.522754
_cell_length_c 29.343350
_cell_angle_alpha 90.000000
_cell_angle_beta 90.000000
_cell_angle_gamma 90.000000
_cell_volume 4644.368718
_symmetry_space_group_name_H-M "C M C M"
_symmetry_group_IT_number 63
_symmetry_cell_setting 'orthorhombic'
loop_
_space_group_symop_operation_xyz
x,y,z
-x,-y,1/2+z
x,-y,-z
-x,y,1/2-z
-x,-y,-z
x,y,1/2-z
-x,y,z
x,-y,1/2+z
1/2+x,1/2+y,z
1/2-x,1/2-y,1/2+z
1/2+x,1/2-y,-z
1/2-x,1/2+y,1/2-z
1/2-x,1/2-y,-z
1/2+x,1/2+y,1/2-z
1/2-x,1/2+y,z
1/2+x,1/2-y,1/2+z
loop_
_atom_site_type_symbol
_atom_site_label
_atom_site_fract_x
_atom_site_fract_y
_atom_site_fract_z
Si Si1 0.173657 0.022454 0.123919
Si Si2 0.910549 0.861748 0.301490
Si Si3 0.844617 0.499385 0.106424
Si Si4 0.908288 0.462525 0.200221
Si Si5 0.410733 0.275660 0.941370
Si Si6 0.732499 0.729470 0.201093
Si Si7 0.323788 0.158694 0.480955
O O1 0.253960 0.936241 0.111542
O O2 0.145782 0.104524 0.079237
O O3 0.212523 0.130472 0.159718
O O4 0.101860 0.956057 0.153292
O O5 0.912869 0.927678 0.250000
O O6 0.822723 0.788151 0.301493
O O7 0.000000 0.792118 0.305170
O O8 0.886927 0.540936 0.153653
O O9 0.894388 0.370594 0.085161
O O10 0.837325 0.630982 0.072262
O O11 0.904679 0.535931 0.250000
O O12 0.837848 0.346320 0.201189
O O13 0.000000 0.406952 0.196674
O O14 0.500000 0.322962 0.932650
O O15 0.396923 0.235921 0.993842
O O16 0.726504 0.653407 0.250000
O O17 0.250000 0.250000 0.500000
O O18 0.315084 0.000000 0.500000
#
# Coordination Sequence:
#
# PCOD9472777 Si02
#       7
#    16  16  16  16  16  16  16
#     4  12  20  35  60  89 117 159 205 258 315 383
#     4  10  21  37  56  81 116 159 206 254 307 375
#     4  11  22  37  62  89 125 163 209 259 325 383
#     4  10  20  35  56  85 124 165 207 265 327 384
#     4  11  23  39  62  94 126 158 207 268 320 382
#     4  10  21  36  56  84 122 164 209 259 316 381
#     4  10  22  41  66  98 128 171 215 268 328 400
#
# _framework density 24.115226
#
# number of rings (size 3 to 8) (size 9 to 14) (size 15 to 20)
#    0.000    1.429    4.286    1.286    0.000    4.286 
#    0.000    2.857    0.000    2.143    0.000    0.000 
#    0.000    0.000    0.000    0.000    0.000    0.000 
#
# Total GULP energy -312606.602951 kJ/mol
# GULP energy per Si atom -5582.260767 kJ/mol
# Density = 2.406034 g / cm^3
# Si number density = 24.115226 Si / 1000 Ang^3
#
#
#
# Elastic Constant Matrix: (Units=GPa)
#
#
# Indices 1 2 3 4 5 6 
#
# 1 179.5978 17.0544 18.2811 0.0000 0.0000 0.0000
# 2 17.0544 12.4332 -15.0291 0.0000 0.0000 0.0000
# 3 18.2811 -15.0291 89.0689 0.0000 0.0000 0.0000
# 4 0.0000 0.0000 0.0000 18.2944 0.0000 0.0000
# 5 0.0000 0.0000 0.0000 0.0000 32.3259 0.0000
# 6 0.0000 0.0000 0.0000 0.0000 0.0000 27.5680
#
#
#
# Elastic Compliance Matrix: (Units=1/GPa)
#
#
# Indices 1 2 3 4 5 6 
#
# 1 0.007415 -0.015088 -0.004068 0.000000 0.000000 0.000000
# 2 -0.015088 0.131738 0.025326 0.000000 0.000000 0.000000
# 3 -0.004068 0.025326 0.016335 0.000000 0.000000 0.000000
# 4 0.000000 0.000000 0.000000 0.054662 0.000000 0.000000
# 5 0.000000 0.000000 0.000000 0.000000 0.030935 0.000000
# 6 0.000000 0.000000 0.000000 0.000000 0.000000 0.036274
#
#
# Mechanical properties :
#
#
# Convention : Reuss Voigt Hill
#
# Bulk Modulus (GPa) = 5.95845 35.74583 20.85214
# Shear Modulus (GPa) = 15.57823 33.02389 24.30106
#
# Velocity S-wave (km/s) = 2.54439 3.70458 3.17788
# Velocity P-wave (km/s) = 3.33288 5.75792 4.70435
#
# Compressibility (1/GPa) = 0.16782902
#
# Stress axis : x y z
#
# Youngs Moduli (GPa) = 134.86657 7.59083 61.21643
#
# Poissons Ratio (x) = 0.11453 0.24901
# Poissons Ratio (y) = 2.03481 -1.55034
# Poissons Ratio (z) = 0.54859 -0.19224
#
# Static dielectric constant tensor:
#      x y z
#    x 1.932200 0.000000 0.000000 
#    y 0.000000 1.957130 0.000000 
#    z 0.000000 0.000000 2.013090 
# 
# From -- ./inp_files/73418.got.cif
#   From: 2010.05.17/outbox.cif.g08.bks.cpg/sg63_37_cif.got.tgz:73418.got - 2010.06.03 15:47:04.
