data_PCOD9472896
_publ_section_title
;
Structure prediction by ZEFSAII (Michael W. Deem and Ramdas Pophale) SiO2 
 PCOD9472896
Probable space group: C M C M
;
_chemical_formula_sum "Si O2"
_cell_formula_units_Z 68
_cell_length_a 7.422181
_cell_length_b 24.334975
_cell_length_c 14.840679
_cell_angle_alpha 90.000000
_cell_angle_beta 90.000000
_cell_angle_gamma 90.000000
_cell_volume 2680.502502
_symmetry_space_group_name_H-M "C M C M"
_symmetry_group_IT_number 63
_symmetry_cell_setting 'orthorhombic'
loop_
_space_group_symop_operation_xyz
x,y,z
-x,-y,1/2+z
x,-y,-z
-x,y,1/2-z
-x,-y,-z
x,y,1/2-z
-x,y,z
x,-y,1/2+z
1/2+x,1/2+y,z
1/2-x,1/2-y,1/2+z
1/2+x,1/2-y,-z
1/2-x,1/2+y,1/2-z
1/2-x,1/2-y,-z
1/2+x,1/2+y,1/2-z
1/2-x,1/2+y,z
1/2+x,1/2-y,1/2+z
loop_
_atom_site_type_symbol
_atom_site_label
_atom_site_fract_x
_atom_site_fract_y
_atom_site_fract_z
Si Si1 0.709202 0.640513 0.349427
Si Si2 0.000000 0.024917 0.250000
Si Si3 0.281189 0.625910 0.955764
Si Si4 0.783285 0.767457 0.147468
Si Si5 0.706793 0.010684 0.895665
O O1 0.790736 0.631410 0.250000
O O2 0.500000 0.623468 0.340827
O O3 0.785535 0.616823 0.441891
O O4 0.709739 0.706361 0.365263
O O5 0.842128 0.017532 0.171928
O O6 0.500000 0.626217 0.958739
O O7 0.221622 0.685309 0.919912
O O8 0.224175 0.577053 0.890299
O O9 0.740536 0.784260 0.250000
O O10 0.000000 0.763091 0.140271
O O11 0.500000 0.995219 0.880162
O O12 0.756350 0.000000 0.000000
#
# Coordination Sequence:
#
# PCOD9472896 Si02
#       5
#    16   4  16  16  16
#     4   9  18  33  50  79 119 165 221 271 317 388
#     4  12  24  48  80 100 136 180 216 272 360 392
#     4  10  20  35  59  85 122 171 215 266 333 396
#     4   9  18  30  50  79 115 159 214 268 324 389
#     4  11  26  47  71 106 139 172 225 280 334 411
#
# _framework density 25.368376000000001
#
# number of rings (size 3 to 8) (size 9 to 14) (size 15 to 20)
#    0.000    2.118    1.176    1.412    1.647    1.882 
#    2.118    0.000    0.000    0.000    0.000    0.000 
#    0.000    0.000    0.000    0.000    0.000    0.000 
#
# Total GULP energy -189951.132743 kJ/mol
# GULP energy per Si atom -5586.798022 kJ/mol
# Density = 2.531064 g / cm^3
# Si number density = 25.368376 Si / 1000 Ang^3
#
#
#
# Elastic Constant Matrix: (Units=GPa)
#
#
# Indices 1 2 3 4 5 6 
#
# 1 136.3107 15.1360 63.6609 0.0000 0.0000 0.0000
# 2 15.1360 125.5856 38.8858 0.0000 0.0000 0.0000
# 3 63.6609 38.8858 143.4878 0.0000 0.0000 0.0000
# 4 0.0000 0.0000 0.0000 -267.9344 0.0000 0.0000
# 5 0.0000 0.0000 0.0000 0.0000 21.8242 0.0000
# 6 0.0000 0.0000 0.0000 0.0000 0.0000 30.9333
#
#
#
# Elastic Compliance Matrix: (Units=1/GPa)
#
#
# Indices 1 2 3 4 5 6 
#
# 1 0.009257 0.000170 -0.004153 0.000000 0.000000 0.000000
# 2 0.000170 0.008695 -0.002432 0.000000 0.000000 0.000000
# 3 -0.004153 -0.002432 0.009471 0.000000 0.000000 0.000000
# 4 0.000000 0.000000 0.000000 -0.003732 0.000000 0.000000
# 5 0.000000 0.000000 0.000000 0.000000 0.045821 0.000000
# 6 0.000000 0.000000 0.000000 0.000000 0.000000 0.032328
#
#
# Mechanical properties :
#
#
# Convention : Reuss Voigt Hill
#
# Bulk Modulus (GPa) = 68.52432 71.19437 69.85935
# Shear Modulus (GPa) = 41.82939 -23.85528 8.98705
#
# Velocity S-wave (km/s) = 4.06504 -3.06985 1.88423
# Velocity P-wave (km/s) = 7.00736 3.94460 5.68608
#
# Compressibility (1/GPa) = 0.01459336
#
# Stress axis : x y z
#
# Youngs Moduli (GPa) = 108.02749 115.00592 105.58638
#
# Poissons Ratio (x) = -0.01958 0.43851
# Poissons Ratio (y) = -0.01840 0.25678
# Poissons Ratio (z) = 0.44865 0.27969
#
# Static dielectric constant tensor:
#      x y z
#    x 1.923030 0.000000 0.000000 
#    y 0.000000 2.080990 0.000000 
#    z 0.000000 0.000000 2.044140 
# 
# From -- ./inp_files/27748.got.cif
#   From: 2010.05.17/outbox.cif.g08.bks.cpg/sg63_14_cif.got.tgz:27748.got - 2010.06.03 15:47:04.
