data_PCOD9472115
_publ_section_title
;
Structure prediction by ZEFSAII (Michael W. Deem and Ramdas Pophale) SiO2 
 PCOD9472115
Probable space group: C M C M
;
_chemical_formula_sum "Si O2"
_cell_formula_units_Z 96
_cell_length_a 22.357988
_cell_length_b 14.164380
_cell_length_c 15.102363
_cell_angle_alpha 90.000000
_cell_angle_beta 90.000000
_cell_angle_gamma 90.000000
_cell_volume 4782.722606
_symmetry_space_group_name_H-M "C M C M"
_symmetry_group_IT_number 63
_symmetry_cell_setting 'orthorhombic'
loop_
_space_group_symop_operation_xyz
x,y,z
-x,-y,1/2+z
x,-y,-z
-x,y,1/2-z
-x,-y,-z
x,y,1/2-z
-x,y,z
x,-y,1/2+z
1/2+x,1/2+y,z
1/2-x,1/2-y,1/2+z
1/2+x,1/2-y,-z
1/2-x,1/2+y,1/2-z
1/2-x,1/2-y,-z
1/2+x,1/2+y,1/2-z
1/2-x,1/2+y,z
1/2+x,1/2-y,1/2+z
loop_
_atom_site_type_symbol
_atom_site_label
_atom_site_fract_x
_atom_site_fract_y
_atom_site_fract_z
Si Si1 0.567022 0.152726 0.516442
Si Si2 0.154975 0.238539 0.913074
Si Si3 0.155542 0.017484 0.594964
Si Si4 0.932109 0.762835 0.250000
Si Si5 0.772410 0.405854 0.646194
Si Si6 0.432981 0.490539 0.250000
Si Si7 0.403505 0.011202 0.355048
O O1 0.500000 0.192046 0.519722
O O2 0.617459 0.231690 0.499428
O O3 0.580186 0.090376 0.603579
O O4 0.570152 0.082136 0.430382
O O5 0.169353 0.129216 0.900149
O O6 0.108295 0.262906 0.833661
O O7 0.210808 0.308002 0.901502
O O8 0.107378 0.986212 0.666353
O O9 0.128213 0.000000 0.500000
O O10 0.216124 0.958890 0.605967
O O11 0.937291 0.876168 0.250000
O O12 0.000000 0.724976 0.250000
O O13 0.761524 0.387897 0.750000
O O14 0.832212 0.469747 0.639655
O O15 0.500000 0.528830 0.250000
O O16 0.420440 0.022434 0.250000
#
# Coordination Sequence:
#
# PCOD9472115 Si02
#       7
#    16  16  16   8  16   8  16
#     4  10  20  33  55  86 121 161 207 253 301 363
#     4  10  21  37  57  90 125 155 205 259 302 360
#     4  11  24  40  66  96 120 162 205 252 317 372
#     4   9  16  31  58  88 117 152 194 254 311 345
#     4  10  20  37  60  89 127 158 199 252 308 373
#     4   9  20  41  64  90 123 154 202 258 301 355
#     4   9  19  34  53  83 124 167 196 246 308 369
#
# _framework density 20.072247999999998
#
# number of rings (size 3 to 8) (size 9 to 14) (size 15 to 20)
#    0.000    2.167    1.667    1.500    5.833    3.000 
#    0.000    0.000    1.833    0.000    0.000    0.000 
#    0.000    1.333    0.000    0.000    0.000    0.000 
#
# Total GULP energy -267782.245610 kJ/mol
# GULP energy per Si atom -5578.796784 kJ/mol
# Density = 2.002656 g / cm^3
# Si number density = 20.072248 Si / 1000 Ang^3
#
#
#
# Elastic Constant Matrix: (Units=GPa)
#
#
# Indices 1 2 3 4 5 6 
#
# 1 102.7664 29.9643 37.3647 0.0000 0.0000 0.0000
# 2 29.9643 39.6092 14.3294 0.0000 0.0000 0.0000
# 3 37.3647 14.3294 111.4671 0.0000 0.0000 0.0000
# 4 0.0000 0.0000 0.0000 20.3158 0.0000 0.0000
# 5 0.0000 0.0000 0.0000 0.0000 0.8318 0.0000
# 6 0.0000 0.0000 0.0000 0.0000 0.0000 27.3493
#
#
#
# Elastic Compliance Matrix: (Units=1/GPa)
#
#
# Indices 1 2 3 4 5 6 
#
# 1 0.013609 -0.009067 -0.003396 0.000000 0.000000 0.000000
# 2 -0.009067 0.032518 -0.001141 0.000000 0.000000 0.000000
# 3 -0.003396 -0.001141 0.010256 0.000000 0.000000 0.000000
# 4 0.000000 0.000000 0.000000 0.049223 0.000000 0.000000
# 5 0.000000 0.000000 0.000000 0.000000 1.202283 0.000000
# 6 0.000000 0.000000 0.000000 0.000000 0.000000 0.036564
#
#
# Mechanical properties :
#
#
# Convention : Reuss Voigt Hill
#
# Bulk Modulus (GPa) = 34.27502 46.35106 40.31304
# Shear Modulus (GPa) = 3.61955 21.17832 12.39893
#
# Velocity S-wave (km/s) = 1.34431 3.25176 2.48808
# Velocity P-wave (km/s) = 4.41842 6.10253 5.32744
#
# Compressibility (1/GPa) = 0.02917577
#
# Stress axis : x y z
#
# Youngs Moduli (GPa) = 73.47891 30.75176 97.49964
#
# Poissons Ratio (x) = 0.27882 0.33115
# Poissons Ratio (y) = 0.66621 0.11126
# Poissons Ratio (z) = 0.24956 0.03509
#
# Static dielectric constant tensor:
#      x y z
#    x 1.699570 0.000000 0.000000 
#    y 0.000000 1.754200 0.000000 
#    z 0.000000 0.000000 1.735440 
# 
# From -- ./inp_files/35425.got.cif
#   From: 2010.05.17/outbox.cif.g08.bks.cpg/sg63_18_cif.got.tgz:35425.got - 2010.06.03 15:47:04.
