data_PCOD9472522
_publ_section_title
;
Structure prediction by ZEFSAII (Michael W. Deem and Ramdas Pophale) SiO2 
 PCOD9472522
Probable space group: C M C M
;
_chemical_formula_sum "Si O2"
_cell_formula_units_Z 88
_cell_length_a 21.745897
_cell_length_b 8.981929
_cell_length_c 22.512260
_cell_angle_alpha 90.000000
_cell_angle_beta 90.000000
_cell_angle_gamma 90.000000
_cell_volume 4397.096940
_symmetry_space_group_name_H-M "C M C M"
_symmetry_group_IT_number 63
_symmetry_cell_setting 'orthorhombic'
loop_
_space_group_symop_operation_xyz
x,y,z
-x,-y,1/2+z
x,-y,-z
-x,y,1/2-z
-x,-y,-z
x,y,1/2-z
-x,y,z
x,-y,1/2+z
1/2+x,1/2+y,z
1/2-x,1/2-y,1/2+z
1/2+x,1/2-y,-z
1/2-x,1/2+y,1/2-z
1/2-x,1/2-y,-z
1/2+x,1/2+y,1/2-z
1/2-x,1/2+y,z
1/2+x,1/2-y,1/2+z
loop_
_atom_site_type_symbol
_atom_site_label
_atom_site_fract_x
_atom_site_fract_y
_atom_site_fract_z
Si Si1 0.816711 0.704489 0.681720
Si Si2 0.629323 0.650721 0.911885
Si Si3 0.573870 0.344182 0.872228
Si Si4 0.283887 0.103561 0.381645
Si Si5 0.227266 0.000000 0.500000
Si Si6 0.071871 0.664195 0.511037
O O1 0.798960 0.682088 0.750000
O O2 0.887227 0.757800 0.677050
O O3 0.776018 0.834238 0.651703
O O4 0.803791 0.554761 0.644556
O O5 0.597494 0.513060 0.879385
O O6 0.663259 0.773579 0.872272
O O7 0.682070 0.591796 0.956860
O O8 0.581130 0.736749 0.953102
O O9 0.500000 0.339941 0.866058
O O10 0.594638 0.257563 0.932640
O O11 0.268106 0.088477 0.451860
O O12 0.098941 0.500000 0.500000
O O13 0.000000 0.643383 0.523273
#
# Coordination Sequence:
#
# PCOD9472522 Si02
#       6
#    16  16  16  16   8  16
#     4  12  25  45  66  90 127 170 220 264 317 384
#     4  12  21  36  62  94 133 168 209 254 324 392
#     4  11  23  41  62  89 124 169 221 266 319 375
#     4  12  25  40  65 100 130 172 208 266 328 388
#     4  12  22  36  63  94 137 162 200 256 326 396
#     4  10  20  34  56  89 129 168 205 255 319 389
#
# _framework density 20.013204999999999
#
# number of rings (size 3 to 8) (size 9 to 14) (size 15 to 20)
#    0.000    0.545    5.455    2.727    3.818    1.818 
#    0.000    1.818    0.000    0.000    0.000    0.000 
#    0.000    0.000    0.000    0.000    0.000    0.000 
#
# Total GULP energy -245829.393905 kJ/mol
# GULP energy per Si atom -5587.031680 kJ/mol
# Density = 1.996765 g / cm^3
# Si number density = 20.013205 Si / 1000 Ang^3
#
#
#
# Elastic Constant Matrix: (Units=GPa)
#
#
# Indices 1 2 3 4 5 6 
#
# 1 80.3411 46.8772 32.8245 0.0000 0.0000 0.0000
# 2 46.8772 126.8583 15.3816 0.0000 0.0000 0.0000
# 3 32.8245 15.3816 47.4167 0.0000 0.0000 0.0000
# 4 0.0000 0.0000 0.0000 12.6739 0.0000 0.0000
# 5 0.0000 0.0000 0.0000 0.0000 13.5189 0.0000
# 6 0.0000 0.0000 0.0000 0.0000 0.0000 33.5614
#
#
#
# Elastic Compliance Matrix: (Units=1/GPa)
#
#
# Indices 1 2 3 4 5 6 
#
# 1 0.021346 -0.006346 -0.012718 0.000000 0.000000 0.000000
# 2 -0.006346 0.010092 0.001119 0.000000 0.000000 0.000000
# 3 -0.012718 0.001119 0.029531 0.000000 0.000000 0.000000
# 4 0.000000 0.000000 0.000000 0.078903 0.000000 0.000000
# 5 0.000000 0.000000 0.000000 0.000000 0.073970 0.000000
# 6 0.000000 0.000000 0.000000 0.000000 0.000000 0.029796
#
#
# Mechanical properties :
#
#
# Convention : Reuss Voigt Hill
#
# Bulk Modulus (GPa) = 39.87411 49.42030 44.64720
# Shear Modulus (GPa) = 17.36792 22.58635 19.97714
#
# Velocity S-wave (km/s) = 2.94908 3.36307 3.16285
# Velocity P-wave (km/s) = 5.61812 6.31092 5.97457
#
# Compressibility (1/GPa) = 0.02507893
#
# Stress axis : x y z
#
# Youngs Moduli (GPa) = 46.84784 99.08843 33.86288
#
# Poissons Ratio (x) = 0.62878 0.43068
# Poissons Ratio (y) = 0.29728 -0.03790
# Poissons Ratio (z) = 0.59582 -0.11089
#
# Static dielectric constant tensor:
#      x y z
#    x 1.741620 0.000000 0.000000 
#    y 0.000000 1.728130 0.000000 
#    z 0.000000 0.000000 1.692720 
# 
# From -- ./inp_files/64413.got.cif
#   From: 2010.05.17/outbox.cif.g08.bks.cpg/sg63_33_cif.got.tgz:64413.got - 2010.06.03 15:47:04.
