data_PCOD9472995
_publ_section_title
;
Structure prediction by ZEFSAII (Michael W. Deem and Ramdas Pophale) SiO2 
 PCOD9472995
Probable space group: C M C M
;
_chemical_formula_sum "Si O2"
_cell_formula_units_Z 80
_cell_length_a 8.664706
_cell_length_b 19.600724
_cell_length_c 26.696824
_cell_angle_alpha 90.000000
_cell_angle_beta 90.000000
_cell_angle_gamma 90.000000
_cell_volume 4534.042045
_symmetry_space_group_name_H-M "C M C M"
_symmetry_group_IT_number 63
_symmetry_cell_setting 'orthorhombic'
loop_
_space_group_symop_operation_xyz
x,y,z
-x,-y,1/2+z
x,-y,-z
-x,y,1/2-z
-x,-y,-z
x,y,1/2-z
-x,y,z
x,-y,1/2+z
1/2+x,1/2+y,z
1/2-x,1/2-y,1/2+z
1/2+x,1/2-y,-z
1/2-x,1/2+y,1/2-z
1/2-x,1/2-y,-z
1/2+x,1/2+y,1/2-z
1/2-x,1/2+y,z
1/2+x,1/2-y,1/2+z
loop_
_atom_site_type_symbol
_atom_site_label
_atom_site_fract_x
_atom_site_fract_y
_atom_site_fract_z
Si Si1 0.312279 0.321717 0.358339
Si Si2 0.185390 0.077713 0.551154
Si Si3 0.683928 0.330934 0.643290
Si Si4 0.177024 0.833404 0.250000
Si Si5 0.815652 0.574163 0.056316
Si Si6 0.322180 0.832596 0.750000
O O1 0.500000 0.315474 0.355531
O O2 0.273959 0.370385 0.404489
O O3 0.243561 0.246399 0.364536
O O4 0.256431 0.351300 0.304439
O O5 0.252650 0.099482 0.497439
O O6 0.000000 0.073575 0.547608
O O7 0.251477 0.002609 0.562092
O O8 0.500000 0.332584 0.640756
O O9 0.755701 0.378862 0.600984
O O10 0.739434 0.353197 0.698715
O O11 0.176904 0.750502 0.250000
O O12 0.000000 0.857995 0.250000
O O13 0.000000 0.572804 0.055269
O O14 0.500000 0.854881 0.750000
#
# Coordination Sequence:
#
# PCOD9472995 Si02
#       6
#    16  16  16   8  16   8
#     4   9  18  33  55  80 107 139 172 213 265 316
#     4  10  20  36  56  78 105 137 177 223 270 320
#     4  11  21  34  55  82 109 138 177 220 259 307
#     4   7  12  27  50  75 102 133 165 197 247 311
#     4  11  22  37  55  74 103 143 181 218 268 322
#     4   9  17  33  54  77 108 141 173 211 261 315
#
# _framework density 17.644299
#
# number of rings (size 3 to 8) (size 9 to 14) (size 15 to 20)
#    0.000    2.200    0.000    6.900    0.000    2.400 
#    0.000    1.000    0.000    2.400    0.000    0.000 
#    0.000    0.000    0.000    0.000    0.000    0.000 
#
# Total GULP energy -223130.070954 kJ/mol
# GULP energy per Si atom -5578.251774 kJ/mol
# Density = 1.760414 g / cm^3
# Si number density = 17.644299 Si / 1000 Ang^3
#
#
#
# Elastic Constant Matrix: (Units=GPa)
#
#
# Indices 1 2 3 4 5 6 
#
# 1 100.5922 37.4969 71.8974 0.0000 0.0000 0.0000
# 2 37.4969 55.4604 89.9812 0.0000 0.0000 0.0000
# 3 71.8974 89.9812 212.8633 0.0000 0.0000 0.0000
# 4 0.0000 0.0000 0.0000 -117.1104 0.0000 0.0000
# 5 0.0000 0.0000 0.0000 0.0000 28.5487 0.0000
# 6 0.0000 0.0000 0.0000 0.0000 0.0000 24.5921
#
#
#
# Elastic Compliance Matrix: (Units=1/GPa)
#
#
# Indices 1 2 3 4 5 6 
#
# 1 0.013622 -0.005554 -0.002253 0.000000 0.000000 0.000000
# 2 -0.005554 0.059658 -0.023342 0.000000 0.000000 0.000000
# 3 -0.002253 -0.023342 0.015326 0.000000 0.000000 0.000000
# 4 0.000000 0.000000 0.000000 -0.008539 0.000000 0.000000
# 5 0.000000 0.000000 0.000000 0.000000 0.035028 0.000000
# 6 0.000000 0.000000 0.000000 0.000000 0.000000 0.040663
#
#
# Mechanical properties :
#
#
# Convention : Reuss Voigt Hill
#
# Bulk Modulus (GPa) = 38.01374 85.29628 61.65501
# Shear Modulus (GPa) = 22.04324 -1.49123 10.27600
#
# Velocity S-wave (km/s) = 3.53840 -0.92033 2.41591
# Velocity P-wave (km/s) = 6.18748 6.87879 6.54227
#
# Compressibility (1/GPa) = 0.02630628
#
# Stress axis : x y z
#
# Youngs Moduli (GPa) = 73.41102 16.76223 65.24809
#
# Poissons Ratio (x) = 0.09310 0.14701
# Poissons Ratio (y) = 0.40775 1.52305
# Poissons Ratio (z) = 0.16540 0.39127
#
# Static dielectric constant tensor:
#      x y z
#    x 1.593590 0.000000 0.000000 
#    y 0.000000 1.566730 0.000000 
#    z 0.000000 0.000000 1.623520 
# 
# From -- ./inp_files/66670.got.cif
#   From: 2010.05.17/outbox.cif.g08.bks.cpg/sg63_34_cif.got.tgz:66670.got - 2010.06.03 15:47:04.
