data_PCOD9472626
_publ_section_title
;
Structure prediction by ZEFSAII (Michael W. Deem and Ramdas Pophale) SiO2 
 PCOD9472626
Probable space group: C M C M
;
_chemical_formula_sum "Si O2"
_cell_formula_units_Z 80
_cell_length_a 30.457331
_cell_length_b 7.486917
_cell_length_c 15.157756
_cell_angle_alpha 90.000000
_cell_angle_beta 90.000000
_cell_angle_gamma 90.000000
_cell_volume 3456.445977
_symmetry_space_group_name_H-M "C M C M"
_symmetry_group_IT_number 63
_symmetry_cell_setting 'orthorhombic'
loop_
_space_group_symop_operation_xyz
x,y,z
-x,-y,1/2+z
x,-y,-z
-x,y,1/2-z
-x,-y,-z
x,y,1/2-z
-x,y,z
x,-y,1/2+z
1/2+x,1/2+y,z
1/2-x,1/2-y,1/2+z
1/2+x,1/2-y,-z
1/2-x,1/2+y,1/2-z
1/2-x,1/2-y,-z
1/2+x,1/2+y,1/2-z
1/2-x,1/2+y,z
1/2+x,1/2-y,1/2+z
loop_
_atom_site_type_symbol
_atom_site_label
_atom_site_fract_x
_atom_site_fract_y
_atom_site_fract_z
Si Si1 0.605105 0.326635 0.857379
Si Si2 0.450939 0.008946 0.857890
Si Si3 0.876238 0.232739 0.856976
Si Si4 0.698347 0.764660 0.152186
Si Si5 0.710962 0.393104 0.089200
O O1 0.606376 0.328993 0.750000
O O2 0.608488 0.532504 0.884579
O O3 0.649242 0.219604 0.884303
O O4 0.563732 0.208680 0.884007
O O5 0.451166 0.003383 0.750000
O O6 0.500000 0.964298 0.887605
O O7 0.412996 0.872346 0.886341
O O8 0.873825 0.240632 0.750000
O O9 0.826613 0.252629 0.893206
O O10 0.700697 0.846270 0.250000
O O11 0.704131 0.550725 0.159491
O O12 0.739347 0.828677 0.095654
O O13 0.702749 0.500000 0.000000
#
# Coordination Sequence:
#
# PCOD9472626 Si02
#       5
#    16  16  16  16  16
#     4   8  16  30  47  72 104 136 175 221 269 324
#     4   9  17  29  50  80 106 133 177 233 287 330
#     4   9  18  33  52  75 107 146 183 222 274 339
#     4  10  20  35  54  77 106 148 189 223 273 339
#     4  11  22  35  52  80 114 144 185 231 280 329
#
# _framework density 23.145161000000002
#
# number of rings (size 3 to 8) (size 9 to 14) (size 15 to 20)
#    0.000    2.600    0.000    3.600    2.800    0.800 
#    0.000    4.000    0.000    0.600    0.000    5.600 
#    0.000    0.000    0.000    0.000    0.000    0.000 
#
# Total GULP energy -223366.889807 kJ/mol
# GULP energy per Si atom -5584.172245 kJ/mol
# Density = 2.309248 g / cm^3
# Si number density = 23.145161 Si / 1000 Ang^3
#
#
#
# Elastic Constant Matrix: (Units=GPa)
#
#
# Indices 1 2 3 4 5 6 
#
# 1 112.6793 37.8379 -12.8899 0.0000 0.0000 0.0000
# 2 37.8379 57.6901 -8.3608 0.0000 0.0000 0.0000
# 3 -12.8899 -8.3608 56.5672 0.0000 0.0000 0.0000
# 4 0.0000 0.0000 0.0000 9.9172 0.0000 0.0000
# 5 0.0000 0.0000 0.0000 0.0000 -4.4600 0.0000
# 6 0.0000 0.0000 0.0000 0.0000 0.0000 37.3178
#
#
#
# Elastic Compliance Matrix: (Units=1/GPa)
#
#
# Indices 1 2 3 4 5 6 
#
# 1 0.011511 -0.007327 0.001540 0.000000 0.000000 0.000000
# 2 -0.007327 0.022377 0.001638 0.000000 0.000000 0.000000
# 3 0.001540 0.001638 0.018271 0.000000 0.000000 0.000000
# 4 0.000000 0.000000 0.000000 0.100835 0.000000 0.000000
# 5 0.000000 0.000000 0.000000 0.000000 -0.224214 0.000000
# 6 0.000000 0.000000 0.000000 0.000000 0.000000 0.026797
#
#
# Mechanical properties :
#
#
# Convention : Reuss Voigt Hill
#
# Bulk Modulus (GPa) = 22.79901 28.90121 25.85011
# Shear Modulus (GPa) = -232.50285 22.57828 -104.96228
#
# Velocity S-wave (km/s) = -10.03356 3.12670 -6.74151
# Velocity P-wave (km/s) = 11.15159 5.05461 7.02883
#
# Compressibility (1/GPa) = 0.04386155
#
# Stress axis : x y z
#
# Youngs Moduli (GPa) = 86.87120 44.68891 54.73116
#
# Poissons Ratio (x) = 0.32743 -0.08429
# Poissons Ratio (y) = 0.63649 -0.08964
# Poissons Ratio (z) = -0.13379 -0.07319
#
# Static dielectric constant tensor:
#      x y z
#    x 1.868940 0.000000 0.000000 
#    y 0.000000 1.885780 0.000000 
#    z 0.000000 0.000000 1.939420 
# 
# From -- ./inp_files/48776.got.cif
#   From: 2010.05.17/outbox.cif.g08.bks.cpg/sg63_25_cif.got.tgz:48776.got - 2010.06.03 15:47:04.
