data_PCOD9472008
_publ_section_title
;
Structure prediction by ZEFSAII (Michael W. Deem and Ramdas Pophale) SiO2 
 PCOD9472008
Probable space group: C M C M
;
_chemical_formula_sum "Si O2"
_cell_formula_units_Z 80
_cell_length_a 21.101671
_cell_length_b 23.678894
_cell_length_c 7.749877
_cell_angle_alpha 90.000000
_cell_angle_beta 90.000000
_cell_angle_gamma 90.000000
_cell_volume 3872.336330
_symmetry_space_group_name_H-M "C M C M"
_symmetry_group_IT_number 63
_symmetry_cell_setting 'orthorhombic'
loop_
_space_group_symop_operation_xyz
x,y,z
-x,-y,1/2+z
x,-y,-z
-x,y,1/2-z
-x,-y,-z
x,y,1/2-z
-x,y,z
x,-y,1/2+z
1/2+x,1/2+y,z
1/2-x,1/2-y,1/2+z
1/2+x,1/2-y,-z
1/2-x,1/2+y,1/2-z
1/2-x,1/2-y,-z
1/2+x,1/2+y,1/2-z
1/2-x,1/2+y,z
1/2+x,1/2-y,1/2+z
loop_
_atom_site_type_symbol
_atom_site_label
_atom_site_fract_x
_atom_site_fract_y
_atom_site_fract_z
Si Si1 0.000000 0.065584 0.954877
Si Si2 0.125640 0.627320 0.042419
Si Si3 0.746682 0.433552 0.541607
Si Si4 0.500000 0.065432 0.042536
Si Si5 0.073259 0.252421 0.457926
Si Si6 0.375592 0.366408 0.953272
O O1 0.000000 0.072733 0.750000
O O2 0.062428 0.095179 0.027827
O O3 0.000000 0.000000 0.000000
O O4 0.126520 0.622045 0.250000
O O5 0.189660 0.597699 0.978469
O O6 0.063462 0.594937 0.975393
O O7 0.114431 0.692773 0.001343
O O8 0.745567 0.500000 0.500000
O O9 0.746182 0.430284 0.750000
O O10 0.684976 0.399876 0.475117
O O11 0.500000 0.071895 0.250000
O O12 0.500000 0.000000 0.000000
O O13 0.069533 0.248319 0.250000
O O14 0.105850 0.195097 0.525107
O O15 0.000000 0.257928 0.520555
O O16 0.362932 0.357984 0.750000
#
# Coordination Sequence:
#
# PCOD9472008 Si02
#       6
#     8  16  16   8  16  16
#     4  12  24  37  58  87 115 150 196 242 289 344
#     4  10  21  37  56  83 116 152 190 237 290 340
#     4  10  22  39  60  84 117 155 193 238 291 345
#     4  10  20  33  52  77 109 144 186 236 283 332
#     4  10  20  36  59  85 114 150 192 238 289 343
#     4  10  21  40  61  84 117 154 191 239 292 343
#
# _framework density 20.659362000000002
#
# number of rings (size 3 to 8) (size 9 to 14) (size 15 to 20)
#    0.000    1.800    2.000    2.100    0.000    5.600 
#    0.000    0.000    0.000    0.000    0.000    0.000 
#    0.000    0.000    0.000    0.000    0.000    0.000 
#
# Total GULP energy -223461.007677 kJ/mol
# GULP energy per Si atom -5586.525192 kJ/mol
# Density = 2.061234 g / cm^3
# Si number density = 20.659362 Si / 1000 Ang^3
#
#
#
# Elastic Constant Matrix: (Units=GPa)
#
#
# Indices 1 2 3 4 5 6 
#
# 1 206.1629 115.2621 1.0093 0.0000 0.0000 0.0000
# 2 115.2621 207.7461 -13.6017 0.0000 0.0000 0.0000
# 3 1.0093 -13.6017 29.6142 0.0000 0.0000 0.0000
# 4 0.0000 0.0000 0.0000 12.6087 0.0000 0.0000
# 5 0.0000 0.0000 0.0000 0.0000 -6.1530 0.0000
# 6 0.0000 0.0000 0.0000 0.0000 0.0000 42.5353
#
#
#
# Elastic Compliance Matrix: (Units=1/GPa)
#
#
# Indices 1 2 3 4 5 6 
#
# 1 0.007160 -0.004112 -0.002133 0.000000 0.000000 0.000000
# 2 -0.004112 0.007325 0.003504 0.000000 0.000000 0.000000
# 3 -0.002133 0.003504 0.035450 0.000000 0.000000 0.000000
# 4 0.000000 0.000000 0.000000 0.079310 0.000000 0.000000
# 5 0.000000 0.000000 0.000000 0.000000 -0.162523 0.000000
# 6 0.000000 0.000000 0.000000 0.000000 0.000000 0.023510
#
#
# Mechanical properties :
#
#
# Convention : Reuss Voigt Hill
#
# Bulk Modulus (GPa) = 22.49567 72.09586 47.29577
# Shear Modulus (GPa) = 474.80688 32.52178 253.66433
#
# Velocity S-wave (km/s) = 15.17648 3.97191 11.09282
# Velocity P-wave (km/s) = 17.83292 7.48385 13.67518
#
# Compressibility (1/GPa) = 0.04445301
#
# Stress axis : x y z
#
# Youngs Moduli (GPa) = 139.66446 136.52763 28.20897
#
# Poissons Ratio (x) = 0.56142 0.06016
# Poissons Ratio (y) = 0.57432 -0.09885
# Poissons Ratio (z) = 0.29787 -0.47843
#
# Static dielectric constant tensor:
#      x y z
#    x 1.727370 0.000000 0.000000 
#    y 0.000000 1.702710 0.000000 
#    z 0.000000 0.000000 1.760480 
# 
# From -- ./inp_files/8115.got.cif
#   From: 2010.05.17/outbox.cif.g08.bks.cpg/sg63_5_cif.got.tgz:8115.got - 2010.06.03 15:47:04.
