data_PCOD9472828
_publ_section_title
;
Structure prediction by ZEFSAII (Michael W. Deem and Ramdas Pophale) SiO2 
 PCOD9472828
Probable space group: C M C M
;
_chemical_formula_sum "Si O2"
_cell_formula_units_Z 116
_cell_length_a 7.351533
_cell_length_b 28.596425
_cell_length_c 24.715525
_cell_angle_alpha 90.000000
_cell_angle_beta 90.000000
_cell_angle_gamma 90.000000
_cell_volume 5195.884566
_symmetry_space_group_name_H-M "C M C M"
_symmetry_group_IT_number 63
_symmetry_cell_setting 'orthorhombic'
loop_
_space_group_symop_operation_xyz
x,y,z
-x,-y,1/2+z
x,-y,-z
-x,y,1/2-z
-x,-y,-z
x,y,1/2-z
-x,y,z
x,-y,1/2+z
1/2+x,1/2+y,z
1/2-x,1/2-y,1/2+z
1/2+x,1/2-y,-z
1/2-x,1/2+y,1/2-z
1/2-x,1/2-y,-z
1/2+x,1/2+y,1/2-z
1/2-x,1/2+y,z
1/2+x,1/2-y,1/2+z
loop_
_atom_site_type_symbol
_atom_site_label
_atom_site_fract_x
_atom_site_fract_y
_atom_site_fract_z
Si Si1 0.793385 0.948136 0.023454
Si Si2 0.719361 0.627528 0.809397
Si Si3 0.500000 0.247398 0.750000
Si Si4 0.786729 0.716867 0.050772
Si Si5 0.221417 0.071229 0.312393
Si Si6 0.218720 0.774976 0.343603
Si Si7 0.293059 0.612063 0.074479
Si Si8 0.777657 0.969038 0.356346
O O1 0.708792 0.916588 0.975915
O O2 0.000000 0.929446 0.032798
O O3 0.714294 0.956196 0.083099
O O4 0.804601 0.000000 0.000000
O O5 0.782153 0.642870 0.750000
O O6 0.500000 0.624966 0.808839
O O7 0.766575 0.669808 0.848790
O O8 0.780864 0.575517 0.821539
O O9 0.659526 0.245915 0.796703
O O10 0.739322 0.747467 0.102499
O O11 0.701239 0.665819 0.056856
O O12 0.000000 0.707013 0.051684
O O13 0.750000 0.750000 0.000000
O O14 0.282239 0.081064 0.250000
O O15 0.278587 0.103501 0.364114
O O16 0.000000 0.073316 0.309586
O O17 0.275993 0.018737 0.331218
O O18 0.000000 0.772231 0.332738
O O19 0.500000 0.593053 0.077736
O O20 0.000000 0.971026 0.357865
#
# Coordination Sequence:
#
# PCOD9472828 Si02
#       8
#    16  16   4  16  16  16  16  16
#     4   9  15  26  46  78 116 151 192 249 301 353
#     4   9  16  29  48  77 118 157 196 251 313 374
#     4  12  22  40  76  94 128 176 214 282 332 414
#     4  11  26  46  67  91 125 165 214 275 335 403
#     4   9  16  28  46  80 122 157 198 254 305 367
#     4  10  23  42  63  97 133 169 219 273 334 401
#     4  10  20  35  57  86 120 156 204 259 317 384
#     4   9  15  23  44  77 115 156 198 243 311 366
#
# _framework density 22.325361000000001
#
# number of rings (size 3 to 8) (size 9 to 14) (size 15 to 20)
#    0.000    2.345    2.069    1.034    3.862    1.655 
#    1.241    0.000    0.000    0.414    1.793    0.000 
#    0.000    0.000    0.000    0.000    0.000    0.000 
#
# Total GULP energy -322913.913118 kJ/mol
# GULP energy per Si atom -5567.481261 kJ/mol
# Density = 2.227455 g / cm^3
# Si number density = 22.325361 Si / 1000 Ang^3
#
#
#
# Elastic Constant Matrix: (Units=GPa)
#
#
# Indices 1 2 3 4 5 6 
#
# 1 72.8712 6.4723 23.4216 0.0000 0.0000 0.0000
# 2 6.4723 112.8503 55.0276 0.0000 0.0000 0.0000
# 3 23.4216 55.0276 163.3951 0.0000 0.0000 0.0000
# 4 0.0000 0.0000 0.0000 27.9627 0.0000 0.0000
# 5 0.0000 0.0000 0.0000 0.0000 -11.6141 0.0000
# 6 0.0000 0.0000 0.0000 0.0000 0.0000 -53.7299
#
#
#
# Elastic Compliance Matrix: (Units=1/GPa)
#
#
# Indices 1 2 3 4 5 6 
#
# 1 0.014390 0.000216 -0.002135 0.000000 0.000000 0.000000
# 2 0.000216 0.010606 -0.003603 0.000000 0.000000 0.000000
# 3 -0.002135 -0.003603 0.007640 0.000000 0.000000 0.000000
# 4 0.000000 0.000000 0.000000 0.035762 0.000000 0.000000
# 5 0.000000 0.000000 0.000000 0.000000 -0.086102 0.000000
# 6 0.000000 0.000000 0.000000 0.000000 0.000000 -0.018612
#
#
# Mechanical properties :
#
#
# Convention : Reuss Voigt Hill
#
# Bulk Modulus (GPa) = 46.31589 57.66218 51.98903
# Shear Modulus (GPa) = -276.61484 10.13676 -133.23904
#
# Velocity S-wave (km/s) = -11.14319 2.13315 -7.73370
# Velocity P-wave (km/s) = 12.03204 5.65255 7.51061
#
# Compressibility (1/GPa) = 0.02159086
#
# Stress axis : x y z
#
# Youngs Moduli (GPa) = 69.49265 94.28944 130.89795
#
# Poissons Ratio (x) = -0.02036 0.27953
# Poissons Ratio (y) = -0.01501 0.47158
# Poissons Ratio (z) = 0.14840 0.33970
#
# Static dielectric constant tensor:
#      x y z
#    x 1.888630 0.000000 0.000000 
#    y 0.000000 1.790370 0.000000 
#    z 0.000000 0.000000 1.881070 
# 
# From -- ./inp_files/60616.got.cif
#   From: 2010.05.17/outbox.cif.g08.bks.cpg/sg63_31_cif.got.tgz:60616.got - 2010.06.03 15:47:04.
