data_PCOD9472714
_publ_section_title
;
Structure prediction by ZEFSAII (Michael W. Deem and Ramdas Pophale) SiO2 
 PCOD9472714
Probable space group: C M C M
;
_chemical_formula_sum "Si O2"
_cell_formula_units_Z 112
_cell_length_a 15.249874
_cell_length_b 27.248431
_cell_length_c 14.025096
_cell_angle_alpha 90.000000
_cell_angle_beta 90.000000
_cell_angle_gamma 90.000000
_cell_volume 5827.920222
_symmetry_space_group_name_H-M "C M C M"
_symmetry_group_IT_number 63
_symmetry_cell_setting 'orthorhombic'
loop_
_space_group_symop_operation_xyz
x,y,z
-x,-y,1/2+z
x,-y,-z
-x,y,1/2-z
-x,-y,-z
x,y,1/2-z
-x,y,z
x,-y,1/2+z
1/2+x,1/2+y,z
1/2-x,1/2-y,1/2+z
1/2+x,1/2-y,-z
1/2-x,1/2+y,1/2-z
1/2-x,1/2-y,-z
1/2+x,1/2+y,1/2-z
1/2-x,1/2+y,z
1/2+x,1/2-y,1/2+z
loop_
_atom_site_type_symbol
_atom_site_label
_atom_site_fract_x
_atom_site_fract_y
_atom_site_fract_z
Si Si1 0.894944 0.733770 0.360707
Si Si2 0.598686 0.942824 0.475185
Si Si3 0.404650 0.502875 0.134645
Si Si4 0.136370 0.113520 0.359596
Si Si5 0.844198 0.374335 0.640394
Si Si6 0.227222 0.919366 0.364506
Si Si7 0.601182 0.336591 0.049007
O O1 0.870108 0.743025 0.250000
O O2 0.853777 0.682179 0.391303
O O3 0.873665 0.781283 0.422970
O O4 0.000000 0.727276 0.363640
O O5 0.500000 0.938106 0.435474
O O6 0.605889 0.911017 0.571469
O O7 0.675995 0.923025 0.407889
O O8 0.613386 0.000000 0.500000
O O9 0.402849 0.502343 0.250000
O O10 0.500000 0.483614 0.104455
O O11 0.395435 0.559702 0.108756
O O12 0.326061 0.468143 0.104045
O O13 0.108965 0.122425 0.250000
O O14 0.241773 0.112190 0.361188
O O15 0.105024 0.152753 0.436372
O O16 0.875521 0.377035 0.750000
O O17 0.230608 0.917643 0.250000
O O18 0.169217 0.874151 0.402745
O O19 0.500000 0.344675 0.082013
#
# Coordination Sequence:
#
# PCOD9472714 Si02
#       7
#    16  16  16  16  16  16  16
#     4   9  19  36  59  88 117 148 198 257 301 342
#     4  11  24  41  62  89 120 153 196 251 308 364
#     4   9  18  33  55  82 116 159 200 239 283 341
#     4  10  20  35  55  86 123 157 197 245 296 355
#     4  10  20  39  66  90 115 153 201 252 300 348
#     4  11  23  39  58  85 121 160 202 247 300 362
#     4  11  22  36  59  89 122 162 201 246 301 356
#
# _framework density 19.217834
#
# number of rings (size 3 to 8) (size 9 to 14) (size 15 to 20)
#    0.000    1.857    1.429    2.571    0.000    5.714 
#    0.000    2.857    0.000    0.000    0.000    2.000 
#    0.000    0.000    0.000    0.000    0.000    0.000 
#
# Total GULP energy -312816.362503 kJ/mol
# GULP energy per Si atom -5586.006473 kJ/mol
# Density = 1.917409 g / cm^3
# Si number density = 19.217834 Si / 1000 Ang^3
#
#
#
# Elastic Constant Matrix: (Units=GPa)
#
#
# Indices 1 2 3 4 5 6 
#
# 1 112.1032 47.2743 31.9624 0.0000 0.0000 0.0000
# 2 47.2743 123.6259 49.6231 0.0000 0.0000 0.0000
# 3 31.9624 49.6231 95.4974 0.0000 0.0000 0.0000
# 4 0.0000 0.0000 0.0000 30.6923 0.0000 0.0000
# 5 0.0000 0.0000 0.0000 0.0000 101.8257 0.0000
# 6 0.0000 0.0000 0.0000 0.0000 0.0000 132.9341
#
#
#
# Elastic Compliance Matrix: (Units=1/GPa)
#
#
# Indices 1 2 3 4 5 6 
#
# 1 0.010894 -0.003414 -0.001872 0.000000 0.000000 0.000000
# 2 -0.003414 0.011291 -0.004724 0.000000 0.000000 0.000000
# 3 -0.001872 -0.004724 0.013553 0.000000 0.000000 0.000000
# 4 0.000000 0.000000 0.000000 0.032582 0.000000 0.000000
# 5 0.000000 0.000000 0.000000 0.000000 0.009821 0.000000
# 6 0.000000 0.000000 0.000000 0.000000 0.000000 0.007523
#
#
# Mechanical properties :
#
#
# Convention : Reuss Voigt Hill
#
# Bulk Modulus (GPa) = 63.62746 65.43845 64.53295
# Shear Modulus (GPa) = 45.07651 66.58153 55.82902
#
# Velocity S-wave (km/s) = 4.84835 5.89245 5.39571
# Velocity P-wave (km/s) = 8.03258 8.96768 8.51298
#
# Compressibility (1/GPa) = 0.01571648
#
# Stress axis : x y z
#
# Youngs Moduli (GPa) = 91.79416 88.56682 73.78509
#
# Poissons Ratio (x) = 0.30241 0.13812
# Poissons Ratio (y) = 0.31343 0.34858
# Poissons Ratio (z) = 0.17183 0.41841
#
# Static dielectric constant tensor:
#      x y z
#    x 1.676200 0.000000 0.000000 
#    y 0.000000 1.639640 0.000000 
#    z 0.000000 0.000000 1.698470 
# 
# From -- ./inp_files/32318.got.cif
#   From: 2010.05.17/outbox.cif.g08.bks.cpg/sg63_17_cif.got.tgz:32318.got - 2010.06.03 15:47:04.
