data_PCOD9472089
_publ_section_title
;
Structure prediction by ZEFSAII (Michael W. Deem and Ramdas Pophale) SiO2 
 PCOD9472089
Probable space group: C M C M
;
_chemical_formula_sum "Si O2"
_cell_formula_units_Z 100
_cell_length_a 7.331048
_cell_length_b 19.232143
_cell_length_c 25.816146
_cell_angle_alpha 90.000000
_cell_angle_beta 90.000000
_cell_angle_gamma 90.000000
_cell_volume 3639.863951
_symmetry_space_group_name_H-M "C M C M"
_symmetry_group_IT_number 63
_symmetry_cell_setting 'orthorhombic'
loop_
_space_group_symop_operation_xyz
x,y,z
-x,-y,1/2+z
x,-y,-z
-x,y,1/2-z
-x,-y,-z
x,y,1/2-z
-x,y,z
x,-y,1/2+z
1/2+x,1/2+y,z
1/2-x,1/2-y,1/2+z
1/2+x,1/2-y,-z
1/2-x,1/2+y,1/2-z
1/2-x,1/2-y,-z
1/2+x,1/2+y,1/2-z
1/2-x,1/2+y,z
1/2+x,1/2-y,1/2+z
loop_
_atom_site_type_symbol
_atom_site_label
_atom_site_fract_x
_atom_site_fract_y
_atom_site_fract_z
Si Si1 0.776003 0.476402 0.165132
Si Si2 0.707800 0.789507 0.190941
Si Si3 0.706520 0.997334 0.944888
Si Si4 0.794543 0.632605 0.311758
Si Si5 0.000000 0.923089 0.250000
Si Si6 0.779552 0.697198 0.923084
Si Si7 0.786952 0.847475 0.963332
O O1 0.724945 0.464538 0.105523
O O2 0.721148 0.557357 0.173321
O O3 0.661724 0.431823 0.205180
O O4 0.000000 0.472500 0.171063
O O5 0.792547 0.796375 0.250000
O O6 0.500000 0.815098 0.195192
O O7 0.700005 0.706251 0.179564
O O8 0.784877 0.816362 0.135841
O O9 0.500000 0.023710 0.951178
O O10 0.699796 0.914218 0.936807
O O11 0.802926 0.000000 0.000000
O O12 0.803664 0.627334 0.250000
O O13 0.000000 0.639568 0.332041
O O14 0.717124 0.774335 0.941297
O O15 0.000000 0.696988 0.919861
O O16 0.734516 0.652101 0.974168
O O17 0.000000 0.850591 0.951268
#
# Coordination Sequence:
#
# PCOD9472089 Si02
#       7
#    16  16  16  16   4  16  16
#     4  10  21  35  52  81 116 147 191 236 281 358
#     4   9  17  26  42  68  99 134 178 227 272 334
#     4  10  22  40  60  84 116 155 192 237 296 347
#     4   9  16  26  40  64 102 141 175 220 279 338
#     4  12  22  32  58  82 108 160 186 226 308 342
#     4   9  18  33  50  75 108 144 184 226 285 346
#     4  10  20  33  54  80 110 143 187 237 281 336
#
# _framework density 27.473552999999999
#
# number of rings (size 3 to 8) (size 9 to 14) (size 15 to 20)
#    0.000    2.400    0.800    1.680    2.240    1.600 
#    0.000    0.000    0.000    0.000    2.080    0.000 
#    0.000    0.000    0.000    0.000    0.000    0.000 
#
# Total GULP energy -279133.132738 kJ/mol
# GULP energy per Si atom -5582.662655 kJ/mol
# Density = 2.741102 g / cm^3
# Si number density = 27.473553 Si / 1000 Ang^3
#
#
#
# Elastic Constant Matrix: (Units=GPa)
#
#
# Indices 1 2 3 4 5 6 
#
# 1 133.7344 -5.0407 32.9621 0.0000 0.0000 0.0000
# 2 -5.0407 125.5075 44.1910 0.0000 0.0000 0.0000
# 3 32.9621 44.1910 264.1487 0.0000 0.0000 0.0000
# 4 0.0000 0.0000 0.0000 49.5911 0.0000 0.0000
# 5 0.0000 0.0000 0.0000 0.0000 8.6437 0.0000
# 6 0.0000 0.0000 0.0000 0.0000 0.0000 76.5132
#
#
#
# Elastic Compliance Matrix: (Units=1/GPa)
#
#
# Indices 1 2 3 4 5 6 
#
# 1 0.007771 0.000694 -0.001086 0.000000 0.000000 0.000000
# 2 0.000694 0.008528 -0.001513 0.000000 0.000000 0.000000
# 3 -0.001086 -0.001513 0.004174 0.000000 0.000000 0.000000
# 4 0.000000 0.000000 0.000000 0.020165 0.000000 0.000000
# 5 0.000000 0.000000 0.000000 0.000000 0.115691 0.000000
# 6 0.000000 0.000000 0.000000 0.000000 0.000000 0.013070
#
#
# Mechanical properties :
#
#
# Convention : Reuss Voigt Hill
#
# Bulk Modulus (GPa) = 60.00811 74.17949 67.09380
# Shear Modulus (GPa) = 27.96974 57.03481 42.50227
#
# Velocity S-wave (km/s) = 3.19417 4.56125 3.93749
# Velocity P-wave (km/s) = 5.95761 7.40263 6.71908
#
# Compressibility (1/GPa) = 0.01666442
#
# Stress axis : x y z
#
# Youngs Moduli (GPa) = 128.67793 117.25504 239.55268
#
# Poissons Ratio (x) = -0.08143 0.26014
# Poissons Ratio (y) = -0.08936 0.36255
# Poissons Ratio (z) = 0.13974 0.17746
#
# Static dielectric constant tensor:
#      x y z
#    x 2.096720 0.000000 0.000000 
#    y 0.000000 2.245270 0.000000 
#    z 0.000000 0.000000 2.144090 
# 
# From -- ./inp_files/67059.got.cif
#   From: 2010.05.17/outbox.cif.g08.bks.cpg/sg63_34_cif.got.tgz:67059.got - 2010.06.03 15:47:04.
