data_PCOD9472337
_publ_section_title
;
Structure prediction by ZEFSAII (Michael W. Deem and Ramdas Pophale) SiO2 
 PCOD9472337
Probable space group: C M C M
;
_chemical_formula_sum "Si O2"
_cell_formula_units_Z 64
_cell_length_a 12.496690
_cell_length_b 18.253371
_cell_length_c 13.003620
_cell_angle_alpha 90.000000
_cell_angle_beta 90.000000
_cell_angle_gamma 90.000000
_cell_volume 2966.213091
_symmetry_space_group_name_H-M "C M C M"
_symmetry_group_IT_number 63
_symmetry_cell_setting 'orthorhombic'
loop_
_space_group_symop_operation_xyz
x,y,z
-x,-y,1/2+z
x,-y,-z
-x,y,1/2-z
-x,-y,-z
x,y,1/2-z
-x,y,z
x,-y,1/2+z
1/2+x,1/2+y,z
1/2-x,1/2-y,1/2+z
1/2+x,1/2-y,-z
1/2-x,1/2+y,1/2-z
1/2-x,1/2-y,-z
1/2+x,1/2+y,1/2-z
1/2-x,1/2+y,z
1/2+x,1/2-y,1/2+z
loop_
_atom_site_type_symbol
_atom_site_label
_atom_site_fract_x
_atom_site_fract_y
_atom_site_fract_z
Si Si1 0.126573 0.063241 0.861858
Si Si2 0.166976 0.259426 0.137237
Si Si3 0.809217 0.099084 0.412698
Si Si4 0.379528 0.189231 0.414719
O O1 0.165584 0.088430 0.750000
O O2 0.000000 0.077744 0.869214
O O3 0.179821 0.094279 0.964159
O O4 0.145008 0.975480 0.868608
O O5 0.137583 0.286120 0.250000
O O6 0.123624 0.301242 0.038405
O O7 0.134194 0.173531 0.124700
O O8 0.296659 0.250770 0.126134
O O9 0.684596 0.114991 0.387302
O O10 0.500000 0.194510 0.377839
#
# Coordination Sequence:
#
# PCOD9472337 Si02
#       4
#    16  16  16  16
#     4  10  20  34  54  77 105 142 177 217 267 311
#     4   9  19  36  56  78 106 140 176 214 257 314
#     4   9  18  35  53  76 108 133 177 222 258 309
#     4   9  20  36  54  78 107 137 173 217 263 312
#
# _framework density 21.576333000000002
#
# number of rings (size 3 to 8) (size 9 to 14) (size 15 to 20)
#    1.500    1.250    0.000    2.250    0.000    4.000 
#    0.000    2.500    0.000    1.500    0.000    0.000 
#    0.000    0.000    0.000    0.000    0.000    0.000 
#
# Total GULP energy -178303.656417 kJ/mol
# GULP energy per Si atom -5571.989263 kJ/mol
# Density = 2.152722 g / cm^3
# Si number density = 21.576333 Si / 1000 Ang^3
#
#
#
# Elastic Constant Matrix: (Units=GPa)
#
#
# Indices 1 2 3 4 5 6 
#
# 1 104.2607 -4.1983 -6.1100 0.0000 0.0000 0.0000
# 2 -4.1983 38.0292 -3.8216 0.0000 0.0000 0.0000
# 3 -6.1100 -3.8216 128.4754 0.0000 0.0000 0.0000
# 4 0.0000 0.0000 0.0000 5.5357 0.0000 0.0000
# 5 0.0000 0.0000 0.0000 0.0000 1.2230 0.0000
# 6 0.0000 0.0000 0.0000 0.0000 0.0000 13.0361
#
#
#
# Elastic Compliance Matrix: (Units=1/GPa)
#
#
# Indices 1 2 3 4 5 6 
#
# 1 0.009665 0.001117 0.000493 0.000000 0.000000 0.000000
# 2 0.001117 0.026503 0.000841 0.000000 0.000000 0.000000
# 3 0.000493 0.000841 0.007832 0.000000 0.000000 0.000000
# 4 0.000000 0.000000 0.000000 0.180647 0.000000 0.000000
# 5 0.000000 0.000000 0.000000 0.000000 0.817690 0.000000
# 6 0.000000 0.000000 0.000000 0.000000 0.000000 0.076710
#
#
# Mechanical properties :
#
#
# Convention : Reuss Voigt Hill
#
# Bulk Modulus (GPa) = 20.44891 26.94506 23.69699
# Shear Modulus (GPa) = 4.42303 22.95195 13.68749
#
# Velocity S-wave (km/s) = 1.43332 3.26507 2.52141
# Velocity P-wave (km/s) = 3.49818 5.17006 4.41400
#
# Compressibility (1/GPa) = 0.04890235
#
# Stress axis : x y z
#
# Youngs Moduli (GPa) = 103.46415 37.73100 127.68029
#
# Poissons Ratio (x) = -0.04213 -0.06293
# Poissons Ratio (y) = -0.11552 -0.10744
# Poissons Ratio (z) = -0.05099 -0.03175
#
# Static dielectric constant tensor:
#      x y z
#    x 1.800640 0.000000 0.000000 
#    y 0.000000 1.792950 0.000000 
#    z 0.000000 0.000000 1.851960 
# 
# From -- ./inp_files/31331.got.cif
#   From: 2010.05.17/outbox.cif.g08.bks.cpg/sg63_16_cif.got.tgz:31331.got - 2010.06.03 15:47:04.
