data_PCOD9472090
_publ_section_title
;
Structure prediction by ZEFSAII (Michael W. Deem and Ramdas Pophale) SiO2 
 PCOD9472090
Probable space group: C M C M
;
_chemical_formula_sum "Si O2"
_cell_formula_units_Z 96
_cell_length_a 12.555723
_cell_length_b 17.328836
_cell_length_c 25.331159
_cell_angle_alpha 90.000000
_cell_angle_beta 90.000000
_cell_angle_gamma 90.000000
_cell_volume 5511.453890
_symmetry_space_group_name_H-M "C M C M"
_symmetry_group_IT_number 63
_symmetry_cell_setting 'orthorhombic'
loop_
_space_group_symop_operation_xyz
x,y,z
-x,-y,1/2+z
x,-y,-z
-x,y,1/2-z
-x,-y,-z
x,y,1/2-z
-x,y,z
x,-y,1/2+z
1/2+x,1/2+y,z
1/2-x,1/2-y,1/2+z
1/2+x,1/2-y,-z
1/2-x,1/2+y,1/2-z
1/2-x,1/2-y,-z
1/2+x,1/2+y,1/2-z
1/2-x,1/2+y,z
1/2+x,1/2-y,1/2+z
loop_
_atom_site_type_symbol
_atom_site_label
_atom_site_fract_x
_atom_site_fract_y
_atom_site_fract_z
Si Si1 0.800874 0.745075 0.860183
Si Si2 0.627589 0.665985 0.036136
Si Si3 0.000000 0.470331 0.686178
Si Si4 0.124396 0.159052 0.581496
Si Si5 0.500000 0.150745 0.686444
Si Si6 0.624638 0.520994 0.101825
Si Si7 0.270226 0.093389 0.312535
O O1 0.840614 0.777738 0.916632
O O2 0.697647 0.694595 0.873435
O O3 0.766109 0.819587 0.826258
O O4 0.895358 0.695500 0.834340
O O5 0.500000 0.665166 0.032336
O O6 0.660444 0.580909 0.056525
O O7 0.663503 0.683762 0.976868
O O8 0.108346 0.426232 0.670641
O O9 0.000000 0.471628 0.750000
O O10 0.000000 0.560442 0.669156
O O11 0.000000 0.180284 0.588158
O O12 0.132338 0.066638 0.583753
O O13 0.500000 0.152298 0.750000
O O14 0.500000 0.537601 0.113083
O O15 0.693504 0.538529 0.153471
O O16 0.260799 0.080127 0.250000
#
# Coordination Sequence:
#
# PCOD9472090 Si02
#       7
#    16  16   8  16   8  16  16
#     4  11  21  34  55  83 111 141 186 231 274 330
#     4   9  17  33  53  79 108 143 181 222 270 328
#     4   9  20  38  56  73 102 147 186 219 276 341
#     4  10  20  33  54  80 112 146 176 222 277 329
#     4  11  22  38  60  83 109 145 191 241 282 321
#     4   9  18  33  54  81 107 138 182 223 272 327
#     4  10  21  36  56  77 105 143 183 228 280 335
#
# _framework density 17.418272000000002
#
# number of rings (size 3 to 8) (size 9 to 14) (size 15 to 20)
#    0.000    2.167    0.833    2.500    2.333    2.333 
#    0.000    0.833    0.000    2.000    0.000    7.000 
#    0.000    0.000    0.000    0.000    0.000    0.000 
#
# Total GULP energy -267596.016033 kJ/mol
# GULP energy per Si atom -5574.917001 kJ/mol
# Density = 1.737863 g / cm^3
# Si number density = 17.418272 Si / 1000 Ang^3
#
#
#
# Elastic Constant Matrix: (Units=GPa)
#
#
# Indices 1 2 3 4 5 6 
#
# 1 74.5024 19.9974 40.8701 0.0000 0.0000 0.0000
# 2 19.9974 37.4879 7.9729 0.0000 0.0000 0.0000
# 3 40.8701 7.9729 68.6390 0.0000 0.0000 0.0000
# 4 0.0000 0.0000 0.0000 13.8793 0.0000 0.0000
# 5 0.0000 0.0000 0.0000 0.0000 23.6900 0.0000
# 6 0.0000 0.0000 0.0000 0.0000 0.0000 31.0261
#
#
#
# Elastic Compliance Matrix: (Units=1/GPa)
#
#
# Indices 1 2 3 4 5 6 
#
# 1 0.022828 -0.009522 -0.012487 0.000000 0.000000 0.000000
# 2 -0.009522 0.031322 0.002031 0.000000 0.000000 0.000000
# 3 -0.012487 0.002031 0.021768 0.000000 0.000000 0.000000
# 4 0.000000 0.000000 0.000000 0.072050 0.000000 0.000000
# 5 0.000000 0.000000 0.000000 0.000000 0.042212 0.000000
# 6 0.000000 0.000000 0.000000 0.000000 0.000000 0.032231
#
#
# Mechanical properties :
#
#
# Convention : Reuss Voigt Hill
#
# Bulk Modulus (GPa) = 27.80529 35.36781 31.58655
# Shear Modulus (GPa) = 18.22470 21.17167 19.69818
#
# Velocity S-wave (km/s) = 3.23816 3.49016 3.36652
# Velocity P-wave (km/s) = 5.47530 6.04903 5.76930
#
# Compressibility (1/GPa) = 0.03596438
#
# Stress axis : x y z
#
# Youngs Moduli (GPa) = 43.80605 31.92597 45.93904
#
# Poissons Ratio (x) = 0.30399 0.57362
# Poissons Ratio (y) = 0.41710 -0.09331
# Poissons Ratio (z) = 0.54699 -0.06485
#
# Static dielectric constant tensor:
#      x y z
#    x 1.586090 0.000000 0.000000 
#    y 0.000000 1.594600 0.000000 
#    z 0.000000 0.000000 1.584580 
# 
# From -- ./inp_files/68349.got.cif
#   From: 2010.05.17/outbox.cif.g08.bks.cpg/sg63_35_cif.got.tgz:68349.got - 2010.06.03 15:47:04.
