data_PCOD9472711
_publ_section_title
;
Structure prediction by ZEFSAII (Michael W. Deem and Ramdas Pophale) SiO2 
 PCOD9472711
Probable space group: C M C M
;
_chemical_formula_sum "Si O2"
_cell_formula_units_Z 72
_cell_length_a 27.024019
_cell_length_b 14.990819
_cell_length_c 8.874543
_cell_angle_alpha 90.000000
_cell_angle_beta 90.000000
_cell_angle_gamma 90.000000
_cell_volume 3595.185439
_symmetry_space_group_name_H-M "C M C M"
_symmetry_group_IT_number 63
_symmetry_cell_setting 'orthorhombic'
loop_
_space_group_symop_operation_xyz
x,y,z
-x,-y,1/2+z
x,-y,-z
-x,y,1/2-z
-x,-y,-z
x,y,1/2-z
-x,y,z
x,-y,1/2+z
1/2+x,1/2+y,z
1/2-x,1/2-y,1/2+z
1/2+x,1/2-y,-z
1/2-x,1/2+y,1/2-z
1/2-x,1/2-y,-z
1/2+x,1/2+y,1/2-z
1/2-x,1/2+y,z
1/2+x,1/2-y,1/2+z
loop_
_atom_site_type_symbol
_atom_site_label
_atom_site_fract_x
_atom_site_fract_y
_atom_site_fract_z
Si Si1 0.769675 0.340129 0.074152
Si Si2 0.663405 0.591017 0.573905
Si Si3 0.912020 0.785034 0.929929
Si Si4 0.000000 0.900687 0.430068
Si Si5 0.876706 0.405760 0.068487
O O1 0.778606 0.320686 0.250000
O O2 0.722695 0.405232 0.063522
O O3 0.820802 0.381064 0.014282
O O4 0.750000 0.250000 0.000000
O O5 0.644617 0.500000 0.500000
O O6 0.649800 0.596577 0.750000
O O7 0.639827 0.672568 0.482843
O O8 0.917641 0.793460 0.750000
O O9 0.910452 0.680122 0.968751
O O10 0.953097 0.843847 0.012485
O O11 0.000000 0.907775 0.250000
O O12 0.000000 0.000000 0.500000
O O13 0.875659 0.413733 0.250000
O O14 0.892094 0.500000 0.000000
#
# Coordination Sequence:
#
# PCOD9472711 Si02
#       5
#    16  16  16   8  16
#     4  10  20  35  55  84 120 163 208 251 300 351
#     4  11  22  35  56  86 121 161 204 249 300 358
#     4  11  23  42  65  90 123 158 200 251 306 363
#     4  12  26  46  71  98 125 154 195 244 308 372
#     4  10  22  39  61  89 123 164 208 253 302 355
#
# _framework density 20.026782999999998
#
# number of rings (size 3 to 8) (size 9 to 14) (size 15 to 20)
#    0.000    1.333    2.222    3.667    0.000    3.556 
#    0.000    0.556    0.000    0.000    0.000    0.000 
#    0.000    0.000    0.000    0.000    0.000    0.000 
#
# Total GULP energy -201103.142534 kJ/mol
# GULP energy per Si atom -5586.198404 kJ/mol
# Density = 1.998120 g / cm^3
# Si number density = 20.026783 Si / 1000 Ang^3
#
#
#
# Elastic Constant Matrix: (Units=GPa)
#
#
# Indices 1 2 3 4 5 6 
#
# 1 72.9731 34.4793 36.5613 0.0000 0.0000 0.0000
# 2 34.4793 183.3623 73.2119 0.0000 0.0000 0.0000
# 3 36.5613 73.2119 85.8198 0.0000 0.0000 0.0000
# 4 0.0000 0.0000 0.0000 36.7259 0.0000 0.0000
# 5 0.0000 0.0000 0.0000 0.0000 26.8868 0.0000
# 6 0.0000 0.0000 0.0000 0.0000 0.0000 23.1684
#
#
#
# Elastic Compliance Matrix: (Units=1/GPa)
#
#
# Indices 1 2 3 4 5 6 
#
# 1 0.017450 -0.000475 -0.007029 0.000000 0.000000 0.000000
# 2 -0.000475 0.008284 -0.006865 0.000000 0.000000 0.000000
# 3 -0.007029 -0.006865 0.020503 0.000000 0.000000 0.000000
# 4 0.000000 0.000000 0.000000 0.027229 0.000000 0.000000
# 5 0.000000 0.000000 0.000000 0.000000 0.037193 0.000000
# 6 0.000000 0.000000 0.000000 0.000000 0.000000 0.043162
#
#
# Mechanical properties :
#
#
# Convention : Reuss Voigt Hill
#
# Bulk Modulus (GPa) = 57.14345 70.07336 63.60840
# Shear Modulus (GPa) = 26.54066 30.54973 28.54519
#
# Velocity S-wave (km/s) = 3.64436 3.90993 3.77948
# Velocity P-wave (km/s) = 6.80470 7.44642 7.13278
#
# Compressibility (1/GPa) = 0.01749982
#
# Stress axis : x y z
#
# Youngs Moduli (GPa) = 57.30762 120.71758 48.77353
#
# Poissons Ratio (x) = 0.05731 0.34283
# Poissons Ratio (y) = 0.02721 0.33481
# Poissons Ratio (z) = 0.40282 0.82867
#
# Static dielectric constant tensor:
#      x y z
#    x 1.768340 0.000000 0.000000 
#    y 0.000000 1.715270 0.000000 
#    z 0.000000 0.000000 1.679030 
# 
# From -- ./inp_files/11717.got.cif
#   From: 2010.05.17/outbox.cif.g08.bks.cpg/sg63_6_cif.got.tgz:11717.got - 2010.06.03 15:47:04.
