data_PCOD9472889
_publ_section_title
;
Structure prediction by ZEFSAII (Michael W. Deem and Ramdas Pophale) SiO2 
 PCOD9472889
Probable space group: C M C M
;
_chemical_formula_sum "Si O2"
_cell_formula_units_Z 80
_cell_length_a 14.788665
_cell_length_b 10.060207
_cell_length_c 24.724496
_cell_angle_alpha 90.000000
_cell_angle_beta 90.000000
_cell_angle_gamma 90.000000
_cell_volume 3678.437112
_symmetry_space_group_name_H-M "C M C M"
_symmetry_group_IT_number 63
_symmetry_cell_setting 'orthorhombic'
loop_
_space_group_symop_operation_xyz
x,y,z
-x,-y,1/2+z
x,-y,-z
-x,y,1/2-z
-x,-y,-z
x,y,1/2-z
-x,y,z
x,-y,1/2+z
1/2+x,1/2+y,z
1/2-x,1/2-y,1/2+z
1/2+x,1/2-y,-z
1/2-x,1/2+y,1/2-z
1/2-x,1/2-y,-z
1/2+x,1/2+y,1/2-z
1/2-x,1/2+y,z
1/2+x,1/2-y,1/2+z
loop_
_atom_site_type_symbol
_atom_site_label
_atom_site_fract_x
_atom_site_fract_y
_atom_site_fract_z
Si Si1 0.144476 0.117757 0.537566
Si Si2 0.106105 0.716979 0.653329
Si Si3 0.862248 0.368049 0.030053
Si Si4 0.889059 0.218105 0.750000
Si Si5 0.892864 0.980310 0.343160
Si Si6 0.110958 0.474245 0.250000
O O1 0.110361 0.251292 0.510452
O O2 0.253236 0.123877 0.533498
O O3 0.119647 0.083054 0.598152
O O4 0.111028 0.000000 0.500000
O O5 0.111422 0.664012 0.591757
O O6 0.140398 0.609592 0.696982
O O7 0.000000 0.729799 0.665965
O O8 0.144946 0.867925 0.658130
O O9 0.894263 0.500000 0.000000
O O10 0.858958 0.128660 0.699288
O O11 0.858154 0.371713 0.750000
O O12 0.000000 0.223957 0.750000
O O13 0.000000 0.992752 0.332597
O O14 0.000000 0.479652 0.250000
#
# Coordination Sequence:
#
# PCOD9472889 Si02
#       6
#    16  16  16   8  16   8
#     4  10  20  38  56  78 110 146 182 216 267 323
#     4  10  20  36  57  82 110 142 179 222 270 321
#     4  10  22  36  55  79 111 149 179 217 270 325
#     4   9  19  35  54  81 110 141 177 221 274 319
#     4  10  20  35  59  83 107 140 183 226 265 317
#     4   9  19  35  54  79 114 143 171 219 278 325
#
# _framework density 21.748366999999998
#
# number of rings (size 3 to 8) (size 9 to 14) (size 15 to 20)
#    0.000    2.200    2.000    0.600    2.800    4.000 
#    0.000    1.000    0.000    0.000    0.000    0.000 
#    0.000    0.000    0.000    0.000    0.000    0.000 
#
# Total GULP energy -223263.079414 kJ/mol
# GULP energy per Si atom -5581.576985 kJ/mol
# Density = 2.169887 g / cm^3
# Si number density = 21.748367 Si / 1000 Ang^3
#
#
#
# Elastic Constant Matrix: (Units=GPa)
#
#
# Indices 1 2 3 4 5 6 
#
# 1 48.5226 9.6485 -9.9658 0.0000 0.0000 0.0000
# 2 9.6485 273.3795 147.1455 0.0000 0.0000 0.0000
# 3 -9.9658 147.1455 211.2423 0.0000 0.0000 0.0000
# 4 0.0000 0.0000 0.0000 25.2343 0.0000 0.0000
# 5 0.0000 0.0000 0.0000 0.0000 32.6162 0.0000
# 6 0.0000 0.0000 0.0000 0.0000 0.0000 65.4203
#
#
#
# Elastic Compliance Matrix: (Units=1/GPa)
#
#
# Indices 1 2 3 4 5 6 
#
# 1 0.021532 -0.002091 0.002472 0.000000 0.000000 0.000000
# 2 -0.002091 0.006055 -0.004316 0.000000 0.000000 0.000000
# 3 0.002472 -0.004316 0.007857 0.000000 0.000000 0.000000
# 4 0.000000 0.000000 0.000000 0.039629 0.000000 0.000000
# 5 0.000000 0.000000 0.000000 0.000000 0.030660 0.000000
# 6 0.000000 0.000000 0.000000 0.000000 0.000000 0.015286
#
#
# Mechanical properties :
#
#
# Convention : Reuss Voigt Hill
#
# Bulk Modulus (GPa) = 36.26498 91.86678 64.06588
# Shear Modulus (GPa) = 36.21099 50.40858 43.30979
#
# Velocity S-wave (km/s) = 4.08487 4.81959 4.46736
# Velocity P-wave (km/s) = 6.24173 8.56176 7.49209
#
# Compressibility (1/GPa) = 0.02757482
#
# Stress axis : x y z
#
# Youngs Moduli (GPa) = 46.44175 165.15414 127.27247
#
# Poissons Ratio (x) = 0.34526 -0.31462
# Poissons Ratio (y) = 0.09709 0.54935
# Poissons Ratio (z) = -0.11480 0.71286
#
# Static dielectric constant tensor:
#      x y z
#    x 1.836230 0.000000 0.000000 
#    y 0.000000 1.766950 0.000000 
#    z 0.000000 0.000000 1.698420 
# 
# From -- ./inp_files/55311.got.cif
#   From: 2010.05.17/outbox.cif.g08.bks.cpg/sg63_28_cif.got.tgz:55311.got - 2010.06.03 15:47:04.
