data_PCOD9472731
_publ_section_title
;
Structure prediction by ZEFSAII (Michael W. Deem and Ramdas Pophale) SiO2 
 PCOD9472731
Probable space group: C M C M
;
_chemical_formula_sum "Si O2"
_cell_formula_units_Z 64
_cell_length_a 8.991137
_cell_length_b 25.313936
_cell_length_c 14.882148
_cell_angle_alpha 90.000000
_cell_angle_beta 90.000000
_cell_angle_gamma 90.000000
_cell_volume 3387.192758
_symmetry_space_group_name_H-M "C M C M"
_symmetry_group_IT_number 63
_symmetry_cell_setting 'orthorhombic'
loop_
_space_group_symop_operation_xyz
x,y,z
-x,-y,1/2+z
x,-y,-z
-x,y,1/2-z
-x,-y,-z
x,y,1/2-z
-x,y,z
x,-y,1/2+z
1/2+x,1/2+y,z
1/2-x,1/2-y,1/2+z
1/2+x,1/2-y,-z
1/2-x,1/2+y,1/2-z
1/2-x,1/2-y,-z
1/2+x,1/2+y,1/2-z
1/2-x,1/2+y,z
1/2+x,1/2-y,1/2+z
loop_
_atom_site_type_symbol
_atom_site_label
_atom_site_fract_x
_atom_site_fract_y
_atom_site_fract_z
Si Si1 0.823164 0.389993 0.392288
Si Si2 0.329318 0.500774 0.609294
Si Si3 0.180504 0.307323 0.750000
Si Si4 0.821023 0.813970 0.250000
Si Si5 0.322165 0.891859 0.604716
O O1 0.762307 0.447509 0.363729
O O2 0.741635 0.345192 0.335748
O O3 0.792878 0.384107 0.498847
O O4 0.000000 0.387524 0.378216
O O5 0.327179 0.500000 0.500000
O O6 0.500000 0.504980 0.638376
O O7 0.256893 0.445422 0.636700
O O8 0.230470 0.246927 0.750000
O O9 0.225286 0.341653 0.836661
O O10 0.000000 0.305593 0.750000
O O11 0.000000 0.815640 0.250000
O O12 0.500000 0.898892 0.615039
#
# Coordination Sequence:
#
# PCOD9472731 Si02
#       5
#    16  16   8   8  16
#     4  10  20  35  56  81 109 142 179 221 269 320
#     4   9  17  31  53  82 113 142 175 217 266 320
#     4   9  20  38  57  78 105 140 182 223 266 319
#     4  11  23  38  55  76 105 142 184 227 270 319
#     4   9  18  35  58  81 108 143 180 219 266 322
#
# _framework density 18.894703
#
# number of rings (size 3 to 8) (size 9 to 14) (size 15 to 20)
#    0.000    2.500    0.000    1.875    0.000    6.000 
#    0.000    6.875    0.000    0.000    0.000    0.000 
#    0.000    0.000    0.000    0.000    0.000    0.000 
#
# Total GULP energy -178672.110722 kJ/mol
# GULP energy per Si atom -5583.503460 kJ/mol
# Density = 1.885170 g / cm^3
# Si number density = 18.894703 Si / 1000 Ang^3
#
#
#
# Elastic Constant Matrix: (Units=GPa)
#
#
# Indices 1 2 3 4 5 6 
#
# 1 74.5722 72.5262 50.5045 0.0000 0.0000 0.0000
# 2 72.5262 213.9848 77.0117 0.0000 0.0000 0.0000
# 3 50.5045 77.0117 89.4046 0.0000 0.0000 0.0000
# 4 0.0000 0.0000 0.0000 27.7920 0.0000 0.0000
# 5 0.0000 0.0000 0.0000 0.0000 11.7615 0.0000
# 6 0.0000 0.0000 0.0000 0.0000 0.0000 30.3370
#
#
#
# Elastic Compliance Matrix: (Units=1/GPa)
#
#
# Indices 1 2 3 4 5 6 
#
# 1 0.024791 -0.004873 -0.009807 0.000000 0.000000 0.000000
# 2 -0.004873 0.007731 -0.003906 0.000000 0.000000 0.000000
# 3 -0.009807 -0.003906 0.020090 0.000000 0.000000 0.000000
# 4 0.000000 0.000000 0.000000 0.035982 0.000000 0.000000
# 5 0.000000 0.000000 0.000000 0.000000 0.085023 0.000000
# 6 0.000000 0.000000 0.000000 0.000000 0.000000 0.032963
#
#
# Mechanical properties :
#
#
# Convention : Reuss Voigt Hill
#
# Bulk Modulus (GPa) = 64.77070 86.44961 75.61016
# Shear Modulus (GPa) = 20.08858 25.83938 22.96398
#
# Velocity S-wave (km/s) = 3.26419 3.70205 3.48999
# Velocity P-wave (km/s) = 6.96856 8.00788 7.50623
#
# Compressibility (1/GPa) = 0.01543908
#
# Stress axis : x y z
#
# Youngs Moduli (GPa) = 40.33752 129.35411 49.77643
#
# Poissons Ratio (x) = 0.63034 0.48815
# Poissons Ratio (y) = 0.19656 0.19445
# Poissons Ratio (z) = 0.39558 0.50530
#
# Static dielectric constant tensor:
#      x y z
#    x 1.630030 0.000000 0.000000 
#    y 0.000000 1.618610 0.000000 
#    z 0.000000 0.000000 1.689990 
# 
# From -- ./inp_files/27524.got.cif
#   From: 2010.05.17/outbox.cif.g08.bks.cpg/sg63_14_cif.got.tgz:27524.got - 2010.06.03 15:47:04.
