data_PCOD9472001
_publ_section_title
;
Structure prediction by ZEFSAII (Michael W. Deem and Ramdas Pophale) SiO2 
 PCOD9472001
Probable space group: C M C M
;
_chemical_formula_sum "Si O2"
_cell_formula_units_Z 80
_cell_length_a 7.430576
_cell_length_b 19.151890
_cell_length_c 25.976978
_cell_angle_alpha 90.000000
_cell_angle_beta 90.000000
_cell_angle_gamma 90.000000
_cell_volume 3696.772678
_symmetry_space_group_name_H-M "C M C M"
_symmetry_group_IT_number 63
_symmetry_cell_setting 'orthorhombic'
loop_
_space_group_symop_operation_xyz
x,y,z
-x,-y,1/2+z
x,-y,-z
-x,y,1/2-z
-x,-y,-z
x,y,1/2-z
-x,y,z
x,-y,1/2+z
1/2+x,1/2+y,z
1/2-x,1/2-y,1/2+z
1/2+x,1/2-y,-z
1/2-x,1/2+y,1/2-z
1/2-x,1/2-y,-z
1/2+x,1/2+y,1/2-z
1/2-x,1/2+y,z
1/2+x,1/2-y,1/2+z
loop_
_atom_site_type_symbol
_atom_site_label
_atom_site_fract_x
_atom_site_fract_y
_atom_site_fract_z
Si Si1 0.218300 0.662079 0.597111
Si Si2 0.209489 0.180292 0.092858
Si Si3 0.719244 0.932074 0.308486
Si Si4 0.211245 0.077610 0.493680
Si Si5 0.782676 0.408365 0.808450
O O1 0.285082 0.741573 0.593305
O O2 0.280249 0.621933 0.648398
O O3 0.271909 0.618671 0.546997
O O4 0.000000 0.663203 0.599141
O O5 0.219371 0.145248 0.148746
O O6 0.000000 0.188860 0.078470
O O7 0.289286 0.126154 0.051545
O O8 0.775578 0.915651 0.250000
O O9 0.500000 0.931801 0.308541
O O10 0.773962 0.011910 0.320501
O O11 0.000000 0.067947 0.480882
O O12 0.289120 0.000000 0.500000
O O13 0.725066 0.392133 0.750000
O O14 0.000000 0.407572 0.809015
#
# Coordination Sequence:
#
# PCOD9472001 Si02
#       5
#    16  16  16  16  16
#     4  10  20  33  52  77 100 127 167 209 249 295
#     4  10  21  34  49  74 104 132 165 204 250 301
#     4   8  15  30  51  73  97 125 160 203 246 289
#     4  10  21  36  52  71 100 136 169 205 252 302
#     4   9  18  33  53  75  98 128 166 203 241 290
#
# _framework density 21.640497
#
# number of rings (size 3 to 8) (size 9 to 14) (size 15 to 20)
#    0.000    2.600    0.000    3.000    0.000    3.200 
#    0.000    2.000    0.000    1.800    0.000    0.000 
#    0.000    0.000    0.000    0.000    0.000    0.000 
#
# Total GULP energy -223430.531783 kJ/mol
# GULP energy per Si atom -5585.763295 kJ/mol
# Density = 2.159124 g / cm^3
# Si number density = 21.640497 Si / 1000 Ang^3
#
#
#
# Elastic Constant Matrix: (Units=GPa)
#
#
# Indices 1 2 3 4 5 6 
#
# 1 61.1641 -9.0898 -21.8984 0.0000 0.0000 0.0000
# 2 -9.0898 203.1175 107.2401 0.0000 0.0000 0.0000
# 3 -21.8984 107.2401 118.9930 0.0000 0.0000 0.0000
# 4 0.0000 0.0000 0.0000 165.1436 0.0000 0.0000
# 5 0.0000 0.0000 0.0000 0.0000 24.6263 0.0000
# 6 0.0000 0.0000 0.0000 0.0000 0.0000 15.2658
#
#
#
# Elastic Compliance Matrix: (Units=1/GPa)
#
#
# Indices 1 2 3 4 5 6 
#
# 1 0.017835 -0.001783 0.004889 0.000000 0.000000 0.000000
# 2 -0.001783 0.009571 -0.008954 0.000000 0.000000 0.000000
# 3 0.004889 -0.008954 0.017373 0.000000 0.000000 0.000000
# 4 0.000000 0.000000 0.000000 0.006055 0.000000 0.000000
# 5 0.000000 0.000000 0.000000 0.000000 0.040607 0.000000
# 6 0.000000 0.000000 0.000000 0.000000 0.000000 0.065506
#
#
# Mechanical properties :
#
#
# Convention : Reuss Voigt Hill
#
# Bulk Modulus (GPa) = 30.22655 59.53094 44.87874
# Shear Modulus (GPa) = 27.82888 61.47532 44.65210
#
# Velocity S-wave (km/s) = 3.58992 5.33565 4.54735
# Velocity P-wave (km/s) = 5.58402 8.09492 6.95374
#
# Compressibility (1/GPa) = 0.03308350
#
# Stress axis : x y z
#
# Youngs Moduli (GPa) = 56.06964 104.48574 57.56097
#
# Poissons Ratio (x) = 0.18633 -0.28144
# Poissons Ratio (y) = 0.09999 0.51538
# Poissons Ratio (z) = -0.27414 0.93552
#
# Static dielectric constant tensor:
#      x y z
#    x 1.835600 0.000000 0.000000 
#    y 0.000000 1.765810 0.000000 
#    z 0.000000 0.000000 1.736470 
# 
# From -- ./inp_files/61140.got.cif
#   From: 2010.05.17/outbox.cif.g08.bks.cpg/sg63_31_cif.got.tgz:61140.got - 2010.06.03 15:47:04.
