data_PCOD9472060
_publ_section_title
;
Structure prediction by ZEFSAII (Michael W. Deem and Ramdas Pophale) SiO2 
 PCOD9472060
Probable space group: C M C M
;
_chemical_formula_sum "Si O2"
_cell_formula_units_Z 112
_cell_length_a 29.602391
_cell_length_b 12.456979
_cell_length_c 14.272153
_cell_angle_alpha 90.000000
_cell_angle_beta 90.000000
_cell_angle_gamma 90.000000
_cell_volume 5262.947233
_symmetry_space_group_name_H-M "C M C M"
_symmetry_group_IT_number 63
_symmetry_cell_setting 'orthorhombic'
loop_
_space_group_symop_operation_xyz
x,y,z
-x,-y,1/2+z
x,-y,-z
-x,y,1/2-z
-x,-y,-z
x,y,1/2-z
-x,y,z
x,-y,1/2+z
1/2+x,1/2+y,z
1/2-x,1/2-y,1/2+z
1/2+x,1/2-y,-z
1/2-x,1/2+y,1/2-z
1/2-x,1/2-y,-z
1/2+x,1/2+y,1/2-z
1/2-x,1/2+y,z
1/2+x,1/2-y,1/2+z
loop_
_atom_site_type_symbol
_atom_site_label
_atom_site_fract_x
_atom_site_fract_y
_atom_site_fract_z
Si Si1 0.715996 0.044055 0.394437
Si Si2 0.588606 0.477361 0.358302
Si Si3 0.349848 0.856730 0.147428
Si Si4 0.188940 0.034315 0.854337
Si Si5 0.949615 0.846009 0.509157
Si Si6 0.950132 0.359051 0.359222
Si Si7 0.303039 0.744550 0.974525
O O1 0.692975 0.160031 0.397776
O O2 0.717881 0.000000 0.500000
O O3 0.686033 0.952813 0.347645
O O4 0.767759 0.042148 0.361457
O O5 0.576820 0.460641 0.250000
O O6 0.640079 0.518714 0.363348
O O7 0.558627 0.564586 0.411243
O O8 0.583570 0.371392 0.423002
O O9 0.350477 0.801894 0.250000
O O10 0.399835 0.908210 0.131415
O O11 0.333682 0.778711 0.063402
O O12 0.190524 0.083788 0.750000
O O13 0.190251 0.127978 0.931032
O O14 0.947089 0.735508 0.564922
O O15 0.000000 0.856308 0.470196
O O16 0.951458 0.321486 0.250000
O O17 0.000000 0.412929 0.373476
O O18 0.250000 0.750000 0.000000
#
# Coordination Sequence:
#
# PCOD9472060 Si02
#       7
#    16  16  16  16  16  16  16
#     4  10  21  36  56  78 108 147 187 232 280 324
#     4  10  21  33  48  72 107 143 180 230 279 337
#     4  10  20  36  57  84 117 149 190 235 286 348
#     4  11  23  38  54  81 115 149 194 233 276 339
#     4  10  20  33  53  77 105 143 185 230 284 342
#     4   9  18  33  55  83 112 142 182 234 285 336
#     4  11  22  37  60  80 112 154 190 236 283 329
#
# _framework density 21.280851999999999
#
# number of rings (size 3 to 8) (size 9 to 14) (size 15 to 20)
#    0.000    1.857    2.857    2.571    2.000    4.000 
#    0.000    1.429    0.000    3.857    0.000    0.000 
#    0.000    4.571    0.000    0.000    0.000    0.000 
#
# Total GULP energy -312128.778833 kJ/mol
# GULP energy per Si atom -5573.728193 kJ/mol
# Density = 2.123242 g / cm^3
# Si number density = 21.280852 Si / 1000 Ang^3
#
#
#
# Elastic Constant Matrix: (Units=GPa)
#
#
# Indices 1 2 3 4 5 6 
#
# 1 125.9254 -10.5134 23.7965 0.0000 0.0000 0.0000
# 2 -10.5134 28.6272 4.4682 0.0000 0.0000 0.0000
# 3 23.7965 4.4682 101.5137 0.0000 0.0000 0.0000
# 4 0.0000 0.0000 0.0000 15.3227 0.0000 0.0000
# 5 0.0000 0.0000 0.0000 0.0000 24.1546 0.0000
# 6 0.0000 0.0000 0.0000 0.0000 0.0000 7.3521
#
#
#
# Elastic Compliance Matrix: (Units=1/GPa)
#
#
# Indices 1 2 3 4 5 6 
#
# 1 0.008647 0.003516 -0.002182 0.000000 0.000000 0.000000
# 2 0.003516 0.036603 -0.002435 0.000000 0.000000 0.000000
# 3 -0.002182 -0.002435 0.010470 0.000000 0.000000 0.000000
# 4 0.000000 0.000000 0.000000 0.065263 0.000000 0.000000
# 5 0.000000 0.000000 0.000000 0.000000 0.041400 0.000000
# 6 0.000000 0.000000 0.000000 0.000000 0.000000 0.136016
#
#
# Mechanical properties :
#
#
# Convention : Reuss Voigt Hill
#
# Bulk Modulus (GPa) = 18.68533 32.39654 25.54094
# Shear Modulus (GPa) = 15.70156 25.25354 20.47755
#
# Velocity S-wave (km/s) = 2.71924 3.44856 3.10538
# Velocity P-wave (km/s) = 4.31954 5.57791 4.98856
#
# Compressibility (1/GPa) = 0.05351792
#
# Stress axis : x y z
#
# Youngs Moduli (GPa) = 115.64613 27.31998 95.51530
#
# Poissons Ratio (x) = -0.09606 0.20839
# Poissons Ratio (y) = -0.40663 0.23261
# Poissons Ratio (z) = 0.25231 0.06653
#
# Static dielectric constant tensor:
#      x y z
#    x 1.815230 0.000000 0.000000 
#    y 0.000000 1.797690 0.000000 
#    z 0.000000 0.000000 1.823180 
# 
# From -- ./inp_files/37939.got.cif
#   From: 2010.05.17/outbox.cif.g08.bks.cpg/sg63_19_cif.got.tgz:37939.got - 2010.06.03 15:47:04.
