data_PCOD9472581
_publ_section_title
;
Structure prediction by ZEFSAII (Michael W. Deem and Ramdas Pophale) SiO2 
 PCOD9472581
Probable space group: C M C M
;
_chemical_formula_sum "Si O2"
_cell_formula_units_Z 112
_cell_length_a 14.504965
_cell_length_b 25.812030
_cell_length_c 16.188576
_cell_angle_alpha 90.000000
_cell_angle_beta 90.000000
_cell_angle_gamma 90.000000
_cell_volume 6061.044811
_symmetry_space_group_name_H-M "C M C M"
_symmetry_group_IT_number 63
_symmetry_cell_setting 'orthorhombic'
loop_
_space_group_symop_operation_xyz
x,y,z
-x,-y,1/2+z
x,-y,-z
-x,y,1/2-z
-x,-y,-z
x,y,1/2-z
-x,y,z
x,-y,1/2+z
1/2+x,1/2+y,z
1/2-x,1/2-y,1/2+z
1/2+x,1/2-y,-z
1/2-x,1/2+y,1/2-z
1/2-x,1/2-y,-z
1/2+x,1/2+y,1/2-z
1/2-x,1/2+y,z
1/2+x,1/2-y,1/2+z
loop_
_atom_site_type_symbol
_atom_site_label
_atom_site_fract_x
_atom_site_fract_y
_atom_site_fract_z
Si Si1 0.104400 0.194482 0.912051
Si Si2 0.887206 0.209212 0.250000
Si Si3 0.390895 0.171358 0.750000
Si Si4 0.759828 0.054740 0.031426
Si Si5 0.391947 0.917658 0.847020
Si Si6 0.286500 0.141143 0.593774
Si Si7 0.892334 0.688739 0.055798
Si Si8 0.106420 0.856034 0.591865
O O1 0.187083 0.161055 0.875576
O O2 0.123555 0.255384 0.904522
O O3 0.000000 0.183676 0.882651
O O4 0.107044 0.179125 0.009428
O O5 0.856217 0.268771 0.250000
O O6 0.858206 0.177783 0.168562
O O7 0.000000 0.210275 0.250000
O O8 0.500000 0.173494 0.750000
O O9 0.355281 0.142833 0.669134
O O10 0.676130 0.048927 0.096190
O O11 0.833982 0.093102 0.073419
O O12 0.723647 0.086690 0.952205
O O13 0.796431 0.000000 0.000000
O O14 0.370385 0.920646 0.750000
O O15 0.500000 0.930909 0.858384
O O16 0.380077 0.858788 0.881030
O O17 0.326429 0.178991 0.522145
O O18 0.000000 0.688118 0.028183
O O19 0.000000 0.870195 0.608292
#
# Coordination Sequence:
#
# PCOD9472581 Si02
#       8
#    16   8   8  16  16  16  16  16
#     4   9  17  31  50  75 108 148 183 216 263 324
#     4   9  18  32  53  87 121 145 170 212 270 327
#     4  11  22  36  56  83 117 149 175 218 275 333
#     4  10  22  39  58  78 104 145 189 235 280 315
#     4   9  19  35  53  78 108 136 177 228 276 327
#     4  10  20  35  51  76 107 143 188 223 266 326
#     4   9  16  29  52  77 108 143 175 217 267 325
#     4   9  18  33  55  83 114 143 181 224 268 326
#
# _framework density 18.478663000000001
#
# number of rings (size 3 to 8) (size 9 to 14) (size 15 to 20)
#    0.000    2.571    0.000    1.714    1.000    5.714 
#    2.571    0.357    0.000    0.000    0.000    0.000 
#    0.000    0.000    0.000    0.000    0.000    0.000 
#
# Total GULP energy -312412.080888 kJ/mol
# GULP energy per Si atom -5578.787159 kJ/mol
# Density = 1.843660 g / cm^3
# Si number density = 18.478663 Si / 1000 Ang^3
#
#
#
# Elastic Constant Matrix: (Units=GPa)
#
#
# Indices 1 2 3 4 5 6 
#
# 1 57.5719 13.0058 21.8900 0.0000 0.0000 0.0000
# 2 13.0058 38.5998 4.0286 0.0000 0.0000 0.0000
# 3 21.8900 4.0286 42.8853 0.0000 0.0000 0.0000
# 4 0.0000 0.0000 0.0000 12.0486 0.0000 0.0000
# 5 0.0000 0.0000 0.0000 0.0000 18.9080 0.0000
# 6 0.0000 0.0000 0.0000 0.0000 0.0000 18.2825
#
#
#
# Elastic Compliance Matrix: (Units=1/GPa)
#
#
# Indices 1 2 3 4 5 6 
#
# 1 0.023115 -0.006622 -0.011177 0.000000 0.000000 0.000000
# 2 -0.006622 0.028060 0.000744 0.000000 0.000000 0.000000
# 3 -0.011177 0.000744 0.028953 0.000000 0.000000 0.000000
# 4 0.000000 0.000000 0.000000 0.082997 0.000000 0.000000
# 5 0.000000 0.000000 0.000000 0.000000 0.052888 0.000000
# 6 0.000000 0.000000 0.000000 0.000000 0.000000 0.054697
#
#
# Mechanical properties :
#
#
# Convention : Reuss Voigt Hill
#
# Bulk Modulus (GPa) = 21.72987 24.10063 22.91525
# Shear Modulus (GPa) = 15.61722 16.52332 16.07027
#
# Velocity S-wave (km/s) = 2.91030 2.99353 2.95221
# Velocity P-wave (km/s) = 4.80396 5.00191 4.90393
#
# Compressibility (1/GPa) = 0.04601961
#
# Stress axis : x y z
#
# Youngs Moduli (GPa) = 43.26184 35.63739 34.53875
#
# Poissons Ratio (x) = 0.23599 0.38603
# Poissons Ratio (y) = 0.28647 -0.02570
# Poissons Ratio (z) = 0.48352 -0.02652
#
# Static dielectric constant tensor:
#      x y z
#    x 1.680890 0.000000 0.000000 
#    y 0.000000 1.606520 0.000000 
#    z 0.000000 0.000000 1.638310 
# 
# From -- ./inp_files/32624.got.cif
#   From: 2010.05.17/outbox.cif.g08.bks.cpg/sg63_17_cif.got.tgz:32624.got - 2010.06.03 15:47:04.
