data_PCOD9472860
_publ_section_title
;
Structure prediction by ZEFSAII (Michael W. Deem and Ramdas Pophale) SiO2 
 PCOD9472860
Probable space group: C M C M
;
_chemical_formula_sum "Si O2"
_cell_formula_units_Z 112
_cell_length_a 15.359341
_cell_length_b 14.470429
_cell_length_c 25.577246
_cell_angle_alpha 90.000000
_cell_angle_beta 90.000000
_cell_angle_gamma 90.000000
_cell_volume 5684.702869
_symmetry_space_group_name_H-M "C M C M"
_symmetry_group_IT_number 63
_symmetry_cell_setting 'orthorhombic'
loop_
_space_group_symop_operation_xyz
x,y,z
-x,-y,1/2+z
x,-y,-z
-x,y,1/2-z
-x,-y,-z
x,y,1/2-z
-x,y,z
x,-y,1/2+z
1/2+x,1/2+y,z
1/2-x,1/2-y,1/2+z
1/2+x,1/2-y,-z
1/2-x,1/2+y,1/2-z
1/2-x,1/2-y,-z
1/2+x,1/2+y,1/2-z
1/2-x,1/2+y,z
1/2+x,1/2-y,1/2+z
loop_
_atom_site_type_symbol
_atom_site_label
_atom_site_fract_x
_atom_site_fract_y
_atom_site_fract_z
Si Si1 0.602151 0.822312 0.086087
Si Si2 0.250863 0.140943 0.989361
Si Si3 0.395708 0.305013 0.191523
Si Si4 0.289668 0.883952 0.690373
Si Si5 0.895583 0.426459 0.191461
Si Si6 0.098606 0.083225 0.911630
Si Si7 0.666550 0.613910 0.407492
O O1 0.500000 0.838684 0.077677
O O2 0.662089 0.874802 0.043894
O O3 0.626876 0.858405 0.144037
O O4 0.621736 0.712769 0.083213
O O5 0.167309 0.116492 0.954402
O O6 0.250000 0.250000 0.000000
O O7 0.237019 0.096599 0.046103
O O8 0.372663 0.339451 0.250000
O O9 0.500000 0.290705 0.190623
O O10 0.348091 0.207650 0.183220
O O11 0.374841 0.374380 0.144521
O O12 0.256454 0.883035 0.750000
O O13 0.215009 0.883867 0.647556
O O14 0.347905 0.975829 0.684212
O O15 0.873511 0.391231 0.250000
O O16 0.000000 0.440488 0.190009
O O17 0.000000 0.113499 0.923718
O O18 0.102949 0.972832 0.909164
#
# Coordination Sequence:
#
# PCOD9472860 Si02
#       7
#    16  16  16  16  16  16  16
#     4  10  21  39  61  85 116 153 192 239 293 344
#     4  10  22  39  58  82 114 147 189 240 281 332
#     4   9  18  34  56  83 115 150 194 247 293 338
#     4  10  20  35  58  85 114 152 195 240 294 348
#     4   9  18  34  57  84 113 148 193 244 295 345
#     4  11  23  39  61  87 118 158 196 232 286 350
#     4  11  23  38  56  84 119 153 192 238 282 341
#
# _framework density 19.701998
#
# number of rings (size 3 to 8) (size 9 to 14) (size 15 to 20)
#    0.000    2.000    0.000    3.857    0.000    6.286 
#    0.000    5.000    0.000    7.714    0.000    0.000 
#    0.000    0.000    0.000    0.000    0.000    0.000 
#
# Total GULP energy -312723.256938 kJ/mol
# GULP energy per Si atom -5584.343874 kJ/mol
# Density = 1.965716 g / cm^3
# Si number density = 19.701998 Si / 1000 Ang^3
#
#
#
# Elastic Constant Matrix: (Units=GPa)
#
#
# Indices 1 2 3 4 5 6 
#
# 1 68.1017 24.1753 54.6102 0.0000 0.0000 0.0000
# 2 24.1753 74.5173 38.8227 0.0000 0.0000 0.0000
# 3 54.6102 38.8227 110.3137 0.0000 0.0000 0.0000
# 4 0.0000 0.0000 0.0000 -0.8834 0.0000 0.0000
# 5 0.0000 0.0000 0.0000 0.0000 26.0696 0.0000
# 6 0.0000 0.0000 0.0000 0.0000 0.0000 22.4563
#
#
#
# Elastic Compliance Matrix: (Units=1/GPa)
#
#
# Indices 1 2 3 4 5 6 
#
# 1 0.024592 -0.002003 -0.011469 0.000000 0.000000 0.000000
# 2 -0.002003 0.016596 -0.004849 0.000000 0.000000 0.000000
# 3 -0.011469 -0.004849 0.016449 0.000000 0.000000 0.000000
# 4 0.000000 0.000000 0.000000 -1.131985 0.000000 0.000000
# 5 0.000000 0.000000 0.000000 0.000000 0.038359 0.000000
# 6 0.000000 0.000000 0.000000 0.000000 0.000000 0.044531
#
#
# Mechanical properties :
#
#
# Convention : Reuss Voigt Hill
#
# Bulk Modulus (GPa) = 47.63085 54.23879 50.93482
# Shear Modulus (GPa) = -5.27528 18.55013 6.63743
#
# Velocity S-wave (km/s) = -1.63809 3.07177 1.83745
# Velocity P-wave (km/s) = 4.54426 6.33801 5.51456
#
# Compressibility (1/GPa) = 0.02099479
#
# Stress axis : x y z
#
# Youngs Moduli (GPa) = 40.66350 60.25629 60.79247
#
# Poissons Ratio (x) = 0.12069 0.69725
# Poissons Ratio (y) = 0.08144 0.29478
# Poissons Ratio (z) = 0.46638 0.29218
#
# Static dielectric constant tensor:
#      x y z
#    x 1.650940 0.000000 0.000000 
#    y 0.000000 1.677480 0.000000 
#    z 0.000000 0.000000 1.705890 
# 
# From -- ./inp_files/62965.got.cif
#   From: 2010.05.17/outbox.cif.g08.bks.cpg/sg63_32_cif.got.tgz:62965.got - 2010.06.03 15:47:04.
