data_PCOD9472317
_publ_section_title
;
Structure prediction by ZEFSAII (Michael W. Deem and Ramdas Pophale) SiO2 
 PCOD9472317
Probable space group: C M C M
;
_chemical_formula_sum "Si O2"
_cell_formula_units_Z 96
_cell_length_a 8.704994
_cell_length_b 25.923651
_cell_length_c 23.959890
_cell_angle_alpha 90.000000
_cell_angle_beta 90.000000
_cell_angle_gamma 90.000000
_cell_volume 5406.914002
_symmetry_space_group_name_H-M "C M C M"
_symmetry_group_IT_number 63
_symmetry_cell_setting 'orthorhombic'
loop_
_space_group_symop_operation_xyz
x,y,z
-x,-y,1/2+z
x,-y,-z
-x,y,1/2-z
-x,-y,-z
x,y,1/2-z
-x,y,z
x,-y,1/2+z
1/2+x,1/2+y,z
1/2-x,1/2-y,1/2+z
1/2+x,1/2-y,-z
1/2-x,1/2+y,1/2-z
1/2-x,1/2-y,-z
1/2+x,1/2+y,1/2-z
1/2-x,1/2+y,z
1/2+x,1/2-y,1/2+z
loop_
_atom_site_type_symbol
_atom_site_label
_atom_site_fract_x
_atom_site_fract_y
_atom_site_fract_z
Si Si1 0.316131 0.104468 0.632988
Si Si2 0.314564 0.311630 0.557310
Si Si3 0.314735 0.489052 0.063935
Si Si4 0.313059 0.944507 0.250000
Si Si5 0.314561 0.408641 0.632376
Si Si6 0.183764 0.800131 0.428861
Si Si7 0.184093 0.564499 0.250000
O O1 0.500000 0.106687 0.633216
O O2 0.260412 0.062032 0.588543
O O3 0.263289 0.084421 0.693770
O O4 0.250322 0.159440 0.614926
O O5 0.500000 0.308552 0.559129
O O6 0.266113 0.360099 0.594649
O O7 0.245959 0.257706 0.578227
O O8 0.270807 0.317230 0.492054
O O9 0.500000 0.483262 0.066050
O O10 0.270734 0.538185 0.101533
O O11 0.272343 0.500000 0.000000
O O12 0.500000 0.945067 0.250000
O O13 0.263280 0.004317 0.250000
O O14 0.500000 0.407723 0.635892
O O15 0.245544 0.409172 0.693978
O O16 0.000000 0.800167 0.426047
O O17 0.000000 0.564895 0.250000
#
# Coordination Sequence:
#
# PCOD9472317 Si02
#       7
#    16  16  16   8  16  16   8
#     4  11  21  36  56  79 109 146 188 226 271 326
#     4   9  19  37  59  82 112 147 181 222 273 329
#     4  10  20  34  53  80 113 143 174 222 278 328
#     4   9  20  37  54  75 108 147 184 228 273 317
#     4  10  20  35  56  81 109 144 186 224 269 328
#     4  10  20  36  58  85 114 143 180 226 276 326
#     4  11  21  37  56  77 110 147 186 232 275 317
#
# _framework density 17.755046
#
# number of rings (size 3 to 8) (size 9 to 14) (size 15 to 20)
#    0.000    2.000    1.667    2.250    0.000    4.333 
#    0.000    4.167    0.000    2.000    0.000    0.000 
#    0.000    0.000    0.000    0.000    0.000    0.000 
#
# Total GULP energy -268037.055288 kJ/mol
# GULP energy per Si atom -5584.105319 kJ/mol
# Density = 1.771463 g / cm^3
# Si number density = 17.755046 Si / 1000 Ang^3
#
#
#
# Elastic Constant Matrix: (Units=GPa)
#
#
# Indices 1 2 3 4 5 6 
#
# 1 11.5754 11.2743 4.1356 0.0000 0.0000 0.0000
# 2 11.2743 69.8045 5.0343 0.0000 0.0000 0.0000
# 3 4.1356 5.0343 48.0017 0.0000 0.0000 0.0000
# 4 0.0000 0.0000 0.0000 27.2908 0.0000 0.0000
# 5 0.0000 0.0000 0.0000 0.0000 16.8289 0.0000
# 6 0.0000 0.0000 0.0000 0.0000 0.0000 31.7775
#
#
#
# Elastic Compliance Matrix: (Units=1/GPa)
#
#
# Indices 1 2 3 4 5 6 
#
# 1 0.105011 -0.016432 -0.007324 0.000000 0.000000 0.000000
# 2 -0.016432 0.017006 -0.000368 0.000000 0.000000 0.000000
# 3 -0.007324 -0.000368 0.021502 0.000000 0.000000 0.000000
# 4 0.000000 0.000000 0.000000 0.036642 0.000000 0.000000
# 5 0.000000 0.000000 0.000000 0.000000 0.059422 0.000000
# 6 0.000000 0.000000 0.000000 0.000000 0.000000 0.031469
#
#
# Mechanical properties :
#
#
# Convention : Reuss Voigt Hill
#
# Bulk Modulus (GPa) = 10.49632 18.91890 14.70761
# Shear Modulus (GPa) = 14.24266 22.44193 18.34230
#
# Velocity S-wave (km/s) = 2.83534 3.55910 3.21764
# Velocity P-wave (km/s) = 4.07964 5.25054 4.70169
#
# Compressibility (1/GPa) = 0.09527144
#
# Stress axis : x y z
#
# Youngs Moduli (GPa) = 9.52278 58.80178 46.50692
#
# Poissons Ratio (x) = 0.96625 0.34061
# Poissons Ratio (y) = 0.15648 0.01711
# Poissons Ratio (z) = 0.06974 0.02163
#
# Static dielectric constant tensor:
#      x y z
#    x 1.598840 0.000000 0.000000 
#    y 0.000000 1.577930 0.000000 
#    z 0.000000 0.000000 1.593800 
# 
# From -- ./inp_files/60023.got.cif
#   From: 2010.05.17/outbox.cif.g08.bks.cpg/sg63_31_cif.got.tgz:60023.got - 2010.06.03 15:47:04.
