data_PCOD9472205
_publ_section_title
;
Structure prediction by ZEFSAII (Michael W. Deem and Ramdas Pophale) SiO2 
 PCOD9472205
Probable space group: C M C M
;
_chemical_formula_sum "Si O2"
_cell_formula_units_Z 80
_cell_length_a 8.331130
_cell_length_b 19.921728
_cell_length_c 26.407972
_cell_angle_alpha 90.000000
_cell_angle_beta 90.000000
_cell_angle_gamma 90.000000
_cell_volume 4382.944470
_symmetry_space_group_name_H-M "C M C M"
_symmetry_group_IT_number 63
_symmetry_cell_setting 'orthorhombic'
loop_
_space_group_symop_operation_xyz
x,y,z
-x,-y,1/2+z
x,-y,-z
-x,y,1/2-z
-x,-y,-z
x,y,1/2-z
-x,y,z
x,-y,1/2+z
1/2+x,1/2+y,z
1/2-x,1/2-y,1/2+z
1/2+x,1/2-y,-z
1/2-x,1/2+y,1/2-z
1/2-x,1/2-y,-z
1/2+x,1/2+y,1/2-z
1/2-x,1/2+y,z
1/2+x,1/2-y,1/2+z
loop_
_atom_site_type_symbol
_atom_site_label
_atom_site_fract_x
_atom_site_fract_y
_atom_site_fract_z
Si Si1 0.689755 0.772113 0.891835
Si Si2 0.694592 0.020327 0.392018
Si Si3 0.187634 0.873642 0.973303
Si Si4 0.195154 0.375587 0.807369
Si Si5 0.188614 0.628845 0.585729
O O1 0.500000 0.784183 0.898415
O O2 0.776133 0.808657 0.938767
O O3 0.741366 0.810801 0.840791
O O4 0.724724 0.693674 0.891819
O O5 0.500000 0.022170 0.395774
O O6 0.762253 0.062749 0.439129
O O7 0.742064 0.060125 0.341185
O O8 0.746168 0.943228 0.393955
O O9 0.000000 0.876551 0.985407
O O10 0.284022 0.871428 0.025358
O O11 0.255562 0.375692 0.750000
O O12 0.000000 0.375885 0.805149
O O13 0.000000 0.634963 0.596487
#
# Coordination Sequence:
#
# PCOD9472205 Si02
#       5
#    16  16  16  16  16
#     4  10  20  34  52  75 102 133 170 208 248 296
#     4   9  19  34  52  75 102 133 168 205 247 296
#     4  11  21  33  51  74 102 137 173 206 244 295
#     4   8  15  32  57  77  93 123 168 210 249 298
#     4  11  21  33  49  73 107 139 167 205 250 294
#
# _framework density 18.252569999999999
#
# number of rings (size 3 to 8) (size 9 to 14) (size 15 to 20)
#    0.000    2.200    0.000    5.400    0.000    4.000 
#    0.000    1.000    0.000   16.200    0.000    0.000 
#    0.000    0.000    0.000    0.000    0.000    0.000 
#
# Total GULP energy -223305.922032 kJ/mol
# GULP energy per Si atom -5582.648051 kJ/mol
# Density = 1.821103 g / cm^3
# Si number density = 18.252570 Si / 1000 Ang^3
#
#
#
# Elastic Constant Matrix: (Units=GPa)
#
#
# Indices 1 2 3 4 5 6 
#
# 1 10.9234 -1.3206 -9.8532 0.0000 0.0000 0.0000
# 2 -1.3206 145.8356 48.4613 0.0000 0.0000 0.0000
# 3 -9.8532 48.4613 106.2691 0.0000 0.0000 0.0000
# 4 0.0000 0.0000 0.0000 1.6160 0.0000 0.0000
# 5 0.0000 0.0000 0.0000 0.0000 6.3354 0.0000
# 6 0.0000 0.0000 0.0000 0.0000 0.0000 27.8468
#
#
#
# Elastic Compliance Matrix: (Units=1/GPa)
#
#
# Indices 1 2 3 4 5 6 
#
# 1 0.100720 -0.002583 0.010516 0.000000 0.000000 0.000000
# 2 -0.002583 0.008148 -0.003955 0.000000 0.000000 0.000000
# 3 0.010516 -0.003955 0.012189 0.000000 0.000000 0.000000
# 4 0.000000 0.000000 0.000000 0.618804 0.000000 0.000000
# 5 0.000000 0.000000 0.000000 0.000000 0.157843 0.000000
# 6 0.000000 0.000000 0.000000 0.000000 0.000000 0.035911
#
#
# Mechanical properties :
#
#
# Convention : Reuss Voigt Hill
#
# Bulk Modulus (GPa) = 7.75107 37.51146 22.63127
# Shear Modulus (GPa) = 5.16176 22.20902 13.68539
#
# Velocity S-wave (km/s) = 1.68348 3.49199 2.74118
# Velocity P-wave (km/s) = 2.83453 6.07080 4.73758
#
# Compressibility (1/GPa) = 0.12901437
#
# Stress axis : x y z
#
# Youngs Moduli (GPa) = 9.92849 122.73052 82.04280
#
# Poissons Ratio (x) = 0.31696 -0.86279
# Poissons Ratio (y) = 0.02564 0.32449
# Poissons Ratio (z) = -0.10441 0.48541
#
# Static dielectric constant tensor:
#      x y z
#    x 1.629870 0.000000 0.000000 
#    y 0.000000 1.632340 0.000000 
#    z 0.000000 0.000000 1.600880 
# 
# From -- ./inp_files/66546.got.cif
#   From: 2010.05.17/outbox.cif.g08.bks.cpg/sg63_34_cif.got.tgz:66546.got - 2010.06.03 15:47:04.
