data_PCOD9472487
_publ_section_title
;
Structure prediction by ZEFSAII (Michael W. Deem and Ramdas Pophale) SiO2 
 PCOD9472487
Probable space group: C M C M
;
_chemical_formula_sum "Si O2"
_cell_formula_units_Z 116
_cell_length_a 7.734376
_cell_length_b 26.019321
_cell_length_c 29.066727
_cell_angle_alpha 90.000000
_cell_angle_beta 90.000000
_cell_angle_gamma 90.000000
_cell_volume 5849.481500
_symmetry_space_group_name_H-M "C M C M"
_symmetry_group_IT_number 63
_symmetry_cell_setting 'orthorhombic'
loop_
_space_group_symop_operation_xyz
x,y,z
-x,-y,1/2+z
x,-y,-z
-x,y,1/2-z
-x,-y,-z
x,y,1/2-z
-x,y,z
x,-y,1/2+z
1/2+x,1/2+y,z
1/2-x,1/2-y,1/2+z
1/2+x,1/2-y,-z
1/2-x,1/2+y,1/2-z
1/2-x,1/2-y,-z
1/2+x,1/2+y,1/2-z
1/2-x,1/2+y,z
1/2+x,1/2-y,1/2+z
loop_
_atom_site_type_symbol
_atom_site_label
_atom_site_fract_x
_atom_site_fract_y
_atom_site_fract_z
Si Si1 0.211921 0.694280 0.698281
Si Si2 0.794541 0.621907 0.886455
Si Si3 0.804174 0.806086 0.830967
Si Si4 0.000000 0.051388 0.750000
Si Si5 0.290803 0.028189 0.672919
Si Si6 0.200721 0.712439 0.432169
Si Si7 0.295693 0.081045 0.300769
Si Si8 0.201282 0.819656 0.025842
O O1 0.266010 0.678152 0.750000
O O2 0.268751 0.658238 0.655913
O O3 0.272350 0.752834 0.688608
O O4 0.000000 0.693437 0.697799
O O5 0.766073 0.563485 0.871538
O O6 0.720377 0.637402 0.935587
O O7 0.000000 0.630891 0.889564
O O8 0.795798 0.803253 0.886067
O O9 0.733509 0.861057 0.816375
O O10 0.000000 0.805747 0.814278
O O11 0.844328 0.048815 0.789592
O O12 0.500000 0.033616 0.685239
O O13 0.246558 0.967659 0.668198
O O14 0.269844 0.767264 0.450346
O O15 0.214009 0.674876 0.475940
O O16 0.000000 0.718677 0.419480
O O17 0.216011 0.072890 0.250000
O O18 0.500000 0.076187 0.296511
O O19 0.000000 0.811042 0.016410
#
# Coordination Sequence:
#
# PCOD9472487 Si02
#       8
#    16  16  16   4  16  16  16  16
#     4   9  18  31  48  75 110 150 184 220 271 336
#     4  10  20  36  57  79 114 151 184 229 286 340
#     4  11  21  33  54  82 113 143 188 233 279 337
#     4  12  22  36  64  82 116 150 202 248 288 332
#     4  10  23  39  58  86 115 151 198 245 287 339
#     4  10  20  35  55  80 111 148 185 228 286 340
#     4  10  21  38  57  78 112 151 193 238 281 330
#     4  10  20  34  56  82 112 142 186 236 279 340
#
# _framework density 19.830817
#
# number of rings (size 3 to 8) (size 9 to 14) (size 15 to 20)
#    0.000    1.931    2.069    1.862    2.897    1.931 
#    0.000    0.000    0.000    1.655    0.000    5.793 
#    0.000    0.000    0.000    0.000    0.000    0.000 
#
# Total GULP energy -322884.664083 kJ/mol
# GULP energy per Si atom -5566.976967 kJ/mol
# Density = 1.978568 g / cm^3
# Si number density = 19.830817 Si / 1000 Ang^3
#
#
#
# Elastic Constant Matrix: (Units=GPa)
#
#
# Indices 1 2 3 4 5 6 
#
# 1 42.7527 -6.7890 -9.9207 0.0000 0.0000 0.0000
# 2 -6.7890 80.7065 5.6700 0.0000 0.0000 0.0000
# 3 -9.9207 5.6700 45.1848 0.0000 0.0000 0.0000
# 4 0.0000 0.0000 0.0000 17.8008 0.0000 0.0000
# 5 0.0000 0.0000 0.0000 0.0000 23.5083 0.0000
# 6 0.0000 0.0000 0.0000 0.0000 0.0000 14.2288
#
#
#
# Elastic Compliance Matrix: (Units=1/GPa)
#
#
# Indices 1 2 3 4 5 6 
#
# 1 0.024882 0.001724 0.005247 0.000000 0.000000 0.000000
# 2 0.001724 0.012620 -0.001205 0.000000 0.000000 0.000000
# 3 0.005247 -0.001205 0.023434 0.000000 0.000000 0.000000
# 4 0.000000 0.000000 0.000000 0.056177 0.000000 0.000000
# 5 0.000000 0.000000 0.000000 0.000000 0.042538 0.000000
# 6 0.000000 0.000000 0.000000 0.000000 0.000000 0.070280
#
#
# Mechanical properties :
#
#
# Convention : Reuss Voigt Hill
#
# Bulk Modulus (GPa) = 13.79913 16.28496 15.04204
# Shear Modulus (GPa) = 20.61380 23.08650 21.85015
#
# Velocity S-wave (km/s) = 3.22760 3.41570 3.32298
# Velocity P-wave (km/s) = 4.56765 4.87707 4.72489
#
# Compressibility (1/GPa) = 0.07246836
#
# Stress axis : x y z
#
# Youngs Moduli (GPa) = 40.19033 79.23747 42.67214
#
# Poissons Ratio (x) = -0.13664 -0.22388
# Poissons Ratio (y) = -0.06931 0.05142
# Poissons Ratio (z) = -0.21086 0.09548
#
# Static dielectric constant tensor:
#      x y z
#    x 1.733510 0.000000 0.000000 
#    y 0.000000 1.736320 0.000000 
#    z 0.000000 0.000000 1.697090 
# 
# From -- ./inp_files/72060.got.cif
#   From: 2010.05.17/outbox.cif.g08.bks.cpg/sg63_37_cif.got.tgz:72060.got - 2010.06.03 15:47:04.
