data_PCOD9472859
_publ_section_title
;
Structure prediction by ZEFSAII (Michael W. Deem and Ramdas Pophale) SiO2 
 PCOD9472859
Probable space group: C M C M
;
_chemical_formula_sum "Si O2"
_cell_formula_units_Z 48
_cell_length_a 16.479824
_cell_length_b 7.519174
_cell_length_c 16.177557
_cell_angle_alpha 90.000000
_cell_angle_beta 90.000000
_cell_angle_gamma 90.000000
_cell_volume 2004.636542
_symmetry_space_group_name_H-M "C M C M"
_symmetry_group_IT_number 63
_symmetry_cell_setting 'orthorhombic'
loop_
_space_group_symop_operation_xyz
x,y,z
-x,-y,1/2+z
x,-y,-z
-x,y,1/2-z
-x,-y,-z
x,y,1/2-z
-x,y,z
x,-y,1/2+z
1/2+x,1/2+y,z
1/2-x,1/2-y,1/2+z
1/2+x,1/2-y,-z
1/2-x,1/2+y,1/2-z
1/2-x,1/2-y,-z
1/2+x,1/2+y,1/2-z
1/2-x,1/2+y,z
1/2+x,1/2-y,1/2+z
loop_
_atom_site_type_symbol
_atom_site_label
_atom_site_fract_x
_atom_site_fract_y
_atom_site_fract_z
Si Si1 0.672078 0.412194 0.412623
Si Si2 0.500000 0.002628 0.901164
Si Si3 0.335960 0.962998 0.655427
Si Si4 0.500000 0.587252 0.846839
O O1 0.689817 0.500000 0.500000
O O2 0.664233 0.199222 0.409739
O O3 0.748708 0.447986 0.353863
O O4 0.584214 0.481989 0.384056
O O5 0.585004 0.079343 0.867520
O O6 0.500000 0.800373 0.865123
O O7 0.500000 0.000000 0.000000
O O8 0.345921 0.898962 0.750000
O O9 0.500000 0.557826 0.750000
#
# Coordination Sequence:
#
# PCOD9472859 Si02
#       4
#    16   8  16   8
#     4  11  22  38  61  89 119 153 195 243 293 347
#     4  10  20  35  58  85 114 150 192 238 286 343
#     4  11  22  40  61  86 118 158 197 240 292 350
#     4  10  21  41  62  85 117 158 196 238 293 353
#
# _framework density 23.944490999999999
#
# number of rings (size 3 to 8) (size 9 to 14) (size 15 to 20)
#    0.000    1.333    0.000    9.000    0.000    2.667 
#    0.000    1.667    0.000    0.000    0.000    0.000 
#    0.000    0.000    0.000    0.000    0.000    0.000 
#
# Total GULP energy -134154.926851 kJ/mol
# GULP energy per Si atom -5589.788619 kJ/mol
# Density = 2.388999 g / cm^3
# Si number density = 23.944491 Si / 1000 Ang^3
#
#
#
# Elastic Constant Matrix: (Units=GPa)
#
#
# Indices 1 2 3 4 5 6 
#
# 1 240.7792 15.9053 46.2115 0.0000 0.0000 0.0000
# 2 15.9053 40.3255 -9.8056 0.0000 0.0000 0.0000
# 3 46.2115 -9.8056 116.0984 0.0000 0.0000 0.0000
# 4 0.0000 0.0000 0.0000 8.7538 0.0000 0.0000
# 5 0.0000 0.0000 0.0000 0.0000 42.9706 0.0000
# 6 0.0000 0.0000 0.0000 0.0000 0.0000 -4.2089
#
#
#
# Elastic Compliance Matrix: (Units=1/GPa)
#
#
# Indices 1 2 3 4 5 6 
#
# 1 0.004707 -0.002361 -0.002073 0.000000 0.000000 0.000000
# 2 -0.002361 0.026502 0.003178 0.000000 0.000000 0.000000
# 3 -0.002073 0.003178 0.009707 0.000000 0.000000 0.000000
# 4 0.000000 0.000000 0.000000 0.114237 0.000000 0.000000
# 5 0.000000 0.000000 0.000000 0.000000 0.023272 0.000000
# 6 0.000000 0.000000 0.000000 0.000000 0.000000 -0.237594
#
#
# Mechanical properties :
#
#
# Convention : Reuss Voigt Hill
#
# Bulk Modulus (GPa) = 26.03847 55.75842 40.89844
# Shear Modulus (GPa) = -114.00667 32.49589 -40.75539
#
# Velocity S-wave (km/s) = -6.90770 3.68793 -4.13010
# Velocity P-wave (km/s) = 7.26110 6.43984 2.37193
#
# Compressibility (1/GPa) = 0.03840471
#
# Stress axis : x y z
#
# Youngs Moduli (GPa) = 212.45127 37.73299 103.01968
#
# Poissons Ratio (x) = 0.08907 0.21355
# Poissons Ratio (y) = 0.50151 -0.32739
# Poissons Ratio (z) = 0.44039 -0.11991
#
# Static dielectric constant tensor:
#      x y z
#    x 2.083030 0.000000 0.000000 
#    y 0.000000 1.953380 0.000000 
#    z 0.000000 0.000000 1.881790 
# 
# From -- ./inp_files/33095.got.cif
#   From: 2010.05.17/outbox.cif.g08.bks.cpg/sg63_17_cif.got.tgz:33095.got - 2010.06.03 15:47:04.
