data_PCOD9472949
_publ_section_title
;
Structure prediction by ZEFSAII (Michael W. Deem and Ramdas Pophale) SiO2 
 PCOD9472949
Probable space group: C M C M
;
_chemical_formula_sum "Si O2"
_cell_formula_units_Z 64
_cell_length_a 7.746801
_cell_length_b 21.972281
_cell_length_c 20.800056
_cell_angle_alpha 90.000000
_cell_angle_beta 90.000000
_cell_angle_gamma 90.000000
_cell_volume 3540.479211
_symmetry_space_group_name_H-M "C M C M"
_symmetry_group_IT_number 63
_symmetry_cell_setting 'orthorhombic'
loop_
_space_group_symop_operation_xyz
x,y,z
-x,-y,1/2+z
x,-y,-z
-x,y,1/2-z
-x,-y,-z
x,y,1/2-z
-x,y,z
x,-y,1/2+z
1/2+x,1/2+y,z
1/2-x,1/2-y,1/2+z
1/2+x,1/2-y,-z
1/2-x,1/2+y,1/2-z
1/2-x,1/2-y,-z
1/2+x,1/2+y,1/2-z
1/2-x,1/2+y,z
1/2+x,1/2-y,1/2+z
loop_
_atom_site_type_symbol
_atom_site_label
_atom_site_fract_x
_atom_site_fract_y
_atom_site_fract_z
Si Si1 0.292084 0.225683 0.676546
Si Si2 0.206147 0.197675 0.051953
Si Si3 0.000000 0.525668 0.600874
Si Si4 0.692835 0.588303 0.827006
Si Si5 0.000000 0.599014 0.032555
O O1 0.235618 0.239353 0.750000
O O2 0.500000 0.219970 0.677394
O O3 0.250159 0.275023 0.622501
O O4 0.221346 0.159514 0.657049
O O5 0.330498 0.141030 0.038279
O O6 0.000000 0.184673 0.049249
O O7 0.250000 0.250000 0.000000
O O8 0.166713 0.546689 0.639994
O O9 0.000000 0.454612 0.584880
O O10 0.000000 0.564646 0.535418
O O11 0.710767 0.584590 0.750000
O O12 0.500000 0.570465 0.845593
#
# Coordination Sequence:
#
# PCOD9472949 Si02
#       5
#    16  16   8  16   8
#     4   9  18  34  57  86 118 149 188 242 298 348
#     4  11  22  38  60  86 119 152 192 247 300 355
#     4  11  23  42  58  80 123 157 198 248 280 348
#     4  10  20  35  62  92 114 150 198 243 294 343
#     4  11  26  40  58  86 114 163 204 230 300 358
#
# _framework density 18.076647999999999
#
# number of rings (size 3 to 8) (size 9 to 14) (size 15 to 20)
#    0.000    1.750    2.500    1.875    1.750    4.000 
#    0.000    5.000    0.000    3.000    0.000    0.000 
#    0.000    0.000    0.000    0.000    0.000    0.000 
#
# Total GULP energy -178731.565320 kJ/mol
# GULP energy per Si atom -5585.361416 kJ/mol
# Density = 1.803550 g / cm^3
# Si number density = 18.076648 Si / 1000 Ang^3
#
#
#
# Elastic Constant Matrix: (Units=GPa)
#
#
# Indices 1 2 3 4 5 6 
#
# 1 118.4598 71.3811 38.0087 0.0000 0.0000 0.0000
# 2 71.3811 117.2452 38.4472 0.0000 0.0000 0.0000
# 3 38.0087 38.4472 46.3356 0.0000 0.0000 0.0000
# 4 0.0000 0.0000 0.0000 33.6755 0.0000 0.0000
# 5 0.0000 0.0000 0.0000 0.0000 9.2700 0.0000
# 6 0.0000 0.0000 0.0000 0.0000 0.0000 -24.2551
#
#
#
# Elastic Compliance Matrix: (Units=1/GPa)
#
#
# Indices 1 2 3 4 5 6 
#
# 1 0.014560 -0.006798 -0.006303 0.000000 0.000000 0.000000
# 2 -0.006798 0.014891 -0.006780 0.000000 0.000000 0.000000
# 3 -0.006303 -0.006780 0.032378 0.000000 0.000000 0.000000
# 4 0.000000 0.000000 0.000000 0.029695 0.000000 0.000000
# 5 0.000000 0.000000 0.000000 0.000000 0.107875 0.000000
# 6 0.000000 0.000000 0.000000 0.000000 0.000000 -0.041228
#
#
# Mechanical properties :
#
#
# Convention : Reuss Voigt Hill
#
# Bulk Modulus (GPa) = 45.31539 64.19051 54.75295
# Shear Modulus (GPa) = 24.35611 12.68500 18.52055
#
# Velocity S-wave (km/s) = 3.67465 2.65190 3.20434
# Velocity P-wave (km/s) = 6.56711 6.70552 6.63668
#
# Compressibility (1/GPa) = 0.02206756
#
# Stress axis : x y z
#
# Youngs Moduli (GPa) = 68.68056 67.15540 30.88536
#
# Poissons Ratio (x) = 0.45649 0.19468
# Poissons Ratio (y) = 0.46686 0.20940
# Poissons Ratio (z) = 0.43291 0.45530
#
# Static dielectric constant tensor:
#      x y z
#    x 1.625110 0.000000 0.000000 
#    y 0.000000 1.579860 0.000000 
#    z 0.000000 0.000000 1.634510 
# 
# From -- ./inp_files/50625.got.cif
#   From: 2010.05.17/outbox.cif.g08.bks.cpg/sg63_26_cif.got.tgz:50625.got - 2010.06.03 15:47:04.
