data_PCOD9472493
_publ_section_title
;
Structure prediction by ZEFSAII (Michael W. Deem and Ramdas Pophale) SiO2 
 PCOD9472493
Probable space group: C M C M
;
_chemical_formula_sum "Si O2"
_cell_formula_units_Z 112
_cell_length_a 22.840629
_cell_length_b 12.534494
_cell_length_c 18.910719
_cell_angle_alpha 90.000000
_cell_angle_beta 90.000000
_cell_angle_gamma 90.000000
_cell_volume 5414.058047
_symmetry_space_group_name_H-M "C M C M"
_symmetry_group_IT_number 63
_symmetry_cell_setting 'orthorhombic'
loop_
_space_group_symop_operation_xyz
x,y,z
-x,-y,1/2+z
x,-y,-z
-x,y,1/2-z
-x,-y,-z
x,y,1/2-z
-x,y,z
x,-y,1/2+z
1/2+x,1/2+y,z
1/2-x,1/2-y,1/2+z
1/2+x,1/2-y,-z
1/2-x,1/2+y,1/2-z
1/2-x,1/2-y,-z
1/2+x,1/2+y,1/2-z
1/2-x,1/2+y,z
1/2+x,1/2-y,1/2+z
loop_
_atom_site_type_symbol
_atom_site_label
_atom_site_fract_x
_atom_site_fract_y
_atom_site_fract_z
Si Si1 0.324755 0.126956 0.985083
Si Si2 0.433552 0.231061 0.663725
Si Si3 0.366538 0.349313 0.167777
Si Si4 0.429182 0.994261 0.671023
Si Si5 0.069301 0.305072 0.936550
Si Si6 0.745240 0.240139 0.387718
Si Si7 0.344630 0.408893 0.834531
O O1 0.389985 0.176216 0.995398
O O2 0.289638 0.186035 0.048057
O O3 0.288539 0.167082 0.916827
O O4 0.324473 0.000000 0.000000
O O5 0.436076 0.237442 0.750000
O O6 0.500000 0.237376 0.637215
O O7 0.408491 0.112426 0.651934
O O8 0.394971 0.329254 0.638738
O O9 0.386958 0.347157 0.250000
O O10 0.410715 0.293214 0.112851
O O11 0.304431 0.288742 0.162322
O O12 0.354661 0.470119 0.142752
O O13 0.408500 0.964587 0.750000
O O14 0.500000 0.001134 0.674395
O O15 0.415839 0.907232 0.612900
O O16 0.000000 0.303226 0.951058
O O17 0.784318 0.146811 0.355115
O O18 0.347610 0.411470 0.750000
#
# Coordination Sequence:
#
# PCOD9472493 Si02
#       7
#    16  16  16  16  16  16  16
#     4  10  22  38  58  80 107 151 201 241 286 336
#     4   8  15  28  46  73 108 143 178 215 266 335
#     4  10  21  37  59  88 118 147 185 232 288 354
#     4   8  14  27  48  75 109 144 176 218 276 340
#     4  10  21  36  56  85 118 150 187 234 287 346
#     4  10  21  39  58  78 111 150 193 245 289 339
#     4  10  20  34  56  84 111 144 185 233 290 348
#
# _framework density 20.686886000000001
#
# number of rings (size 3 to 8) (size 9 to 14) (size 15 to 20)
#    0.000    2.571    0.000    2.571    2.000    1.714 
#    0.000    2.143    0.000    0.857    0.000    0.000 
#    0.000    0.000    0.000    0.000    0.000    0.000 
#
# Total GULP energy -312545.779047 kJ/mol
# GULP energy per Si atom -5581.174626 kJ/mol
# Density = 2.063980 g / cm^3
# Si number density = 20.686886 Si / 1000 Ang^3
#
#
#
# Elastic Constant Matrix: (Units=GPa)
#
#
# Indices 1 2 3 4 5 6 
#
# 1 96.3596 30.6616 9.7039 0.0000 0.0000 0.0000
# 2 30.6616 100.2547 9.8242 0.0000 0.0000 0.0000
# 3 9.7039 9.8242 50.0672 0.0000 0.0000 0.0000
# 4 0.0000 0.0000 0.0000 19.4063 0.0000 0.0000
# 5 0.0000 0.0000 0.0000 0.0000 15.4381 0.0000
# 6 0.0000 0.0000 0.0000 0.0000 0.0000 29.0780
#
#
#
# Elastic Compliance Matrix: (Units=1/GPa)
#
#
# Indices 1 2 3 4 5 6 
#
# 1 0.011619 -0.003398 -0.001585 0.000000 0.000000 0.000000
# 2 -0.003398 0.011164 -0.001532 0.000000 0.000000 0.000000
# 3 -0.001585 -0.001532 0.020581 0.000000 0.000000 0.000000
# 4 0.000000 0.000000 0.000000 0.051530 0.000000 0.000000
# 5 0.000000 0.000000 0.000000 0.000000 0.064775 0.000000
# 6 0.000000 0.000000 0.000000 0.000000 0.000000 0.034390
#
#
# Mechanical properties :
#
#
# Convention : Reuss Voigt Hill
#
# Bulk Modulus (GPa) = 32.96713 38.56233 35.76473
# Shear Modulus (GPa) = 23.02026 25.88392 24.45209
#
# Velocity S-wave (km/s) = 3.33948 3.54110 3.44177
# Velocity P-wave (km/s) = 5.55341 5.94984 5.75504
#
# Compressibility (1/GPa) = 0.03033324
#
# Stress axis : x y z
#
# Youngs Moduli (GPa) = 86.06816 89.57378 48.58849
#
# Poissons Ratio (x) = 0.30438 0.07702
# Poissons Ratio (y) = 0.29247 0.07444
# Poissons Ratio (z) = 0.13643 0.13723
#
# Static dielectric constant tensor:
#      x y z
#    x 1.754010 0.000000 0.000000 
#    y 0.000000 1.734230 0.000000 
#    z 0.000000 0.000000 1.769040 
# 
# From -- ./inp_files/57627.got.cif
#   From: 2010.05.17/outbox.cif.g08.bks.cpg/sg63_29_cif.got.tgz:57627.got - 2010.06.03 15:47:04.
