data_PCOD9472726
_publ_section_title
;
Structure prediction by ZEFSAII (Michael W. Deem and Ramdas Pophale) SiO2 
 PCOD9472726
Probable space group: C M C M
;
_chemical_formula_sum "Si O2"
_cell_formula_units_Z 112
_cell_length_a 17.576642
_cell_length_b 13.883068
_cell_length_c 24.352410
_cell_angle_alpha 90.000000
_cell_angle_beta 90.000000
_cell_angle_gamma 90.000000
_cell_volume 5942.419470
_symmetry_space_group_name_H-M "C M C M"
_symmetry_group_IT_number 63
_symmetry_cell_setting 'orthorhombic'
loop_
_space_group_symop_operation_xyz
x,y,z
-x,-y,1/2+z
x,-y,-z
-x,y,1/2-z
-x,-y,-z
x,y,1/2-z
-x,y,z
x,-y,1/2+z
1/2+x,1/2+y,z
1/2-x,1/2-y,1/2+z
1/2+x,1/2-y,-z
1/2-x,1/2+y,1/2-z
1/2-x,1/2-y,-z
1/2+x,1/2+y,1/2-z
1/2-x,1/2+y,z
1/2+x,1/2-y,1/2+z
loop_
_atom_site_type_symbol
_atom_site_label
_atom_site_fract_x
_atom_site_fract_y
_atom_site_fract_z
Si Si1 0.664778 0.645737 0.110799
Si Si2 0.912756 0.000917 0.687374
Si Si3 0.141814 0.210414 0.687794
Si Si4 0.156655 0.654452 0.412150
Si Si5 0.320589 0.828594 0.186145
Si Si6 0.910646 0.267208 0.019534
Si Si7 0.089388 0.447534 0.398763
O O1 0.636003 0.550485 0.140798
O O2 0.753106 0.639984 0.094654
O O3 0.654413 0.730406 0.156016
O O4 0.617744 0.680146 0.057829
O O5 0.885225 0.980176 0.750000
O O6 0.000000 0.967908 0.683335
O O7 0.908834 0.115816 0.680802
O O8 0.133085 0.247467 0.750000
O O9 0.128678 0.291262 0.642610
O O10 0.228963 0.172504 0.682085
O O11 0.137116 0.720433 0.464254
O O12 0.115569 0.552074 0.418592
O O13 0.341381 0.829694 0.250000
O O14 0.359428 0.914721 0.152738
O O15 0.899755 0.365249 0.055035
O O16 0.000000 0.257860 0.007160
O O17 0.000000 0.448387 0.384718
#
# Coordination Sequence:
#
# PCOD9472726 Si02
#       7
#    16  16  16  16  16  16  16
#     4  10  20  35  56  83 107 136 180 225 266 316
#     4  10  20  35  56  80 108 142 175 211 261 318
#     4   9  20  37  55  77 105 140 180 217 258 314
#     4  11  21  35  57  79 106 145 181 218 267 321
#     4   9  18  34  55  79 108 137 170 218 268 312
#     4  10  21  38  57  78 107 140 179 227 273 319
#     4  10  21  35  54  81 110 142 179 219 267 323
#
# _framework density 18.847542000000001
#
# number of rings (size 3 to 8) (size 9 to 14) (size 15 to 20)
#    0.000    2.143    0.000    3.000    0.000    4.286 
#    0.000    2.143    0.000    1.714    0.000    0.000 
#    0.000    0.000    0.000    0.000    0.000    0.000 
#
# Total GULP energy -312643.836191 kJ/mol
# GULP energy per Si atom -5582.925646 kJ/mol
# Density = 1.880464 g / cm^3
# Si number density = 18.847542 Si / 1000 Ang^3
#
#
#
# Elastic Constant Matrix: (Units=GPa)
#
#
# Indices 1 2 3 4 5 6 
#
# 1 44.2237 10.1239 35.5363 0.0000 0.0000 0.0000
# 2 10.1239 33.7992 7.2443 0.0000 0.0000 0.0000
# 3 35.5363 7.2443 74.7931 0.0000 0.0000 0.0000
# 4 0.0000 0.0000 0.0000 20.6245 0.0000 0.0000
# 5 0.0000 0.0000 0.0000 0.0000 18.6203 0.0000
# 6 0.0000 0.0000 0.0000 0.0000 0.0000 16.9103
#
#
#
# Elastic Compliance Matrix: (Units=1/GPa)
#
#
# Indices 1 2 3 4 5 6 
#
# 1 0.038476 -0.007768 -0.017529 0.000000 0.000000 0.000000
# 2 -0.007768 0.031782 0.000612 0.000000 0.000000 0.000000
# 3 -0.017529 0.000612 0.021639 0.000000 0.000000 0.000000
# 4 0.000000 0.000000 0.000000 0.048486 0.000000 0.000000
# 5 0.000000 0.000000 0.000000 0.000000 0.053705 0.000000
# 6 0.000000 0.000000 0.000000 0.000000 0.000000 0.059135
#
#
# Mechanical properties :
#
#
# Convention : Reuss Voigt Hill
#
# Bulk Modulus (GPa) = 23.51334 28.73609 26.12471
# Shear Modulus (GPa) = 15.78446 17.89179 16.83812
#
# Velocity S-wave (km/s) = 2.89707 3.08440 2.99220
# Velocity P-wave (km/s) = 4.86757 5.28814 5.08221
#
# Compressibility (1/GPa) = 0.04252905
#
# Stress axis : x y z
#
# Youngs Moduli (GPa) = 25.99045 31.46446 46.21244
#
# Poissons Ratio (x) = 0.24440 0.81003
# Poissons Ratio (y) = 0.20188 -0.02830
# Poissons Ratio (z) = 0.45557 -0.01927
#
# Static dielectric constant tensor:
#      x y z
#    x 1.653860 0.000000 0.000000 
#    y 0.000000 1.633770 0.000000 
#    z 0.000000 0.000000 1.640350 
# 
# From -- ./inp_files/62972.got.cif
#   From: 2010.05.17/outbox.cif.g08.bks.cpg/sg63_32_cif.got.tgz:62972.got - 2010.06.03 15:47:04.
