data_PCOD9472757
_publ_section_title
;
Structure prediction by ZEFSAII (Michael W. Deem and Ramdas Pophale) SiO2 
 PCOD9472757
Probable space group: C M C M
;
_chemical_formula_sum "Si O2"
_cell_formula_units_Z 80
_cell_length_a 8.561715
_cell_length_b 19.478128
_cell_length_c 26.351154
_cell_angle_alpha 90.000000
_cell_angle_beta 90.000000
_cell_angle_gamma 90.000000
_cell_volume 4394.481309
_symmetry_space_group_name_H-M "C M C M"
_symmetry_group_IT_number 63
_symmetry_cell_setting 'orthorhombic'
loop_
_space_group_symop_operation_xyz
x,y,z
-x,-y,1/2+z
x,-y,-z
-x,y,1/2-z
-x,-y,-z
x,y,1/2-z
-x,y,z
x,-y,1/2+z
1/2+x,1/2+y,z
1/2-x,1/2-y,1/2+z
1/2+x,1/2-y,-z
1/2-x,1/2+y,1/2-z
1/2-x,1/2-y,-z
1/2+x,1/2+y,1/2-z
1/2-x,1/2+y,z
1/2+x,1/2-y,1/2+z
loop_
_atom_site_type_symbol
_atom_site_label
_atom_site_fract_x
_atom_site_fract_y
_atom_site_fract_z
Si Si1 0.313773 0.705063 0.158067
Si Si2 0.813959 0.796031 0.250000
Si Si3 0.810900 0.450678 0.250000
Si Si4 0.189131 0.550891 0.340955
Si Si5 0.810364 0.452652 0.545229
Si Si6 0.187331 0.293744 0.546708
O O1 0.500000 0.705599 0.159199
O O2 0.249119 0.756045 0.200639
O O3 0.254209 0.627307 0.168301
O O4 0.255387 0.725385 0.101772
O O5 0.758022 0.874745 0.250000
O O6 0.000000 0.793237 0.250000
O O7 0.764275 0.495745 0.201068
O O8 0.000000 0.445120 0.250000
O O9 0.237873 0.528328 0.397623
O O10 0.000000 0.556495 0.340040
O O11 0.750190 0.500000 0.500000
O O12 0.768465 0.373287 0.537726
O O13 0.000000 0.456457 0.544480
O O14 0.250000 0.250000 0.500000
O O15 0.000000 0.289368 0.549222
#
# Coordination Sequence:
#
# PCOD9472757 Si02
#       6
#    16   8   8  16  16  16
#     4  11  22  38  60  83 110 148 194 236 279 337
#     4  12  25  40  57  81 115 147 183 236 291 338
#     4  10  21  36  55  81 111 143 181 224 277 338
#     4   9  18  34  56  80 109 145 183 224 272 330
#     4   8  15  29  50  76 104 138 179 218 260 315
#     4  10  20  35  56  83 114 148 187 232 282 332
#
# _framework density 18.204650999999998
#
# number of rings (size 3 to 8) (size 9 to 14) (size 15 to 20)
#    0.000    2.200    0.000    5.100    0.000    3.200 
#    0.000    4.000    0.000   15.000    0.000    0.000 
#    0.000    0.000    0.000    0.000    0.000    0.000 
#
# Total GULP energy -223287.197754 kJ/mol
# GULP energy per Si atom -5582.179944 kJ/mol
# Density = 1.816322 g / cm^3
# Si number density = 18.204651 Si / 1000 Ang^3
#
#
#
# Elastic Constant Matrix: (Units=GPa)
#
#
# Indices 1 2 3 4 5 6 
#
# 1 68.9211 46.2832 58.5551 0.0000 0.0000 0.0000
# 2 46.2832 127.7360 140.2148 0.0000 0.0000 0.0000
# 3 58.5551 140.2148 212.2819 0.0000 0.0000 0.0000
# 4 0.0000 0.0000 0.0000 40.3541 0.0000 0.0000
# 5 0.0000 0.0000 0.0000 0.0000 22.5221 0.0000
# 6 0.0000 0.0000 0.0000 0.0000 0.0000 29.1526
#
#
#
# Elastic Compliance Matrix: (Units=1/GPa)
#
#
# Indices 1 2 3 4 5 6 
#
# 1 0.019561 -0.004237 -0.002597 0.000000 0.000000 0.000000
# 2 -0.004237 0.029389 -0.018243 0.000000 0.000000 0.000000
# 3 -0.002597 -0.018243 0.017477 0.000000 0.000000 0.000000
# 4 0.000000 0.000000 0.000000 0.024781 0.000000 0.000000
# 5 0.000000 0.000000 0.000000 0.000000 0.044401 0.000000
# 6 0.000000 0.000000 0.000000 0.000000 0.000000 0.034302
#
#
# Mechanical properties :
#
#
# Convention : Reuss Voigt Hill
#
# Bulk Modulus (GPa) = 61.45189 99.89392 80.67291
# Shear Modulus (GPa) = 22.17392 29.33149 25.75270
#
# Velocity S-wave (km/s) = 3.49382 4.01834 3.76523
# Velocity P-wave (km/s) = 7.07850 8.74764 7.95696
#
# Compressibility (1/GPa) = 0.01627289
#
# Stress axis : x y z
#
# Youngs Moduli (GPa) = 51.12200 34.02595 57.21753
#
# Poissons Ratio (x) = 0.14415 0.14861
# Poissons Ratio (y) = 0.21658 1.04384
# Poissons Ratio (z) = 0.13278 0.62075
#
# Static dielectric constant tensor:
#      x y z
#    x 1.618070 0.000000 0.000000 
#    y 0.000000 1.592730 0.000000 
#    z 0.000000 0.000000 1.626120 
# 
# From -- ./inp_files/66686.got.cif
#   From: 2010.05.17/outbox.cif.g08.bks.cpg/sg63_34_cif.got.tgz:66686.got - 2010.06.03 15:47:04.
