data_PCOD9472474
_publ_section_title
;
Structure prediction by ZEFSAII (Michael W. Deem and Ramdas Pophale) SiO2 
 PCOD9472474
Probable space group: C M C M
;
_chemical_formula_sum "Si O2"
_cell_formula_units_Z 96
_cell_length_a 16.355465
_cell_length_b 17.361331
_cell_length_c 18.682039
_cell_angle_alpha 90.000000
_cell_angle_beta 90.000000
_cell_angle_gamma 90.000000
_cell_volume 5304.814323
_symmetry_space_group_name_H-M "C M C M"
_symmetry_group_IT_number 63
_symmetry_cell_setting 'orthorhombic'
loop_
_space_group_symop_operation_xyz
x,y,z
-x,-y,1/2+z
x,-y,-z
-x,y,1/2-z
-x,-y,-z
x,y,1/2-z
-x,y,z
x,-y,1/2+z
1/2+x,1/2+y,z
1/2-x,1/2-y,1/2+z
1/2+x,1/2-y,-z
1/2-x,1/2+y,1/2-z
1/2-x,1/2-y,-z
1/2+x,1/2+y,1/2-z
1/2-x,1/2+y,z
1/2+x,1/2-y,1/2+z
loop_
_atom_site_type_symbol
_atom_site_label
_atom_site_fract_x
_atom_site_fract_y
_atom_site_fract_z
Si Si1 0.403320 0.329182 0.613913
Si Si2 0.315098 0.481261 0.832403
Si Si3 0.690579 0.317297 0.028234
Si Si4 0.901753 0.337986 0.330148
Si Si5 0.402433 0.645147 0.833272
Si Si6 0.687295 0.951562 0.436044
O O1 0.500000 0.335401 0.624056
O O2 0.360589 0.402829 0.648234
O O3 0.380232 0.326149 0.530398
O O4 0.375408 0.248439 0.648806
O O5 0.289769 0.480386 0.750000
O O6 0.374303 0.555784 0.841776
O O7 0.237616 0.493473 0.883095
O O8 0.650182 0.309223 0.107042
O O9 0.745241 0.394155 0.030414
O O10 0.750000 0.250000 0.000000
O O11 0.871969 0.356650 0.250000
O O12 0.870140 0.398049 0.388238
O O13 0.000000 0.338607 0.329774
O O14 0.385313 0.666452 0.750000
O O15 0.500000 0.652297 0.845039
O O16 0.647718 0.000000 0.500000
#
# Coordination Sequence:
#
# PCOD9472474 Si02
#       6
#    16  16  16  16  16  16
#     4  11  21  35  58  88 118 149 182 227 284 340
#     4  10  20  34  55  85 119 151 183 227 279 339
#     4  11  21  37  54  81 116 150 187 230 278 336
#     4  10  22  39  59  83 112 147 188 234 283 336
#     4   9  19  35  56  81 110 150 192 230 278 335
#     4  11  21  37  59  81 111 148 194 234 278 330
#
# _framework density 18.096769999999999
#
# number of rings (size 3 to 8) (size 9 to 14) (size 15 to 20)
#    0.000    1.667    3.333    2.000    0.000    2.667 
#    0.000    2.500    0.000    0.000    0.000    2.333 
#    0.000    0.000    0.000    0.000    0.000    0.000 
#
# Total GULP energy -267852.353645 kJ/mol
# GULP energy per Si atom -5580.257368 kJ/mol
# Density = 1.805558 g / cm^3
# Si number density = 18.096770 Si / 1000 Ang^3
#
#
#
# Elastic Constant Matrix: (Units=GPa)
#
#
# Indices 1 2 3 4 5 6 
#
# 1 39.5523 35.2422 38.3067 0.0000 0.0000 0.0000
# 2 35.2422 91.8411 71.3720 0.0000 0.0000 0.0000
# 3 38.3067 71.3720 137.8498 0.0000 0.0000 0.0000
# 4 0.0000 0.0000 0.0000 29.1617 0.0000 0.0000
# 5 0.0000 0.0000 0.0000 0.0000 34.0892 0.0000
# 6 0.0000 0.0000 0.0000 0.0000 0.0000 20.1506
#
#
#
# Elastic Compliance Matrix: (Units=1/GPa)
#
#
# Indices 1 2 3 4 5 6 
#
# 1 0.040681 -0.011420 -0.005392 0.000000 0.000000 0.000000
# 2 -0.011420 0.021425 -0.007919 0.000000 0.000000 0.000000
# 3 -0.005392 -0.007919 0.012853 0.000000 0.000000 0.000000
# 4 0.000000 0.000000 0.000000 0.034292 0.000000 0.000000
# 5 0.000000 0.000000 0.000000 0.000000 0.029335 0.000000
# 6 0.000000 0.000000 0.000000 0.000000 0.000000 0.049626
#
#
# Mechanical properties :
#
#
# Convention : Reuss Voigt Hill
#
# Bulk Modulus (GPa) = 39.22214 62.12055 50.67135
# Shear Modulus (GPa) = 20.31094 24.96845 22.63970
#
# Velocity S-wave (km/s) = 3.35379 3.71849 3.54083
# Velocity P-wave (km/s) = 6.05952 7.26895 6.69161
#
# Compressibility (1/GPa) = 0.02549580
#
# Stress axis : x y z
#
# Youngs Moduli (GPa) = 24.58157 46.67449 77.80427
#
# Poissons Ratio (x) = 0.53304 0.41950
# Poissons Ratio (y) = 0.28073 0.61615
# Poissons Ratio (z) = 0.13254 0.36963
#
# Static dielectric constant tensor:
#      x y z
#    x 1.601590 0.000000 0.000000 
#    y 0.000000 1.610930 0.000000 
#    z 0.000000 0.000000 1.638600 
# 
# From -- ./inp_files/45766.got.cif
#   From: 2010.05.17/outbox.cif.g08.bks.cpg/sg63_23_cif.got.tgz:45766.got - 2010.06.03 15:47:04.
