data_PCOD9472318
_publ_section_title
;
Structure prediction by ZEFSAII (Michael W. Deem and Ramdas Pophale) SiO2 
 PCOD9472318
Probable space group: C M C M
;
_chemical_formula_sum "Si O2"
_cell_formula_units_Z 64
_cell_length_a 7.409474
_cell_length_b 27.439901
_cell_length_c 14.023645
_cell_angle_alpha 90.000000
_cell_angle_beta 90.000000
_cell_angle_gamma 90.000000
_cell_volume 2851.220651
_symmetry_space_group_name_H-M "C M C M"
_symmetry_group_IT_number 63
_symmetry_cell_setting 'orthorhombic'
loop_
_space_group_symop_operation_xyz
x,y,z
-x,-y,1/2+z
x,-y,-z
-x,y,1/2-z
-x,-y,-z
x,y,1/2-z
-x,y,z
x,-y,1/2+z
1/2+x,1/2+y,z
1/2-x,1/2-y,1/2+z
1/2+x,1/2-y,-z
1/2-x,1/2+y,1/2-z
1/2-x,1/2-y,-z
1/2+x,1/2+y,1/2-z
1/2-x,1/2+y,z
1/2+x,1/2-y,1/2+z
loop_
_atom_site_type_symbol
_atom_site_label
_atom_site_fract_x
_atom_site_fract_y
_atom_site_fract_z
Si Si1 0.220043 0.808071 0.750000
Si Si2 0.713097 0.770471 0.397047
Si Si3 0.780892 0.053904 0.463929
Si Si4 0.720456 0.580577 0.250000
Si Si5 0.708839 0.381941 0.142688
O O1 0.281126 0.774595 0.664293
O O2 0.278447 0.863161 0.750000
O O3 0.000000 0.810638 0.750000
O O4 0.500000 0.775600 0.379418
O O5 0.750000 0.750000 0.500000
O O6 0.788485 0.823730 0.374416
O O7 0.720400 0.060334 0.353722
O O8 0.717171 0.091480 0.547191
O O9 0.000000 0.058975 0.460094
O O10 0.736959 0.000000 0.500000
O O11 0.500000 0.577130 0.250000
O O12 0.785340 0.391558 0.250000
O O13 0.500000 0.397770 0.147694
#
# Coordination Sequence:
#
# PCOD9472318 Si02
#       5
#     8  16  16   8  16
#     4   9  18  32  50  73 105 143 179 215 268 331
#     4  11  21  35  55  80 111 147 188 228 275 333
#     4   9  18  30  49  76 106 142 182 229 283 332
#     4   9  16  28  45  67 101 139 177 219 270 331
#     4  10  20  34  53  80 114 145 183 233 282 334
#
# _framework density 22.446527
#
# number of rings (size 3 to 8) (size 9 to 14) (size 15 to 20)
#    0.000    2.250    1.250    2.250    1.750    4.000 
#    0.000    0.000    0.000    0.750    0.000    0.000 
#    0.000    0.000    0.000    0.000    0.000    0.000 
#
# Total GULP energy -178411.584244 kJ/mol
# GULP energy per Si atom -5575.362008 kJ/mol
# Density = 2.239544 g / cm^3
# Si number density = 22.446527 Si / 1000 Ang^3
#
#
#
# Elastic Constant Matrix: (Units=GPa)
#
#
# Indices 1 2 3 4 5 6 
#
# 1 72.5008 -4.9032 0.6575 0.0000 0.0000 0.0000
# 2 -4.9032 141.4862 116.8480 0.0000 0.0000 0.0000
# 3 0.6575 116.8480 286.7157 0.0000 0.0000 0.0000
# 4 0.0000 0.0000 0.0000 38.4364 0.0000 0.0000
# 5 0.0000 0.0000 0.0000 0.0000 32.6380 0.0000
# 6 0.0000 0.0000 0.0000 0.0000 0.0000 14.1943
#
#
#
# Elastic Compliance Matrix: (Units=1/GPa)
#
#
# Indices 1 2 3 4 5 6 
#
# 1 0.013848 0.000763 -0.000343 0.000000 0.000000 0.000000
# 2 0.000763 0.010696 -0.004361 0.000000 0.000000 0.000000
# 3 -0.000343 -0.004361 0.005266 0.000000 0.000000 0.000000
# 4 0.000000 0.000000 0.000000 0.026017 0.000000 0.000000
# 5 0.000000 0.000000 0.000000 0.000000 0.030639 0.000000
# 6 0.000000 0.000000 0.000000 0.000000 0.000000 0.070451
#
#
# Mechanical properties :
#
#
# Convention : Reuss Voigt Hill
#
# Bulk Modulus (GPa) = 45.60360 80.65637 63.12998
# Shear Modulus (GPa) = 29.05188 42.92710 35.98949
#
# Velocity S-wave (km/s) = 3.60150 4.37786 4.00852
# Velocity P-wave (km/s) = 6.13637 7.84633 7.04344
#
# Compressibility (1/GPa) = 0.02192810
#
# Stress axis : x y z
#
# Youngs Moduli (GPa) = 72.21439 93.49722 189.90921
#
# Poissons Ratio (x) = -0.07133 0.06507
# Poissons Ratio (y) = -0.05509 0.82812
# Poissons Ratio (z) = 0.02475 0.40770
#
# Static dielectric constant tensor:
#      x y z
#    x 1.895310 0.000000 0.000000 
#    y 0.000000 1.754380 0.000000 
#    z 0.000000 0.000000 1.813950 
# 
# From -- ./inp_files/16223.got.cif
#   From: 2010.05.17/outbox.cif.g08.bks.cpg/sg63_9_cif.got.tgz:16223.got - 2010.06.03 15:47:04.
