data_PCOD9472121
_publ_section_title
;
Structure prediction by ZEFSAII (Michael W. Deem and Ramdas Pophale) SiO2 
 PCOD9472121
Probable space group: C M C M
;
_chemical_formula_sum "Si O2"
_cell_formula_units_Z 68
_cell_length_a 14.134513
_cell_length_b 25.912942
_cell_length_c 9.849411
_cell_angle_alpha 90.000000
_cell_angle_beta 90.000000
_cell_angle_gamma 90.000000
_cell_volume 3607.512402
_symmetry_space_group_name_H-M "C M C M"
_symmetry_group_IT_number 63
_symmetry_cell_setting 'orthorhombic'
loop_
_space_group_symop_operation_xyz
x,y,z
-x,-y,1/2+z
x,-y,-z
-x,y,1/2-z
-x,-y,-z
x,y,1/2-z
-x,y,z
x,-y,1/2+z
1/2+x,1/2+y,z
1/2-x,1/2-y,1/2+z
1/2+x,1/2-y,-z
1/2-x,1/2+y,1/2-z
1/2-x,1/2-y,-z
1/2+x,1/2+y,1/2-z
1/2-x,1/2+y,z
1/2+x,1/2-y,1/2+z
loop_
_atom_site_type_symbol
_atom_site_label
_atom_site_fract_x
_atom_site_fract_y
_atom_site_fract_z
Si Si1 0.308125 0.611756 0.956005
Si Si2 0.685101 0.790127 0.409649
Si Si3 0.000000 0.822994 0.462447
Si Si4 0.000000 0.834275 0.750000
Si Si5 0.000000 0.289956 0.904303
Si Si6 0.172842 0.086025 0.250000
Si Si7 0.614001 0.467755 0.250000
O O1 0.236375 0.654313 0.901541
O O2 0.408265 0.642090 0.948112
O O3 0.333451 0.559843 0.875583
O O4 0.277174 0.596969 0.107996
O O5 0.672536 0.772552 0.250000
O O6 0.750000 0.750000 0.500000
O O7 0.591959 0.799364 0.501540
O O8 0.000000 0.801963 0.615895
O O9 0.000000 0.771544 0.380526
O O10 0.088560 0.872322 0.750000
O O11 0.000000 0.313312 0.750000
O O12 0.130536 0.028708 0.250000
O O13 0.500000 0.458040 0.250000
#
# Coordination Sequence:
#
# PCOD9472121 Si02
#       7
#    16  16   8   4   8   8   8
#     4  11  23  38  60  87 130 171 208 250 312 372
#     4  12  26  42  65  94 128 169 218 263 316 380
#     4  10  20  33  56  86 128 167 208 244 308 356
#     4   8  18  32  48  86 118 170 202 244 286 364
#     4  12  27  41  65  91 127 169 219 264 315 371
#     4  10  22  36  57  86 124 169 208 252 301 370
#     4  12  22  36  60  92 131 169 211 254 309 378
#
# _framework density 18.849554000000001
#
# number of rings (size 3 to 8) (size 9 to 14) (size 15 to 20)
#    0.000    0.941    5.294    1.765    6.588    0.941 
#    0.000    0.000    0.000    0.000    0.000    4.941 
#    0.000    0.000    0.000    0.000    0.000    0.000 
#
# Total GULP energy -189438.296766 kJ/mol
# GULP energy per Si atom -5571.714611 kJ/mol
# Density = 1.880665 g / cm^3
# Si number density = 18.849554 Si / 1000 Ang^3
#
#
#
# Elastic Constant Matrix: (Units=GPa)
#
#
# Indices 1 2 3 4 5 6 
#
# 1 99.0919 15.3512 47.3448 0.0000 0.0000 0.0000
# 2 15.3512 68.4639 38.5233 0.0000 0.0000 0.0000
# 3 47.3448 38.5233 177.4033 0.0000 0.0000 0.0000
# 4 0.0000 0.0000 0.0000 31.7935 0.0000 0.0000
# 5 0.0000 0.0000 0.0000 0.0000 19.6772 0.0000
# 6 0.0000 0.0000 0.0000 0.0000 0.0000 36.7047
#
#
#
# Elastic Compliance Matrix: (Units=1/GPa)
#
#
# Indices 1 2 3 4 5 6 
#
# 1 0.011624 -0.000981 -0.002889 0.000000 0.000000 0.000000
# 2 -0.000981 0.016722 -0.003369 0.000000 0.000000 0.000000
# 3 -0.002889 -0.003369 0.007140 0.000000 0.000000 0.000000
# 4 0.000000 0.000000 0.000000 0.031453 0.000000 0.000000
# 5 0.000000 0.000000 0.000000 0.000000 0.050820 0.000000
# 6 0.000000 0.000000 0.000000 0.000000 0.000000 0.027244
#
#
# Mechanical properties :
#
#
# Convention : Reuss Voigt Hill
#
# Bulk Modulus (GPa) = 47.60330 60.82196 54.21263
# Shear Modulus (GPa) = 30.03282 33.88439 31.95860
#
# Velocity S-wave (km/s) = 3.99593 4.24444 4.12206
# Velocity P-wave (km/s) = 6.82636 7.50716 7.17484
#
# Compressibility (1/GPa) = 0.02100695
#
# Stress axis : x y z
#
# Youngs Moduli (GPa) = 86.02889 59.80120 140.06329
#
# Poissons Ratio (x) = 0.05864 0.40467
# Poissons Ratio (y) = 0.08436 0.47194
# Poissons Ratio (z) = 0.24856 0.20150
#
# Static dielectric constant tensor:
#      x y z
#    x 1.641480 0.000000 0.000000 
#    y 0.000000 1.612060 0.000000 
#    z 0.000000 0.000000 1.778170 
# 
# From -- ./inp_files/4575.got.cif
#   From: 2010.05.17/outbox.cif.g08.bks.cpg/sg63_3_cif.got.tgz:4575.got - 2010.06.03 15:47:04.
