data_PCOD9472258
_publ_section_title
;
Structure prediction by ZEFSAII (Michael W. Deem and Ramdas Pophale) SiO2 
 PCOD9472258
Probable space group: C M C M
;
_chemical_formula_sum "Si O2"
_cell_formula_units_Z 64
_cell_length_a 24.982444
_cell_length_b 12.939392
_cell_length_c 9.320905
_cell_angle_alpha 90.000000
_cell_angle_beta 90.000000
_cell_angle_gamma 90.000000
_cell_volume 3013.053716
_symmetry_space_group_name_H-M "C M C M"
_symmetry_group_IT_number 63
_symmetry_cell_setting 'orthorhombic'
loop_
_space_group_symop_operation_xyz
x,y,z
-x,-y,1/2+z
x,-y,-z
-x,y,1/2-z
-x,-y,-z
x,y,1/2-z
-x,y,z
x,-y,1/2+z
1/2+x,1/2+y,z
1/2-x,1/2-y,1/2+z
1/2+x,1/2-y,-z
1/2-x,1/2+y,1/2-z
1/2-x,1/2-y,-z
1/2+x,1/2+y,1/2-z
1/2-x,1/2+y,z
1/2+x,1/2-y,1/2+z
loop_
_atom_site_type_symbol
_atom_site_label
_atom_site_fract_x
_atom_site_fract_y
_atom_site_fract_z
Si Si1 0.940996 0.170781 0.575033
Si Si2 0.563267 0.905752 0.908490
Si Si3 0.823684 0.830277 0.421020
Si Si4 0.782795 0.398754 0.580872
O O1 0.942344 0.170689 0.750000
O O2 0.936371 0.290760 0.528979
O O3 0.882562 0.128265 0.535412
O O4 0.000000 0.131291 0.527546
O O5 0.588312 0.903480 0.750000
O O6 0.500000 0.926321 0.890690
O O7 0.584335 0.000000 0.000000
O O8 0.816075 0.849415 0.250000
O O9 0.817695 0.705516 0.440411
O O10 0.775554 0.876154 0.512821
O O11 0.802839 0.500000 0.500000
O O12 0.777976 0.416963 0.750000
#
# Coordination Sequence:
#
# PCOD9472258 Si02
#       4
#    16  16  16  16
#     4   8  14  26  45  68  95 128 162 196 240 295
#     4   8  13  21  33  51  78 113 151 186 220 265
#     4   9  18  33  53  77 103 132 169 210 252 301
#     4  10  20  34  53  76 102 133 169 212 259 302
#
# _framework density 21.240908000000001
#
# number of rings (size 3 to 8) (size 9 to 14) (size 15 to 20)
#    0.000    3.250    0.000    2.250    0.000    2.000 
#    0.000    1.250    0.000    3.000    0.000    0.000 
#    0.000    0.000    0.000    0.000    0.000    0.000 
#
# Total GULP energy -178226.894612 kJ/mol
# GULP energy per Si atom -5569.590457 kJ/mol
# Density = 2.119256 g / cm^3
# Si number density = 21.240908 Si / 1000 Ang^3
#
#
#
# Elastic Constant Matrix: (Units=GPa)
#
#
# Indices 1 2 3 4 5 6 
#
# 1 208.7981 11.4914 37.5360 0.0000 0.0000 0.0000
# 2 11.4914 64.0443 25.3817 0.0000 0.0000 0.0000
# 3 37.5360 25.3817 47.4132 0.0000 0.0000 0.0000
# 4 0.0000 0.0000 0.0000 24.1969 0.0000 0.0000
# 5 0.0000 0.0000 0.0000 0.0000 12.0361 0.0000
# 6 0.0000 0.0000 0.0000 0.0000 0.0000 -3.6659
#
#
#
# Elastic Compliance Matrix: (Units=1/GPa)
#
#
# Indices 1 2 3 4 5 6 
#
# 1 0.005630 0.000960 -0.004971 0.000000 0.000000 0.000000
# 2 0.000960 0.019983 -0.011457 0.000000 0.000000 0.000000
# 3 -0.004971 -0.011457 0.031160 0.000000 0.000000 0.000000
# 4 0.000000 0.000000 0.000000 0.041328 0.000000 0.000000
# 5 0.000000 0.000000 0.000000 0.000000 0.083083 0.000000
# 6 0.000000 0.000000 0.000000 0.000000 0.000000 -0.272787
#
#
# Mechanical properties :
#
#
# Convention : Reuss Voigt Hill
#
# Bulk Modulus (GPa) = 38.70574 52.11931 45.41253
# Shear Modulus (GPa) = -96.05384 22.90320 -36.57532
#
# Velocity S-wave (km/s) = -6.73196 3.28725 -4.15411
# Velocity P-wave (km/s) = 6.49338 6.24488 1.25806
#
# Compressibility (1/GPa) = 0.02583596
#
# Stress axis : x y z
#
# Youngs Moduli (GPa) = 177.61500 50.04353 32.09235
#
# Poissons Ratio (x) = -0.04804 0.15954
# Poissons Ratio (y) = -0.17050 0.36769
# Poissons Ratio (z) = 0.88295 0.57336
#
# Static dielectric constant tensor:
#      x y z
#    x 1.843360 0.000000 0.000000 
#    y 0.000000 1.787500 0.000000 
#    z 0.000000 0.000000 1.726960 
# 
# From -- ./inp_files/23463.got.cif
#   From: 2010.05.17/outbox.cif.g08.bks.cpg/sg63_12_cif.got.tgz:23463.got - 2010.06.03 15:47:04.
