data_PCOD9472810
_publ_section_title
;
Structure prediction by ZEFSAII (Michael W. Deem and Ramdas Pophale) SiO2 
 PCOD9472810
Probable space group: C M C M
;
_chemical_formula_sum "Si O2"
_cell_formula_units_Z 96
_cell_length_a 7.848416
_cell_length_b 21.099522
_cell_length_c 27.766341
_cell_angle_alpha 90.000000
_cell_angle_beta 90.000000
_cell_angle_gamma 90.000000
_cell_volume 4598.045707
_symmetry_space_group_name_H-M "C M C M"
_symmetry_group_IT_number 63
_symmetry_cell_setting 'orthorhombic'
loop_
_space_group_symop_operation_xyz
x,y,z
-x,-y,1/2+z
x,-y,-z
-x,y,1/2-z
-x,-y,-z
x,y,1/2-z
-x,y,z
x,-y,1/2+z
1/2+x,1/2+y,z
1/2-x,1/2-y,1/2+z
1/2+x,1/2-y,-z
1/2-x,1/2+y,1/2-z
1/2-x,1/2-y,-z
1/2+x,1/2+y,1/2-z
1/2-x,1/2+y,z
1/2+x,1/2-y,1/2+z
loop_
_atom_site_type_symbol
_atom_site_label
_atom_site_fract_x
_atom_site_fract_y
_atom_site_fract_z
Si Si1 0.298605 0.305645 0.365402
Si Si2 0.203761 0.944120 0.641662
Si Si3 0.291447 0.560901 0.031096
Si Si4 0.705476 0.315150 0.026040
Si Si5 0.205616 0.314075 0.805045
Si Si6 0.298372 0.927122 0.195209
O O1 0.500000 0.293467 0.371167
O O2 0.227892 0.313959 0.419214
O O3 0.228208 0.245493 0.336051
O O4 0.278348 0.369708 0.335247
O O5 0.266253 0.942596 0.586408
O O6 0.251995 0.879943 0.669179
O O7 0.000000 0.948377 0.640240
O O8 0.267808 0.005817 0.669672
O O9 0.500000 0.561392 0.031879
O O10 0.239596 0.500000 0.000000
O O11 0.232920 0.624757 0.004626
O O12 0.500000 0.320867 0.027934
O O13 0.750000 0.250000 0.000000
O O14 0.268979 0.312622 0.750000
O O15 0.000000 0.309197 0.802893
O O16 0.231723 0.928098 0.250000
O O17 0.500000 0.916171 0.197062
#
# Coordination Sequence:
#
# PCOD9472810 Si02
#       6
#    16  16  16  16  16  16
#     4  10  21  38  61  86 112 148 192 233 277 334
#     4  11  22  36  58  84 110 146 189 228 270 330
#     4   9  18  34  55  79 108 141 178 222 271 320
#     4  10  20  35  57  84 114 147 183 227 277 329
#     4  10  21  37  56  80 113 148 181 225 278 326
#     4  11  24  40  58  82 113 147 184 233 290 339
#
# _framework density 20.878436000000001
#
# number of rings (size 3 to 8) (size 9 to 14) (size 15 to 20)
#    0.000    1.833    0.000    4.000    0.000    8.333 
#    0.000    0.833    0.000    3.500    0.000    0.000 
#    0.000    0.000    0.000    0.000    0.000    0.000 
#
# Total GULP energy -268337.353882 kJ/mol
# GULP energy per Si atom -5590.361539 kJ/mol
# Density = 2.083092 g / cm^3
# Si number density = 20.878436 Si / 1000 Ang^3
#
#
#
# Elastic Constant Matrix: (Units=GPa)
#
#
# Indices 1 2 3 4 5 6 
#
# 1 16.4661 -30.2017 -10.4205 0.0000 0.0000 0.0000
# 2 -30.2017 144.1115 79.5700 0.0000 0.0000 0.0000
# 3 -10.4205 79.5700 208.0591 0.0000 0.0000 0.0000
# 4 0.0000 0.0000 0.0000 44.6922 0.0000 0.0000
# 5 0.0000 0.0000 0.0000 0.0000 17.0675 0.0000
# 6 0.0000 0.0000 0.0000 0.0000 0.0000 -41.7232
#
#
#
# Elastic Compliance Matrix: (Units=1/GPa)
#
#
# Indices 1 2 3 4 5 6 
#
# 1 0.101027 0.023298 -0.003850 0.000000 0.000000 0.000000
# 2 0.023298 0.014170 -0.004252 0.000000 0.000000 0.000000
# 3 -0.003850 -0.004252 0.006240 0.000000 0.000000 0.000000
# 4 0.000000 0.000000 0.000000 0.022375 0.000000 0.000000
# 5 0.000000 0.000000 0.000000 0.000000 0.058591 0.000000
# 6 0.000000 0.000000 0.000000 0.000000 0.000000 -0.023967
#
#
# Mechanical properties :
#
#
# Convention : Reuss Voigt Hill
#
# Bulk Modulus (GPa) = 6.58638 49.61468 28.10053
# Shear Modulus (GPa) = 25.16952 25.98655 25.57803
#
# Velocity S-wave (km/s) = 3.47584 3.53180 3.50393
# Velocity P-wave (km/s) = 4.38977 6.35977 5.46428
#
# Compressibility (1/GPa) = 0.15182856
#
# Stress axis : x y z
#
# Youngs Moduli (GPa) = 9.89831 70.57405 160.26533
#
# Poissons Ratio (x) = -1.64426 0.61707
# Poissons Ratio (y) = -0.23061 0.68146
# Poissons Ratio (z) = 0.03811 0.30009
#
# Static dielectric constant tensor:
#      x y z
#    x 1.773180 0.000000 0.000000 
#    y 0.000000 1.690180 0.000000 
#    z 0.000000 0.000000 1.740370 
# 
# From -- ./inp_files/66965.got.cif
#   From: 2010.05.17/outbox.cif.g08.bks.cpg/sg63_34_cif.got.tgz:66965.got - 2010.06.03 15:47:04.
