data_PCOD9472666
_publ_section_title
;
Structure prediction by ZEFSAII (Michael W. Deem and Ramdas Pophale) SiO2 
 PCOD9472666
Probable space group: C M C M
;
_chemical_formula_sum "Si O2"
_cell_formula_units_Z 80
_cell_length_a 18.773386
_cell_length_b 26.548012
_cell_length_c 8.380963
_cell_angle_alpha 90.000000
_cell_angle_beta 90.000000
_cell_angle_gamma 90.000000
_cell_volume 4177.039079
_symmetry_space_group_name_H-M "C M C M"
_symmetry_group_IT_number 63
_symmetry_cell_setting 'orthorhombic'
loop_
_space_group_symop_operation_xyz
x,y,z
-x,-y,1/2+z
x,-y,-z
-x,y,1/2-z
-x,-y,-z
x,y,1/2-z
-x,y,z
x,-y,1/2+z
1/2+x,1/2+y,z
1/2-x,1/2-y,1/2+z
1/2+x,1/2-y,-z
1/2-x,1/2+y,1/2-z
1/2-x,1/2-y,-z
1/2+x,1/2+y,1/2-z
1/2-x,1/2+y,z
1/2+x,1/2-y,1/2+z
loop_
_atom_site_type_symbol
_atom_site_label
_atom_site_fract_x
_atom_site_fract_y
_atom_site_fract_z
Si Si1 0.582064 0.250676 0.055047
Si Si2 0.417881 0.555351 0.440992
Si Si3 0.669638 0.152256 0.443004
Si Si4 0.082304 0.445048 0.942557
Si Si5 0.168895 0.150965 0.559063
O O1 0.581604 0.250623 0.250000
O O2 0.500000 0.249881 0.002789
O O3 0.624848 0.201009 0.003827
O O4 0.622619 0.301110 0.002472
O O5 0.395827 0.500000 0.500000
O O6 0.416999 0.555653 0.250000
O O7 0.500000 0.563506 0.495230
O O8 0.368148 0.599609 0.503459
O O9 0.668727 0.152028 0.250000
O O10 0.631192 0.100953 0.498031
O O11 0.750667 0.154808 0.498391
O O12 0.082506 0.444921 0.750000
O O13 0.000000 0.437915 0.994796
O O14 0.106294 0.500000 0.000000
O O15 0.169512 0.151977 0.750000
#
# Coordination Sequence:
#
# PCOD9472666 Si02
#       5
#    16  16  16  16  16
#     4   9  18  34  57  81 104 137 183 231 278 328
#     4  10  21  38  60  84 110 142 182 226 270 319
#     4  10  20  35  55  78 107 142 182 227 272 323
#     4   9  18  33  54  78 103 135 176 221 268 318
#     4  11  22  35  54  81 114 147 179 220 272 330
#
# _framework density 19.152322999999999
#
# number of rings (size 3 to 8) (size 9 to 14) (size 15 to 20)
#    0.000    2.200    0.000    3.000    0.000    6.000 
#    0.000    3.000    0.000    4.200    0.000    0.000 
#    0.000    0.000    0.000    0.000    0.000    0.000 
#
# Total GULP energy -223413.544157 kJ/mol
# GULP energy per Si atom -5585.338604 kJ/mol
# Density = 1.910873 g / cm^3
# Si number density = 19.152323 Si / 1000 Ang^3
#
#
#
# Elastic Constant Matrix: (Units=GPa)
#
#
# Indices 1 2 3 4 5 6 
#
# 1 175.4323 142.6558 20.5491 0.0000 0.0000 0.0000
# 2 142.6558 214.5046 25.8574 0.0000 0.0000 0.0000
# 3 20.5491 25.8574 15.4776 0.0000 0.0000 0.0000
# 4 0.0000 0.0000 0.0000 16.3960 0.0000 0.0000
# 5 0.0000 0.0000 0.0000 0.0000 26.5975 0.0000
# 6 0.0000 0.0000 0.0000 0.0000 0.0000 45.9917
#
#
#
# Elastic Compliance Matrix: (Units=1/GPa)
#
#
# Indices 1 2 3 4 5 6 
#
# 1 0.012555 -0.007939 -0.003405 0.000000 0.000000 0.000000
# 2 -0.007939 0.010858 -0.007599 0.000000 0.000000 0.000000
# 3 -0.003405 -0.007599 0.081825 0.000000 0.000000 0.000000
# 4 0.000000 0.000000 0.000000 0.060990 0.000000 0.000000
# 5 0.000000 0.000000 0.000000 0.000000 0.037598 0.000000
# 6 0.000000 0.000000 0.000000 0.000000 0.000000 0.021743
#
#
# Mechanical properties :
#
#
# Convention : Reuss Voigt Hill
#
# Bulk Modulus (GPa) = 14.84750 87.05991 50.95370
# Shear Modulus (GPa) = 17.48824 32.22052 24.85438
#
# Velocity S-wave (km/s) = 3.02505 4.10607 3.60630
# Velocity P-wave (km/s) = 4.46883 8.24833 6.63345
#
# Compressibility (1/GPa) = 0.06735140
#
# Stress axis : x y z
#
# Youngs Moduli (GPa) = 79.65000 92.09952 12.22114
#
# Poissons Ratio (x) = 0.73119 0.04162
# Poissons Ratio (y) = 0.63235 0.09287
# Poissons Ratio (z) = 0.27123 0.69986
#
# Static dielectric constant tensor:
#      x y z
#    x 1.637480 0.000000 0.000000 
#    y 0.000000 1.645390 0.000000 
#    z 0.000000 0.000000 1.665110 
# 
# From -- ./inp_files/6405.got.cif
#   From: 2010.05.17/outbox.cif.g08.bks.cpg/sg63_4_cif.got.tgz:6405.got - 2010.06.03 15:47:04.
