data_PCOD9472913
_publ_section_title
;
Structure prediction by ZEFSAII (Michael W. Deem and Ramdas Pophale) SiO2 
 PCOD9472913
Probable space group: C M C M
;
_chemical_formula_sum "Si O2"
_cell_formula_units_Z 116
_cell_length_a 7.712005
_cell_length_b 25.517744
_cell_length_c 29.802265
_cell_angle_alpha 90.000000
_cell_angle_beta 90.000000
_cell_angle_gamma 90.000000
_cell_volume 5864.876222
_symmetry_space_group_name_H-M "C M C M"
_symmetry_group_IT_number 63
_symmetry_cell_setting 'orthorhombic'
loop_
_space_group_symop_operation_xyz
x,y,z
-x,-y,1/2+z
x,-y,-z
-x,y,1/2-z
-x,-y,-z
x,y,1/2-z
-x,y,z
x,-y,1/2+z
1/2+x,1/2+y,z
1/2-x,1/2-y,1/2+z
1/2+x,1/2-y,-z
1/2-x,1/2+y,1/2-z
1/2-x,1/2-y,-z
1/2+x,1/2+y,1/2-z
1/2-x,1/2+y,z
1/2+x,1/2-y,1/2+z
loop_
_atom_site_type_symbol
_atom_site_label
_atom_site_fract_x
_atom_site_fract_y
_atom_site_fract_z
Si Si1 0.788957 0.055413 0.400985
Si Si2 0.294015 0.244685 0.300336
Si Si3 0.203842 0.326430 0.123656
Si Si4 0.798764 0.916498 0.501251
Si Si5 0.296354 0.874040 0.820039
Si Si6 0.792439 0.303980 0.475975
Si Si7 0.000000 0.905321 0.750000
Si Si8 0.208920 0.060044 0.598325
O O1 0.727105 0.061546 0.452373
O O2 0.717870 0.100244 0.368911
O O3 0.000000 0.059103 0.401054
O O4 0.738991 0.997127 0.384583
O O5 0.220258 0.251879 0.250000
O O6 0.500000 0.242226 0.296182
O O7 0.259407 0.291474 0.334607
O O8 0.242262 0.187384 0.318550
O O9 0.275351 0.306812 0.075430
O O10 0.240846 0.388442 0.125953
O O11 0.000000 0.319759 0.120808
O O12 0.786025 0.853674 0.501635
O O13 0.723656 0.932918 0.452931
O O14 0.000000 0.932858 0.500181
O O15 0.500000 0.877595 0.805637
O O16 0.155219 0.902378 0.788741
O O17 0.750000 0.250000 0.500000
O O18 0.000000 0.310858 0.475590
O O19 0.000000 0.060550 0.596232
#
# Coordination Sequence:
#
# PCOD9472913 Si02
#       8
#    16  16  16  16  16  16   4  16
#     4  10  20  35  59  90 122 158 202 251 302 361
#     4  10  22  40  62  87 115 146 192 246 302 367
#     4  10  22  36  57  83 112 152 197 242 297 354
#     4   9  18  33  55  83 116 156 203 243 289 353
#     4  11  24  40  63  95 123 157 199 246 309 369
#     4  10  21  35  49  75 114 155 193 236 288 349
#     4  12  22  44  68  86 126 160 194 252 306 372
#     4   9  18  36  59  83 118 162 202 244 296 353
#
# _framework density 19.778763999999999
#
# number of rings (size 3 to 8) (size 9 to 14) (size 15 to 20)
#    0.000    2.069    1.379    1.448    2.897    4.690 
#    0.000    0.000    1.517    4.138    0.000    0.000 
#    0.000    0.000    0.000    0.000    0.000    0.000 
#
# Total GULP energy -323009.426476 kJ/mol
# GULP energy per Si atom -5569.128043 kJ/mol
# Density = 1.973375 g / cm^3
# Si number density = 19.778764 Si / 1000 Ang^3
#
#
#
# Elastic Constant Matrix: (Units=GPa)
#
#
# Indices 1 2 3 4 5 6 
#
# 1 60.1980 -6.4382 5.0724 0.0000 0.0000 0.0000
# 2 -6.4382 112.5787 57.7475 0.0000 0.0000 0.0000
# 3 5.0724 57.7475 68.5470 0.0000 0.0000 0.0000
# 4 0.0000 0.0000 0.0000 0.3158 0.0000 0.0000
# 5 0.0000 0.0000 0.0000 0.0000 19.9326 0.0000
# 6 0.0000 0.0000 0.0000 0.0000 0.0000 13.1773
#
#
#
# Elastic Compliance Matrix: (Units=1/GPa)
#
#
# Indices 1 2 3 4 5 6 
#
# 1 0.017233 0.002887 -0.003708 0.000000 0.000000 0.000000
# 2 0.002887 0.016126 -0.013799 0.000000 0.000000 0.000000
# 3 -0.003708 -0.013799 0.026488 0.000000 0.000000 0.000000
# 4 0.000000 0.000000 0.000000 3.166902 0.000000 0.000000
# 5 0.000000 0.000000 0.000000 0.000000 0.050169 0.000000
# 6 0.000000 0.000000 0.000000 0.000000 0.000000 0.075888
#
#
# Mechanical properties :
#
#
# Convention : Reuss Voigt Hill
#
# Bulk Modulus (GPa) = 32.67086 39.34299 36.00693
# Shear Modulus (GPa) = 1.47395 19.01460 10.24428
#
# Velocity S-wave (km/s) = 0.86420 3.10395 2.27831
# Velocity P-wave (km/s) = 4.18925 5.72545 5.01650
#
# Compressibility (1/GPa) = 0.03060831
#
# Stress axis : x y z
#
# Youngs Moduli (GPa) = 58.02794 62.01141 37.75304
#
# Poissons Ratio (x) = -0.17905 0.13998
# Poissons Ratio (y) = -0.16755 0.52096
# Poissons Ratio (z) = 0.21515 0.85570
#
# Static dielectric constant tensor:
#      x y z
#    x 1.736610 0.000000 0.000000 
#    y 0.000000 1.697110 0.000000 
#    z 0.000000 0.000000 1.794220 
# 
# From -- ./inp_files/72065.got.cif
#   From: 2010.05.17/outbox.cif.g08.bks.cpg/sg63_37_cif.got.tgz:72065.got - 2010.06.03 15:47:04.
