data_PCOD9472191
_publ_section_title
;
Structure prediction by ZEFSAII (Michael W. Deem and Ramdas Pophale) SiO2 
 PCOD9472191
Probable space group: C M C M
;
_chemical_formula_sum "Si O2"
_cell_formula_units_Z 96
_cell_length_a 19.431221
_cell_length_b 33.658349
_cell_length_c 7.815004
_cell_angle_alpha 90.000000
_cell_angle_beta 90.000000
_cell_angle_gamma 90.000000
_cell_volume 5111.190938
_symmetry_space_group_name_H-M "C M C M"
_symmetry_group_IT_number 63
_symmetry_cell_setting 'orthorhombic'
loop_
_space_group_symop_operation_xyz
x,y,z
-x,-y,1/2+z
x,-y,-z
-x,y,1/2-z
-x,-y,-z
x,y,1/2-z
-x,y,z
x,-y,1/2+z
1/2+x,1/2+y,z
1/2-x,1/2-y,1/2+z
1/2+x,1/2-y,-z
1/2-x,1/2+y,1/2-z
1/2-x,1/2-y,-z
1/2+x,1/2+y,1/2-z
1/2-x,1/2+y,z
1/2+x,1/2-y,1/2+z
loop_
_atom_site_type_symbol
_atom_site_label
_atom_site_fract_x
_atom_site_fract_y
_atom_site_fract_z
Si Si1 0.579278 0.756621 0.956846
Si Si2 0.849293 0.335983 0.957110
Si Si3 0.215619 0.454996 0.453596
Si Si4 0.077522 0.833077 0.545970
Si Si5 0.576148 0.084260 0.544803
Si Si6 0.789847 0.876620 0.954336
O O1 0.580619 0.756338 0.750000
O O2 0.500000 0.763723 0.010217
O O3 0.626630 0.792803 0.017400
O O4 0.598764 0.712718 0.017497
O O5 0.847354 0.335114 0.750000
O O6 0.774779 0.350660 0.020749
O O7 0.903283 0.370209 0.007509
O O8 0.231689 0.500000 0.500000
O O9 0.212853 0.451729 0.250000
O O10 0.139983 0.441990 0.522371
O O11 0.270041 0.422239 0.514638
O O12 0.072934 0.839411 0.750000
O O13 0.137157 0.861640 0.476596
O O14 0.000000 0.838175 0.474910
O O15 0.574074 0.079320 0.750000
O O16 0.500000 0.074953 0.476867
O O17 0.791411 0.870621 0.750000
#
# Coordination Sequence:
#
# PCOD9472191 Si02
#       6
#    16  16  16  16  16  16
#     4   9  17  28  42  63  93 127 161 196 231 268
#     4   9  17  29  45  66  93 127 165 199 231 268
#     4  10  20  34  52  73  96 122 152 187 229 277
#     4   9  18  32  49  69  93 122 155 191 235 284
#     4   9  18  31  46  67  96 128 161 195 228 263
#     4   9  18  33  51  70  93 121 154 193 235 279
#
# _framework density 18.782315000000001
#
# number of rings (size 3 to 8) (size 9 to 14) (size 15 to 20)
#    0.000    2.833    0.000    1.000    0.000    4.000 
#    0.000    1.667    0.000    0.500    0.000    0.000 
#    0.000    0.000    0.000    0.000    0.000    0.000 
#
# Total GULP energy -267641.191108 kJ/mol
# GULP energy per Si atom -5575.858148 kJ/mol
# Density = 1.873957 g / cm^3
# Si number density = 18.782315 Si / 1000 Ang^3
#
#
#
# Elastic Constant Matrix: (Units=GPa)
#
#
# Indices 1 2 3 4 5 6 
#
# 1 95.4551 91.4784 2.3795 0.0000 0.0000 0.0000
# 2 91.4784 127.2322 -8.4560 0.0000 0.0000 0.0000
# 3 2.3795 -8.4560 18.6312 0.0000 0.0000 0.0000
# 4 0.0000 0.0000 0.0000 20.5781 0.0000 0.0000
# 5 0.0000 0.0000 0.0000 0.0000 10.9445 0.0000
# 6 0.0000 0.0000 0.0000 0.0000 0.0000 9.3526
#
#
#
# Elastic Compliance Matrix: (Units=1/GPa)
#
#
# Indices 1 2 3 4 5 6 
#
# 1 0.038876 -0.029161 -0.018200 0.000000 0.000000 0.000000
# 2 -0.029161 0.029978 0.017330 0.000000 0.000000 0.000000
# 3 -0.018200 0.017330 0.063863 0.000000 0.000000 0.000000
# 4 0.000000 0.000000 0.000000 0.048595 0.000000 0.000000
# 5 0.000000 0.000000 0.000000 0.000000 0.091370 0.000000
# 6 0.000000 0.000000 0.000000 0.000000 0.000000 0.106922
#
#
# Mechanical properties :
#
#
# Convention : Reuss Voigt Hill
#
# Bulk Modulus (GPa) = 13.76361 45.79136 29.77749
# Shear Modulus (GPa) = 10.77855 18.56950 14.67403
#
# Velocity S-wave (km/s) = 2.39815 3.14772 2.79815
# Velocity P-wave (km/s) = 3.87454 6.13546 5.13108
#
# Compressibility (1/GPa) = 0.07265534
#
# Stress axis : x y z
#
# Youngs Moduli (GPa) = 25.72292 33.35807 15.65840
#
# Poissons Ratio (x) = 0.97275 0.28499
# Poissons Ratio (y) = 0.75010 -0.27136
# Poissons Ratio (z) = 0.46816 -0.57810
#
# Static dielectric constant tensor:
#      x y z
#    x 1.682210 0.000000 0.000000 
#    y 0.000000 1.556830 0.000000 
#    z 0.000000 0.000000 1.672560 
# 
# From -- ./inp_files/8514.got.cif
#   From: 2010.05.17/outbox.cif.g08.bks.cpg/sg63_5_cif.got.tgz:8514.got - 2010.06.03 15:47:04.
