data_PCOD9472334
_publ_section_title
;
Structure prediction by ZEFSAII (Michael W. Deem and Ramdas Pophale) SiO2 
 PCOD9472334
Probable space group: C M C M
;
_chemical_formula_sum "Si O2"
_cell_formula_units_Z 88
_cell_length_a 19.318268
_cell_length_b 28.231172
_cell_length_c 7.417322
_cell_angle_alpha 90.000000
_cell_angle_beta 90.000000
_cell_angle_gamma 90.000000
_cell_volume 4045.239392
_symmetry_space_group_name_H-M "C M C M"
_symmetry_group_IT_number 63
_symmetry_cell_setting 'orthorhombic'
loop_
_space_group_symop_operation_xyz
x,y,z
-x,-y,1/2+z
x,-y,-z
-x,y,1/2-z
-x,-y,-z
x,y,1/2-z
-x,y,z
x,-y,1/2+z
1/2+x,1/2+y,z
1/2-x,1/2-y,1/2+z
1/2+x,1/2-y,-z
1/2-x,1/2+y,1/2-z
1/2-x,1/2-y,-z
1/2+x,1/2+y,1/2-z
1/2-x,1/2+y,z
1/2+x,1/2-y,1/2+z
loop_
_atom_site_type_symbol
_atom_site_label
_atom_site_fract_x
_atom_site_fract_y
_atom_site_fract_z
Si Si1 0.310888 0.287430 0.963964
Si Si2 0.500000 0.055608 0.964965
Si Si3 0.923877 0.056020 0.965848
Si Si4 0.079317 0.714169 0.530210
Si Si5 0.286842 0.605066 0.544117
Si Si6 0.134945 0.612329 0.970973
O O1 0.315625 0.294899 0.750000
O O2 0.380224 0.260999 0.027912
O O3 0.250000 0.250000 0.000000
O O4 0.296336 0.338294 0.046793
O O5 0.500000 0.063223 0.750000
O O6 0.570294 0.080500 0.031071
O O7 0.500000 0.000000 0.000000
O O8 0.925350 0.063719 0.750000
O O9 0.855788 0.082212 0.038227
O O10 0.000000 0.071179 0.035024
O O11 0.917612 0.000000 0.000000
O O12 0.079662 0.714055 0.750000
O O13 0.119129 0.666458 0.474858
O O14 0.000000 0.712243 0.471866
O O15 0.283601 0.587259 0.750000
O O16 0.210583 0.596168 0.464844
O O17 0.136684 0.611919 0.750000
#
# Coordination Sequence:
#
# PCOD9472334 Si02
#       6
#    16   8  16  16  16  16
#     4  11  21  33  52  79 109 140 176 219 266 310
#     4  10  20  34  54  76 102 134 172 218 267 308
#     4   9  19  36  57  79 106 141 176 217 270 325
#     4   9  16  29  51  75  97 131 181 218 243 298
#     4  10  20  35  55  79 107 139 178 218 265 319
#     4   9  16  30  52  73  94 133 175 208 251 310
#
# _framework density 21.753965999999998
#
# number of rings (size 3 to 8) (size 9 to 14) (size 15 to 20)
#    0.000    2.364    2.727    0.545    0.000    2.182 
#    0.000    0.909    0.000    1.636    0.000    0.000 
#    0.000    0.000    0.000    0.000    0.000    0.000 
#
# Total GULP energy -245680.318910 kJ/mol
# GULP energy per Si atom -5583.643612 kJ/mol
# Density = 2.170445 g / cm^3
# Si number density = 21.753966 Si / 1000 Ang^3
#
#
#
# Elastic Constant Matrix: (Units=GPa)
#
#
# Indices 1 2 3 4 5 6 
#
# 1 243.8082 72.3415 7.2107 0.0000 0.0000 0.0000
# 2 72.3415 72.9496 -10.2135 0.0000 0.0000 0.0000
# 3 7.2107 -10.2135 75.7809 0.0000 0.0000 0.0000
# 4 0.0000 0.0000 0.0000 19.4859 0.0000 0.0000
# 5 0.0000 0.0000 0.0000 0.0000 -0.6413 0.0000
# 6 0.0000 0.0000 0.0000 0.0000 0.0000 49.1609
#
#
#
# Elastic Compliance Matrix: (Units=1/GPa)
#
#
# Indices 1 2 3 4 5 6 
#
# 1 0.005951 -0.006096 -0.001388 0.000000 0.000000 0.000000
# 2 -0.006096 0.020216 0.003305 0.000000 0.000000 0.000000
# 3 -0.001388 0.003305 0.013773 0.000000 0.000000 0.000000
# 4 0.000000 0.000000 0.000000 0.051319 0.000000 0.000000
# 5 0.000000 0.000000 0.000000 0.000000 -1.559259 0.000000
# 6 0.000000 0.000000 0.000000 0.000000 0.000000 0.020341
#
#
# Mechanical properties :
#
#
# Convention : Reuss Voigt Hill
#
# Bulk Modulus (GPa) = 31.66335 59.02403 45.34369
# Shear Modulus (GPa) = -3.49951 35.14776 15.82413
#
# Velocity S-wave (km/s) = -1.26971 4.02393 2.69999
# Velocity P-wave (km/s) = 3.52665 6.98433 5.53254
#
# Compressibility (1/GPa) = 0.03158225
#
# Stress axis : x y z
#
# Youngs Moduli (GPa) = 168.02623 49.46547 72.60378
#
# Poissons Ratio (x) = 0.30155 0.10077
# Poissons Ratio (y) = 1.02431 -0.23993
# Poissons Ratio (z) = 0.23321 -0.16347
#
# Static dielectric constant tensor:
#      x y z
#    x 1.820010 0.000000 0.000000 
#    y 0.000000 1.805060 0.000000 
#    z 0.000000 0.000000 1.792220 
# 
# From -- ./inp_files/6889.got.cif
#   From: 2010.05.17/outbox.cif.g08.bks.cpg/sg63_4_cif.got.tgz:6889.got - 2010.06.03 15:47:04.
