data_PCOD9472333
_publ_section_title
;
Structure prediction by ZEFSAII (Michael W. Deem and Ramdas Pophale) SiO2 
 PCOD9472333
Probable space group: C M C M
;
_chemical_formula_sum "Si O2"
_cell_formula_units_Z 104
_cell_length_a 21.385769
_cell_length_b 9.168044
_cell_length_c 30.112493
_cell_angle_alpha 90.000000
_cell_angle_beta 90.000000
_cell_angle_gamma 90.000000
_cell_volume 5904.026151
_symmetry_space_group_name_H-M "C M C M"
_symmetry_group_IT_number 63
_symmetry_cell_setting 'orthorhombic'
loop_
_space_group_symop_operation_xyz
x,y,z
-x,-y,1/2+z
x,-y,-z
-x,y,1/2-z
-x,-y,-z
x,y,1/2-z
-x,y,z
x,-y,1/2+z
1/2+x,1/2+y,z
1/2-x,1/2-y,1/2+z
1/2+x,1/2-y,-z
1/2-x,1/2+y,1/2-z
1/2-x,1/2-y,-z
1/2+x,1/2+y,1/2-z
1/2-x,1/2+y,z
1/2+x,1/2-y,1/2+z
loop_
_atom_site_type_symbol
_atom_site_label
_atom_site_fract_x
_atom_site_fract_y
_atom_site_fract_z
Si Si1 0.686117 0.753369 0.056026
Si Si2 0.693138 0.004832 0.302399
Si Si3 0.306867 0.687576 0.157930
Si Si4 0.427057 0.492976 0.356392
Si Si5 0.254063 0.000000 0.500000
Si Si6 0.071610 0.692494 0.302956
Si Si7 0.427397 0.420075 0.954372
O O1 0.704370 0.736431 0.107111
O O2 0.715671 0.618850 0.028283
O O3 0.612580 0.724687 0.052230
O O4 0.706624 0.903820 0.034465
O O5 0.702426 0.026080 0.250000
O O6 0.692026 0.834256 0.313439
O O7 0.750614 0.083063 0.327033
O O8 0.626639 0.079555 0.314340
O O9 0.373414 0.603418 0.160068
O O10 0.500000 0.539827 0.349668
O O11 0.419544 0.339756 0.331283
O O12 0.417160 0.483625 0.409861
O O13 0.076470 0.724782 0.250000
O O14 0.000000 0.640175 0.310766
O O15 0.500000 0.386295 0.957014
O O16 0.410038 0.500000 0.000000
#
# Coordination Sequence:
#
# PCOD9472333 Si02
#       7
#    16  16  16  16   8  16  16
#     4  10  20  36  53  80 103 141 176 221 269 320
#     4  11  23  38  56  80 110 147 184 225 275 328
#     4  11  22  36  55  80 110 144 181 229 271 323
#     4   9  19  35  57  82 109 144 185 226 272 327
#     4  10  20  34  54  74 108 136 174 220 266 322
#     4   9  19  37  58  81 109 141 181 227 274 327
#     4   9  17  33  55  78 106 140 179 219 263 316
#
# _framework density 17.615096999999999
#
# number of rings (size 3 to 8) (size 9 to 14) (size 15 to 20)
#    0.000    2.154    0.769    2.308    0.000    4.308 
#    2.769    0.385    0.000    0.000    0.000    0.000 
#    0.000    0.000    0.000    0.000    0.000    0.000 
#
# Total GULP energy -289912.623228 kJ/mol
# GULP energy per Si atom -5575.242754 kJ/mol
# Density = 1.757500 g / cm^3
# Si number density = 17.615097 Si / 1000 Ang^3
#
#
#
# Elastic Constant Matrix: (Units=GPa)
#
#
# Indices 1 2 3 4 5 6 
#
# 1 93.0164 40.4969 34.5337 0.0000 0.0000 0.0000
# 2 40.4969 64.1608 10.2245 0.0000 0.0000 0.0000
# 3 34.5337 10.2245 47.8176 0.0000 0.0000 0.0000
# 4 0.0000 0.0000 0.0000 28.7927 0.0000 0.0000
# 5 0.0000 0.0000 0.0000 0.0000 24.9943 0.0000
# 6 0.0000 0.0000 0.0000 0.0000 0.0000 11.2204
#
#
#
# Elastic Compliance Matrix: (Units=1/GPa)
#
#
# Indices 1 2 3 4 5 6 
#
# 1 0.019847 -0.010604 -0.012066 0.000000 0.000000 0.000000
# 2 -0.010604 0.021802 0.002997 0.000000 0.000000 0.000000
# 3 -0.012066 0.002997 0.028986 0.000000 0.000000 0.000000
# 4 0.000000 0.000000 0.000000 0.034731 0.000000 0.000000
# 5 0.000000 0.000000 0.000000 0.000000 0.040009 0.000000
# 6 0.000000 0.000000 0.000000 0.000000 0.000000 0.089123
#
#
# Mechanical properties :
#
#
# Convention : Reuss Voigt Hill
#
# Bulk Modulus (GPa) = 31.96167 41.72277 36.84222
# Shear Modulus (GPa) = 17.58855 20.98413 19.28634
#
# Velocity S-wave (km/s) = 3.16332 3.45520 3.31248
# Velocity P-wave (km/s) = 5.61480 6.29723 5.96578
#
# Compressibility (1/GPa) = 0.03128748
#
# Stress axis : x y z
#
# Youngs Moduli (GPa) = 50.38423 45.86820 34.49909
#
# Poissons Ratio (x) = 0.48641 0.41628
# Poissons Ratio (y) = 0.53430 -0.10339
# Poissons Ratio (z) = 0.60795 -0.13746
#
# Static dielectric constant tensor:
#      x y z
#    x 1.619600 0.000000 0.000000 
#    y 0.000000 1.559210 0.000000 
#    z 0.000000 0.000000 1.562190 
# 
# From -- ./inp_files/70366.got.cif
#   From: 2010.05.17/outbox.cif.g08.bks.cpg/sg63_36_cif.got.tgz:70366.got - 2010.06.03 15:47:04.
