data_PCOD9472429
_publ_section_title
;
Structure prediction by ZEFSAII (Michael W. Deem and Ramdas Pophale) SiO2 
 PCOD9472429
Probable space group: C M C M
;
_chemical_formula_sum "Si O2"
_cell_formula_units_Z 116
_cell_length_a 10.051186
_cell_length_b 33.381861
_cell_length_c 20.692469
_cell_angle_alpha 90.000000
_cell_angle_beta 90.000000
_cell_angle_gamma 90.000000
_cell_volume 6942.888128
_symmetry_space_group_name_H-M "C M C M"
_symmetry_group_IT_number 63
_symmetry_cell_setting 'orthorhombic'
loop_
_space_group_symop_operation_xyz
x,y,z
-x,-y,1/2+z
x,-y,-z
-x,y,1/2-z
-x,-y,-z
x,y,1/2-z
-x,y,z
x,-y,1/2+z
1/2+x,1/2+y,z
1/2-x,1/2-y,1/2+z
1/2+x,1/2-y,-z
1/2-x,1/2+y,1/2-z
1/2-x,1/2-y,-z
1/2+x,1/2+y,1/2-z
1/2-x,1/2+y,z
1/2+x,1/2-y,1/2+z
loop_
_atom_site_type_symbol
_atom_site_label
_atom_site_fract_x
_atom_site_fract_y
_atom_site_fract_z
Si Si1 0.154368 0.760631 0.095942
Si Si2 0.276141 0.394046 0.360190
Si Si3 0.000000 0.881361 0.250000
Si Si4 0.840048 0.519568 0.676244
Si Si5 0.847711 0.803693 0.955863
Si Si6 0.847011 0.104636 0.010380
Si Si7 0.342352 0.966126 0.555112
Si Si8 0.854041 0.314892 0.327291
O O1 0.237851 0.720070 0.084887
O O2 0.235193 0.787842 0.145974
O O3 0.000000 0.754392 0.113488
O O4 0.156624 0.784607 0.027837
O O5 0.385124 0.382838 0.306853
O O6 0.221668 0.438028 0.343918
O O7 0.330820 0.393679 0.432862
O O8 0.165289 0.359680 0.353912
O O9 0.800574 0.510056 0.750000
O O10 0.804362 0.486104 0.623531
O O11 0.000000 0.523511 0.674235
O O12 0.000000 0.797915 0.932128
O O13 0.821453 0.850865 0.962340
O O14 0.000000 0.093831 0.025218
O O15 0.745737 0.072085 0.038098
O O16 0.500000 0.043665 0.444100
O O17 0.323176 0.000000 0.500000
O O18 0.849631 0.316070 0.250000
O O19 0.000000 0.299508 0.347701
#
# Coordination Sequence:
#
# PCOD9472429 Si02
#       8
#    16  16   4  16  16  16  16  16
#     4  10  20  34  55  80 106 139 179 224 270 320
#     4  12  21  34  52  79 112 153 187 221 275 331
#     4  12  24  32  50  78 124 152 188 228 272 336
#     4  10  20  37  57  76 106 147 190 230 276 335
#     4   9  19  36  54  75 107 139 177 221 271 328
#     4  11  22  36  55  80 112 147 183 226 279 330
#     4  10  21  36  54  81 111 143 186 236 282 329
#     4  11  23  35  52  79 113 150 188 221 265 329
#
# _framework density 16.707744000000002
#
# number of rings (size 3 to 8) (size 9 to 14) (size 15 to 20)
#    0.000    1.517    4.828    0.828    0.966    3.310 
#    1.241    0.000    0.000    0.828    0.000    3.862 
#    0.000    0.000    0.000    0.000    0.000    0.000 
#
# Total GULP energy -323132.464123 kJ/mol
# GULP energy per Si atom -5571.249381 kJ/mol
# Density = 1.666972 g / cm^3
# Si number density = 16.707744 Si / 1000 Ang^3
#
#
#
# Elastic Constant Matrix: (Units=GPa)
#
#
# Indices 1 2 3 4 5 6 
#
# 1 116.8367 75.5573 40.2670 0.0000 0.0000 0.0000
# 2 75.5573 109.1512 44.1418 0.0000 0.0000 0.0000
# 3 40.2670 44.1418 59.4251 0.0000 0.0000 0.0000
# 4 0.0000 0.0000 0.0000 17.8550 0.0000 0.0000
# 5 0.0000 0.0000 0.0000 0.0000 24.8085 0.0000
# 6 0.0000 0.0000 0.0000 0.0000 0.0000 15.7739
#
#
#
# Elastic Compliance Matrix: (Units=1/GPa)
#
#
# Indices 1 2 3 4 5 6 
#
# 1 0.016060 -0.009600 -0.003751 0.000000 0.000000 0.000000
# 2 -0.009600 0.018834 -0.007485 0.000000 0.000000 0.000000
# 3 -0.003751 -0.007485 0.024930 0.000000 0.000000 0.000000
# 4 0.000000 0.000000 0.000000 0.056007 0.000000 0.000000
# 5 0.000000 0.000000 0.000000 0.000000 0.040309 0.000000
# 6 0.000000 0.000000 0.000000 0.000000 0.000000 0.063396
#
#
# Mechanical properties :
#
#
# Convention : Reuss Voigt Hill
#
# Bulk Modulus (GPa) = 55.09363 67.26060 61.17712
# Shear Modulus (GPa) = 18.70842 20.05060 19.37951
#
# Velocity S-wave (km/s) = 3.34989 3.46797 3.40944
# Velocity P-wave (km/s) = 6.92884 7.50868 7.22458
#
# Compressibility (1/GPa) = 0.01815092
#
# Stress axis : x y z
#
# Youngs Moduli (GPa) = 62.26559 53.09496 40.11247
#
# Poissons Ratio (x) = 0.50972 0.15048
# Poissons Ratio (y) = 0.59776 0.30025
# Poissons Ratio (z) = 0.23358 0.39742
#
# Static dielectric constant tensor:
#      x y z
#    x 1.581510 0.000000 0.000000 
#    y 0.000000 1.541170 0.000000 
#    z 0.000000 0.000000 1.550490 
# 
# From -- ./inp_files/60640.got.cif
#   From: 2010.05.17/outbox.cif.g08.bks.cpg/sg63_31_cif.got.tgz:60640.got - 2010.06.03 15:47:04.
