data_PCOD9472567
_publ_section_title
;
Structure prediction by ZEFSAII (Michael W. Deem and Ramdas Pophale) SiO2 
 PCOD9472567
Probable space group: C M C M
;
_chemical_formula_sum "Si O2"
_cell_formula_units_Z 56
_cell_length_a 10.352240
_cell_length_b 23.999203
_cell_length_c 10.662105
_cell_angle_alpha 90.000000
_cell_angle_beta 90.000000
_cell_angle_gamma 90.000000
_cell_volume 2648.952107
_symmetry_space_group_name_H-M "C M C M"
_symmetry_group_IT_number 63
_symmetry_cell_setting 'orthorhombic'
loop_
_space_group_symop_operation_xyz
x,y,z
-x,-y,1/2+z
x,-y,-z
-x,y,1/2-z
-x,-y,-z
x,y,1/2-z
-x,y,z
x,-y,1/2+z
1/2+x,1/2+y,z
1/2-x,1/2-y,1/2+z
1/2+x,1/2-y,-z
1/2-x,1/2+y,1/2-z
1/2-x,1/2-y,-z
1/2+x,1/2+y,1/2-z
1/2-x,1/2+y,z
1/2+x,1/2-y,1/2+z
loop_
_atom_site_type_symbol
_atom_site_label
_atom_site_fract_x
_atom_site_fract_y
_atom_site_fract_z
Si Si1 0.358227 0.006549 0.250000
Si Si2 0.792548 0.000000 0.500000
Si Si3 0.359382 0.624181 0.952415
Si Si4 0.646468 0.872418 0.250000
Si Si5 0.849024 0.773809 0.895393
O O1 0.500000 0.031499 0.250000
O O2 0.288431 0.019532 0.120643
O O3 0.366044 0.939388 0.250000
O O4 0.861512 0.057280 0.537538
O O5 0.500000 0.640803 0.898460
O O6 0.236243 0.640375 0.868729
O O7 0.347203 0.659264 0.080022
O O8 0.500000 0.850543 0.250000
O O9 0.816173 0.761217 0.750000
O O10 0.000000 0.756697 0.916849
O O11 0.750000 0.750000 0.000000
#
# Coordination Sequence:
#
# PCOD9472567 Si02
#       5
#     8   8  16   8  16
#     4   9  18  33  51  78 121 166 205 246 298 357
#     4  10  20  34  60  90 123 166 205 248 307 378
#     4  10  21  38  62  93 128 164 206 256 314 377
#     4   9  19  35  57  86 123 166 207 248 298 363
#     4  10  24  45  68  93 126 165 211 266 321 374
#
# _framework density 21.140433999999999
#
# number of rings (size 3 to 8) (size 9 to 14) (size 15 to 20)
#    0.000    2.286    0.000    1.286    4.000    2.857 
#    0.000    1.429    0.000    0.000    0.000    0.000 
#    0.000    0.000    0.000    0.000    0.000    0.000 
#
# Total GULP energy -155926.183784 kJ/mol
# GULP energy per Si atom -5568.792278 kJ/mol
# Density = 2.109232 g / cm^3
# Si number density = 21.140434 Si / 1000 Ang^3
#
#
#
# Elastic Constant Matrix: (Units=GPa)
#
#
# Indices 1 2 3 4 5 6 
#
# 1 182.1669 19.8127 94.9546 0.0000 0.0000 0.0000
# 2 19.8127 79.7463 15.0861 0.0000 0.0000 0.0000
# 3 94.9546 15.0861 150.1479 0.0000 0.0000 0.0000
# 4 0.0000 0.0000 0.0000 32.2707 0.0000 0.0000
# 5 0.0000 0.0000 0.0000 0.0000 2.9361 0.0000
# 6 0.0000 0.0000 0.0000 0.0000 0.0000 10.7657
#
#
#
# Elastic Compliance Matrix: (Units=1/GPa)
#
#
# Indices 1 2 3 4 5 6 
#
# 1 0.008280 -0.001087 -0.005127 0.000000 0.000000 0.000000
# 2 -0.001087 0.012925 -0.000611 0.000000 0.000000 0.000000
# 3 -0.005127 -0.000611 0.009964 0.000000 0.000000 0.000000
# 4 0.000000 0.000000 0.000000 0.030988 0.000000 0.000000
# 5 0.000000 0.000000 0.000000 0.000000 0.340583 0.000000
# 6 0.000000 0.000000 0.000000 0.000000 0.000000 0.092887
#
#
# Mechanical properties :
#
#
# Convention : Reuss Voigt Hill
#
# Bulk Modulus (GPa) = 57.08233 74.64088 65.86160
# Shear Modulus (GPa) = 9.70650 28.00835 18.85742
#
# Velocity S-wave (km/s) = 2.14509 3.64383 2.98989
# Velocity P-wave (km/s) = 5.76154 7.28609 6.56820
#
# Compressibility (1/GPa) = 0.01751856
#
# Stress axis : x y z
#
# Youngs Moduli (GPa) = 120.76816 77.36645 100.36098
#
# Poissons Ratio (x) = 0.08412 0.51458
# Poissons Ratio (y) = 0.13131 0.06133
# Poissons Ratio (z) = 0.61921 0.04728
#
# Static dielectric constant tensor:
#      x y z
#    x 1.764390 0.000000 0.000000 
#    y 0.000000 1.777680 0.000000 
#    z 0.000000 0.000000 1.726820 
# 
# From -- ./inp_files/15970.got.cif
#   From: 2010.05.17/outbox.cif.g08.bks.cpg/sg63_8_cif.got.tgz:15970.got - 2010.06.03 15:47:04.
