data_PCOD9472641
_publ_section_title
;
Structure prediction by ZEFSAII (Michael W. Deem and Ramdas Pophale) SiO2 
 PCOD9472641
Probable space group: C M C M
;
_chemical_formula_sum "Si O2"
_cell_formula_units_Z 80
_cell_length_a 26.573324
_cell_length_b 10.865266
_cell_length_c 14.933262
_cell_angle_alpha 90.000000
_cell_angle_beta 90.000000
_cell_angle_gamma 90.000000
_cell_volume 4311.624495
_symmetry_space_group_name_H-M "C M C M"
_symmetry_group_IT_number 63
_symmetry_cell_setting 'orthorhombic'
loop_
_space_group_symop_operation_xyz
x,y,z
-x,-y,1/2+z
x,-y,-z
-x,y,1/2-z
-x,-y,-z
x,y,1/2-z
-x,y,z
x,-y,1/2+z
1/2+x,1/2+y,z
1/2-x,1/2-y,1/2+z
1/2+x,1/2-y,-z
1/2-x,1/2+y,1/2-z
1/2-x,1/2-y,-z
1/2+x,1/2+y,1/2-z
1/2-x,1/2+y,z
1/2+x,1/2-y,1/2+z
loop_
_atom_site_type_symbol
_atom_site_label
_atom_site_fract_x
_atom_site_fract_y
_atom_site_fract_z
Si Si1 0.122639 0.362555 0.495875
Si Si2 0.650807 0.534703 0.147190
Si Si3 0.798152 0.274541 0.357340
Si Si4 0.057990 0.127452 0.057865
Si Si5 0.820069 0.227170 0.856778
O O1 0.100898 0.500000 0.500000
O O2 0.162827 0.354681 0.414046
O O3 0.081977 0.252046 0.484276
O O4 0.155328 0.333405 0.584499
O O5 0.665025 0.517774 0.250000
O O6 0.689286 0.635243 0.110753
O O7 0.596028 0.593487 0.137641
O O8 0.653897 0.398812 0.109128
O O9 0.807554 0.284659 0.250000
O O10 0.739228 0.293724 0.371935
O O11 0.000000 0.148787 0.081530
O O12 0.059472 0.000000 0.000000
O O13 0.827630 0.247590 0.750000
#
# Coordination Sequence:
#
# PCOD9472641 Si02
#       5
#    16  16  16  16  16
#     4  11  23  36  55  85 114 147 189 230 280 336
#     4   9  18  34  56  82 107 140 190 236 273 326
#     4   9  20  35  54  79 113 153 190 226 271 330
#     4  10  20  38  60  78 105 142 186 236 284 327
#     4  10  20  35  54  79 115 153 186 227 277 331
#
# _framework density 18.554490999999999
#
# number of rings (size 3 to 8) (size 9 to 14) (size 15 to 20)
#    0.000    2.200    2.000    0.600    2.800    1.600 
#    0.000    0.000    0.000    0.600    0.000    2.800 
#    0.000    0.000    0.000    0.000    0.000    0.000 
#
# Total GULP energy -222736.112717 kJ/mol
# GULP energy per Si atom -5568.402818 kJ/mol
# Density = 1.851226 g / cm^3
# Si number density = 18.554491 Si / 1000 Ang^3
#
#
#
# Elastic Constant Matrix: (Units=GPa)
#
#
# Indices 1 2 3 4 5 6 
#
# 1 104.9438 36.0927 18.8268 0.0000 0.0000 0.0000
# 2 36.0927 125.1592 21.7348 0.0000 0.0000 0.0000
# 3 18.8268 21.7348 42.9642 0.0000 0.0000 0.0000
# 4 0.0000 0.0000 0.0000 4.7611 0.0000 0.0000
# 5 0.0000 0.0000 0.0000 0.0000 17.0617 0.0000
# 6 0.0000 0.0000 0.0000 0.0000 0.0000 17.8340
#
#
#
# Elastic Compliance Matrix: (Units=1/GPa)
#
#
# Indices 1 2 3 4 5 6 
#
# 1 0.011048 -0.002571 -0.003541 0.000000 0.000000 0.000000
# 2 -0.002571 0.009358 -0.003607 0.000000 0.000000 0.000000
# 3 -0.003541 -0.003607 0.026651 0.000000 0.000000 0.000000
# 4 0.000000 0.000000 0.000000 0.210037 0.000000 0.000000
# 5 0.000000 0.000000 0.000000 0.000000 0.058611 0.000000
# 6 0.000000 0.000000 0.000000 0.000000 0.000000 0.056073
#
#
# Mechanical properties :
#
#
# Convention : Reuss Voigt Hill
#
# Bulk Modulus (GPa) = 36.20631 47.37509 41.79070
# Shear Modulus (GPa) = 12.48680 21.02555 16.75617
#
# Velocity S-wave (km/s) = 2.59700 3.36992 3.00839
# Velocity P-wave (km/s) = 5.34307 6.38202 5.88552
#
# Compressibility (1/GPa) = 0.02761950
#
# Stress axis : x y z
#
# Youngs Moduli (GPa) = 90.51088 106.86376 37.52135
#
# Poissons Ratio (x) = 0.27477 0.13285
# Poissons Ratio (y) = 0.23272 0.13535
# Poissons Ratio (z) = 0.32047 0.38548
#
# Static dielectric constant tensor:
#      x y z
#    x 1.608270 0.000000 0.000000 
#    y 0.000000 1.698380 0.000000 
#    z 0.000000 0.000000 1.660710 
# 
# From -- ./inp_files/36480.got.cif
#   From: 2010.05.17/outbox.cif.g08.bks.cpg/sg63_19_cif.got.tgz:36480.got - 2010.06.03 15:47:04.
