data_PCOD9472428
_publ_section_title
;
Structure prediction by ZEFSAII (Michael W. Deem and Ramdas Pophale) SiO2 
 PCOD9472428
Probable space group: C M C M
;
_chemical_formula_sum "Si O2"
_cell_formula_units_Z 72
_cell_length_a 19.746432
_cell_length_b 16.660783
_cell_length_c 9.927375
_cell_angle_alpha 90.000000
_cell_angle_beta 90.000000
_cell_angle_gamma 90.000000
_cell_volume 3266.017213
_symmetry_space_group_name_H-M "C M C M"
_symmetry_group_IT_number 63
_symmetry_cell_setting 'orthorhombic'
loop_
_space_group_symop_operation_xyz
x,y,z
-x,-y,1/2+z
x,-y,-z
-x,y,1/2-z
-x,-y,-z
x,y,1/2-z
-x,y,z
x,-y,1/2+z
1/2+x,1/2+y,z
1/2-x,1/2-y,1/2+z
1/2+x,1/2-y,-z
1/2-x,1/2+y,1/2-z
1/2-x,1/2-y,-z
1/2+x,1/2+y,1/2-z
1/2-x,1/2+y,z
1/2+x,1/2-y,1/2+z
loop_
_atom_site_type_symbol
_atom_site_label
_atom_site_fract_x
_atom_site_fract_y
_atom_site_fract_z
Si Si1 0.646606 0.444490 0.250000
Si Si2 0.794769 0.411846 0.250000
Si Si3 0.000000 0.948640 0.250000
Si Si4 0.853287 0.820445 0.495991
Si Si5 0.129964 0.557399 0.250000
Si Si6 0.209726 0.345376 0.955168
Si Si7 0.000000 0.809616 0.476227
Si Si8 0.000000 0.670750 0.250000
O O1 0.726300 0.468371 0.250000
O O2 0.574195 0.492017 0.250000
O O3 0.642376 0.388668 0.117776
O O4 0.864337 0.462001 0.250000
O O5 0.791508 0.359834 0.384818
O O6 0.000000 0.888096 0.121648
O O7 0.829687 0.737072 0.427019
O O8 0.788375 0.840847 0.586281
O O9 0.928550 0.810348 0.553228
O O10 0.171393 0.584576 0.119079
O O11 0.062859 0.609905 0.250000
O O12 0.000000 0.731596 0.377508
#
# Coordination Sequence:
#
# PCOD9472428 Si02
#       8
#     8   8   4  16   8  16   8   4
#     4   8  14  28  48  80 105 131 170 227 274 321
#     4  10  22  36  50  73 111 149 187 225 260 309
#     4   7  12  20  48  76 104 122 163 222 274 306
#     4   9  16  28  53  81 106 131 168 230 287 317
#     4  12  22  38  56  75 105 149 189 222 253 313
#     4  10  20  34  55  79 107 138 185 226 273 318
#     4   9  14  28  49  83 110 129 164 227 275 325
#     4  11  20  32  56  80 104 140 197 220 250 310
#
# _framework density 22.045200000000001
#
# number of rings (size 3 to 8) (size 9 to 14) (size 15 to 20)
#    0.000    2.444    2.222    2.000    0.000    2.667 
#    0.000    3.333    0.000    3.333    0.000    7.778 
#    0.000    0.000    0.000    0.000    0.000    0.000 
#
# Total GULP energy -200523.622517 kJ/mol
# GULP energy per Si atom -5570.100625 kJ/mol
# Density = 2.199502 g / cm^3
# Si number density = 22.045200 Si / 1000 Ang^3
#
#
#
# Elastic Constant Matrix: (Units=GPa)
#
#
# Indices 1 2 3 4 5 6 
#
# 1 158.5416 4.2652 15.7557 0.0000 0.0000 0.0000
# 2 4.2652 28.2336 2.1980 0.0000 0.0000 0.0000
# 3 15.7557 2.1980 62.2484 0.0000 0.0000 0.0000
# 4 0.0000 0.0000 0.0000 3.5465 0.0000 0.0000
# 5 0.0000 0.0000 0.0000 0.0000 7.0294 0.0000
# 6 0.0000 0.0000 0.0000 0.0000 0.0000 25.4512
#
#
#
# Elastic Compliance Matrix: (Units=1/GPa)
#
#
# Indices 1 2 3 4 5 6 
#
# 1 0.006491 -0.000855 -0.001613 0.000000 0.000000 0.000000
# 2 -0.000855 0.035629 -0.001042 0.000000 0.000000 0.000000
# 3 -0.001613 -0.001042 0.016510 0.000000 0.000000 0.000000
# 4 0.000000 0.000000 0.000000 0.281967 0.000000 0.000000
# 5 0.000000 0.000000 0.000000 0.000000 0.142259 0.000000
# 6 0.000000 0.000000 0.000000 0.000000 0.000000 0.039291
#
#
# Mechanical properties :
#
#
# Convention : Reuss Voigt Hill
#
# Bulk Modulus (GPa) = 19.37579 32.60680 25.99130
# Shear Modulus (GPa) = 9.15134 22.32575 15.73854
#
# Velocity S-wave (km/s) = 2.03965 3.18579 2.67483
# Velocity P-wave (km/s) = 3.78881 5.32497 4.62117
#
# Compressibility (1/GPa) = 0.05161079
#
# Stress axis : x y z
#
# Youngs Moduli (GPa) = 154.06508 28.06698 60.57065
#
# Poissons Ratio (x) = 0.02400 0.09768
# Poissons Ratio (y) = 0.13172 0.06309
# Poissons Ratio (z) = 0.24846 0.02924
#
# Static dielectric constant tensor:
#      x y z
#    x 1.904080 0.000000 0.000000 
#    y 0.000000 1.794270 0.000000 
#    z 0.000000 0.000000 1.767330 
# 
# From -- ./inp_files/20880.got.cif
#   From: 2010.05.17/outbox.cif.g08.bks.cpg/sg63_11_cif.got.tgz:20880.got - 2010.06.03 15:47:04.
