data_PCOD9472363
_publ_section_title
;
Structure prediction by ZEFSAII (Michael W. Deem and Ramdas Pophale) SiO2 
 PCOD9472363
Probable space group: C M C M
;
_chemical_formula_sum "Si O2"
_cell_formula_units_Z 80
_cell_length_a 15.311439
_cell_length_b 26.799651
_cell_length_c 9.310057
_cell_angle_alpha 90.000000
_cell_angle_beta 90.000000
_cell_angle_gamma 90.000000
_cell_volume 3820.300162
_symmetry_space_group_name_H-M "C M C M"
_symmetry_group_IT_number 63
_symmetry_cell_setting 'orthorhombic'
loop_
_space_group_symop_operation_xyz
x,y,z
-x,-y,1/2+z
x,-y,-z
-x,y,1/2-z
-x,-y,-z
x,y,1/2-z
-x,y,z
x,-y,1/2+z
1/2+x,1/2+y,z
1/2-x,1/2-y,1/2+z
1/2+x,1/2-y,-z
1/2-x,1/2+y,1/2-z
1/2-x,1/2-y,-z
1/2+x,1/2+y,1/2-z
1/2-x,1/2+y,z
1/2+x,1/2-y,1/2+z
loop_
_atom_site_type_symbol
_atom_site_label
_atom_site_fract_x
_atom_site_fract_y
_atom_site_fract_z
Si Si1 0.354571 0.855476 0.088319
Si Si2 0.104414 0.952268 0.586982
Si Si3 0.856465 0.851745 0.084857
Si Si4 0.104685 0.452916 0.589561
Si Si5 0.155455 0.245751 0.076673
O O1 0.384049 0.867842 0.250000
O O2 0.249292 0.851295 0.090089
O O3 0.387834 0.799877 0.051166
O O4 0.378168 0.900093 0.984178
O O5 0.138735 0.949093 0.750000
O O6 0.119385 0.901887 0.498434
O O7 0.000000 0.958753 0.597638
O O8 0.139532 0.000000 0.500000
O O9 0.887498 0.851284 0.250000
O O10 0.886185 0.802865 0.996420
O O11 0.138929 0.500000 0.500000
O O12 0.140478 0.453717 0.750000
O O13 0.000000 0.458490 0.597194
O O14 0.163997 0.239775 0.250000
O O15 0.250000 0.250000 0.000000
#
# Coordination Sequence:
#
# PCOD9472363 Si02
#       5
#    16  16  16  16  16
#     4   9  19  34  53  78 105 134 169 209 253 302
#     4  10  21  37  56  77 103 137 175 214 260 312
#     4  10  20  34  54  80 107 136 173 214 257 306
#     4  10  21  36  54  75 100 133 171 210 255 305
#     4   9  17  31  51  76 106 138 171 209 257 308
#
# _framework density 20.940763
#
# number of rings (size 3 to 8) (size 9 to 14) (size 15 to 20)
#    0.000    2.400    0.000    3.600    0.000    8.000 
#    0.000    1.000    0.000    1.200    0.000    0.000 
#    0.000    0.000    0.000    0.000    0.000    0.000 
#
# Total GULP energy -223253.460277 kJ/mol
# GULP energy per Si atom -5581.336507 kJ/mol
# Density = 2.089310 g / cm^3
# Si number density = 20.940763 Si / 1000 Ang^3
#
#
#
# Elastic Constant Matrix: (Units=GPa)
#
#
# Indices 1 2 3 4 5 6 
#
# 1 36.3560 1.5680 7.9875 0.0000 0.0000 0.0000
# 2 1.5680 225.2374 153.6900 0.0000 0.0000 0.0000
# 3 7.9875 153.6900 214.5024 0.0000 0.0000 0.0000
# 4 0.0000 0.0000 0.0000 45.8329 0.0000 0.0000
# 5 0.0000 0.0000 0.0000 0.0000 17.3613 0.0000
# 6 0.0000 0.0000 0.0000 0.0000 0.0000 30.0583
#
#
#
# Elastic Compliance Matrix: (Units=1/GPa)
#
#
# Indices 1 2 3 4 5 6 
#
# 1 0.027849 0.001005 -0.001757 0.000000 0.000000 0.000000
# 2 0.001005 0.008723 -0.006287 0.000000 0.000000 0.000000
# 3 -0.001757 -0.006287 0.009232 0.000000 0.000000 0.000000
# 4 0.000000 0.000000 0.000000 0.021818 0.000000 0.000000
# 5 0.000000 0.000000 0.000000 0.000000 0.057599 0.000000
# 6 0.000000 0.000000 0.000000 0.000000 0.000000 0.033269
#
#
# Mechanical properties :
#
#
# Convention : Reuss Voigt Hill
#
# Bulk Modulus (GPa) = 31.52101 89.17630 60.34866
# Shear Modulus (GPa) = 27.30093 39.50719 33.40406
#
# Velocity S-wave (km/s) = 3.61463 4.34823 3.99829
# Velocity P-wave (km/s) = 5.70139 8.23936 7.08494
#
# Compressibility (1/GPa) = 0.03172487
#
# Stress axis : x y z
#
# Youngs Moduli (GPa) = 35.90857 114.64041 108.31593
#
# Poissons Ratio (x) = -0.11523 0.19033
# Poissons Ratio (y) = -0.03609 0.68102
# Poissons Ratio (z) = 0.06310 0.72079
#
# Static dielectric constant tensor:
#      x y z
#    x 1.794910 0.000000 0.000000 
#    y 0.000000 1.743140 0.000000 
#    z 0.000000 0.000000 1.732780 
# 
# From -- ./inp_files/6406.got.cif
#   From: 2010.05.17/outbox.cif.g08.bks.cpg/sg63_4_cif.got.tgz:6406.got - 2010.06.03 15:47:04.
