data_PCOD9472209
_publ_section_title
;
Structure prediction by ZEFSAII (Michael W. Deem and Ramdas Pophale) SiO2 
 PCOD9472209
Probable space group: C M C M
;
_chemical_formula_sum "Si O2"
_cell_formula_units_Z 96
_cell_length_a 8.393267
_cell_length_b 24.092818
_cell_length_c 26.719018
_cell_angle_alpha 90.000000
_cell_angle_beta 90.000000
_cell_angle_gamma 90.000000
_cell_volume 5403.051800
_symmetry_space_group_name_H-M "C M C M"
_symmetry_group_IT_number 63
_symmetry_cell_setting 'orthorhombic'
loop_
_space_group_symop_operation_xyz
x,y,z
-x,-y,1/2+z
x,-y,-z
-x,y,1/2-z
-x,-y,-z
x,y,1/2-z
-x,y,z
x,-y,1/2+z
1/2+x,1/2+y,z
1/2-x,1/2-y,1/2+z
1/2+x,1/2-y,-z
1/2-x,1/2+y,1/2-z
1/2-x,1/2-y,-z
1/2+x,1/2+y,1/2-z
1/2-x,1/2+y,z
1/2+x,1/2-y,1/2+z
loop_
_atom_site_type_symbol
_atom_site_label
_atom_site_fract_x
_atom_site_fract_y
_atom_site_fract_z
Si Si1 0.186422 0.332766 0.103377
Si Si2 0.191374 0.728301 0.445854
Si Si3 0.685503 0.997524 0.628786
Si Si4 0.188657 0.904847 0.307716
Si Si5 0.815975 0.930213 0.041516
Si Si6 0.307182 0.900054 0.564897
O O1 0.237745 0.269631 0.095613
O O2 0.223170 0.360625 0.156757
O O3 0.287464 0.368739 0.063668
O O4 0.000000 0.339095 0.091595
O O5 0.250000 0.750000 0.500000
O O6 0.238840 0.664496 0.436200
O O7 0.000000 0.730909 0.445205
O O8 0.500000 0.996884 0.642587
O O9 0.777194 0.034162 0.669433
O O10 0.708297 0.031699 0.577021
O O11 0.738842 0.935641 0.613841
O O12 0.237685 0.901681 0.250000
O O13 0.000000 0.894309 0.311391
O O14 0.000000 0.946214 0.047643
O O15 0.766995 0.928556 0.984102
O O16 0.500000 0.903159 0.560792
#
# Coordination Sequence:
#
# PCOD9472209 Si02
#       6
#    16  16  16  16  16  16
#     4  11  21  34  53  78 108 140 178 222 265 313
#     4  11  21  34  52  75 107 147 187 221 260 310
#     4  10  20  34  52  75 104 137 173 214 261 315
#     4  10  21  38  60  83 105 131 168 220 276 323
#     4  11  20  30  48  73 104 141 178 217 257 306
#     4  10  21  34  49  71 105 145 180 213 255 309
#
# _framework density 17.767738000000001
#
# number of rings (size 3 to 8) (size 9 to 14) (size 15 to 20)
#    0.000    1.500    1.667    7.000    0.000    5.333 
#    0.000    0.000    0.000    1.000    0.000    2.333 
#    0.000    0.000    0.000    0.000    0.000    0.000 
#
# Total GULP energy -267997.419234 kJ/mol
# GULP energy per Si atom -5583.279567 kJ/mol
# Density = 1.772730 g / cm^3
# Si number density = 17.767738 Si / 1000 Ang^3
#
#
#
# Elastic Constant Matrix: (Units=GPa)
#
#
# Indices 1 2 3 4 5 6 
#
# 1 36.0023 3.4680 9.7365 0.0000 0.0000 0.0000
# 2 3.4680 79.6123 22.5901 0.0000 0.0000 0.0000
# 3 9.7365 22.5901 77.7425 0.0000 0.0000 0.0000
# 4 0.0000 0.0000 0.0000 13.8323 0.0000 0.0000
# 5 0.0000 0.0000 0.0000 0.0000 22.5083 0.0000
# 6 0.0000 0.0000 0.0000 0.0000 0.0000 23.1008
#
#
#
# Elastic Compliance Matrix: (Units=1/GPa)
#
#
# Indices 1 2 3 4 5 6 
#
# 1 0.028754 -0.000251 -0.003528 0.000000 0.000000 0.000000
# 2 -0.000251 0.013692 -0.003947 0.000000 0.000000 0.000000
# 3 -0.003528 -0.003947 0.014452 0.000000 0.000000 0.000000
# 4 0.000000 0.000000 0.000000 0.072295 0.000000 0.000000
# 5 0.000000 0.000000 0.000000 0.000000 0.044428 0.000000
# 6 0.000000 0.000000 0.000000 0.000000 0.000000 0.043288
#
#
# Mechanical properties :
#
#
# Convention : Reuss Voigt Hill
#
# Bulk Modulus (GPa) = 24.12855 29.43848 26.78352
# Shear Modulus (GPa) = 20.31057 22.39245 21.35151
#
# Velocity S-wave (km/s) = 3.38467 3.55390 3.47032
# Velocity P-wave (km/s) = 5.37439 5.78315 5.58251
#
# Compressibility (1/GPa) = 0.04144468
#
# Stress axis : x y z
#
# Youngs Moduli (GPa) = 34.77732 73.03641 69.19582
#
# Poissons Ratio (x) = 0.01837 0.24413
# Poissons Ratio (y) = 0.00875 0.27312
# Poissons Ratio (z) = 0.12270 0.28828
#
# Static dielectric constant tensor:
#      x y z
#    x 1.604580 0.000000 0.000000 
#    y 0.000000 1.653540 0.000000 
#    z 0.000000 0.000000 1.586620 
# 
# From -- ./inp_files/67247.got.cif
#   From: 2010.05.17/outbox.cif.g08.bks.cpg/sg63_34_cif.got.tgz:67247.got - 2010.06.03 15:47:04.
