data_PCOD9472796
_publ_section_title
;
Structure prediction by ZEFSAII (Michael W. Deem and Ramdas Pophale) SiO2 
 PCOD9472796
Probable space group: C M C M
;
_chemical_formula_sum "Si O2"
_cell_formula_units_Z 112
_cell_length_a 30.062340
_cell_length_b 11.813316
_cell_length_c 15.040457
_cell_angle_alpha 90.000000
_cell_angle_beta 90.000000
_cell_angle_gamma 90.000000
_cell_volume 5341.406566
_symmetry_space_group_name_H-M "C M C M"
_symmetry_group_IT_number 63
_symmetry_cell_setting 'orthorhombic'
loop_
_space_group_symop_operation_xyz
x,y,z
-x,-y,1/2+z
x,-y,-z
-x,y,1/2-z
-x,-y,-z
x,y,1/2-z
-x,y,z
x,-y,1/2+z
1/2+x,1/2+y,z
1/2-x,1/2-y,1/2+z
1/2+x,1/2-y,-z
1/2-x,1/2+y,1/2-z
1/2-x,1/2-y,-z
1/2+x,1/2+y,1/2-z
1/2-x,1/2+y,z
1/2+x,1/2-y,1/2+z
loop_
_atom_site_type_symbol
_atom_site_label
_atom_site_fract_x
_atom_site_fract_y
_atom_site_fract_z
Si Si1 0.050641 0.453601 0.599625
Si Si2 0.296501 0.382085 0.849668
Si Si3 0.330984 0.237210 0.499700
Si Si4 0.872038 0.947567 0.407021
Si Si5 0.801611 0.439108 0.850721
Si Si6 0.875182 0.626109 0.653029
Si Si7 0.449930 0.294878 0.147004
O O1 0.049515 0.500000 0.500000
O O2 0.085464 0.534569 0.647731
O O3 0.064751 0.322242 0.600987
O O4 0.000000 0.458337 0.635328
O O5 0.295931 0.333160 0.750000
O O6 0.296835 0.288216 0.927230
O O7 0.339959 0.461018 0.861019
O O8 0.251286 0.453775 0.858893
O O9 0.342440 0.340024 0.434540
O O10 0.316987 0.136403 0.434343
O O11 0.371828 0.203899 0.565934
O O12 0.915154 0.896242 0.360798
O O13 0.887425 0.000000 0.500000
O O14 0.809887 0.389887 0.750000
O O15 0.829752 0.553619 0.852702
O O16 0.878109 0.683182 0.750000
O O17 0.452257 0.263618 0.250000
O O18 0.500000 0.324115 0.116071
#
# Coordination Sequence:
#
# PCOD9472796 Si02
#       7
#    16  16  16  16  16  16  16
#     4  10  20  35  57  85 116 147 181 227 282 339
#     4  10  22  40  58  81 113 147 187 233 280 332
#     4  11  22  37  57  82 113 149 188 230 276 332
#     4  10  22  37  56  81 109 146 187 230 281 329
#     4  10  22  37  57  85 114 147 186 228 278 335
#     4  11  22  36  56  82 114 151 186 226 279 336
#     4  10  20  35  57  83 108 139 182 229 276 327
#
# _framework density 20.968260000000001
#
# number of rings (size 3 to 8) (size 9 to 14) (size 15 to 20)
#    0.000    1.714    0.000    4.714    0.000    8.000 
#    0.000    2.857    0.000    0.857    0.000    0.000 
#    0.000    0.000    0.000    0.000    0.000    0.000 
#
# Total GULP energy -312443.102292 kJ/mol
# GULP energy per Si atom -5579.341112 kJ/mol
# Density = 2.092054 g / cm^3
# Si number density = 20.968260 Si / 1000 Ang^3
#
#
#
# Elastic Constant Matrix: (Units=GPa)
#
#
# Indices 1 2 3 4 5 6 
#
# 1 60.3654 6.7945 13.1557 0.0000 0.0000 0.0000
# 2 6.7945 39.6542 8.3694 0.0000 0.0000 0.0000
# 3 13.1557 8.3694 99.0795 0.0000 0.0000 0.0000
# 4 0.0000 0.0000 0.0000 30.0069 0.0000 0.0000
# 5 0.0000 0.0000 0.0000 0.0000 62.6497 0.0000
# 6 0.0000 0.0000 0.0000 0.0000 0.0000 23.5138
#
#
#
# Elastic Compliance Matrix: (Units=1/GPa)
#
#
# Indices 1 2 3 4 5 6 
#
# 1 0.017304 -0.002525 -0.002084 0.000000 0.000000 0.000000
# 2 -0.002525 0.026044 -0.001865 0.000000 0.000000 0.000000
# 3 -0.002084 -0.001865 0.010527 0.000000 0.000000 0.000000
# 4 0.000000 0.000000 0.000000 0.033326 0.000000 0.000000
# 5 0.000000 0.000000 0.000000 0.000000 0.015962 0.000000
# 6 0.000000 0.000000 0.000000 0.000000 0.000000 0.042528
#
#
# Mechanical properties :
#
#
# Convention : Reuss Voigt Hill
#
# Bulk Modulus (GPa) = 24.43350 28.41536 26.42443
# Shear Modulus (GPa) = 29.02219 34.61938 31.82078
#
# Velocity S-wave (km/s) = 3.72439 4.06770 3.89983
# Velocity P-wave (km/s) = 5.49296 5.97015 5.73652
#
# Compressibility (1/GPa) = 0.04092741
#
# Stress axis : x y z
#
# Youngs Moduli (GPa) = 57.78926 38.39625 94.99216
#
# Poissons Ratio (x) = 0.09695 0.19800
# Poissons Ratio (y) = 0.14592 0.17713
# Poissons Ratio (z) = 0.12045 0.07160
#
# Static dielectric constant tensor:
#      x y z
#    x 1.784370 0.000000 0.000000 
#    y 0.000000 1.771350 0.000000 
#    z 0.000000 0.000000 1.792500 
# 
# From -- ./inp_files/38531.got.cif
#   From: 2010.05.17/outbox.cif.g08.bks.cpg/sg63_20_cif.got.tgz:38531.got - 2010.06.03 15:47:04.
