data_PCOD9472677
_publ_section_title
;
Structure prediction by ZEFSAII (Michael W. Deem and Ramdas Pophale) SiO2 
 PCOD9472677
Probable space group: C M C M
;
_chemical_formula_sum "Si O2"
_cell_formula_units_Z 96
_cell_length_a 8.630050
_cell_length_b 20.801026
_cell_length_c 30.471306
_cell_angle_alpha 90.000000
_cell_angle_beta 90.000000
_cell_angle_gamma 90.000000
_cell_volume 5470.022808
_symmetry_space_group_name_H-M "C M C M"
_symmetry_group_IT_number 63
_symmetry_cell_setting 'orthorhombic'
loop_
_space_group_symop_operation_xyz
x,y,z
-x,-y,1/2+z
x,-y,-z
-x,y,1/2-z
-x,-y,-z
x,y,1/2-z
-x,y,z
x,-y,1/2+z
1/2+x,1/2+y,z
1/2-x,1/2-y,1/2+z
1/2+x,1/2-y,-z
1/2-x,1/2+y,1/2-z
1/2-x,1/2-y,-z
1/2+x,1/2+y,1/2-z
1/2-x,1/2+y,z
1/2+x,1/2-y,1/2+z
loop_
_atom_site_type_symbol
_atom_site_label
_atom_site_fract_x
_atom_site_fract_y
_atom_site_fract_z
Si Si1 0.814637 0.197346 0.801066
Si Si2 0.188323 0.446758 0.534013
Si Si3 0.812454 0.443035 0.634622
Si Si4 0.315595 0.697930 0.367730
Si Si5 0.186751 0.557248 0.699094
Si Si6 0.813896 0.699758 0.034950
O O1 0.768829 0.207588 0.750000
O O2 0.740906 0.249904 0.832748
O O3 0.760175 0.125533 0.813262
O O4 0.000000 0.201308 0.803771
O O5 0.245990 0.500000 0.500000
O O6 0.232515 0.459664 0.584488
O O7 0.234610 0.373548 0.523385
O O8 0.000000 0.448157 0.532677
O O9 0.743729 0.373220 0.644957
O O10 0.764516 0.498870 0.667910
O O11 0.000000 0.437741 0.635989
O O12 0.500000 0.698024 0.370432
O O13 0.246566 0.712637 0.415926
O O14 0.226264 0.544101 0.750000
O O15 0.000000 0.563116 0.696103
O O16 0.000000 0.701922 0.035438
O O17 0.750000 0.750000 0.000000
#
# Coordination Sequence:
#
# PCOD9472677 Si02
#       6
#    16  16  16  16  16  16
#     4  10  21  37  56  78 107 141 177 222 274 324
#     4   8  15  29  49  72  98 130 169 209 249 299
#     4   9  18  33  52  75 105 139 174 215 262 313
#     4  11  22  36  55  78 107 143 183 226 269 316
#     4   9  18  33  53  77 105 137 174 215 261 318
#     4  10  20  35  55  79 108 140 176 220 269 320
#
# _framework density 17.5502
#
# number of rings (size 3 to 8) (size 9 to 14) (size 15 to 20)
#    0.000    2.500    0.000    3.500    0.000    3.667 
#    0.000    5.000    0.000   12.500    0.000    0.000 
#    0.000    0.000    0.000    0.000    0.000    0.000 
#
# Total GULP energy -267804.352821 kJ/mol
# GULP energy per Si atom -5579.257350 kJ/mol
# Density = 1.751026 g / cm^3
# Si number density = 17.550200 Si / 1000 Ang^3
#
#
#
# Elastic Constant Matrix: (Units=GPa)
#
#
# Indices 1 2 3 4 5 6 
#
# 1 50.7359 53.5549 45.0817 0.0000 0.0000 0.0000
# 2 53.5549 175.8002 132.6235 0.0000 0.0000 0.0000
# 3 45.0817 132.6235 119.4837 0.0000 0.0000 0.0000
# 4 0.0000 0.0000 0.0000 44.7683 0.0000 0.0000
# 5 0.0000 0.0000 0.0000 0.0000 20.9826 0.0000
# 6 0.0000 0.0000 0.0000 0.0000 0.0000 30.6426
#
#
#
# Elastic Compliance Matrix: (Units=1/GPa)
#
#
# Indices 1 2 3 4 5 6 
#
# 1 0.030035 -0.003693 -0.007233 0.000000 0.000000 0.000000
# 2 -0.003693 0.035429 -0.037932 0.000000 0.000000 0.000000
# 3 -0.007233 -0.037932 0.053202 0.000000 0.000000 0.000000
# 4 0.000000 0.000000 0.000000 0.022337 0.000000 0.000000
# 5 0.000000 0.000000 0.000000 0.000000 0.047659 0.000000
# 6 0.000000 0.000000 0.000000 0.000000 0.000000 0.032634
#
#
# Mechanical properties :
#
#
# Convention : Reuss Voigt Hill
#
# Bulk Modulus (GPa) = 47.73317 89.83778 68.78547
# Shear Modulus (GPa) = 15.33765 26.92937 21.13351
#
# Velocity S-wave (km/s) = 2.95944 3.92142 3.47389
# Velocity P-wave (km/s) = 6.23978 8.47369 7.44105
#
# Compressibility (1/GPa) = 0.02094979
#
# Stress axis : x y z
#
# Youngs Moduli (GPa) = 33.29415 28.22553 18.79644
#
# Poissons Ratio (x) = 0.10424 0.13596
# Poissons Ratio (y) = 0.12296 0.71298
# Poissons Ratio (z) = 0.24083 1.07064
#
# Static dielectric constant tensor:
#      x y z
#    x 1.594690 0.000000 0.000000 
#    y 0.000000 1.574420 0.000000 
#    z 0.000000 0.000000 1.582280 
# 
# From -- ./inp_files/67005.got.cif
#   From: 2010.05.17/outbox.cif.g08.bks.cpg/sg63_34_cif.got.tgz:67005.got - 2010.06.03 15:47:04.
