data_PCOD9472468
_publ_section_title
;
Structure prediction by ZEFSAII (Michael W. Deem and Ramdas Pophale) SiO2 
 PCOD9472468
Probable space group: C M C M
;
_chemical_formula_sum "Si O2"
_cell_formula_units_Z 104
_cell_length_a 21.500131
_cell_length_b 28.439297
_cell_length_c 9.014788
_cell_angle_alpha 90.000000
_cell_angle_beta 90.000000
_cell_angle_gamma 90.000000
_cell_volume 5512.079601
_symmetry_space_group_name_H-M "C M C M"
_symmetry_group_IT_number 63
_symmetry_cell_setting 'orthorhombic'
loop_
_space_group_symop_operation_xyz
x,y,z
-x,-y,1/2+z
x,-y,-z
-x,y,1/2-z
-x,-y,-z
x,y,1/2-z
-x,y,z
x,-y,1/2+z
1/2+x,1/2+y,z
1/2-x,1/2-y,1/2+z
1/2+x,1/2-y,-z
1/2-x,1/2+y,1/2-z
1/2-x,1/2-y,-z
1/2+x,1/2+y,1/2-z
1/2-x,1/2+y,z
1/2+x,1/2-y,1/2+z
loop_
_atom_site_type_symbol
_atom_site_label
_atom_site_fract_x
_atom_site_fract_y
_atom_site_fract_z
Si Si1 0.841821 0.299244 0.076433
Si Si2 0.327273 0.949980 0.925825
Si Si3 0.572175 0.108561 0.576206
Si Si4 0.903958 0.121748 0.927177
Si Si5 0.932085 0.228767 0.927976
Si Si6 0.257439 0.629293 0.571852
Si Si7 0.500000 0.551712 0.427641
O O1 0.837701 0.287233 0.250000
O O2 0.889867 0.342947 0.059030
O O3 0.775565 0.321314 0.027975
O O4 0.873466 0.256564 0.991403
O O5 0.323150 0.953093 0.750000
O O6 0.394189 0.930177 0.976824
O O7 0.278657 0.912109 0.989347
O O8 0.315779 0.000000 0.000000
O O9 0.577741 0.095092 0.750000
O O10 0.500000 0.114805 0.540565
O O11 0.913551 0.114348 0.750000
O O12 0.928751 0.173660 0.965084
O O13 0.830311 0.124377 0.955657
O O14 0.940633 0.081710 0.015045
O O15 0.930052 0.232429 0.750000
O O16 0.000000 0.247275 0.979173
O O17 0.246943 0.624988 0.750000
O O18 0.500000 0.500000 0.500000
O O19 0.500000 0.548258 0.250000
#
# Coordination Sequence:
#
# PCOD9472468 Si02
#       7
#    16  16  16  16  16  16   8
#     4   9  18  33  53  82 116 153 195 235 282 338
#     4  11  22  36  55  78 108 143 184 236 289 347
#     4   9  18  34  54  76 108 149 192 239 286 336
#     4  10  21  42  66  87 117 155 193 237 291 346
#     4  10  20  34  55  84 119 157 196 238 286 339
#     4   9  20  39  61  82 111 152 195 241 290 345
#     4  12  26  44  68  96 124 154 192 242 299 362
#
# _framework density 18.867650999999999
#
# number of rings (size 3 to 8) (size 9 to 14) (size 15 to 20)
#    0.000    2.154    0.769    3.462    0.000    6.462 
#    0.000    0.000    0.000    0.000    0.000    0.000 
#    0.000    0.000    0.000    0.000    0.000    0.000 
#
# Total GULP energy -290248.722898 kJ/mol
# GULP energy per Si atom -5581.706210 kJ/mol
# Density = 1.882471 g / cm^3
# Si number density = 18.867651 Si / 1000 Ang^3
#
#
#
# Elastic Constant Matrix: (Units=GPa)
#
#
# Indices 1 2 3 4 5 6 
#
# 1 130.0575 47.9074 53.7380 0.0000 0.0000 0.0000
# 2 47.9074 105.8952 55.2152 0.0000 0.0000 0.0000
# 3 53.7380 55.2152 66.6982 0.0000 0.0000 0.0000
# 4 0.0000 0.0000 0.0000 30.5514 0.0000 0.0000
# 5 0.0000 0.0000 0.0000 0.0000 -12.7744 0.0000
# 6 0.0000 0.0000 0.0000 0.0000 0.0000 2.5010
#
#
#
# Elastic Compliance Matrix: (Units=1/GPa)
#
#
# Indices 1 2 3 4 5 6 
#
# 1 0.011552 -0.000657 -0.008764 0.000000 0.000000 0.000000
# 2 -0.000657 0.016652 -0.013256 0.000000 0.000000 0.000000
# 3 -0.008764 -0.013256 0.033028 0.000000 0.000000 0.000000
# 4 0.000000 0.000000 0.000000 0.032732 0.000000 0.000000
# 5 0.000000 0.000000 0.000000 0.000000 -0.078282 0.000000
# 6 0.000000 0.000000 0.000000 0.000000 0.000000 0.399847
#
#
# Mechanical properties :
#
#
# Convention : Reuss Voigt Hill
#
# Bulk Modulus (GPa) = 62.97735 68.48577 65.73156
# Shear Modulus (GPa) = 10.72557 13.77494 12.25025
#
# Velocity S-wave (km/s) = 2.38683 2.70494 2.55085
# Velocity P-wave (km/s) = 6.40679 6.79208 6.60224
#
# Compressibility (1/GPa) = 0.01587872
#
# Stress axis : x y z
#
# Youngs Moduli (GPa) = 86.56691 60.05117 30.27752
#
# Poissons Ratio (x) = 0.03943 0.26534
# Poissons Ratio (y) = 0.05684 0.40137
# Poissons Ratio (z) = 0.75863 0.79607
#
# Static dielectric constant tensor:
#      x y z
#    x 1.683340 0.000000 0.000000 
#    y 0.000000 1.636310 0.000000 
#    z 0.000000 0.000000 1.631860 
# 
# From -- ./inp_files/8784.got.cif
#   From: 2010.05.17/outbox.cif.g08.bks.cpg/sg63_5_cif.got.tgz:8784.got - 2010.06.03 15:47:04.
