data_PCOD9472122
_publ_section_title
;
Structure prediction by ZEFSAII (Michael W. Deem and Ramdas Pophale) SiO2 
 PCOD9472122
Probable space group: C M C M
;
_chemical_formula_sum "Si O2"
_cell_formula_units_Z 112
_cell_length_a 13.995027
_cell_length_b 28.527846
_cell_length_c 14.472690
_cell_angle_alpha 90.000000
_cell_angle_beta 90.000000
_cell_angle_gamma 90.000000
_cell_volume 5778.192176
_symmetry_space_group_name_H-M "C M C M"
_symmetry_group_IT_number 63
_symmetry_cell_setting 'orthorhombic'
loop_
_space_group_symop_operation_xyz
x,y,z
-x,-y,1/2+z
x,-y,-z
-x,y,1/2-z
-x,-y,-z
x,y,1/2-z
-x,y,z
x,-y,1/2+z
1/2+x,1/2+y,z
1/2-x,1/2-y,1/2+z
1/2+x,1/2-y,-z
1/2-x,1/2+y,1/2-z
1/2-x,1/2-y,-z
1/2+x,1/2+y,1/2-z
1/2-x,1/2+y,z
1/2+x,1/2-y,1/2+z
loop_
_atom_site_type_symbol
_atom_site_label
_atom_site_fract_x
_atom_site_fract_y
_atom_site_fract_z
Si Si1 0.888618 0.346671 0.479929
Si Si2 0.886076 0.198248 0.853178
Si Si3 0.894487 0.088624 0.145052
Si Si4 0.112064 0.240445 0.446951
Si Si5 0.608548 0.515547 0.606114
Si Si6 0.260225 0.395260 0.143815
Si Si7 0.749314 0.665694 0.140446
O O1 0.877117 0.295782 0.431054
O O2 0.826695 0.384507 0.424706
O O3 0.845225 0.338015 0.581429
O O4 0.000000 0.358056 0.483395
O O5 0.861449 0.217768 0.750000
O O6 0.831403 0.149213 0.863971
O O7 0.000000 0.190311 0.853138
O O8 0.866534 0.228746 0.944867
O O9 0.903765 0.106027 0.250000
O O10 0.815119 0.121876 0.103705
O O11 0.000000 0.091706 0.100221
O O12 0.866989 0.034374 0.150964
O O13 0.184068 0.210215 0.385781
O O14 0.000000 0.227884 0.430376
O O15 0.607224 0.500000 0.500000
O O16 0.500000 0.528808 0.634028
O O17 0.680572 0.557618 0.623264
O O18 0.226821 0.397222 0.250000
O O19 0.766161 0.663233 0.250000
#
# Coordination Sequence:
#
# PCOD9472122 Si02
#       7
#    16  16  16  16  16  16  16
#     4  11  25  43  58  80 114 156 208 260 304 343
#     4   9  18  32  55  87 120 153 190 238 296 360
#     4   9  18  33  54  84 120 149 175 216 276 350
#     4  10  21  38  60  85 119 154 192 244 302 366
#     4  10  20  33  56  91 127 157 183 222 286 363
#     4  11  22  37  60  85 117 161 206 249 294 349
#     4  11  22  37  61  88 117 155 197 240 296 362
#
# _framework density 19.383224999999999
#
# number of rings (size 3 to 8) (size 9 to 14) (size 15 to 20)
#    0.000    1.857    1.429    2.571    0.000    4.000 
#    0.000    2.857    0.000    3.857    0.000    4.000 
#    0.000    0.000    0.000    0.000    0.000    0.000 
#
# Total GULP energy -312622.866867 kJ/mol
# GULP energy per Si atom -5582.551194 kJ/mol
# Density = 1.933911 g / cm^3
# Si number density = 19.383225 Si / 1000 Ang^3
#
#
#
# Elastic Constant Matrix: (Units=GPa)
#
#
# Indices 1 2 3 4 5 6 
#
# 1 107.0802 60.1755 36.5266 0.0000 0.0000 0.0000
# 2 60.1755 73.0940 14.8167 0.0000 0.0000 0.0000
# 3 36.5266 14.8167 86.3694 0.0000 0.0000 0.0000
# 4 0.0000 0.0000 0.0000 31.7688 0.0000 0.0000
# 5 0.0000 0.0000 0.0000 0.0000 4.9088 0.0000
# 6 0.0000 0.0000 0.0000 0.0000 0.0000 27.6342
#
#
#
# Elastic Compliance Matrix: (Units=1/GPa)
#
#
# Indices 1 2 3 4 5 6 
#
# 1 0.019825 -0.015149 -0.005786 0.000000 0.000000 0.000000
# 2 -0.015149 0.025749 0.001989 0.000000 0.000000 0.000000
# 3 -0.005786 0.001989 0.013684 0.000000 0.000000 0.000000
# 4 0.000000 0.000000 0.000000 0.031477 0.000000 0.000000
# 5 0.000000 0.000000 0.000000 0.000000 0.203716 0.000000
# 6 0.000000 0.000000 0.000000 0.000000 0.000000 0.036187
#
#
# Mechanical properties :
#
#
# Convention : Reuss Voigt Hill
#
# Bulk Modulus (GPa) = 46.79859 54.39791 50.59825
# Shear Modulus (GPa) = 13.31022 23.19736 18.25379
#
# Velocity S-wave (km/s) = 2.62332 3.46320 3.07209
# Velocity P-wave (km/s) = 5.77685 6.64206 6.22451
#
# Compressibility (1/GPa) = 0.02136817
#
# Stress axis : x y z
#
# Youngs Moduli (GPa) = 50.44023 38.83623 73.07957
#
# Poissons Ratio (x) = 0.58832 0.42281
# Poissons Ratio (y) = 0.76411 -0.14538
# Poissons Ratio (z) = 0.29183 -0.07726
#
# Static dielectric constant tensor:
#      x y z
#    x 1.683050 0.000000 0.000000 
#    y 0.000000 1.678850 0.000000 
#    z 0.000000 0.000000 1.687080 
# 
# From -- ./inp_files/32573.got.cif
#   From: 2010.05.17/outbox.cif.g08.bks.cpg/sg63_17_cif.got.tgz:32573.got - 2010.06.03 15:47:04.
