data_PCOD9472442
_publ_section_title
;
Structure prediction by ZEFSAII (Michael W. Deem and Ramdas Pophale) SiO2 
 PCOD9472442
Probable space group: C M C M
;
_chemical_formula_sum "Si O2"
_cell_formula_units_Z 72
_cell_length_a 24.220631
_cell_length_b 17.375992
_cell_length_c 9.183538
_cell_angle_alpha 90.000000
_cell_angle_beta 90.000000
_cell_angle_gamma 90.000000
_cell_volume 3864.960757
_symmetry_space_group_name_H-M "C M C M"
_symmetry_group_IT_number 63
_symmetry_cell_setting 'orthorhombic'
loop_
_space_group_symop_operation_xyz
x,y,z
-x,-y,1/2+z
x,-y,-z
-x,y,1/2-z
-x,-y,-z
x,y,1/2-z
-x,y,z
x,-y,1/2+z
1/2+x,1/2+y,z
1/2-x,1/2-y,1/2+z
1/2+x,1/2-y,-z
1/2-x,1/2+y,1/2-z
1/2-x,1/2-y,-z
1/2+x,1/2+y,1/2-z
1/2-x,1/2+y,z
1/2+x,1/2-y,1/2+z
loop_
_atom_site_type_symbol
_atom_site_label
_atom_site_fract_x
_atom_site_fract_y
_atom_site_fract_z
Si Si1 0.774336 0.133436 0.578620
Si Si2 0.829485 0.302603 0.919552
Si Si3 0.153194 0.000000 0.500000
Si Si4 0.063871 0.741586 0.921797
Si Si5 0.562509 0.608218 0.904512
O O1 0.773753 0.109142 0.750000
O O2 0.807365 0.214148 0.572611
O O3 0.713691 0.149293 0.516004
O O4 0.805324 0.071183 0.477640
O O5 0.828375 0.325131 0.750000
O O6 0.890356 0.303709 0.987383
O O7 0.108124 0.042607 0.600084
O O8 0.072880 0.732393 0.750000
O O9 0.000000 0.722120 0.955776
O O10 0.070790 0.831388 0.966772
O O11 0.566613 0.652326 0.750000
O O12 0.500000 0.577949 0.913860
#
# Coordination Sequence:
#
# PCOD9472442 Si02
#       5
#    16  16   8  16  16
#     4  10  22  37  54  77 107 144 187 230 275 324
#     4  10  20  38  58  78 105 142 184 231 280 325
#     4  12  21  34  54  78 111 146 186 226 272 324
#     4  10  20  34  55  82 110 143 183 226 274 327
#     4  10  21  36  52  74 109 150 191 231 268 314
#
# _framework density 18.628907999999999
#
# number of rings (size 3 to 8) (size 9 to 14) (size 15 to 20)
#    0.000    1.778    2.222    2.333    0.000    5.778 
#    0.000    2.222    0.000    0.000    0.000    0.778 
#    0.000    0.000    0.000    0.000    0.000    0.000 
#
# Total GULP energy -200440.593406 kJ/mol
# GULP energy per Si atom -5567.794261 kJ/mol
# Density = 1.858651 g / cm^3
# Si number density = 18.628908 Si / 1000 Ang^3
#
#
#
# Elastic Constant Matrix: (Units=GPa)
#
#
# Indices 1 2 3 4 5 6 
#
# 1 158.0905 33.0339 59.6322 0.0000 0.0000 0.0000
# 2 33.0339 30.3332 0.8391 0.0000 0.0000 0.0000
# 3 59.6322 0.8391 50.9206 0.0000 0.0000 0.0000
# 4 0.0000 0.0000 0.0000 -3.2261 0.0000 0.0000
# 5 0.0000 0.0000 0.0000 0.0000 387.8338 0.0000
# 6 0.0000 0.0000 0.0000 0.0000 0.0000 34.2398
#
#
#
# Elastic Compliance Matrix: (Units=1/GPa)
#
#
# Indices 1 2 3 4 5 6 
#
# 1 0.018391 -0.019442 -0.021217 0.000000 0.000000 0.000000
# 2 -0.019442 0.053534 0.021885 0.000000 0.000000 0.000000
# 3 -0.021217 0.021885 0.044125 0.000000 0.000000 0.000000
# 4 0.000000 0.000000 0.000000 -0.309970 0.000000 0.000000
# 5 0.000000 0.000000 0.000000 0.000000 0.002578 0.000000
# 6 0.000000 0.000000 0.000000 0.000000 0.000000 0.029206
#
#
# Mechanical properties :
#
#
# Convention : Reuss Voigt Hill
#
# Bulk Modulus (GPa) = 12.73825 47.37276 30.05550
# Shear Modulus (GPa) = -50.80180 93.49210 21.34515
#
# Velocity S-wave (km/s) = -5.22777 7.09193 3.38865
# Velocity P-wave (km/s) = 5.43937 9.62006 5.61065
#
# Compressibility (1/GPa) = 0.07850374
#
# Stress axis : x y z
#
# Youngs Moduli (GPa) = 54.37424 18.67961 22.66306
#
# Poissons Ratio (x) = 0.36316 0.48084
# Poissons Ratio (y) = 1.05712 -0.49599
# Poissons Ratio (z) = 1.15366 -0.40881
#
# Static dielectric constant tensor:
#      x y z
#    x 1.669810 0.000000 0.000000 
#    y 0.000000 1.634150 0.000000 
#    z 0.000000 0.000000 1.670960 
# 
# From -- ./inp_files/9825.got.cif
#   From: 2010.05.17/outbox.cif.g08.bks.cpg/sg63_5_cif.got.tgz:9825.got - 2010.06.03 15:47:04.
