data_PCOD9472951
_publ_section_title
;
Structure prediction by ZEFSAII (Michael W. Deem and Ramdas Pophale) SiO2 
 PCOD9472951
Probable space group: C M C M
;
_chemical_formula_sum "Si O2"
_cell_formula_units_Z 88
_cell_length_a 23.532979
_cell_length_b 10.066468
_cell_length_c 17.922198
_cell_angle_alpha 90.000000
_cell_angle_beta 90.000000
_cell_angle_gamma 90.000000
_cell_volume 4245.660815
_symmetry_space_group_name_H-M "C M C M"
_symmetry_group_IT_number 63
_symmetry_cell_setting 'orthorhombic'
loop_
_space_group_symop_operation_xyz
x,y,z
-x,-y,1/2+z
x,-y,-z
-x,y,1/2-z
-x,-y,-z
x,y,1/2-z
-x,y,z
x,-y,1/2+z
1/2+x,1/2+y,z
1/2-x,1/2-y,1/2+z
1/2+x,1/2-y,-z
1/2-x,1/2+y,1/2-z
1/2-x,1/2-y,-z
1/2+x,1/2+y,1/2-z
1/2-x,1/2+y,z
1/2+x,1/2-y,1/2+z
loop_
_atom_site_type_symbol
_atom_site_label
_atom_site_fract_x
_atom_site_fract_y
_atom_site_fract_z
Si Si1 0.178847 0.209981 0.750000
Si Si2 0.500000 0.375931 0.945298
Si Si3 0.880280 0.302830 0.901597
Si Si4 0.714851 0.500000 0.000000
Si Si5 0.758626 0.521032 0.250000
Si Si6 0.000000 0.625159 0.054969
Si Si7 0.123290 0.173906 0.439523
Si Si8 0.812681 0.432962 0.403673
O O1 0.143681 0.243169 0.674854
O O2 0.231380 0.318902 0.750000
O O3 0.198944 0.057091 0.750000
O O4 0.437449 0.373436 0.907895
O O5 0.500000 0.500000 0.000000
O O6 0.500000 0.245104 0.996001
O O7 0.943712 0.361173 0.895896
O O8 0.841946 0.427987 0.926585
O O9 0.881878 0.200651 0.970752
O O10 0.675588 0.572252 0.060942
O O11 0.757459 0.404393 0.045420
O O12 0.790366 0.464290 0.321945
O O13 0.000000 0.500000 0.000000
O O14 0.143452 0.312706 0.405650
#
# Coordination Sequence:
#
# PCOD9472951 Si02
#       8
#     8   8  16   8   8   8  16  16
#     4  10  22  39  56  80 122 155 198 245 297 366
#     4  10  20  38  55  87 119 151 193 244 300 343
#     4  10  20  37  56  85 115 152 200 246 296 357
#     4  12  22  31  58  87 118 150 190 246 294 354
#     4  10  24  38  56  80 120 158 194 237 301 370
#     4  10  20  35  63  84 113 155 198 246 304 349
#     4  11  21  36  58  85 117 152 196 244 297 354
#     4  11  22  36  56  86 116 152 195 243 299 360
#
# _framework density 20.727043999999999
#
# number of rings (size 3 to 8) (size 9 to 14) (size 15 to 20)
#    0.000    1.455    2.727    3.818    5.091    0.364 
#    0.000    0.000    0.000    1.636    0.000    1.273 
#    0.000    0.000    0.000    0.000    0.000    0.000 
#
# Total GULP energy -245486.780545 kJ/mol
# GULP energy per Si atom -5579.245012 kJ/mol
# Density = 2.067987 g / cm^3
# Si number density = 20.727044 Si / 1000 Ang^3
#
#
#
# Elastic Constant Matrix: (Units=GPa)
#
#
# Indices 1 2 3 4 5 6 
#
# 1 132.1017 9.5814 6.0417 0.0000 0.0000 0.0000
# 2 9.5814 49.0762 -13.3766 0.0000 0.0000 0.0000
# 3 6.0417 -13.3766 32.2712 0.0000 0.0000 0.0000
# 4 0.0000 0.0000 0.0000 15.5948 0.0000 0.0000
# 5 0.0000 0.0000 0.0000 0.0000 11.7196 0.0000
# 6 0.0000 0.0000 0.0000 0.0000 0.0000 34.9360
#
#
#
# Elastic Compliance Matrix: (Units=1/GPa)
#
#
# Indices 1 2 3 4 5 6 
#
# 1 0.007836 -0.002176 -0.002369 0.000000 0.000000 0.000000
# 2 -0.002176 0.023576 0.010180 0.000000 0.000000 0.000000
# 3 -0.002369 0.010180 0.035650 0.000000 0.000000 0.000000
# 4 0.000000 0.000000 0.000000 0.064124 0.000000 0.000000
# 5 0.000000 0.000000 0.000000 0.000000 0.085327 0.000000
# 6 0.000000 0.000000 0.000000 0.000000 0.000000 0.028624
#
#
# Mechanical properties :
#
#
# Convention : Reuss Voigt Hill
#
# Bulk Modulus (GPa) = 12.76605 24.21580 18.49093
# Shear Modulus (GPa) = 19.23244 26.53026 22.88135
#
# Velocity S-wave (km/s) = 3.04944 3.58157 3.32616
# Velocity P-wave (km/s) = 4.30944 5.36769 4.86741
#
# Compressibility (1/GPa) = 0.07833274
#
# Stress axis : x y z
#
# Youngs Moduli (GPa) = 127.61521 42.41631 28.05024
#
# Poissons Ratio (x) = 0.09228 0.06645
# Poissons Ratio (y) = 0.27763 -0.28554
# Poissons Ratio (z) = 0.30230 -0.43178
#
# Static dielectric constant tensor:
#      x y z
#    x 1.856420 0.000000 0.000000 
#    y 0.000000 1.770090 0.000000 
#    z 0.000000 0.000000 1.735940 
# 
# From -- ./inp_files/57426.got.cif
#   From: 2010.05.17/outbox.cif.g08.bks.cpg/sg63_29_cif.got.tgz:57426.got - 2010.06.03 15:47:04.
