data_PCOD9472599
_publ_section_title
;
Structure prediction by ZEFSAII (Michael W. Deem and Ramdas Pophale) SiO2 
 PCOD9472599
Probable space group: C M C M
;
_chemical_formula_sum "Si O2"
_cell_formula_units_Z 72
_cell_length_a 29.195093
_cell_length_b 15.527650
_cell_length_c 9.087311
_cell_angle_alpha 90.000000
_cell_angle_beta 90.000000
_cell_angle_gamma 90.000000
_cell_volume 4119.561472
_symmetry_space_group_name_H-M "C M C M"
_symmetry_group_IT_number 63
_symmetry_cell_setting 'orthorhombic'
loop_
_space_group_symop_operation_xyz
x,y,z
-x,-y,1/2+z
x,-y,-z
-x,y,1/2-z
-x,-y,-z
x,y,1/2-z
-x,y,z
x,-y,1/2+z
1/2+x,1/2+y,z
1/2-x,1/2-y,1/2+z
1/2+x,1/2-y,-z
1/2-x,1/2+y,1/2-z
1/2-x,1/2-y,-z
1/2+x,1/2+y,1/2-z
1/2-x,1/2+y,z
1/2+x,1/2-y,1/2+z
loop_
_atom_site_type_symbol
_atom_site_label
_atom_site_fract_x
_atom_site_fract_y
_atom_site_fract_z
Si Si1 0.142600 0.261616 0.573954
Si Si2 0.287143 0.910599 0.925595
Si Si3 0.000000 0.091259 0.075499
Si Si4 0.948939 0.256544 0.075252
Si Si5 0.320828 0.409298 0.926241
O O1 0.143731 0.251838 0.750000
O O2 0.181033 0.331165 0.529245
O O3 0.092608 0.290969 0.519350
O O4 0.153278 0.171358 0.495606
O O5 0.291002 0.919817 0.750000
O O6 0.233470 0.896055 0.958945
O O7 0.301194 0.000000 0.000000
O O8 0.957343 0.154616 0.040544
O O9 0.000000 0.078902 0.250000
O O10 0.000000 0.000000 0.000000
O O11 0.939750 0.263804 0.250000
O O12 0.000000 0.294309 0.048120
O O13 0.326956 0.412843 0.750000
O O14 0.334252 0.500000 0.000000
#
# Coordination Sequence:
#
# PCOD9472599 Si02
#       5
#    16  16   8  16  16
#     4  11  21  33  53  81 108 137 175 217 263 316
#     4   9  20  36  54  78 106 137 176 219 263 312
#     4   8  16  30  48  68  93 124 163 204 245 296
#     4   8  18  35  50  69  98 134 173 211 253 305
#     4  10  20  35  53  75 107 143 177 215 258 308
#
# _framework density 17.477588999999998
#
# number of rings (size 3 to 8) (size 9 to 14) (size 15 to 20)
#    0.667    2.000    0.000    2.000    0.000    4.889 
#    0.000    2.222    0.000    0.667    0.000    0.000 
#    0.000    0.000    0.000    0.000    0.000    0.000 
#
# Total GULP energy -200541.246057 kJ/mol
# GULP energy per Si atom -5570.590168 kJ/mol
# Density = 1.743781 g / cm^3
# Si number density = 17.477589 Si / 1000 Ang^3
#
#
#
# Elastic Constant Matrix: (Units=GPa)
#
#
# Indices 1 2 3 4 5 6 
#
# 1 60.6318 31.7187 31.4015 0.0000 0.0000 0.0000
# 2 31.7187 52.7965 22.3123 0.0000 0.0000 0.0000
# 3 31.4015 22.3123 40.1403 0.0000 0.0000 0.0000
# 4 0.0000 0.0000 0.0000 28.0826 0.0000 0.0000
# 5 0.0000 0.0000 0.0000 0.0000 28.8440 0.0000
# 6 0.0000 0.0000 0.0000 0.0000 0.0000 6.0473
#
#
#
# Elastic Compliance Matrix: (Units=1/GPa)
#
#
# Indices 1 2 3 4 5 6 
#
# 1 0.032227 -0.011380 -0.018885 0.000000 0.000000 0.000000
# 2 -0.011380 0.028775 -0.007092 0.000000 0.000000 0.000000
# 3 -0.018885 -0.007092 0.043629 0.000000 0.000000 0.000000
# 4 0.000000 0.000000 0.000000 0.035609 0.000000 0.000000
# 5 0.000000 0.000000 0.000000 0.000000 0.034669 0.000000
# 6 0.000000 0.000000 0.000000 0.000000 0.000000 0.165364
#
#
# Mechanical properties :
#
#
# Convention : Reuss Voigt Hill
#
# Bulk Modulus (GPa) = 33.42750 36.04817 34.73784
# Shear Modulus (GPa) = 11.76580 17.13717 14.45149
#
# Velocity S-wave (km/s) = 2.59741 3.13473 2.87863
# Velocity P-wave (km/s) = 5.30687 5.81138 5.56485
#
# Compressibility (1/GPa) = 0.02991549
#
# Stress axis : x y z
#
# Youngs Moduli (GPa) = 31.02977 34.75277 22.92065
#
# Poissons Ratio (x) = 0.39549 0.43287
# Poissons Ratio (y) = 0.35312 0.16256
# Poissons Ratio (z) = 0.58601 0.24647
#
# Static dielectric constant tensor:
#      x y z
#    x 1.637400 0.000000 0.000000 
#    y 0.000000 1.574500 0.000000 
#    z 0.000000 0.000000 1.573820 
# 
# From -- ./inp_files/13940.got.cif
#   From: 2010.05.17/outbox.cif.g08.bks.cpg/sg63_7_cif.got.tgz:13940.got - 2010.06.03 15:47:04.
