data_PCOD9472878
_publ_section_title
;
Structure prediction by ZEFSAII (Michael W. Deem and Ramdas Pophale) SiO2 
 PCOD9472878
Probable space group: C M C M
;
_chemical_formula_sum "Si O2"
_cell_formula_units_Z 80
_cell_length_a 8.861369
_cell_length_b 23.394475
_cell_length_c 20.663815
_cell_angle_alpha 90.000000
_cell_angle_beta 90.000000
_cell_angle_gamma 90.000000
_cell_volume 4283.755057
_symmetry_space_group_name_H-M "C M C M"
_symmetry_group_IT_number 63
_symmetry_cell_setting 'orthorhombic'
loop_
_space_group_symop_operation_xyz
x,y,z
-x,-y,1/2+z
x,-y,-z
-x,y,1/2-z
-x,-y,-z
x,y,1/2-z
-x,y,z
x,-y,1/2+z
1/2+x,1/2+y,z
1/2-x,1/2-y,1/2+z
1/2+x,1/2-y,-z
1/2-x,1/2+y,1/2-z
1/2-x,1/2-y,-z
1/2+x,1/2+y,1/2-z
1/2-x,1/2+y,z
1/2+x,1/2-y,1/2+z
loop_
_atom_site_type_symbol
_atom_site_label
_atom_site_fract_x
_atom_site_fract_y
_atom_site_fract_z
Si Si1 0.321353 0.866316 0.877482
Si Si2 0.817686 0.063903 0.750000
Si Si3 0.324446 0.567081 0.492036
Si Si4 0.682142 0.936871 0.750000
Si Si5 0.678608 0.363213 0.124232
Si Si6 0.320676 0.749049 0.427619
O O1 0.500000 0.855292 0.873514
O O2 0.282772 0.905678 0.938845
O O3 0.273716 0.900719 0.813429
O O4 0.236822 0.806990 0.890314
O O5 0.773809 0.100183 0.686544
O O6 0.000000 0.058701 0.750000
O O7 0.750377 0.000346 0.750000
O O8 0.299051 0.500000 0.500000
O O9 0.500000 0.575827 0.472059
O O10 0.303965 0.598123 0.560416
O O11 0.500000 0.942083 0.750000
O O12 0.500000 0.349794 0.131282
O O13 0.767581 0.305140 0.110875
O O14 0.500000 0.747711 0.434430
O O15 0.250000 0.750000 0.500000
#
# Coordination Sequence:
#
# PCOD9472878 Si02
#       6
#    16   8  16   8  16  16
#     4  11  23  40  62  88 121 163 207 252 307 362
#     4  10  22  41  66  93 125 168 206 246 301 364
#     4  10  20  35  58  88 120 157 204 254 303 360
#     4  10  24  43  62  89 127 166 204 254 305 358
#     4  10  21  38  61  90 125 162 203 249 302 361
#     4  12  24  40  63  91 123 159 203 257 311 366
#
# _framework density 18.675203
#
# number of rings (size 3 to 8) (size 9 to 14) (size 15 to 20)
#    0.000    1.400    2.000    3.600    0.000    5.200 
#    0.000    4.000    0.000    0.000    0.000    0.000 
#    0.000    0.000    0.000    0.000    0.000    0.000 
#
# Total GULP energy -223599.854159 kJ/mol
# GULP energy per Si atom -5589.996354 kJ/mol
# Density = 1.863270 g / cm^3
# Si number density = 18.675203 Si / 1000 Ang^3
#
#
#
# Elastic Constant Matrix: (Units=GPa)
#
#
# Indices 1 2 3 4 5 6 
#
# 1 82.1145 73.5029 61.9057 0.0000 0.0000 0.0000
# 2 73.5029 167.4919 82.0457 0.0000 0.0000 0.0000
# 3 61.9057 82.0457 130.7212 0.0000 0.0000 0.0000
# 4 0.0000 0.0000 0.0000 41.4886 0.0000 0.0000
# 5 0.0000 0.0000 0.0000 0.0000 26.4854 0.0000
# 6 0.0000 0.0000 0.0000 0.0000 0.0000 47.9714
#
#
#
# Elastic Compliance Matrix: (Units=1/GPa)
#
#
# Indices 1 2 3 4 5 6 
#
# 1 0.023558 -0.007037 -0.006740 0.000000 0.000000 0.000000
# 2 -0.007037 0.010723 -0.003398 0.000000 0.000000 0.000000
# 3 -0.006740 -0.003398 0.012974 0.000000 0.000000 0.000000
# 4 0.000000 0.000000 0.000000 0.024103 0.000000 0.000000
# 5 0.000000 0.000000 0.000000 0.000000 0.037757 0.000000
# 6 0.000000 0.000000 0.000000 0.000000 0.000000 0.020846
#
#
# Mechanical properties :
#
#
# Convention : Reuss Voigt Hill
#
# Bulk Modulus (GPa) = 77.48045 90.58181 84.03113
# Shear Modulus (GPa) = 29.65398 34.04728 31.85063
#
# Velocity S-wave (km/s) = 3.98914 4.27444 4.13425
# Velocity P-wave (km/s) = 7.92440 8.54226 8.23913
#
# Compressibility (1/GPa) = 0.01290648
#
# Stress axis : x y z
#
# Youngs Moduli (GPa) = 42.44817 93.25880 77.07634
#
# Poissons Ratio (x) = 0.65625 0.51948
# Poissons Ratio (y) = 0.29870 0.26188
# Poissons Ratio (z) = 0.28609 0.31686
#
# Static dielectric constant tensor:
#      x y z
#    x 1.640510 0.000000 0.000000 
#    y 0.000000 1.619930 0.000000 
#    z 0.000000 0.000000 1.625010 
# 
# From -- ./inp_files/50907.got.cif
#   From: 2010.05.17/outbox.cif.g08.bks.cpg/sg63_26_cif.got.tgz:50907.got - 2010.06.03 15:47:04.
