data_PCOD9472750
_publ_section_title
;
Structure prediction by ZEFSAII (Michael W. Deem and Ramdas Pophale) SiO2 
 PCOD9472750
Probable space group: C M C M
;
_chemical_formula_sum "Si O2"
_cell_formula_units_Z 56
_cell_length_a 12.455073
_cell_length_b 18.015863
_cell_length_c 10.281727
_cell_angle_alpha 90.000000
_cell_angle_beta 90.000000
_cell_angle_gamma 90.000000
_cell_volume 2307.105297
_symmetry_space_group_name_H-M "C M C M"
_symmetry_group_IT_number 63
_symmetry_cell_setting 'orthorhombic'
loop_
_space_group_symop_operation_xyz
x,y,z
-x,-y,1/2+z
x,-y,-z
-x,y,1/2-z
-x,-y,-z
x,y,1/2-z
-x,y,z
x,-y,1/2+z
1/2+x,1/2+y,z
1/2-x,1/2-y,1/2+z
1/2+x,1/2-y,-z
1/2-x,1/2+y,1/2-z
1/2-x,1/2-y,-z
1/2+x,1/2+y,1/2-z
1/2-x,1/2+y,z
1/2+x,1/2-y,1/2+z
loop_
_atom_site_type_symbol
_atom_site_label
_atom_site_fract_x
_atom_site_fract_y
_atom_site_fract_z
Si Si1 0.874161 0.670031 0.750000
Si Si2 0.619648 0.207965 0.463681
Si Si3 0.734502 0.569024 0.400215
Si Si4 0.000000 0.935770 0.896176
Si Si5 0.629630 0.332636 0.250000
O O1 0.873068 0.717790 0.618582
O O2 0.752615 0.629750 0.750000
O O3 0.000000 0.634851 0.750000
O O4 0.500000 0.183514 0.432650
O O5 0.690458 0.137608 0.428571
O O6 0.636944 0.279600 0.375589
O O7 0.747875 0.500000 0.500000
O O8 0.747909 0.544992 0.250000
O O9 0.613717 0.601224 0.413920
O O10 0.000000 0.966339 0.750000
O O11 0.000000 0.000000 0.000000
O O12 0.500000 0.361501 0.250000
#
# Coordination Sequence:
#
# PCOD9472750 Si02
#       5
#     8  16  16   8   8
#     4  10  22  40  59  85 114 150 189 235 285 338
#     4  10  21  38  58  81 116 148 181 232 287 331
#     4  10  20  35  56  82 113 150 189 227 276 336
#     4   8  16  32  50  72 106 144 180 224 272 314
#     4  10  20  40  63  83 114 148 185 239 293 334
#
# _framework density 24.272842000000001
#
# number of rings (size 3 to 8) (size 9 to 14) (size 15 to 20)
#    0.000    2.286    1.429    0.857    2.000    0.571 
#    5.143    0.000    0.000    0.000    0.000    0.000 
#    0.000    0.000    0.000    0.000    0.000    0.000 
#
# Total GULP energy -156052.079478 kJ/mol
# GULP energy per Si atom -5573.288553 kJ/mol
# Density = 2.421760 g / cm^3
# Si number density = 24.272842 Si / 1000 Ang^3
#
#
#
# Elastic Constant Matrix: (Units=GPa)
#
#
# Indices 1 2 3 4 5 6 
#
# 1 248.4039 58.0581 32.8143 0.0000 0.0000 0.0000
# 2 58.0581 89.6343 63.8848 0.0000 0.0000 0.0000
# 3 32.8143 63.8848 176.0530 0.0000 0.0000 0.0000
# 4 0.0000 0.0000 0.0000 6.5991 0.0000 0.0000
# 5 0.0000 0.0000 0.0000 0.0000 34.3026 0.0000
# 6 0.0000 0.0000 0.0000 0.0000 0.0000 21.0811
#
#
#
# Elastic Compliance Matrix: (Units=1/GPa)
#
#
# Indices 1 2 3 4 5 6 
#
# 1 0.004757 -0.003303 0.000312 0.000000 0.000000 0.000000
# 2 -0.003303 0.017343 -0.005677 0.000000 0.000000 0.000000
# 3 0.000312 -0.005677 0.007682 0.000000 0.000000 0.000000
# 4 0.000000 0.000000 0.000000 0.151536 0.000000 0.000000
# 5 0.000000 0.000000 0.000000 0.000000 0.029152 0.000000
# 6 0.000000 0.000000 0.000000 0.000000 0.000000 0.047436
#
#
# Mechanical properties :
#
#
# Convention : Reuss Voigt Hill
#
# Bulk Modulus (GPa) = 80.36079 91.51173 85.93626
# Shear Modulus (GPa) = 17.89605 36.35216 27.12411
#
# Velocity S-wave (km/s) = 2.71825 3.87414 3.34648
# Velocity P-wave (km/s) = 6.55980 7.60231 7.10021
#
# Compressibility (1/GPa) = 0.01244388
#
# Stress axis : x y z
#
# Youngs Moduli (GPa) = 210.23639 57.66153 130.17248
#
# Poissons Ratio (x) = 0.19048 -0.04063
# Poissons Ratio (y) = 0.69449 0.73905
# Poissons Ratio (z) = -0.06562 0.32737
#
# Static dielectric constant tensor:
#      x y z
#    x 2.089970 0.000000 0.000000 
#    y 0.000000 1.835150 0.000000 
#    z 0.000000 0.000000 1.958780 
# 
# From -- ./inp_files/2862.got.cif
#   From: 2010.05.17/outbox.cif.g08.bks.cpg/sg63_2_cif.got.tgz:2862.got - 2010.06.03 15:47:04.
