data_PCOD9472194
_publ_section_title
;
Structure prediction by ZEFSAII (Michael W. Deem and Ramdas Pophale) SiO2 
 PCOD9472194
Probable space group: C M C M
;
_chemical_formula_sum "Si O2"
_cell_formula_units_Z 80
_cell_length_a 18.941595
_cell_length_b 26.514528
_cell_length_c 7.541313
_cell_angle_alpha 90.000000
_cell_angle_beta 90.000000
_cell_angle_gamma 90.000000
_cell_volume 3787.454405
_symmetry_space_group_name_H-M "C M C M"
_symmetry_group_IT_number 63
_symmetry_cell_setting 'orthorhombic'
loop_
_space_group_symop_operation_xyz
x,y,z
-x,-y,1/2+z
x,-y,-z
-x,y,1/2-z
-x,-y,-z
x,y,1/2-z
-x,y,z
x,-y,1/2+z
1/2+x,1/2+y,z
1/2-x,1/2-y,1/2+z
1/2+x,1/2-y,-z
1/2-x,1/2+y,1/2-z
1/2-x,1/2-y,-z
1/2+x,1/2+y,1/2-z
1/2-x,1/2+y,z
1/2+x,1/2-y,1/2+z
loop_
_atom_site_type_symbol
_atom_site_label
_atom_site_fract_x
_atom_site_fract_y
_atom_site_fract_z
Si Si1 0.328331 0.849915 0.461900
Si Si2 0.332276 0.653359 0.967590
Si Si3 0.419594 0.750927 0.536777
Si Si4 0.919503 0.443036 0.037335
Si Si5 0.919440 0.056700 0.537701
O O1 0.322359 0.856033 0.250000
O O2 0.248601 0.843559 0.528622
O O3 0.375802 0.800963 0.494530
O O4 0.368292 0.899525 0.531676
O O5 0.332156 0.653889 0.750000
O O6 0.377842 0.701465 0.026134
O O7 0.369561 0.601571 0.025840
O O8 0.423210 0.747249 0.750000
O O9 0.500000 0.753345 0.469887
O O10 0.922877 0.437677 0.250000
O O11 0.000000 0.437538 0.969280
O O12 0.895562 0.500000 0.000000
O O13 0.923085 0.061739 0.750000
O O14 0.000000 0.061284 0.468983
O O15 0.894114 0.000000 0.500000
#
# Coordination Sequence:
#
# PCOD9472194 Si02
#       5
#    16  16  16  16  16
#     4  10  20  34  52  74 101 130 161 202 251 296
#     4   9  18  33  52  73  99 132 166 200 244 296
#     4  10  20  34  53  75  98 128 167 204 239 289
#     4   9  18  32  49  69  94 125 160 196 236 284
#     4   9  17  31  51  73  99 132 169 207 245 288
#
# _framework density 21.122366
#
# number of rings (size 3 to 8) (size 9 to 14) (size 15 to 20)
#    0.000    2.600    0.000    1.800    0.000    5.200 
#    0.000    4.000    0.000    2.400    0.000    0.000 
#    0.000    0.000    0.000    0.000    0.000    0.000 
#
# Total GULP energy -223400.098258 kJ/mol
# GULP energy per Si atom -5585.002456 kJ/mol
# Density = 2.107429 g / cm^3
# Si number density = 21.122366 Si / 1000 Ang^3
#
#
#
# Elastic Constant Matrix: (Units=GPa)
#
#
# Indices 1 2 3 4 5 6 
#
# 1 194.2645 148.7815 3.6065 0.0000 0.0000 0.0000
# 2 148.7815 219.7762 -6.3903 0.0000 0.0000 0.0000
# 3 3.6065 -6.3903 49.8095 0.0000 0.0000 0.0000
# 4 0.0000 0.0000 0.0000 21.0814 0.0000 0.0000
# 5 0.0000 0.0000 0.0000 0.0000 15.1094 0.0000
# 6 0.0000 0.0000 0.0000 0.0000 0.0000 119.6513
#
#
#
# Elastic Compliance Matrix: (Units=1/GPa)
#
#
# Indices 1 2 3 4 5 6 
#
# 1 0.010837 -0.007387 -0.001732 0.000000 0.000000 0.000000
# 2 -0.007387 0.009602 0.001767 0.000000 0.000000 0.000000
# 3 -0.001732 0.001767 0.020429 0.000000 0.000000 0.000000
# 4 0.000000 0.000000 0.000000 0.047435 0.000000 0.000000
# 5 0.000000 0.000000 0.000000 0.000000 0.066184 0.000000
# 6 0.000000 0.000000 0.000000 0.000000 0.000000 0.008358
#
#
# Mechanical properties :
#
#
# Convention : Reuss Voigt Hill
#
# Bulk Modulus (GPa) = 38.22188 83.98283 61.10235
# Shear Modulus (GPa) = 26.84275 52.35860 39.60067
#
# Velocity S-wave (km/s) = 3.56873 4.98418 4.33462
# Velocity P-wave (km/s) = 5.92586 8.54220 7.35136
#
# Compressibility (1/GPa) = 0.02616303
#
# Stress axis : x y z
#
# Youngs Moduli (GPa) = 92.27611 104.14481 48.95100
#
# Poissons Ratio (x) = 0.76929 0.08480
# Poissons Ratio (y) = 0.68162 -0.08648
# Poissons Ratio (z) = 0.15985 -0.18400
#
# Static dielectric constant tensor:
#      x y z
#    x 1.742450 0.000000 0.000000 
#    y 0.000000 1.715040 0.000000 
#    z 0.000000 0.000000 1.809090 
# 
# From -- ./inp_files/6404.got.cif
#   From: 2010.05.17/outbox.cif.g08.bks.cpg/sg63_4_cif.got.tgz:6404.got - 2010.06.03 15:47:04.
