data_PCOD9472760
_publ_section_title
;
Structure prediction by ZEFSAII (Michael W. Deem and Ramdas Pophale) SiO2 
 PCOD9472760
Probable space group: C M C M
;
_chemical_formula_sum "Si O2"
_cell_formula_units_Z 112
_cell_length_a 15.359875
_cell_length_b 16.715422
_cell_length_c 23.786002
_cell_angle_alpha 90.000000
_cell_angle_beta 90.000000
_cell_angle_gamma 90.000000
_cell_volume 6106.979720
_symmetry_space_group_name_H-M "C M C M"
_symmetry_group_IT_number 63
_symmetry_cell_setting 'orthorhombic'
loop_
_space_group_symop_operation_xyz
x,y,z
-x,-y,1/2+z
x,-y,-z
-x,y,1/2-z
-x,-y,-z
x,y,1/2-z
-x,y,z
x,-y,1/2+z
1/2+x,1/2+y,z
1/2-x,1/2-y,1/2+z
1/2+x,1/2-y,-z
1/2-x,1/2+y,1/2-z
1/2-x,1/2-y,-z
1/2+x,1/2+y,1/2-z
1/2-x,1/2+y,z
1/2+x,1/2-y,1/2+z
loop_
_atom_site_type_symbol
_atom_site_label
_atom_site_fract_x
_atom_site_fract_y
_atom_site_fract_z
Si Si1 0.404063 0.273642 0.683382
Si Si2 0.278440 0.301784 0.183158
Si Si3 0.401452 0.201731 0.396260
Si Si4 0.226877 0.941745 0.398097
Si Si5 0.398425 0.980431 0.566292
Si Si6 0.399680 0.592584 0.407292
Si Si7 0.327440 0.688274 0.512331
O O1 0.401517 0.288376 0.750000
O O2 0.500000 0.239991 0.669104
O O3 0.322473 0.217879 0.669984
O O4 0.394599 0.355622 0.649418
O O5 0.292129 0.299613 0.250000
O O6 0.335686 0.235376 0.150622
O O7 0.296625 0.387987 0.155855
O O8 0.500000 0.201475 0.374393
O O9 0.381635 0.113004 0.419415
O O10 0.393434 0.262923 0.448262
O O11 0.210327 0.884499 0.451285
O O12 0.326867 0.969740 0.399718
O O13 0.164597 0.017921 0.404157
O O14 0.500000 0.997410 0.579616
O O15 0.386446 0.000000 0.500000
O O16 0.500000 0.567544 0.416394
O O17 0.370190 0.652137 0.456916
O O18 0.250000 0.750000 0.500000
#
# Coordination Sequence:
#
# PCOD9472760 Si02
#       7
#    16  16  16  16  16  16  16
#     4   9  19  37  59  81 105 136 179 229 276 325
#     4  10  22  39  59  80 105 145 193 239 284 329
#     4  10  21  37  57  82 112 146 186 230 273 327
#     4  11  22  35  53  79 112 144 179 226 277 327
#     4  10  20  35  56  83 116 150 181 220 278 345
#     4  11  22  35  55  82 112 146 179 217 274 337
#     4  11  21  35  56  80 110 146 183 224 270 325
#
# _framework density 18.339670999999999
#
# number of rings (size 3 to 8) (size 9 to 14) (size 15 to 20)
#    0.000    1.714    0.000    6.000    0.000    4.857 
#    0.000    4.286    0.000    0.857    0.000    0.000 
#    0.000    0.000    0.000    0.000    0.000    0.000 
#
# Total GULP energy -312650.444999 kJ/mol
# GULP energy per Si atom -5583.043661 kJ/mol
# Density = 1.829793 g / cm^3
# Si number density = 18.339671 Si / 1000 Ang^3
#
#
#
# Elastic Constant Matrix: (Units=GPa)
#
#
# Indices 1 2 3 4 5 6 
#
# 1 95.2399 35.5878 36.5888 0.0000 0.0000 0.0000
# 2 35.5878 62.7596 23.4372 0.0000 0.0000 0.0000
# 3 36.5888 23.4372 50.0751 0.0000 0.0000 0.0000
# 4 0.0000 0.0000 0.0000 13.6418 0.0000 0.0000
# 5 0.0000 0.0000 0.0000 0.0000 25.9362 0.0000
# 6 0.0000 0.0000 0.0000 0.0000 0.0000 17.9817
#
#
#
# Elastic Compliance Matrix: (Units=1/GPa)
#
#
# Indices 1 2 3 4 5 6 
#
# 1 0.016149 -0.005757 -0.009105 0.000000 0.000000 0.000000
# 2 -0.005757 0.021361 -0.005791 0.000000 0.000000 0.000000
# 3 -0.009105 -0.005791 0.029334 0.000000 0.000000 0.000000
# 4 0.000000 0.000000 0.000000 0.073304 0.000000 0.000000
# 5 0.000000 0.000000 0.000000 0.000000 0.038556 0.000000
# 6 0.000000 0.000000 0.000000 0.000000 0.000000 0.055612
#
#
# Mechanical properties :
#
#
# Convention : Reuss Voigt Hill
#
# Bulk Modulus (GPa) = 39.15957 44.36690 41.76324
# Shear Modulus (GPa) = 17.59725 19.00932 18.30328
#
# Velocity S-wave (km/s) = 3.10097 3.22299 3.16257
# Velocity P-wave (km/s) = 5.84979 6.17207 6.01309
#
# Compressibility (1/GPa) = 0.02553654
#
# Stress axis : x y z
#
# Youngs Moduli (GPa) = 61.92344 46.81418 34.09065
#
# Poissons Ratio (x) = 0.26951 0.31040
# Poissons Ratio (y) = 0.35649 0.19743
# Poissons Ratio (z) = 0.56382 0.27112
#
# Static dielectric constant tensor:
#      x y z
#    x 1.673750 0.000000 0.000000 
#    y 0.000000 1.608060 0.000000 
#    z 0.000000 0.000000 1.620160 
# 
# From -- ./inp_files/62967.got.cif
#   From: 2010.05.17/outbox.cif.g08.bks.cpg/sg63_32_cif.got.tgz:62967.got - 2010.06.03 15:47:04.
