data_PCOD9472012
_publ_section_title
;
Structure prediction by ZEFSAII (Michael W. Deem and Ramdas Pophale) SiO2 
 PCOD9472012
Probable space group: C M C M
;
_chemical_formula_sum "Si O2"
_cell_formula_units_Z 80
_cell_length_a 13.471975
_cell_length_b 13.840935
_cell_length_c 22.809911
_cell_angle_alpha 90.000000
_cell_angle_beta 90.000000
_cell_angle_gamma 90.000000
_cell_volume 4253.243903
_symmetry_space_group_name_H-M "C M C M"
_symmetry_group_IT_number 63
_symmetry_cell_setting 'orthorhombic'
loop_
_space_group_symop_operation_xyz
x,y,z
-x,-y,1/2+z
x,-y,-z
-x,y,1/2-z
-x,-y,-z
x,y,1/2-z
-x,y,z
x,-y,1/2+z
1/2+x,1/2+y,z
1/2-x,1/2-y,1/2+z
1/2+x,1/2-y,-z
1/2-x,1/2+y,1/2-z
1/2-x,1/2-y,-z
1/2+x,1/2+y,1/2-z
1/2-x,1/2+y,z
1/2+x,1/2-y,1/2+z
loop_
_atom_site_type_symbol
_atom_site_label
_atom_site_fract_x
_atom_site_fract_y
_atom_site_fract_z
Si Si1 0.199687 0.728379 0.316098
Si Si2 0.616215 0.211422 0.060442
Si Si3 0.801023 0.884967 0.994561
Si Si4 0.615201 0.362834 0.869749
Si Si5 0.886211 0.935931 0.317035
O O1 0.171697 0.696926 0.250000
O O2 0.137661 0.687322 0.371250
O O3 0.312318 0.700624 0.330400
O O4 0.182151 0.842924 0.318832
O O5 0.500000 0.204189 0.047798
O O6 0.687490 0.144807 0.020235
O O7 0.655977 0.320628 0.047530
O O8 0.861880 0.847296 0.937895
O O9 0.812326 0.000000 0.000000
O O10 0.500000 0.348976 0.856410
O O11 0.641015 0.474862 0.857393
O O12 0.885762 0.972927 0.250000
O O13 0.000000 0.905034 0.330279
#
# Coordination Sequence:
#
# PCOD9472012 Si02
#       5
#    16  16  16  16  16
#     4  10  20  33  52  78 107 138 175 221 267 310
#     4  10  21  36  54  79 108 138 177 219 261 316
#     4  10  21  36  55  80 109 140 174 217 266 314
#     4  10  20  34  54  79 106 139 178 219 265 316
#     4   9  17  30  50  75 101 133 175 219 263 313
#
# _framework density 18.809173000000001
#
# number of rings (size 3 to 8) (size 9 to 14) (size 15 to 20)
#    0.000    2.200    0.000    3.000    0.000    6.000 
#    0.000    0.000    0.000   13.200    0.000   11.200 
#    0.000    0.000    0.000    0.000    0.000    0.000 
#
# Total GULP energy -223090.850105 kJ/mol
# GULP energy per Si atom -5577.271253 kJ/mol
# Density = 1.876636 g / cm^3
# Si number density = 18.809173 Si / 1000 Ang^3
#
#
#
# Elastic Constant Matrix: (Units=GPa)
#
#
# Indices 1 2 3 4 5 6 
#
# 1 98.5947 28.2593 10.8228 0.0000 0.0000 0.0000
# 2 28.2593 55.1810 3.5800 0.0000 0.0000 0.0000
# 3 10.8228 3.5800 73.0060 0.0000 0.0000 0.0000
# 4 0.0000 0.0000 0.0000 24.5137 0.0000 0.0000
# 5 0.0000 0.0000 0.0000 0.0000 12.0603 0.0000
# 6 0.0000 0.0000 0.0000 0.0000 0.0000 141.9699
#
#
#
# Elastic Compliance Matrix: (Units=1/GPa)
#
#
# Indices 1 2 3 4 5 6 
#
# 1 0.012046 -0.006073 -0.001488 0.000000 0.000000 0.000000
# 2 -0.006073 0.021241 -0.000141 0.000000 0.000000 0.000000
# 3 -0.001488 -0.000141 0.013925 0.000000 0.000000 0.000000
# 4 0.000000 0.000000 0.000000 0.040793 0.000000 0.000000
# 5 0.000000 0.000000 0.000000 0.000000 0.082917 0.000000
# 6 0.000000 0.000000 0.000000 0.000000 0.000000 0.007044
#
#
# Mechanical properties :
#
#
# Convention : Reuss Voigt Hill
#
# Bulk Modulus (GPa) = 31.43807 34.67844 33.05825
# Shear Modulus (GPa) = 24.51294 47.98341 36.24817
#
# Velocity S-wave (km/s) = 3.61396 5.05629 4.39470
# Velocity P-wave (km/s) = 5.84507 7.25018 6.58521
#
# Compressibility (1/GPa) = 0.03180857
#
# Stress axis : x y z
#
# Youngs Moduli (GPa) = 83.01215 47.07814 71.81314
#
# Poissons Ratio (x) = 0.28589 0.10686
# Poissons Ratio (y) = 0.50411 0.01015
# Poissons Ratio (z) = 0.12353 0.00666
#
# Static dielectric constant tensor:
#      x y z
#    x 1.638860 0.000000 0.000000 
#    y 0.000000 1.635710 0.000000 
#    z 0.000000 0.000000 1.736120 
# 
# From -- ./inp_files/61100.got.cif
#   From: 2010.05.17/outbox.cif.g08.bks.cpg/sg63_31_cif.got.tgz:61100.got - 2010.06.03 15:47:04.
