data_PCOD9472177
_publ_section_title
;
Structure prediction by ZEFSAII (Michael W. Deem and Ramdas Pophale) SiO2 
 PCOD9472177
Probable space group: C M C M
;
_chemical_formula_sum "Si O2"
_cell_formula_units_Z 72
_cell_length_a 28.019241
_cell_length_b 15.271729
_cell_length_c 8.142009
_cell_angle_alpha 90.000000
_cell_angle_beta 90.000000
_cell_angle_gamma 90.000000
_cell_volume 3483.984014
_symmetry_space_group_name_H-M "C M C M"
_symmetry_group_IT_number 63
_symmetry_cell_setting 'orthorhombic'
loop_
_space_group_symop_operation_xyz
x,y,z
-x,-y,1/2+z
x,-y,-z
-x,y,1/2-z
-x,-y,-z
x,y,1/2-z
-x,y,z
x,-y,1/2+z
1/2+x,1/2+y,z
1/2-x,1/2-y,1/2+z
1/2+x,1/2-y,-z
1/2-x,1/2+y,1/2-z
1/2-x,1/2-y,-z
1/2+x,1/2+y,1/2-z
1/2-x,1/2+y,z
1/2+x,1/2-y,1/2+z
loop_
_atom_site_type_symbol
_atom_site_label
_atom_site_fract_x
_atom_site_fract_y
_atom_site_fract_z
Si Si1 0.910857 0.721244 0.549011
Si Si2 0.767929 0.154171 0.947166
Si Si3 0.000000 0.398027 0.448603
Si Si4 0.169220 0.590995 0.946985
Si Si5 0.373583 0.401434 0.944606
O O1 0.912209 0.722366 0.750000
O O2 0.954180 0.658969 0.496073
O O3 0.862215 0.672642 0.497002
O O4 0.907055 0.821847 0.491870
O O5 0.770788 0.150514 0.750000
O O6 0.723421 0.095945 0.008038
O O7 0.750000 0.250000 0.000000
O O8 0.818862 0.124434 0.014132
O O9 0.000000 0.500000 0.500000
O O10 0.000000 0.398389 0.250000
O O11 0.170354 0.594240 0.750000
O O12 0.146287 0.500000 0.000000
O O13 0.377980 0.401003 0.750000
O O14 0.383924 0.500000 0.000000
#
# Coordination Sequence:
#
# PCOD9472177 Si02
#       5
#    16  16   8  16  16
#     4   9  19  37  58  81 113 148 185 231 286 344
#     4  11  21  35  55  80 114 154 195 236 284 334
#     4  10  20  38  65  90 114 148 183 226 289 348
#     4  10  20  34  51  77 110 145 182 226 275 331
#     4  11  22  39  58  81 115 153 197 241 285 342
#
# _framework density 20.665994999999999
#
# number of rings (size 3 to 8) (size 9 to 14) (size 15 to 20)
#    0.000    1.778    2.222    2.667    0.000    3.556 
#    0.000    2.778    0.000    0.000    0.000    0.000 
#    0.000    0.000    0.000    0.000    0.000    0.000 
#
# Total GULP energy -200870.211071 kJ/mol
# GULP energy per Si atom -5579.728085 kJ/mol
# Density = 2.061896 g / cm^3
# Si number density = 20.665995 Si / 1000 Ang^3
#
#
#
# Elastic Constant Matrix: (Units=GPa)
#
#
# Indices 1 2 3 4 5 6 
#
# 1 97.2229 69.2654 7.1231 0.0000 0.0000 0.0000
# 2 69.2654 217.4643 13.8546 0.0000 0.0000 0.0000
# 3 7.1231 13.8546 15.7461 0.0000 0.0000 0.0000
# 4 0.0000 0.0000 0.0000 33.8556 0.0000 0.0000
# 5 0.0000 0.0000 0.0000 0.0000 12.1589 0.0000
# 6 0.0000 0.0000 0.0000 0.0000 0.0000 32.0009
#
#
#
# Elastic Compliance Matrix: (Units=1/GPa)
#
#
# Indices 1 2 3 4 5 6 
#
# 1 0.013393 -0.004110 -0.002442 0.000000 0.000000 0.000000
# 2 -0.004110 0.006133 -0.003537 0.000000 0.000000 0.000000
# 3 -0.002442 -0.003537 0.067725 0.000000 0.000000 0.000000
# 4 0.000000 0.000000 0.000000 0.029537 0.000000 0.000000
# 5 0.000000 0.000000 0.000000 0.000000 0.082244 0.000000
# 6 0.000000 0.000000 0.000000 0.000000 0.000000 0.031249
#
#
# Mechanical properties :
#
#
# Convention : Reuss Voigt Hill
#
# Bulk Modulus (GPa) = 14.90934 56.76884 35.83909
# Shear Modulus (GPa) = 18.32731 31.61575 24.97153
#
# Velocity S-wave (km/s) = 2.98121 3.91557 3.47989
# Velocity P-wave (km/s) = 4.36809 6.92615 5.79015
#
# Compressibility (1/GPa) = 0.06707206
#
# Stress axis : x y z
#
# Youngs Moduli (GPa) = 74.66674 163.05349 14.76568
#
# Poissons Ratio (x) = 0.67019 0.03606
# Poissons Ratio (y) = 0.30690 0.05222
# Poissons Ratio (z) = 0.18234 0.57670
#
# Static dielectric constant tensor:
#      x y z
#    x 1.719250 0.000000 0.000000 
#    y 0.000000 1.780900 0.000000 
#    z 0.000000 0.000000 1.729190 
# 
# From -- ./inp_files/11679.got.cif
#   From: 2010.05.17/outbox.cif.g08.bks.cpg/sg63_6_cif.got.tgz:11679.got - 2010.06.03 15:47:04.
