data_PCOD9472531
_publ_section_title
;
Structure prediction by ZEFSAII (Michael W. Deem and Ramdas Pophale) SiO2 
 PCOD9472531
Probable space group: C M C M
;
_chemical_formula_sum "Si O2"
_cell_formula_units_Z 116
_cell_length_a 25.207075
_cell_length_b 29.731091
_cell_length_c 7.440903
_cell_angle_alpha 90.000000
_cell_angle_beta 90.000000
_cell_angle_gamma 90.000000
_cell_volume 5576.464513
_symmetry_space_group_name_H-M "C M C M"
_symmetry_group_IT_number 63
_symmetry_cell_setting 'orthorhombic'
loop_
_space_group_symop_operation_xyz
x,y,z
-x,-y,1/2+z
x,-y,-z
-x,y,1/2-z
-x,-y,-z
x,y,1/2-z
-x,y,z
x,-y,1/2+z
1/2+x,1/2+y,z
1/2-x,1/2-y,1/2+z
1/2+x,1/2-y,-z
1/2-x,1/2+y,1/2-z
1/2-x,1/2-y,-z
1/2+x,1/2+y,1/2-z
1/2-x,1/2+y,z
1/2+x,1/2-y,1/2+z
loop_
_atom_site_type_symbol
_atom_site_label
_atom_site_fract_x
_atom_site_fract_y
_atom_site_fract_z
Si Si1 0.788745 0.708115 0.536873
Si Si2 0.085234 0.820391 0.471382
Si Si3 0.910104 0.719209 0.045701
Si Si4 0.699884 0.645546 0.542686
Si Si5 0.500000 0.352501 0.750000
Si Si6 0.265638 0.449512 0.537179
Si Si7 0.940958 0.377889 0.970043
Si Si8 0.854924 0.550829 0.035265
O O1 0.798850 0.704421 0.750000
O O2 0.750000 0.750000 0.500000
O O3 0.846217 0.715045 0.452930
O O4 0.754900 0.665448 0.466747
O O5 0.080102 0.824516 0.250000
O O6 0.075307 0.768249 0.525934
O O7 0.145620 0.832931 0.524339
O O8 0.045887 0.849681 0.589939
O O9 0.929838 0.719883 0.250000
O O10 0.931662 0.673049 0.964718
O O11 0.701688 0.659652 0.750000
O O12 0.700295 0.591925 0.532528
O O13 0.284839 0.500000 0.500000
O O14 0.263540 0.444179 0.750000
O O15 0.205296 0.445734 0.464058
O O16 0.938200 0.377120 0.750000
O O17 0.895045 0.411459 0.032971
O O18 0.000000 0.393116 0.018812
O O19 0.851789 0.556107 0.250000
O O20 0.873793 0.500000 0.000000
#
# Coordination Sequence:
#
# PCOD9472531 Si02
#       8
#    16  16  16  16   4  16  16  16
#     4  11  21  33  53  80 114 153 191 237 290 355
#     4  10  23  41  61  87 119 158 202 250 299 350
#     4  10  20  36  54  77 112 151 196 244 299 351
#     4  10  21  37  56  85 123 155 192 241 296 357
#     4  12  26  40  64  86 118 160 206 252 290 350
#     4  10  20  34  57  86 118 151 186 232 293 363
#     4   9  18  32  52  74  98 143 198 243 289 345
#     4   9  18  33  52  76 105 141 187 236 292 355
#
# _framework density 20.801711000000001
#
# number of rings (size 3 to 8) (size 9 to 14) (size 15 to 20)
#    0.000    2.069    1.379    1.862    2.897    3.034 
#    0.000    0.690    0.000    0.828    0.000    0.483 
#    0.000    0.000    0.000    0.000    0.000    0.000 
#
# Total GULP energy -323262.582608 kJ/mol
# GULP energy per Si atom -5573.492804 kJ/mol
# Density = 2.075437 g / cm^3
# Si number density = 20.801711 Si / 1000 Ang^3
#
#
#
# Elastic Constant Matrix: (Units=GPa)
#
#
# Indices 1 2 3 4 5 6 
#
# 1 36.1387 -0.9174 4.5592 0.0000 0.0000 0.0000
# 2 -0.9174 84.0147 -9.1188 0.0000 0.0000 0.0000
# 3 4.5592 -9.1188 83.7936 0.0000 0.0000 0.0000
# 4 0.0000 0.0000 0.0000 12.9192 0.0000 0.0000
# 5 0.0000 0.0000 0.0000 0.0000 19.2277 0.0000
# 6 0.0000 0.0000 0.0000 0.0000 0.0000 13.5671
#
#
#
# Elastic Compliance Matrix: (Units=1/GPa)
#
#
# Indices 1 2 3 4 5 6 
#
# 1 0.027864 0.000141 -0.001501 0.000000 0.000000 0.000000
# 2 0.000141 0.012046 0.001303 0.000000 0.000000 0.000000
# 3 -0.001501 0.001303 0.012158 0.000000 0.000000 0.000000
# 4 0.000000 0.000000 0.000000 0.077404 0.000000 0.000000
# 5 0.000000 0.000000 0.000000 0.000000 0.052008 0.000000
# 6 0.000000 0.000000 0.000000 0.000000 0.000000 0.073708
#
#
# Mechanical properties :
#
#
# Convention : Reuss Voigt Hill
#
# Bulk Modulus (GPa) = 19.24743 21.44367 20.34555
# Shear Modulus (GPa) = 18.34066 23.10439 20.72253
#
# Velocity S-wave (km/s) = 2.97255 3.33633 3.15968
# Velocity P-wave (km/s) = 4.58850 5.01721 4.80764
#
# Compressibility (1/GPa) = 0.05195499
#
# Stress axis : x y z
#
# Youngs Moduli (GPa) = 35.88851 83.01739 82.25334
#
# Poissons Ratio (x) = -0.01174 0.12344
# Poissons Ratio (y) = -0.00507 -0.10719
# Poissons Ratio (z) = 0.05386 -0.10819
#
# Static dielectric constant tensor:
#      x y z
#    x 1.740360 0.000000 0.000000 
#    y 0.000000 1.878730 0.000000 
#    z 0.000000 0.000000 1.800320 
# 
# From -- ./inp_files/11208.got.cif
#   From: 2010.05.17/outbox.cif.g08.bks.cpg/sg63_6_cif.got.tgz:11208.got - 2010.06.03 15:47:04.
