data_PCOD9472719
_publ_section_title
;
Structure prediction by ZEFSAII (Michael W. Deem and Ramdas Pophale) SiO2 
 PCOD9472719
Probable space group: C M C M
;
_chemical_formula_sum "Si O2"
_cell_formula_units_Z 72
_cell_length_a 31.792231
_cell_length_b 9.604862
_cell_length_c 14.256678
_cell_angle_alpha 90.000000
_cell_angle_beta 90.000000
_cell_angle_gamma 90.000000
_cell_volume 4353.419072
_symmetry_space_group_name_H-M "C M C M"
_symmetry_group_IT_number 63
_symmetry_cell_setting 'orthorhombic'
loop_
_space_group_symop_operation_xyz
x,y,z
-x,-y,1/2+z
x,-y,-z
-x,y,1/2-z
-x,-y,-z
x,y,1/2-z
-x,y,z
x,-y,1/2+z
1/2+x,1/2+y,z
1/2-x,1/2-y,1/2+z
1/2+x,1/2-y,-z
1/2-x,1/2+y,1/2-z
1/2-x,1/2-y,-z
1/2+x,1/2+y,1/2-z
1/2-x,1/2+y,z
1/2+x,1/2-y,1/2+z
loop_
_atom_site_type_symbol
_atom_site_label
_atom_site_fract_x
_atom_site_fract_y
_atom_site_fract_z
Si Si1 0.571191 0.668580 0.750000
Si Si2 0.665379 0.775527 0.250000
Si Si3 0.798928 0.500000 0.612334
Si Si4 0.000000 0.169157 0.394774
Si Si5 0.500000 0.669157 0.605226
Si Si6 0.221708 0.000000 0.750000
Si Si7 0.334621 0.224473 0.250000
Si Si8 0.571190 0.668581 0.250000
O O1 0.541947 0.708099 0.661651
O O2 0.616429 0.738131 0.750000
O O3 0.576271 0.500000 0.750000
O O4 0.678038 0.867094 0.159178
O O5 0.693086 0.636367 0.250000
O O6 0.616429 0.738131 0.250000
O O7 0.798472 0.500000 0.500000
O O8 0.752553 0.500000 0.659639
O O9 0.821962 0.367094 0.659178
O O10 0.000000 0.221618 0.500000
O O11 0.041947 0.208100 0.338349
O O12 0.000000 0.000000 0.395820
O O13 0.193086 0.136367 0.750000
#
# Coordination Sequence:
#
# PCOD9472719 Si02
#       8
#     8   8  16   8   8   8   8   8
#     4   9  16  29  50  75 103 133 165 209 258 299
#     4  10  20  35  56  79 103 135 177 215 253 308
#     4  10  22  38  52  72 108 145 170 207 264 312
#     4   8  15  27  44  71 107 135 158 201 261 309
#     4   8  15  27  44  71 107 135 158 201 261 309
#     4  10  20  36  58  79 100 131 176 224 260 300
#     4  10  20  35  56  79 103 135 177 215 253 308
#     4   9  16  29  50  75 103 133 165 209 258 299
#
# _framework density 16.538723999999998
#
# number of rings (size 3 to 8) (size 9 to 14) (size 15 to 20)
#    0.000    2.889    1.111    4.000    0.000    5.333 
#    0.000    0.000    0.000   10.667    0.000   12.444 
#    0.000    0.000    0.000    0.000    0.000    0.000 
#
# Total GULP energy -200583.643219 kJ/mol
# GULP energy per Si atom -5571.767867 kJ/mol
# Density = 1.650108 g / cm^3
# Si number density = 16.538724 Si / 1000 Ang^3
#
#
#
# Elastic Constant Matrix: (Units=GPa)
#
#
# Indices 1 2 3 4 5 6 
#
# 1 190.9219 70.1201 91.0521 0.0000 0.0000 0.0000
# 2 70.1201 92.8384 55.6698 0.0000 0.0000 0.0000
# 3 91.0521 55.6698 190.9372 0.0000 0.0000 0.0000
# 4 0.0000 0.0000 0.0000 6.8405 0.0000 0.0000
# 5 0.0000 0.0000 0.0000 0.0000 2.4185 0.0000
# 6 0.0000 0.0000 0.0000 0.0000 0.0000 195.0032
#
#
#
# Elastic Compliance Matrix: (Units=1/GPa)
#
#
# Indices 1 2 3 4 5 6 
#
# 1 0.008149 -0.004635 -0.002535 0.000000 0.000000 0.000000
# 2 -0.004635 0.015690 -0.002364 0.000000 0.000000 0.000000
# 3 -0.002535 -0.002364 0.007135 0.000000 0.000000 0.000000
# 4 0.000000 0.000000 0.000000 0.146189 0.000000 0.000000
# 5 0.000000 0.000000 0.000000 0.000000 0.413471 0.000000
# 6 0.000000 0.000000 0.000000 0.000000 0.000000 0.005128
#
#
# Mechanical properties :
#
#
# Convention : Reuss Voigt Hill
#
# Bulk Modulus (GPa) = 83.98816 100.93128 92.45972
# Shear Modulus (GPa) = 8.08017 58.04281 33.06149
#
# Velocity S-wave (km/s) = 2.21274 5.93054 4.47591
# Velocity P-wave (km/s) = 7.57768 10.39494 9.09604
#
# Compressibility (1/GPa) = 0.01190644
#
# Stress axis : x y z
#
# Youngs Moduli (GPa) = 122.71851 63.73560 140.14811
#
# Poissons Ratio (x) = 0.29541 0.35521
# Poissons Ratio (y) = 0.56878 0.33135
# Poissons Ratio (z) = 0.31103 0.15069
#
# Static dielectric constant tensor:
#      x y z
#    x 1.533240 0.000000 0.000000 
#    y 0.000000 1.555380 0.000000 
#    z 0.000000 0.000000 1.551210 
# 
# From -- ./inp_files/38379.got.cif
#   From: 2010.05.17/outbox.cif.g08.bks.cpg/sg63_20_cif.got.tgz:38379.got - 2010.06.03 15:47:04.
