data_PCOD9472583
_publ_section_title
;
Structure prediction by ZEFSAII (Michael W. Deem and Ramdas Pophale) SiO2 
 PCOD9472583
Probable space group: C M C M
;
_chemical_formula_sum "Si O2"
_cell_formula_units_Z 104
_cell_length_a 22.558237
_cell_length_b 30.992539
_cell_length_c 9.039205
_cell_angle_alpha 90.000000
_cell_angle_beta 90.000000
_cell_angle_gamma 90.000000
_cell_volume 6319.643028
_symmetry_space_group_name_H-M "C M C M"
_symmetry_group_IT_number 63
_symmetry_cell_setting 'orthorhombic'
loop_
_space_group_symop_operation_xyz
x,y,z
-x,-y,1/2+z
x,-y,-z
-x,y,1/2-z
-x,-y,-z
x,y,1/2-z
-x,y,z
x,-y,1/2+z
1/2+x,1/2+y,z
1/2-x,1/2-y,1/2+z
1/2+x,1/2-y,-z
1/2-x,1/2+y,1/2-z
1/2-x,1/2-y,-z
1/2+x,1/2+y,1/2-z
1/2-x,1/2+y,z
1/2+x,1/2-y,1/2+z
loop_
_atom_site_type_symbol
_atom_site_label
_atom_site_fract_x
_atom_site_fract_y
_atom_site_fract_z
Si Si1 0.352220 0.545338 0.427138
Si Si2 0.929519 0.309967 0.571780
Si Si3 0.615380 0.895937 0.427539
Si Si4 0.568940 0.625921 0.072030
Si Si5 0.500000 0.953053 0.072693
Si Si6 0.787219 0.545832 0.426910
Si Si7 0.428018 0.286045 0.421338
O O1 0.369549 0.500000 0.500000
O O2 0.358699 0.541477 0.250000
O O3 0.391666 0.585597 0.478293
O O4 0.282554 0.552936 0.457879
O O5 0.922786 0.313296 0.750000
O O6 0.896399 0.348344 0.490011
O O7 0.909434 0.261678 0.526919
O O8 0.000000 0.313920 0.540256
O O9 0.620446 0.895345 0.250000
O O10 0.558314 0.925555 0.467577
O O11 0.672325 0.917636 0.501550
O O12 0.570740 0.627294 0.250000
O O13 0.500000 0.620187 0.027435
O O14 0.590742 0.671927 0.011102
O O15 0.500000 0.958209 0.250000
O O16 0.500000 0.000000 0.000000
O O17 0.803812 0.500000 0.500000
O O18 0.795536 0.543915 0.250000
O O19 0.410813 0.290928 0.250000
O O20 0.500000 0.285082 0.426125
#
# Coordination Sequence:
#
# PCOD9472583 Si02
#       7
#    16  16  16  16   8  16  16
#     4   9  19  34  51  72  99 129 163 200 236 282
#     4   9  17  30  48  70  97 129 162 197 242 291
#     4  11  21  33  48  70  97 125 161 203 246 291
#     4   9  17  30  49  75 104 131 158 191 238 289
#     4  10  22  34  44  64  94 124 152 192 243 290
#     4  10  20  35  52  69  91 125 166 204 241 283
#     4   8  15  28  46  70  99 129 161 195 233 284
#
# _framework density 16.456624999999999
#
# number of rings (size 3 to 8) (size 9 to 14) (size 15 to 20)
#    0.000    2.615    0.769    2.308    0.000    4.615 
#    0.000    1.538    0.000    0.923    0.000    0.000 
#    0.000    0.000    0.000    0.000    0.000    0.000 
#
# Total GULP energy -289887.099431 kJ/mol
# GULP energy per Si atom -5574.751912 kJ/mol
# Density = 1.641917 g / cm^3
# Si number density = 16.456625 Si / 1000 Ang^3
#
#
#
# Elastic Constant Matrix: (Units=GPa)
#
#
# Indices 1 2 3 4 5 6 
#
# 1 48.8503 71.4978 32.9982 0.0000 0.0000 0.0000
# 2 71.4978 191.1080 57.8389 0.0000 0.0000 0.0000
# 3 32.9982 57.8389 33.2692 0.0000 0.0000 0.0000
# 4 0.0000 0.0000 0.0000 35.1257 0.0000 0.0000
# 5 0.0000 0.0000 0.0000 0.0000 17.6600 0.0000
# 6 0.0000 0.0000 0.0000 0.0000 0.0000 17.2714
#
#
#
# Elastic Compliance Matrix: (Units=1/GPa)
#
#
# Indices 1 2 3 4 5 6 
#
# 1 0.071859 -0.011213 -0.051780 0.000000 0.000000 0.000000
# 2 -0.011213 0.012793 -0.011119 0.000000 0.000000 0.000000
# 3 -0.051780 -0.011119 0.100746 0.000000 0.000000 0.000000
# 4 0.000000 0.000000 0.000000 0.028469 0.000000 0.000000
# 5 0.000000 0.000000 0.000000 0.000000 0.056625 0.000000
# 6 0.000000 0.000000 0.000000 0.000000 0.000000 0.057899
#
#
# Mechanical properties :
#
#
# Convention : Reuss Voigt Hill
#
# Bulk Modulus (GPa) = 26.90002 66.43303 46.66652
# Shear Modulus (GPa) = 10.22483 21.40428 15.81455
#
# Velocity S-wave (km/s) = 2.49533 3.61036 3.10334
# Velocity P-wave (km/s) = 4.96827 7.60499 6.42338
#
# Compressibility (1/GPa) = 0.03717470
#
# Stress axis : x y z
#
# Youngs Moduli (GPa) = 13.91616 78.16935 9.92594
#
# Poissons Ratio (x) = 0.87650 0.51396
# Poissons Ratio (y) = 0.15604 0.11037
# Poissons Ratio (z) = 0.72058 0.86915
#
# Static dielectric constant tensor:
#      x y z
#    x 1.543970 0.000000 0.000000 
#    y 0.000000 1.548210 0.000000 
#    z 0.000000 0.000000 1.549270 
# 
# From -- ./inp_files/10828.got.cif
#   From: 2010.05.17/outbox.cif.g08.bks.cpg/sg63_6_cif.got.tgz:10828.got - 2010.06.03 15:47:04.
