data_PCOD9472178
_publ_section_title
;
Structure prediction by ZEFSAII (Michael W. Deem and Ramdas Pophale) SiO2 
 PCOD9472178
Probable space group: C M C M
;
_chemical_formula_sum "Si O2"
_cell_formula_units_Z 96
_cell_length_a 27.851983
_cell_length_b 21.175534
_cell_length_c 7.770608
_cell_angle_alpha 90.000000
_cell_angle_beta 90.000000
_cell_angle_gamma 90.000000
_cell_volume 4582.953949
_symmetry_space_group_name_H-M "C M C M"
_symmetry_group_IT_number 63
_symmetry_cell_setting 'orthorhombic'
loop_
_space_group_symop_operation_xyz
x,y,z
-x,-y,1/2+z
x,-y,-z
-x,y,1/2-z
-x,-y,-z
x,y,1/2-z
-x,y,z
x,-y,1/2+z
1/2+x,1/2+y,z
1/2-x,1/2-y,1/2+z
1/2+x,1/2-y,-z
1/2-x,1/2+y,1/2-z
1/2-x,1/2-y,-z
1/2+x,1/2+y,1/2-z
1/2-x,1/2+y,z
1/2+x,1/2-y,1/2+z
loop_
_atom_site_type_symbol
_atom_site_label
_atom_site_fract_x
_atom_site_fract_y
_atom_site_fract_z
Si Si1 0.703867 0.787347 0.555453
Si Si2 0.945445 0.304175 0.957549
Si Si3 0.714053 0.919165 0.442214
Si Si4 0.883675 0.190347 0.550825
Si Si5 0.323723 0.570864 0.957486
Si Si6 0.610653 0.066717 0.545038
O O1 0.708187 0.811901 0.750000
O O2 0.750000 0.750000 0.500000
O O3 0.702265 0.845554 0.430171
O O4 0.660184 0.739626 0.551581
O O5 0.944911 0.298390 0.750000
O O6 0.924715 0.236694 0.024698
O O7 0.000000 0.313672 0.016408
O O8 0.914783 0.367619 0.994455
O O9 0.717531 0.947611 0.250000
O O10 0.767777 0.924480 0.519516
O O11 0.664568 0.938701 0.534167
O O12 0.897216 0.175654 0.750000
O O13 0.860080 0.125684 0.477552
O O14 0.321242 0.579659 0.750000
O O15 0.340207 0.500000 0.000000
O O16 0.615609 0.069168 0.750000
O O17 0.585379 0.000000 0.500000
#
# Coordination Sequence:
#
# PCOD9472178 Si02
#       6
#    16  16  16  16  16  16
#     4  11  19  30  51  77 108 142 181 222 264 317
#     4  10  21  39  62  84 104 134 182 232 282 335
#     4  10  20  34  51  77 111 147 183 221 260 309
#     4   9  18  34  55  77 106 141 175 223 275 321
#     4  10  20  35  52  76 112 146 181 218 260 317
#     4  11  23  37  56  81 114 149 185 224 269 323
#
# _framework density 20.947189000000002
#
# number of rings (size 3 to 8) (size 9 to 14) (size 15 to 20)
#    0.000    1.833    3.333    1.500    0.000    2.000 
#    0.000    0.833    0.000    0.500    0.000    0.000 
#    0.000    0.000    0.000    0.000    0.000    0.000 
#
# Total GULP energy -267252.395886 kJ/mol
# GULP energy per Si atom -5567.758248 kJ/mol
# Density = 2.089951 g / cm^3
# Si number density = 20.947189 Si / 1000 Ang^3
#
#
#
# Elastic Constant Matrix: (Units=GPa)
#
#
# Indices 1 2 3 4 5 6 
#
# 1 104.5588 65.8332 5.9477 0.0000 0.0000 0.0000
# 2 65.8332 175.6343 11.3443 0.0000 0.0000 0.0000
# 3 5.9477 11.3443 53.9601 0.0000 0.0000 0.0000
# 4 0.0000 0.0000 0.0000 19.3369 0.0000 0.0000
# 5 0.0000 0.0000 0.0000 0.0000 5.5775 0.0000
# 6 0.0000 0.0000 0.0000 0.0000 0.0000 10.7548
#
#
#
# Elastic Compliance Matrix: (Units=1/GPa)
#
#
# Indices 1 2 3 4 5 6 
#
# 1 0.012527 -0.004670 -0.000399 0.000000 0.000000 0.000000
# 2 -0.004670 0.007513 -0.001065 0.000000 0.000000 0.000000
# 3 -0.000399 -0.001065 0.018800 0.000000 0.000000 0.000000
# 4 0.000000 0.000000 0.000000 0.051715 0.000000 0.000000
# 5 0.000000 0.000000 0.000000 0.000000 0.179293 0.000000
# 6 0.000000 0.000000 0.000000 0.000000 0.000000 0.092982
#
#
# Mechanical properties :
#
#
# Convention : Reuss Voigt Hill
#
# Bulk Modulus (GPa) = 37.63252 55.60039 46.61645
# Shear Modulus (GPa) = 13.02239 23.86902 18.44571
#
# Velocity S-wave (km/s) = 2.49605 3.37929 2.97068
# Velocity P-wave (km/s) = 5.12947 6.46737 5.83688
#
# Compressibility (1/GPa) = 0.02657276
#
# Stress axis : x y z
#
# Youngs Moduli (GPa) = 79.82846 133.10682 53.19137
#
# Poissons Ratio (x) = 0.62157 0.02123
# Poissons Ratio (y) = 0.37277 0.05663
# Poissons Ratio (z) = 0.03185 0.14172
#
# Static dielectric constant tensor:
#      x y z
#    x 1.765030 0.000000 0.000000 
#    y 0.000000 1.780070 0.000000 
#    z 0.000000 0.000000 1.872310 
# 
# From -- ./inp_files/12435.got.cif
#   From: 2010.05.17/outbox.cif.g08.bks.cpg/sg63_7_cif.got.tgz:12435.got - 2010.06.03 15:47:04.
