data_PCOD9472842
_publ_section_title
;
Structure prediction by ZEFSAII (Michael W. Deem and Ramdas Pophale) SiO2 
 PCOD9472842
Probable space group: C M C M
;
_chemical_formula_sum "Si O2"
_cell_formula_units_Z 64
_cell_length_a 9.638698
_cell_length_b 14.665100
_cell_length_c 19.894384
_cell_angle_alpha 90.000000
_cell_angle_beta 90.000000
_cell_angle_gamma 90.000000
_cell_volume 2812.120318
_symmetry_space_group_name_H-M "C M C M"
_symmetry_group_IT_number 63
_symmetry_cell_setting 'orthorhombic'
loop_
_space_group_symop_operation_xyz
x,y,z
-x,-y,1/2+z
x,-y,-z
-x,y,1/2-z
-x,-y,-z
x,y,1/2-z
-x,y,z
x,-y,1/2+z
1/2+x,1/2+y,z
1/2-x,1/2-y,1/2+z
1/2+x,1/2-y,-z
1/2-x,1/2+y,1/2-z
1/2-x,1/2-y,-z
1/2+x,1/2+y,1/2-z
1/2-x,1/2+y,z
1/2+x,1/2-y,1/2+z
loop_
_atom_site_type_symbol
_atom_site_label
_atom_site_fract_x
_atom_site_fract_y
_atom_site_fract_z
Si Si1 0.343939 0.395695 0.827401
Si Si2 0.341732 0.972263 0.092426
Si Si3 0.246845 0.691892 0.825475
Si Si4 0.344017 0.672748 0.533930
O O1 0.311858 0.421517 0.750000
O O2 0.500000 0.427471 0.842624
O O3 0.237450 0.440772 0.878430
O O4 0.336876 0.286301 0.829709
O O5 0.500000 0.990192 0.073927
O O6 0.339526 0.897174 0.153286
O O7 0.250129 0.918167 0.037143
O O8 0.302010 0.683262 0.750000
O O9 0.353934 0.696895 0.886813
O O10 0.500000 0.664047 0.505798
O O11 0.250000 0.750000 0.500000
#
# Coordination Sequence:
#
# PCOD9472842 Si02
#       4
#    16  16  16  16
#     4  10  20  35  57  88 124 160 200 246 299 360
#     4  10  21  37  59  87 121 158 198 245 298 353
#     4   9  21  38  62  89 120 159 201 247 300 358
#     4  10  22  40  63  89 120 160 203 249 303 362
#
# _framework density 22.758627000000001
#
# number of rings (size 3 to 8) (size 9 to 14) (size 15 to 20)
#    1.500    0.750    0.000    3.000    0.000    4.500 
#    0.000    3.750    0.000    6.000    0.000    0.000 
#    0.000    0.000    0.000    0.000    0.000    0.000 
#
# Total GULP energy -178455.647512 kJ/mol
# GULP energy per Si atom -5576.738985 kJ/mol
# Density = 2.270683 g / cm^3
# Si number density = 22.758627 Si / 1000 Ang^3
#
#
#
# Elastic Constant Matrix: (Units=GPa)
#
#
# Indices 1 2 3 4 5 6 
#
# 1 137.0385 9.4754 29.6580 0.0000 0.0000 0.0000
# 2 9.4754 86.3084 27.5245 0.0000 0.0000 0.0000
# 3 29.6580 27.5245 120.6597 0.0000 0.0000 0.0000
# 4 0.0000 0.0000 0.0000 43.7638 0.0000 0.0000
# 5 0.0000 0.0000 0.0000 0.0000 12.7641 0.0000
# 6 0.0000 0.0000 0.0000 0.0000 0.0000 6.2351
#
#
#
# Elastic Compliance Matrix: (Units=1/GPa)
#
#
# Indices 1 2 3 4 5 6 
#
# 1 0.007713 -0.000261 -0.001836 0.000000 0.000000 0.000000
# 2 -0.000261 0.012504 -0.002788 0.000000 0.000000 0.000000
# 3 -0.001836 -0.002788 0.009375 0.000000 0.000000 0.000000
# 4 0.000000 0.000000 0.000000 0.022850 0.000000 0.000000
# 5 0.000000 0.000000 0.000000 0.000000 0.078345 0.000000
# 6 0.000000 0.000000 0.000000 0.000000 0.000000 0.160382
#
#
# Mechanical properties :
#
#
# Convention : Reuss Voigt Hill
#
# Bulk Modulus (GPa) = 50.45188 53.03584 51.74386
# Shear Modulus (GPa) = 16.25767 31.04252 23.65009
#
# Velocity S-wave (km/s) = 2.67564 3.69723 3.22711
# Velocity P-wave (km/s) = 5.63576 6.44827 6.05566
#
# Compressibility (1/GPa) = 0.01982087
#
# Stress axis : x y z
#
# Youngs Moduli (GPa) = 129.65685 79.97303 106.66497
#
# Poissons Ratio (x) = 0.02089 0.19586
# Poissons Ratio (y) = 0.03386 0.29741
# Poissons Ratio (z) = 0.23807 0.22298
#
# Static dielectric constant tensor:
#      x y z
#    x 1.820750 0.000000 0.000000 
#    y 0.000000 1.831690 0.000000 
#    z 0.000000 0.000000 1.925940 
# 
# From -- ./inp_files/59064.got.cif
#   From: 2010.05.17/outbox.cif.g08.bks.cpg/sg63_30_cif.got.tgz:59064.got - 2010.06.03 15:47:04.
