data_PCOD9472532
_publ_section_title
;
Structure prediction by ZEFSAII (Michael W. Deem and Ramdas Pophale) SiO2 
 PCOD9472532
Probable space group: C M C M
;
_chemical_formula_sum "Si O2"
_cell_formula_units_Z 84
_cell_length_a 7.203452
_cell_length_b 25.159104
_cell_length_c 19.080935
_cell_angle_alpha 90.000000
_cell_angle_beta 90.000000
_cell_angle_gamma 90.000000
_cell_volume 3458.083607
_symmetry_space_group_name_H-M "C M C M"
_symmetry_group_IT_number 63
_symmetry_cell_setting 'orthorhombic'
loop_
_space_group_symop_operation_xyz
x,y,z
-x,-y,1/2+z
x,-y,-z
-x,y,1/2-z
-x,-y,-z
x,y,1/2-z
-x,y,z
x,-y,1/2+z
1/2+x,1/2+y,z
1/2-x,1/2-y,1/2+z
1/2+x,1/2-y,-z
1/2-x,1/2+y,1/2-z
1/2-x,1/2-y,-z
1/2+x,1/2+y,1/2-z
1/2-x,1/2+y,z
1/2+x,1/2-y,1/2+z
loop_
_atom_site_type_symbol
_atom_site_label
_atom_site_fract_x
_atom_site_fract_y
_atom_site_fract_z
Si Si1 0.224551 0.292814 0.876986
Si Si2 0.288618 0.931097 0.105600
Si Si3 0.500000 0.319677 0.750000
Si Si4 0.274271 0.960740 0.827771
Si Si5 0.224784 0.389724 0.540715
Si Si6 0.277650 0.318836 0.329313
O O1 0.337373 0.316021 0.811568
O O2 0.272237 0.328487 0.944398
O O3 0.273894 0.230421 0.878534
O O4 0.000000 0.296770 0.865490
O O5 0.500000 0.947944 0.090857
O O6 0.290664 0.876196 0.147791
O O7 0.213267 0.979756 0.150858
O O8 0.204810 0.916492 0.030300
O O9 0.208247 0.945952 0.750000
O O10 0.500000 0.959095 0.824767
O O11 0.217977 0.922670 0.890904
O O12 0.000000 0.391630 0.537077
O O13 0.216190 0.305933 0.250000
O O14 0.500000 0.322251 0.328945
#
# Coordination Sequence:
#
# PCOD9472532 Si02
#       6
#    16  16   4  16  16  16
#     4  10  22  39  60  89 124 159 200 246 307 360
#     4  10  20  34  57  87 115 150 201 248 293 359
#     4  12  22  36  64  94 118 156 202 260 296 352
#     4   9  17  30  55  88 114 149 199 249 297 356
#     4   9  19  36  57  81 120 161 191 242 309 360
#     4  10  21  37  57  80 115 156 194 239 297 359
#
# _framework density 24.29091
#
# number of rings (size 3 to 8) (size 9 to 14) (size 15 to 20)
#    0.000    2.286    0.952    1.429    2.667    4.190 
#    1.714    0.000    2.095    1.143    0.000    0.000 
#    0.000    0.000    0.000    0.000    0.000    0.000 
#
# Total GULP energy -234248.773210 kJ/mol
# GULP energy per Si atom -5577.351743 kJ/mol
# Density = 2.423562 g / cm^3
# Si number density = 24.290910 Si / 1000 Ang^3
#
#
#
# Elastic Constant Matrix: (Units=GPa)
#
#
# Indices 1 2 3 4 5 6 
#
# 1 126.5897 -17.8753 -16.1061 0.0000 0.0000 0.0000
# 2 -17.8753 102.5435 23.3063 0.0000 0.0000 0.0000
# 3 -16.1061 23.3063 75.0962 0.0000 0.0000 0.0000
# 4 0.0000 0.0000 0.0000 43.5309 0.0000 0.0000
# 5 0.0000 0.0000 0.0000 0.0000 -10.1498 0.0000
# 6 0.0000 0.0000 0.0000 0.0000 0.0000 -1.1991
#
#
#
# Elastic Compliance Matrix: (Units=1/GPa)
#
#
# Indices 1 2 3 4 5 6 
#
# 1 0.008238 0.001113 0.001421 0.000000 0.000000 0.000000
# 2 0.001113 0.010642 -0.003064 0.000000 0.000000 0.000000
# 3 0.001421 -0.003064 0.014572 0.000000 0.000000 0.000000
# 4 0.000000 0.000000 0.000000 0.022972 0.000000 0.000000
# 5 0.000000 0.000000 0.000000 0.000000 -0.098525 0.000000
# 6 0.000000 0.000000 0.000000 0.000000 0.000000 -0.833952
#
#
# Mechanical properties :
#
#
# Convention : Reuss Voigt Hill
#
# Bulk Modulus (GPa) = 30.87176 31.43103 31.15139
# Shear Modulus (GPa) = -5.78573 27.43004 10.82216
#
# Velocity S-wave (km/s) = -1.54500 3.36405 2.11303
# Velocity P-wave (km/s) = 3.09097 5.29685 4.33651
#
# Compressibility (1/GPa) = 0.03239207
#
# Stress axis : x y z
#
# Youngs Moduli (GPa) = 121.39572 93.96373 68.62437
#
# Poissons Ratio (x) = -0.10457 -0.09754
# Poissons Ratio (y) = -0.13510 0.21028
# Poissons Ratio (z) = -0.17254 0.28792
#
# Static dielectric constant tensor:
#      x y z
#    x 1.977060 0.000000 0.000000 
#    y 0.000000 1.932390 0.000000 
#    z 0.000000 0.000000 1.881180 
# 
# From -- ./inp_files/51187.got.cif
#   From: 2010.05.17/outbox.cif.g08.bks.cpg/sg63_26_cif.got.tgz:51187.got - 2010.06.03 15:47:04.
