data_PCOD9472041
_publ_section_title
;
Structure prediction by ZEFSAII (Michael W. Deem and Ramdas Pophale) SiO2 
 PCOD9472041
Probable space group: C M C M
;
_chemical_formula_sum "Si O2"
_cell_formula_units_Z 88
_cell_length_a 18.999660
_cell_length_b 29.063226
_cell_length_c 7.610675
_cell_angle_alpha 90.000000
_cell_angle_beta 90.000000
_cell_angle_gamma 90.000000
_cell_volume 4202.549378
_symmetry_space_group_name_H-M "C M C M"
_symmetry_group_IT_number 63
_symmetry_cell_setting 'orthorhombic'
loop_
_space_group_symop_operation_xyz
x,y,z
-x,-y,1/2+z
x,-y,-z
-x,y,1/2-z
-x,-y,-z
x,y,1/2-z
-x,y,z
x,-y,1/2+z
1/2+x,1/2+y,z
1/2-x,1/2-y,1/2+z
1/2+x,1/2-y,-z
1/2-x,1/2+y,1/2-z
1/2-x,1/2-y,-z
1/2+x,1/2+y,1/2-z
1/2-x,1/2+y,z
1/2+x,1/2-y,1/2+z
loop_
_atom_site_type_symbol
_atom_site_label
_atom_site_fract_x
_atom_site_fract_y
_atom_site_fract_z
Si Si1 0.921692 0.053674 0.959015
Si Si2 0.639913 0.896554 0.545867
Si Si3 0.500000 0.053933 0.038442
Si Si4 0.681195 0.719980 0.039417
Si Si5 0.080919 0.298487 0.036527
Si Si6 0.791749 0.882158 0.542283
O O1 0.923223 0.058850 0.750000
O O2 0.000000 0.066044 0.027996
O O3 0.858063 0.084627 0.024949
O O4 0.910068 0.000000 0.000000
O O5 0.642660 0.911054 0.750000
O O6 0.571793 0.922519 0.468588
O O7 0.623337 0.842262 0.533627
O O8 0.718277 0.902404 0.468948
O O9 0.500000 0.061021 0.250000
O O10 0.500000 0.000000 0.000000
O O11 0.673490 0.716420 0.250000
O O12 0.615871 0.750799 0.976886
O O13 0.690293 0.668448 0.968602
O O14 0.750000 0.750000 0.000000
O O15 0.083941 0.300420 0.250000
O O16 0.000000 0.302379 0.982655
O O17 0.778268 0.875589 0.750000
#
# Coordination Sequence:
#
# PCOD9472041 Si02
#       6
#    16  16   8  16  16  16
#     4  10  22  41  64  88 115 149 189 235 290 351
#     4  10  20  36  57  81 109 147 192 235 284 339
#     4  10  22  38  56  78 110 146 188 240 287 336
#     4  10  20  34  54  81 114 151 189 231 278 330
#     4  10  20  33  52  80 111 147 192 233 274 330
#     4  10  21  36  58  88 119 152 191 237 288 343
#
# _framework density 20.939671000000001
#
# number of rings (size 3 to 8) (size 9 to 14) (size 15 to 20)
#    0.000    2.000    2.727    0.545    0.000    4.727 
#    0.000    3.636    0.000    0.000    0.000    0.000 
#    0.000    0.000    0.000    0.000    0.000    0.000 
#
# Total GULP energy -245624.548776 kJ/mol
# GULP energy per Si atom -5582.376109 kJ/mol
# Density = 2.089201 g / cm^3
# Si number density = 20.939671 Si / 1000 Ang^3
#
#
#
# Elastic Constant Matrix: (Units=GPa)
#
#
# Indices 1 2 3 4 5 6 
#
# 1 179.1276 84.6167 -9.4573 0.0000 0.0000 0.0000
# 2 84.6167 109.1068 -11.7072 0.0000 0.0000 0.0000
# 3 -9.4573 -11.7072 38.4840 0.0000 0.0000 0.0000
# 4 0.0000 0.0000 0.0000 20.8258 0.0000 0.0000
# 5 0.0000 0.0000 0.0000 0.0000 14.0704 0.0000
# 6 0.0000 0.0000 0.0000 0.0000 0.0000 37.4670
#
#
#
# Elastic Compliance Matrix: (Units=1/GPa)
#
#
# Indices 1 2 3 4 5 6 
#
# 1 0.008811 -0.006823 0.000089 0.000000 0.000000 0.000000
# 2 -0.006823 0.014759 0.002813 0.000000 0.000000 0.000000
# 3 0.000089 0.002813 0.026863 0.000000 0.000000 0.000000
# 4 0.000000 0.000000 0.000000 0.048017 0.000000 0.000000
# 5 0.000000 0.000000 0.000000 0.000000 0.071071 0.000000
# 6 0.000000 0.000000 0.000000 0.000000 0.000000 0.026690
#
#
# Mechanical properties :
#
#
# Convention : Reuss Voigt Hill
#
# Bulk Modulus (GPa) = 23.47953 50.40253 36.94103
# Shear Modulus (GPa) = 22.90955 32.02371 27.46663
#
# Velocity S-wave (km/s) = 3.31127 3.91491 3.62567
# Velocity P-wave (km/s) = 5.08494 6.67518 5.93357
#
# Compressibility (1/GPa) = 0.04259029
#
# Stress axis : x y z
#
# Youngs Moduli (GPa) = 113.50011 67.75550 37.22651
#
# Poissons Ratio (x) = 0.46232 -0.00333
# Poissons Ratio (y) = 0.77445 -0.10472
# Poissons Ratio (z) = -0.01015 -0.19060
#
# Static dielectric constant tensor:
#      x y z
#    x 1.774440 0.000000 0.000000 
#    y 0.000000 1.719090 0.000000 
#    z 0.000000 0.000000 1.766980 
# 
# From -- ./inp_files/6851.got.cif
#   From: 2010.05.17/outbox.cif.g08.bks.cpg/sg63_4_cif.got.tgz:6851.got - 2010.06.03 15:47:04.
