data_PCOD9472011
_publ_section_title
;
Structure prediction by ZEFSAII (Michael W. Deem and Ramdas Pophale) SiO2 
 PCOD9472011
Probable space group: C M C M
;
_chemical_formula_sum "Si O2"
_cell_formula_units_Z 80
_cell_length_a 8.980731
_cell_length_b 19.649653
_cell_length_c 26.226232
_cell_angle_alpha 90.000000
_cell_angle_beta 90.000000
_cell_angle_gamma 90.000000
_cell_volume 4628.097208
_symmetry_space_group_name_H-M "C M C M"
_symmetry_group_IT_number 63
_symmetry_cell_setting 'orthorhombic'
loop_
_space_group_symop_operation_xyz
x,y,z
-x,-y,1/2+z
x,-y,-z
-x,y,1/2-z
-x,-y,-z
x,y,1/2-z
-x,y,z
x,-y,1/2+z
1/2+x,1/2+y,z
1/2-x,1/2-y,1/2+z
1/2+x,1/2-y,-z
1/2-x,1/2+y,1/2-z
1/2-x,1/2-y,-z
1/2+x,1/2+y,1/2-z
1/2-x,1/2+y,z
1/2+x,1/2-y,1/2+z
loop_
_atom_site_type_symbol
_atom_site_label
_atom_site_fract_x
_atom_site_fract_y
_atom_site_fract_z
Si Si1 0.677610 0.611259 0.033284
Si Si2 0.178610 0.373209 0.809241
Si Si3 0.177241 0.770793 0.886098
Si Si4 0.322477 0.990188 0.889166
Si Si5 0.321776 0.628693 0.914488
O O1 0.500000 0.597707 0.036530
O O2 0.708780 0.679713 0.065537
O O3 0.762910 0.550334 0.061283
O O4 0.717736 0.620850 0.974471
O O5 0.218426 0.378811 0.750000
O O6 0.259998 0.311368 0.837520
O O7 0.214040 0.441337 0.841311
O O8 0.000000 0.363189 0.813070
O O9 0.254581 0.698660 0.893914
O O10 0.000000 0.762675 0.882361
O O11 0.500000 0.997962 0.892117
O O12 0.244684 0.062942 0.886666
O O13 0.500000 0.629721 0.910515
#
# Coordination Sequence:
#
# PCOD9472011 Si02
#       5
#    16  16  16  16  16
#     4   9  19  34  51  73 104 142 177 208 249 304
#     4   9  19  38  60  77  97 129 168 210 258 311
#     4  10  20  34  53  78 105 133 171 215 255 300
#     4  10  20  33  52  78 104 133 172 215 257 304
#     4  11  21  33  50  74 108 144 173 207 253 303
#
# _framework density 17.285720999999999
#
# number of rings (size 3 to 8) (size 9 to 14) (size 15 to 20)
#    0.000    2.200    0.000    3.000    0.000    6.000 
#    0.000    1.000    0.000    3.600    0.000    0.000 
#    0.000    0.000    0.000    0.000    0.000    0.000 
#
# Total GULP energy -223365.494378 kJ/mol
# GULP energy per Si atom -5584.137359 kJ/mol
# Density = 1.724638 g / cm^3
# Si number density = 17.285721 Si / 1000 Ang^3
#
#
#
# Elastic Constant Matrix: (Units=GPa)
#
#
# Indices 1 2 3 4 5 6 
#
# 1 50.0293 66.0466 44.8256 0.0000 0.0000 0.0000
# 2 66.0466 146.6764 58.5881 0.0000 0.0000 0.0000
# 3 44.8256 58.5881 109.5539 0.0000 0.0000 0.0000
# 4 0.0000 0.0000 0.0000 5.5161 0.0000 0.0000
# 5 0.0000 0.0000 0.0000 0.0000 23.4264 0.0000
# 6 0.0000 0.0000 0.0000 0.0000 0.0000 36.6716
#
#
#
# Elastic Compliance Matrix: (Units=1/GPa)
#
#
# Indices 1 2 3 4 5 6 
#
# 1 0.061197 -0.022323 -0.013102 0.000000 0.000000 0.000000
# 2 -0.022323 0.016813 0.000143 0.000000 0.000000 0.000000
# 3 -0.013102 0.000143 0.014412 0.000000 0.000000 0.000000
# 4 0.000000 0.000000 0.000000 0.181288 0.000000 0.000000
# 5 0.000000 0.000000 0.000000 0.000000 0.042687 0.000000
# 6 0.000000 0.000000 0.000000 0.000000 0.000000 0.027269
#
#
# Mechanical properties :
#
#
# Convention : Reuss Voigt Hill
#
# Bulk Modulus (GPa) = 45.74976 71.68671 58.71823
# Shear Modulus (GPa) = 11.86194 22.24276 17.05235
#
# Velocity S-wave (km/s) = 2.62244 3.59105 3.14427
# Velocity P-wave (km/s) = 5.97443 7.66524 6.87203
#
# Compressibility (1/GPa) = 0.02185804
#
# Stress axis : x y z
#
# Youngs Moduli (GPa) = 16.34061 59.47939 69.38483
#
# Poissons Ratio (x) = 1.32776 0.90906
# Poissons Ratio (y) = 0.36477 -0.00990
# Poissons Ratio (z) = 0.21409 -0.00849
#
# Static dielectric constant tensor:
#      x y z
#    x 1.573920 0.000000 0.000000 
#    y 0.000000 1.565320 0.000000 
#    z 0.000000 0.000000 1.567220 
# 
# From -- ./inp_files/66538.got.cif
#   From: 2010.05.17/outbox.cif.g08.bks.cpg/sg63_34_cif.got.tgz:66538.got - 2010.06.03 15:47:04.
