data_PCOD9472908
_publ_section_title
;
Structure prediction by ZEFSAII (Michael W. Deem and Ramdas Pophale) SiO2 
 PCOD9472908
Probable space group: C M C M
;
_chemical_formula_sum "Si O2"
_cell_formula_units_Z 112
_cell_length_a 15.176725
_cell_length_b 26.616103
_cell_length_c 13.813612
_cell_angle_alpha 90.000000
_cell_angle_beta 90.000000
_cell_angle_gamma 90.000000
_cell_volume 5579.943309
_symmetry_space_group_name_H-M "C M C M"
_symmetry_group_IT_number 63
_symmetry_cell_setting 'orthorhombic'
loop_
_space_group_symop_operation_xyz
x,y,z
-x,-y,1/2+z
x,-y,-z
-x,y,1/2-z
-x,-y,-z
x,y,1/2-z
-x,y,z
x,-y,1/2+z
1/2+x,1/2+y,z
1/2-x,1/2-y,1/2+z
1/2+x,1/2-y,-z
1/2-x,1/2+y,1/2-z
1/2-x,1/2-y,-z
1/2+x,1/2+y,1/2-z
1/2-x,1/2+y,z
1/2+x,1/2-y,1/2+z
loop_
_atom_site_type_symbol
_atom_site_label
_atom_site_fract_x
_atom_site_fract_y
_atom_site_fract_z
Si Si1 0.207975 0.633626 0.365279
Si Si2 0.595639 0.366231 0.634622
Si Si3 0.500000 0.624758 0.645918
Si Si4 0.600867 0.219009 0.031238
Si Si5 0.673228 0.692050 0.858822
Si Si6 0.500000 0.444745 0.961777
Si Si7 0.862015 0.646899 0.862800
Si Si8 0.601792 0.940342 0.987080
O O1 0.208638 0.630129 0.250000
O O2 0.307226 0.648741 0.398748
O O3 0.138933 0.674686 0.402090
O O4 0.172795 0.582438 0.412999
O O5 0.595723 0.361561 0.750000
O O6 0.500000 0.342685 0.601615
O O7 0.581658 0.424141 0.601768
O O8 0.500000 0.598413 0.750000
O O9 0.414115 0.659015 0.640096
O O10 0.500000 0.587292 0.558758
O O11 0.500000 0.231072 0.055784
O O12 0.660895 0.266341 0.058805
O O13 0.603056 0.194937 0.923900
O O14 0.680722 0.715682 0.750000
O O15 0.757171 0.656259 0.869623
O O16 0.500000 0.500000 0.000000
O O17 0.887611 0.646915 0.750000
O O18 0.887762 0.595414 0.917619
O O19 0.500000 0.933014 0.953904
O O20 0.614524 0.000000 0.000000
#
# Coordination Sequence:
#
# PCOD9472908 Si02
#       8
#    16  16   8  16  16   8  16  16
#     4  10  20  35  59  89 119 150 198 258 303 362
#     4   8  18  37  55  79 116 155 189 237 310 367
#     4  10  22  37  58  89 120 156 203 252 305 367
#     4  11  22  37  63  91 121 164 208 256 307 366
#     4  10  21  40  61  85 122 161 201 254 313 366
#     4  10  21  35  60  83 111 158 203 250 300 361
#     4  10  22  39  60  90 125 163 206 256 311 368
#     4  10  23  41  62  87 121 161 200 247 306 372
#
# _framework density 20.071888000000001
#
# number of rings (size 3 to 8) (size 9 to 14) (size 15 to 20)
#    0.429    1.714    0.714    2.571    4.000    4.571 
#    0.000    1.429    0.000    1.714    0.000    2.000 
#    0.000    0.000    0.000    0.000    0.000    0.000 
#
# Total GULP energy -312038.690433 kJ/mol
# GULP energy per Si atom -5572.119472 kJ/mol
# Density = 2.002620 g / cm^3
# Si number density = 20.071888 Si / 1000 Ang^3
#
#
#
# Elastic Constant Matrix: (Units=GPa)
#
#
# Indices 1 2 3 4 5 6 
#
# 1 116.8870 12.0866 26.8395 0.0000 0.0000 0.0000
# 2 12.0866 68.4759 34.8518 0.0000 0.0000 0.0000
# 3 26.8395 34.8518 98.3794 0.0000 0.0000 0.0000
# 4 0.0000 0.0000 0.0000 14.8782 0.0000 0.0000
# 5 0.0000 0.0000 0.0000 0.0000 39.6147 0.0000
# 6 0.0000 0.0000 0.0000 0.0000 0.0000 20.2993
#
#
#
# Elastic Compliance Matrix: (Units=1/GPa)
#
#
# Indices 1 2 3 4 5 6 
#
# 1 0.009137 -0.000420 -0.002344 0.000000 0.000000 0.000000
# 2 -0.000420 0.017835 -0.006204 0.000000 0.000000 0.000000
# 3 -0.002344 -0.006204 0.013002 0.000000 0.000000 0.000000
# 4 0.000000 0.000000 0.000000 0.067212 0.000000 0.000000
# 5 0.000000 0.000000 0.000000 0.000000 0.025243 0.000000
# 6 0.000000 0.000000 0.000000 0.000000 0.000000 0.049263
#
#
# Mechanical properties :
#
#
# Convention : Reuss Voigt Hill
#
# Bulk Modulus (GPa) = 45.37394 47.92202 46.64798
# Shear Modulus (GPa) = 24.15765 28.95607 26.55686
#
# Velocity S-wave (km/s) = 3.47299 3.80230 3.64137
# Velocity P-wave (km/s) = 6.22391 6.57295 6.40081
#
# Compressibility (1/GPa) = 0.02203908
#
# Stress axis : x y z
#
# Youngs Moduli (GPa) = 109.44631 56.06862 76.91147
#
# Poissons Ratio (x) = 0.02353 0.18028
# Poissons Ratio (y) = 0.04594 0.47714
# Poissons Ratio (z) = 0.25654 0.34784
#
# Static dielectric constant tensor:
#      x y z
#    x 1.743840 0.000000 0.000000 
#    y 0.000000 1.673510 0.000000 
#    z 0.000000 0.000000 1.750410 
# 
# From -- ./inp_files/32623.got.cif
#   From: 2010.05.17/outbox.cif.g08.bks.cpg/sg63_17_cif.got.tgz:32623.got - 2010.06.03 15:47:04.
