data_PCOD9472551
_publ_section_title
;
Structure prediction by ZEFSAII (Michael W. Deem and Ramdas Pophale) SiO2 
 PCOD9472551
Probable space group: C M C M
;
_chemical_formula_sum "Si O2"
_cell_formula_units_Z 120
_cell_length_a 14.161415
_cell_length_b 19.414766
_cell_length_c 19.395359
_cell_angle_alpha 90.000000
_cell_angle_beta 90.000000
_cell_angle_gamma 90.000000
_cell_volume 5332.570835
_symmetry_space_group_name_H-M "C M C M"
_symmetry_group_IT_number 63
_symmetry_cell_setting 'orthorhombic'
loop_
_space_group_symop_operation_xyz
x,y,z
-x,-y,1/2+z
x,-y,-z
-x,y,1/2-z
-x,-y,-z
x,y,1/2-z
-x,y,z
x,-y,1/2+z
1/2+x,1/2+y,z
1/2-x,1/2-y,1/2+z
1/2+x,1/2-y,-z
1/2-x,1/2+y,1/2-z
1/2-x,1/2-y,-z
1/2+x,1/2+y,1/2-z
1/2-x,1/2+y,z
1/2+x,1/2-y,1/2+z
loop_
_atom_site_type_symbol
_atom_site_label
_atom_site_fract_x
_atom_site_fract_y
_atom_site_fract_z
Si Si1 0.894045 0.402745 0.832716
Si Si2 0.308230 0.607236 0.122381
Si Si3 0.391533 0.712051 0.475348
Si Si4 0.369029 0.701986 0.250000
Si Si5 0.602950 0.689381 0.862946
Si Si6 0.390751 0.471706 0.330118
Si Si7 0.194057 0.299822 0.136778
Si Si8 0.895176 0.566428 0.832257
O O1 0.883196 0.391148 0.750000
O O2 0.802887 0.374599 0.871683
O O3 0.889172 0.485114 0.844755
O O4 0.000000 0.379367 0.852468
O O5 0.354225 0.639977 0.055105
O O6 0.355820 0.643375 0.188973
O O7 0.327748 0.526252 0.129338
O O8 0.500000 0.722700 0.453400
O O9 0.391915 0.710220 0.557326
O O10 0.326939 0.768602 0.437908
O O11 0.374840 0.761858 0.310276
O O12 0.500000 0.710622 0.834481
O O13 0.607972 0.606723 0.855795
O O14 0.701448 0.716669 0.833384
O O15 0.359998 0.470681 0.250000
O O16 0.500000 0.495812 0.332990
O O17 0.178372 0.381257 0.135374
O O18 0.887304 0.574018 0.750000
O O19 0.000000 0.588580 0.854506
#
# Coordination Sequence:
#
# PCOD9472551 Si02
#       8
#    16  16  16   8  16  16  16  16
#     4   9  17  30  52  79 113 149 182 225 280 342
#     4  11  19  36  55  82 118 151 183 229 285 340
#     4  10  23  40  57  81 113 154 195 234 278 336
#     4  10  22  32  50  84 114 140 182 226 284 338
#     4  10  23  41  59  82 114 151 197 238 275 332
#     4  10  20  34  58  88 114 145 183 236 292 339
#     4  11  20  36  58  82 112 153 184 233 285 339
#     4   9  17  30  52  85 114 142 181 230 285 335
#
# _framework density 22.503216999999999
#
# number of rings (size 3 to 8) (size 9 to 14) (size 15 to 20)
#    0.000    2.000    2.000    2.800    0.933    1.600 
#    0.000    7.333    0.000    1.600    0.000    2.800 
#    0.000    0.000    0.000    0.000    0.000    0.000 
#
# Total GULP energy -334124.473373 kJ/mol
# GULP energy per Si atom -5568.741223 kJ/mol
# Density = 2.245200 g / cm^3
# Si number density = 22.503217 Si / 1000 Ang^3
#
#
#
# Elastic Constant Matrix: (Units=GPa)
#
#
# Indices 1 2 3 4 5 6 
#
# 1 121.3721 3.9957 0.0810 0.0000 0.0000 0.0000
# 2 3.9957 64.9152 -11.9202 0.0000 0.0000 0.0000
# 3 0.0810 -11.9202 47.1239 0.0000 0.0000 0.0000
# 4 0.0000 0.0000 0.0000 0.5097 0.0000 0.0000
# 5 0.0000 0.0000 0.0000 0.0000 4.1257 0.0000
# 6 0.0000 0.0000 0.0000 0.0000 0.0000 6.8393
#
#
#
# Elastic Compliance Matrix: (Units=1/GPa)
#
#
# Indices 1 2 3 4 5 6 
#
# 1 0.008257 -0.000536 -0.000150 0.000000 0.000000 0.000000
# 2 -0.000536 0.016190 0.004096 0.000000 0.000000 0.000000
# 3 -0.000150 0.004096 0.022257 0.000000 0.000000 0.000000
# 4 0.000000 0.000000 0.000000 1.962105 0.000000 0.000000
# 5 0.000000 0.000000 0.000000 0.000000 0.242381 0.000000
# 6 0.000000 0.000000 0.000000 0.000000 0.000000 0.146214
#
#
# Mechanical properties :
#
#
# Convention : Reuss Voigt Hill
#
# Bulk Modulus (GPa) = 18.68272 24.19158 21.43715
# Shear Modulus (GPa) = 2.07605 18.37858 10.22731
#
# Velocity S-wave (km/s) = 0.96154 2.86091 2.13417
# Velocity P-wave (km/s) = 3.09079 4.65690 3.95220
#
# Compressibility (1/GPa) = 0.05352539
#
# Stress axis : x y z
#
# Youngs Moduli (GPa) = 121.11137 61.76705 44.92953
#
# Poissons Ratio (x) = 0.03309 0.00673
# Poissons Ratio (y) = 0.06488 -0.18404
# Poissons Ratio (z) = 0.01813 -0.25301
#
# Static dielectric constant tensor:
#      x y z
#    x 1.956570 0.000000 0.000000 
#    y 0.000000 1.854300 0.000000 
#    z 0.000000 0.000000 1.702860 
# 
# From -- ./inp_files/54752.got.cif
#   From: 2010.05.17/outbox.cif.g08.bks.cpg/sg63_28_cif.got.tgz:54752.got - 2010.06.03 15:47:04.
