data_PCOD9472729
_publ_section_title
;
Structure prediction by ZEFSAII (Michael W. Deem and Ramdas Pophale) SiO2 
 PCOD9472729
Probable space group: C M C M
;
_chemical_formula_sum "Si O2"
_cell_formula_units_Z 96
_cell_length_a 18.933391
_cell_length_b 31.017687
_cell_length_c 8.832165
_cell_angle_alpha 90.000000
_cell_angle_beta 90.000000
_cell_angle_gamma 90.000000
_cell_volume 5186.865503
_symmetry_space_group_name_H-M "C M C M"
_symmetry_group_IT_number 63
_symmetry_cell_setting 'orthorhombic'
loop_
_space_group_symop_operation_xyz
x,y,z
-x,-y,1/2+z
x,-y,-z
-x,y,1/2-z
-x,-y,-z
x,y,1/2-z
-x,y,z
x,-y,1/2+z
1/2+x,1/2+y,z
1/2-x,1/2-y,1/2+z
1/2+x,1/2-y,-z
1/2-x,1/2+y,1/2-z
1/2-x,1/2-y,-z
1/2+x,1/2+y,1/2-z
1/2-x,1/2+y,z
1/2+x,1/2-y,1/2+z
loop_
_atom_site_type_symbol
_atom_site_label
_atom_site_fract_x
_atom_site_fract_y
_atom_site_fract_z
Si Si1 0.917887 0.207765 0.429247
Si Si2 0.839091 0.128596 0.571965
Si Si3 0.326845 0.869518 0.071886
Si Si4 0.181459 0.275008 0.570451
Si Si5 0.416742 0.953391 0.067612
Si Si6 0.081436 0.956757 0.068464
O O1 0.912326 0.215900 0.250000
O O2 0.868241 0.168026 0.475609
O O3 0.886696 0.247831 0.520441
O O4 0.000000 0.198835 0.465315
O O5 0.855002 0.137413 0.750000
O O6 0.756184 0.120230 0.560840
O O7 0.878903 0.085884 0.521791
O O8 0.344262 0.862592 0.250000
O O9 0.372716 0.910810 0.018709
O O10 0.331127 0.823619 0.987874
O O11 0.190995 0.274849 0.750000
O O12 0.250000 0.250000 0.500000
O O13 0.410178 0.956097 0.250000
O O14 0.500000 0.947554 0.030381
O O15 0.394494 0.000000 0.000000
O O16 0.083120 0.959437 0.250000
O O17 0.000000 0.953690 0.019159
O O18 0.112927 0.000000 0.000000
#
# Coordination Sequence:
#
# PCOD9472729 Si02
#       6
#    16  16  16  16  16  16
#     4  11  24  40  60  87 117 151 194 242 293 352
#     4  10  20  35  56  80 110 149 191 239 290 349
#     4  10  21  37  59  87 117 154 198 244 299 357
#     4  12  24  40  62  87 119 158 199 246 300 358
#     4   9  19  37  60  86 120 160 202 251 306 361
#     4   9  18  32  49  71 101 139 182 228 281 336
#
# _framework density 18.508288
#
# number of rings (size 3 to 8) (size 9 to 14) (size 15 to 20)
#    0.000    1.833    1.667    2.500    0.000    4.667 
#    0.000    3.333    0.000    0.000    0.000    0.000 
#    0.000    0.000    0.000    0.000    0.000    0.000 
#
# Total GULP energy -267814.396032 kJ/mol
# GULP energy per Si atom -5579.466584 kJ/mol
# Density = 1.846616 g / cm^3
# Si number density = 18.508288 Si / 1000 Ang^3
#
#
#
# Elastic Constant Matrix: (Units=GPa)
#
#
# Indices 1 2 3 4 5 6 
#
# 1 63.4710 54.8825 35.5180 0.0000 0.0000 0.0000
# 2 54.8825 168.3622 55.7206 0.0000 0.0000 0.0000
# 3 35.5180 55.7206 59.0040 0.0000 0.0000 0.0000
# 4 0.0000 0.0000 0.0000 37.5234 0.0000 0.0000
# 5 0.0000 0.0000 0.0000 0.0000 25.6562 0.0000
# 6 0.0000 0.0000 0.0000 0.0000 0.0000 42.3972
#
#
#
# Elastic Compliance Matrix: (Units=1/GPa)
#
#
# Indices 1 2 3 4 5 6 
#
# 1 0.026208 -0.004832 -0.011213 0.000000 0.000000 0.000000
# 2 -0.004832 0.009531 -0.006092 0.000000 0.000000 0.000000
# 3 -0.011213 -0.006092 0.029450 0.000000 0.000000 0.000000
# 4 0.000000 0.000000 0.000000 0.026650 0.000000 0.000000
# 5 0.000000 0.000000 0.000000 0.000000 0.038977 0.000000
# 6 0.000000 0.000000 0.000000 0.000000 0.000000 0.023586
#
#
# Mechanical properties :
#
#
# Convention : Reuss Voigt Hill
#
# Bulk Modulus (GPa) = 47.81071 64.78659 56.29865
# Shear Modulus (GPa) = 24.31329 30.76310 27.53820
#
# Velocity S-wave (km/s) = 3.62835 4.08134 3.86150
# Velocity P-wave (km/s) = 6.59101 7.56901 7.09688
#
# Compressibility (1/GPa) = 0.02091582
#
# Stress axis : x y z
#
# Youngs Moduli (GPa) = 38.15567 104.92195 33.95545
#
# Poissons Ratio (x) = 0.50703 0.38074
# Poissons Ratio (y) = 0.18438 0.20684
# Poissons Ratio (z) = 0.42784 0.63914
#
# Static dielectric constant tensor:
#      x y z
#    x 1.638320 0.000000 0.000000 
#    y 0.000000 1.640140 0.000000 
#    z 0.000000 0.000000 1.634170 
# 
# From -- ./inp_files/8618.got.cif
#   From: 2010.05.17/outbox.cif.g08.bks.cpg/sg63_5_cif.got.tgz:8618.got - 2010.06.03 15:47:04.
