data_PCOD9472830
_publ_section_title
;
Structure prediction by ZEFSAII (Michael W. Deem and Ramdas Pophale) SiO2 
 PCOD9472830
Probable space group: C M C M
;
_chemical_formula_sum "Si O2"
_cell_formula_units_Z 64
_cell_length_a 7.804369
_cell_length_b 26.545820
_cell_length_c 13.979147
_cell_angle_alpha 90.000000
_cell_angle_beta 90.000000
_cell_angle_gamma 90.000000
_cell_volume 2896.107059
_symmetry_space_group_name_H-M "C M C M"
_symmetry_group_IT_number 63
_symmetry_cell_setting 'orthorhombic'
loop_
_space_group_symop_operation_xyz
x,y,z
-x,-y,1/2+z
x,-y,-z
-x,y,1/2-z
-x,-y,-z
x,y,1/2-z
-x,y,z
x,-y,1/2+z
1/2+x,1/2+y,z
1/2-x,1/2-y,1/2+z
1/2+x,1/2-y,-z
1/2-x,1/2+y,1/2-z
1/2-x,1/2-y,-z
1/2+x,1/2+y,1/2-z
1/2-x,1/2+y,z
1/2+x,1/2-y,1/2+z
loop_
_atom_site_type_symbol
_atom_site_label
_atom_site_fract_x
_atom_site_fract_y
_atom_site_fract_z
Si Si1 0.797213 0.763068 0.106856
Si Si2 0.807499 0.426651 0.750000
Si Si3 0.795623 0.621568 0.856098
Si Si4 0.311953 0.679778 0.250000
Si Si5 0.793426 0.556431 0.463580
O O1 0.733698 0.818620 0.134280
O O2 0.712462 0.717663 0.163582
O O3 0.000000 0.761756 0.123736
O O4 0.750000 0.750000 0.000000
O O5 0.816274 0.366190 0.750000
O O6 0.727947 0.439050 0.645850
O O7 0.000000 0.449579 0.750000
O O8 0.729556 0.605634 0.750000
O O9 0.000000 0.612183 0.854793
O O10 0.728415 0.593806 0.952136
O O11 0.500000 0.656714 0.250000
O O12 0.765818 0.500000 0.500000
O O13 0.000000 0.565474 0.456559
#
# Coordination Sequence:
#
# PCOD9472830 Si02
#       5
#    16   8  16   8  16
#     4  12  24  39  61  89 124 164 206 251 303 367
#     4  10  20  36  59  86 121 159 204 257 307 368
#     4  10  20  35  57  86 122 160 204 254 305 363
#     4  12  24  40  61  88 123 163 206 253 307 366
#     4   9  19  34  57  89 119 155 203 256 309 359
#
# _framework density 22.098631999999998
#
# number of rings (size 3 to 8) (size 9 to 14) (size 15 to 20)
#    0.000    1.500    1.250    4.875    1.750    2.000 
#    0.000    0.000    0.000    3.000    0.000    0.000 
#    0.000    0.000    0.000    0.000    0.000    0.000 
#
# Total GULP energy -178625.637783 kJ/mol
# GULP energy per Si atom -5582.051181 kJ/mol
# Density = 2.204833 g / cm^3
# Si number density = 22.098632 Si / 1000 Ang^3
#
#
#
# Elastic Constant Matrix: (Units=GPa)
#
#
# Indices 1 2 3 4 5 6 
#
# 1 49.8418 -11.5353 7.0074 0.0000 0.0000 0.0000
# 2 -11.5353 61.7837 60.3589 0.0000 0.0000 0.0000
# 3 7.0074 60.3589 243.6086 0.0000 0.0000 0.0000
# 4 0.0000 0.0000 0.0000 37.7796 0.0000 0.0000
# 5 0.0000 0.0000 0.0000 0.0000 8.1947 0.0000
# 6 0.0000 0.0000 0.0000 0.0000 0.0000 16.5249
#
#
#
# Elastic Compliance Matrix: (Units=1/GPa)
#
#
# Indices 1 2 3 4 5 6 
#
# 1 0.021796 0.006177 -0.002158 0.000000 0.000000 0.000000
# 2 0.006177 0.023105 -0.005902 0.000000 0.000000 0.000000
# 3 -0.002158 -0.005902 0.005629 0.000000 0.000000 0.000000
# 4 0.000000 0.000000 0.000000 0.026469 0.000000 0.000000
# 5 0.000000 0.000000 0.000000 0.000000 0.122031 0.000000
# 6 0.000000 0.000000 0.000000 0.000000 0.000000 0.060515
#
#
# Mechanical properties :
#
#
# Convention : Reuss Voigt Hill
#
# Bulk Modulus (GPa) = 21.38324 51.87735 36.63029
# Shear Modulus (GPa) = 17.92760 32.46005 25.19382
#
# Velocity S-wave (km/s) = 2.85134 3.83674 3.38014
# Velocity P-wave (km/s) = 4.53183 6.56916 5.64319
#
# Compressibility (1/GPa) = 0.04676560
#
# Stress axis : x y z
#
# Youngs Moduli (GPa) = 45.87905 43.28044 177.63719
#
# Poissons Ratio (x) = -0.26735 0.38325
# Poissons Ratio (y) = -0.28341 1.04849
# Poissons Ratio (z) = 0.09898 0.25546
#
# Static dielectric constant tensor:
#      x y z
#    x 1.826530 0.000000 0.000000 
#    y 0.000000 1.732930 0.000000 
#    z 0.000000 0.000000 1.829130 
# 
# From -- ./inp_files/27532.got.cif
#   From: 2010.05.17/outbox.cif.g08.bks.cpg/sg63_14_cif.got.tgz:27532.got - 2010.06.03 15:47:04.
