data_PCOD9472219
_publ_section_title
;
Structure prediction by ZEFSAII (Michael W. Deem and Ramdas Pophale) SiO2 
 PCOD9472219
Probable space group: C M C M
;
_chemical_formula_sum "Si O2"
_cell_formula_units_Z 80
_cell_length_a 7.411226
_cell_length_b 23.893415
_cell_length_c 21.010646
_cell_angle_alpha 90.000000
_cell_angle_beta 90.000000
_cell_angle_gamma 90.000000
_cell_volume 3720.554656
_symmetry_space_group_name_H-M "C M C M"
_symmetry_group_IT_number 63
_symmetry_cell_setting 'orthorhombic'
loop_
_space_group_symop_operation_xyz
x,y,z
-x,-y,1/2+z
x,-y,-z
-x,y,1/2-z
-x,-y,-z
x,y,1/2-z
-x,y,z
x,-y,1/2+z
1/2+x,1/2+y,z
1/2-x,1/2-y,1/2+z
1/2+x,1/2-y,-z
1/2-x,1/2+y,1/2-z
1/2-x,1/2-y,-z
1/2+x,1/2+y,1/2-z
1/2-x,1/2+y,z
1/2+x,1/2-y,1/2+z
loop_
_atom_site_type_symbol
_atom_site_label
_atom_site_fract_x
_atom_site_fract_y
_atom_site_fract_z
Si Si1 0.279757 0.123490 0.872922
Si Si2 0.280052 0.806701 0.250000
Si Si3 0.779234 0.502510 0.675520
Si Si4 0.716320 0.183533 0.498476
Si Si5 0.709865 0.113588 0.378601
Si Si6 0.216927 0.821126 0.750000
O O1 0.500000 0.123476 0.873810
O O2 0.222829 0.160952 0.813093
O O3 0.224495 0.059893 0.858695
O O4 0.218191 0.151781 0.938276
O O5 0.500000 0.806905 0.250000
O O6 0.221198 0.742802 0.250000
O O7 0.724033 0.501491 0.750000
O O8 0.714576 0.447658 0.637894
O O9 0.000000 0.501407 0.676553
O O10 0.500000 0.178699 0.498206
O O11 0.750000 0.250000 0.500000
O O12 0.786018 0.151398 0.435678
O O13 0.500000 0.104059 0.394514
O O14 0.720149 0.147814 0.313182
O O15 0.000000 0.821952 0.750000
#
# Coordination Sequence:
#
# PCOD9472219 Si02
#       6
#    16   8  16  16  16   8
#     4   9  16  28  48  75 102 132 171 214 260 305
#     4   9  16  26  43  69  99 129 168 215 256 292
#     4   9  15  27  50  76 103 131 164 217 273 312
#     4  10  21  35  52  76 109 143 177 218 260 314
#     4  10  20  34  52  76 106 138 170 214 272 318
#     4  11  21  32  51  77 103 137 178 217 252 306
#
# _framework density 21.502168999999999
#
# number of rings (size 3 to 8) (size 9 to 14) (size 15 to 20)
#    0.000    2.400    2.000    1.500    0.000    3.200 
#    0.000    4.000    0.000    1.200    0.000    5.600 
#    0.000    0.000    0.000    0.000    0.000    0.000 
#
# Total GULP energy -223443.056387 kJ/mol
# GULP energy per Si atom -5586.076410 kJ/mol
# Density = 2.145323 g / cm^3
# Si number density = 21.502169 Si / 1000 Ang^3
#
#
#
# Elastic Constant Matrix: (Units=GPa)
#
#
# Indices 1 2 3 4 5 6 
#
# 1 71.5077 -0.8985 -2.5545 0.0000 0.0000 0.0000
# 2 -0.8985 249.0503 124.5467 0.0000 0.0000 0.0000
# 3 -2.5545 124.5467 201.0230 0.0000 0.0000 0.0000
# 4 0.0000 0.0000 0.0000 41.4312 0.0000 0.0000
# 5 0.0000 0.0000 0.0000 0.0000 -37.1533 0.0000
# 6 0.0000 0.0000 0.0000 0.0000 0.0000 14.2498
#
#
#
# Elastic Compliance Matrix: (Units=1/GPa)
#
#
# Indices 1 2 3 4 5 6 
#
# 1 0.013991 -0.000056 0.000212 0.000000 0.000000 0.000000
# 2 -0.000056 0.005818 -0.003605 0.000000 0.000000 0.000000
# 3 0.000212 -0.003605 0.007211 0.000000 0.000000 0.000000
# 4 0.000000 0.000000 0.000000 0.024136 0.000000 0.000000
# 5 0.000000 0.000000 0.000000 0.000000 -0.026916 0.000000
# 6 0.000000 0.000000 0.000000 0.000000 0.000000 0.070176
#
#
# Mechanical properties :
#
#
# Convention : Reuss Voigt Hill
#
# Bulk Modulus (GPa) = 49.69454 84.86315 67.27885
# Shear Modulus (GPa) = 46.28646 30.40469 38.34557
#
# Velocity S-wave (km/s) = 4.64469 3.76444 4.22754
# Velocity P-wave (km/s) = 7.20595 7.64510 7.42877
#
# Compressibility (1/GPa) = 0.02012293
#
# Stress axis : x y z
#
# Youngs Moduli (GPa) = 71.47255 171.87904 138.67691
#
# Poissons Ratio (x) = 0.00957 -0.02944
# Poissons Ratio (y) = 0.00398 0.49998
# Poissons Ratio (z) = -0.01517 0.61969
#
# Static dielectric constant tensor:
#      x y z
#    x 1.870090 0.000000 0.000000 
#    y 0.000000 1.745880 0.000000 
#    z 0.000000 0.000000 1.739810 
# 
# From -- ./inp_files/50930.got.cif
#   From: 2010.05.17/outbox.cif.g08.bks.cpg/sg63_26_cif.got.tgz:50930.got - 2010.06.03 15:47:04.
