data_PCOD9472521
_publ_section_title
;
Structure prediction by ZEFSAII (Michael W. Deem and Ramdas Pophale) SiO2 
 PCOD9472521
Probable space group: C M C M
;
_chemical_formula_sum "Si O2"
_cell_formula_units_Z 88
_cell_length_a 20.527577
_cell_length_b 15.062346
_cell_length_c 15.199225
_cell_angle_alpha 90.000000
_cell_angle_beta 90.000000
_cell_angle_gamma 90.000000
_cell_volume 4699.501078
_symmetry_space_group_name_H-M "C M C M"
_symmetry_group_IT_number 63
_symmetry_cell_setting 'orthorhombic'
loop_
_space_group_symop_operation_xyz
x,y,z
-x,-y,1/2+z
x,-y,-z
-x,y,1/2-z
-x,-y,-z
x,y,1/2-z
-x,y,z
x,-y,1/2+z
1/2+x,1/2+y,z
1/2-x,1/2-y,1/2+z
1/2+x,1/2-y,-z
1/2-x,1/2+y,1/2-z
1/2-x,1/2-y,-z
1/2+x,1/2+y,1/2-z
1/2-x,1/2+y,z
1/2+x,1/2-y,1/2+z
loop_
_atom_site_type_symbol
_atom_site_label
_atom_site_fract_x
_atom_site_fract_y
_atom_site_fract_z
Si Si1 0.639259 0.351390 0.250000
Si Si2 0.317664 0.046303 0.917597
Si Si3 0.074484 0.411798 0.646105
Si Si4 0.316093 0.248387 0.558385
Si Si5 0.424252 0.712826 0.572436
Si Si6 0.262952 0.496081 0.250000
Si Si7 0.760543 0.792112 0.750000
O O1 0.598595 0.336312 0.161127
O O2 0.666350 0.451846 0.250000
O O3 0.698052 0.275720 0.250000
O O4 0.337447 0.145919 0.937300
O O5 0.378117 0.983618 0.894970
O O6 0.270922 0.044808 0.835075
O O7 0.283115 0.000000 0.000000
O O8 0.088676 0.401402 0.750000
O O9 0.080792 0.316601 0.600497
O O10 0.000000 0.441414 0.637462
O O11 0.250000 0.250000 0.500000
O O12 0.372731 0.301010 0.506688
O O13 0.298752 0.275811 0.658194
O O14 0.500000 0.694255 0.551102
O O15 0.249239 0.601347 0.250000
#
# Coordination Sequence:
#
# PCOD9472521 Si02
#       7
#     8  16  16  16  16   8   8
#     4  12  21  40  66  95 125 158 213 265 313 375
#     4  12  21  34  58  87 124 162 201 241 309 381
#     4  10  20  34  56  88 126 162 198 242 303 379
#     4  12  23  40  60  91 128 167 208 257 310 376
#     4  11  22  39  65  95 127 164 206 259 318 374
#     4  12  24  39  60  90 122 159 203 267 316 357
#     4  12  24  41  64  89 130 163 212 264 318 374
#
# _framework density 18.725391999999999
#
# number of rings (size 3 to 8) (size 9 to 14) (size 15 to 20)
#    0.000    0.545    7.273    2.455    0.000    1.091 
#    0.000    0.455    0.000    3.273    0.000    0.000 
#    0.000    0.000    0.000    0.000    0.000    0.000 
#
# Total GULP energy -245693.747168 kJ/mol
# GULP energy per Si atom -5583.948799 kJ/mol
# Density = 1.868277 g / cm^3
# Si number density = 18.725392 Si / 1000 Ang^3
#
#
#
# Elastic Constant Matrix: (Units=GPa)
#
#
# Indices 1 2 3 4 5 6 
#
# 1 97.0102 0.3364 50.0771 0.0000 0.0000 0.0000
# 2 0.3364 31.2931 -12.0598 0.0000 0.0000 0.0000
# 3 50.0771 -12.0598 145.4291 0.0000 0.0000 0.0000
# 4 0.0000 0.0000 0.0000 22.0336 0.0000 0.0000
# 5 0.0000 0.0000 0.0000 0.0000 47.3057 0.0000
# 6 0.0000 0.0000 0.0000 0.0000 0.0000 23.2403
#
#
#
# Elastic Compliance Matrix: (Units=1/GPa)
#
#
# Indices 1 2 3 4 5 6 
#
# 1 0.012642 -0.001873 -0.004508 0.000000 0.000000 0.000000
# 2 -0.001873 0.033289 0.003406 0.000000 0.000000 0.000000
# 3 -0.004508 0.003406 0.008711 0.000000 0.000000 0.000000
# 4 0.000000 0.000000 0.000000 0.045385 0.000000 0.000000
# 5 0.000000 0.000000 0.000000 0.000000 0.021139 0.000000
# 6 0.000000 0.000000 0.000000 0.000000 0.000000 0.043029
#
#
# Mechanical properties :
#
#
# Convention : Reuss Voigt Hill
#
# Bulk Modulus (GPa) = 20.53855 38.93774 29.73815
# Shear Modulus (GPa) = 26.82736 34.20784 30.51760
#
# Velocity S-wave (km/s) = 3.78917 4.27876 4.04139
# Velocity P-wave (km/s) = 5.48961 6.72679 6.13944
#
# Compressibility (1/GPa) = 0.04868894
#
# Stress axis : x y z
#
# Youngs Moduli (GPa) = 79.10149 30.04037 114.79657
#
# Poissons Ratio (x) = 0.05628 0.51756
# Poissons Ratio (y) = 0.14819 -0.39094
# Poissons Ratio (z) = 0.35663 -0.10230
#
# Static dielectric constant tensor:
#      x y z
#    x 1.657830 0.000000 0.000000 
#    y 0.000000 1.690210 0.000000 
#    z 0.000000 0.000000 1.679900 
# 
# From -- ./inp_files/34018.got.cif
#   From: 2010.05.17/outbox.cif.g08.bks.cpg/sg63_18_cif.got.tgz:34018.got - 2010.06.03 15:47:04.
