data_PCOD9472547
_publ_section_title
;
Structure prediction by ZEFSAII (Michael W. Deem and Ramdas Pophale) SiO2 
 PCOD9472547
Probable space group: C M C M
;
_chemical_formula_sum "Si O2"
_cell_formula_units_Z 104
_cell_length_a 31.698878
_cell_length_b 18.959726
_cell_length_c 9.311283
_cell_angle_alpha 90.000000
_cell_angle_beta 90.000000
_cell_angle_gamma 90.000000
_cell_volume 5596.100091
_symmetry_space_group_name_H-M "C M C M"
_symmetry_group_IT_number 63
_symmetry_cell_setting 'orthorhombic'
loop_
_space_group_symop_operation_xyz
x,y,z
-x,-y,1/2+z
x,-y,-z
-x,y,1/2-z
-x,-y,-z
x,y,1/2-z
-x,y,z
x,-y,1/2+z
1/2+x,1/2+y,z
1/2-x,1/2-y,1/2+z
1/2+x,1/2-y,-z
1/2-x,1/2+y,1/2-z
1/2-x,1/2-y,-z
1/2+x,1/2+y,1/2-z
1/2-x,1/2+y,z
1/2+x,1/2-y,1/2+z
loop_
_atom_site_type_symbol
_atom_site_label
_atom_site_fract_x
_atom_site_fract_y
_atom_site_fract_z
Si Si1 0.587658 0.350411 0.082012
Si Si2 0.000000 0.925433 0.422891
Si Si3 0.093256 0.316746 0.584227
Si Si4 0.174759 0.141759 0.079046
Si Si5 0.178699 0.692112 0.581466
Si Si6 0.050419 0.433775 0.089221
Si Si7 0.748183 0.071506 0.578470
O O1 0.596450 0.368133 0.250000
O O2 0.543347 0.385131 0.039149
O O3 0.583226 0.265944 0.073948
O O4 0.627816 0.369269 0.984232
O O5 0.000000 0.932957 0.250000
O O6 0.000000 0.000000 0.500000
O O7 0.091707 0.337930 0.750000
O O8 0.139531 0.327573 0.518417
O O9 0.061517 0.362867 0.492519
O O10 0.175928 0.128573 0.250000
O O11 0.187235 0.224575 0.055372
O O12 0.207715 0.093795 0.993832
O O13 0.166760 0.686649 0.750000
O O14 0.216660 0.637799 0.556167
O O15 0.067670 0.433396 0.250000
O O16 0.000000 0.440842 0.097094
O O17 0.067376 0.500000 0.000000
O O18 0.752251 0.060460 0.750000
O O19 0.733191 0.000000 0.500000
#
# Coordination Sequence:
#
# PCOD9472547 Si02
#       7
#    16   8  16  16  16  16  16
#     4   9  20  38  59  84 114 150 190 232 280 339
#     4  10  22  40  60  84 115 150 187 230 281 334
#     4  10  20  34  58  85 111 147 188 233 283 336
#     4  10  20  37  61  86 113 147 188 236 285 337
#     4   9  20  38  58  81 113 149 188 234 280 333
#     4  10  21  36  53  76 108 146 187 232 282 337
#     4  11  23  38  57  83 114 150 189 233 283 337
#
# _framework density 18.58437
#
# number of rings (size 3 to 8) (size 9 to 14) (size 15 to 20)
#    0.000    2.154    0.000    2.308    1.077    5.231 
#    0.000    3.077    0.000    0.000    0.000    0.000 
#    0.000    0.000    0.000    0.000    0.000    0.000 
#
# Total GULP energy -290222.605860 kJ/mol
# GULP energy per Si atom -5581.203959 kJ/mol
# Density = 1.854207 g / cm^3
# Si number density = 18.584370 Si / 1000 Ang^3
#
#
#
# Elastic Constant Matrix: (Units=GPa)
#
#
# Indices 1 2 3 4 5 6 
#
# 1 84.9895 51.3933 53.9207 0.0000 0.0000 0.0000
# 2 51.3933 48.3666 48.6078 0.0000 0.0000 0.0000
# 3 53.9207 48.6078 103.4927 0.0000 0.0000 0.0000
# 4 0.0000 0.0000 0.0000 24.9112 0.0000 0.0000
# 5 0.0000 0.0000 0.0000 0.0000 30.1180 0.0000
# 6 0.0000 0.0000 0.0000 0.0000 0.0000 -95.5132
#
#
#
# Elastic Compliance Matrix: (Units=1/GPa)
#
#
# Indices 1 2 3 4 5 6 
#
# 1 0.033019 -0.033706 -0.001372 0.000000 0.000000 0.000000
# 2 -0.033706 0.073567 -0.016991 0.000000 0.000000 0.000000
# 3 -0.001372 -0.016991 0.018358 0.000000 0.000000 0.000000
# 4 0.000000 0.000000 0.000000 0.040143 0.000000 0.000000
# 5 0.000000 0.000000 0.000000 0.000000 0.033203 0.000000
# 6 0.000000 0.000000 0.000000 0.000000 0.000000 -0.010470
#
#
# Mechanical properties :
#
#
# Convention : Reuss Voigt Hill
#
# Bulk Modulus (GPa) = 48.06689 60.52138 54.29414
# Shear Modulus (GPa) = 16.72839 -2.56832 7.08004
#
# Velocity S-wave (km/s) = 3.00348 -1.17685 1.95396
# Velocity P-wave (km/s) = 6.16020 5.54886 5.86250
#
# Compressibility (1/GPa) = 0.02080434
#
# Stress axis : x y z
#
# Youngs Moduli (GPa) = 30.28559 13.59310 54.47271
#
# Poissons Ratio (x) = 0.45817 0.07476
# Poissons Ratio (y) = 1.02081 0.92555
# Poissons Ratio (z) = 0.04156 0.23096
#
# Static dielectric constant tensor:
#      x y z
#    x 1.623890 0.000000 0.000000 
#    y 0.000000 1.630450 0.000000 
#    z 0.000000 0.000000 1.630730 
# 
# From -- ./inp_files/12570.got.cif
#   From: 2010.05.17/outbox.cif.g08.bks.cpg/sg63_7_cif.got.tgz:12570.got - 2010.06.03 15:47:04.
