data_PCOD9472485
_publ_section_title
;
Structure prediction by ZEFSAII (Michael W. Deem and Ramdas Pophale) SiO2 
 PCOD9472485
Probable space group: C M C M
;
_chemical_formula_sum "Si O2"
_cell_formula_units_Z 116
_cell_length_a 7.480373
_cell_length_b 25.142526
_cell_length_c 30.107928
_cell_angle_alpha 90.000000
_cell_angle_beta 90.000000
_cell_angle_gamma 90.000000
_cell_volume 5662.562789
_symmetry_space_group_name_H-M "C M C M"
_symmetry_group_IT_number 63
_symmetry_cell_setting 'orthorhombic'
loop_
_space_group_symop_operation_xyz
x,y,z
-x,-y,1/2+z
x,-y,-z
-x,y,1/2-z
-x,-y,-z
x,y,1/2-z
-x,y,z
x,-y,1/2+z
1/2+x,1/2+y,z
1/2-x,1/2-y,1/2+z
1/2+x,1/2-y,-z
1/2-x,1/2+y,1/2-z
1/2-x,1/2-y,-z
1/2+x,1/2+y,1/2-z
1/2-x,1/2+y,z
1/2+x,1/2-y,1/2+z
loop_
_atom_site_type_symbol
_atom_site_label
_atom_site_fract_x
_atom_site_fract_y
_atom_site_fract_z
Si Si1 0.205921 0.704283 0.340165
Si Si2 0.292373 0.476750 0.323705
Si Si3 0.207346 0.685693 0.700647
Si Si4 0.783761 0.384738 0.117924
Si Si5 0.292639 0.798488 0.938374
Si Si6 0.500000 0.946576 0.250000
Si Si7 0.214211 0.091698 0.199518
Si Si8 0.717880 0.178400 0.532810
O O1 0.289705 0.751999 0.311984
O O2 0.287595 0.697013 0.389305
O O3 0.211989 0.647560 0.316583
O O4 0.000000 0.721074 0.345531
O O5 0.227318 0.580536 0.250000
O O6 0.500000 0.475249 0.308630
O O7 0.275414 0.443351 0.368633
O O8 0.240199 0.538798 0.327689
O O9 0.286277 0.677436 0.750000
O O10 0.281005 0.653501 0.658414
O O11 0.000000 0.668983 0.704359
O O12 0.724389 0.363140 0.070213
O O13 0.000000 0.382201 0.117455
O O14 0.500000 0.814771 0.934308
O O15 0.280600 0.736328 0.950944
O O16 0.219618 0.828399 0.981939
O O17 0.342476 0.950515 0.211326
O O18 0.000000 0.097444 0.199161
O O19 0.500000 0.180009 0.531924
#
# Coordination Sequence:
#
# PCOD9472485 Si02
#       8
#    16  16  16  16  16   4  16  16
#     4  11  22  33  51  78 110 145 184 229 282 340
#     4  11  24  39  60  87 114 151 195 244 288 329
#     4  10  21  34  49  72 109 148 182 222 276 337
#     4  10  20  34  56  81 110 150 191 236 286 345
#     4   9  18  32  50  79 111 140 182 234 282 339
#     4  12  22  40  64  82 120 146 202 244 276 344
#     4  10  22  39  57  78 106 142 191 240 281 326
#     4   9  17  32  55  78 106 144 185 229 285 342
#
# _framework density 20.485423999999998
#
# number of rings (size 3 to 8) (size 9 to 14) (size 15 to 20)
#    0.000    1.931    2.759    1.034    1.931    3.862 
#    0.000    0.000    0.000    0.828    0.000    5.793 
#    0.000    0.000    0.000    0.000    0.000    0.000 
#
# Total GULP energy -323217.381045 kJ/mol
# GULP energy per Si atom -5572.713466 kJ/mol
# Density = 2.043880 g / cm^3
# Si number density = 20.485424 Si / 1000 Ang^3
#
#
#
# Elastic Constant Matrix: (Units=GPa)
#
#
# Indices 1 2 3 4 5 6 
#
# 1 78.8165 -11.3914 0.6094 0.0000 0.0000 0.0000
# 2 -11.3914 75.3298 3.1253 0.0000 0.0000 0.0000
# 3 0.6094 3.1253 50.1853 0.0000 0.0000 0.0000
# 4 0.0000 0.0000 0.0000 38.8985 0.0000 0.0000
# 5 0.0000 0.0000 0.0000 0.0000 9.4575 0.0000
# 6 0.0000 0.0000 0.0000 0.0000 0.0000 32.8073
#
#
#
# Elastic Compliance Matrix: (Units=1/GPa)
#
#
# Indices 1 2 3 4 5 6 
#
# 1 0.012975 0.001974 -0.000280 0.000000 0.000000 0.000000
# 2 0.001974 0.013610 -0.000872 0.000000 0.000000 0.000000
# 3 -0.000280 -0.000872 0.019984 0.000000 0.000000 0.000000
# 4 0.000000 0.000000 0.000000 0.025708 0.000000 0.000000
# 5 0.000000 0.000000 0.000000 0.000000 0.105736 0.000000
# 6 0.000000 0.000000 0.000000 0.000000 0.000000 0.030481
#
#
# Mechanical properties :
#
#
# Convention : Reuss Voigt Hill
#
# Bulk Modulus (GPa) = 20.74168 21.00201 20.87185
# Shear Modulus (GPa) = 22.42950 30.36521 26.39736
#
# Velocity S-wave (km/s) = 3.31252 3.85422 3.59359
# Velocity P-wave (km/s) = 4.97769 5.48463 5.23730
#
# Compressibility (1/GPa) = 0.04821210
#
# Stress axis : x y z
#
# Youngs Moduli (GPa) = 77.07047 73.47760 50.04043
#
# Poissons Ratio (x) = -0.14503 0.01403
# Poissons Ratio (y) = -0.15212 0.04361
# Poissons Ratio (z) = 0.02162 0.06404
#
# Static dielectric constant tensor:
#      x y z
#    x 1.767640 0.000000 0.000000 
#    y 0.000000 1.718760 0.000000 
#    z 0.000000 0.000000 1.743400 
# 
# From -- ./inp_files/72113.got.cif
#   From: 2010.05.17/outbox.cif.g08.bks.cpg/sg63_37_cif.got.tgz:72113.got - 2010.06.03 15:47:04.
