data_PCOD9472907
_publ_section_title
;
Structure prediction by ZEFSAII (Michael W. Deem and Ramdas Pophale) SiO2 
 PCOD9472907
Probable space group: C M C M
;
_chemical_formula_sum "Si O2"
_cell_formula_units_Z 64
_cell_length_a 20.443803
_cell_length_b 7.803316
_cell_length_c 20.530365
_cell_angle_alpha 90.000000
_cell_angle_beta 90.000000
_cell_angle_gamma 90.000000
_cell_volume 3275.197940
_symmetry_space_group_name_H-M "C M C M"
_symmetry_group_IT_number 63
_symmetry_cell_setting 'orthorhombic'
loop_
_space_group_symop_operation_xyz
x,y,z
-x,-y,1/2+z
x,-y,-z
-x,y,1/2-z
-x,-y,-z
x,y,1/2-z
-x,y,z
x,-y,1/2+z
1/2+x,1/2+y,z
1/2-x,1/2-y,1/2+z
1/2+x,1/2-y,-z
1/2-x,1/2+y,1/2-z
1/2-x,1/2-y,-z
1/2+x,1/2+y,1/2-z
1/2-x,1/2+y,z
1/2+x,1/2-y,1/2+z
loop_
_atom_site_type_symbol
_atom_site_label
_atom_site_fract_x
_atom_site_fract_y
_atom_site_fract_z
Si Si1 0.144165 0.394555 0.322148
Si Si2 0.690944 0.660857 0.957066
Si Si3 0.780261 0.966941 0.676606
Si Si4 0.928501 0.586736 0.069556
O O1 0.114454 0.389699 0.250000
O O2 0.181438 0.212405 0.331854
O O3 0.201407 0.538608 0.321789
O O4 0.094046 0.446597 0.377548
O O5 0.709441 0.582986 0.886821
O O6 0.630904 0.783857 0.941899
O O7 0.669336 0.500000 0.000000
O O8 0.750000 0.750000 0.000000
O O9 0.798173 0.032340 0.750000
O O10 0.000000 0.660273 0.087815
O O11 0.934815 0.500000 0.000000
#
# Coordination Sequence:
#
# PCOD9472907 Si02
#       4
#    16  16  16  16
#     4  10  20  36  59  86 115 149 191 240 295 352
#     4  12  23  37  61  90 119 153 197 246 299 357
#     4  10  20  35  59  89 118 148 190 249 304 349
#     4  11  24  40  57  80 114 155 195 239 294 354
#
# _framework density 19.540804000000001
#
# number of rings (size 3 to 8) (size 9 to 14) (size 15 to 20)
#    0.000    1.250    0.000    8.250    0.000    4.000 
#    0.000    1.250    0.000    1.500    0.000    0.000 
#    0.000    0.000    0.000    0.000    0.000    0.000 
#
# Total GULP energy -178328.639249 kJ/mol
# GULP energy per Si atom -5572.769977 kJ/mol
# Density = 1.949633 g / cm^3
# Si number density = 19.540804 Si / 1000 Ang^3
#
#
#
# Elastic Constant Matrix: (Units=GPa)
#
#
# Indices 1 2 3 4 5 6 
#
# 1 99.6728 34.1095 65.0061 0.0000 0.0000 0.0000
# 2 34.1095 70.4653 63.1941 0.0000 0.0000 0.0000
# 3 65.0061 63.1941 190.4863 0.0000 0.0000 0.0000
# 4 0.0000 0.0000 0.0000 38.2905 0.0000 0.0000
# 5 0.0000 0.0000 0.0000 0.0000 117.8506 0.0000
# 6 0.0000 0.0000 0.0000 0.0000 0.0000 15.6456
#
#
#
# Elastic Compliance Matrix: (Units=1/GPa)
#
#
# Indices 1 2 3 4 5 6 
#
# 1 0.013457 -0.003410 -0.003461 0.000000 0.000000 0.000000
# 2 -0.003410 0.021066 -0.005825 0.000000 0.000000 0.000000
# 3 -0.003461 -0.005825 0.008363 0.000000 0.000000 0.000000
# 4 0.000000 0.000000 0.000000 0.026116 0.000000 0.000000
# 5 0.000000 0.000000 0.000000 0.000000 0.008485 0.000000
# 6 0.000000 0.000000 0.000000 0.000000 0.000000 0.063916
#
#
# Mechanical properties :
#
#
# Convention : Reuss Voigt Hill
#
# Bulk Modulus (GPa) = 57.16213 76.13819 66.65016
# Shear Modulus (GPa) = 28.96418 47.57834 38.27126
#
# Velocity S-wave (km/s) = 3.85416 4.93974 4.43033
# Velocity P-wave (km/s) = 7.00873 8.46067 7.76870
#
# Compressibility (1/GPa) = 0.01749410
#
# Stress axis : x y z
#
# Youngs Moduli (GPa) = 74.30999 47.47007 119.57003
#
# Poissons Ratio (x) = 0.16188 0.41385
# Poissons Ratio (y) = 0.25340 0.69648
# Poissons Ratio (z) = 0.25720 0.27651
#
# Static dielectric constant tensor:
#      x y z
#    x 1.759500 0.000000 0.000000 
#    y 0.000000 1.737310 0.000000 
#    z 0.000000 0.000000 1.742790 
# 
# From -- ./inp_files/55026.got.cif
#   From: 2010.05.17/outbox.cif.g08.bks.cpg/sg63_28_cif.got.tgz:55026.got - 2010.06.03 15:47:04.
