data_PCOD9472693
_publ_section_title
;
Structure prediction by ZEFSAII (Michael W. Deem and Ramdas Pophale) SiO2 
 PCOD9472693
Probable space group: C M C M
;
_chemical_formula_sum "Si O2"
_cell_formula_units_Z 116
_cell_length_a 17.670113
_cell_length_b 19.486216
_cell_length_c 18.708113
_cell_angle_alpha 90.000000
_cell_angle_beta 90.000000
_cell_angle_gamma 90.000000
_cell_volume 6441.645541
_symmetry_space_group_name_H-M "C M C M"
_symmetry_group_IT_number 63
_symmetry_cell_setting 'orthorhombic'
loop_
_space_group_symop_operation_xyz
x,y,z
-x,-y,1/2+z
x,-y,-z
-x,y,1/2-z
-x,-y,-z
x,y,1/2-z
-x,y,z
x,-y,1/2+z
1/2+x,1/2+y,z
1/2-x,1/2-y,1/2+z
1/2+x,1/2-y,-z
1/2-x,1/2+y,1/2-z
1/2-x,1/2-y,-z
1/2+x,1/2+y,1/2-z
1/2-x,1/2+y,z
1/2+x,1/2-y,1/2+z
loop_
_atom_site_type_symbol
_atom_site_label
_atom_site_fract_x
_atom_site_fract_y
_atom_site_fract_z
Si Si1 0.262820 0.474637 0.669884
Si Si2 0.000000 0.643808 0.250000
Si Si3 0.236771 0.760330 0.835265
Si Si4 0.351193 0.572214 0.470148
Si Si5 0.635438 0.126525 0.136254
Si Si6 0.262345 0.887542 0.097068
Si Si7 0.414351 0.140940 0.524932
Si Si8 0.084315 0.791899 0.916551
O O1 0.289449 0.458731 0.750000
O O2 0.314681 0.444202 0.606954
O O3 0.180069 0.441785 0.659488
O O4 0.257838 0.555445 0.655253
O O5 0.933501 0.642487 0.311931
O O6 0.237275 0.752846 0.750000
O O7 0.300511 0.814627 0.857686
O O8 0.253403 0.688224 0.873864
O O9 0.154165 0.785049 0.861927
O O10 0.383558 0.500000 0.500000
O O11 0.285701 0.594746 0.525964
O O12 0.404742 0.637589 0.459998
O O13 0.606719 0.121686 0.055476
O O14 0.350653 0.890211 0.076261
O O15 0.500000 0.120037 0.542369
O O16 0.409823 0.223772 0.534338
O O17 0.000000 0.790903 0.884024
#
# Coordination Sequence:
#
# PCOD9472693 Si02
#       8
#    16   4  16  16  16  16  16  16
#     4  11  21  36  56  82 114 149 189 237 278 341
#     4  12  24  36  52  94 118 144 184 238 272 340
#     4  11  21  36  59  84 112 153 194 234 285 339
#     4  10  20  35  58  81 110 146 192 236 281 340
#     4  12  21  36  59  82 115 148 192 225 283 338
#     4  10  21  37  56  83 112 149 197 232 280 341
#     4  10  20  35  55  80 111 147 187 238 277 332
#     4  10  21  36  56  84 112 143 188 239 291 328
#
# _framework density 18.007821
#
# number of rings (size 3 to 8) (size 9 to 14) (size 15 to 20)
#    0.000    1.379    4.828    1.241    0.000    2.759 
#    1.241    0.690    0.000    0.828    0.000    0.000 
#    0.000    0.000    0.000    0.000    0.000    0.000 
#
# Total GULP energy -323141.786371 kJ/mol
# GULP energy per Si atom -5571.410110 kJ/mol
# Density = 1.796683 g / cm^3
# Si number density = 18.007821 Si / 1000 Ang^3
#
#
#
# Elastic Constant Matrix: (Units=GPa)
#
#
# Indices 1 2 3 4 5 6 
#
# 1 60.1639 1.7699 -8.1586 0.0000 0.0000 0.0000
# 2 1.7699 64.8253 -4.9008 0.0000 0.0000 0.0000
# 3 -8.1586 -4.9008 53.2390 0.0000 0.0000 0.0000
# 4 0.0000 0.0000 0.0000 11.0563 0.0000 0.0000
# 5 0.0000 0.0000 0.0000 0.0000 30.8043 0.0000
# 6 0.0000 0.0000 0.0000 0.0000 0.0000 14.5137
#
#
#
# Elastic Compliance Matrix: (Units=1/GPa)
#
#
# Indices 1 2 3 4 5 6 
#
# 1 0.016979 -0.000269 0.002577 0.000000 0.000000 0.000000
# 2 -0.000269 0.015538 0.001389 0.000000 0.000000 0.000000
# 3 0.002577 0.001389 0.019306 0.000000 0.000000 0.000000
# 4 0.000000 0.000000 0.000000 0.090446 0.000000 0.000000
# 5 0.000000 0.000000 0.000000 0.000000 0.032463 0.000000
# 6 0.000000 0.000000 0.000000 0.000000 0.000000 0.068901
#
#
# Mechanical properties :
#
#
# Convention : Reuss Voigt Hill
#
# Bulk Modulus (GPa) = 16.88665 17.29434 17.09049
# Shear Modulus (GPa) = 19.53298 23.90937 21.72118
#
# Velocity S-wave (km/s) = 3.29704 3.64774 3.47682
# Velocity P-wave (km/s) = 4.88792 5.23126 5.06250
#
# Compressibility (1/GPa) = 0.05921838
#
# Stress axis : x y z
#
# Youngs Moduli (GPa) = 58.89747 64.35660 51.79725
#
# Poissons Ratio (x) = 0.01729 -0.13349
# Poissons Ratio (y) = 0.01583 -0.07196
# Poissons Ratio (z) = -0.15179 -0.08940
#
# Static dielectric constant tensor:
#      x y z
#    x 1.599760 0.000000 0.000000 
#    y 0.000000 1.632740 0.000000 
#    z 0.000000 0.000000 1.601820 
# 
# From -- ./inp_files/45922.got.cif
#   From: 2010.05.17/outbox.cif.g08.bks.cpg/sg63_23_cif.got.tgz:45922.got - 2010.06.03 15:47:04.
