data_PCOD9472218
_publ_section_title
;
Structure prediction by ZEFSAII (Michael W. Deem and Ramdas Pophale) SiO2 
 PCOD9472218
Probable space group: C M C M
;
_chemical_formula_sum "Si O2"
_cell_formula_units_Z 96
_cell_length_a 24.688396
_cell_length_b 25.080273
_cell_length_c 7.880017
_cell_angle_alpha 90.000000
_cell_angle_beta 90.000000
_cell_angle_gamma 90.000000
_cell_volume 4879.241214
_symmetry_space_group_name_H-M "C M C M"
_symmetry_group_IT_number 63
_symmetry_cell_setting 'orthorhombic'
loop_
_space_group_symop_operation_xyz
x,y,z
-x,-y,1/2+z
x,-y,-z
-x,y,1/2-z
-x,-y,-z
x,y,1/2-z
-x,y,z
x,-y,1/2+z
1/2+x,1/2+y,z
1/2-x,1/2-y,1/2+z
1/2+x,1/2-y,-z
1/2-x,1/2+y,1/2-z
1/2-x,1/2-y,-z
1/2+x,1/2+y,1/2-z
1/2-x,1/2+y,z
1/2+x,1/2-y,1/2+z
loop_
_atom_site_type_symbol
_atom_site_label
_atom_site_fract_x
_atom_site_fract_y
_atom_site_fract_z
Si Si1 0.357729 0.151983 0.448771
Si Si2 0.937818 0.560305 0.045228
Si Si3 0.938841 0.141731 0.454957
Si Si4 0.148812 0.771094 0.453644
Si Si5 0.237525 0.852844 0.051585
Si Si6 0.650789 0.438652 0.547317
O O1 0.372085 0.156577 0.250000
O O2 0.397199 0.106189 0.519465
O O3 0.360635 0.211834 0.522744
O O4 0.294589 0.137562 0.463399
O O5 0.938527 0.562886 0.250000
O O6 0.000000 0.567983 0.985217
O O7 0.920900 0.500000 0.000000
O O8 0.940659 0.142108 0.250000
O O9 0.902493 0.191598 0.510443
O O10 0.905347 0.089299 0.507643
O O11 0.000000 0.143352 0.519610
O O12 0.155667 0.767583 0.250000
O O13 0.202218 0.802728 0.517801
O O14 0.248444 0.843571 0.250000
O O15 0.198667 0.903695 0.032198
O O16 0.653231 0.500000 0.500000
O O17 0.655237 0.433102 0.750000
#
# Coordination Sequence:
#
# PCOD9472218 Si02
#       6
#    16  16  16  16  16  16
#     4  10  20  34  54  79 104 133 171 211 254 304
#     4   9  19  36  55  74  99 130 163 203 250 298
#     4   9  19  35  53  75 105 139 173 213 262 310
#     4   9  19  34  52  76 105 137 172 211 255 305
#     4  10  20  34  52  76 106 137 171 210 255 307
#     4  10  20  35  54  75 103 138 175 216 261 307
#
# _framework density 19.675191000000002
#
# number of rings (size 3 to 8) (size 9 to 14) (size 15 to 20)
#    0.000    2.500    0.000    1.500    0.000    4.667 
#    0.000    3.333    0.000    2.000    0.000    0.000 
#    0.000    0.000    0.000    0.000    0.000    0.000 
#
# Total GULP energy -267794.975850 kJ/mol
# GULP energy per Si atom -5579.061997 kJ/mol
# Density = 1.963041 g / cm^3
# Si number density = 19.675191 Si / 1000 Ang^3
#
#
#
# Elastic Constant Matrix: (Units=GPa)
#
#
# Indices 1 2 3 4 5 6 
#
# 1 131.3167 68.0552 -3.5424 0.0000 0.0000 0.0000
# 2 68.0552 194.8802 -0.5952 0.0000 0.0000 0.0000
# 3 -3.5424 -0.5952 23.4855 0.0000 0.0000 0.0000
# 4 0.0000 0.0000 0.0000 42.1814 0.0000 0.0000
# 5 0.0000 0.0000 0.0000 0.0000 20.5415 0.0000
# 6 0.0000 0.0000 0.0000 0.0000 0.0000 22.6337
#
#
#
# Elastic Compliance Matrix: (Units=1/GPa)
#
#
# Indices 1 2 3 4 5 6 
#
# 1 0.009339 -0.003257 0.001326 0.000000 0.000000 0.000000
# 2 -0.003257 0.006268 -0.000332 0.000000 0.000000 0.000000
# 3 0.001326 -0.000332 0.042771 0.000000 0.000000 0.000000
# 4 0.000000 0.000000 0.000000 0.023707 0.000000 0.000000
# 5 0.000000 0.000000 0.000000 0.000000 0.048682 0.000000
# 6 0.000000 0.000000 0.000000 0.000000 0.000000 0.044182
#
#
# Mechanical properties :
#
#
# Convention : Reuss Voigt Hill
#
# Bulk Modulus (GPa) = 18.56989 53.05752 35.81370
# Shear Modulus (GPa) = 25.32589 36.12230 30.72410
#
# Velocity S-wave (km/s) = 3.59165 4.28943 3.95595
# Velocity P-wave (km/s) = 5.16320 7.18035 6.25364
#
# Compressibility (1/GPa) = 0.05385061
#
# Stress axis : x y z
#
# Youngs Moduli (GPa) = 107.07730 159.54465 23.38029
#
# Poissons Ratio (x) = 0.51968 -0.03100
# Poissons Ratio (y) = 0.34878 0.00777
# Poissons Ratio (z) = -0.14199 0.05304
#
# Static dielectric constant tensor:
#      x y z
#    x 1.676940 0.000000 0.000000 
#    y 0.000000 1.685740 0.000000 
#    z 0.000000 0.000000 1.727200 
# 
# From -- ./inp_files/10405.got.cif
#   From: 2010.05.17/outbox.cif.g08.bks.cpg/sg63_6_cif.got.tgz:10405.got - 2010.06.03 15:47:04.
