data_PCOD9472324
_publ_section_title
;
Structure prediction by ZEFSAII (Michael W. Deem and Ramdas Pophale) SiO2 
 PCOD9472324
Probable space group: C M C M
;
_chemical_formula_sum "Si O2"
_cell_formula_units_Z 112
_cell_length_a 11.848394
_cell_length_b 26.906145
_cell_length_c 19.129819
_cell_angle_alpha 90.000000
_cell_angle_beta 90.000000
_cell_angle_gamma 90.000000
_cell_volume 6098.483130
_symmetry_space_group_name_H-M "C M C M"
_symmetry_group_IT_number 63
_symmetry_cell_setting 'orthorhombic'
loop_
_space_group_symop_operation_xyz
x,y,z
-x,-y,1/2+z
x,-y,-z
-x,y,1/2-z
-x,-y,-z
x,y,1/2-z
-x,y,z
x,-y,1/2+z
1/2+x,1/2+y,z
1/2-x,1/2-y,1/2+z
1/2+x,1/2-y,-z
1/2-x,1/2+y,1/2-z
1/2-x,1/2-y,-z
1/2+x,1/2+y,1/2-z
1/2-x,1/2+y,z
1/2+x,1/2-y,1/2+z
loop_
_atom_site_type_symbol
_atom_site_label
_atom_site_fract_x
_atom_site_fract_y
_atom_site_fract_z
Si Si1 0.632754 0.267296 0.460869
Si Si2 0.178171 0.509961 0.332322
Si Si3 0.127872 0.395207 0.330347
Si Si4 0.870237 0.607166 0.081440
Si Si5 0.372649 0.516984 0.925798
Si Si6 0.365198 0.201387 0.172066
Si Si7 0.208465 0.876143 0.449705
O O1 0.500000 0.252348 0.480773
O O2 0.750000 0.250000 0.500000
O O3 0.651243 0.245647 0.382917
O O4 0.639201 0.326699 0.464021
O O5 0.166653 0.520332 0.250000
O O6 0.128848 0.454777 0.345849
O O7 0.130065 0.554625 0.378496
O O8 0.305356 0.503669 0.360034
O O9 0.165540 0.390127 0.250000
O O10 0.208144 0.368196 0.384368
O O11 0.000000 0.377490 0.336403
O O12 0.829678 0.650039 0.134925
O O13 0.000000 0.618017 0.059840
O O14 0.787504 0.609470 0.015437
O O15 0.500000 0.498852 0.923912
O O16 0.365477 0.576371 0.928662
O O17 0.320328 0.500000 0.000000
O O18 0.317561 0.208234 0.250000
O O19 0.500000 0.196579 0.179061
#
# Coordination Sequence:
#
# PCOD9472324 Si02
#       7
#    16  16  16  16  16  16  16
#     4  11  23  40  63  89 117 151 193 243 298 354
#     4  10  20  34  53  81 113 148 189 234 289 343
#     4   9  19  34  52  79 118 157 191 235 290 346
#     4  11  20  32  55  86 116 149 189 235 287 347
#     4  10  20  36  54  74 106 148 192 233 281 339
#     4   9  19  36  58  85 115 147 186 236 293 349
#     4  11  21  35  56  84 112 150 193 241 286 348
#
# _framework density 18.365221999999999
#
# number of rings (size 3 to 8) (size 9 to 14) (size 15 to 20)
#    0.000    1.857    2.857    1.714    0.000    2.857 
#    0.000    2.143    0.000    3.000    0.000    0.000 
#    0.000    0.000    0.000    0.000    0.000    0.000 
#
# Total GULP energy -311864.568433 kJ/mol
# GULP energy per Si atom -5569.010151 kJ/mol
# Density = 1.832342 g / cm^3
# Si number density = 18.365222 Si / 1000 Ang^3
#
#
#
# Elastic Constant Matrix: (Units=GPa)
#
#
# Indices 1 2 3 4 5 6 
#
# 1 74.3390 10.0429 36.4952 0.0000 0.0000 0.0000
# 2 10.0429 48.9560 0.6314 0.0000 0.0000 0.0000
# 3 36.4952 0.6314 69.6589 0.0000 0.0000 0.0000
# 4 0.0000 0.0000 0.0000 17.7563 0.0000 0.0000
# 5 0.0000 0.0000 0.0000 0.0000 18.5861 0.0000
# 6 0.0000 0.0000 0.0000 0.0000 0.0000 10.1752
#
#
#
# Elastic Compliance Matrix: (Units=1/GPa)
#
#
# Indices 1 2 3 4 5 6 
#
# 1 0.018765 -0.003723 -0.009797 0.000000 0.000000 0.000000
# 2 -0.003723 0.021168 0.001759 0.000000 0.000000 0.000000
# 3 -0.009797 0.001759 0.019473 0.000000 0.000000 0.000000
# 4 0.000000 0.000000 0.000000 0.056318 0.000000 0.000000
# 5 0.000000 0.000000 0.000000 0.000000 0.053804 0.000000
# 6 0.000000 0.000000 0.000000 0.000000 0.000000 0.098278
#
#
# Mechanical properties :
#
#
# Convention : Reuss Voigt Hill
#
# Bulk Modulus (GPa) = 27.86944 31.92141 29.89542
# Shear Modulus (GPa) = 16.48594 19.02247 17.75420
#
# Velocity S-wave (km/s) = 2.99937 3.22186 3.11260
# Velocity P-wave (km/s) = 5.21565 5.59103 5.40660
#
# Compressibility (1/GPa) = 0.03588159
#
# Stress axis : x y z
#
# Youngs Moduli (GPa) = 53.29178 47.24205 51.35410
#
# Poissons Ratio (x) = 0.17588 0.50313
# Poissons Ratio (y) = 0.19841 -0.09031
# Poissons Ratio (z) = 0.52211 -0.08308
#
# Static dielectric constant tensor:
#      x y z
#    x 1.665260 0.000000 0.000000 
#    y 0.000000 1.646230 0.000000 
#    z 0.000000 0.000000 1.639320 
# 
# From -- ./inp_files/53181.got.cif
#   From: 2010.05.17/outbox.cif.g08.bks.cpg/sg63_27_cif.got.tgz:53181.got - 2010.06.03 15:47:04.
