data_PCOD9472885
_publ_section_title
;
Structure prediction by ZEFSAII (Michael W. Deem and Ramdas Pophale) SiO2 
 PCOD9472885
Probable space group: C M C M
;
_chemical_formula_sum "Si O2"
_cell_formula_units_Z 112
_cell_length_a 22.932723
_cell_length_b 14.787395
_cell_length_c 16.161637
_cell_angle_alpha 90.000000
_cell_angle_beta 90.000000
_cell_angle_gamma 90.000000
_cell_volume 5480.657304
_symmetry_space_group_name_H-M "C M C M"
_symmetry_group_IT_number 63
_symmetry_cell_setting 'orthorhombic'
loop_
_space_group_symop_operation_xyz
x,y,z
-x,-y,1/2+z
x,-y,-z
-x,y,1/2-z
-x,-y,-z
x,y,1/2-z
-x,y,z
x,-y,1/2+z
1/2+x,1/2+y,z
1/2-x,1/2-y,1/2+z
1/2+x,1/2-y,-z
1/2-x,1/2+y,1/2-z
1/2-x,1/2-y,-z
1/2+x,1/2+y,1/2-z
1/2-x,1/2+y,z
1/2+x,1/2-y,1/2+z
loop_
_atom_site_type_symbol
_atom_site_label
_atom_site_fract_x
_atom_site_fract_y
_atom_site_fract_z
Si Si1 0.715622 0.096339 0.540094
Si Si2 0.933796 0.200836 0.050858
Si Si3 0.323880 0.390549 0.157010
Si Si4 0.346763 0.214022 0.079261
Si Si5 0.935260 0.569958 0.150494
Si Si6 0.933476 0.981715 0.652584
Si Si7 0.895438 0.630472 0.651755
O O1 0.776727 0.088363 0.586738
O O2 0.708321 0.170918 0.468025
O O3 0.667086 0.123521 0.607463
O O4 0.701328 0.000000 0.500000
O O5 0.922284 0.105720 0.096091
O O6 0.928516 0.282752 0.116478
O O7 0.000000 0.198547 0.017878
O O8 0.885775 0.226034 0.983138
O O9 0.304737 0.416772 0.250000
O O10 0.331400 0.282566 0.151794
O O11 0.384515 0.442387 0.140252
O O12 0.386773 0.131180 0.108298
O O13 0.930686 0.579044 0.250000
O O14 0.927019 0.464150 0.131194
O O15 0.000000 0.599295 0.124717
O O16 0.931094 0.955737 0.750000
O O17 0.000000 0.013407 0.636036
O O18 0.889636 0.636689 0.750000
#
# Coordination Sequence:
#
# PCOD9472885 Si02
#       7
#    16  16  16  16  16  16  16
#     4  11  23  42  65  88 121 161 203 263 313 362
#     4  10  21  35  59  93 127 162 203 254 306 361
#     4  11  25  44  66  90 120 162 207 252 308 376
#     4  11  23  40  61  90 123 163 201 255 310 367
#     4  10  20  35  58  89 125 166 208 249 302 371
#     4   9  20  40  64  92 124 160 203 253 308 366
#     4  10  20  37  60  89 125 167 209 253 305 364
#
# _framework density 20.435506
#
# number of rings (size 3 to 8) (size 9 to 14) (size 15 to 20)
#    0.000    1.714    1.429    2.571    2.000    2.571 
#    0.000    5.000    0.000    0.000    0.000    0.000 
#    0.000    0.000    0.000    0.000    0.000    0.000 
#
# Total GULP energy -312867.534861 kJ/mol
# GULP energy per Si atom -5586.920265 kJ/mol
# Density = 2.038899 g / cm^3
# Si number density = 20.435506 Si / 1000 Ang^3
#
#
#
# Elastic Constant Matrix: (Units=GPa)
#
#
# Indices 1 2 3 4 5 6 
#
# 1 74.9016 16.6524 23.5705 0.0000 0.0000 0.0000
# 2 16.6524 73.6851 25.4417 0.0000 0.0000 0.0000
# 3 23.5705 25.4417 53.7135 0.0000 0.0000 0.0000
# 4 0.0000 0.0000 0.0000 37.8288 0.0000 0.0000
# 5 0.0000 0.0000 0.0000 0.0000 26.3487 0.0000
# 6 0.0000 0.0000 0.0000 0.0000 0.0000 23.9216
#
#
#
# Elastic Compliance Matrix: (Units=1/GPa)
#
#
# Indices 1 2 3 4 5 6 
#
# 1 0.015608 -0.001390 -0.006191 0.000000 0.000000 0.000000
# 2 -0.001390 0.016348 -0.007134 0.000000 0.000000 0.000000
# 3 -0.006191 -0.007134 0.024713 0.000000 0.000000 0.000000
# 4 0.000000 0.000000 0.000000 0.026435 0.000000 0.000000
# 5 0.000000 0.000000 0.000000 0.000000 0.037953 0.000000
# 6 0.000000 0.000000 0.000000 0.000000 0.000000 0.041803
#
#
# Mechanical properties :
#
#
# Convention : Reuss Voigt Hill
#
# Bulk Modulus (GPa) = 36.70967 37.06991 36.88979
# Shear Modulus (GPa) = 24.83009 26.72886 25.77947
#
# Velocity S-wave (km/s) = 3.48953 3.62050 3.55562
# Velocity P-wave (km/s) = 5.85136 5.97132 5.91165
#
# Compressibility (1/GPa) = 0.02724078
#
# Stress axis : x y z
#
# Youngs Moduli (GPa) = 64.06981 61.16791 40.46478
#
# Poissons Ratio (x) = 0.08501 0.25051
# Poissons Ratio (y) = 0.08904 0.28866
# Poissons Ratio (z) = 0.39664 0.43635
#
# Static dielectric constant tensor:
#      x y z
#    x 1.717330 0.000000 0.000000 
#    y 0.000000 1.702200 0.000000 
#    z 0.000000 0.000000 1.723130 
# 
# From -- ./inp_files/36903.got.cif
#   From: 2010.05.17/outbox.cif.g08.bks.cpg/sg63_19_cif.got.tgz:36903.got - 2010.06.03 15:47:04.
