data_PCOD9472716
_publ_section_title
;
Structure prediction by ZEFSAII (Michael W. Deem and Ramdas Pophale) SiO2 
 PCOD9472716
Probable space group: C M C M
;
_chemical_formula_sum "Si O2"
_cell_formula_units_Z 64
_cell_length_a 25.337098
_cell_length_b 12.685481
_cell_length_c 7.821503
_cell_angle_alpha 90.000000
_cell_angle_beta 90.000000
_cell_angle_gamma 90.000000
_cell_volume 2513.934897
_symmetry_space_group_name_H-M "C M C M"
_symmetry_group_IT_number 63
_symmetry_cell_setting 'orthorhombic'
loop_
_space_group_symop_operation_xyz
x,y,z
-x,-y,1/2+z
x,-y,-z
-x,y,1/2-z
-x,-y,-z
x,y,1/2-z
-x,y,z
x,-y,1/2+z
1/2+x,1/2+y,z
1/2-x,1/2-y,1/2+z
1/2+x,1/2-y,-z
1/2-x,1/2+y,1/2-z
1/2-x,1/2-y,-z
1/2+x,1/2+y,1/2-z
1/2-x,1/2+y,z
1/2+x,1/2-y,1/2+z
loop_
_atom_site_type_symbol
_atom_site_label
_atom_site_fract_x
_atom_site_fract_y
_atom_site_fract_z
Si Si1 0.558375 0.654932 0.446596
Si Si2 0.213773 0.614810 0.046371
Si Si3 0.562768 0.113328 0.438490
Si Si4 0.670438 0.335165 0.952517
O O1 0.556437 0.618727 0.250000
O O2 0.500000 0.631703 0.523794
O O3 0.565170 0.782197 0.447836
O O4 0.614823 0.623222 0.526789
O O5 0.216216 0.628372 0.250000
O O6 0.274041 0.622592 0.976177
O O7 0.194303 0.500000 0.000000
O O8 0.178763 0.709360 0.974280
O O9 0.585090 0.137611 0.250000
O O10 0.500000 0.098775 0.419878
O O11 0.582451 0.000000 0.500000
O O12 0.668668 0.357746 0.750000
#
# Coordination Sequence:
#
# PCOD9472716 Si02
#       4
#    16  16  16  16
#     4   9  17  30  48  69  95 128 163 200 244 294
#     4  10  20  35  56  79 103 133 169 213 262 306
#     4   9  16  25  37  55  82 118 159 198 235 280
#     4   9  19  35  54  78 105 133 170 212 254 304
#
# _framework density 25.458096999999999
#
# number of rings (size 3 to 8) (size 9 to 14) (size 15 to 20)
#    0.000    2.750    0.000    1.500    0.000    6.000 
#    0.000    0.000    0.000    0.750    0.000    0.000 
#    0.000    0.000    0.000    0.000    0.000    0.750 
#
# Total GULP energy -178558.227294 kJ/mol
# GULP energy per Si atom -5579.944603 kJ/mol
# Density = 2.540015 g / cm^3
# Si number density = 25.458097 Si / 1000 Ang^3
#
#
#
# Elastic Constant Matrix: (Units=GPa)
#
#
# Indices 1 2 3 4 5 6 
#
# 1 271.6941 6.0023 0.5180 0.0000 0.0000 0.0000
# 2 6.0023 94.4972 -16.5236 0.0000 0.0000 0.0000
# 3 0.5180 -16.5236 57.7471 0.0000 0.0000 0.0000
# 4 0.0000 0.0000 0.0000 5.3758 0.0000 0.0000
# 5 0.0000 0.0000 0.0000 0.0000 8.2038 0.0000
# 6 0.0000 0.0000 0.0000 0.0000 0.0000 4.8785
#
#
#
# Elastic Compliance Matrix: (Units=1/GPa)
#
#
# Indices 1 2 3 4 5 6 
#
# 1 0.003686 -0.000253 -0.000105 0.000000 0.000000 0.000000
# 2 -0.000253 0.011157 0.003195 0.000000 0.000000 0.000000
# 3 -0.000105 0.003195 0.018232 0.000000 0.000000 0.000000
# 4 0.000000 0.000000 0.000000 0.186019 0.000000 0.000000
# 5 0.000000 0.000000 0.000000 0.000000 0.121895 0.000000
# 6 0.000000 0.000000 0.000000 0.000000 0.000000 0.204982
#
#
# Mechanical properties :
#
#
# Convention : Reuss Voigt Hill
#
# Bulk Modulus (GPa) = 25.80718 44.88130 35.34424
# Shear Modulus (GPa) = 9.03808 32.62106 20.82957
#
# Velocity S-wave (km/s) = 1.88624 3.58350 2.86351
# Velocity P-wave (km/s) = 3.86044 5.89828 4.98461
#
# Compressibility (1/GPa) = 0.03874891
#
# Stress axis : x y z
#
# Youngs Moduli (GPa) = 271.26806 89.62997 54.84876
#
# Poissons Ratio (x) = 0.02264 0.00578
# Poissons Ratio (y) = 0.06851 -0.17523
# Poissons Ratio (z) = 0.02857 -0.28634
#
# Static dielectric constant tensor:
#      x y z
#    x 2.121960 0.000000 0.000000 
#    y 0.000000 2.021980 0.000000 
#    z 0.000000 0.000000 1.959720 
# 
# From -- ./inp_files/13854.got.cif
#   From: 2010.05.17/outbox.cif.g08.bks.cpg/sg63_7_cif.got.tgz:13854.got - 2010.06.03 15:47:04.
