data_PCOD9472706
_publ_section_title
;
Structure prediction by ZEFSAII (Michael W. Deem and Ramdas Pophale) SiO2 
 PCOD9472706
Probable space group: C M C M
;
_chemical_formula_sum "Si O2"
_cell_formula_units_Z 80
_cell_length_a 20.509012
_cell_length_b 9.884147
_cell_length_c 22.418013
_cell_angle_alpha 90.000000
_cell_angle_beta 90.000000
_cell_angle_gamma 90.000000
_cell_volume 4544.447092
_symmetry_space_group_name_H-M "C M C M"
_symmetry_group_IT_number 63
_symmetry_cell_setting 'orthorhombic'
loop_
_space_group_symop_operation_xyz
x,y,z
-x,-y,1/2+z
x,-y,-z
-x,y,1/2-z
-x,-y,-z
x,y,1/2-z
-x,y,z
x,-y,1/2+z
1/2+x,1/2+y,z
1/2-x,1/2-y,1/2+z
1/2+x,1/2-y,-z
1/2-x,1/2+y,1/2-z
1/2-x,1/2-y,-z
1/2+x,1/2+y,1/2-z
1/2-x,1/2+y,z
1/2+x,1/2-y,1/2+z
loop_
_atom_site_type_symbol
_atom_site_label
_atom_site_fract_x
_atom_site_fract_y
_atom_site_fract_z
Si Si1 0.500000 0.215381 0.453460
Si Si2 0.500000 0.104396 0.583140
Si Si3 0.166106 0.795140 0.250000
Si Si4 0.139429 0.554299 0.626812
Si Si5 0.625712 0.731430 0.881263
Si Si6 0.792135 0.480050 0.250000
Si Si7 0.756833 0.124772 0.543153
O O1 0.500000 0.202217 0.525254
O O2 0.437630 0.285010 0.422731
O O3 0.500000 0.055021 0.435969
O O4 0.567647 0.116724 0.618869
O O5 0.123835 0.802216 0.189245
O O6 0.201864 0.645540 0.250000
O O7 0.220358 0.913716 0.250000
O O8 0.137627 0.392764 0.616415
O O9 0.170249 0.572272 0.691682
O O10 0.189057 0.608849 0.577766
O O11 0.685977 0.651664 0.909732
O O12 0.750000 0.250000 0.500000
O O13 0.770472 0.000000 0.500000
#
# Coordination Sequence:
#
# PCOD9472706 Si02
#       7
#     8   8   8  16  16   8  16
#     4   9  18  33  54  79 114 147 181 223 280 335
#     4   9  18  31  53  81 114 145 179 228 282 324
#     4  10  20  35  57  83 111 143 186 232 278 332
#     4  10  20  35  55  82 111 146 185 231 277 335
#     4  10  20  36  55  82 111 146 186 231 278 328
#     4  10  20  35  55  83 113 141 186 230 282 330
#     4  12  22  33  54  82 111 141 187 227 274 330
#
# _framework density 17.603902000000001
#
# number of rings (size 3 to 8) (size 9 to 14) (size 15 to 20)
#    0.000    1.800    4.000    1.200    2.800    0.800 
#    0.000    4.500    0.000    0.000    0.000    1.400 
#    0.000    0.000    0.000    0.000    0.000    0.000 
#
# Total GULP energy -222950.778646 kJ/mol
# GULP energy per Si atom -5573.769466 kJ/mol
# Density = 1.756383 g / cm^3
# Si number density = 17.603902 Si / 1000 Ang^3
#
#
#
# Elastic Constant Matrix: (Units=GPa)
#
#
# Indices 1 2 3 4 5 6 
#
# 1 91.8541 10.4673 24.9851 0.0000 0.0000 0.0000
# 2 10.4673 38.0850 26.9798 0.0000 0.0000 0.0000
# 3 24.9851 26.9798 95.8168 0.0000 0.0000 0.0000
# 4 0.0000 0.0000 0.0000 21.4121 0.0000 0.0000
# 5 0.0000 0.0000 0.0000 0.0000 28.8535 0.0000
# 6 0.0000 0.0000 0.0000 0.0000 0.0000 13.7150
#
#
#
# Elastic Compliance Matrix: (Units=1/GPa)
#
#
# Indices 1 2 3 4 5 6 
#
# 1 0.011771 -0.001325 -0.002696 0.000000 0.000000 0.000000
# 2 -0.001325 0.032949 -0.008932 0.000000 0.000000 0.000000
# 3 -0.002696 -0.008932 0.013655 0.000000 0.000000 0.000000
# 4 0.000000 0.000000 0.000000 0.046703 0.000000 0.000000
# 5 0.000000 0.000000 0.000000 0.000000 0.034658 0.000000
# 6 0.000000 0.000000 0.000000 0.000000 0.000000 0.072913
#
#
# Mechanical properties :
#
#
# Convention : Reuss Voigt Hill
#
# Bulk Modulus (GPa) = 30.79978 38.95780 34.87879
# Shear Modulus (GPa) = 20.04991 23.68437 21.86714
#
# Velocity S-wave (km/s) = 3.37849 3.67195 3.52827
# Velocity P-wave (km/s) = 5.72302 6.33687 6.03775
#
# Compressibility (1/GPa) = 0.03246777
#
# Stress axis : x y z
#
# Youngs Moduli (GPa) = 84.95263 30.35010 73.23456
#
# Poissons Ratio (x) = 0.04022 0.19747
# Poissons Ratio (y) = 0.11257 0.65414
# Poissons Ratio (z) = 0.22906 0.27109
#
# Static dielectric constant tensor:
#      x y z
#    x 1.699760 0.000000 0.000000 
#    y 0.000000 1.579370 0.000000 
#    z 0.000000 0.000000 1.596900 
# 
# From -- ./inp_files/64339.got.cif
#   From: 2010.05.17/outbox.cif.g08.bks.cpg/sg63_33_cif.got.tgz:64339.got - 2010.06.03 15:47:04.
