data_PCOD9472958
_publ_section_title
;
Structure prediction by ZEFSAII (Michael W. Deem and Ramdas Pophale) SiO2 
 PCOD9472958
Probable space group: C M C M
;
_chemical_formula_sum "Si O2"
_cell_formula_units_Z 112
_cell_length_a 15.722282
_cell_length_b 12.639213
_cell_length_c 29.132520
_cell_angle_alpha 90.000000
_cell_angle_beta 90.000000
_cell_angle_gamma 90.000000
_cell_volume 5789.134873
_symmetry_space_group_name_H-M "C M C M"
_symmetry_group_IT_number 63
_symmetry_cell_setting 'orthorhombic'
loop_
_space_group_symop_operation_xyz
x,y,z
-x,-y,1/2+z
x,-y,-z
-x,y,1/2-z
-x,-y,-z
x,y,1/2-z
-x,y,z
x,-y,1/2+z
1/2+x,1/2+y,z
1/2-x,1/2-y,1/2+z
1/2+x,1/2-y,-z
1/2-x,1/2+y,1/2-z
1/2-x,1/2-y,-z
1/2+x,1/2+y,1/2-z
1/2-x,1/2+y,z
1/2+x,1/2-y,1/2+z
loop_
_atom_site_type_symbol
_atom_site_label
_atom_site_fract_x
_atom_site_fract_y
_atom_site_fract_z
Si Si1 0.401747 0.129084 0.410192
Si Si2 0.668533 0.456842 0.629900
Si Si3 0.095311 0.123569 0.802330
Si Si4 0.404856 0.415340 0.534297
Si Si5 0.765811 0.737597 0.346411
Si Si6 0.826987 0.411644 0.102413
Si Si7 0.843944 0.300063 0.494137
O O1 0.500000 0.161419 0.405937
O O2 0.334091 0.208464 0.386611
O O3 0.372613 0.129283 0.463187
O O4 0.389080 0.011145 0.389355
O O5 0.609111 0.529726 0.661009
O O6 0.630147 0.399230 0.585544
O O7 0.719642 0.374173 0.661661
O O8 0.734875 0.533925 0.604681
O O9 0.100023 0.084330 0.750000
O O10 0.172313 0.206319 0.810098
O O11 0.000000 0.169336 0.808863
O O12 0.360819 0.500000 0.500000
O O13 0.500000 0.455987 0.541867
O O14 0.402695 0.303231 0.509347
O O15 0.690256 0.817093 0.361691
O O16 0.847135 0.362630 0.053308
O O17 0.750000 0.250000 0.500000
#
# Coordination Sequence:
#
# PCOD9472958 Si02
#       7
#    16  16  16  16  16  16  16
#     4  11  23  35  53  81 111 148 191 239 278 318
#     4  10  20  38  60  82 111 148 189 230 279 339
#     4  10  22  39  62  90 115 140 178 233 293 349
#     4  11  23  34  50  81 115 152 197 241 279 325
#     4  10  20  39  60  81 110 149 186 226 285 345
#     4  10  20  36  53  76 105 147 188 229 271 323
#     4  12  20  35  52  72 108 155 195 232 271 326
#
# _framework density 19.346587
#
# number of rings (size 3 to 8) (size 9 to 14) (size 15 to 20)
#    0.000    1.429    2.857    3.429    2.000    2.286 
#    0.000    0.000    0.000    0.000    0.000    0.000 
#    0.000    6.857    0.000    0.000    0.000    0.000 
#
# Total GULP energy -311960.854794 kJ/mol
# GULP energy per Si atom -5570.729550 kJ/mol
# Density = 1.930255 g / cm^3
# Si number density = 19.346587 Si / 1000 Ang^3
#
#
#
# Elastic Constant Matrix: (Units=GPa)
#
#
# Indices 1 2 3 4 5 6 
#
# 1 49.1707 7.5909 18.9730 0.0000 0.0000 0.0000
# 2 7.5909 77.2473 12.4800 0.0000 0.0000 0.0000
# 3 18.9730 12.4800 56.5787 0.0000 0.0000 0.0000
# 4 0.0000 0.0000 0.0000 17.3834 0.0000 0.0000
# 5 0.0000 0.0000 0.0000 0.0000 23.6717 0.0000
# 6 0.0000 0.0000 0.0000 0.0000 0.0000 18.6021
#
#
#
# Elastic Compliance Matrix: (Units=1/GPa)
#
#
# Indices 1 2 3 4 5 6 
#
# 1 0.023445 -0.001072 -0.007626 0.000000 0.000000 0.000000
# 2 -0.001072 0.013473 -0.002612 0.000000 0.000000 0.000000
# 3 -0.007626 -0.002612 0.020808 0.000000 0.000000 0.000000
# 4 0.000000 0.000000 0.000000 0.057526 0.000000 0.000000
# 5 0.000000 0.000000 0.000000 0.000000 0.042245 0.000000
# 6 0.000000 0.000000 0.000000 0.000000 0.000000 0.053757
#
#
# Mechanical properties :
#
#
# Convention : Reuss Voigt Hill
#
# Bulk Modulus (GPa) = 28.48504 29.00938 28.74721
# Shear Modulus (GPa) = 20.36032 21.52830 20.94431
#
# Velocity S-wave (km/s) = 3.24759 3.33944 3.29383
# Velocity P-wave (km/s) = 5.36824 5.46775 5.41822
#
# Compressibility (1/GPa) = 0.03510614
#
# Stress axis : x y z
#
# Youngs Moduli (GPa) = 42.65257 74.22350 48.05865
#
# Poissons Ratio (x) = 0.07956 0.36648
# Poissons Ratio (y) = 0.04572 0.12555
# Poissons Ratio (z) = 0.32525 0.19390
#
# Static dielectric constant tensor:
#      x y z
#    x 1.719570 0.000000 0.000000 
#    y 0.000000 1.742340 0.000000 
#    z 0.000000 0.000000 1.719110 
# 
# From -- ./inp_files/73399.got.cif
#   From: 2010.05.17/outbox.cif.g08.bks.cpg/sg63_37_cif.got.tgz:73399.got - 2010.06.03 15:47:04.
