data_PCOD9472910
_publ_section_title
;
Structure prediction by ZEFSAII (Michael W. Deem and Ramdas Pophale) SiO2 
 PCOD9472910
Probable space group: C M C M
;
_chemical_formula_sum "Si O2"
_cell_formula_units_Z 96
_cell_length_a 19.717846
_cell_length_b 13.296457
_cell_length_c 19.173665
_cell_angle_alpha 90.000000
_cell_angle_beta 90.000000
_cell_angle_gamma 90.000000
_cell_volume 5026.903392
_symmetry_space_group_name_H-M "C M C M"
_symmetry_group_IT_number 63
_symmetry_cell_setting 'orthorhombic'
loop_
_space_group_symop_operation_xyz
x,y,z
-x,-y,1/2+z
x,-y,-z
-x,y,1/2-z
-x,-y,-z
x,y,1/2-z
-x,y,z
x,-y,1/2+z
1/2+x,1/2+y,z
1/2-x,1/2-y,1/2+z
1/2+x,1/2-y,-z
1/2-x,1/2+y,1/2-z
1/2-x,1/2-y,-z
1/2+x,1/2+y,1/2-z
1/2-x,1/2+y,z
1/2+x,1/2-y,1/2+z
loop_
_atom_site_type_symbol
_atom_site_label
_atom_site_fract_x
_atom_site_fract_y
_atom_site_fract_z
Si Si1 0.805023 0.142597 0.079296
Si Si2 0.786611 0.059126 0.832273
Si Si3 0.918849 0.591845 0.052369
Si Si4 0.172490 0.781312 0.068735
Si Si5 0.371164 0.953584 0.169439
Si Si6 0.423607 0.741721 0.332777
O O1 0.738989 0.213765 0.083854
O O2 0.868883 0.189980 0.118900
O O3 0.793891 0.038523 0.119180
O O4 0.817411 0.142940 0.996344
O O5 0.799585 0.040304 0.750000
O O6 0.833106 0.148088 0.863362
O O7 0.706264 0.083745 0.839681
O O8 0.883885 0.700448 0.044487
O O9 0.890767 0.549249 0.124919
O O10 0.000000 0.600881 0.050454
O O11 0.899082 0.500000 0.000000
O O12 0.379795 0.977838 0.250000
O O13 0.419144 0.860345 0.151026
O O14 0.407239 0.730654 0.250000
O O15 0.500000 0.705139 0.344067
#
# Coordination Sequence:
#
# PCOD9472910 Si02
#       6
#    16  16  16  16  16  16
#     4  11  22  38  61  87 125 163 208 260 310 375
#     4  11  23  39  62  92 123 161 212 259 309 371
#     4  11  24  41  63  92 127 163 204 254 317 384
#     4  11  24  38  62  91 125 164 208 257 320 375
#     4  10  20  35  59  89 123 156 198 256 312 371
#     4  10  20  36  60  90 124 164 210 260 313 369
#
# _framework density 19.097242999999999
#
# number of rings (size 3 to 8) (size 9 to 14) (size 15 to 20)
#    0.000    1.333    3.333    2.500    2.333    4.333 
#    0.000    0.833    0.000    3.000    0.000    0.000 
#    0.000    0.000    0.000    0.000    0.000    0.000 
#
# Total GULP energy -267765.720049 kJ/mol
# GULP energy per Si atom -5578.452501 kJ/mol
# Density = 1.905378 g / cm^3
# Si number density = 19.097243 Si / 1000 Ang^3
#
#
#
# Elastic Constant Matrix: (Units=GPa)
#
#
# Indices 1 2 3 4 5 6 
#
# 1 69.9329 26.8001 34.9912 0.0000 0.0000 0.0000
# 2 26.8001 75.0779 60.6290 0.0000 0.0000 0.0000
# 3 34.9912 60.6290 68.2666 0.0000 0.0000 0.0000
# 4 0.0000 0.0000 0.0000 38.4282 0.0000 0.0000
# 5 0.0000 0.0000 0.0000 0.0000 19.3130 0.0000
# 6 0.0000 0.0000 0.0000 0.0000 0.0000 27.0683
#
#
#
# Elastic Compliance Matrix: (Units=1/GPa)
#
#
# Indices 1 2 3 4 5 6 
#
# 1 0.019556 0.003939 -0.013522 0.000000 0.000000 0.000000
# 2 0.003939 0.047892 -0.044553 0.000000 0.000000 0.000000
# 3 -0.013522 -0.044553 0.061148 0.000000 0.000000 0.000000
# 4 0.000000 0.000000 0.000000 0.026023 0.000000 0.000000
# 5 0.000000 0.000000 0.000000 0.000000 0.051779 0.000000
# 6 0.000000 0.000000 0.000000 0.000000 0.000000 0.036944
#
#
# Mechanical properties :
#
#
# Convention : Reuss Voigt Hill
#
# Bulk Modulus (GPa) = 49.20356 50.90198 50.05277
# Shear Modulus (GPa) = 13.95144 23.01903 18.48523
#
# Velocity S-wave (km/s) = 2.70580 3.47559 3.11457
# Velocity P-wave (km/s) = 5.96510 6.54357 6.26102
#
# Compressibility (1/GPa) = 0.02032373
#
# Stress axis : x y z
#
# Youngs Moduli (GPa) = 51.13626 20.88027 16.35390
#
# Poissons Ratio (x) = -0.08224 0.22113
# Poissons Ratio (y) = -0.20141 0.72861
# Poissons Ratio (z) = 0.69144 0.93028
#
# Static dielectric constant tensor:
#      x y z
#    x 1.663410 0.000000 0.000000 
#    y 0.000000 1.730610 0.000000 
#    z 0.000000 0.000000 1.700420 
# 
# From -- ./inp_files/56550.got.cif
#   From: 2010.05.17/outbox.cif.g08.bks.cpg/sg63_29_cif.got.tgz:56550.got - 2010.06.03 15:47:04.
