data_PCOD9472049
_publ_section_title
;
Structure prediction by ZEFSAII (Michael W. Deem and Ramdas Pophale) SiO2 
 PCOD9472049
Probable space group: C M C M
;
_chemical_formula_sum "Si O2"
_cell_formula_units_Z 80
_cell_length_a 11.372202
_cell_length_b 34.567065
_cell_length_c 11.881828
_cell_angle_alpha 90.000000
_cell_angle_beta 90.000000
_cell_angle_gamma 90.000000
_cell_volume 4670.789905
_symmetry_space_group_name_H-M "C M C M"
_symmetry_group_IT_number 63
_symmetry_cell_setting 'orthorhombic'
loop_
_space_group_symop_operation_xyz
x,y,z
-x,-y,1/2+z
x,-y,-z
-x,y,1/2-z
-x,-y,-z
x,y,1/2-z
-x,y,z
x,-y,1/2+z
1/2+x,1/2+y,z
1/2-x,1/2-y,1/2+z
1/2+x,1/2-y,-z
1/2-x,1/2+y,1/2-z
1/2-x,1/2-y,-z
1/2+x,1/2+y,1/2-z
1/2-x,1/2+y,z
1/2+x,1/2-y,1/2+z
loop_
_atom_site_type_symbol
_atom_site_label
_atom_site_fract_x
_atom_site_fract_y
_atom_site_fract_z
Si Si1 0.857924 0.880797 0.883042
Si Si2 0.719513 0.817361 0.028946
Si Si3 0.864052 0.916163 0.250000
Si Si4 0.864735 0.359976 0.250000
Si Si5 0.361709 0.542957 0.509326
Si Si6 0.134468 0.746260 0.373352
O O1 0.834630 0.875769 0.750000
O O2 0.000000 0.877776 0.899388
O O3 0.792922 0.849568 0.961171
O O4 0.817865 0.923194 0.926803
O O5 0.652694 0.835295 0.135716
O O6 0.802744 0.783004 0.073028
O O7 0.640839 0.793335 0.942330
O O8 0.751193 0.887818 0.250000
O O9 0.854955 0.941408 0.363289
O O10 0.000000 0.899249 0.250000
O O11 0.000000 0.375825 0.250000
O O12 0.309051 0.500000 0.500000
O O13 0.500000 0.539325 0.480025
O O14 0.187109 0.739424 0.250000
O O15 0.000000 0.757339 0.364437
#
# Coordination Sequence:
#
# PCOD9472049 Si02
#       6
#    16  16   8   8  16  16
#     4  10  20  33  52  81 116 150 186 235 293 347
#     4  11  21  37  54  78 109 148 186 232 282 347
#     4  10  20  36  60  88 115 152 195 239 292 347
#     4  12  24  38  58  86 117 154 195 241 290 341
#     4   9  18  31  52  84 117 147 185 236 289 340
#     4  10  21  36  56  78 102 137 184 237 286 337
#
# _framework density 17.127724000000001
#
# number of rings (size 3 to 8) (size 9 to 14) (size 15 to 20)
#    0.000    1.800    3.000    1.800    1.400    0.800 
#    0.000    0.000    0.000    0.600    0.000    0.000 
#    0.000    0.000    0.000    0.000    0.000    0.000 
#
# Total GULP energy -222702.853165 kJ/mol
# GULP energy per Si atom -5567.571329 kJ/mol
# Density = 1.708874 g / cm^3
# Si number density = 17.127724 Si / 1000 Ang^3
#
#
#
# Elastic Constant Matrix: (Units=GPa)
#
#
# Indices 1 2 3 4 5 6 
#
# 1 67.1023 39.5159 24.4777 0.0000 0.0000 0.0000
# 2 39.5159 102.4590 46.4467 0.0000 0.0000 0.0000
# 3 24.4777 46.4467 109.1907 0.0000 0.0000 0.0000
# 4 0.0000 0.0000 0.0000 15.5261 0.0000 0.0000
# 5 0.0000 0.0000 0.0000 0.0000 18.7420 0.0000
# 6 0.0000 0.0000 0.0000 0.0000 0.0000 11.3643
#
#
#
# Elastic Compliance Matrix: (Units=1/GPa)
#
#
# Indices 1 2 3 4 5 6 
#
# 1 0.019465 -0.006850 -0.001450 0.000000 0.000000 0.000000
# 2 -0.006850 0.014502 -0.004633 0.000000 0.000000 0.000000
# 3 -0.001450 -0.004633 0.011454 0.000000 0.000000 0.000000
# 4 0.000000 0.000000 0.000000 0.064408 0.000000 0.000000
# 5 0.000000 0.000000 0.000000 0.000000 0.053356 0.000000
# 6 0.000000 0.000000 0.000000 0.000000 0.000000 0.087995
#
#
# Mechanical properties :
#
#
# Convention : Reuss Voigt Hill
#
# Bulk Modulus (GPa) = 51.13638 55.51472 53.32555
# Shear Modulus (GPa) = 17.63260 20.34725 18.98993
#
# Velocity S-wave (km/s) = 3.21203 3.45044 3.33336
# Velocity P-wave (km/s) = 6.60885 6.95389 6.78356
#
# Compressibility (1/GPa) = 0.01955555
#
# Stress axis : x y z
#
# Youngs Moduli (GPa) = 51.37307 68.95480 87.30462
#
# Poissons Ratio (x) = 0.47235 0.12657
# Poissons Ratio (y) = 0.35191 0.40450
# Poissons Ratio (z) = 0.07448 0.31948
#
# Static dielectric constant tensor:
#      x y z
#    x 1.582570 0.000000 0.000000 
#    y 0.000000 1.582130 0.000000 
#    z 0.000000 0.000000 1.620440 
# 
# From -- ./inp_files/17894.got.cif
#   From: 2010.05.17/outbox.cif.g08.bks.cpg/sg63_9_cif.got.tgz:17894.got - 2010.06.03 15:47:04.
