data_PCOD9472941
_publ_section_title
;
Structure prediction by ZEFSAII (Michael W. Deem and Ramdas Pophale) SiO2 
 PCOD9472941
Probable space group: C M C M
;
_chemical_formula_sum "Si O2"
_cell_formula_units_Z 100
_cell_length_a 8.031522
_cell_length_b 29.601564
_cell_length_c 19.007193
_cell_angle_alpha 90.000000
_cell_angle_beta 90.000000
_cell_angle_gamma 90.000000
_cell_volume 4518.876742
_symmetry_space_group_name_H-M "C M C M"
_symmetry_group_IT_number 63
_symmetry_cell_setting 'orthorhombic'
loop_
_space_group_symop_operation_xyz
x,y,z
-x,-y,1/2+z
x,-y,-z
-x,y,1/2-z
-x,-y,-z
x,y,1/2-z
-x,y,z
x,-y,1/2+z
1/2+x,1/2+y,z
1/2-x,1/2-y,1/2+z
1/2+x,1/2-y,-z
1/2-x,1/2+y,1/2-z
1/2-x,1/2-y,-z
1/2+x,1/2+y,1/2-z
1/2-x,1/2+y,z
1/2+x,1/2-y,1/2+z
loop_
_atom_site_type_symbol
_atom_site_label
_atom_site_fract_x
_atom_site_fract_y
_atom_site_fract_z
Si Si1 0.801004 0.194425 0.567767
Si Si2 0.811232 0.993845 0.149326
Si Si3 0.195155 0.377465 0.829103
Si Si4 0.687722 0.903057 0.104680
Si Si5 0.500000 0.014666 0.250000
Si Si6 0.688512 0.564824 0.039491
Si Si7 0.196875 0.206814 0.405899
O O1 0.747363 0.148364 0.604665
O O2 0.745632 0.194103 0.485466
O O3 0.730172 0.240043 0.601518
O O4 0.000000 0.197650 0.567090
O O5 0.795009 0.939815 0.146264
O O6 0.000000 0.006144 0.172079
O O7 0.651059 0.011877 0.190616
O O8 0.794232 0.015049 0.071540
O O9 0.258784 0.385949 0.750000
O O10 0.285197 0.404295 0.891193
O O11 0.214036 0.325054 0.849923
O O12 0.000000 0.389891 0.828941
O O13 0.500000 0.906131 0.131357
O O14 0.695446 0.918999 0.023142
O O15 0.500000 0.571608 0.013230
O O16 0.000000 0.198089 0.401384
#
# Coordination Sequence:
#
# PCOD9472941 Si02
#       7
#    16  16  16  16   4  16  16
#     4  10  20  35  61  90 124 159 203 260 323 379
#     4  11  26  45  69  96 131 173 221 276 330 395
#     4  11  24  38  59  88 126 170 214 261 323 395
#     4  12  23  39  66  99 131 169 215 272 333 389
#     4  12  26  48  70  94 128 176 228 272 328 398
#     4  11  24  40  62  95 131 169 213 269 329 391
#     4  10  20  36  58  88 121 160 204 258 316 382
#
# _framework density 22.129393
#
# number of rings (size 3 to 8) (size 9 to 14) (size 15 to 20)
#    0.000    1.120    2.400    4.080    3.360    4.480 
#    0.000    0.000    1.760    0.000    0.000    0.000 
#    0.000    0.000    0.000    0.000    0.000    0.000 
#
# Total GULP energy -279128.212404 kJ/mol
# GULP energy per Si atom -5582.564248 kJ/mol
# Density = 2.207903 g / cm^3
# Si number density = 22.129393 Si / 1000 Ang^3
#
#
#
# Elastic Constant Matrix: (Units=GPa)
#
#
# Indices 1 2 3 4 5 6 
#
# 1 115.4943 7.8172 18.9405 0.0000 0.0000 0.0000
# 2 7.8172 109.6909 -3.9267 0.0000 0.0000 0.0000
# 3 18.9405 -3.9267 46.9654 0.0000 0.0000 0.0000
# 4 0.0000 0.0000 0.0000 -27.7365 0.0000 0.0000
# 5 0.0000 0.0000 0.0000 0.0000 -117.0611 0.0000
# 6 0.0000 0.0000 0.0000 0.0000 0.0000 37.1688
#
#
#
# Elastic Compliance Matrix: (Units=1/GPa)
#
#
# Indices 1 2 3 4 5 6 
#
# 1 0.009342 -0.000803 -0.003834 0.000000 0.000000 0.000000
# 2 -0.000803 0.009213 0.001094 0.000000 0.000000 0.000000
# 3 -0.003834 0.001094 0.022930 0.000000 0.000000 0.000000
# 4 0.000000 0.000000 0.000000 -0.036054 0.000000 0.000000
# 5 0.000000 0.000000 0.000000 0.000000 -0.008543 0.000000
# 6 0.000000 0.000000 0.000000 0.000000 0.000000 0.026904
#
#
# Mechanical properties :
#
#
# Convention : Reuss Voigt Hill
#
# Bulk Modulus (GPa) = 29.07151 35.31252 32.19202
# Shear Modulus (GPa) = 118.07614 -4.90445 56.58584
#
# Velocity S-wave (km/s) = 7.31252 -1.49033 5.06221
# Velocity P-wave (km/s) = 9.19037 3.60978 6.98188
#
# Compressibility (1/GPa) = 0.03439794
#
# Stress axis : x y z
#
# Youngs Moduli (GPa) = 107.04776 108.54316 43.61070
#
# Poissons Ratio (x) = 0.08716 0.16723
# Poissons Ratio (y) = 0.08596 -0.04772
# Poissons Ratio (z) = 0.41047 -0.11876
#
# Static dielectric constant tensor:
#      x y z
#    x 1.761040 0.000000 0.000000 
#    y 0.000000 1.871790 0.000000 
#    z 0.000000 0.000000 1.794130 
# 
# From -- ./inp_files/51513.got.cif
#   From: 2010.05.17/outbox.cif.g08.bks.cpg/sg63_26_cif.got.tgz:51513.got - 2010.06.03 15:47:04.
