data_PCOD9472225
_publ_section_title
;
Structure prediction by ZEFSAII (Michael W. Deem and Ramdas Pophale) SiO2 
 PCOD9472225
Probable space group: C M C M
;
_chemical_formula_sum "Si O2"
_cell_formula_units_Z 88
_cell_length_a 18.844918
_cell_length_b 30.465026
_cell_length_c 8.803917
_cell_angle_alpha 90.000000
_cell_angle_beta 90.000000
_cell_angle_gamma 90.000000
_cell_volume 5054.424861
_symmetry_space_group_name_H-M "C M C M"
_symmetry_group_IT_number 63
_symmetry_cell_setting 'orthorhombic'
loop_
_space_group_symop_operation_xyz
x,y,z
-x,-y,1/2+z
x,-y,-z
-x,y,1/2-z
-x,-y,-z
x,y,1/2-z
-x,y,z
x,-y,1/2+z
1/2+x,1/2+y,z
1/2-x,1/2-y,1/2+z
1/2+x,1/2-y,-z
1/2-x,1/2+y,1/2-z
1/2-x,1/2-y,-z
1/2+x,1/2+y,1/2-z
1/2-x,1/2+y,z
1/2+x,1/2-y,1/2+z
loop_
_atom_site_type_symbol
_atom_site_label
_atom_site_fract_x
_atom_site_fract_y
_atom_site_fract_z
Si Si1 0.500000 0.549046 0.067240
Si Si2 0.579978 0.854029 0.065076
Si Si3 0.583515 0.247376 0.573263
Si Si4 0.156232 0.049069 0.432639
Si Si5 0.708141 0.709157 0.570314
Si Si6 0.229964 0.615070 0.566007
O O1 0.500000 0.546567 0.250000
O O2 0.422545 0.567946 0.023841
O O3 0.500000 0.500000 0.000000
O O4 0.578551 0.853781 0.250000
O O5 0.500000 0.865953 0.014248
O O6 0.594582 0.803181 0.021553
O O7 0.646858 0.883614 0.019277
O O8 0.605911 0.249717 0.750000
O O9 0.500000 0.255449 0.566182
O O10 0.627779 0.281922 0.478333
O O11 0.159883 0.047149 0.250000
O O12 0.220345 0.078025 0.495904
O O13 0.160524 0.000000 0.500000
O O14 0.716221 0.710770 0.750000
O O15 0.750000 0.750000 0.500000
O O16 0.737945 0.662333 0.519777
O O17 0.232487 0.611821 0.750000
#
# Coordination Sequence:
#
# PCOD9472225 Si02
#       6
#     8  16  16  16  16  16
#     4   8  16  32  54  78 102 130 166 204 246 300
#     4   8  14  28  51  74  98 132 174 214 253 302
#     4   9  17  32  52  71  96 136 181 220 262 310
#     4  10  20  36  58  81 105 133 168 211 257 306
#     4  11  21  33  50  73 106 141 177 219 263 310
#     4  10  20  34  52  77 105 136 174 213 258 312
#
# _framework density 17.410488000000001
#
# number of rings (size 3 to 8) (size 9 to 14) (size 15 to 20)
#    0.000    2.545    1.818    2.182    0.000    2.545 
#    1.636    0.000    0.000    1.091    0.000    0.000 
#    0.000    0.000    0.000    0.000    0.000    0.000 
#
# Total GULP energy -245112.159029 kJ/mol
# GULP energy per Si atom -5570.730887 kJ/mol
# Density = 1.737086 g / cm^3
# Si number density = 17.410488 Si / 1000 Ang^3
#
#
#
# Elastic Constant Matrix: (Units=GPa)
#
#
# Indices 1 2 3 4 5 6 
#
# 1 158.3454 62.3868 29.0097 0.0000 0.0000 0.0000
# 2 62.3868 67.0164 22.9849 0.0000 0.0000 0.0000
# 3 29.0097 22.9849 18.7623 0.0000 0.0000 0.0000
# 4 0.0000 0.0000 0.0000 24.7796 0.0000 0.0000
# 5 0.0000 0.0000 0.0000 0.0000 27.0767 0.0000
# 6 0.0000 0.0000 0.0000 0.0000 0.0000 30.9367
#
#
#
# Elastic Compliance Matrix: (Units=1/GPa)
#
#
# Indices 1 2 3 4 5 6 
#
# 1 0.010533 -0.007277 -0.007370 0.000000 0.000000 0.000000
# 2 -0.007277 0.030762 -0.026434 0.000000 0.000000 0.000000
# 3 -0.007370 -0.026434 0.097077 0.000000 0.000000 0.000000
# 4 0.000000 0.000000 0.000000 0.040356 0.000000 0.000000
# 5 0.000000 0.000000 0.000000 0.000000 0.036932 0.000000
# 6 0.000000 0.000000 0.000000 0.000000 0.000000 0.032324
#
#
# Mechanical properties :
#
#
# Convention : Reuss Voigt Hill
#
# Bulk Modulus (GPa) = 17.79065 52.54298 35.16682
# Shear Modulus (GPa) = 14.33147 25.20812 19.76979
#
# Velocity S-wave (km/s) = 2.87217 3.80922 3.37339
# Velocity P-wave (km/s) = 4.60866 7.04211 5.95109
#
# Compressibility (1/GPa) = 0.05620929
#
# Stress axis : x y z
#
# Youngs Moduli (GPa) = 94.94144 32.50728 10.30114
#
# Poissons Ratio (x) = 0.23657 0.07592
# Poissons Ratio (y) = 0.69092 0.27230
# Poissons Ratio (z) = 0.69975 0.85928
#
# Static dielectric constant tensor:
#      x y z
#    x 1.663580 0.000000 0.000000 
#    y 0.000000 1.555310 0.000000 
#    z 0.000000 0.000000 1.594620 
# 
# From -- ./inp_files/6872.got.cif
#   From: 2010.05.17/outbox.cif.g08.bks.cpg/sg63_4_cif.got.tgz:6872.got - 2010.06.03 15:47:04.
