data_PCOD9472370
_publ_section_title
;
Structure prediction by ZEFSAII (Michael W. Deem and Ramdas Pophale) SiO2 
 PCOD9472370
Probable space group: C M C M
;
_chemical_formula_sum "Si O2"
_cell_formula_units_Z 64
_cell_length_a 15.813855
_cell_length_b 20.369978
_cell_length_c 9.271767
_cell_angle_alpha 90.000000
_cell_angle_beta 90.000000
_cell_angle_gamma 90.000000
_cell_volume 2986.694633
_symmetry_space_group_name_H-M "C M C M"
_symmetry_group_IT_number 63
_symmetry_cell_setting 'orthorhombic'
loop_
_space_group_symop_operation_xyz
x,y,z
-x,-y,1/2+z
x,-y,-z
-x,y,1/2-z
-x,-y,-z
x,y,1/2-z
-x,y,z
x,-y,1/2+z
1/2+x,1/2+y,z
1/2-x,1/2-y,1/2+z
1/2+x,1/2-y,-z
1/2-x,1/2+y,1/2-z
1/2-x,1/2-y,-z
1/2+x,1/2+y,1/2-z
1/2-x,1/2+y,z
1/2+x,1/2-y,1/2+z
loop_
_atom_site_type_symbol
_atom_site_label
_atom_site_fract_x
_atom_site_fract_y
_atom_site_fract_z
Si Si1 0.396372 0.564858 0.414493
Si Si2 0.599920 0.068123 0.922653
Si Si3 0.324627 0.792824 0.423187
Si Si4 0.903090 0.811855 0.411022
O O1 0.371549 0.500000 0.500000
O O2 0.367018 0.564730 0.250000
O O3 0.500000 0.565750 0.409523
O O4 0.364046 0.628056 0.500667
O O5 0.605090 0.059468 0.750000
O O6 0.500000 0.081667 0.956977
O O7 0.658428 0.130961 0.959487
O O8 0.623410 0.000000 0.000000
O O9 0.322470 0.786346 0.250000
O O10 0.250000 0.750000 0.500000
O O11 0.401437 0.752678 0.492892
O O12 0.866743 0.803629 0.250000
O O13 0.000000 0.831038 0.392398
#
# Coordination Sequence:
#
# PCOD9472370 Si02
#       4
#    16  16  16  16
#     4   9  16  27  45  70 101 136 174 219 269 319
#     4   9  19  37  63  93 122 154 196 249 306 363
#     4  11  23  39  58  83 118 156 194 239 297 364
#     4  10  20  34  54  80 108 142 188 238 288 349
#
# _framework density 21.428370000000001
#
# number of rings (size 3 to 8) (size 9 to 14) (size 15 to 20)
#    0.000    2.250    0.000    3.000    0.000    7.500 
#    0.000    3.750    0.000    3.000    0.000    0.000 
#    0.000    0.000    0.000    0.000    0.000    0.000 
#
# Total GULP energy -178384.515130 kJ/mol
# GULP energy per Si atom -5574.516098 kJ/mol
# Density = 2.137960 g / cm^3
# Si number density = 21.428370 Si / 1000 Ang^3
#
#
#
# Elastic Constant Matrix: (Units=GPa)
#
#
# Indices 1 2 3 4 5 6 
#
# 1 58.0234 41.7840 40.1916 0.0000 0.0000 0.0000
# 2 41.7840 212.2450 99.3605 0.0000 0.0000 0.0000
# 3 40.1916 99.3605 136.1716 0.0000 0.0000 0.0000
# 4 0.0000 0.0000 0.0000 39.0940 0.0000 0.0000
# 5 0.0000 0.0000 0.0000 0.0000 9.4841 0.0000
# 6 0.0000 0.0000 0.0000 0.0000 0.0000 10.4104
#
#
#
# Elastic Compliance Matrix: (Units=1/GPa)
#
#
# Indices 1 2 3 4 5 6 
#
# 1 0.022197 -0.001979 -0.005108 0.000000 0.000000 0.000000
# 2 -0.001979 0.007332 -0.004766 0.000000 0.000000 0.000000
# 3 -0.005108 -0.004766 0.012329 0.000000 0.000000 0.000000
# 4 0.000000 0.000000 0.000000 0.025579 0.000000 0.000000
# 5 0.000000 0.000000 0.000000 0.000000 0.105439 0.000000
# 6 0.000000 0.000000 0.000000 0.000000 0.000000 0.096057
#
#
# Mechanical properties :
#
#
# Convention : Reuss Voigt Hill
#
# Bulk Modulus (GPa) = 55.08637 85.45693 70.27165
# Shear Modulus (GPa) = 16.73968 26.80464 21.77216
#
# Velocity S-wave (km/s) = 2.79801 3.54064 3.19100
# Velocity P-wave (km/s) = 6.01677 7.52872 6.81481
#
# Compressibility (1/GPa) = 0.01815331
#
# Stress axis : x y z
#
# Youngs Moduli (GPa) = 45.05014 136.38264 81.10967
#
# Poissons Ratio (x) = 0.26987 0.41429
# Poissons Ratio (y) = 0.08914 0.38658
# Poissons Ratio (z) = 0.23011 0.65002
#
# Static dielectric constant tensor:
#      x y z
#    x 2.002430 0.000000 0.000000 
#    y 0.000000 1.761730 0.000000 
#    z 0.000000 0.000000 1.758720 
# 
# From -- ./inp_files/5741.got.cif
#   From: 2010.05.17/outbox.cif.g08.bks.cpg/sg63_3_cif.got.tgz:5741.got - 2010.06.03 15:47:04.
