data_PCOD9472015
_publ_section_title
;
Structure prediction by ZEFSAII (Michael W. Deem and Ramdas Pophale) SiO2 
 PCOD9472015
Probable space group: C M C M
;
_chemical_formula_sum "Si O2"
_cell_formula_units_Z 80
_cell_length_a 8.534642
_cell_length_b 15.373280
_cell_length_c 31.084465
_cell_angle_alpha 90.000000
_cell_angle_beta 90.000000
_cell_angle_gamma 90.000000
_cell_volume 4078.450944
_symmetry_space_group_name_H-M "C M C M"
_symmetry_group_IT_number 63
_symmetry_cell_setting 'orthorhombic'
loop_
_space_group_symop_operation_xyz
x,y,z
-x,-y,1/2+z
x,-y,-z
-x,y,1/2-z
-x,-y,-z
x,y,1/2-z
-x,y,z
x,-y,1/2+z
1/2+x,1/2+y,z
1/2-x,1/2-y,1/2+z
1/2+x,1/2-y,-z
1/2-x,1/2+y,1/2-z
1/2-x,1/2-y,-z
1/2+x,1/2+y,1/2-z
1/2-x,1/2+y,z
1/2+x,1/2-y,1/2+z
loop_
_atom_site_type_symbol
_atom_site_label
_atom_site_fract_x
_atom_site_fract_y
_atom_site_fract_z
Si Si1 0.686736 0.726104 0.863276
Si Si2 0.678485 0.979708 0.045824
Si Si3 0.690185 0.969170 0.361284
Si Si4 0.191392 0.377542 0.799246
Si Si5 0.676086 0.229084 0.954129
O O1 0.500000 0.720374 0.861053
O O2 0.754888 0.629783 0.855607
O O3 0.742126 0.795383 0.827898
O O4 0.732213 0.756829 0.911403
O O5 0.500000 0.016651 0.043805
O O6 0.747594 0.004768 0.092046
O O7 0.669067 0.875592 0.048329
O O8 0.756463 0.000000 0.000000
O O9 0.500000 0.968358 0.363651
O O10 0.738702 0.034078 0.323571
O O11 0.244478 0.373535 0.750000
O O12 0.000000 0.376741 0.798997
O O13 0.500000 0.263984 0.952415
O O14 0.750000 0.250000 0.000000
#
# Coordination Sequence:
#
# PCOD9472015 Si02
#       5
#    16  16  16  16  16
#     4  10  20  35  56  80 112 147 183 229 281 332
#     4   8  15  27  47  72  97 130 174 211 250 312
#     4   9  18  34  55  77 106 142 181 227 272 322
#     4   9  19  35  57  83 107 142 192 232 270 332
#     4  10  20  33  52  78 110 144 182 223 271 329
#
# _framework density 19.615290999999999
#
# number of rings (size 3 to 8) (size 9 to 14) (size 15 to 20)
#    0.000    2.800    0.000    2.400    2.800    0.800 
#    0.000    2.000    0.000    7.200    0.000    0.000 
#    0.000    0.000    0.000    0.000    0.000    0.000 
#
# Total GULP energy -222944.212909 kJ/mol
# GULP energy per Si atom -5573.605323 kJ/mol
# Density = 1.957065 g / cm^3
# Si number density = 19.615291 Si / 1000 Ang^3
#
#
#
# Elastic Constant Matrix: (Units=GPa)
#
#
# Indices 1 2 3 4 5 6 
#
# 1 23.5548 15.9997 24.1353 0.0000 0.0000 0.0000
# 2 15.9997 83.9592 85.0564 0.0000 0.0000 0.0000
# 3 24.1353 85.0564 218.3453 0.0000 0.0000 0.0000
# 4 0.0000 0.0000 0.0000 36.9087 0.0000 0.0000
# 5 0.0000 0.0000 0.0000 0.0000 16.9619 0.0000
# 6 0.0000 0.0000 0.0000 0.0000 0.0000 20.4009
#
#
#
# Elastic Compliance Matrix: (Units=1/GPa)
#
#
# Indices 1 2 3 4 5 6 
#
# 1 0.049924 -0.006481 -0.002994 0.000000 0.000000 0.000000
# 2 -0.006481 0.020516 -0.007276 0.000000 0.000000 0.000000
# 3 -0.002994 -0.007276 0.007745 0.000000 0.000000 0.000000
# 4 0.000000 0.000000 0.000000 0.027094 0.000000 0.000000
# 5 0.000000 0.000000 0.000000 0.000000 0.058956 0.000000
# 6 0.000000 0.000000 0.000000 0.000000 0.000000 0.049017
#
#
# Mechanical properties :
#
#
# Convention : Reuss Voigt Hill
#
# Bulk Modulus (GPa) = 22.37904 64.02691 43.20298
# Shear Modulus (GPa) = 19.10960 28.23215 23.67087
#
# Velocity S-wave (km/s) = 3.12464 3.79792 3.47761
# Velocity P-wave (km/s) = 4.94485 7.20725 6.18045
#
# Compressibility (1/GPa) = 0.04468467
#
# Stress axis : x y z
#
# Youngs Moduli (GPa) = 20.03043 48.74136 129.11332
#
# Poissons Ratio (x) = 0.31588 0.38655
# Poissons Ratio (y) = 0.12981 0.93941
# Poissons Ratio (z) = 0.05997 0.35463
#
# Static dielectric constant tensor:
#      x y z
#    x 1.691090 0.000000 0.000000 
#    y 0.000000 1.676770 0.000000 
#    z 0.000000 0.000000 1.716390 
# 
# From -- ./inp_files/71562.got.cif
#   From: 2010.05.17/outbox.cif.g08.bks.cpg/sg63_36_cif.got.tgz:71562.got - 2010.06.03 15:47:04.
