data_PCOD9472138
_publ_section_title
;
Structure prediction by ZEFSAII (Michael W. Deem and Ramdas Pophale) SiO2 
 PCOD9472138
Probable space group: C M C M
;
_chemical_formula_sum "Si O2"
_cell_formula_units_Z 72
_cell_length_a 24.147558
_cell_length_b 23.245637
_cell_length_c 8.837871
_cell_angle_alpha 90.000000
_cell_angle_beta 90.000000
_cell_angle_gamma 90.000000
_cell_volume 4960.921189
_symmetry_space_group_name_H-M "C M C M"
_symmetry_group_IT_number 63
_symmetry_cell_setting 'orthorhombic'
loop_
_space_group_symop_operation_xyz
x,y,z
-x,-y,1/2+z
x,-y,-z
-x,y,1/2-z
-x,-y,-z
x,y,1/2-z
-x,y,z
x,-y,1/2+z
1/2+x,1/2+y,z
1/2-x,1/2-y,1/2+z
1/2+x,1/2-y,-z
1/2-x,1/2+y,1/2-z
1/2-x,1/2-y,-z
1/2+x,1/2+y,1/2-z
1/2-x,1/2+y,z
1/2+x,1/2-y,1/2+z
loop_
_atom_site_type_symbol
_atom_site_label
_atom_site_fract_x
_atom_site_fract_y
_atom_site_fract_z
Si Si1 0.279186 0.836432 0.422416
Si Si2 0.890133 0.120445 0.933266
Si Si3 0.280381 0.438043 0.570057
Si Si4 0.163984 0.235991 0.576274
Si Si5 0.500000 0.435887 0.932002
O O1 0.288433 0.854707 0.250000
O O2 0.266079 0.891108 0.525981
O O3 0.222308 0.798966 0.424971
O O4 0.326331 0.792943 0.479300
O O5 0.890978 0.116208 0.750000
O O6 0.879650 0.187555 0.973663
O O7 0.837700 0.084709 0.995886
O O8 0.945607 0.096006 0.005681
O O9 0.267669 0.500000 0.500000
O O10 0.286829 0.441475 0.750000
O O11 0.152771 0.251977 0.750000
O O12 0.500000 0.437927 0.750000
O O13 0.500000 0.500000 0.000000
#
# Coordination Sequence:
#
# PCOD9472138 Si02
#       5
#    16  16  16  16   8
#     4   9  16  26  41  61  83 106 134 167 204 247
#     4  10  20  34  48  62  81 107 142 180 217 253
#     4  11  20  30  43  60  84 112 143 175 210 251
#     4   8  15  27  43  61  80 103 132 168 208 249
#     4  12  24  36  48  62  82 110 145 182 221 256
#
# _framework density 14.513432999999999
#
# number of rings (size 3 to 8) (size 9 to 14) (size 15 to 20)
#    0.000    2.222    0.000    6.333    0.000    6.222 
#    0.000    0.000    0.000    0.000    0.000    0.000 
#    0.000    0.000    0.000    1.000    0.000   13.111 
#
# Total GULP energy -200671.346370 kJ/mol
# GULP energy per Si atom -5574.204066 kJ/mol
# Density = 1.448040 g / cm^3
# Si number density = 14.513433 Si / 1000 Ang^3
#
#
#
# Elastic Constant Matrix: (Units=GPa)
#
#
# Indices 1 2 3 4 5 6 
#
# 1 51.4549 48.7885 31.7635 0.0000 0.0000 0.0000
# 2 48.7885 98.0453 55.5247 0.0000 0.0000 0.0000
# 3 31.7635 55.5247 105.0616 0.0000 0.0000 0.0000
# 4 0.0000 0.0000 0.0000 26.1463 0.0000 0.0000
# 5 0.0000 0.0000 0.0000 0.0000 18.7180 0.0000
# 6 0.0000 0.0000 0.0000 0.0000 0.0000 23.9148
#
#
#
# Elastic Compliance Matrix: (Units=1/GPa)
#
#
# Indices 1 2 3 4 5 6 
#
# 1 0.037113 -0.017287 -0.002084 0.000000 0.000000 0.000000
# 2 -0.017287 0.022609 -0.006722 0.000000 0.000000 0.000000
# 3 -0.002084 -0.006722 0.013701 0.000000 0.000000 0.000000
# 4 0.000000 0.000000 0.000000 0.038246 0.000000 0.000000
# 5 0.000000 0.000000 0.000000 0.000000 0.053424 0.000000
# 6 0.000000 0.000000 0.000000 0.000000 0.000000 0.041815
#
#
# Mechanical properties :
#
#
# Convention : Reuss Voigt Hill
#
# Bulk Modulus (GPa) = 47.09179 58.52391 52.80785
# Shear Modulus (GPa) = 18.78477 21.65484 20.21981
#
# Velocity S-wave (km/s) = 3.60154 3.86690 3.73658
# Velocity P-wave (km/s) = 7.05778 7.76845 7.42163
#
# Compressibility (1/GPa) = 0.02123512
#
# Stress axis : x y z
#
# Youngs Moduli (GPa) = 26.94507 44.23096 72.98829
#
# Poissons Ratio (x) = 0.76464 0.15210
# Poissons Ratio (y) = 0.46581 0.49063
# Poissons Ratio (z) = 0.05615 0.29732
#
# Static dielectric constant tensor:
#      x y z
#    x 1.462040 0.000000 0.000000 
#    y 0.000000 1.487680 0.000000 
#    z 0.000000 0.000000 1.492420 
# 
# From -- ./inp_files/7853.got.cif
#   From: 2010.05.17/outbox.cif.g08.bks.cpg/sg63_4_cif.got.tgz:7853.got - 2010.06.03 15:47:04.
