data_PCOD9472617
_publ_section_title
;
Structure prediction by ZEFSAII (Michael W. Deem and Ramdas Pophale) SiO2 
 PCOD9472617
Probable space group: C M C M
;
_chemical_formula_sum "Si O2"
_cell_formula_units_Z 80
_cell_length_a 26.504528
_cell_length_b 18.894250
_cell_length_c 7.672680
_cell_angle_alpha 90.000000
_cell_angle_beta 90.000000
_cell_angle_gamma 90.000000
_cell_volume 3842.349075
_symmetry_space_group_name_H-M "C M C M"
_symmetry_group_IT_number 63
_symmetry_cell_setting 'orthorhombic'
loop_
_space_group_symop_operation_xyz
x,y,z
-x,-y,1/2+z
x,-y,-z
-x,y,1/2-z
-x,-y,-z
x,y,1/2-z
-x,y,z
x,-y,1/2+z
1/2+x,1/2+y,z
1/2-x,1/2-y,1/2+z
1/2+x,1/2-y,-z
1/2-x,1/2+y,1/2-z
1/2-x,1/2-y,-z
1/2+x,1/2+y,1/2-z
1/2-x,1/2+y,z
1/2+x,1/2-y,1/2+z
loop_
_atom_site_type_symbol
_atom_site_label
_atom_site_fract_x
_atom_site_fract_y
_atom_site_fract_z
Si Si1 0.056305 0.582376 0.459364
Si Si2 0.345329 0.834196 0.535907
Si Si3 0.753774 0.917203 0.957483
Si Si4 0.648823 0.326021 0.043892
Si Si5 0.556997 0.418673 0.040065
O O1 0.065925 0.500000 0.500000
O O2 0.054951 0.589444 0.250000
O O3 0.102279 0.630341 0.522319
O O4 0.000000 0.600196 0.525767
O O5 0.344861 0.835429 0.750000
O O6 0.297376 0.879990 0.476845
O O7 0.341911 0.753018 0.476010
O O8 0.754073 0.910337 0.750000
O O9 0.802746 0.875685 0.022765
O O10 0.755159 0.000000 0.000000
O O11 0.639888 0.317470 0.250000
O O12 0.599461 0.365601 0.971360
O O13 0.555657 0.412509 0.250000
O O14 0.500000 0.405693 0.974929
O O15 0.570463 0.500000 0.000000
#
# Coordination Sequence:
#
# PCOD9472617 Si02
#       5
#    16  16  16  16  16
#     4   9  17  31  52  76 102 134 172 211 250 295
#     4   9  19  34  52  76 104 133 166 207 253 301
#     4  11  22  36  54  75 101 133 170 208 249 298
#     4  10  20  35  54  76 103 132 166 208 253 301
#     4   9  18  32  51  74  99 129 164 202 244 291
#
# _framework density 20.820596999999999
#
# number of rings (size 3 to 8) (size 9 to 14) (size 15 to 20)
#    0.000    2.400    0.000    2.400    0.000    3.200 
#    0.000    7.000    0.000    0.000    0.000    5.600 
#    0.000    0.000    0.000    0.000    0.000    0.000 
#
# Total GULP energy -223377.015793 kJ/mol
# GULP energy per Si atom -5584.425395 kJ/mol
# Density = 2.077321 g / cm^3
# Si number density = 20.820597 Si / 1000 Ang^3
#
#
#
# Elastic Constant Matrix: (Units=GPa)
#
#
# Indices 1 2 3 4 5 6 
#
# 1 148.6535 112.1914 -10.6149 0.0000 0.0000 0.0000
# 2 112.1914 170.6519 -13.1177 0.0000 0.0000 0.0000
# 3 -10.6149 -13.1177 32.5210 0.0000 0.0000 0.0000
# 4 0.0000 0.0000 0.0000 14.4881 0.0000 0.0000
# 5 0.0000 0.0000 0.0000 0.0000 37.5202 0.0000
# 6 0.0000 0.0000 0.0000 0.0000 0.0000 -4.0306
#
#
#
# Elastic Compliance Matrix: (Units=1/GPa)
#
#
# Indices 1 2 3 4 5 6 
#
# 1 0.013374 -0.008728 0.000845 0.000000 0.000000 0.000000
# 2 -0.008728 0.011743 0.001888 0.000000 0.000000 0.000000
# 3 0.000845 0.001888 0.031787 0.000000 0.000000 0.000000
# 4 0.000000 0.000000 0.000000 0.069022 0.000000 0.000000
# 5 0.000000 0.000000 0.000000 0.000000 0.026652 0.000000
# 6 0.000000 0.000000 0.000000 0.000000 0.000000 -0.248101
#
#
# Mechanical properties :
#
#
# Convention : Reuss Voigt Hill
#
# Bulk Modulus (GPa) = 22.26470 58.74933 40.50701
# Shear Modulus (GPa) = -72.92748 27.15338 -22.88705
#
# Velocity S-wave (km/s) = -5.92475 3.61523 -3.31909
# Velocity P-wave (km/s) = 6.00722 6.76053 2.19294
#
# Compressibility (1/GPa) = 0.04491416
#
# Stress axis : x y z
#
# Youngs Moduli (GPa) = 74.76996 85.15823 31.45971
#
# Poissons Ratio (x) = 0.74324 -0.02658
# Poissons Ratio (y) = 0.65257 -0.05939
# Poissons Ratio (z) = -0.06318 -0.16076
#
# Static dielectric constant tensor:
#      x y z
#    x 1.740320 0.000000 0.000000 
#    y 0.000000 1.692680 0.000000 
#    z 0.000000 0.000000 1.790780 
# 
# From -- ./inp_files/12016.got.cif
#   From: 2010.05.17/outbox.cif.g08.bks.cpg/sg63_7_cif.got.tgz:12016.got - 2010.06.03 15:47:04.
