data_PCOD9472902
_publ_section_title
;
Structure prediction by ZEFSAII (Michael W. Deem and Ramdas Pophale) SiO2 
 PCOD9472902
Probable space group: C M C M
;
_chemical_formula_sum "Si O2"
_cell_formula_units_Z 48
_cell_length_a 11.169322
_cell_length_b 14.063398
_cell_length_c 13.818303
_cell_angle_alpha 90.000000
_cell_angle_beta 90.000000
_cell_angle_gamma 90.000000
_cell_volume 2170.559975
_symmetry_space_group_name_H-M "C M C M"
_symmetry_group_IT_number 63
_symmetry_cell_setting 'orthorhombic'
loop_
_space_group_symop_operation_xyz
x,y,z
-x,-y,1/2+z
x,-y,-z
-x,y,1/2-z
-x,-y,-z
x,y,1/2-z
-x,y,z
x,-y,1/2+z
1/2+x,1/2+y,z
1/2-x,1/2-y,1/2+z
1/2+x,1/2-y,-z
1/2-x,1/2+y,1/2-z
1/2-x,1/2-y,-z
1/2+x,1/2+y,1/2-z
1/2-x,1/2+y,z
1/2+x,1/2-y,1/2+z
loop_
_atom_site_type_symbol
_atom_site_label
_atom_site_fract_x
_atom_site_fract_y
_atom_site_fract_z
Si Si1 0.000000 0.949909 0.750000
Si Si2 0.000000 0.728624 0.250000
Si Si3 0.755614 0.639587 0.535530
Si Si4 0.500000 0.144597 0.459055
Si Si5 0.298390 0.388186 0.250000
Si Si6 0.500000 0.357642 0.958602
O O1 0.000000 0.886499 0.653315
O O2 0.116857 0.018545 0.750000
O O3 0.000000 0.669169 0.153266
O O4 0.113244 0.797799 0.250000
O O5 0.750000 0.750000 0.500000
O O6 0.872165 0.599520 0.482618
O O7 0.771682 0.622219 0.649644
O O8 0.622107 0.605110 0.508024
O O9 0.500000 0.244091 0.520714
#
# Coordination Sequence:
#
# PCOD9472902 Si02
#       6
#     4   4  16   8   8   8
#     4  11  26  36  60  88 124 164 207 240 274 361
#     4  11  16  34  54  84 118 152 183 228 314 341
#     4  10  20  35  59  87 119 151 195 250 303 350
#     4  10  21  35  62  93 122 150 189 254 310 358
#     4  11  20  36  55  81 119 161 193 243 296 344
#     4  10  20  37  56  88 117 153 198 239 287 345
#
# _framework density 22.114108000000002
#
# number of rings (size 3 to 8) (size 9 to 14) (size 15 to 20)
#    0.000    1.667    6.667    1.000    0.000   10.000 
#    0.000    0.000    0.000    6.000    0.000    0.000 
#    0.000    0.000    0.000    0.000    0.000    0.000 
#
# Total GULP energy -133973.135226 kJ/mol
# GULP energy per Si atom -5582.213968 kJ/mol
# Density = 2.206377 g / cm^3
# Si number density = 22.114108 Si / 1000 Ang^3
#
#
#
# Elastic Constant Matrix: (Units=GPa)
#
#
# Indices 1 2 3 4 5 6 
#
# 1 167.9790 3.5061 38.7046 0.0000 0.0000 0.0000
# 2 3.5061 106.4690 35.7434 0.0000 0.0000 0.0000
# 3 38.7046 35.7434 213.8067 0.0000 0.0000 0.0000
# 4 0.0000 0.0000 0.0000 12.2561 0.0000 0.0000
# 5 0.0000 0.0000 0.0000 0.0000 53.1414 0.0000
# 6 0.0000 0.0000 0.0000 0.0000 0.0000 -30.5502
#
#
#
# Elastic Compliance Matrix: (Units=1/GPa)
#
#
# Indices 1 2 3 4 5 6 
#
# 1 0.006216 0.000183 -0.001156 0.000000 0.000000 0.000000
# 2 0.000183 0.009956 -0.001698 0.000000 0.000000 0.000000
# 3 -0.001156 -0.001698 0.005170 0.000000 0.000000 0.000000
# 4 0.000000 0.000000 0.000000 0.081592 0.000000 0.000000
# 5 0.000000 0.000000 0.000000 0.000000 0.018818 0.000000
# 6 0.000000 0.000000 0.000000 0.000000 0.000000 -0.032733
#
#
# Mechanical properties :
#
#
# Convention : Reuss Voigt Hill
#
# Bulk Modulus (GPa) = 62.49296 71.57367 67.03331
# Shear Modulus (GPa) = 50.15391 34.32283 42.23837
#
# Velocity S-wave (km/s) = 4.76748 3.94392 4.37512
# Velocity P-wave (km/s) = 7.65675 7.29213 7.47666
#
# Compressibility (1/GPa) = 0.01600180
#
# Stress axis : x y z
#
# Youngs Moduli (GPa) = 160.88502 100.43899 193.41737
#
# Poissons Ratio (x) = -0.01842 0.22356
# Poissons Ratio (y) = -0.02950 0.32835
# Poissons Ratio (z) = 0.18596 0.17051
#
# Static dielectric constant tensor:
#      x y z
#    x 1.893920 0.000000 0.000000 
#    y 0.000000 1.822880 0.000000 
#    z 0.000000 0.000000 1.994020 
# 
# From -- ./inp_files/16903.got.cif
#   From: 2010.05.17/outbox.cif.g08.bks.cpg/sg63_9_cif.got.tgz:16903.got - 2010.06.03 15:47:04.
