data_PCOD9472884
_publ_section_title
;
Structure prediction by ZEFSAII (Michael W. Deem and Ramdas Pophale) SiO2 
 PCOD9472884
Probable space group: C M C M
;
_chemical_formula_sum "Si O2"
_cell_formula_units_Z 96
_cell_length_a 8.845182
_cell_length_b 20.916467
_cell_length_c 28.614840
_cell_angle_alpha 90.000000
_cell_angle_beta 90.000000
_cell_angle_gamma 90.000000
_cell_volume 5294.030330
_symmetry_space_group_name_H-M "C M C M"
_symmetry_group_IT_number 63
_symmetry_cell_setting 'orthorhombic'
loop_
_space_group_symop_operation_xyz
x,y,z
-x,-y,1/2+z
x,-y,-z
-x,y,1/2-z
-x,-y,-z
x,y,1/2-z
-x,y,z
x,-y,1/2+z
1/2+x,1/2+y,z
1/2-x,1/2-y,1/2+z
1/2+x,1/2-y,-z
1/2-x,1/2+y,1/2-z
1/2-x,1/2-y,-z
1/2+x,1/2+y,1/2-z
1/2-x,1/2+y,z
1/2+x,1/2-y,1/2+z
loop_
_atom_site_type_symbol
_atom_site_label
_atom_site_fract_x
_atom_site_fract_y
_atom_site_fract_z
Si Si1 0.680534 0.804061 0.696272
Si Si2 0.818912 0.873666 0.442983
Si Si3 0.319212 0.749780 0.394129
Si Si4 0.679964 0.445513 0.696018
Si Si5 0.319993 0.002729 0.606573
Si Si6 0.819162 0.117242 0.447101
O O1 0.711427 0.784880 0.750000
O O2 0.500000 0.808037 0.690103
O O3 0.751938 0.758226 0.657661
O O4 0.751828 0.874514 0.689580
O O5 0.751732 0.809423 0.420945
O O6 0.750503 0.934692 0.416836
O O7 0.783157 0.877915 0.498112
O O8 0.000000 0.873615 0.438233
O O9 0.500000 0.756236 0.392168
O O10 0.283626 0.684001 0.421647
O O11 0.706603 0.463978 0.750000
O O12 0.500000 0.442625 0.687970
O O13 0.756341 0.491558 0.658604
O O14 0.500000 0.006902 0.607184
O O15 0.267180 0.940944 0.577038
O O16 0.000000 0.106029 0.442266
#
# Coordination Sequence:
#
# PCOD9472884 Si02
#       6
#    16  16  16  16  16  16
#     4  10  20  35  58  89 120 152 194 240 288 344
#     4  11  24  41  60  83 120 161 199 244 296 350
#     4  11  22  38  61  89 121 155 197 243 294 351
#     4  10  20  36  60  88 117 151 193 241 292 346
#     4  12  24  38  60  89 121 156 197 244 294 350
#     4  10  22  40  62  87 116 157 201 244 292 347
#
# _framework density 18.133631999999999
#
# number of rings (size 3 to 8) (size 9 to 14) (size 15 to 20)
#    0.000    1.333    1.667    4.500    0.000    6.000 
#    0.000    0.833    0.000    5.000    0.000    0.000 
#    0.000    0.000    0.000    0.000    0.000    0.000 
#
# Total GULP energy -268386.503828 kJ/mol
# GULP energy per Si atom -5591.385496 kJ/mol
# Density = 1.809236 g / cm^3
# Si number density = 18.133632 Si / 1000 Ang^3
#
#
#
# Elastic Constant Matrix: (Units=GPa)
#
#
# Indices 1 2 3 4 5 6 
#
# 1 83.7436 44.9653 60.4349 0.0000 0.0000 0.0000
# 2 44.9653 75.5749 42.7019 0.0000 0.0000 0.0000
# 3 60.4349 42.7019 126.1741 0.0000 0.0000 0.0000
# 4 0.0000 0.0000 0.0000 -36.1748 0.0000 0.0000
# 5 0.0000 0.0000 0.0000 0.0000 27.1441 0.0000
# 6 0.0000 0.0000 0.0000 0.0000 0.0000 33.7730
#
#
#
# Elastic Compliance Matrix: (Units=1/GPa)
#
#
# Indices 1 2 3 4 5 6 
#
# 1 0.022239 -0.008918 -0.007634 0.000000 0.000000 0.000000
# 2 -0.008918 0.019937 -0.002476 0.000000 0.000000 0.000000
# 3 -0.007634 -0.002476 0.012420 0.000000 0.000000 0.000000
# 4 0.000000 0.000000 0.000000 -0.027644 0.000000 0.000000
# 5 0.000000 0.000000 0.000000 0.000000 0.036840 0.000000
# 6 0.000000 0.000000 0.000000 0.000000 0.000000 0.029609
#
#
# Mechanical properties :
#
#
# Convention : Reuss Voigt Hill
#
# Bulk Modulus (GPa) = 60.45885 64.63297 62.54591
# Shear Modulus (GPa) = 36.50423 14.10781 25.30602
#
# Velocity S-wave (km/s) = 4.49159 2.79228 3.73973
# Velocity P-wave (km/s) = 7.76610 6.79085 7.29479
#
# Compressibility (1/GPa) = 0.01654018
#
# Stress axis : x y z
#
# Youngs Moduli (GPa) = 44.96662 50.15822 80.51675
#
# Poissons Ratio (x) = 0.44733 0.61463
# Poissons Ratio (y) = 0.40103 0.19933
# Poissons Ratio (z) = 0.34326 0.12418
#
# Static dielectric constant tensor:
#      x y z
#    x 1.602630 0.000000 0.000000 
#    y 0.000000 1.578800 0.000000 
#    z 0.000000 0.000000 1.623160 
# 
# From -- ./inp_files/66868.got.cif
#   From: 2010.05.17/outbox.cif.g08.bks.cpg/sg63_34_cif.got.tgz:66868.got - 2010.06.03 15:47:04.
