data_PCOD9472345
_publ_section_title
;
Structure prediction by ZEFSAII (Michael W. Deem and Ramdas Pophale) SiO2 
 PCOD9472345
Probable space group: C M C M
;
_chemical_formula_sum "Si O2"
_cell_formula_units_Z 96
_cell_length_a 26.000454
_cell_length_b 24.378545
_cell_length_c 8.511775
_cell_angle_alpha 90.000000
_cell_angle_beta 90.000000
_cell_angle_gamma 90.000000
_cell_volume 5395.216144
_symmetry_space_group_name_H-M "C M C M"
_symmetry_group_IT_number 63
_symmetry_cell_setting 'orthorhombic'
loop_
_space_group_symop_operation_xyz
x,y,z
-x,-y,1/2+z
x,-y,-z
-x,y,1/2-z
-x,-y,-z
x,y,1/2-z
-x,y,z
x,-y,1/2+z
1/2+x,1/2+y,z
1/2-x,1/2-y,1/2+z
1/2+x,1/2-y,-z
1/2-x,1/2+y,1/2-z
1/2-x,1/2-y,-z
1/2+x,1/2+y,1/2-z
1/2-x,1/2+y,z
1/2+x,1/2-y,1/2+z
loop_
_atom_site_type_symbol
_atom_site_label
_atom_site_fract_x
_atom_site_fract_y
_atom_site_fract_z
Si Si1 0.441328 0.560603 0.560143
Si Si2 0.650549 0.868360 0.560377
Si Si3 0.808489 0.749267 0.059878
Si Si4 0.749614 0.561825 0.061478
Si Si5 0.940910 0.560086 0.562105
Si Si6 0.846147 0.867549 0.440034
O O1 0.427123 0.500000 0.500000
O O2 0.440977 0.559384 0.750000
O O3 0.500000 0.572076 0.508791
O O4 0.399553 0.605013 0.507347
O O5 0.648569 0.868706 0.750000
O O6 0.663226 0.806427 0.508475
O O7 0.698393 0.906816 0.511535
O O8 0.598210 0.894154 0.497266
O O9 0.806974 0.748750 0.250000
O O10 0.836614 0.805052 0.008375
O O11 0.750000 0.750000 0.000000
O O12 0.747928 0.561470 0.250000
O O13 0.749093 0.500000 0.000000
O O14 0.700877 0.595362 0.998614
O O15 0.924978 0.500000 0.500000
O O16 0.940097 0.558664 0.750000
O O17 0.000000 0.569464 0.509735
O O18 0.845772 0.867990 0.250000
#
# Coordination Sequence:
#
# PCOD9472345 Si02
#       6
#    16  16  16  16  16  16
#     4   9  18  33  52  75 103 135 171 213 260 310
#     4  10  21  36  54  79 109 141 181 221 264 322
#     4  10  20  36  55  78 107 142 182 219 263 317
#     4  11  22  34  50  76 109 139 173 218 268 320
#     4  10  21  37  58  83 110 142 180 223 274 327
#     4  10  20  34  54  78 105 137 176 219 266 317
#
# _framework density 17.793541000000001
#
# number of rings (size 3 to 8) (size 9 to 14) (size 15 to 20)
#    0.000    2.000    1.667    2.000    0.000    6.333 
#    0.000    0.833    0.000    3.000    0.000    2.333 
#    0.000    0.000    0.000    0.000    0.000    0.000 
#
# Total GULP energy -267988.715029 kJ/mol
# GULP energy per Si atom -5583.098230 kJ/mol
# Density = 1.775304 g / cm^3
# Si number density = 17.793541 Si / 1000 Ang^3
#
#
#
# Elastic Constant Matrix: (Units=GPa)
#
#
# Indices 1 2 3 4 5 6 
#
# 1 123.8579 104.7501 19.7181 0.0000 0.0000 0.0000
# 2 104.7501 196.4651 25.9404 0.0000 0.0000 0.0000
# 3 19.7181 25.9404 7.7008 0.0000 0.0000 0.0000
# 4 0.0000 0.0000 0.0000 14.0455 0.0000 0.0000
# 5 0.0000 0.0000 0.0000 0.0000 24.9270 0.0000
# 6 0.0000 0.0000 0.0000 0.0000 0.0000 21.5730
#
#
#
# Elastic Compliance Matrix: (Units=1/GPa)
#
#
# Indices 1 2 3 4 5 6 
#
# 1 0.016694 -0.005866 -0.022987 0.000000 0.000000 0.000000
# 2 -0.005866 0.011228 -0.022804 0.000000 0.000000 0.000000
# 3 -0.022987 -0.022804 0.265531 0.000000 0.000000 0.000000
# 4 0.000000 0.000000 0.000000 0.071197 0.000000 0.000000
# 5 0.000000 0.000000 0.000000 0.000000 0.040117 0.000000
# 6 0.000000 0.000000 0.000000 0.000000 0.000000 0.046354
#
#
# Mechanical properties :
#
#
# Convention : Reuss Voigt Hill
#
# Bulk Modulus (GPa) = 5.25925 69.87122 37.56524
# Shear Modulus (GPa) = 8.09304 23.95013 16.02158
#
# Velocity S-wave (km/s) = 2.13499 3.67277 3.00395
# Velocity P-wave (km/s) = 3.00661 7.57223 5.76100
#
# Compressibility (1/GPa) = 0.19014132
#
# Stress axis : x y z
#
# Youngs Moduli (GPa) = 59.90135 89.06013 3.76603
#
# Poissons Ratio (x) = 0.52241 0.08657
# Poissons Ratio (y) = 0.35137 0.08588
# Poissons Ratio (z) = 1.37693 2.03090
#
# Static dielectric constant tensor:
#      x y z
#    x 1.595070 0.000000 0.000000 
#    y 0.000000 1.592080 0.000000 
#    z 0.000000 0.000000 1.619850 
# 
# From -- ./inp_files/10426.got.cif
#   From: 2010.05.17/outbox.cif.g08.bks.cpg/sg63_6_cif.got.tgz:10426.got - 2010.06.03 15:47:04.
