data_PCOD9472306
_publ_section_title
;
Structure prediction by ZEFSAII (Michael W. Deem and Ramdas Pophale) SiO2 
 PCOD9472306
Probable space group: C M C M
;
_chemical_formula_sum "Si O2"
_cell_formula_units_Z 96
_cell_length_a 20.104489
_cell_length_b 29.991207
_cell_length_c 8.805371
_cell_angle_alpha 90.000000
_cell_angle_beta 90.000000
_cell_angle_gamma 90.000000
_cell_volume 5309.267930
_symmetry_space_group_name_H-M "C M C M"
_symmetry_group_IT_number 63
_symmetry_cell_setting 'orthorhombic'
loop_
_space_group_symop_operation_xyz
x,y,z
-x,-y,1/2+z
x,-y,-z
-x,y,1/2-z
-x,-y,-z
x,y,1/2-z
-x,y,z
x,-y,1/2+z
1/2+x,1/2+y,z
1/2-x,1/2-y,1/2+z
1/2+x,1/2-y,-z
1/2-x,1/2+y,1/2-z
1/2-x,1/2-y,-z
1/2+x,1/2+y,1/2-z
1/2-x,1/2+y,z
1/2+x,1/2-y,1/2+z
loop_
_atom_site_type_symbol
_atom_site_label
_atom_site_fract_x
_atom_site_fract_y
_atom_site_fract_z
Si Si1 0.423094 0.331221 0.429191
Si Si2 0.789494 0.292017 0.930496
Si Si3 0.699224 0.621326 0.069369
Si Si4 0.424780 0.767680 0.067983
Si Si5 0.427385 0.949826 0.567837
Si Si6 0.792164 0.450455 0.069286
O O1 0.408556 0.326611 0.250000
O O2 0.500000 0.344806 0.446312
O O3 0.372422 0.365122 0.505791
O O4 0.416064 0.282887 0.507599
O O5 0.794250 0.285724 0.750000
O O6 0.746932 0.336217 0.960629
O O7 0.750000 0.250000 0.000000
O O8 0.863378 0.294618 0.999093
O O9 0.697053 0.613982 0.250000
O O10 0.731437 0.579409 0.986248
O O11 0.420293 0.767624 0.250000
O O12 0.500000 0.782073 0.024764
O O13 0.420304 0.952046 0.750000
O O14 0.500000 0.929295 0.533295
O O15 0.361185 0.929638 0.495444
O O16 0.429520 0.000000 0.500000
O O17 0.795927 0.453147 0.250000
O O18 0.786520 0.500000 0.000000
#
# Coordination Sequence:
#
# PCOD9472306 Si02
#       6
#    16  16  16  16  16  16
#     4  10  20  34  55  83 112 144 185 230 275 329
#     4  11  22  35  55  81 112 147 184 229 277 331
#     4  11  23  38  57  83 113 148 188 231 280 335
#     4  10  20  34  53  78 111 151 191 231 277 330
#     4   9  16  28  49  76 105 137 176 222 270 323
#     4  11  22  37  58  82 111 146 186 235 284 337
#
# _framework density 18.081588
#
# number of rings (size 3 to 8) (size 9 to 14) (size 15 to 20)
#    0.000    1.667    1.667    5.000    0.000    5.000 
#    0.000    0.833    0.000    1.500    0.000    0.000 
#    0.000    0.000    0.000    0.000    0.000    0.000 
#
# Total GULP energy -268050.251663 kJ/mol
# GULP energy per Si atom -5584.380243 kJ/mol
# Density = 1.804043 g / cm^3
# Si number density = 18.081588 Si / 1000 Ang^3
#
#
#
# Elastic Constant Matrix: (Units=GPa)
#
#
# Indices 1 2 3 4 5 6 
#
# 1 104.3689 25.4376 51.8668 0.0000 0.0000 0.0000
# 2 25.4376 35.9318 38.2124 0.0000 0.0000 0.0000
# 3 51.8668 38.2124 98.3857 0.0000 0.0000 0.0000
# 4 0.0000 0.0000 0.0000 22.4552 0.0000 0.0000
# 5 0.0000 0.0000 0.0000 0.0000 36.4404 0.0000
# 6 0.0000 0.0000 0.0000 0.0000 0.0000 28.8029
#
#
#
# Elastic Compliance Matrix: (Units=1/GPa)
#
#
# Indices 1 2 3 4 5 6 
#
# 1 0.013210 -0.003315 -0.005677 0.000000 0.000000 0.000000
# 2 -0.003315 0.048247 -0.016991 0.000000 0.000000 0.000000
# 3 -0.005677 -0.016991 0.019756 0.000000 0.000000 0.000000
# 4 0.000000 0.000000 0.000000 0.044533 0.000000 0.000000
# 5 0.000000 0.000000 0.000000 0.000000 0.027442 0.000000
# 6 0.000000 0.000000 0.000000 0.000000 0.000000 0.034719
#
#
# Mechanical properties :
#
#
# Convention : Reuss Voigt Hill
#
# Bulk Modulus (GPa) = 34.19110 52.19111 43.19111
# Shear Modulus (GPa) = 20.03024 25.75101 22.89062
#
# Velocity S-wave (km/s) = 3.33193 3.77789 3.56190
# Velocity P-wave (km/s) = 5.80971 6.92509 6.39178
#
# Compressibility (1/GPa) = 0.02924737
#
# Stress axis : x y z
#
# Youngs Moduli (GPa) = 75.69757 20.72666 50.61774
#
# Poissons Ratio (x) = 0.06871 0.28734
# Poissons Ratio (y) = 0.25096 0.86005
# Poissons Ratio (z) = 0.42971 0.35217
#
# Static dielectric constant tensor:
#      x y z
#    x 1.654640 0.000000 0.000000 
#    y 0.000000 1.602170 0.000000 
#    z 0.000000 0.000000 1.601750 
# 
# From -- ./inp_files/8654.got.cif
#   From: 2010.05.17/outbox.cif.g08.bks.cpg/sg63_5_cif.got.tgz:8654.got - 2010.06.03 15:47:04.
