data_PCOD9472782
_publ_section_title
;
Structure prediction by ZEFSAII (Michael W. Deem and Ramdas Pophale) SiO2 
 PCOD9472782
Probable space group: C M C M
;
_chemical_formula_sum "Si O2"
_cell_formula_units_Z 116
_cell_length_a 28.178263
_cell_length_b 11.256330
_cell_length_c 16.901418
_cell_angle_alpha 90.000000
_cell_angle_beta 90.000000
_cell_angle_gamma 90.000000
_cell_volume 5360.856446
_symmetry_space_group_name_H-M "C M C M"
_symmetry_group_IT_number 63
_symmetry_cell_setting 'orthorhombic'
loop_
_space_group_symop_operation_xyz
x,y,z
-x,-y,1/2+z
x,-y,-z
-x,y,1/2-z
-x,-y,-z
x,y,1/2-z
-x,y,z
x,-y,1/2+z
1/2+x,1/2+y,z
1/2-x,1/2-y,1/2+z
1/2+x,1/2-y,-z
1/2-x,1/2+y,1/2-z
1/2-x,1/2-y,-z
1/2+x,1/2+y,1/2-z
1/2-x,1/2+y,z
1/2+x,1/2-y,1/2+z
loop_
_atom_site_type_symbol
_atom_site_label
_atom_site_fract_x
_atom_site_fract_y
_atom_site_fract_z
Si Si1 0.673476 0.763214 0.610638
Si Si2 0.500000 0.635228 0.750000
Si Si3 0.051497 0.506100 0.596244
Si Si4 0.552293 0.371254 0.541197
Si Si5 0.156014 0.469151 0.093439
Si Si6 0.279616 0.759194 0.342556
Si Si7 0.841615 0.875844 0.952590
Si Si8 0.069637 0.235746 0.873894
O O1 0.724227 0.722765 0.639876
O O2 0.668093 0.726516 0.518311
O O3 0.624556 0.711538 0.643652
O O4 0.669104 0.902799 0.628660
O O5 0.540127 0.650067 0.819198
O O6 0.050714 0.500000 0.500000
O O7 0.101759 0.566784 0.614464
O O8 0.056421 0.374785 0.635512
O O9 0.000000 0.556142 0.620252
O O10 0.550944 0.500000 0.500000
O O11 0.500000 0.352716 0.579675
O O12 0.604405 0.365033 0.581131
O O13 0.557605 0.284507 0.466025
O O14 0.191595 0.370658 0.123171
O O15 0.157802 0.500000 0.000000
O O16 0.287289 0.748429 0.250000
O O17 0.301422 0.644881 0.387599
O O18 0.837971 0.000000 0.000000
#
# Coordination Sequence:
#
# PCOD9472782 Si02
#       8
#    16   4  16  16  16  16  16  16
#     4  10  23  41  67  88 123 168 225 255 306 395
#     4  12  20  32  60  84 136 150 174 268 334 372
#     4   9  17  33  58  90 120 149 198 257 301 363
#     4   9  17  34  62  89 116 148 210 258 296 362
#     4  10  21  40  66  94 124 171 216 259 313 385
#     4  12  27  43  62  94 134 169 208 278 329 364
#     4  10  22  41  70  95 120 169 220 261 313 387
#     4  10  20  35  56  93 117 154 197 249 318 375
#
# _framework density 21.638334
#
# number of rings (size 3 to 8) (size 9 to 14) (size 15 to 20)
#    0.000    1.931    2.759    0.414    4.828    0.552 
#    3.724    0.000    9.103    1.241    0.000    0.000 
#    0.000    0.000    0.000    0.000    0.000    0.000 
#
# Total GULP energy -322910.486898 kJ/mol
# GULP energy per Si atom -5567.422188 kJ/mol
# Density = 2.158908 g / cm^3
# Si number density = 21.638334 Si / 1000 Ang^3
#
#
#
# Elastic Constant Matrix: (Units=GPa)
#
#
# Indices 1 2 3 4 5 6 
#
# 1 223.6351 42.9764 44.9125 0.0000 0.0000 0.0000
# 2 42.9764 64.7348 1.4269 0.0000 0.0000 0.0000
# 3 44.9125 1.4269 44.5773 0.0000 0.0000 0.0000
# 4 0.0000 0.0000 0.0000 4.0344 0.0000 0.0000
# 5 0.0000 0.0000 0.0000 0.0000 40.9014 0.0000
# 6 0.0000 0.0000 0.0000 0.0000 0.0000 -30.7250
#
#
#
# Elastic Compliance Matrix: (Units=1/GPa)
#
#
# Indices 1 2 3 4 5 6 
#
# 1 0.006591 -0.004233 -0.006506 0.000000 0.000000 0.000000
# 2 -0.004233 0.018176 0.003683 0.000000 0.000000 0.000000
# 3 -0.006506 0.003683 0.028870 0.000000 0.000000 0.000000
# 4 0.000000 0.000000 0.000000 0.247866 0.000000 0.000000
# 5 0.000000 0.000000 0.000000 0.000000 0.024449 0.000000
# 6 0.000000 0.000000 0.000000 0.000000 0.000000 -0.032547
#
#
# Mechanical properties :
#
#
# Convention : Reuss Voigt Hill
#
# Bulk Modulus (GPa) = 25.29958 56.84208 41.07083
# Shear Modulus (GPa) = 15.59126 19.08426 17.33776
#
# Velocity S-wave (km/s) = 2.68720 2.97301 2.83371
# Velocity P-wave (km/s) = 4.62011 6.17343 5.45237
#
# Compressibility (1/GPa) = 0.03952634
#
# Stress axis : x y z
#
# Youngs Moduli (GPa) = 151.71154 55.01637 34.63857
#
# Poissons Ratio (x) = 0.23286 0.22534
# Poissons Ratio (y) = 0.64213 -0.12756
# Poissons Ratio (z) = 0.98697 -0.20260
#
# Static dielectric constant tensor:
#      x y z
#    x 1.822790 0.000000 0.000000 
#    y 0.000000 1.858560 0.000000 
#    z 0.000000 0.000000 1.764420 
# 
# From -- ./inp_files/49102.got.cif
#   From: 2010.05.17/outbox.cif.g08.bks.cpg/sg63_25_cif.got.tgz:49102.got - 2010.06.03 15:47:04.
