data_PCOD9472263
_publ_section_title
;
Structure prediction by ZEFSAII (Michael W. Deem and Ramdas Pophale) SiO2 
 PCOD9472263
Probable space group: C M C M
;
_chemical_formula_sum "Si O2"
_cell_formula_units_Z 96
_cell_length_a 17.726816
_cell_length_b 25.085338
_cell_length_c 11.054652
_cell_angle_alpha 90.000000
_cell_angle_beta 90.000000
_cell_angle_gamma 90.000000
_cell_volume 4915.817706
_symmetry_space_group_name_H-M "C M C M"
_symmetry_group_IT_number 63
_symmetry_cell_setting 'orthorhombic'
loop_
_space_group_symop_operation_xyz
x,y,z
-x,-y,1/2+z
x,-y,-z
-x,y,1/2-z
-x,-y,-z
x,y,1/2-z
-x,y,z
x,-y,1/2+z
1/2+x,1/2+y,z
1/2-x,1/2-y,1/2+z
1/2+x,1/2-y,-z
1/2-x,1/2+y,1/2-z
1/2-x,1/2-y,-z
1/2+x,1/2+y,1/2-z
1/2-x,1/2+y,z
1/2+x,1/2-y,1/2+z
loop_
_atom_site_type_symbol
_atom_site_label
_atom_site_fract_x
_atom_site_fract_y
_atom_site_fract_z
Si Si1 0.912705 0.465205 0.380455
Si Si2 0.086872 0.702250 0.115335
Si Si3 0.085377 0.131763 0.107173
Si Si4 0.706312 0.455938 0.893070
Si Si5 0.690256 0.293636 0.452214
Si Si6 0.191630 0.376252 0.466859
O O1 0.899624 0.500000 0.500000
O O2 0.904355 0.493546 0.250000
O O3 0.854337 0.417139 0.385835
O O4 0.000000 0.446849 0.387658
O O5 0.088461 0.678588 0.250000
O O6 0.131675 0.663863 0.025830
O O7 0.000000 0.709501 0.079055
O O8 0.130689 0.758390 0.120096
O O9 0.082075 0.140944 0.250000
O O10 0.126716 0.074919 0.090755
O O11 0.139053 0.176773 0.051469
O O12 0.000000 0.132762 0.058207
O O13 0.713245 0.472364 0.750000
O O14 0.768245 0.411018 0.927539
O O15 0.712720 0.500000 0.000000
O O16 0.750000 0.250000 0.500000
O O17 0.743189 0.341229 0.402732
#
# Coordination Sequence:
#
# PCOD9472263 Si02
#       6
#    16  16  16  16  16  16
#     4  10  22  39  58  82 112 146 186 231 278 329
#     4  10  20  34  53  76 105 141 179 221 269 322
#     4   9  18  35  58  80 105 141 185 231 279 333
#     4  10  21  36  56  83 113 146 185 230 279 331
#     4   9  19  33  52  79 107 137 174 222 272 324
#     4  10  20  35  55  79 108 143 182 224 270 326
#
# _framework density 19.528796
#
# number of rings (size 3 to 8) (size 9 to 14) (size 15 to 20)
#    0.000    2.333    0.000    2.000    0.000    8.333 
#    0.000    6.667    0.000   10.000    0.000    0.000 
#    0.000    0.000    0.000    0.000    0.000    0.167 
#
# Total GULP energy -267291.451926 kJ/mol
# GULP energy per Si atom -5568.571915 kJ/mol
# Density = 1.948435 g / cm^3
# Si number density = 19.528796 Si / 1000 Ang^3
#
#
#
# Elastic Constant Matrix: (Units=GPa)
#
#
# Indices 1 2 3 4 5 6 
#
# 1 153.1062 52.4706 40.7883 0.0000 0.0000 0.0000
# 2 52.4706 81.5996 49.1389 0.0000 0.0000 0.0000
# 3 40.7883 49.1389 105.6419 0.0000 0.0000 0.0000
# 4 0.0000 0.0000 0.0000 20.0029 0.0000 0.0000
# 5 0.0000 0.0000 0.0000 0.0000 -3.1245 0.0000
# 6 0.0000 0.0000 0.0000 0.0000 0.0000 29.3742
#
#
#
# Elastic Compliance Matrix: (Units=1/GPa)
#
#
# Indices 1 2 3 4 5 6 
#
# 1 0.008456 -0.004822 -0.001022 0.000000 0.000000 0.000000
# 2 -0.004822 0.019773 -0.007336 0.000000 0.000000 0.000000
# 3 -0.001022 -0.007336 0.013273 0.000000 0.000000 0.000000
# 4 0.000000 0.000000 0.000000 0.049993 0.000000 0.000000
# 5 0.000000 0.000000 0.000000 0.000000 -0.320049 0.000000
# 6 0.000000 0.000000 0.000000 0.000000 0.000000 0.034043
#
#
# Mechanical properties :
#
#
# Convention : Reuss Voigt Hill
#
# Bulk Modulus (GPa) = 66.03852 69.46038 67.74945
# Shear Modulus (GPa) = -30.65542 22.44717 -4.10412
#
# Velocity S-wave (km/s) = -3.96631 3.39402 -1.45125
# Velocity P-wave (km/s) = 3.59359 7.14175 5.65325
#
# Compressibility (1/GPa) = 0.01514268
#
# Stress axis : x y z
#
# Youngs Moduli (GPa) = 118.25553 50.57354 75.34305
#
# Poissons Ratio (x) = 0.24387 0.07700
# Poissons Ratio (y) = 0.57025 0.55268
# Poissons Ratio (z) = 0.12085 0.37099
#
# Static dielectric constant tensor:
#      x y z
#    x 1.706970 0.000000 0.000000 
#    y 0.000000 1.692840 0.000000 
#    z 0.000000 0.000000 1.663680 
# 
# From -- ./inp_files/21318.got.cif
#   From: 2010.05.17/outbox.cif.g08.bks.cpg/sg63_11_cif.got.tgz:21318.got - 2010.06.03 15:47:04.
