data_PCOD9472855
_publ_section_title
;
Structure prediction by ZEFSAII (Michael W. Deem and Ramdas Pophale) SiO2 
 PCOD9472855
Probable space group: C M C M
;
_chemical_formula_sum "Si O2"
_cell_formula_units_Z 64
_cell_length_a 13.088833
_cell_length_b 12.420440
_cell_length_c 16.449486
_cell_angle_alpha 90.000000
_cell_angle_beta 90.000000
_cell_angle_gamma 90.000000
_cell_volume 2674.177558
_symmetry_space_group_name_H-M "C M C M"
_symmetry_group_IT_number 63
_symmetry_cell_setting 'orthorhombic'
loop_
_space_group_symop_operation_xyz
x,y,z
-x,-y,1/2+z
x,-y,-z
-x,y,1/2-z
-x,-y,-z
x,y,1/2-z
-x,y,z
x,-y,1/2+z
1/2+x,1/2+y,z
1/2-x,1/2-y,1/2+z
1/2+x,1/2-y,-z
1/2-x,1/2+y,1/2-z
1/2-x,1/2-y,-z
1/2+x,1/2+y,1/2-z
1/2-x,1/2+y,z
1/2+x,1/2-y,1/2+z
loop_
_atom_site_type_symbol
_atom_site_label
_atom_site_fract_x
_atom_site_fract_y
_atom_site_fract_z
Si Si1 0.166710 0.132761 0.076424
Si Si2 0.610509 0.420571 0.342556
Si Si3 0.888437 0.338905 0.985686
Si Si4 0.835758 0.661816 0.838210
O O1 0.121033 0.017530 0.093812
O O2 0.125265 0.209739 0.004048
O O3 0.143945 0.211056 0.152418
O O4 0.288280 0.124104 0.061780
O O5 0.612330 0.465662 0.250000
O O6 0.500000 0.366050 0.351134
O O7 0.713688 0.352101 0.345784
O O8 0.881437 0.385176 0.078385
O O9 0.000000 0.361386 0.951808
O O10 0.868680 0.620886 0.750000
#
# Coordination Sequence:
#
# PCOD9472855 Si02
#       4
#    16  16  16  16
#     4   9  19  36  54  82 113 141 181 228 269 317
#     4  10  20  35  58  85 109 141 186 229 271 320
#     4   9  19  36  55  78 109 148 184 217 271 328
#     4   9  19  35  53  81 115 139 176 229 275 321
#
# _framework density 23.932592
#
# number of rings (size 3 to 8) (size 9 to 14) (size 15 to 20)
#    1.500    1.250    0.000    1.500    0.000    2.500 
#    0.000    3.750    0.000    3.750    0.000    0.000 
#    0.000    0.000    0.000    0.000    0.000    0.000 
#
# Total GULP energy -178367.084943 kJ/mol
# GULP energy per Si atom -5573.971404 kJ/mol
# Density = 2.387812 g / cm^3
# Si number density = 23.932592 Si / 1000 Ang^3
#
#
#
# Elastic Constant Matrix: (Units=GPa)
#
#
# Indices 1 2 3 4 5 6 
#
# 1 134.0907 -14.0658 -7.8056 0.0000 0.0000 0.0000
# 2 -14.0658 52.2133 -5.9204 0.0000 0.0000 0.0000
# 3 -7.8056 -5.9204 71.7618 0.0000 0.0000 0.0000
# 4 0.0000 0.0000 0.0000 17.6098 0.0000 0.0000
# 5 0.0000 0.0000 0.0000 0.0000 17.0255 0.0000
# 6 0.0000 0.0000 0.0000 0.0000 0.0000 12.9023
#
#
#
# Elastic Compliance Matrix: (Units=1/GPa)
#
#
# Indices 1 2 3 4 5 6 
#
# 1 0.007748 0.002204 0.001025 0.000000 0.000000 0.000000
# 2 0.002204 0.019960 0.001886 0.000000 0.000000 0.000000
# 3 0.001025 0.001886 0.014202 0.000000 0.000000 0.000000
# 4 0.000000 0.000000 0.000000 0.056787 0.000000 0.000000
# 5 0.000000 0.000000 0.000000 0.000000 0.058735 0.000000
# 6 0.000000 0.000000 0.000000 0.000000 0.000000 0.077506
#
#
# Mechanical properties :
#
#
# Convention : Reuss Voigt Hill
#
# Bulk Modulus (GPa) = 19.17941 22.49801 20.83871
# Shear Modulus (GPa) = 20.65359 28.56469 24.60914
#
# Velocity S-wave (km/s) = 2.94086 3.45852 3.21014
# Velocity P-wave (km/s) = 4.42299 5.03681 4.73985
#
# Compressibility (1/GPa) = 0.05213924
#
# Stress axis : x y z
#
# Youngs Moduli (GPa) = 129.05843 50.10094 70.41230
#
# Poissons Ratio (x) = -0.11040 -0.07214
# Poissons Ratio (y) = -0.28439 -0.13282
# Poissons Ratio (z) = -0.13223 -0.09451
#
# Static dielectric constant tensor:
#      x y z
#    x 1.876110 0.000000 0.000000 
#    y 0.000000 1.941610 0.000000 
#    z 0.000000 0.000000 1.988830 
# 
# From -- ./inp_files/41493.got.cif
#   From: 2010.05.17/outbox.cif.g08.bks.cpg/sg63_21_cif.got.tgz:41493.got - 2010.06.03 15:47:04.
