data_PCOD9472844
_publ_section_title
;
Structure prediction by ZEFSAII (Michael W. Deem and Ramdas Pophale) SiO2 
 PCOD9472844
Probable space group: C M C M
;
_chemical_formula_sum "Si O2"
_cell_formula_units_Z 56
_cell_length_a 23.018831
_cell_length_b 12.241242
_cell_length_c 8.310649
_cell_angle_alpha 90.000000
_cell_angle_beta 90.000000
_cell_angle_gamma 90.000000
_cell_volume 2341.767036
_symmetry_space_group_name_H-M "C M C M"
_symmetry_group_IT_number 63
_symmetry_cell_setting 'orthorhombic'
loop_
_space_group_symop_operation_xyz
x,y,z
-x,-y,1/2+z
x,-y,-z
-x,y,1/2-z
-x,-y,-z
x,y,1/2-z
-x,y,z
x,-y,1/2+z
1/2+x,1/2+y,z
1/2-x,1/2-y,1/2+z
1/2+x,1/2-y,-z
1/2-x,1/2+y,1/2-z
1/2-x,1/2-y,-z
1/2+x,1/2+y,1/2-z
1/2-x,1/2+y,z
1/2+x,1/2-y,1/2+z
loop_
_atom_site_type_symbol
_atom_site_label
_atom_site_fract_x
_atom_site_fract_y
_atom_site_fract_z
Si Si1 0.741514 0.622042 0.933936
Si Si2 0.873433 0.186288 0.063619
Si Si3 0.000000 0.122466 0.942801
Si Si4 0.068163 0.377138 0.941791
O O1 0.759797 0.625740 0.750000
O O2 0.760506 0.500000 0.000000
O O3 0.750000 0.750000 0.000000
O O4 0.671494 0.621832 0.955081
O O5 0.861480 0.164420 0.250000
O O6 0.878130 0.315128 0.025741
O O7 0.939137 0.161226 0.014774
O O8 0.000000 0.135703 0.750000
O O9 0.000000 0.000000 0.000000
O O10 0.074803 0.366281 0.750000
O O11 0.000000 0.345628 0.977757
O O12 0.071496 0.500000 0.000000
#
# Coordination Sequence:
#
# PCOD9472844 Si02
#       4
#    16  16   8  16
#     4  12  27  51  79 110 146 189 244 306 370 439
#     4  12  24  41  66  99 137 181 230 285 350 422
#     4  12  24  40  61  92 131 174 218 270 334 408
#     4  10  20  35  57  88 131 180 231 285 344 413
#
# _framework density 23.913564999999998
#
# number of rings (size 3 to 8) (size 9 to 14) (size 15 to 20)
#    0.000    0.571    1.429    8.143    0.000    2.286 
#    0.000    5.714    0.000    0.000    0.000    0.000 
#    0.000    0.000    0.000    0.000    0.000    0.000 
#
# Total GULP energy -156055.717177 kJ/mol
# GULP energy per Si atom -5573.418471 kJ/mol
# Density = 2.385914 g / cm^3
# Si number density = 23.913565 Si / 1000 Ang^3
#
#
#
# Elastic Constant Matrix: (Units=GPa)
#
#
# Indices 1 2 3 4 5 6 
#
# 1 39.7910 25.1794 -0.7801 0.0000 0.0000 0.0000
# 2 25.1794 142.6871 39.4684 0.0000 0.0000 0.0000
# 3 -0.7801 39.4684 115.9854 0.0000 0.0000 0.0000
# 4 0.0000 0.0000 0.0000 45.3741 0.0000 0.0000
# 5 0.0000 0.0000 0.0000 0.0000 32.0124 0.0000
# 6 0.0000 0.0000 0.0000 0.0000 0.0000 26.8588
#
#
#
# Elastic Compliance Matrix: (Units=1/GPa)
#
#
# Indices 1 2 3 4 5 6 
#
# 1 0.028755 -0.005661 0.002120 0.000000 0.000000 0.000000
# 2 -0.005661 0.008851 -0.003050 0.000000 0.000000 0.000000
# 3 0.002120 -0.003050 0.009674 0.000000 0.000000 0.000000
# 4 0.000000 0.000000 0.000000 0.022039 0.000000 0.000000
# 5 0.000000 0.000000 0.000000 0.000000 0.031238 0.000000
# 6 0.000000 0.000000 0.000000 0.000000 0.000000 0.037232
#
#
# Mechanical properties :
#
#
# Convention : Reuss Voigt Hill
#
# Bulk Modulus (GPa) = 29.32739 47.35546 38.34142
# Shear Modulus (GPa) = 30.80036 36.48878 33.64457
#
# Velocity S-wave (km/s) = 3.59275 3.91047 3.75497
# Velocity P-wave (km/s) = 5.43148 6.34309 5.90490
#
# Compressibility (1/GPa) = 0.03409782
#
# Stress axis : x y z
#
# Youngs Moduli (GPa) = 34.77684 112.98339 103.37122
#
# Poissons Ratio (x) = 0.63955 -0.21911
# Poissons Ratio (y) = 0.19686 0.31527
# Poissons Ratio (z) = -0.07371 0.34459
#
# Static dielectric constant tensor:
#      x y z
#    x 1.960690 0.000000 0.000000 
#    y 0.000000 2.133220 0.000000 
#    z 0.000000 0.000000 1.872680 
# 
# From -- ./inp_files/11448.got.cif
#   From: 2010.05.17/outbox.cif.g08.bks.cpg/sg63_6_cif.got.tgz:11448.got - 2010.06.03 15:47:04.
