data_PCOD9472173
_publ_section_title
;
Structure prediction by ZEFSAII (Michael W. Deem and Ramdas Pophale) SiO2 
 PCOD9472173
Probable space group: C M C M
;
_chemical_formula_sum "Si O2"
_cell_formula_units_Z 112
_cell_length_a 14.693388
_cell_length_b 14.416518
_cell_length_c 29.838636
_cell_angle_alpha 90.000000
_cell_angle_beta 90.000000
_cell_angle_gamma 90.000000
_cell_volume 6320.643446
_symmetry_space_group_name_H-M "C M C M"
_symmetry_group_IT_number 63
_symmetry_cell_setting 'orthorhombic'
loop_
_space_group_symop_operation_xyz
x,y,z
-x,-y,1/2+z
x,-y,-z
-x,y,1/2-z
-x,-y,-z
x,y,1/2-z
-x,y,z
x,-y,1/2+z
1/2+x,1/2+y,z
1/2-x,1/2-y,1/2+z
1/2+x,1/2-y,-z
1/2-x,1/2+y,1/2-z
1/2-x,1/2-y,-z
1/2+x,1/2+y,1/2-z
1/2-x,1/2+y,z
1/2+x,1/2-y,1/2+z
loop_
_atom_site_type_symbol
_atom_site_label
_atom_site_fract_x
_atom_site_fract_y
_atom_site_fract_z
Si Si1 0.900587 0.236034 0.880142
Si Si2 0.604113 0.836931 0.972602
Si Si3 0.188042 0.948088 0.138589
Si Si4 0.891724 0.770310 0.935527
Si Si5 0.392829 0.386731 0.697681
Si Si6 0.211321 0.274665 0.154191
Si Si7 0.278398 0.454470 0.546691
O O1 0.890896 0.261868 0.932355
O O2 0.891924 0.126109 0.871782
O O3 0.810302 0.273053 0.855344
O O4 0.000000 0.269770 0.865239
O O5 0.500000 0.871357 0.973879
O O6 0.677957 0.913823 0.961439
O O7 0.625878 0.789556 0.019907
O O8 0.261618 0.881478 0.163491
O O9 0.154268 0.034833 0.167167
O O10 0.222658 0.980281 0.090041
O O11 0.843896 0.726771 0.892298
O O12 0.846091 0.870135 0.942314
O O13 0.000000 0.777721 0.929353
O O14 0.384596 0.410573 0.750000
O O15 0.500000 0.381069 0.686352
O O16 0.344917 0.288120 0.688043
O O17 0.308147 0.500000 0.500000
#
# Coordination Sequence:
#
# PCOD9472173 Si02
#       7
#    16  16  16  16  16  16  16
#     4   9  18  34  57  83 115 151 191 236 290 345
#     4  10  20  34  51  75 115 164 205 242 286 346
#     4  10  21  36  60  91 121 155 192 248 302 345
#     4  11  21  34  54  80 115 158 201 244 294 345
#     4  11  23  41  66  93 121 154 195 247 301 357
#     4  10  21  38  60  85 120 154 190 244 303 353
#     4  12  21  33  54  81 121 156 200 249 291 347
#
# _framework density 17.719714
#
# number of rings (size 3 to 8) (size 9 to 14) (size 15 to 20)
#    0.857    0.714    2.857    3.000    0.000    1.714 
#    0.000    1.429    0.000    2.143    0.000    0.000 
#    0.000    0.000    0.000    0.000    0.000    0.000 
#
# Total GULP energy -312056.505352 kJ/mol
# GULP energy per Si atom -5572.437596 kJ/mol
# Density = 1.767938 g / cm^3
# Si number density = 17.719714 Si / 1000 Ang^3
#
#
#
# Elastic Constant Matrix: (Units=GPa)
#
#
# Indices 1 2 3 4 5 6 
#
# 1 75.8037 35.6034 18.6448 0.0000 0.0000 0.0000
# 2 35.6034 56.7731 30.7606 0.0000 0.0000 0.0000
# 3 18.6448 30.7606 55.8699 0.0000 0.0000 0.0000
# 4 0.0000 0.0000 0.0000 16.4974 0.0000 0.0000
# 5 0.0000 0.0000 0.0000 0.0000 4.5252 0.0000
# 6 0.0000 0.0000 0.0000 0.0000 0.0000 -521.1141
#
#
#
# Elastic Compliance Matrix: (Units=1/GPa)
#
#
# Indices 1 2 3 4 5 6 
#
# 1 0.018704 -0.011896 0.000308 0.000000 0.000000 0.000000
# 2 -0.011896 0.032669 -0.014017 0.000000 0.000000 0.000000
# 3 0.000308 -0.014017 0.025513 0.000000 0.000000 0.000000
# 4 0.000000 0.000000 0.000000 0.060616 0.000000 0.000000
# 5 0.000000 0.000000 0.000000 0.000000 0.220984 0.000000
# 6 0.000000 0.000000 0.000000 0.000000 0.000000 -0.001919
#
#
# Mechanical properties :
#
#
# Convention : Reuss Voigt Hill
#
# Bulk Modulus (GPa) = 38.94711 39.82937 39.38824
# Shear Modulus (GPa) = 12.00959 -93.12242 -40.55642
#
# Velocity S-wave (km/s) = 2.60619 -7.25721 -4.78930
# Velocity P-wave (km/s) = 5.57526 6.90627 2.88210
#
# Compressibility (1/GPa) = 0.02567585
#
# Stress axis : x y z
#
# Youngs Moduli (GPa) = 53.46560 30.61037 39.19557
#
# Poissons Ratio (x) = 0.36415 -0.01207
# Poissons Ratio (y) = 0.63604 0.54939
# Poissons Ratio (z) = -0.01647 0.42905
#
# Static dielectric constant tensor:
#      x y z
#    x 1.615990 0.000000 0.000000 
#    y 0.000000 1.612240 0.000000 
#    z 0.000000 0.000000 1.593410 
# 
# From -- ./inp_files/73543.got.cif
#   From: 2010.05.17/outbox.cif.g08.bks.cpg/sg63_37_cif.got.tgz:73543.got - 2010.06.03 15:47:04.
