data_PCOD9472687
_publ_section_title
;
Structure prediction by ZEFSAII (Michael W. Deem and Ramdas Pophale) SiO2 
 PCOD9472687
Probable space group: C M C M
;
_chemical_formula_sum "Si O2"
_cell_formula_units_Z 80
_cell_length_a 17.604677
_cell_length_b 26.498709
_cell_length_c 8.821892
_cell_angle_alpha 90.000000
_cell_angle_beta 90.000000
_cell_angle_gamma 90.000000
_cell_volume 4115.423318
_symmetry_space_group_name_H-M "C M C M"
_symmetry_group_IT_number 63
_symmetry_cell_setting 'orthorhombic'
loop_
_space_group_symop_operation_xyz
x,y,z
-x,-y,1/2+z
x,-y,-z
-x,y,1/2-z
-x,-y,-z
x,y,1/2-z
-x,y,z
x,-y,1/2+z
1/2+x,1/2+y,z
1/2-x,1/2-y,1/2+z
1/2+x,1/2-y,-z
1/2-x,1/2+y,1/2-z
1/2-x,1/2-y,-z
1/2+x,1/2+y,1/2-z
1/2-x,1/2+y,z
1/2+x,1/2-y,1/2+z
loop_
_atom_site_type_symbol
_atom_site_label
_atom_site_fract_x
_atom_site_fract_y
_atom_site_fract_z
Si Si1 0.872234 0.161978 0.566907
Si Si2 0.795563 0.656962 0.429914
Si Si3 0.585845 0.766593 0.428503
Si Si4 0.198635 0.552232 0.925649
Si Si5 0.883701 0.051613 0.924061
O O1 0.876977 0.163563 0.750000
O O2 0.784222 0.164959 0.516044
O O3 0.911225 0.209992 0.492930
O O4 0.903571 0.107190 0.514521
O O5 0.783168 0.658409 0.250000
O O6 0.854520 0.699283 0.482001
O O7 0.824292 0.601754 0.481637
O O8 0.605132 0.766246 0.250000
O O9 0.500000 0.786161 0.445725
O O10 0.176034 0.556268 0.750000
O O11 0.291196 0.551063 0.928751
O O12 0.172304 0.500000 0.000000
O O13 0.907196 0.050127 0.750000
O O14 0.910010 0.000000 0.000000
#
# Coordination Sequence:
#
# PCOD9472687 Si02
#       5
#    16  16  16  16  16
#     4  10  20  35  55  80 109 139 175 218 263 313
#     4  11  21  34  55  81 109 141 177 217 262 313
#     4  11  24  40  56  75 102 137 177 222 271 321
#     4   9  16  28  47  75 109 140 173 213 259 308
#     4   8  15  26  44  72 104 135 165 204 251 299
#
# _framework density 19.439070000000001
#
# number of rings (size 3 to 8) (size 9 to 14) (size 15 to 20)
#    0.000    2.200    0.000    5.400    0.000    7.200 
#    0.000    0.000    0.000    1.200    0.000    0.000 
#    0.000    0.000    0.000    0.000    0.000    0.000 
#
# Total GULP energy -223297.471569 kJ/mol
# GULP energy per Si atom -5582.436789 kJ/mol
# Density = 1.939483 g / cm^3
# Si number density = 19.439070 Si / 1000 Ang^3
#
#
#
# Elastic Constant Matrix: (Units=GPa)
#
#
# Indices 1 2 3 4 5 6 
#
# 1 34.9556 26.3082 3.9074 0.0000 0.0000 0.0000
# 2 26.3082 115.5690 12.4533 0.0000 0.0000 0.0000
# 3 3.9074 12.4533 56.9041 0.0000 0.0000 0.0000
# 4 0.0000 0.0000 0.0000 40.5536 0.0000 0.0000
# 5 0.0000 0.0000 0.0000 0.0000 8.0867 0.0000
# 6 0.0000 0.0000 0.0000 0.0000 0.0000 -22.2302
#
#
#
# Elastic Compliance Matrix: (Units=1/GPa)
#
#
# Indices 1 2 3 4 5 6 
#
# 1 0.034547 -0.007792 -0.000667 0.000000 0.000000 0.000000
# 2 -0.007792 0.010619 -0.001789 0.000000 0.000000 0.000000
# 3 -0.000667 -0.001789 0.018011 0.000000 0.000000 0.000000
# 4 0.000000 0.000000 0.000000 0.024659 0.000000 0.000000
# 5 0.000000 0.000000 0.000000 0.000000 0.123660 0.000000
# 6 0.000000 0.000000 0.000000 0.000000 0.000000 -0.044984
#
#
# Mechanical properties :
#
#
# Convention : Reuss Voigt Hill
#
# Bulk Modulus (GPa) = 23.42980 32.52960 27.97970
# Shear Modulus (GPa) = 24.84656 16.26602 20.55629
#
# Velocity S-wave (km/s) = 3.57904 2.89583 3.25541
# Velocity P-wave (km/s) = 5.39986 5.28693 5.34369
#
# Compressibility (1/GPa) = 0.04268070
#
# Stress axis : x y z
#
# Youngs Moduli (GPa) = 28.94607 94.16645 55.52242
#
# Poissons Ratio (x) = 0.73379 0.03703
# Poissons Ratio (y) = 0.22556 0.09933
# Poissons Ratio (z) = 0.01930 0.16846
#
# Static dielectric constant tensor:
#      x y z
#    x 1.671440 0.000000 0.000000 
#    y 0.000000 1.696890 0.000000 
#    z 0.000000 0.000000 1.654880 
# 
# From -- ./inp_files/6347.got.cif
#   From: 2010.05.17/outbox.cif.g08.bks.cpg/sg63_4_cif.got.tgz:6347.got - 2010.06.03 15:47:04.
