data_PCOD9472287
_publ_section_title
;
Structure prediction by ZEFSAII (Michael W. Deem and Ramdas Pophale) SiO2 
 PCOD9472287
Probable space group: C M C M
;
_chemical_formula_sum "Si O2"
_cell_formula_units_Z 96
_cell_length_a 7.770321
_cell_length_b 21.254296
_cell_length_c 29.106307
_cell_angle_alpha 90.000000
_cell_angle_beta 90.000000
_cell_angle_gamma 90.000000
_cell_volume 4806.985262
_symmetry_space_group_name_H-M "C M C M"
_symmetry_group_IT_number 63
_symmetry_cell_setting 'orthorhombic'
loop_
_space_group_symop_operation_xyz
x,y,z
-x,-y,1/2+z
x,-y,-z
-x,y,1/2-z
-x,-y,-z
x,y,1/2-z
-x,y,z
x,-y,1/2+z
1/2+x,1/2+y,z
1/2-x,1/2-y,1/2+z
1/2+x,1/2-y,-z
1/2-x,1/2+y,1/2-z
1/2-x,1/2-y,-z
1/2+x,1/2+y,1/2-z
1/2-x,1/2+y,z
1/2+x,1/2-y,1/2+z
loop_
_atom_site_type_symbol
_atom_site_label
_atom_site_fract_x
_atom_site_fract_y
_atom_site_fract_z
Si Si1 0.793267 0.745332 0.446639
Si Si2 0.711443 0.629101 0.894362
Si Si3 0.202620 0.007788 0.948597
Si Si4 0.297051 0.881418 0.602009
Si Si5 0.793127 0.182879 0.800968
Si Si6 0.205678 0.171248 0.301925
O O1 0.750000 0.750000 0.500000
O O2 0.732851 0.808230 0.421222
O O3 0.727069 0.681224 0.423397
O O4 0.000000 0.744257 0.441570
O O5 0.500000 0.628143 0.893965
O O6 0.773776 0.566919 0.920171
O O7 0.768754 0.638485 0.841860
O O8 0.000000 0.021543 0.954624
O O9 0.219175 0.944115 0.919558
O O10 0.276436 0.000000 0.000000
O O11 0.500000 0.885020 0.593052
O O12 0.270521 0.871344 0.656352
O O13 0.724416 0.169426 0.750000
O O14 0.754871 0.256069 0.811607
O O15 0.000000 0.177488 0.799399
O O16 0.268706 0.156508 0.250000
O O17 0.000000 0.167102 0.301441
#
# Coordination Sequence:
#
# PCOD9472287 Si02
#       6
#    16  16  16  16  16  16
#     4  10  20  34  53  78 105 137 180 229 273 319
#     4   9  17  33  53  76 105 138 182 224 266 326
#     4  10  21  37  57  77 108 154 193 231 277 327
#     4  11  22  37  57  81 112 147 185 230 279 334
#     4   9  16  30  54  80 107 139 174 219 276 330
#     4  10  20  34  55  84 114 143 180 226 275 330
#
# _framework density 19.970938
#
# number of rings (size 3 to 8) (size 9 to 14) (size 15 to 20)
#    0.000    2.167    1.667    2.000    0.000    4.000 
#    0.000    2.500    0.000    3.000    0.000    0.000 
#    0.000    0.000    0.000    0.000    0.000    0.000 
#
# Total GULP energy -267944.140457 kJ/mol
# GULP energy per Si atom -5582.169593 kJ/mol
# Density = 1.992548 g / cm^3
# Si number density = 19.970938 Si / 1000 Ang^3
#
#
#
# Elastic Constant Matrix: (Units=GPa)
#
#
# Indices 1 2 3 4 5 6 
#
# 1 21.8751 -10.9067 -12.9338 0.0000 0.0000 0.0000
# 2 -10.9067 124.8130 76.0738 0.0000 0.0000 0.0000
# 3 -12.9338 76.0738 164.3985 0.0000 0.0000 0.0000
# 4 0.0000 0.0000 0.0000 30.7947 0.0000 0.0000
# 5 0.0000 0.0000 0.0000 0.0000 19.4112 0.0000
# 6 0.0000 0.0000 0.0000 0.0000 0.0000 41.2659
#
#
#
# Elastic Compliance Matrix: (Units=1/GPa)
#
#
# Indices 1 2 3 4 5 6 
#
# 1 0.048574 0.002668 0.002587 0.000000 0.000000 0.000000
# 2 0.002668 0.011306 -0.005022 0.000000 0.000000 0.000000
# 3 0.002587 -0.005022 0.008610 0.000000 0.000000 0.000000
# 4 0.000000 0.000000 0.000000 0.032473 0.000000 0.000000
# 5 0.000000 0.000000 0.000000 0.000000 0.051517 0.000000
# 6 0.000000 0.000000 0.000000 0.000000 0.000000 0.024233
#
#
# Mechanical properties :
#
#
# Convention : Reuss Voigt Hill
#
# Bulk Modulus (GPa) = 14.50204 46.17257 30.33730
# Shear Modulus (GPa) = 25.09638 35.55126 30.32382
#
# Velocity S-wave (km/s) = 3.54876 4.22376 3.90089
# Velocity P-wave (km/s) = 4.90601 6.85251 5.95927
#
# Compressibility (1/GPa) = 0.06895583
#
# Stress axis : x y z
#
# Youngs Moduli (GPa) = 20.58722 88.44922 116.14259
#
# Poissons Ratio (x) = -0.23597 -0.30046
# Poissons Ratio (y) = -0.05492 0.58325
# Poissons Ratio (z) = -0.05326 0.44418
#
# Static dielectric constant tensor:
#      x y z
#    x 1.737960 0.000000 0.000000 
#    y 0.000000 1.668080 0.000000 
#    z 0.000000 0.000000 1.760190 
# 
# From -- ./inp_files/67015.got.cif
#   From: 2010.05.17/outbox.cif.g08.bks.cpg/sg63_34_cif.got.tgz:67015.got - 2010.06.03 15:47:04.
