data_PCOD9472373
_publ_section_title
;
Structure prediction by ZEFSAII (Michael W. Deem and Ramdas Pophale) SiO2 
 PCOD9472373
Probable space group: C M C M
;
_chemical_formula_sum "Si O2"
_cell_formula_units_Z 104
_cell_length_a 20.831211
_cell_length_b 32.784152
_cell_length_c 8.794132
_cell_angle_alpha 90.000000
_cell_angle_beta 90.000000
_cell_angle_gamma 90.000000
_cell_volume 6005.808118
_symmetry_space_group_name_H-M "C M C M"
_symmetry_group_IT_number 63
_symmetry_cell_setting 'orthorhombic'
loop_
_space_group_symop_operation_xyz
x,y,z
-x,-y,1/2+z
x,-y,-z
-x,y,1/2-z
-x,-y,-z
x,y,1/2-z
-x,y,z
x,-y,1/2+z
1/2+x,1/2+y,z
1/2-x,1/2-y,1/2+z
1/2+x,1/2-y,-z
1/2-x,1/2+y,1/2-z
1/2-x,1/2-y,-z
1/2+x,1/2+y,1/2-z
1/2-x,1/2+y,z
1/2+x,1/2-y,1/2+z
loop_
_atom_site_type_symbol
_atom_site_label
_atom_site_fract_x
_atom_site_fract_y
_atom_site_fract_z
Si Si1 0.573706 0.822449 0.931320
Si Si2 0.806077 0.633353 0.932490
Si Si3 0.128057 0.919852 0.432137
Si Si4 0.677921 0.664439 0.067002
Si Si5 0.000000 0.044675 0.069461
Si Si6 0.073258 0.767623 0.567067
Si Si7 0.762325 0.457069 0.431873
O O1 0.582863 0.824334 0.750000
O O2 0.500000 0.834218 0.965888
O O3 0.625519 0.850439 0.013964
O O4 0.581676 0.775935 0.987674
O O5 0.799654 0.634841 0.750000
O O6 0.794902 0.585926 0.980115
O O7 0.750526 0.662162 0.003911
O O8 0.122028 0.918509 0.250000
O O9 0.146839 0.875913 0.495912
O O10 0.187163 0.949969 0.469552
O O11 0.063095 0.933450 0.509044
O O12 0.679657 0.662148 0.250000
O O13 0.630913 0.701817 0.024688
O O14 0.000000 0.043049 0.250000
O O15 0.000000 0.000000 0.000000
O O16 0.075853 0.762260 0.750000
O O17 0.000000 0.782518 0.531470
O O18 0.784991 0.500000 0.500000
O O19 0.768359 0.459432 0.250000
#
# Coordination Sequence:
#
# PCOD9472373 Si02
#       7
#    16  16  16  16   8  16  16
#     4  10  21  37  58  84 109 136 176 222 269 325
#     4  10  21  37  56  80 111 144 179 219 267 327
#     4  10  21  36  51  73 104 140 181 226 276 328
#     4  10  20  34  54  80 109 143 184 229 273 317
#     4  12  24  36  50  70  98 136 184 234 284 334
#     4   9  19  35  54  77 108 146 185 224 269 324
#     4   9  19  34  54  78 104 134 172 214 261 317
#
# _framework density 17.316569999999999
#
# number of rings (size 3 to 8) (size 9 to 14) (size 15 to 20)
#    0.000    2.154    0.000    3.923    1.077    7.692 
#    0.000    0.000    0.000    0.462    0.000    0.000 
#    0.000    0.000    0.000    0.000    0.000    0.000 
#
# Total GULP energy -290091.603970 kJ/mol
# GULP energy per Si atom -5578.684692 kJ/mol
# Density = 1.727716 g / cm^3
# Si number density = 17.316570 Si / 1000 Ang^3
#
#
#
# Elastic Constant Matrix: (Units=GPa)
#
#
# Indices 1 2 3 4 5 6 
#
# 1 110.8062 61.4800 49.6086 0.0000 0.0000 0.0000
# 2 61.4800 76.4882 36.3554 0.0000 0.0000 0.0000
# 3 49.6086 36.3554 58.4550 0.0000 0.0000 0.0000
# 4 0.0000 0.0000 0.0000 31.8532 0.0000 0.0000
# 5 0.0000 0.0000 0.0000 0.0000 26.6993 0.0000
# 6 0.0000 0.0000 0.0000 0.0000 0.0000 15.6042
#
#
#
# Elastic Compliance Matrix: (Units=1/GPa)
#
#
# Indices 1 2 3 4 5 6 
#
# 1 0.019495 -0.011082 -0.009652 0.000000 0.000000 0.000000
# 2 -0.011082 0.024860 -0.006057 0.000000 0.000000 0.000000
# 3 -0.009652 -0.006057 0.029066 0.000000 0.000000 0.000000
# 4 0.000000 0.000000 0.000000 0.031394 0.000000 0.000000
# 5 0.000000 0.000000 0.000000 0.000000 0.037454 0.000000
# 6 0.000000 0.000000 0.000000 0.000000 0.000000 0.064085
#
#
# Mechanical properties :
#
#
# Convention : Reuss Voigt Hill
#
# Bulk Modulus (GPa) = 50.40616 60.07082 55.23849
# Shear Modulus (GPa) = 18.75828 21.38503 20.07166
#
# Velocity S-wave (km/s) = 3.29486 3.51799 3.40825
# Velocity P-wave (km/s) = 6.60656 7.16008 6.88888
#
# Compressibility (1/GPa) = 0.01983884
#
# Stress axis : x y z
#
# Youngs Moduli (GPa) = 51.29561 40.22505 34.40483
#
# Poissons Ratio (x) = 0.44577 0.33209
# Poissons Ratio (y) = 0.56845 0.20838
# Poissons Ratio (z) = 0.49512 0.24363
#
# Static dielectric constant tensor:
#      x y z
#    x 1.575390 0.000000 0.000000 
#    y 0.000000 1.566990 0.000000 
#    z 0.000000 0.000000 1.576620 
# 
# From -- ./inp_files/9109.got.cif
#   From: 2010.05.17/outbox.cif.g08.bks.cpg/sg63_5_cif.got.tgz:9109.got - 2010.06.03 15:47:04.
