data_PCOD9472934
_publ_section_title
;
Structure prediction by ZEFSAII (Michael W. Deem and Ramdas Pophale) SiO2 
 PCOD9472934
Probable space group: C M C M
;
_chemical_formula_sum "Si O2"
_cell_formula_units_Z 116
_cell_length_a 24.654677
_cell_length_b 29.600722
_cell_length_c 7.924811
_cell_angle_alpha 90.000000
_cell_angle_beta 90.000000
_cell_angle_gamma 90.000000
_cell_volume 5783.497270
_symmetry_space_group_name_H-M "C M C M"
_symmetry_group_IT_number 63
_symmetry_cell_setting 'orthorhombic'
loop_
_space_group_symop_operation_xyz
x,y,z
-x,-y,1/2+z
x,-y,-z
-x,y,1/2-z
-x,-y,-z
x,y,1/2-z
-x,y,z
x,-y,1/2+z
1/2+x,1/2+y,z
1/2-x,1/2-y,1/2+z
1/2+x,1/2-y,-z
1/2-x,1/2+y,1/2-z
1/2-x,1/2-y,-z
1/2+x,1/2+y,1/2-z
1/2-x,1/2+y,z
1/2+x,1/2-y,1/2+z
loop_
_atom_site_type_symbol
_atom_site_label
_atom_site_fract_x
_atom_site_fract_y
_atom_site_fract_z
Si Si1 0.908333 0.715759 0.941657
Si Si2 0.200055 0.145822 0.554895
Si Si3 0.000000 0.835749 0.750000
Si Si4 0.417746 0.685489 0.945070
Si Si5 0.775343 0.050146 0.048406
Si Si6 0.348861 0.050253 0.453240
Si Si7 0.288706 0.209414 0.057495
Si Si8 0.559000 0.882987 0.952991
O O1 0.925332 0.724751 0.750000
O O2 0.923333 0.760253 0.045220
O O3 0.843480 0.708621 0.951698
O O4 0.933980 0.669352 0.003436
O O5 0.213042 0.153953 0.750000
O O6 0.144976 0.172689 0.517829
O O7 0.192533 0.092748 0.523033
O O8 0.251629 0.164885 0.454492
O O9 0.953412 0.834081 0.597276
O O10 0.429450 0.671035 0.750000
O O11 0.775404 0.053344 0.250000
O O12 0.713013 0.054823 0.984346
O O13 0.794449 0.000000 0.000000
O O14 0.346504 0.053597 0.250000
O O15 0.390590 0.087665 0.518152
O O16 0.367724 0.000000 0.500000
O O17 0.305837 0.216569 0.250000
O O18 0.250000 0.250000 0.000000
O O19 0.559695 0.886952 0.750000
O O20 0.500000 0.898927 0.014027
#
# Coordination Sequence:
#
# PCOD9472934 Si02
#       8
#    16  16   4  16  16  16  16  16
#     4  12  24  39  57  84 119 161 212 257 314 379
#     4  11  23  39  61  92 128 163 204 253 312 375
#     4  12  26  44  68  90 122 168 218 256 302 378
#     4  11  25  43  64  92 126 164 209 265 312 363
#     4  10  20  35  60  90 126 162 199 247 307 377
#     4   9  19  36  56  81 112 152 197 249 313 375
#     4  12  23  36  57  85 121 162 202 252 310 374
#     4  10  22  38  56  79 110 154 207 265 319 365
#
# _framework density 20.057068999999998
#
# number of rings (size 3 to 8) (size 9 to 14) (size 15 to 20)
#    0.000    1.241    2.069    4.345    2.897    2.759 
#    0.000    0.000    0.000    0.000    0.000    0.483 
#    0.000    0.000    0.000    0.000    0.000    0.000 
#
# Total GULP energy -323634.916110 kJ/mol
# GULP energy per Si atom -5579.912347 kJ/mol
# Density = 2.001142 g / cm^3
# Si number density = 20.057069 Si / 1000 Ang^3
#
#
#
# Elastic Constant Matrix: (Units=GPa)
#
#
# Indices 1 2 3 4 5 6 
#
# 1 39.3754 -2.8902 14.7889 0.0000 0.0000 0.0000
# 2 -2.8902 77.3432 -9.9232 0.0000 0.0000 0.0000
# 3 14.7889 -9.9232 69.5390 0.0000 0.0000 0.0000
# 4 0.0000 0.0000 0.0000 26.9564 0.0000 0.0000
# 5 0.0000 0.0000 0.0000 0.0000 23.4553 0.0000
# 6 0.0000 0.0000 0.0000 0.0000 0.0000 -126.6386
#
#
#
# Elastic Compliance Matrix: (Units=1/GPa)
#
#
# Indices 1 2 3 4 5 6 
#
# 1 0.027607 0.000284 -0.005831 0.000000 0.000000 0.000000
# 2 0.000284 0.013173 0.001820 0.000000 0.000000 0.000000
# 3 -0.005831 0.001820 0.015880 0.000000 0.000000 0.000000
# 4 0.000000 0.000000 0.000000 0.037097 0.000000 0.000000
# 5 0.000000 0.000000 0.000000 0.000000 0.042634 0.000000
# 6 0.000000 0.000000 0.000000 0.000000 0.000000 -0.007896
#
#
# Mechanical properties :
#
#
# Convention : Reuss Voigt Hill
#
# Bulk Modulus (GPa) = 20.32294 21.13428 20.72861
# Shear Modulus (GPa) = 32.81853 -2.95991 14.92931
#
# Velocity S-wave (km/s) = 4.04946 -1.21612 2.73122
# Velocity P-wave (km/s) = 5.65851 2.93053 4.50592
#
# Compressibility (1/GPa) = 0.04920547
#
# Stress axis : x y z
#
# Youngs Moduli (GPa) = 36.22220 75.91035 62.97188
#
# Poissons Ratio (x) = -0.02152 0.36718
# Poissons Ratio (y) = -0.01027 -0.11458
# Poissons Ratio (z) = 0.21120 -0.13812
#
# Static dielectric constant tensor:
#      x y z
#    x 1.764690 0.000000 0.000000 
#    y 0.000000 1.713880 0.000000 
#    z 0.000000 0.000000 1.746350 
# 
# From -- ./inp_files/10934.got.cif
#   From: 2010.05.17/outbox.cif.g08.bks.cpg/sg63_6_cif.got.tgz:10934.got - 2010.06.03 15:47:04.
