data_PCOD9472825
_publ_section_title
;
Structure prediction by ZEFSAII (Michael W. Deem and Ramdas Pophale) SiO2 
 PCOD9472825
Probable space group: C M C M
;
_chemical_formula_sum "Si O2"
_cell_formula_units_Z 116
_cell_length_a 16.501160
_cell_length_b 18.867882
_cell_length_c 19.526951
_cell_angle_alpha 90.000000
_cell_angle_beta 90.000000
_cell_angle_gamma 90.000000
_cell_volume 6079.558802
_symmetry_space_group_name_H-M "C M C M"
_symmetry_group_IT_number 63
_symmetry_cell_setting 'orthorhombic'
loop_
_space_group_symop_operation_xyz
x,y,z
-x,-y,1/2+z
x,-y,-z
-x,y,1/2-z
-x,-y,-z
x,y,1/2-z
-x,y,z
x,-y,1/2+z
1/2+x,1/2+y,z
1/2-x,1/2-y,1/2+z
1/2+x,1/2-y,-z
1/2-x,1/2+y,1/2-z
1/2-x,1/2-y,-z
1/2+x,1/2+y,1/2-z
1/2-x,1/2+y,z
1/2+x,1/2-y,1/2+z
loop_
_atom_site_type_symbol
_atom_site_label
_atom_site_fract_x
_atom_site_fract_y
_atom_site_fract_z
Si Si1 0.318739 0.447299 0.059227
Si Si2 0.822874 0.817705 0.671185
Si Si3 0.860356 0.657416 0.136315
Si Si4 0.000000 0.629406 0.250000
Si Si5 0.907713 0.201230 0.563756
Si Si6 0.635483 0.923087 0.490361
Si Si7 0.911489 0.716415 0.580320
Si Si8 0.594055 0.537925 0.167677
O O1 0.355995 0.369365 0.058912
O O2 0.224047 0.437972 0.042260
O O3 0.345004 0.485211 0.129307
O O4 0.351732 0.500000 0.000000
O O5 0.840548 0.802859 0.750000
O O6 0.731064 0.844245 0.663914
O O7 0.841491 0.748191 0.627229
O O8 0.880779 0.882080 0.647593
O O9 0.928196 0.632356 0.189677
O O10 0.878387 0.739475 0.117086
O O11 0.860982 0.613099 0.065365
O O12 0.906586 0.240238 0.490539
O O13 0.000000 0.182012 0.580720
O O14 0.595870 0.865384 0.440610
O O15 0.596188 0.000000 0.500000
O O16 0.000000 0.729449 0.612016
O O17 0.602031 0.532608 0.250000
O O18 0.500000 0.523914 0.149666
#
# Coordination Sequence:
#
# PCOD9472825 Si02
#       8
#    16  16  16   4  16  16  16  16
#     4  11  21  36  59  90 126 167 213 258 313 379
#     4  11  21  36  62  87 123 168 205 255 317 374
#     4  11  22  42  64  93 123 157 212 262 317 384
#     4  12  24  44  66  96 124 160 210 266 316 404
#     4  10  20  35  57  86 118 154 197 255 305 353
#     4  10  22  40  66  89 123 161 207 264 324 372
#     4  10  21  37  59  88 116 154 205 251 299 368
#     4  10  22  39  58  90 130 174 215 259 320 387
#
# _framework density 19.080333
#
# number of rings (size 3 to 8) (size 9 to 14) (size 15 to 20)
#    0.000    1.517    1.379    4.966    0.966    5.517 
#    1.241    0.690    1.517    0.000    0.000    0.000 
#    0.000    0.000    0.000    0.000    0.000    0.000 
#
# Total GULP energy -323210.151661 kJ/mol
# GULP energy per Si atom -5572.588822 kJ/mol
# Density = 1.903691 g / cm^3
# Si number density = 19.080333 Si / 1000 Ang^3
#
#
#
# Elastic Constant Matrix: (Units=GPa)
#
#
# Indices 1 2 3 4 5 6 
#
# 1 100.5401 26.1430 36.7071 0.0000 0.0000 0.0000
# 2 26.1430 95.6061 17.8339 0.0000 0.0000 0.0000
# 3 36.7071 17.8339 55.7868 0.0000 0.0000 0.0000
# 4 0.0000 0.0000 0.0000 17.2037 0.0000 0.0000
# 5 0.0000 0.0000 0.0000 0.0000 30.3695 0.0000
# 6 0.0000 0.0000 0.0000 0.0000 0.0000 17.1424
#
#
#
# Elastic Compliance Matrix: (Units=1/GPa)
#
#
# Indices 1 2 3 4 5 6 
#
# 1 0.013499 -0.002163 -0.008191 0.000000 0.000000 0.000000
# 2 -0.002163 0.011470 -0.002243 0.000000 0.000000 0.000000
# 3 -0.008191 -0.002243 0.024032 0.000000 0.000000 0.000000
# 4 0.000000 0.000000 0.000000 0.058127 0.000000 0.000000
# 5 0.000000 0.000000 0.000000 0.000000 0.032928 0.000000
# 6 0.000000 0.000000 0.000000 0.000000 0.000000 0.058335
#
#
# Mechanical properties :
#
#
# Convention : Reuss Voigt Hill
#
# Bulk Modulus (GPa) = 42.00587 45.92233 43.96410
# Shear Modulus (GPa) = 21.59636 24.35972 22.97804
#
# Velocity S-wave (km/s) = 3.36797 3.57696 3.47404
# Velocity P-wave (km/s) = 6.09814 6.41714 6.25967
#
# Compressibility (1/GPa) = 0.02380620
#
# Stress axis : x y z
#
# Youngs Moduli (GPa) = 74.07804 87.18717 41.61132
#
# Poissons Ratio (x) = 0.18862 0.34083
# Poissons Ratio (y) = 0.16026 0.09334
# Poissons Ratio (z) = 0.60676 0.19557
#
# Static dielectric constant tensor:
#      x y z
#    x 1.680040 0.000000 0.000000 
#    y 0.000000 1.666780 0.000000 
#    z 0.000000 0.000000 1.662320 
# 
# From -- ./inp_files/45903.got.cif
#   From: 2010.05.17/outbox.cif.g08.bks.cpg/sg63_23_cif.got.tgz:45903.got - 2010.06.03 15:47:04.
