data_PCOD9472528
_publ_section_title
;
Structure prediction by ZEFSAII (Michael W. Deem and Ramdas Pophale) SiO2 
 PCOD9472528
Probable space group: C M C M
;
_chemical_formula_sum "Si O2"
_cell_formula_units_Z 104
_cell_length_a 22.112754
_cell_length_b 28.980641
_cell_length_c 8.987740
_cell_angle_alpha 90.000000
_cell_angle_beta 90.000000
_cell_angle_gamma 90.000000
_cell_volume 5759.719346
_symmetry_space_group_name_H-M "C M C M"
_symmetry_group_IT_number 63
_symmetry_cell_setting 'orthorhombic'
loop_
_space_group_symop_operation_xyz
x,y,z
-x,-y,1/2+z
x,-y,-z
-x,y,1/2-z
-x,-y,-z
x,y,1/2-z
-x,y,z
x,-y,1/2+z
1/2+x,1/2+y,z
1/2-x,1/2-y,1/2+z
1/2+x,1/2-y,-z
1/2-x,1/2+y,1/2-z
1/2-x,1/2-y,-z
1/2+x,1/2+y,1/2-z
1/2-x,1/2+y,z
1/2+x,1/2-y,1/2+z
loop_
_atom_site_type_symbol
_atom_site_label
_atom_site_fract_x
_atom_site_fract_y
_atom_site_fract_z
Si Si1 0.877543 0.106407 0.428195
Si Si2 0.314654 0.799536 0.575736
Si Si3 0.754862 0.050460 0.427794
Si Si4 0.349866 0.112499 0.924840
Si Si5 0.928070 0.545129 0.418026
Si Si6 0.183174 0.806778 0.425945
Si Si7 0.000000 0.948633 0.570059
O O1 0.879559 0.114888 0.250000
O O2 0.820779 0.072565 0.458068
O O3 0.861693 0.154467 0.510329
O O4 0.939814 0.080659 0.471140
O O5 0.316293 0.811305 0.750000
O O6 0.351985 0.835372 0.479966
O O7 0.246236 0.806929 0.516304
O O8 0.335965 0.746768 0.558913
O O9 0.747474 0.047300 0.250000
O O10 0.704894 0.084968 0.495302
O O11 0.750063 0.000000 0.500000
O O12 0.341717 0.109270 0.750000
O O13 0.409638 0.087512 0.981426
O O14 0.903139 0.500000 0.500000
O O15 0.904445 0.549091 0.250000
O O16 0.000000 0.540964 0.409459
O O17 0.194491 0.815370 0.250000
O O18 0.000000 0.953601 0.750000
O O19 0.000000 0.000000 0.500000
#
# Coordination Sequence:
#
# PCOD9472528 Si02
#       7
#    16  16  16  16  16  16   8
#     4  10  21  37  58  81 113 151 191 238 289 342
#     4  10  20  35  55  83 116 146 182 227 279 336
#     4  11  22  35  52  78 112 149 184 229 282 335
#     4  12  23  35  55  83 113 147 185 230 278 332
#     4  10  21  38  59  81 109 147 187 227 271 325
#     4  10  20  34  57  85 112 144 184 226 278 341
#     4  10  22  40  60  86 114 154 202 244 293 346
#
# _framework density 18.056436000000001
#
# number of rings (size 3 to 8) (size 9 to 14) (size 15 to 20)
#    0.000    1.538    1.538    4.154    0.000    4.000 
#    0.000    0.000    1.692    0.000    0.000    0.000 
#    0.000    0.000    0.000    0.000    0.000    0.000 
#
# Total GULP energy -290305.647910 kJ/mol
# GULP energy per Si atom -5582.800921 kJ/mol
# Density = 1.801534 g / cm^3
# Si number density = 18.056436 Si / 1000 Ang^3
#
#
#
# Elastic Constant Matrix: (Units=GPa)
#
#
# Indices 1 2 3 4 5 6 
#
# 1 60.0552 32.9963 26.8499 0.0000 0.0000 0.0000
# 2 32.9963 97.7933 62.2712 0.0000 0.0000 0.0000
# 3 26.8499 62.2712 109.4447 0.0000 0.0000 0.0000
# 4 0.0000 0.0000 0.0000 38.0474 0.0000 0.0000
# 5 0.0000 0.0000 0.0000 0.0000 18.4331 0.0000
# 6 0.0000 0.0000 0.0000 0.0000 0.0000 38.1760
#
#
#
# Elastic Compliance Matrix: (Units=1/GPa)
#
#
# Indices 1 2 3 4 5 6 
#
# 1 0.020647 -0.005867 -0.001727 0.000000 0.000000 0.000000
# 2 -0.005867 0.017702 -0.008633 0.000000 0.000000 0.000000
# 3 -0.001727 -0.008633 0.014473 0.000000 0.000000 0.000000
# 4 0.000000 0.000000 0.000000 0.026283 0.000000 0.000000
# 5 0.000000 0.000000 0.000000 0.000000 0.054250 0.000000
# 6 0.000000 0.000000 0.000000 0.000000 0.000000 0.026195
#
#
# Mechanical properties :
#
#
# Convention : Reuss Voigt Hill
#
# Bulk Modulus (GPa) = 49.09602 56.83645 52.96624
# Shear Modulus (GPa) = 25.15187 28.60967 26.88077
#
# Velocity S-wave (km/s) = 3.73629 3.98484 3.86256
# Velocity P-wave (km/s) = 6.77218 7.26068 7.02068
#
# Compressibility (1/GPa) = 0.02036825
#
# Stress axis : x y z
#
# Youngs Moduli (GPa) = 48.43345 56.49035 69.09573
#
# Poissons Ratio (x) = 0.33140 0.11935
# Poissons Ratio (y) = 0.28414 0.59649
# Poissons Ratio (z) = 0.08366 0.48767
#
# Static dielectric constant tensor:
#      x y z
#    x 1.631910 0.000000 0.000000 
#    y 0.000000 1.595830 0.000000 
#    z 0.000000 0.000000 1.608800 
# 
# From -- ./inp_files/10850.got.cif
#   From: 2010.05.17/outbox.cif.g08.bks.cpg/sg63_6_cif.got.tgz:10850.got - 2010.06.03 15:47:04.
