data_PCOD9472335
_publ_section_title
;
Structure prediction by ZEFSAII (Michael W. Deem and Ramdas Pophale) SiO2 
 PCOD9472335
Probable space group: C M C M
;
_chemical_formula_sum "Si O2"
_cell_formula_units_Z 80
_cell_length_a 7.735874
_cell_length_b 31.269677
_cell_length_c 15.046981
_cell_angle_alpha 90.000000
_cell_angle_beta 90.000000
_cell_angle_gamma 90.000000
_cell_volume 3639.838843
_symmetry_space_group_name_H-M "C M C M"
_symmetry_group_IT_number 63
_symmetry_cell_setting 'orthorhombic'
loop_
_space_group_symop_operation_xyz
x,y,z
-x,-y,1/2+z
x,-y,-z
-x,y,1/2-z
-x,-y,-z
x,y,1/2-z
-x,y,z
x,-y,1/2+z
1/2+x,1/2+y,z
1/2-x,1/2-y,1/2+z
1/2+x,1/2-y,-z
1/2-x,1/2+y,1/2-z
1/2-x,1/2-y,-z
1/2+x,1/2+y,1/2-z
1/2-x,1/2+y,z
1/2+x,1/2-y,1/2+z
loop_
_atom_site_type_symbol
_atom_site_label
_atom_site_fract_x
_atom_site_fract_y
_atom_site_fract_z
Si Si1 0.500000 0.401557 0.355084
Si Si2 0.697985 0.158742 0.640759
Si Si3 0.195192 0.565116 0.356096
Si Si4 0.207418 0.248020 0.351767
Si Si5 0.500000 0.501041 0.104446
Si Si6 0.207228 0.656783 0.351697
O O1 0.500000 0.392712 0.250000
O O2 0.328018 0.378020 0.389253
O O3 0.500000 0.452226 0.364921
O O4 0.692624 0.159784 0.750000
O O5 0.500000 0.151984 0.610819
O O6 0.762943 0.205904 0.612038
O O7 0.181193 0.571462 0.250000
O O8 0.330137 0.527333 0.368362
O O9 0.262656 0.611171 0.391368
O O10 0.000000 0.556181 0.389677
O O11 0.275992 0.246148 0.250000
O O12 0.252718 0.202575 0.394709
O O13 0.000000 0.250568 0.348026
O O14 0.500000 0.500000 0.000000
O O15 0.277993 0.659127 0.250000
O O16 0.000000 0.653644 0.347190
#
# Coordination Sequence:
#
# PCOD9472335 Si02
#       6
#     8  16  16  16   8  16
#     4  10  20  34  54  76  98 138 184 222 270 320
#     4   8  15  27  43  69 106 137 167 209 257 314
#     4   9  19  37  59  83 112 142 178 228 281 336
#     4   8  13  20  34  64 105 140 161 192 253 317
#     4  12  26  40  56  80 108 144 190 240 287 334
#     4   8  14  23  40  70 105 137 166 201 258 322
#
# _framework density 21.978995999999999
#
# number of rings (size 3 to 8) (size 9 to 14) (size 15 to 20)
#    0.000    3.200    0.000    3.300    2.800    1.200 
#    0.000    2.000    0.000    0.000    0.000    1.400 
#    0.000    0.000    0.000    0.000    0.000    0.000 
#
# Total GULP energy -222940.646789 kJ/mol
# GULP energy per Si atom -5573.516170 kJ/mol
# Density = 2.192897 g / cm^3
# Si number density = 21.978996 Si / 1000 Ang^3
#
#
#
# Elastic Constant Matrix: (Units=GPa)
#
#
# Indices 1 2 3 4 5 6 
#
# 1 104.3347 101.9464 1.8926 0.0000 0.0000 0.0000
# 2 101.9464 247.5692 -2.5585 0.0000 0.0000 0.0000
# 3 1.8926 -2.5585 40.0728 0.0000 0.0000 0.0000
# 4 0.0000 0.0000 0.0000 -45.7847 0.0000 0.0000
# 5 0.0000 0.0000 0.0000 0.0000 -108.7798 0.0000
# 6 0.0000 0.0000 0.0000 0.0000 0.0000 39.8406
#
#
#
# Elastic Compliance Matrix: (Units=1/GPa)
#
#
# Indices 1 2 3 4 5 6 
#
# 1 0.016093 -0.006639 -0.001184 0.000000 0.000000 0.000000
# 2 -0.006639 0.006781 0.000747 0.000000 0.000000 0.000000
# 3 -0.001184 0.000747 0.025058 0.000000 0.000000 0.000000
# 4 0.000000 0.000000 0.000000 -0.021841 0.000000 0.000000
# 5 0.000000 0.000000 0.000000 0.000000 -0.009193 0.000000
# 6 0.000000 0.000000 0.000000 0.000000 0.000000 0.025100
#
#
# Mechanical properties :
#
#
# Convention : Reuss Voigt Hill
#
# Bulk Modulus (GPa) = 29.60420 66.05973 47.83196
# Shear Modulus (GPa) = 74.17134 -3.56504 35.30315
#
# Velocity S-wave (km/s) = 5.81547 -1.27497 4.01212
# Velocity P-wave (km/s) = 7.65451 5.28713 6.57819
#
# Compressibility (1/GPa) = 0.03377899
#
# Stress axis : x y z
#
# Youngs Moduli (GPa) = 62.13751 147.47124 39.90713
#
# Poissons Ratio (x) = 0.97911 0.04725
# Poissons Ratio (y) = 0.41255 -0.02979
# Poissons Ratio (z) = 0.07357 -0.11009
#
# Static dielectric constant tensor:
#      x y z
#    x 1.752370 0.000000 0.000000 
#    y 0.000000 1.560870 0.000000 
#    z 0.000000 0.000000 1.828690 
# 
# From -- ./inp_files/40627.got.cif
#   From: 2010.05.17/outbox.cif.g08.bks.cpg/sg63_21_cif.got.tgz:40627.got - 2010.06.03 15:47:04.
