data_PCOD9472279
_publ_section_title
;
Structure prediction by ZEFSAII (Michael W. Deem and Ramdas Pophale) SiO2 
 PCOD9472279
Probable space group: C M C M
;
_chemical_formula_sum "Si O2"
_cell_formula_units_Z 104
_cell_length_a 33.043373
_cell_length_b 20.401188
_cell_length_c 7.953669
_cell_angle_alpha 90.000000
_cell_angle_beta 90.000000
_cell_angle_gamma 90.000000
_cell_volume 5361.759676
_symmetry_space_group_name_H-M "C M C M"
_symmetry_group_IT_number 63
_symmetry_cell_setting 'orthorhombic'
loop_
_space_group_symop_operation_xyz
x,y,z
-x,-y,1/2+z
x,-y,-z
-x,y,1/2-z
-x,-y,-z
x,y,1/2-z
-x,y,z
x,-y,1/2+z
1/2+x,1/2+y,z
1/2-x,1/2-y,1/2+z
1/2+x,1/2-y,-z
1/2-x,1/2+y,1/2-z
1/2-x,1/2-y,-z
1/2+x,1/2+y,1/2-z
1/2-x,1/2+y,z
1/2+x,1/2-y,1/2+z
loop_
_atom_site_type_symbol
_atom_site_label
_atom_site_fract_x
_atom_site_fract_y
_atom_site_fract_z
Si Si1 0.500000 0.576484 0.948697
Si Si2 0.901864 0.696103 0.956383
Si Si3 0.771291 0.154389 0.453051
Si Si4 0.953616 0.427691 0.047408
Si Si5 0.078766 0.840979 0.548029
Si Si6 0.690175 0.208051 0.950853
Si Si7 0.154309 0.925969 0.952441
O O1 0.500000 0.577710 0.750000
O O2 0.500000 0.500000 0.000000
O O3 0.460350 0.615728 0.008369
O O4 0.902147 0.695187 0.750000
O O5 0.926598 0.632686 0.013720
O O6 0.921356 0.765497 0.010075
O O7 0.855023 0.694565 0.012330
O O8 0.770850 0.155288 0.250000
O O9 0.724951 0.155408 0.510113
O O10 0.792309 0.222250 0.513502
O O11 0.801366 0.097246 0.510684
O O12 0.954622 0.424277 0.250000
O O13 0.000000 0.421975 0.985777
O O14 0.938391 0.500000 0.000000
O O15 0.081894 0.838128 0.750000
O O16 0.119149 0.877565 0.484676
O O17 0.687131 0.214224 0.750000
O O18 0.154278 0.921264 0.750000
O O19 0.145249 0.000000 0.000000
#
# Coordination Sequence:
#
# PCOD9472279 Si02
#       7
#     8  16  16  16  16  16  16
#     4  12  26  42  56  78 111 148 185 224 271 322
#     4   9  17  32  57  84 106 136 180 221 262 322
#     4   9  17  31  49  73 103 134 170 213 260 307
#     4   9  18  33  54  79 104 135 173 210 257 318
#     4  10  20  37  60  82 106 140 181 227 273 320
#     4   9  16  30  52  76 102 132 170 214 258 308
#     4  10  20  34  53  77 106 140 180 224 267 313
#
# _framework density 19.396616999999999
#
# number of rings (size 3 to 8) (size 9 to 14) (size 15 to 20)
#    0.000    2.462    1.538    1.154    1.077    2.462 
#    0.000    3.077    0.000    3.692    0.000    0.000 
#    0.000    0.000    0.000    0.000    0.000    0.000 
#
# Total GULP energy -290031.202184 kJ/mol
# GULP energy per Si atom -5577.523119 kJ/mol
# Density = 1.935247 g / cm^3
# Si number density = 19.396617 Si / 1000 Ang^3
#
#
#
# Elastic Constant Matrix: (Units=GPa)
#
#
# Indices 1 2 3 4 5 6 
#
# 1 124.6925 87.6908 3.3681 0.0000 0.0000 0.0000
# 2 87.6908 162.7787 6.5180 0.0000 0.0000 0.0000
# 3 3.3681 6.5180 10.9070 0.0000 0.0000 0.0000
# 4 0.0000 0.0000 0.0000 21.8336 0.0000 0.0000
# 5 0.0000 0.0000 0.0000 0.0000 18.4630 0.0000
# 6 0.0000 0.0000 0.0000 0.0000 0.0000 1235.3325
#
#
#
# Elastic Compliance Matrix: (Units=1/GPa)
#
#
# Indices 1 2 3 4 5 6 
#
# 1 0.012911 -0.006963 0.000174 0.000000 0.000000 0.000000
# 2 -0.006963 0.010048 -0.003855 0.000000 0.000000 0.000000
# 3 0.000174 -0.003855 0.093934 0.000000 0.000000 0.000000
# 4 0.000000 0.000000 0.000000 0.045801 0.000000 0.000000
# 5 0.000000 0.000000 0.000000 0.000000 0.054162 0.000000
# 6 0.000000 0.000000 0.000000 0.000000 0.000000 0.000809
#
#
# Mechanical properties :
#
#
# Convention : Reuss Voigt Hill
#
# Bulk Modulus (GPa) = 10.45949 54.83690 32.64819
# Shear Modulus (GPa) = 18.46219 268.51257 143.48738
#
# Velocity S-wave (km/s) = 3.08851 11.77851 8.61023
# Velocity P-wave (km/s) = 4.25708 14.60515 10.75716
#
# Compressibility (1/GPa) = 0.09560691
#
# Stress axis : x y z
#
# Youngs Moduli (GPa) = 77.45047 99.51769 10.64572
#
# Poissons Ratio (x) = 0.69289 -0.00185
# Poissons Ratio (y) = 0.53925 0.04104
# Poissons Ratio (z) = -0.01346 0.38364
#
# Static dielectric constant tensor:
#      x y z
#    x 1.783990 0.000000 0.000000 
#    y 0.000000 1.625200 0.000000 
#    z 0.000000 0.000000 1.706990 
# 
# From -- ./inp_files/14507.got.cif
#   From: 2010.05.17/outbox.cif.g08.bks.cpg/sg63_8_cif.got.tgz:14507.got - 2010.06.03 15:47:04.
