data_PCOD9472684
_publ_section_title
;
Structure prediction by ZEFSAII (Michael W. Deem and Ramdas Pophale) SiO2 
 PCOD9472684
Probable space group: C M C M
;
_chemical_formula_sum "Si O2"
_cell_formula_units_Z 96
_cell_length_a 19.332048
_cell_length_b 30.325327
_cell_length_c 8.144837
_cell_angle_alpha 90.000000
_cell_angle_beta 90.000000
_cell_angle_gamma 90.000000
_cell_volume 4774.916207
_symmetry_space_group_name_H-M "C M C M"
_symmetry_group_IT_number 63
_symmetry_cell_setting 'orthorhombic'
loop_
_space_group_symop_operation_xyz
x,y,z
-x,-y,1/2+z
x,-y,-z
-x,y,1/2-z
-x,-y,-z
x,y,1/2-z
-x,y,z
x,-y,1/2+z
1/2+x,1/2+y,z
1/2-x,1/2-y,1/2+z
1/2+x,1/2-y,-z
1/2-x,1/2+y,1/2-z
1/2-x,1/2-y,-z
1/2+x,1/2+y,1/2-z
1/2-x,1/2+y,z
1/2+x,1/2-y,1/2+z
loop_
_atom_site_type_symbol
_atom_site_label
_atom_site_fract_x
_atom_site_fract_y
_atom_site_fract_z
Si Si1 0.920252 0.950149 0.551644
Si Si2 0.723339 0.797661 0.947422
Si Si3 0.077365 0.433697 0.559427
Si Si4 0.422821 0.165894 0.554794
Si Si5 0.281114 0.046573 0.564594
Si Si6 0.191066 0.119649 0.438874
O O1 0.916712 0.949367 0.750000
O O2 0.871360 0.910297 0.489713
O O3 0.000000 0.943438 0.500934
O O4 0.900779 0.000000 0.500000
O O5 0.722026 0.801036 0.750000
O O6 0.777147 0.835375 0.010847
O O7 0.750000 0.750000 0.000000
O O8 0.645294 0.806704 0.009015
O O9 0.089783 0.444792 0.750000
O O10 0.081036 0.380782 0.537676
O O11 0.136443 0.453334 0.446773
O O12 0.000000 0.447026 0.512768
O O13 0.420081 0.157041 0.750000
O O14 0.500000 0.185083 0.519800
O O15 0.258492 0.054801 0.750000
O O16 0.254328 0.085313 0.449254
O O17 0.255306 0.000000 0.500000
O O18 0.172312 0.129188 0.250000
#
# Coordination Sequence:
#
# PCOD9472684 Si02
#       6
#    16  16  16  16  16  16
#     4   9  18  34  57  85 116 150 189 232 284 350
#     4  11  23  39  61  87 119 155 197 248 303 359
#     4  10  20  35  55  79 110 148 189 233 281 331
#     4  10  20  36  60  88 116 150 194 239 289 350
#     4  12  24  36  54  79 112 151 192 237 284 339
#     4  10  21  38  58  82 113 150 192 238 291 350
#
# _framework density 20.105066000000001
#
# number of rings (size 3 to 8) (size 9 to 14) (size 15 to 20)
#    0.000    1.667    1.667    3.500    0.000    5.000 
#    0.000    0.833    0.000    3.000    0.000    0.000 
#    0.000    0.000    0.000    0.000    0.000    0.000 
#
# Total GULP energy -267898.951415 kJ/mol
# GULP energy per Si atom -5581.228154 kJ/mol
# Density = 2.005931 g / cm^3
# Si number density = 20.105066 Si / 1000 Ang^3
#
#
#
# Elastic Constant Matrix: (Units=GPa)
#
#
# Indices 1 2 3 4 5 6 
#
# 1 149.7845 64.8475 20.4825 0.0000 0.0000 0.0000
# 2 64.8475 137.7076 1.5284 0.0000 0.0000 0.0000
# 3 20.4825 1.5284 41.0760 0.0000 0.0000 0.0000
# 4 0.0000 0.0000 0.0000 23.4017 0.0000 0.0000
# 5 0.0000 0.0000 0.0000 0.0000 20.3942 0.0000
# 6 0.0000 0.0000 0.0000 0.0000 0.0000 53.9268
#
#
#
# Elastic Compliance Matrix: (Units=1/GPa)
#
#
# Indices 1 2 3 4 5 6 
#
# 1 0.009113 -0.004243 -0.004386 0.000000 0.000000 0.000000
# 2 -0.004243 0.009240 0.001772 0.000000 0.000000 0.000000
# 3 -0.004386 0.001772 0.026466 0.000000 0.000000 0.000000
# 4 0.000000 0.000000 0.000000 0.042732 0.000000 0.000000
# 5 0.000000 0.000000 0.000000 0.000000 0.049034 0.000000
# 6 0.000000 0.000000 0.000000 0.000000 0.000000 0.018544
#
#
# Mechanical properties :
#
#
# Convention : Reuss Voigt Hill
#
# Bulk Modulus (GPa) = 32.14917 55.80943 43.97930
# Shear Modulus (GPa) = 27.90010 35.65853 31.77931
#
# Velocity S-wave (km/s) = 3.72925 4.21599 3.98007
# Velocity P-wave (km/s) = 5.87948 7.17765 6.56075
#
# Compressibility (1/GPa) = 0.03110501
#
# Stress axis : x y z
#
# Youngs Moduli (GPa) = 109.73504 108.22525 37.78379
#
# Poissons Ratio (x) = 0.45916 0.16573
# Poissons Ratio (y) = 0.46557 -0.06694
# Poissons Ratio (z) = 0.48133 -0.19175
#
# Static dielectric constant tensor:
#      x y z
#    x 1.756690 0.000000 0.000000 
#    y 0.000000 1.686280 0.000000 
#    z 0.000000 0.000000 1.707640 
# 
# From -- ./inp_files/8622.got.cif
#   From: 2010.05.17/outbox.cif.g08.bks.cpg/sg63_5_cif.got.tgz:8622.got - 2010.06.03 15:47:04.
