data_PCOD9472843
_publ_section_title
;
Structure prediction by ZEFSAII (Michael W. Deem and Ramdas Pophale) SiO2 
 PCOD9472843
Probable space group: C M C M
;
_chemical_formula_sum "Si O2"
_cell_formula_units_Z 88
_cell_length_a 10.208816
_cell_length_b 19.893281
_cell_length_c 21.493462
_cell_angle_alpha 90.000000
_cell_angle_beta 90.000000
_cell_angle_gamma 90.000000
_cell_volume 4365.039394
_symmetry_space_group_name_H-M "C M C M"
_symmetry_group_IT_number 63
_symmetry_cell_setting 'orthorhombic'
loop_
_space_group_symop_operation_xyz
x,y,z
-x,-y,1/2+z
x,-y,-z
-x,y,1/2-z
-x,-y,-z
x,y,1/2-z
-x,y,z
x,-y,1/2+z
1/2+x,1/2+y,z
1/2-x,1/2-y,1/2+z
1/2+x,1/2-y,-z
1/2-x,1/2+y,1/2-z
1/2-x,1/2-y,-z
1/2+x,1/2+y,1/2-z
1/2-x,1/2+y,z
1/2+x,1/2-y,1/2+z
loop_
_atom_site_type_symbol
_atom_site_label
_atom_site_fract_x
_atom_site_fract_y
_atom_site_fract_z
Si Si1 0.500000 0.618304 0.912573
Si Si2 0.287979 0.961519 0.916608
Si Si3 0.710600 0.845629 0.679217
Si Si4 0.500000 0.328993 0.850413
Si Si5 0.500000 0.221001 0.543224
Si Si6 0.000000 0.025933 0.103738
Si Si7 0.000000 0.262904 0.605582
Si Si8 0.204034 0.605915 0.543354
O O1 0.500000 0.549964 0.872220
O O2 0.500000 0.685890 0.873868
O O3 0.639214 0.618033 0.949552
O O4 0.298120 0.919235 0.853560
O O5 0.133753 0.966760 0.933061
O O6 0.332285 0.038983 0.916528
O O7 0.339448 0.917633 0.974086
O O8 0.663936 0.848002 0.750000
O O9 0.624265 0.799689 0.634548
O O10 0.858419 0.816442 0.678706
O O11 0.500000 0.289097 0.916167
O O12 0.500000 0.410322 0.852226
O O13 0.500000 0.236067 0.469515
O O14 0.625169 0.173545 0.558349
#
# Coordination Sequence:
#
# PCOD9472843 Si02
#       8
#     8  16  16   8   8   8   8  16
#     4  10  21  35  59  84 122 157 190 246 309 366
#     4   9  18  34  58  87 119 157 198 244 301 353
#     4  11  23  42  63  86 121 163 210 249 291 369
#     4  10  23  40  65  89 117 153 207 254 305 358
#     4  12  24  36  56  92 132 157 190 253 311 373
#     4   8  17  35  55  85 116 145 193 247 294 355
#     4  12  25  37  57  91 125 161 202 243 312 368
#     4  10  20  35  57  88 128 154 190 252 307 363
#
# _framework density 20.160184999999998
#
# number of rings (size 3 to 8) (size 9 to 14) (size 15 to 20)
#    0.000    1.818    1.818    2.182    5.091    5.818 
#    0.000    0.000    0.000   28.364    0.000    0.000 
#    0.000    0.000    0.000    0.000    0.000    0.000 
#
# Total GULP energy -245099.190426 kJ/mol
# GULP energy per Si atom -5570.436146 kJ/mol
# Density = 2.011430 g / cm^3
# Si number density = 20.160185 Si / 1000 Ang^3
#
#
#
# Elastic Constant Matrix: (Units=GPa)
#
#
# Indices 1 2 3 4 5 6 
#
# 1 100.8395 29.2558 13.1410 0.0000 0.0000 0.0000
# 2 29.2558 122.6329 39.8039 0.0000 0.0000 0.0000
# 3 13.1410 39.8039 97.2062 0.0000 0.0000 0.0000
# 4 0.0000 0.0000 0.0000 17.9321 0.0000 0.0000
# 5 0.0000 0.0000 0.0000 0.0000 -5.3187 0.0000
# 6 0.0000 0.0000 0.0000 0.0000 0.0000 26.0118
#
#
#
# Elastic Compliance Matrix: (Units=1/GPa)
#
#
# Indices 1 2 3 4 5 6 
#
# 1 0.010672 -0.002396 -0.000462 0.000000 0.000000 0.000000
# 2 -0.002396 0.009942 -0.003747 0.000000 0.000000 0.000000
# 3 -0.000462 -0.003747 0.011884 0.000000 0.000000 0.000000
# 4 0.000000 0.000000 0.000000 0.055766 0.000000 0.000000
# 5 0.000000 0.000000 0.000000 0.000000 -0.188017 0.000000
# 6 0.000000 0.000000 0.000000 0.000000 0.000000 0.038444
#
#
# Mechanical properties :
#
#
# Convention : Reuss Voigt Hill
#
# Bulk Modulus (GPa) = 51.84378 53.89778 52.87078
# Shear Modulus (GPa) = -119.99364 23.62356 -48.18504
#
# Velocity S-wave (km/s) = -7.72330 3.42686 -4.89418
# Velocity P-wave (km/s) = 7.33217 6.51541 2.37803
#
# Compressibility (1/GPa) = 0.01928872
#
# Stress axis : x y z
#
# Youngs Moduli (GPa) = 93.70244 100.58005 84.14518
#
# Poissons Ratio (x) = 0.24101 0.03884
# Poissons Ratio (y) = 0.22453 0.31531
# Poissons Ratio (z) = 0.04325 0.37690
#
# Static dielectric constant tensor:
#      x y z
#    x 1.794010 0.000000 0.000000 
#    y 0.000000 1.766320 0.000000 
#    z 0.000000 0.000000 1.679960 
# 
# From -- ./inp_files/52617.got.cif
#   From: 2010.05.17/outbox.cif.g08.bks.cpg/sg63_27_cif.got.tgz:52617.got - 2010.06.03 15:47:04.
