data_PCOD9472119
_publ_section_title
;
Structure prediction by ZEFSAII (Michael W. Deem and Ramdas Pophale) SiO2 
 PCOD9472119
Probable space group: C M C M
;
_chemical_formula_sum "Si O2"
_cell_formula_units_Z 128
_cell_length_a 18.402270
_cell_length_b 21.998202
_cell_length_c 17.744504
_cell_angle_alpha 90.000000
_cell_angle_beta 90.000000
_cell_angle_gamma 90.000000
_cell_volume 7183.274262
_symmetry_space_group_name_H-M "C M C M"
_symmetry_group_IT_number 63
_symmetry_cell_setting 'orthorhombic'
loop_
_space_group_symop_operation_xyz
x,y,z
-x,-y,1/2+z
x,-y,-z
-x,y,1/2-z
-x,-y,-z
x,y,1/2-z
-x,y,z
x,-y,1/2+z
1/2+x,1/2+y,z
1/2-x,1/2-y,1/2+z
1/2+x,1/2-y,-z
1/2-x,1/2+y,1/2-z
1/2-x,1/2-y,-z
1/2+x,1/2+y,1/2-z
1/2-x,1/2+y,z
1/2+x,1/2-y,1/2+z
loop_
_atom_site_type_symbol
_atom_site_label
_atom_site_fract_x
_atom_site_fract_y
_atom_site_fract_z
Si Si1 0.412905 0.245886 0.504486
Si Si2 0.913820 0.569320 0.608001
Si Si3 0.918559 0.952435 0.569518
Si Si4 0.587785 0.202458 0.667606
Si Si5 0.664646 0.124164 0.471907
Si Si6 0.827584 0.959102 0.162384
Si Si7 0.319701 0.035370 0.164013
Si Si8 0.174135 0.863363 0.472182
O O1 0.500000 0.253709 0.499997
O O2 0.390790 0.239728 0.593264
O O3 0.388478 0.181861 0.468979
O O4 0.369327 0.300703 0.467227
O O5 0.894332 0.631478 0.652804
O O6 0.872315 0.576265 0.529022
O O7 0.887090 0.509736 0.650208
O O8 0.000000 0.569332 0.596483
O O9 0.864251 0.900997 0.539963
O O10 0.000000 0.928885 0.582619
O O11 0.921358 0.000000 0.500000
O O12 0.887881 0.991101 0.638940
O O13 0.615407 0.221595 0.750000
O O14 0.500000 0.205582 0.669343
O O15 0.677587 0.090580 0.393700
O O16 0.741613 0.144349 0.507076
O O17 0.833153 0.941632 0.250000
O O18 0.832147 0.903421 0.103844
O O19 0.751014 0.993348 0.149717
O O20 0.317189 0.056018 0.250000
#
# Coordination Sequence:
#
# PCOD9472119 Si02
#       8
#    16  16  16  16  16  16  16  16
#     4  10  22  38  57  84 115 152 203 249 281 339
#     4  10  20  33  56  86 114 149 196 243 290 348
#     4   9  18  33  57  84 110 144 186 234 288 343
#     4   8  15  31  52  77 112 147 182 236 295 332
#     4  11  21  37  59  81 114 157 195 237 291 351
#     4  10  21  37  58  87 120 150 188 242 298 348
#     4  11  22  36  56  84 121 157 189 234 292 352
#     4  11  20  37  61  83 112 154 199 240 290 349
#
# _framework density 17.819171999999998
#
# number of rings (size 3 to 8) (size 9 to 14) (size 15 to 20)
#    0.000    2.000    2.500    2.625    0.000    3.000 
#    0.000    1.875    0.000    2.250    0.000    0.000 
#    0.000    0.000    0.000    0.000    0.000    0.000 
#
# Total GULP energy -357035.835808 kJ/mol
# GULP energy per Si atom -5578.684934 kJ/mol
# Density = 1.777861 g / cm^3
# Si number density = 17.819172 Si / 1000 Ang^3
#
#
#
# Elastic Constant Matrix: (Units=GPa)
#
#
# Indices 1 2 3 4 5 6 
#
# 1 88.0657 13.2664 27.1445 0.0000 0.0000 0.0000
# 2 13.2664 50.9304 48.7102 0.0000 0.0000 0.0000
# 3 27.1445 48.7102 120.6956 0.0000 0.0000 0.0000
# 4 0.0000 0.0000 0.0000 17.9048 0.0000 0.0000
# 5 0.0000 0.0000 0.0000 0.0000 18.1159 0.0000
# 6 0.0000 0.0000 0.0000 0.0000 0.0000 26.1988
#
#
#
# Elastic Compliance Matrix: (Units=1/GPa)
#
#
# Indices 1 2 3 4 5 6 
#
# 1 0.012226 -0.000904 -0.002385 0.000000 0.000000 0.000000
# 2 -0.000904 0.032044 -0.012729 0.000000 0.000000 0.000000
# 3 -0.002385 -0.012729 0.013959 0.000000 0.000000 0.000000
# 4 0.000000 0.000000 0.000000 0.055851 0.000000 0.000000
# 5 0.000000 0.000000 0.000000 0.000000 0.055200 0.000000
# 6 0.000000 0.000000 0.000000 0.000000 0.000000 0.038170
#
#
# Mechanical properties :
#
#
# Convention : Reuss Voigt Hill
#
# Bulk Modulus (GPa) = 38.17686 48.65931 43.41808
# Shear Modulus (GPa) = 20.14364 23.81528 21.97946
#
# Velocity S-wave (km/s) = 3.36586 3.65978 3.51589
# Velocity P-wave (km/s) = 6.04785 6.72497 6.39538
#
# Compressibility (1/GPa) = 0.02619388
#
# Stress axis : x y z
#
# Youngs Moduli (GPa) = 81.79002 31.20680 71.63885
#
# Poissons Ratio (x) = 0.02820 0.17086
# Poissons Ratio (y) = 0.07392 0.91190
# Poissons Ratio (z) = 0.19507 0.39724
#
# Static dielectric constant tensor:
#      x y z
#    x 1.622430 0.000000 0.000000 
#    y 0.000000 1.602740 0.000000 
#    z 0.000000 0.000000 1.619340 
# 
# From -- ./inp_files/46295.got.cif
#   From: 2010.05.17/outbox.cif.g08.bks.cpg/sg63_24_cif.got.tgz:46295.got - 2010.06.03 15:47:04.
