data_PCOD9472110
_publ_section_title
;
Structure prediction by ZEFSAII (Michael W. Deem and Ramdas Pophale) SiO2 
 PCOD9472110
Probable space group: C M C M
;
_chemical_formula_sum "Si O2"
_cell_formula_units_Z 112
_cell_length_a 20.196694
_cell_length_b 12.258818
_cell_length_c 25.831525
_cell_angle_alpha 90.000000
_cell_angle_beta 90.000000
_cell_angle_gamma 90.000000
_cell_volume 6395.565174
_symmetry_space_group_name_H-M "C M C M"
_symmetry_group_IT_number 63
_symmetry_cell_setting 'orthorhombic'
loop_
_space_group_symop_operation_xyz
x,y,z
-x,-y,1/2+z
x,-y,-z
-x,y,1/2-z
-x,-y,-z
x,y,1/2-z
-x,y,z
x,-y,1/2+z
1/2+x,1/2+y,z
1/2-x,1/2-y,1/2+z
1/2+x,1/2-y,-z
1/2-x,1/2+y,1/2-z
1/2-x,1/2-y,-z
1/2+x,1/2+y,1/2-z
1/2-x,1/2+y,z
1/2+x,1/2-y,1/2+z
loop_
_atom_site_type_symbol
_atom_site_label
_atom_site_fract_x
_atom_site_fract_y
_atom_site_fract_z
Si Si1 0.574063 0.880508 0.476329
Si Si2 0.868430 0.422892 0.362574
Si Si3 0.421873 0.860876 0.691231
Si Si4 0.801392 0.772279 0.809719
Si Si5 0.274883 0.527234 0.387081
Si Si6 0.207965 0.675648 0.462743
Si Si7 0.172626 0.193805 0.640397
O O1 0.500000 0.828052 0.480082
O O2 0.597227 0.890434 0.416679
O O3 0.637270 0.839820 0.509327
O O4 0.566294 0.000000 0.500000
O O5 0.905748 0.524162 0.336283
O O6 0.856589 0.314601 0.328508
O O7 0.795231 0.472127 0.372124
O O8 0.395710 0.866449 0.750000
O O9 0.500000 0.847904 0.692278
O O10 0.390184 0.756991 0.662758
O O11 0.810440 0.803277 0.750000
O O12 0.796137 0.875922 0.848131
O O13 0.730888 0.711136 0.817522
O O14 0.254666 0.575104 0.443574
O O15 0.327938 0.430610 0.379117
O O16 0.250000 0.750000 0.500000
O O17 0.194134 0.737462 0.409519
#
# Coordination Sequence:
#
# PCOD9472110 Si02
#       7
#    16  16  16  16  16  16  16
#     4  11  21  34  56  83 115 152 190 234 292 357
#     4  11  20  36  54  82 119 148 190 242 293 352
#     4  11  22  37  58  83 114 153 197 244 296 353
#     4  10  20  33  55  84 113 150 189 238 298 353
#     4  10  20  35  54  83 117 150 186 236 289 354
#     4  11  21  35  56  85 117 152 196 242 293 351
#     4  10  21  35  54  80 117 149 188 239 292 349
#
# _framework density 17.512135000000001
#
# number of rings (size 3 to 8) (size 9 to 14) (size 15 to 20)
#    0.000    1.429    4.286    3.857    0.000    4.571 
#    0.000    0.000    0.000    4.286    0.000    7.000 
#    0.000    0.000    0.000    0.000    0.000    0.000 
#
# Total GULP energy -311806.869205 kJ/mol
# GULP energy per Si atom -5567.979807 kJ/mol
# Density = 1.747228 g / cm^3
# Si number density = 17.512135 Si / 1000 Ang^3
#
#
#
# Elastic Constant Matrix: (Units=GPa)
#
#
# Indices 1 2 3 4 5 6 
#
# 1 68.7177 38.2482 40.6331 0.0000 0.0000 0.0000
# 2 38.2482 90.6534 38.7666 0.0000 0.0000 0.0000
# 3 40.6331 38.7666 115.6322 0.0000 0.0000 0.0000
# 4 0.0000 0.0000 0.0000 21.6223 0.0000 0.0000
# 5 0.0000 0.0000 0.0000 0.0000 31.9518 0.0000
# 6 0.0000 0.0000 0.0000 0.0000 0.0000 20.9637
#
#
#
# Elastic Compliance Matrix: (Units=1/GPa)
#
#
# Indices 1 2 3 4 5 6 
#
# 1 0.021445 -0.006800 -0.005256 0.000000 0.000000 0.000000
# 2 -0.006800 0.015034 -0.002650 0.000000 0.000000 0.000000
# 3 -0.005256 -0.002650 0.011384 0.000000 0.000000 0.000000
# 4 0.000000 0.000000 0.000000 0.046249 0.000000 0.000000
# 5 0.000000 0.000000 0.000000 0.000000 0.031297 0.000000
# 6 0.000000 0.000000 0.000000 0.000000 0.000000 0.047701
#
#
# Mechanical properties :
#
#
# Convention : Reuss Voigt Hill
#
# Bulk Modulus (GPa) = 54.20405 56.69989 55.45197
# Shear Modulus (GPa) = 23.96090 25.39792 24.67941
#
# Velocity S-wave (km/s) = 3.70299 3.81242 3.75810
# Velocity P-wave (km/s) = 7.02156 7.19911 7.11089
#
# Compressibility (1/GPa) = 0.01844881
#
# Stress axis : x y z
#
# Youngs Moduli (GPa) = 46.63027 66.51723 87.84539
#
# Poissons Ratio (x) = 0.45235 0.46171
# Poissons Ratio (y) = 0.31711 0.23283
# Poissons Ratio (z) = 0.24509 0.17630
#
# Static dielectric constant tensor:
#      x y z
#    x 1.628970 0.000000 0.000000 
#    y 0.000000 1.607830 0.000000 
#    z 0.000000 0.000000 1.592920 
# 
# From -- ./inp_files/64662.got.cif
#   From: 2010.05.17/outbox.cif.g08.bks.cpg/sg63_33_cif.got.tgz:64662.got - 2010.06.03 15:47:04.
