data_PCOD9472636
_publ_section_title
;
Structure prediction by ZEFSAII (Michael W. Deem and Ramdas Pophale) SiO2 
 PCOD9472636
Probable space group: C M C M
;
_chemical_formula_sum "Si O2"
_cell_formula_units_Z 112
_cell_length_a 29.639695
_cell_length_b 12.190611
_cell_length_c 13.991939
_cell_angle_alpha 90.000000
_cell_angle_beta 90.000000
_cell_angle_gamma 90.000000
_cell_volume 5055.651238
_symmetry_space_group_name_H-M "C M C M"
_symmetry_group_IT_number 63
_symmetry_cell_setting 'orthorhombic'
loop_
_space_group_symop_operation_xyz
x,y,z
-x,-y,1/2+z
x,-y,-z
-x,y,1/2-z
-x,-y,-z
x,y,1/2-z
-x,y,z
x,-y,1/2+z
1/2+x,1/2+y,z
1/2-x,1/2-y,1/2+z
1/2+x,1/2-y,-z
1/2-x,1/2+y,1/2-z
1/2-x,1/2-y,-z
1/2+x,1/2+y,1/2-z
1/2-x,1/2+y,z
1/2+x,1/2-y,1/2+z
loop_
_atom_site_type_symbol
_atom_site_label
_atom_site_fract_x
_atom_site_fract_y
_atom_site_fract_z
Si Si1 0.588767 0.594874 0.360830
Si Si2 0.391964 0.823374 0.646069
Si Si3 0.050273 0.521139 0.612706
Si Si4 0.547231 0.621876 0.635281
Si Si5 0.708032 0.679663 0.034812
Si Si6 0.314059 0.474714 0.359891
Si Si7 0.122975 0.310509 0.436424
O O1 0.580516 0.625794 0.250000
O O2 0.554734 0.502590 0.395269
O O3 0.636704 0.531295 0.363796
O O4 0.591677 0.702442 0.424412
O O5 0.368443 0.826600 0.750000
O O6 0.410972 0.702705 0.626309
O O7 0.369665 0.853729 0.544973
O O8 0.434733 0.904344 0.653074
O O9 0.047014 0.500000 0.500000
O O10 0.093865 0.601079 0.623268
O O11 0.000000 0.557664 0.643818
O O12 0.544179 0.613213 0.750000
O O13 0.500000 0.667650 0.597181
O O14 0.688289 0.622054 0.938021
O O15 0.750000 0.750000 0.000000
O O16 0.717540 0.575269 0.103420
O O17 0.672052 0.760207 0.087409
O O18 0.305198 0.442142 0.250000
#
# Coordination Sequence:
#
# PCOD9472636 Si02
#       7
#    16  16  16  16  16  16  16
#     4   9  18  34  56  78 109 148 186 230 285 342
#     4  10  20  35  54  79 111 153 194 235 287 343
#     4   9  19  36  54  75 108 152 195 237 286 341
#     4   9  17  29  48  77 110 143 184 232 276 326
#     4  10  21  38  61  87 117 154 191 241 305 358
#     4   9  19  38  60  85 114 151 194 232 286 364
#     4  10  21  37  57  82 112 146 189 239 287 348
#
# _framework density 22.153427000000001
#
# number of rings (size 3 to 8) (size 9 to 14) (size 15 to 20)
#    0.000    2.571    0.000    1.286    0.000    6.571 
#    7.714    0.714    0.000    0.000    0.000    0.000 
#    0.000    0.000    0.000    0.000    0.000    0.000 
#
# Total GULP energy -311737.079857 kJ/mol
# GULP energy per Si atom -5566.733569 kJ/mol
# Density = 2.210300 g / cm^3
# Si number density = 22.153427 Si / 1000 Ang^3
#
#
#
# Elastic Constant Matrix: (Units=GPa)
#
#
# Indices 1 2 3 4 5 6 
#
# 1 47.1725 21.6156 -16.2988 0.0000 0.0000 0.0000
# 2 21.6156 71.6418 1.1812 0.0000 0.0000 0.0000
# 3 -16.2988 1.1812 117.3362 0.0000 0.0000 0.0000
# 4 0.0000 0.0000 0.0000 75.1334 0.0000 0.0000
# 5 0.0000 0.0000 0.0000 0.0000 -17.9762 0.0000
# 6 0.0000 0.0000 0.0000 0.0000 0.0000 5.2996
#
#
#
# Elastic Compliance Matrix: (Units=1/GPa)
#
#
# Indices 1 2 3 4 5 6 
#
# 1 0.026119 -0.007942 0.003708 0.000000 0.000000 0.000000
# 2 -0.007942 0.016375 -0.001268 0.000000 0.000000 0.000000
# 3 0.003708 -0.001268 0.009050 0.000000 0.000000 0.000000
# 4 0.000000 0.000000 0.000000 0.013310 0.000000 0.000000
# 5 0.000000 0.000000 0.000000 0.000000 -0.055629 0.000000
# 6 0.000000 0.000000 0.000000 0.000000 0.000000 0.188695
#
#
# Mechanical properties :
#
#
# Convention : Reuss Voigt Hill
#
# Bulk Modulus (GPa) = 24.66610 27.68297 26.17453
# Shear Modulus (GPa) = 22.47822 27.80151 25.13987
#
# Velocity S-wave (km/s) = 3.18883 3.54637 3.37234
# Velocity P-wave (km/s) = 4.97158 5.41223 5.19657
#
# Compressibility (1/GPa) = 0.04054147
#
# Stress axis : x y z
#
# Youngs Moduli (GPa) = 38.28618 61.06718 110.49281
#
# Poissons Ratio (x) = 0.48498 -0.40972
# Poissons Ratio (y) = 0.30406 0.14011
# Poissons Ratio (z) = -0.14197 0.07743
#
# Static dielectric constant tensor:
#      x y z
#    x 1.834600 0.000000 0.000000 
#    y 0.000000 1.864540 0.000000 
#    z 0.000000 0.000000 1.917890 
# 
# From -- ./inp_files/38493.got.cif
#   From: 2010.05.17/outbox.cif.g08.bks.cpg/sg63_20_cif.got.tgz:38493.got - 2010.06.03 15:47:04.
