data_PCOD9472246
_publ_section_title
;
Structure prediction by ZEFSAII (Michael W. Deem and Ramdas Pophale) SiO2 
 PCOD9472246
Probable space group: C M C M
;
_chemical_formula_sum "Si O2"
_cell_formula_units_Z 80
_cell_length_a 7.496653
_cell_length_b 26.552301
_cell_length_c 18.959336
_cell_angle_alpha 90.000000
_cell_angle_beta 90.000000
_cell_angle_gamma 90.000000
_cell_volume 3773.920045
_symmetry_space_group_name_H-M "C M C M"
_symmetry_group_IT_number 63
_symmetry_cell_setting 'orthorhombic'
loop_
_space_group_symop_operation_xyz
x,y,z
-x,-y,1/2+z
x,-y,-z
-x,y,1/2-z
-x,-y,-z
x,y,1/2-z
-x,y,z
x,-y,1/2+z
1/2+x,1/2+y,z
1/2-x,1/2-y,1/2+z
1/2+x,1/2-y,-z
1/2-x,1/2+y,1/2-z
1/2-x,1/2-y,-z
1/2+x,1/2+y,1/2-z
1/2-x,1/2+y,z
1/2+x,1/2-y,1/2+z
loop_
_atom_site_type_symbol
_atom_site_label
_atom_site_fract_x
_atom_site_fract_y
_atom_site_fract_z
Si Si1 0.286211 0.748080 0.917100
Si Si2 0.782220 0.558156 0.420046
Si Si3 0.212161 0.847098 0.170495
Si Si4 0.214286 0.555022 0.581290
Si Si5 0.218311 0.654089 0.331254
O O1 0.500000 0.748143 0.909893
O O2 0.217079 0.697355 0.879734
O O3 0.221622 0.797713 0.876239
O O4 0.250000 0.750000 0.000000
O O5 0.724926 0.501541 0.400058
O O6 0.726126 0.566979 0.501241
O O7 0.723225 0.602597 0.368924
O O8 0.000000 0.558583 0.419356
O O9 0.284640 0.844938 0.250000
O O10 0.237337 0.901226 0.134842
O O11 0.000000 0.839243 0.175504
O O12 0.000000 0.553087 0.578802
O O13 0.273937 0.657249 0.250000
O O14 0.000000 0.654072 0.331674
#
# Coordination Sequence:
#
# PCOD9472246 Si02
#       5
#    16  16  16  16  16
#     4  10  20  34  53  74  95 123 160 200 241 287
#     4   8  15  28  47  73 102 126 155 203 251 282
#     4  10  21  35  49  70 103 136 163 196 241 292
#     4   9  17  31  51  74  99 128 164 203 240 281
#     4   9  16  27  46  71  96 123 157 196 238 284
#
# _framework density 21.198118000000001
#
# number of rings (size 3 to 8) (size 9 to 14) (size 15 to 20)
#    0.000    2.800    0.000    3.000    0.000    6.000 
#    0.000    4.000    0.000    3.000    0.000    0.000 
#    0.000    0.000    0.000    0.000    0.000    0.000 
#
# Total GULP energy -223354.855475 kJ/mol
# GULP energy per Si atom -5583.871387 kJ/mol
# Density = 2.114987 g / cm^3
# Si number density = 21.198118 Si / 1000 Ang^3
#
#
#
# Elastic Constant Matrix: (Units=GPa)
#
#
# Indices 1 2 3 4 5 6 
#
# 1 55.7282 4.8191 4.1109 0.0000 0.0000 0.0000
# 2 4.8191 193.1892 148.9473 0.0000 0.0000 0.0000
# 3 4.1109 148.9473 205.3283 0.0000 0.0000 0.0000
# 4 0.0000 0.0000 0.0000 -8.0931 0.0000 0.0000
# 5 0.0000 0.0000 0.0000 0.0000 16.6950 0.0000
# 6 0.0000 0.0000 0.0000 0.0000 0.0000 12.2472
#
#
#
# Elastic Compliance Matrix: (Units=1/GPa)
#
#
# Indices 1 2 3 4 5 6 
#
# 1 0.017984 -0.000388 -0.000079 0.000000 0.000000 0.000000
# 2 -0.000388 0.011754 -0.008518 0.000000 0.000000 0.000000
# 3 -0.000079 -0.008518 0.011051 0.000000 0.000000 0.000000
# 4 0.000000 0.000000 0.000000 -0.123562 0.000000 0.000000
# 5 0.000000 0.000000 0.000000 0.000000 0.059898 0.000000
# 6 0.000000 0.000000 0.000000 0.000000 0.000000 0.081652
#
#
# Mechanical properties :
#
#
# Convention : Reuss Voigt Hill
#
# Bulk Modulus (GPa) = 43.82442 85.55558 64.69000
# Shear Modulus (GPa) = 59.27544 23.92770 41.60157
#
# Velocity S-wave (km/s) = 5.29370 3.36336 4.43483
# Velocity P-wave (km/s) = 7.62122 7.45188 7.53703
#
# Compressibility (1/GPa) = 0.02281833
#
# Stress axis : x y z
#
# Youngs Moduli (GPa) = 55.60626 85.08062 90.48835
#
# Poissons Ratio (x) = 0.03301 0.00711
# Poissons Ratio (y) = 0.02158 0.77081
# Poissons Ratio (z) = 0.00437 0.72475
#
# Static dielectric constant tensor:
#      x y z
#    x 1.828280 0.000000 0.000000 
#    y 0.000000 1.735620 0.000000 
#    z 0.000000 0.000000 1.721060 
# 
# From -- ./inp_files/40505.got.cif
#   From: 2010.05.17/outbox.cif.g08.bks.cpg/sg63_21_cif.got.tgz:40505.got - 2010.06.03 15:47:04.
