data_PCOD9472644
_publ_section_title
;
Structure prediction by ZEFSAII (Michael W. Deem and Ramdas Pophale) SiO2 
 PCOD9472644
Probable space group: C M C M
;
_chemical_formula_sum "Si O2"
_cell_formula_units_Z 72
_cell_length_a 22.544510
_cell_length_b 20.140804
_cell_length_c 8.534094
_cell_angle_alpha 90.000000
_cell_angle_beta 90.000000
_cell_angle_gamma 90.000000
_cell_volume 3875.029613
_symmetry_space_group_name_H-M "C M C M"
_symmetry_group_IT_number 63
_symmetry_cell_setting 'orthorhombic'
loop_
_space_group_symop_operation_xyz
x,y,z
-x,-y,1/2+z
x,-y,-z
-x,y,1/2-z
-x,-y,-z
x,y,1/2-z
-x,y,z
x,-y,1/2+z
1/2+x,1/2+y,z
1/2-x,1/2-y,1/2+z
1/2+x,1/2-y,-z
1/2-x,1/2+y,1/2-z
1/2-x,1/2-y,-z
1/2+x,1/2+y,1/2-z
1/2-x,1/2+y,z
1/2+x,1/2-y,1/2+z
loop_
_atom_site_type_symbol
_atom_site_label
_atom_site_fract_x
_atom_site_fract_y
_atom_site_fract_z
Si Si1 0.353607 0.572207 0.060935
Si Si2 0.000000 0.574768 0.063071
Si Si3 0.431479 0.303339 0.941212
Si Si4 0.111107 0.658607 0.938122
Si Si5 0.783626 0.572694 0.062168
O O1 0.354939 0.570864 0.250000
O O2 0.395205 0.632136 0.006252
O O3 0.284914 0.583074 0.013484
O O4 0.372302 0.500000 0.000000
O O5 0.000000 0.573780 0.250000
O O6 0.000000 0.500000 0.000000
O O7 0.057793 0.613470 0.002363
O O8 0.431629 0.304050 0.750000
O O9 0.500000 0.304278 0.992054
O O10 0.400811 0.234383 0.988935
O O11 0.109532 0.656518 0.750000
O O12 0.172603 0.628174 0.996905
O O13 0.786472 0.572266 0.250000
O O14 0.802072 0.500000 0.000000
#
# Coordination Sequence:
#
# PCOD9472644 Si02
#       5
#    16   8  16  16  16
#     4   9  19  36  58  82 110 144 184 228 277 330
#     4  12  24  38  56  80 111 146 185 228 271 320
#     4   9  18  35  58  81 109 147 185 223 275 335
#     4  11  21  36  57  81 109 147 187 224 271 328
#     4  10  20  35  54  80 112 146 184 230 276 324
#
# _framework density 18.580501999999999
#
# number of rings (size 3 to 8) (size 9 to 14) (size 15 to 20)
#    0.000    2.000    1.111    3.000    0.000    2.222 
#    0.000    2.222    0.000    0.000    0.000    0.000 
#    0.000    0.000    0.000    0.000    0.000    0.000 
#
# Total GULP energy -201063.286029 kJ/mol
# GULP energy per Si atom -5585.091279 kJ/mol
# Density = 1.853821 g / cm^3
# Si number density = 18.580502 Si / 1000 Ang^3
#
#
#
# Elastic Constant Matrix: (Units=GPa)
#
#
# Indices 1 2 3 4 5 6 
#
# 1 103.9043 111.8349 23.0275 0.0000 0.0000 0.0000
# 2 111.8349 210.5973 34.3539 0.0000 0.0000 0.0000
# 3 23.0275 34.3539 43.6939 0.0000 0.0000 0.0000
# 4 0.0000 0.0000 0.0000 23.0047 0.0000 0.0000
# 5 0.0000 0.0000 0.0000 0.0000 4.0396 0.0000
# 6 0.0000 0.0000 0.0000 0.0000 0.0000 269.4533
#
#
#
# Elastic Compliance Matrix: (Units=1/GPa)
#
#
# Indices 1 2 3 4 5 6 
#
# 1 0.022771 -0.011626 -0.002860 0.000000 0.000000 0.000000
# 2 -0.011626 0.011383 -0.002822 0.000000 0.000000 0.000000
# 3 -0.002860 -0.002822 0.026613 0.000000 0.000000 0.000000
# 4 0.000000 0.000000 0.000000 0.043469 0.000000 0.000000
# 5 0.000000 0.000000 0.000000 0.000000 0.247550 0.000000
# 6 0.000000 0.000000 0.000000 0.000000 0.000000 0.003711
#
#
# Mechanical properties :
#
#
# Convention : Reuss Voigt Hill
#
# Bulk Modulus (GPa) = 38.24099 77.40311 57.82205
# Shear Modulus (GPa) = 12.53666 71.89815 42.21740
#
# Velocity S-wave (km/s) = 2.60036 6.22732 4.77186
# Velocity P-wave (km/s) = 5.44442 9.66720 7.84527
#
# Compressibility (1/GPa) = 0.02614995
#
# Stress axis : x y z
#
# Youngs Moduli (GPa) = 43.91494 87.85387 37.57570
#
# Poissons Ratio (x) = 1.02137 0.10747
# Poissons Ratio (y) = 0.51055 0.10605
# Poissons Ratio (z) = 0.12561 0.24796
#
# Static dielectric constant tensor:
#      x y z
#    x 1.629410 0.000000 0.000000 
#    y 0.000000 1.615710 0.000000 
#    z 0.000000 0.000000 1.632050 
# 
# From -- ./inp_files/7793.got.cif
#   From: 2010.05.17/outbox.cif.g08.bks.cpg/sg63_4_cif.got.tgz:7793.got - 2010.06.03 15:47:04.
