data_PCOD9472061
_publ_section_title
;
Structure prediction by ZEFSAII (Michael W. Deem and Ramdas Pophale) SiO2 
 PCOD9472061
Probable space group: C M C M
;
_chemical_formula_sum "Si O2"
_cell_formula_units_Z 80
_cell_length_a 13.299482
_cell_length_b 9.381302
_cell_length_c 24.446092
_cell_angle_alpha 90.000000
_cell_angle_beta 90.000000
_cell_angle_gamma 90.000000
_cell_volume 3050.052288
_symmetry_space_group_name_H-M "C M C M"
_symmetry_group_IT_number 63
_symmetry_cell_setting 'orthorhombic'
loop_
_space_group_symop_operation_xyz
x,y,z
-x,-y,1/2+z
x,-y,-z
-x,y,1/2-z
-x,-y,-z
x,y,1/2-z
-x,y,z
x,-y,1/2+z
1/2+x,1/2+y,z
1/2-x,1/2-y,1/2+z
1/2+x,1/2-y,-z
1/2-x,1/2+y,1/2-z
1/2-x,1/2-y,-z
1/2+x,1/2+y,1/2-z
1/2-x,1/2+y,z
1/2+x,1/2-y,1/2+z
loop_
_atom_site_type_symbol
_atom_site_label
_atom_site_fract_x
_atom_site_fract_y
_atom_site_fract_z
Si Si1 0.157748 0.383586 0.956075
Si Si2 0.613767 0.384845 0.183280
Si Si3 0.115779 0.821442 0.550176
Si Si4 0.744059 0.627831 0.312250
Si Si5 0.393499 0.932607 0.138914
O O1 0.277502 0.402290 0.944835
O O2 0.104481 0.431741 0.901551
O O3 0.126466 0.500000 0.000000
O O4 0.129277 0.239813 0.987630
O O5 0.613625 0.382536 0.250000
O O6 0.500000 0.353096 0.165547
O O7 0.645763 0.544862 0.165071
O O8 0.695046 0.264888 0.165583
O O9 0.126919 0.695830 0.596136
O O10 0.000000 0.875758 0.554196
O O11 0.719467 0.665001 0.250000
O O12 0.820013 0.493349 0.315354
O O13 0.500000 0.900307 0.164717
#
# Coordination Sequence:
#
# PCOD9472061 Si02
#       5
#    16  16  16  16  16
#     4   9  18  33  53  75 102 140 179 223 284 346
#     4   9  19  38  60  83 115 154 197 247 297 346
#     4   9  18  33  52  76 106 136 176 230 283 343
#     4  10  21  37  60  87 117 156 198 242 292 350
#     4  10  20  33  53  78 106 143 185 233 286 343
#
# _framework density 26.229057000000001
#
# number of rings (size 3 to 8) (size 9 to 14) (size 15 to 20)
#    0.000    2.600    0.000    1.200    2.800    4.000 
#    0.000    3.000    0.000    9.600    0.000    0.000 
#    0.000    0.000    0.000    0.000    0.000    0.000 
#
# Total GULP energy -222813.650597 kJ/mol
# GULP energy per Si atom -5570.341265 kJ/mol
# Density = 2.616936 g / cm^3
# Si number density = 26.229057 Si / 1000 Ang^3
#
#
#
# Elastic Constant Matrix: (Units=GPa)
#
#
# Indices 1 2 3 4 5 6 
#
# 1 152.6470 47.2089 7.5012 0.0000 0.0000 0.0000
# 2 47.2089 109.5097 16.8729 0.0000 0.0000 0.0000
# 3 7.5012 16.8729 34.1968 0.0000 0.0000 0.0000
# 4 0.0000 0.0000 0.0000 34.2866 0.0000 0.0000
# 5 0.0000 0.0000 0.0000 0.0000 26.0720 0.0000
# 6 0.0000 0.0000 0.0000 0.0000 0.0000 30.1257
#
#
#
# Elastic Compliance Matrix: (Units=1/GPa)
#
#
# Indices 1 2 3 4 5 6 
#
# 1 0.007559 -0.003250 -0.000054 0.000000 0.000000 0.000000
# 2 -0.003250 0.011280 -0.004853 0.000000 0.000000 0.000000
# 3 -0.000054 -0.004853 0.031649 0.000000 0.000000 0.000000
# 4 0.000000 0.000000 0.000000 0.029166 0.000000 0.000000
# 5 0.000000 0.000000 0.000000 0.000000 0.038355 0.000000
# 6 0.000000 0.000000 0.000000 0.000000 0.000000 0.033194
#
#
# Mechanical properties :
#
#
# Convention : Reuss Voigt Hill
#
# Bulk Modulus (GPa) = 29.26266 48.83551 39.04909
# Shear Modulus (GPa) = 27.94704 33.08158 30.51431
#
# Velocity S-wave (km/s) = 3.26774 3.55527 3.41453
# Velocity P-wave (km/s) = 5.04166 5.95924 5.51955
#
# Compressibility (1/GPa) = 0.03417324
#
# Stress axis : x y z
#
# Youngs Moduli (GPa) = 132.29390 88.64873 31.59667
#
# Poissons Ratio (x) = 0.28813 0.00172
# Poissons Ratio (y) = 0.42998 0.15334
# Poissons Ratio (z) = 0.00720 0.43020
#
# Static dielectric constant tensor:
#      x y z
#    x 2.152180 0.000000 0.000000 
#    y 0.000000 2.102810 0.000000 
#    z 0.000000 0.000000 2.096550 
# 
# From -- ./inp_files/72494.got.cif
#   From: 2010.05.17/outbox.cif.g08.bks.cpg/sg63_37_cif.got.tgz:72494.got - 2010.06.03 15:47:04.
