data_PCOD9472954
_publ_section_title
;
Structure prediction by ZEFSAII (Michael W. Deem and Ramdas Pophale) SiO2 
 PCOD9472954
Probable space group: C M C M
;
_chemical_formula_sum "Si O2"
_cell_formula_units_Z 84
_cell_length_a 11.008596
_cell_length_b 15.510136
_cell_length_c 21.336539
_cell_angle_alpha 90.000000
_cell_angle_beta 90.000000
_cell_angle_gamma 90.000000
_cell_volume 3643.103535
_symmetry_space_group_name_H-M "C M C M"
_symmetry_group_IT_number 63
_symmetry_cell_setting 'orthorhombic'
loop_
_space_group_symop_operation_xyz
x,y,z
-x,-y,1/2+z
x,-y,-z
-x,y,1/2-z
-x,-y,-z
x,y,1/2-z
-x,y,z
x,-y,1/2+z
1/2+x,1/2+y,z
1/2-x,1/2-y,1/2+z
1/2+x,1/2-y,-z
1/2-x,1/2+y,1/2-z
1/2-x,1/2-y,-z
1/2+x,1/2+y,1/2-z
1/2-x,1/2+y,z
1/2+x,1/2-y,1/2+z
loop_
_atom_site_type_symbol
_atom_site_label
_atom_site_fract_x
_atom_site_fract_y
_atom_site_fract_z
Si Si1 0.500000 0.907032 0.963877
Si Si2 0.000000 0.000000 0.000000
Si Si3 0.145461 0.279382 0.114647
Si Si4 0.147313 0.795796 0.750000
Si Si5 0.224616 0.114585 0.036675
Si Si6 0.862771 0.011259 0.250000
Si Si7 0.737773 0.041649 0.634803
Si Si8 0.500000 0.041369 0.319713
O O1 0.367207 0.870652 0.982250
O O2 0.500000 0.908608 0.886973
O O3 0.500000 0.000000 0.000000
O O4 0.109407 0.924587 0.001082
O O5 0.180923 0.249993 0.185332
O O6 0.180971 0.201752 0.069439
O O7 0.217333 0.367360 0.103143
O O8 0.000000 0.293807 0.112058
O O9 0.000000 0.793912 0.750000
O O10 0.199299 0.893800 0.750000
O O11 0.240416 0.037525 0.088347
O O12 0.839012 0.959114 0.312598
O O13 0.000000 0.036541 0.250000
O O14 0.616721 0.019337 0.673781
O O15 0.500000 0.082743 0.250000
#
# Coordination Sequence:
#
# PCOD9472954 Si02
#       8
#     8   4  16   8  16   8  16   8
#     4  10  22  44  68  95 141 191 218 280 364 415
#     4  12  24  44  78  98 126 176 240 306 336 416
#     4  11  21  39  68 101 131 175 235 285 339 425
#     4   9  19  32  59  96 128 175 223 279 340 408
#     4  11  24  43  70  99 133 178 233 286 353 418
#     4  11  21  35  57  92 138 182 220 276 349 409
#     4  11  22  38  64  94 139 177 218 284 358 411
#     4  10  20  35  63  99 126 172 230 274 334 421
#
# _framework density 23.057262999999999
#
# number of rings (size 3 to 8) (size 9 to 14) (size 15 to 20)
#    0.000    1.333    5.714    0.571    1.333    0.000 
#    1.714    0.952    8.381    0.000    0.000    0.000 
#    0.000    0.000    0.000    0.000    0.000    0.000 
#
# Total GULP energy -233812.918785 kJ/mol
# GULP energy per Si atom -5566.974257 kJ/mol
# Density = 2.300478 g / cm^3
# Si number density = 23.057263 Si / 1000 Ang^3
#
#
#
# Elastic Constant Matrix: (Units=GPa)
#
#
# Indices 1 2 3 4 5 6 
#
# 1 130.9869 29.1586 31.2629 0.0000 0.0000 0.0000
# 2 29.1586 141.2272 33.2143 0.0000 0.0000 0.0000
# 3 31.2629 33.2143 91.9424 0.0000 0.0000 0.0000
# 4 0.0000 0.0000 0.0000 -1.0801 0.0000 0.0000
# 5 0.0000 0.0000 0.0000 0.0000 26.0477 0.0000
# 6 0.0000 0.0000 0.0000 0.0000 0.0000 33.6672
#
#
#
# Elastic Compliance Matrix: (Units=1/GPa)
#
#
# Indices 1 2 3 4 5 6 
#
# 1 0.008483 -0.001173 -0.002461 0.000000 0.000000 0.000000
# 2 -0.001173 0.007900 -0.002455 0.000000 0.000000 0.000000
# 3 -0.002461 -0.002455 0.012600 0.000000 0.000000 0.000000
# 4 0.000000 0.000000 0.000000 -0.925809 0.000000 0.000000
# 5 0.000000 0.000000 0.000000 0.000000 0.038391 0.000000
# 6 0.000000 0.000000 0.000000 0.000000 0.000000 0.029702
#
#
# Mechanical properties :
#
#
# Convention : Reuss Voigt Hill
#
# Bulk Modulus (GPa) = 59.50333 61.26979 60.38656
# Shear Modulus (GPa) = -6.16558 29.76168 11.79805
#
# Velocity S-wave (km/s) = -1.63702 3.59663 2.26450
# Velocity P-wave (km/s) = 4.72119 6.62406 5.75186
#
# Compressibility (1/GPa) = 0.01680578
#
# Stress axis : x y z
#
# Youngs Moduli (GPa) = 117.88697 126.57683 79.36474
#
# Poissons Ratio (x) = 0.14843 0.19529
# Poissons Ratio (y) = 0.13824 0.19486
# Poissons Ratio (z) = 0.29009 0.31078
#
# Static dielectric constant tensor:
#      x y z
#    x 1.871520 0.000000 0.000000 
#    y 0.000000 1.839130 0.000000 
#    z 0.000000 0.000000 1.949090 
# 
# From -- ./inp_files/61341.got.cif
#   From: 2010.05.17/outbox.cif.g08.bks.cpg/sg63_31_cif.got.tgz:61341.got - 2010.06.03 15:47:04.
