data_PCOD9472615
_publ_section_title
;
Structure prediction by ZEFSAII (Michael W. Deem and Ramdas Pophale) SiO2 
 PCOD9472615
Probable space group: C M C M
;
_chemical_formula_sum "Si O2"
_cell_formula_units_Z 128
_cell_length_a 16.725499
_cell_length_b 23.135935
_cell_length_c 16.760519
_cell_angle_alpha 90.000000
_cell_angle_beta 90.000000
_cell_angle_gamma 90.000000
_cell_volume 6485.651399
_symmetry_space_group_name_H-M "C M C M"
_symmetry_group_IT_number 63
_symmetry_cell_setting 'orthorhombic'
loop_
_space_group_symop_operation_xyz
x,y,z
-x,-y,1/2+z
x,-y,-z
-x,y,1/2-z
-x,-y,-z
x,y,1/2-z
-x,y,z
x,-y,1/2+z
1/2+x,1/2+y,z
1/2-x,1/2-y,1/2+z
1/2+x,1/2-y,-z
1/2-x,1/2+y,1/2-z
1/2-x,1/2-y,-z
1/2+x,1/2+y,1/2-z
1/2-x,1/2+y,z
1/2+x,1/2-y,1/2+z
loop_
_atom_site_type_symbol
_atom_site_label
_atom_site_fract_x
_atom_site_fract_y
_atom_site_fract_z
Si Si1 0.380178 0.917076 0.657623
Si Si2 0.589809 0.954052 0.346912
Si Si3 0.907775 0.046455 0.158660
Si Si4 0.246994 0.248861 0.095332
Si Si5 0.278774 0.378676 0.592429
Si Si6 0.090595 0.091504 0.844923
Si Si7 0.914918 0.711051 0.346077
Si Si8 0.734270 0.874840 0.091453
O O1 0.404687 0.918052 0.750000
O O2 0.285363 0.909564 0.649249
O O3 0.411106 0.855719 0.624661
O O4 0.404698 0.979051 0.624116
O O5 0.595760 0.954247 0.250000
O O6 0.500000 0.932300 0.367542
O O7 0.666174 0.918896 0.379143
O O8 0.880349 0.057279 0.250000
O O9 0.857252 0.083294 0.097037
O O10 0.000000 0.062966 0.154036
O O11 0.903245 0.977895 0.144740
O O12 0.208198 0.187705 0.119243
O O13 0.338229 0.244455 0.124231
O O14 0.210950 0.310099 0.119948
O O15 0.250000 0.250000 0.000000
O O16 0.240582 0.377818 0.504478
O O17 0.091392 0.103864 0.750000
O O18 0.173937 0.115078 0.880023
O O19 0.000000 0.108542 0.873652
O O20 0.911073 0.709523 0.250000
O O21 0.000000 0.736700 0.369978
#
# Coordination Sequence:
#
# PCOD9472615 Si02
#       8
#    16  16  16  16  16  16  16  16
#     4   9  17  32  55  80 106 134 165 208 263 318
#     4  10  21  37  56  78 107 143 177 210 256 316
#     4   9  18  34  55  79 108 139 171 210 259 316
#     4   9  21  39  51  68 103 144 179 209 255 314
#     4  10  20  35  54  76 102 136 177 220 264 305
#     4   9  19  35  55  80 109 139 168 205 262 325
#     4   9  17  31  55  84 104 122 162 221 272 308
#     4  11  22  36  53  75 106 142 180 218 259 309
#
# _framework density 19.735873999999999
#
# number of rings (size 3 to 8) (size 9 to 14) (size 15 to 20)
#    0.000    2.500    0.000    2.625    0.000    8.000 
#    0.000   11.875    0.000    1.500    0.000    0.000 
#    0.000    0.000    0.000    0.000    0.000    0.000 
#
# Total GULP energy -356578.188034 kJ/mol
# GULP energy per Si atom -5571.534188 kJ/mol
# Density = 1.969095 g / cm^3
# Si number density = 19.735874 Si / 1000 Ang^3
#
#
#
# Elastic Constant Matrix: (Units=GPa)
#
#
# Indices 1 2 3 4 5 6 
#
# 1 77.2863 34.1704 24.5312 0.0000 0.0000 0.0000
# 2 34.1704 74.7491 19.9862 0.0000 0.0000 0.0000
# 3 24.5312 19.9862 26.1589 0.0000 0.0000 0.0000
# 4 0.0000 0.0000 0.0000 17.0836 0.0000 0.0000
# 5 0.0000 0.0000 0.0000 0.0000 4.1485 0.0000
# 6 0.0000 0.0000 0.0000 0.0000 0.0000 2.6860
#
#
#
# Elastic Compliance Matrix: (Units=1/GPa)
#
#
# Indices 1 2 3 4 5 6 
#
# 1 0.019889 -0.005159 -0.014710 0.000000 0.000000 0.000000
# 2 -0.005159 0.018151 -0.009030 0.000000 0.000000 0.000000
# 3 -0.014710 -0.009030 0.058921 0.000000 0.000000 0.000000
# 4 0.000000 0.000000 0.000000 0.058536 0.000000 0.000000
# 5 0.000000 0.000000 0.000000 0.000000 0.241049 0.000000
# 6 0.000000 0.000000 0.000000 0.000000 0.000000 0.372300
#
#
# Mechanical properties :
#
#
# Convention : Reuss Voigt Hill
#
# Bulk Modulus (GPa) = 25.53363 37.28553 31.40958
# Shear Modulus (GPa) = 5.95453 11.41742 8.68597
#
# Velocity S-wave (km/s) = 1.73887 2.40783 2.10016
# Velocity P-wave (km/s) = 4.12278 5.16367 4.67230
#
# Compressibility (1/GPa) = 0.03916404
#
# Stress axis : x y z
#
# Youngs Moduli (GPa) = 50.27996 55.09426 16.97182
#
# Poissons Ratio (x) = 0.28422 0.24965
# Poissons Ratio (y) = 0.25938 0.15325
# Poissons Ratio (z) = 0.73960 0.49750
#
# Static dielectric constant tensor:
#      x y z
#    x 1.817470 0.000000 0.000000 
#    y 0.000000 1.724390 0.000000 
#    z 0.000000 0.000000 1.704870 
# 
# From -- ./inp_files/46311.got.cif
#   From: 2010.05.17/outbox.cif.g08.bks.cpg/sg63_24_cif.got.tgz:46311.got - 2010.06.03 15:47:04.
