data_PCOD9472243
_publ_section_title
;
Structure prediction by ZEFSAII (Michael W. Deem and Ramdas Pophale) SiO2 
 PCOD9472243
Probable space group: C M C M
;
_chemical_formula_sum "Si O2"
_cell_formula_units_Z 116
_cell_length_a 8.996368
_cell_length_b 24.009021
_cell_length_c 25.837099
_cell_angle_alpha 90.000000
_cell_angle_beta 90.000000
_cell_angle_gamma 90.000000
_cell_volume 5580.658057
_symmetry_space_group_name_H-M "C M C M"
_symmetry_group_IT_number 63
_symmetry_cell_setting 'orthorhombic'
loop_
_space_group_symop_operation_xyz
x,y,z
-x,-y,1/2+z
x,-y,-z
-x,y,1/2-z
-x,-y,-z
x,y,1/2-z
-x,y,z
x,-y,1/2+z
1/2+x,1/2+y,z
1/2-x,1/2-y,1/2+z
1/2+x,1/2-y,-z
1/2-x,1/2+y,1/2-z
1/2-x,1/2-y,-z
1/2+x,1/2+y,1/2-z
1/2-x,1/2+y,z
1/2+x,1/2-y,1/2+z
loop_
_atom_site_type_symbol
_atom_site_label
_atom_site_fract_x
_atom_site_fract_y
_atom_site_fract_z
Si Si1 0.820992 0.858684 0.972387
Si Si2 0.674319 0.958508 0.808177
Si Si3 0.500000 0.341350 0.250000
Si Si4 0.175601 0.027203 0.414068
Si Si5 0.837686 0.847649 0.141886
Si Si6 0.825097 0.416659 0.066891
Si Si7 0.827048 0.240801 0.400676
Si Si8 0.166013 0.845134 0.693152
O O1 0.779297 0.799058 0.948011
O O2 0.000000 0.858646 0.977952
O O3 0.784261 0.910808 0.934097
O O4 0.740593 0.873354 0.025420
O O5 0.712837 0.978241 0.750000
O O6 0.500000 0.968560 0.817394
O O7 0.773431 0.980100 0.854819
O O8 0.710326 0.892467 0.808944
O O9 0.372154 0.341764 0.202910
O O10 0.254781 0.976934 0.443482
O O11 0.000000 0.021306 0.419355
O O12 0.725266 0.894977 0.123266
O O13 0.776787 0.791223 0.116138
O O14 0.000000 0.862098 0.118731
O O15 0.000000 0.419553 0.062857
O O16 0.824536 0.198839 0.351932
O O17 0.000000 0.258655 0.408423
O O18 0.174416 0.818346 0.750000
O O19 0.000000 0.871954 0.688993
#
# Coordination Sequence:
#
# PCOD9472243 Si02
#       8
#    16  16   4  16  16  16  16  16
#     4  10  22  41  66  97 132 174 220 263 323 396
#     4  10  20  34  52  84 125 164 208 263 324 384
#     4   8  24  48  74  96 130 164 232 264 322 394
#     4  11  22  41  66  92 126 172 223 273 330 396
#     4  10  23  45  68  95 127 165 220 263 324 387
#     4  12  26  44  66  94 128 171 222 276 330 383
#     4  10  20  37  63  97 133 169 213 267 323 388
#     4   9  17  30  52  81 119 164 205 249 311 385
#
# _framework density 20.786079999999998
#
# number of rings (size 3 to 8) (size 9 to 14) (size 15 to 20)
#    0.414    1.379    1.379    2.897    0.966    5.241 
#    1.241    1.034    0.000    0.000    0.000    0.000 
#    0.000    0.000    0.000    0.000    0.000    0.000 
#
# Total GULP energy -323162.966715 kJ/mol
# GULP energy per Si atom -5571.775288 kJ/mol
# Density = 2.073877 g / cm^3
# Si number density = 20.786080 Si / 1000 Ang^3
#
#
#
# Elastic Constant Matrix: (Units=GPa)
#
#
# Indices 1 2 3 4 5 6 
#
# 1 56.0062 18.5898 36.3296 0.0000 0.0000 0.0000
# 2 18.5898 58.5906 32.6529 0.0000 0.0000 0.0000
# 3 36.3296 32.6529 102.0519 0.0000 0.0000 0.0000
# 4 0.0000 0.0000 0.0000 8.0634 0.0000 0.0000
# 5 0.0000 0.0000 0.0000 0.0000 23.8365 0.0000
# 6 0.0000 0.0000 0.0000 0.0000 0.0000 26.3082
#
#
#
# Elastic Compliance Matrix: (Units=1/GPa)
#
#
# Indices 1 2 3 4 5 6 
#
# 1 0.023773 -0.003440 -0.007362 0.000000 0.000000 0.000000
# 2 -0.003440 0.021269 -0.005581 0.000000 0.000000 0.000000
# 3 -0.007362 -0.005581 0.014206 0.000000 0.000000 0.000000
# 4 0.000000 0.000000 0.000000 0.124017 0.000000 0.000000
# 5 0.000000 0.000000 0.000000 0.000000 0.041952 0.000000
# 6 0.000000 0.000000 0.000000 0.000000 0.000000 0.038011
#
#
# Mechanical properties :
#
#
# Convention : Reuss Voigt Hill
#
# Bulk Modulus (GPa) = 37.76189 43.53257 40.64723
# Shear Modulus (GPa) = 16.40309 20.24672 18.32491
#
# Velocity S-wave (km/s) = 2.81221 3.12437 2.97239
# Velocity P-wave (km/s) = 5.36200 5.83131 5.60157
#
# Compressibility (1/GPa) = 0.02648173
#
# Stress axis : x y z
#
# Youngs Moduli (GPa) = 42.06533 47.01640 70.39513
#
# Poissons Ratio (x) = 0.16172 0.51827
# Poissons Ratio (y) = 0.14469 0.39287
# Poissons Ratio (z) = 0.30970 0.26239
#
# Static dielectric constant tensor:
#      x y z
#    x 1.715140 0.000000 0.000000 
#    y 0.000000 1.770150 0.000000 
#    z 0.000000 0.000000 1.792750 
# 
# From -- ./inp_files/67471.got.cif
#   From: 2010.05.17/outbox.cif.g08.bks.cpg/sg63_34_cif.got.tgz:67471.got - 2010.06.03 15:47:04.
