data_PCOD9472498
_publ_section_title
;
Structure prediction by ZEFSAII (Michael W. Deem and Ramdas Pophale) SiO2 
 PCOD9472498
Probable space group: C M C M
;
_chemical_formula_sum "Si O2"
_cell_formula_units_Z 64
_cell_length_a 18.894044
_cell_length_b 11.046656
_cell_length_c 17.397469
_cell_angle_alpha 90.000000
_cell_angle_beta 90.000000
_cell_angle_gamma 90.000000
_cell_volume 3631.130218
_symmetry_space_group_name_H-M "C M C M"
_symmetry_group_IT_number 63
_symmetry_cell_setting 'orthorhombic'
loop_
_space_group_symop_operation_xyz
x,y,z
-x,-y,1/2+z
x,-y,-z
-x,y,1/2-z
-x,-y,-z
x,y,1/2-z
-x,y,z
x,-y,1/2+z
1/2+x,1/2+y,z
1/2-x,1/2-y,1/2+z
1/2+x,1/2-y,-z
1/2-x,1/2+y,1/2-z
1/2-x,1/2-y,-z
1/2+x,1/2+y,1/2-z
1/2-x,1/2+y,z
1/2+x,1/2-y,1/2+z
loop_
_atom_site_type_symbol
_atom_site_label
_atom_site_fract_x
_atom_site_fract_y
_atom_site_fract_z
Si Si1 0.256922 0.096822 0.935829
Si Si2 0.876243 0.494790 0.839944
Si Si3 0.000000 0.310405 0.340283
Si Si4 0.500000 0.642200 0.017601
Si Si5 0.364124 0.227742 0.051309
O O1 0.193175 0.182412 0.910757
O O2 0.297750 0.035394 0.865656
O O3 0.318193 0.169363 0.981990
O O4 0.230914 0.000000 0.000000
O O5 0.880517 0.466070 0.750000
O O6 0.932197 0.602692 0.855151
O O7 0.890374 0.378810 0.893144
O O8 0.000000 0.193516 0.394969
O O9 0.000000 0.278354 0.250000
O O10 0.430217 0.699253 0.979909
O O11 0.500000 0.500000 0.000000
#
# Coordination Sequence:
#
# PCOD9472498 Si02
#       5
#    16  16   8   8  16
#     4   9  18  34  55  79 113 146 186 235 279 331
#     4  10  20  35  59  85 112 150 185 233 293 333
#     4  10  21  39  59  85 114 142 191 237 279 341
#     4  12  23  37  61  83 111 158 194 228 295 341
#     4  10  20  34  56  85 113 142 193 238 274 335
#
# _framework density 17.625366
#
# number of rings (size 3 to 8) (size 9 to 14) (size 15 to 20)
#    0.000    2.000    2.500    1.500    0.000    2.000 
#    0.000    1.250    0.000    0.000    0.000    0.000 
#    0.000    0.000    0.000    0.000    0.000    0.000 
#
# Total GULP energy -178430.099816 kJ/mol
# GULP energy per Si atom -5575.940619 kJ/mol
# Density = 1.758525 g / cm^3
# Si number density = 17.625366 Si / 1000 Ang^3
#
#
#
# Elastic Constant Matrix: (Units=GPa)
#
#
# Indices 1 2 3 4 5 6 
#
# 1 51.7827 38.2930 42.3360 0.0000 0.0000 0.0000
# 2 38.2930 119.9782 59.0451 0.0000 0.0000 0.0000
# 3 42.3360 59.0451 81.7423 0.0000 0.0000 0.0000
# 4 0.0000 0.0000 0.0000 18.9775 0.0000 0.0000
# 5 0.0000 0.0000 0.0000 0.0000 12.5183 0.0000
# 6 0.0000 0.0000 0.0000 0.0000 0.0000 21.1350
#
#
#
# Elastic Compliance Matrix: (Units=1/GPa)
#
#
# Indices 1 2 3 4 5 6 
#
# 1 0.034380 -0.003429 -0.015329 0.000000 0.000000 0.000000
# 2 -0.003429 0.013274 -0.007812 0.000000 0.000000 0.000000
# 3 -0.015329 -0.007812 0.025816 0.000000 0.000000 0.000000
# 4 0.000000 0.000000 0.000000 0.052694 0.000000 0.000000
# 5 0.000000 0.000000 0.000000 0.000000 0.079883 0.000000
# 6 0.000000 0.000000 0.000000 0.000000 0.000000 0.047315
#
#
# Mechanical properties :
#
#
# Convention : Reuss Voigt Hill
#
# Bulk Modulus (GPa) = 49.19103 59.20571 54.19837
# Shear Modulus (GPa) = 15.96021 18.11474 17.03748
#
# Velocity S-wave (km/s) = 3.01246 3.20936 3.11247
# Velocity P-wave (km/s) = 6.33006 6.88458 6.61313
#
# Compressibility (1/GPa) = 0.02032891
#
# Stress axis : x y z
#
# Youngs Moduli (GPa) = 29.08680 75.33572 38.73572
#
# Poissons Ratio (x) = 0.25832 0.59379
# Poissons Ratio (y) = 0.09974 0.30261
# Poissons Ratio (z) = 0.44588 0.58854
#
# Static dielectric constant tensor:
#      x y z
#    x 1.588300 0.000000 0.000000 
#    y 0.000000 1.625120 0.000000 
#    z 0.000000 0.000000 1.582030 
# 
# From -- ./inp_files/33412.got.cif
#   From: 2010.05.17/outbox.cif.g08.bks.cpg/sg63_17_cif.got.tgz:33412.got - 2010.06.03 15:47:04.
