data_PCOD9472078
_publ_section_title
;
Structure prediction by ZEFSAII (Michael W. Deem and Ramdas Pophale) SiO2 
 PCOD9472078
Probable space group: C M C M
;
_chemical_formula_sum "Si O2"
_cell_formula_units_Z 64
_cell_length_a 21.587038
_cell_length_b 14.422863
_cell_length_c 10.717983
_cell_angle_alpha 90.000000
_cell_angle_beta 90.000000
_cell_angle_gamma 90.000000
_cell_volume 3337.010692
_symmetry_space_group_name_H-M "C M C M"
_symmetry_group_IT_number 63
_symmetry_cell_setting 'orthorhombic'
loop_
_space_group_symop_operation_xyz
x,y,z
-x,-y,1/2+z
x,-y,-z
-x,y,1/2-z
-x,-y,-z
x,y,1/2-z
-x,y,z
x,-y,1/2+z
1/2+x,1/2+y,z
1/2-x,1/2-y,1/2+z
1/2+x,1/2-y,-z
1/2-x,1/2+y,1/2-z
1/2-x,1/2-y,-z
1/2+x,1/2+y,1/2-z
1/2-x,1/2+y,z
1/2+x,1/2-y,1/2+z
loop_
_atom_site_type_symbol
_atom_site_label
_atom_site_fract_x
_atom_site_fract_y
_atom_site_fract_z
Si Si1 0.069951 0.776640 0.892526
Si Si2 0.831841 0.764860 0.390070
Si Si3 0.274538 0.098655 0.963819
Si Si4 0.909899 0.559998 0.882410
O O1 0.089135 0.804012 0.750000
O O2 0.066704 0.664718 0.890571
O O3 0.000000 0.812137 0.915227
O O4 0.119328 0.794844 0.002291
O O5 0.857777 0.762279 0.250000
O O6 0.774815 0.836439 0.396641
O O7 0.803403 0.664139 0.427059
O O8 0.335454 0.070457 0.887241
O O9 0.245478 0.000000 0.000000
O O10 0.928133 0.518297 0.750000
O O11 0.928754 0.500000 0.000000
#
# Coordination Sequence:
#
# PCOD9472078 Si02
#       4
#    16  16  16  16
#     4   9  19  35  50  65  94 136 172 205 255 310
#     4  10  20  33  53  81 105 130 173 219 250 290
#     4   9  19  33  51  75 109 141 163 195 256 318
#     4   9  17  29  46  69  98 130 163 200 245 303
#
# _framework density 19.178842
#
# number of rings (size 3 to 8) (size 9 to 14) (size 15 to 20)
#    0.000    2.750    0.000    0.750    0.000   17.000 
#    0.000    0.000    0.000    0.750    0.000    0.000 
#    0.000    0.000    0.000    0.000    0.000    0.000 
#
# Total GULP energy -178211.525684 kJ/mol
# GULP energy per Si atom -5569.110178 kJ/mol
# Density = 1.913519 g / cm^3
# Si number density = 19.178842 Si / 1000 Ang^3
#
#
#
# Elastic Constant Matrix: (Units=GPa)
#
#
# Indices 1 2 3 4 5 6 
#
# 1 80.9328 11.9353 59.2589 0.0000 0.0000 0.0000
# 2 11.9353 58.1037 17.8505 0.0000 0.0000 0.0000
# 3 59.2589 17.8505 164.8341 0.0000 0.0000 0.0000
# 4 0.0000 0.0000 0.0000 4.9661 0.0000 0.0000
# 5 0.0000 0.0000 0.0000 0.0000 -9.2899 0.0000
# 6 0.0000 0.0000 0.0000 0.0000 0.0000 -7.8123
#
#
#
# Elastic Compliance Matrix: (Units=1/GPa)
#
#
# Indices 1 2 3 4 5 6 
#
# 1 0.016924 -0.001663 -0.005904 0.000000 0.000000 0.000000
# 2 -0.001663 0.017966 -0.001348 0.000000 0.000000 0.000000
# 3 -0.005904 -0.001348 0.008335 0.000000 0.000000 0.000000
# 4 0.000000 0.000000 0.000000 0.201367 0.000000 0.000000
# 5 0.000000 0.000000 0.000000 0.000000 -0.107643 0.000000
# 6 0.000000 0.000000 0.000000 0.000000 0.000000 -0.128003
#
#
# Mechanical properties :
#
#
# Convention : Reuss Voigt Hill
#
# Bulk Modulus (GPa) = 39.37600 53.55108 46.46354
# Shear Modulus (GPa) = 141.88097 11.89450 76.88773
#
# Velocity S-wave (km/s) = 8.61037 2.49306 6.33853
# Velocity P-wave (km/s) = 10.92826 6.02243 8.82317
#
# Compressibility (1/GPa) = 0.02539618
#
# Stress axis : x y z
#
# Youngs Moduli (GPa) = 59.08678 55.65998 119.97137
#
# Poissons Ratio (x) = 0.09254 0.70835
# Poissons Ratio (y) = 0.09824 0.16171
# Poissons Ratio (z) = 0.34887 0.07503
#
# Static dielectric constant tensor:
#      x y z
#    x 1.706660 0.000000 0.000000 
#    y 0.000000 1.643980 0.000000 
#    z 0.000000 0.000000 1.719640 
# 
# From -- ./inp_files/9627.got.cif
#   From: 2010.05.17/outbox.cif.g08.bks.cpg/sg63_5_cif.got.tgz:9627.got - 2010.06.03 15:47:04.
