data_PCOD9472822
_publ_section_title
;
Structure prediction by ZEFSAII (Michael W. Deem and Ramdas Pophale) SiO2 
 PCOD9472822
Probable space group: C M C M
;
_chemical_formula_sum "Si O2"
_cell_formula_units_Z 48
_cell_length_a 8.306461
_cell_length_b 20.366894
_cell_length_c 12.052571
_cell_angle_alpha 90.000000
_cell_angle_beta 90.000000
_cell_angle_gamma 90.000000
_cell_volume 2039.015523
_symmetry_space_group_name_H-M "C M C M"
_symmetry_group_IT_number 63
_symmetry_cell_setting 'orthorhombic'
loop_
_space_group_symop_operation_xyz
x,y,z
-x,-y,1/2+z
x,-y,-z
-x,y,1/2-z
-x,-y,-z
x,y,1/2-z
-x,y,z
x,-y,1/2+z
1/2+x,1/2+y,z
1/2-x,1/2-y,1/2+z
1/2+x,1/2-y,-z
1/2-x,1/2+y,1/2-z
1/2-x,1/2-y,-z
1/2+x,1/2+y,1/2-z
1/2-x,1/2+y,z
1/2+x,1/2-y,1/2+z
loop_
_atom_site_type_symbol
_atom_site_label
_atom_site_fract_x
_atom_site_fract_y
_atom_site_fract_z
Si Si1 0.188651 0.266410 0.373396
Si Si2 0.186156 0.907910 0.092037
Si Si3 0.186711 0.446161 0.626611
O O1 0.252281 0.241693 0.250000
O O2 0.250000 0.250000 0.500000
O O3 0.221013 0.344504 0.368099
O O4 0.000000 0.251496 0.374955
O O5 0.000000 0.906452 0.124720
O O6 0.266439 0.976915 0.125255
O O7 0.200545 0.909463 0.958919
O O8 0.205065 0.421132 0.750000
O O9 0.000000 0.439116 0.592738
#
# Coordination Sequence:
#
# PCOD9472822 Si02
#       3
#    16  16  16
#     4  11  25  45  68  93 123 162 208 258 312 370
#     4  11  22  36  58  87 120 158 199 247 303 364
#     4  10  20  35  57  85 119 159 201 248 302 360
#
# _framework density 23.540770999999999
#
# number of rings (size 3 to 8) (size 9 to 14) (size 15 to 20)
#    0.000    1.333    0.000    8.000    0.000   10.667 
#    0.000    0.000    0.000    0.000    0.000    0.000 
#    0.000    0.000    0.000    0.000    0.000    0.000 
#
# Total GULP energy -133963.203687 kJ/mol
# GULP energy per Si atom -5581.800154 kJ/mol
# Density = 2.348719 g / cm^3
# Si number density = 23.540771 Si / 1000 Ang^3
#
#
#
# Elastic Constant Matrix: (Units=GPa)
#
#
# Indices 1 2 3 4 5 6 
#
# 1 76.4787 -4.8513 43.0252 0.0000 0.0000 0.0000
# 2 -4.8513 68.5839 24.9117 0.0000 0.0000 0.0000
# 3 43.0252 24.9117 225.1604 0.0000 0.0000 0.0000
# 4 0.0000 0.0000 0.0000 45.5104 0.0000 0.0000
# 5 0.0000 0.0000 0.0000 0.0000 17.6042 0.0000
# 6 0.0000 0.0000 0.0000 0.0000 0.0000 25.8284
#
#
#
# Elastic Compliance Matrix: (Units=1/GPa)
#
#
# Indices 1 2 3 4 5 6 
#
# 1 0.014958 0.002184 -0.003100 0.000000 0.000000 0.000000
# 2 0.002184 0.015510 -0.002133 0.000000 0.000000 0.000000
# 3 -0.003100 -0.002133 0.005270 0.000000 0.000000 0.000000
# 4 0.000000 0.000000 0.000000 0.021973 0.000000 0.000000
# 5 0.000000 0.000000 0.000000 0.000000 0.056805 0.000000
# 6 0.000000 0.000000 0.000000 0.000000 0.000000 0.038717
#
#
# Mechanical properties :
#
#
# Convention : Reuss Voigt Hill
#
# Bulk Modulus (GPa) = 33.73904 55.15491 44.44697
# Shear Modulus (GPa) = 29.54897 38.26444 33.90670
#
# Velocity S-wave (km/s) = 3.54676 4.03607 3.79930
# Velocity P-wave (km/s) = 5.57996 6.72311 6.17803
#
# Compressibility (1/GPa) = 0.02963926
#
# Stress axis : x y z
#
# Youngs Moduli (GPa) = 66.85373 64.47426 189.76526
#
# Poissons Ratio (x) = -0.14081 0.58826
# Poissons Ratio (y) = -0.14601 0.40484
# Poissons Ratio (z) = 0.20724 0.13755
#
# Static dielectric constant tensor:
#      x y z
#    x 1.803360 0.000000 0.000000 
#    y 0.000000 1.860780 0.000000 
#    z 0.000000 0.000000 2.041670 
# 
# From -- ./inp_files/15674.got.cif
#   From: 2010.05.17/outbox.cif.g08.bks.cpg/sg63_8_cif.got.tgz:15674.got - 2010.06.03 15:47:04.
