data_PCOD9472124
_publ_section_title
;
Structure prediction by ZEFSAII (Michael W. Deem and Ramdas Pophale) SiO2 
 PCOD9472124
Probable space group: C M C M
;
_chemical_formula_sum "Si O2"
_cell_formula_units_Z 96
_cell_length_a 22.162028
_cell_length_b 26.306485
_cell_length_c 8.647094
_cell_angle_alpha 90.000000
_cell_angle_beta 90.000000
_cell_angle_gamma 90.000000
_cell_volume 5041.299532
_symmetry_space_group_name_H-M "C M C M"
_symmetry_group_IT_number 63
_symmetry_cell_setting 'orthorhombic'
loop_
_space_group_symop_operation_xyz
x,y,z
-x,-y,1/2+z
x,-y,-z
-x,y,1/2-z
-x,-y,-z
x,y,1/2-z
-x,y,z
x,-y,1/2+z
1/2+x,1/2+y,z
1/2-x,1/2-y,1/2+z
1/2+x,1/2-y,-z
1/2-x,1/2+y,1/2-z
1/2-x,1/2-y,-z
1/2+x,1/2+y,1/2-z
1/2-x,1/2+y,z
1/2+x,1/2-y,1/2+z
loop_
_atom_site_type_symbol
_atom_site_label
_atom_site_fract_x
_atom_site_fract_y
_atom_site_fract_z
Si Si1 0.870848 0.447554 0.933571
Si Si2 0.500000 0.188602 0.433766
Si Si3 0.657501 0.353694 0.061580
Si Si4 0.569908 0.555637 0.936900
Si Si5 0.796803 0.647185 0.935280
Si Si6 0.500000 0.922171 0.068216
Si Si7 0.871622 0.260258 0.935386
O O1 0.869716 0.448536 0.750000
O O2 0.844575 0.500000 0.000000
O O3 0.836018 0.398256 0.994293
O O4 0.939458 0.443116 0.991969
O O5 0.500000 0.174466 0.250000
O O6 0.500000 0.138037 0.534912
O O7 0.560689 0.219952 0.464175
O O8 0.655500 0.354172 0.250000
O O9 0.614440 0.399581 0.009333
O O10 0.727276 0.359155 0.016035
O O11 0.635931 0.297749 0.012083
O O12 0.571982 0.553999 0.750000
O O13 0.500000 0.565710 0.981654
O O14 0.586655 0.500000 0.000000
O O15 0.799932 0.644480 0.750000
O O16 0.824708 0.700758 0.988794
O O17 0.500000 0.932935 0.250000
O O18 0.861878 0.261829 0.750000
#
# Coordination Sequence:
#
# PCOD9472124 Si02
#       7
#    16   8  16  16  16   8  16
#     4  12  25  42  62  86 116 153 201 247 294 348
#     4  10  20  33  57  88 119 153 196 245 290 346
#     4   9  20  36  58  87 116 151 196 241 285 349
#     4   9  18  35  59  84 113 146 184 232 289 347
#     4  11  22  38  57  82 119 158 196 240 292 345
#     4  12  23  39  62  88 121 155 193 241 299 348
#     4  10  20  36  58  85 117 153 195 240 293 348
#
# _framework density 19.042708000000001
#
# number of rings (size 3 to 8) (size 9 to 14) (size 15 to 20)
#    0.000    1.667    1.667    3.500    1.167    0.667 
#    0.000    5.000    0.000    0.000    0.000    0.000 
#    0.000    0.000    0.000    0.000    0.000    0.000 
#
# Total GULP energy -268216.476018 kJ/mol
# GULP energy per Si atom -5587.843250 kJ/mol
# Density = 1.899937 g / cm^3
# Si number density = 19.042708 Si / 1000 Ang^3
#
#
#
# Elastic Constant Matrix: (Units=GPa)
#
#
# Indices 1 2 3 4 5 6 
#
# 1 116.9247 89.0865 39.2391 0.0000 0.0000 0.0000
# 2 89.0865 182.3344 43.8381 0.0000 0.0000 0.0000
# 3 39.2391 43.8381 55.6200 0.0000 0.0000 0.0000
# 4 0.0000 0.0000 0.0000 31.9245 0.0000 0.0000
# 5 0.0000 0.0000 0.0000 0.0000 -70.6320 0.0000
# 6 0.0000 0.0000 0.0000 0.0000 0.0000 24.3131
#
#
#
# Elastic Compliance Matrix: (Units=1/GPa)
#
#
# Indices 1 2 3 4 5 6 
#
# 1 0.015071 -0.005931 -0.005958 0.000000 0.000000 0.000000
# 2 -0.005931 0.009101 -0.002989 0.000000 0.000000 0.000000
# 3 -0.005958 -0.002989 0.024538 0.000000 0.000000 0.000000
# 4 0.000000 0.000000 0.000000 0.031324 0.000000 0.000000
# 5 0.000000 0.000000 0.000000 0.000000 -0.014158 0.000000
# 6 0.000000 0.000000 0.000000 0.000000 0.000000 0.041130
#
#
# Mechanical properties :
#
#
# Convention : Reuss Voigt Hill
#
# Bulk Modulus (GPa) = 52.75734 77.68961 65.22348
# Shear Modulus (GPa) = 34.94588 9.30214 22.12401
#
# Velocity S-wave (km/s) = 4.28849 2.21257 3.41223
# Velocity P-wave (km/s) = 7.23094 6.88574 7.06045
#
# Compressibility (1/GPa) = 0.01895471
#
# Stress axis : x y z
#
# Youngs Moduli (GPa) = 66.35363 109.87975 40.75351
#
# Poissons Ratio (x) = 0.65170 0.24279
# Poissons Ratio (y) = 0.39355 0.12180
# Poissons Ratio (z) = 0.39530 0.32841
#
# Static dielectric constant tensor:
#      x y z
#    x 1.647080 0.000000 0.000000 
#    y 0.000000 1.653800 0.000000 
#    z 0.000000 0.000000 1.643780 
# 
# From -- ./inp_files/10564.got.cif
#   From: 2010.05.17/outbox.cif.g08.bks.cpg/sg63_6_cif.got.tgz:10564.got - 2010.06.03 15:47:04.
