data_PCOD9472540
_publ_section_title
;
Structure prediction by ZEFSAII (Michael W. Deem and Ramdas Pophale) SiO2 
 PCOD9472540
Probable space group: C M C M
;
_chemical_formula_sum "Si O2"
_cell_formula_units_Z 96
_cell_length_a 8.534036
_cell_length_b 20.275508
_cell_length_c 28.433393
_cell_angle_alpha 90.000000
_cell_angle_beta 90.000000
_cell_angle_gamma 90.000000
_cell_volume 4919.884446
_symmetry_space_group_name_H-M "C M C M"
_symmetry_group_IT_number 63
_symmetry_cell_setting 'orthorhombic'
loop_
_space_group_symop_operation_xyz
x,y,z
-x,-y,1/2+z
x,-y,-z
-x,y,1/2-z
-x,-y,-z
x,y,1/2-z
-x,y,z
x,-y,1/2+z
1/2+x,1/2+y,z
1/2-x,1/2-y,1/2+z
1/2+x,1/2-y,-z
1/2-x,1/2+y,1/2-z
1/2-x,1/2-y,-z
1/2+x,1/2+y,1/2-z
1/2-x,1/2+y,z
1/2+x,1/2-y,1/2+z
loop_
_atom_site_type_symbol
_atom_site_label
_atom_site_fract_x
_atom_site_fract_y
_atom_site_fract_z
Si Si1 0.186144 0.975116 0.099486
Si Si2 0.184786 0.109440 0.451228
Si Si3 0.313639 0.953059 0.197144
Si Si4 0.317350 0.846953 0.449667
Si Si5 0.687411 0.305114 0.302896
Si Si6 0.185147 0.273800 0.605183
O O1 0.229988 0.988076 0.153640
O O2 0.273581 0.909599 0.082409
O O3 0.000000 0.964058 0.095461
O O4 0.229353 0.036845 0.066748
O O5 0.275974 0.132530 0.497395
O O6 0.221712 0.162023 0.410686
O O7 0.000000 0.108831 0.462145
O O8 0.264335 0.973275 0.250000
O O9 0.500000 0.961605 0.193290
O O10 0.272060 0.875399 0.192736
O O11 0.500000 0.830953 0.445261
O O12 0.219131 0.784287 0.432223
O O13 0.715545 0.279818 0.250000
O O14 0.500000 0.317293 0.307875
O O15 0.733320 0.255815 0.344324
O O16 0.000000 0.288285 0.606074
#
# Coordination Sequence:
#
# PCOD9472540 Si02
#       6
#    16  16  16  16  16  16
#     4  11  23  40  61  86 117 156 197 240 291 347
#     4  11  25  42  59  82 118 157 197 242 292 348
#     4  10  20  34  57  89 119 149 190 241 289 338
#     4  12  24  39  62  88 116 151 196 245 293 346
#     4   9  18  34  58  86 115 150 191 235 285 343
#     4  11  22  38  61  88 120 155 195 239 290 347
#
# _framework density 19.512653
#
# number of rings (size 3 to 8) (size 9 to 14) (size 15 to 20)
#    0.000    1.333    1.667    4.500    0.000    6.333 
#    0.000    0.833    0.000    3.000    0.000    0.000 
#    0.000    0.000    0.000    0.000    0.000    0.000 
#
# Total GULP energy -268355.960134 kJ/mol
# GULP energy per Si atom -5590.749169 kJ/mol
# Density = 1.946824 g / cm^3
# Si number density = 19.512653 Si / 1000 Ang^3
#
#
#
# Elastic Constant Matrix: (Units=GPa)
#
#
# Indices 1 2 3 4 5 6 
#
# 1 21.0265 -5.8555 3.6930 0.0000 0.0000 0.0000
# 2 -5.8555 26.2449 -18.2279 0.0000 0.0000 0.0000
# 3 3.6930 -18.2279 77.1016 0.0000 0.0000 0.0000
# 4 0.0000 0.0000 0.0000 1.5581 0.0000 0.0000
# 5 0.0000 0.0000 0.0000 0.0000 28.8320 0.0000
# 6 0.0000 0.0000 0.0000 0.0000 0.0000 24.8972
#
#
#
# Elastic Compliance Matrix: (Units=1/GPa)
#
#
# Indices 1 2 3 4 5 6 
#
# 1 0.050715 0.011520 0.000294 0.000000 0.000000 0.000000
# 2 0.011520 0.048205 0.010844 0.000000 0.000000 0.000000
# 3 0.000294 0.010844 0.015520 0.000000 0.000000 0.000000
# 4 0.000000 0.000000 0.000000 0.641819 0.000000 0.000000
# 5 0.000000 0.000000 0.000000 0.000000 0.034684 0.000000
# 6 0.000000 0.000000 0.000000 0.000000 0.000000 0.040165
#
#
# Mechanical properties :
#
#
# Convention : Reuss Voigt Hill
#
# Bulk Modulus (GPa) = 6.25954 9.28801 7.77377
# Shear Modulus (GPa) = 5.95917 20.70837 13.33377
#
# Velocity S-wave (km/s) = 1.74947 3.26126 2.61691
# Velocity P-wave (km/s) = 2.70106 4.35332 3.62265
#
# Compressibility (1/GPa) = 0.15975613
#
# Stress axis : x y z
#
# Youngs Moduli (GPa) = 19.71790 20.74490 64.43468
#
# Poissons Ratio (x) = -0.23897 -0.01896
# Poissons Ratio (y) = -0.22714 -0.69876
# Poissons Ratio (z) = -0.00580 -0.22497
#
# Static dielectric constant tensor:
#      x y z
#    x 1.655700 0.000000 0.000000 
#    y 0.000000 1.644910 0.000000 
#    z 0.000000 0.000000 1.714620 
# 
# From -- ./inp_files/66990.got.cif
#   From: 2010.05.17/outbox.cif.g08.bks.cpg/sg63_34_cif.got.tgz:66990.got - 2010.06.03 15:47:04.
