data_PCOD9472665
_publ_section_title
;
Structure prediction by ZEFSAII (Michael W. Deem and Ramdas Pophale) SiO2 
 PCOD9472665
Probable space group: C M C M
;
_chemical_formula_sum "Si O2"
_cell_formula_units_Z 96
_cell_length_a 8.940186
_cell_length_b 20.055692
_cell_length_c 30.849749
_cell_angle_alpha 90.000000
_cell_angle_beta 90.000000
_cell_angle_gamma 90.000000
_cell_volume 5531.409875
_symmetry_space_group_name_H-M "C M C M"
_symmetry_group_IT_number 63
_symmetry_cell_setting 'orthorhombic'
loop_
_space_group_symop_operation_xyz
x,y,z
-x,-y,1/2+z
x,-y,-z
-x,y,1/2-z
-x,-y,-z
x,y,1/2-z
-x,y,z
x,-y,1/2+z
1/2+x,1/2+y,z
1/2-x,1/2-y,1/2+z
1/2+x,1/2-y,-z
1/2-x,1/2+y,1/2-z
1/2-x,1/2-y,-z
1/2+x,1/2+y,1/2-z
1/2-x,1/2+y,z
1/2+x,1/2-y,1/2+z
loop_
_atom_site_type_symbol
_atom_site_label
_atom_site_fract_x
_atom_site_fract_y
_atom_site_fract_z
Si Si1 0.821306 0.196857 0.800588
Si Si2 0.179185 0.451697 0.539299
Si Si3 0.677862 0.452276 0.631860
Si Si4 0.321470 0.704603 0.369781
Si Si5 0.178272 0.552591 0.699511
Si Si6 0.821218 0.704503 0.036997
O O1 0.788683 0.212120 0.750000
O O2 0.747469 0.250008 0.832416
O O3 0.754919 0.123668 0.809666
O O4 0.000000 0.196105 0.806164
O O5 0.222575 0.500000 0.500000
O O6 0.261043 0.469014 0.584012
O O7 0.210873 0.374069 0.528928
O O8 0.000000 0.457751 0.545813
O O9 0.500000 0.462268 0.633609
O O10 0.709052 0.373669 0.638825
O O11 0.757404 0.497087 0.667679
O O12 0.500000 0.713646 0.372192
O O13 0.248196 0.721196 0.416159
O O14 0.209085 0.536093 0.750000
O O15 0.000000 0.558665 0.694222
O O16 0.000000 0.712970 0.038029
O O17 0.750000 0.750000 0.000000
#
# Coordination Sequence:
#
# PCOD9472665 Si02
#       6
#    16  16  16  16  16  16
#     4  10  21  37  57  81 109 140 177 223 272 322
#     4   9  19  36  56  77 103 138 179 221 265 314
#     4  10  21  36  55  80 110 143 179 222 268 315
#     4  10  21  37  56  79 109 144 182 223 269 321
#     4  10  21  37  57  80 108 143 181 221 266 319
#     4  10  20  35  55  78 107 141 178 223 272 321
#
# _framework density 17.355430999999999
#
# number of rings (size 3 to 8) (size 9 to 14) (size 15 to 20)
#    0.000    2.167    0.000    2.500    0.000    7.000 
#    0.000    8.333    0.000    0.000    0.000    0.000 
#    0.000    0.000    0.000    0.000    0.000    0.000 
#
# Total GULP energy -268032.074745 kJ/mol
# GULP energy per Si atom -5584.001557 kJ/mol
# Density = 1.731593 g / cm^3
# Si number density = 17.355431 Si / 1000 Ang^3
#
#
#
# Elastic Constant Matrix: (Units=GPa)
#
#
# Indices 1 2 3 4 5 6 
#
# 1 83.5466 73.9787 87.8698 0.0000 0.0000 0.0000
# 2 73.9787 103.0895 115.4937 0.0000 0.0000 0.0000
# 3 87.8698 115.4937 154.2225 0.0000 0.0000 0.0000
# 4 0.0000 0.0000 0.0000 44.5087 0.0000 0.0000
# 5 0.0000 0.0000 0.0000 0.0000 34.3713 0.0000
# 6 0.0000 0.0000 0.0000 0.0000 0.0000 32.5410
#
#
#
# Elastic Compliance Matrix: (Units=1/GPa)
#
#
# Indices 1 2 3 4 5 6 
#
# 1 0.033949 -0.016720 -0.006822 0.000000 0.000000 0.000000
# 2 -0.016720 0.068480 -0.041757 0.000000 0.000000 0.000000
# 3 -0.006822 -0.041757 0.041641 0.000000 0.000000 0.000000
# 4 0.000000 0.000000 0.000000 0.022468 0.000000 0.000000
# 5 0.000000 0.000000 0.000000 0.000000 0.029094 0.000000
# 6 0.000000 0.000000 0.000000 0.000000 0.000000 0.030730
#
#
# Mechanical properties :
#
#
# Convention : Reuss Voigt Hill
#
# Bulk Modulus (GPa) = 74.21754 99.50478 86.86116
# Shear Modulus (GPa) = 13.83313 26.51863 20.17588
#
# Velocity S-wave (km/s) = 2.82627 3.91317 3.41326
# Velocity P-wave (km/s) = 7.31482 8.82469 8.10499
#
# Compressibility (1/GPa) = 0.01347390
#
# Stress axis : x y z
#
# Youngs Moduli (GPa) = 29.45567 14.60278 24.01453
#
# Poissons Ratio (x) = 0.24416 0.16382
# Poissons Ratio (y) = 0.49250 1.00277
# Poissons Ratio (z) = 0.20093 0.60976
#
# Static dielectric constant tensor:
#      x y z
#    x 1.574520 0.000000 0.000000 
#    y 0.000000 1.566270 0.000000 
#    z 0.000000 0.000000 1.556690 
# 
# From -- ./inp_files/66946.got.cif
#   From: 2010.05.17/outbox.cif.g08.bks.cpg/sg63_34_cif.got.tgz:66946.got - 2010.06.03 15:47:04.
