data_PCOD9472550
_publ_section_title
;
Structure prediction by ZEFSAII (Michael W. Deem and Ramdas Pophale) SiO2 
 PCOD9472550
Probable space group: C M C M
;
_chemical_formula_sum "Si O2"
_cell_formula_units_Z 92
_cell_length_a 27.610212
_cell_length_b 20.654341
_cell_length_c 9.494345
_cell_angle_alpha 90.000000
_cell_angle_beta 90.000000
_cell_angle_gamma 90.000000
_cell_volume 5414.347089
_symmetry_space_group_name_H-M "C M C M"
_symmetry_group_IT_number 63
_symmetry_cell_setting 'orthorhombic'
loop_
_space_group_symop_operation_xyz
x,y,z
-x,-y,1/2+z
x,-y,-z
-x,y,1/2-z
-x,-y,-z
x,y,1/2-z
-x,y,z
x,-y,1/2+z
1/2+x,1/2+y,z
1/2-x,1/2-y,1/2+z
1/2+x,1/2-y,-z
1/2-x,1/2+y,1/2-z
1/2-x,1/2-y,-z
1/2+x,1/2+y,1/2-z
1/2-x,1/2+y,z
1/2+x,1/2-y,1/2+z
loop_
_atom_site_type_symbol
_atom_site_label
_atom_site_fract_x
_atom_site_fract_y
_atom_site_fract_z
Si Si1 0.909904 0.806086 0.915279
Si Si2 0.719752 0.160247 0.084782
Si Si3 0.500000 0.477618 0.250000
Si Si4 0.442617 0.819764 0.914501
Si Si5 0.631129 0.066683 0.082294
Si Si6 0.000000 0.099050 0.035128
Si Si7 0.686156 0.691635 0.584094
O O1 0.899344 0.796980 0.750000
O O2 0.927384 0.739370 0.986798
O O3 0.952699 0.857894 0.932287
O O4 0.861811 0.826925 0.999206
O O5 0.733549 0.154786 0.250000
O O6 0.680793 0.105220 0.050589
O O7 0.694367 0.230650 0.068947
O O8 0.766598 0.159697 0.986085
O O9 0.500000 0.422343 0.373902
O O10 0.500000 0.535595 0.369399
O O11 0.430976 0.803654 0.750000
O O12 0.500000 0.830485 0.924640
O O13 0.412410 0.883792 0.950965
O O14 0.630014 0.054806 0.250000
O O15 0.627726 0.000000 0.000000
O O16 0.682313 0.677260 0.750000
#
# Coordination Sequence:
#
# PCOD9472550 Si02
#       7
#    16  16   4  16  16   8  16
#     4  12  22  35  58  93 122 152 196 247 295 338
#     4   9  18  36  56  81 115 150 189 246 295 347
#     4  10  24  46  64  86 124 158 198 230 280 368
#     4  10  21  37  58  86 120 155 200 249 295 352
#     4  10  21  38  58  82 117 162 203 241 296 361
#     4  11  24  42  66  90 119 162 194 236 288 352
#     4  10  20  34  58  87 116 145 192 242 300 350
#
# _framework density 16.991892
#
# number of rings (size 3 to 8) (size 9 to 14) (size 15 to 20)
#    0.000    1.739    3.478    1.043    2.435    2.435 
#    0.000    0.000    3.826    0.000    0.000    0.000 
#    0.000    0.000    0.000    0.000    0.000    0.000 
#
# Total GULP energy -256252.010073 kJ/mol
# GULP energy per Si atom -5570.695871 kJ/mol
# Density = 1.695322 g / cm^3
# Si number density = 16.991892 Si / 1000 Ang^3
#
#
#
# Elastic Constant Matrix: (Units=GPa)
#
#
# Indices 1 2 3 4 5 6 
#
# 1 108.1418 27.7640 58.9500 0.0000 0.0000 0.0000
# 2 27.7640 67.6246 41.1638 0.0000 0.0000 0.0000
# 3 58.9500 41.1638 121.9060 0.0000 0.0000 0.0000
# 4 0.0000 0.0000 0.0000 35.6571 0.0000 0.0000
# 5 0.0000 0.0000 0.0000 0.0000 11.6517 0.0000
# 6 0.0000 0.0000 0.0000 0.0000 0.0000 -28.4423
#
#
#
# Elastic Compliance Matrix: (Units=1/GPa)
#
#
# Indices 1 2 3 4 5 6 
#
# 1 0.012741 -0.001864 -0.005532 0.000000 0.000000 0.000000
# 2 -0.001864 0.018886 -0.005476 0.000000 0.000000 0.000000
# 3 -0.005532 -0.005476 0.012727 0.000000 0.000000 0.000000
# 4 0.000000 0.000000 0.000000 0.028045 0.000000 0.000000
# 5 0.000000 0.000000 0.000000 0.000000 0.085824 0.000000
# 6 0.000000 0.000000 0.000000 0.000000 0.000000 -0.035159
#
#
# Mechanical properties :
#
#
# Convention : Reuss Voigt Hill
#
# Bulk Modulus (GPa) = 53.73128 61.49199 57.61164
# Shear Modulus (GPa) = 32.25565 15.09293 23.67429
#
# Velocity S-wave (km/s) = 4.36167 2.98357 3.73670
# Velocity P-wave (km/s) = 7.55354 6.93805 7.25233
#
# Compressibility (1/GPa) = 0.01861113
#
# Stress axis : x y z
#
# Youngs Moduli (GPa) = 78.48587 52.94942 78.57197
#
# Poissons Ratio (x) = 0.09868 0.43465
# Poissons Ratio (y) = 0.14627 0.43026
# Poissons Ratio (z) = 0.43418 0.28995
#
# Static dielectric constant tensor:
#      x y z
#    x 1.575350 0.000000 0.000000 
#    y 0.000000 1.541010 0.000000 
#    z 0.000000 0.000000 1.572570 
# 
# From -- ./inp_files/12478.got.cif
#   From: 2010.05.17/outbox.cif.g08.bks.cpg/sg63_7_cif.got.tgz:12478.got - 2010.06.03 15:47:04.
