data_PCOD9472438
_publ_section_title
;
Structure prediction by ZEFSAII (Michael W. Deem and Ramdas Pophale) SiO2 
 PCOD9472438
Probable space group: C M C M
;
_chemical_formula_sum "Si O2"
_cell_formula_units_Z 96
_cell_length_a 20.386903
_cell_length_b 30.533981
_cell_length_c 8.651282
_cell_angle_alpha 90.000000
_cell_angle_beta 90.000000
_cell_angle_gamma 90.000000
_cell_volume 5385.365158
_symmetry_space_group_name_H-M "C M C M"
_symmetry_group_IT_number 63
_symmetry_cell_setting 'orthorhombic'
loop_
_space_group_symop_operation_xyz
x,y,z
-x,-y,1/2+z
x,-y,-z
-x,y,1/2-z
-x,-y,-z
x,y,1/2-z
-x,y,z
x,-y,1/2+z
1/2+x,1/2+y,z
1/2-x,1/2-y,1/2+z
1/2+x,1/2-y,-z
1/2-x,1/2+y,1/2-z
1/2-x,1/2-y,-z
1/2+x,1/2+y,1/2-z
1/2-x,1/2+y,z
1/2+x,1/2-y,1/2+z
loop_
_atom_site_type_symbol
_atom_site_label
_atom_site_fract_x
_atom_site_fract_y
_atom_site_fract_z
Si Si1 0.713965 0.549261 0.064159
Si Si2 0.070179 0.950362 0.936548
Si Si3 0.074619 0.666373 0.434464
Si Si4 0.297409 0.125798 0.933679
Si Si5 0.214358 0.206524 0.436166
Si Si6 0.573053 0.735268 0.063408
O O1 0.717415 0.548412 0.250000
O O2 0.641349 0.567771 0.017988
O O3 0.718893 0.500000 0.000000
O O4 0.769218 0.580442 0.996921
O O5 0.070073 0.951719 0.750000
O O6 0.000000 0.929973 0.985295
O O7 0.069787 0.000000 0.000000
O O8 0.083252 0.667516 0.250000
O O9 0.129500 0.636120 0.508811
O O10 0.082125 0.715718 0.498666
O O11 0.000000 0.652518 0.469091
O O12 0.295320 0.126617 0.750000
O O13 0.251675 0.164523 0.999720
O O14 0.218435 0.206683 0.250000
O O15 0.250000 0.250000 0.500000
O O16 0.137413 0.208038 0.481677
O O17 0.573200 0.737612 0.250000
O O18 0.500000 0.719756 0.015353
#
# Coordination Sequence:
#
# PCOD9472438 Si02
#       6
#    16  16  16  16  16  16
#     4  10  20  36  57  81 110 143 183 232 281 332
#     4   8  14  26  47  74 101 131 169 214 264 316
#     4  10  20  34  55  82 109 138 177 226 275 326
#     4  12  24  37  55  80 111 149 188 227 271 327
#     4  11  21  34  54  80 111 145 181 226 275 327
#     4   9  18  33  53  77 107 145 185 224 272 329
#
# _framework density 17.826090000000001
#
# number of rings (size 3 to 8) (size 9 to 14) (size 15 to 20)
#    0.000    2.000    1.667    3.000    0.000    2.333 
#    0.000    0.833    0.000    5.500    0.000    0.000 
#    0.000    0.000    0.000    0.000    0.000    0.000 
#
# Total GULP energy -267723.410151 kJ/mol
# GULP energy per Si atom -5577.571045 kJ/mol
# Density = 1.778552 g / cm^3
# Si number density = 17.826090 Si / 1000 Ang^3
#
#
#
# Elastic Constant Matrix: (Units=GPa)
#
#
# Indices 1 2 3 4 5 6 
#
# 1 154.2162 50.6393 51.2286 0.0000 0.0000 0.0000
# 2 50.6393 56.3586 18.2759 0.0000 0.0000 0.0000
# 3 51.2286 18.2759 42.5081 0.0000 0.0000 0.0000
# 4 0.0000 0.0000 0.0000 24.2720 0.0000 0.0000
# 5 0.0000 0.0000 0.0000 0.0000 22.3485 0.0000
# 6 0.0000 0.0000 0.0000 0.0000 0.0000 33.7617
#
#
#
# Elastic Compliance Matrix: (Units=1/GPa)
#
#
# Indices 1 2 3 4 5 6 
#
# 1 0.013228 -0.007804 -0.012586 0.000000 0.000000 0.000000
# 2 -0.007804 0.025222 -0.001439 0.000000 0.000000 0.000000
# 3 -0.012586 -0.001439 0.039312 0.000000 0.000000 0.000000
# 4 0.000000 0.000000 0.000000 0.041200 0.000000 0.000000
# 5 0.000000 0.000000 0.000000 0.000000 0.044746 0.000000
# 6 0.000000 0.000000 0.000000 0.000000 0.000000 0.029619
#
#
# Mechanical properties :
#
#
# Convention : Reuss Voigt Hill
#
# Bulk Modulus (GPa) = 29.32253 54.81893 42.07073
# Shear Modulus (GPa) = 20.13253 24.93904 22.53578
#
# Velocity S-wave (km/s) = 3.36428 3.74440 3.55942
# Velocity P-wave (km/s) = 5.61926 7.03654 6.36746
#
# Compressibility (1/GPa) = 0.03410347
#
# Stress axis : x y z
#
# Youngs Moduli (GPa) = 75.59676 39.64744 25.43742
#
# Poissons Ratio (x) = 0.30941 0.32017
# Poissons Ratio (y) = 0.58997 0.03660
# Poissons Ratio (z) = 0.95150 0.05705
#
# Static dielectric constant tensor:
#      x y z
#    x 1.661600 0.000000 0.000000 
#    y 0.000000 1.568960 0.000000 
#    z 0.000000 0.000000 1.597490 
# 
# From -- ./inp_files/8573.got.cif
#   From: 2010.05.17/outbox.cif.g08.bks.cpg/sg63_5_cif.got.tgz:8573.got - 2010.06.03 15:47:04.
