data_PCOD9472752
_publ_section_title
;
Structure prediction by ZEFSAII (Michael W. Deem and Ramdas Pophale) SiO2 
 PCOD9472752
Probable space group: C M C M
;
_chemical_formula_sum "Si O2"
_cell_formula_units_Z 96
_cell_length_a 18.706878
_cell_length_b 12.670462
_cell_length_c 19.844330
_cell_angle_alpha 90.000000
_cell_angle_beta 90.000000
_cell_angle_gamma 90.000000
_cell_volume 4703.598088
_symmetry_space_group_name_H-M "C M C M"
_symmetry_group_IT_number 63
_symmetry_cell_setting 'orthorhombic'
loop_
_space_group_symop_operation_xyz
x,y,z
-x,-y,1/2+z
x,-y,-z
-x,y,1/2-z
-x,-y,-z
x,y,1/2-z
-x,y,z
x,-y,1/2+z
1/2+x,1/2+y,z
1/2-x,1/2-y,1/2+z
1/2+x,1/2-y,-z
1/2-x,1/2+y,1/2-z
1/2-x,1/2-y,-z
1/2+x,1/2+y,1/2-z
1/2-x,1/2+y,z
1/2+x,1/2-y,1/2+z
loop_
_atom_site_type_symbol
_atom_site_label
_atom_site_fract_x
_atom_site_fract_y
_atom_site_fract_z
Si Si1 0.084134 0.500902 0.823210
Si Si2 0.081980 0.927520 0.596874
Si Si3 0.413302 0.359266 0.172186
Si Si4 0.323622 0.736721 0.463003
Si Si5 0.133255 0.737083 0.824400
Si Si6 0.585695 0.164644 0.426713
O O1 0.114546 0.466819 0.750000
O O2 0.092805 0.626046 0.827021
O O3 0.112155 0.440129 0.888367
O O4 0.000000 0.475071 0.821387
O O5 0.135694 0.876873 0.541769
O O6 0.084180 0.835511 0.653972
O O7 0.000000 0.938682 0.572680
O O8 0.107489 0.034586 0.632132
O O9 0.387487 0.354482 0.250000
O O10 0.500000 0.362374 0.175877
O O11 0.396057 0.259054 0.125589
O O12 0.250000 0.750000 0.500000
O O13 0.311030 0.766196 0.385173
O O14 0.378777 0.812174 0.501870
O O15 0.162559 0.752048 0.750000
O O16 0.500000 0.162127 0.436085
#
# Coordination Sequence:
#
# PCOD9472752 Si02
#       6
#    16  16  16  16  16  16
#     4   9  17  31  55  87 117 146 184 234 282 330
#     4   9  18  33  59  87 111 140 185 234 282 333
#     4   9  17  31  55  87 117 146 184 235 286 332
#     4  10  23  40  56  79 116 153 184 234 292 343
#     4   9  19  35  58  83 112 144 186 235 284 333
#     4  10  20  35  56  82 114 152 191 228 279 347
#
# _framework density 20.409907
#
# number of rings (size 3 to 8) (size 9 to 14) (size 15 to 20)
#    1.000    1.667    0.000    2.000    0.000    5.000 
#    0.000    9.167    0.000    2.000    0.000    0.000 
#    0.000    0.000    0.000    0.000    0.000    0.000 
#
# Total GULP energy -267212.975403 kJ/mol
# GULP energy per Si atom -5566.936988 kJ/mol
# Density = 2.036345 g / cm^3
# Si number density = 20.409907 Si / 1000 Ang^3
#
#
#
# Elastic Constant Matrix: (Units=GPa)
#
#
# Indices 1 2 3 4 5 6 
#
# 1 47.6609 -5.1139 32.6005 0.0000 0.0000 0.0000
# 2 -5.1139 63.2023 6.6544 0.0000 0.0000 0.0000
# 3 32.6005 6.6544 108.1086 0.0000 0.0000 0.0000
# 4 0.0000 0.0000 0.0000 18.9894 0.0000 0.0000
# 5 0.0000 0.0000 0.0000 0.0000 10.9051 0.0000
# 6 0.0000 0.0000 0.0000 0.0000 0.0000 -16.5731
#
#
#
# Elastic Compliance Matrix: (Units=1/GPa)
#
#
# Indices 1 2 3 4 5 6 
#
# 1 0.027011 0.003063 -0.008334 0.000000 0.000000 0.000000
# 2 0.003063 0.016273 -0.001925 0.000000 0.000000 0.000000
# 3 -0.008334 -0.001925 0.011882 0.000000 0.000000 0.000000
# 4 0.000000 0.000000 0.000000 0.052661 0.000000 0.000000
# 5 0.000000 0.000000 0.000000 0.000000 0.091701 0.000000
# 6 0.000000 0.000000 0.000000 0.000000 0.000000 -0.060339
#
#
# Mechanical properties :
#
#
# Convention : Reuss Voigt Hill
#
# Bulk Modulus (GPa) = 24.52616 31.91709 28.22162
# Shear Modulus (GPa) = 29.90959 14.98632 22.44795
#
# Velocity S-wave (km/s) = 3.83227 2.71268 3.32001
# Velocity P-wave (km/s) = 5.62357 5.04811 5.34360
#
# Compressibility (1/GPa) = 0.04077280
#
# Stress axis : x y z
#
# Youngs Moduli (GPa) = 37.02264 61.45240 84.16439
#
# Poissons Ratio (x) = -0.18822 0.70140
# Poissons Ratio (y) = -0.11340 0.16204
# Poissons Ratio (z) = 0.30853 0.11831
#
# Static dielectric constant tensor:
#      x y z
#    x 1.891680 0.000000 0.000000 
#    y 0.000000 1.744440 0.000000 
#    z 0.000000 0.000000 1.773160 
# 
# From -- ./inp_files/56553.got.cif
#   From: 2010.05.17/outbox.cif.g08.bks.cpg/sg63_29_cif.got.tgz:56553.got - 2010.06.03 15:47:04.
