data_PCOD9472769
_publ_section_title
;
Structure prediction by ZEFSAII (Michael W. Deem and Ramdas Pophale) SiO2 
 PCOD9472769
Probable space group: C M C M
;
_chemical_formula_sum "Si O2"
_cell_formula_units_Z 100
_cell_length_a 23.516039
_cell_length_b 26.529834
_cell_length_c 9.238804
_cell_angle_alpha 90.000000
_cell_angle_beta 90.000000
_cell_angle_gamma 90.000000
_cell_volume 5763.873729
_symmetry_space_group_name_H-M "C M C M"
_symmetry_group_IT_number 63
_symmetry_cell_setting 'orthorhombic'
loop_
_space_group_symop_operation_xyz
x,y,z
-x,-y,1/2+z
x,-y,-z
-x,y,1/2-z
-x,-y,-z
x,y,1/2-z
-x,y,z
x,-y,1/2+z
1/2+x,1/2+y,z
1/2-x,1/2-y,1/2+z
1/2+x,1/2-y,-z
1/2-x,1/2+y,1/2-z
1/2-x,1/2-y,-z
1/2+x,1/2+y,1/2-z
1/2-x,1/2+y,z
1/2+x,1/2-y,1/2+z
loop_
_atom_site_type_symbol
_atom_site_label
_atom_site_fract_x
_atom_site_fract_y
_atom_site_fract_z
Si Si1 0.296770 0.682238 0.579411
Si Si2 0.000000 0.445056 0.074852
Si Si3 0.822747 0.702312 0.080063
Si Si4 0.708480 0.952470 0.416068
Si Si5 0.500000 0.475473 0.250000
Si Si6 0.320635 0.414936 0.580200
Si Si7 0.106111 0.374156 0.083890
Si Si8 0.410478 0.500000 0.000000
O O1 0.290063 0.670543 0.750000
O O2 0.234480 0.686319 0.505730
O O3 0.325279 0.737162 0.565605
O O4 0.330821 0.638432 0.498388
O O5 0.054706 0.410580 0.037066
O O6 0.000000 0.452331 0.250000
O O7 0.000000 0.500000 0.000000
O O8 0.816019 0.690214 0.250000
O O9 0.876650 0.673161 0.014379
O O10 0.722692 0.965256 0.250000
O O11 0.764604 0.936505 0.501690
O O12 0.662409 0.908593 0.415878
O O13 0.683164 0.000000 0.500000
O O14 0.549630 0.478379 0.375288
O O15 0.310154 0.407333 0.750000
O O16 0.370452 0.455110 0.558060
O O17 0.094703 0.358135 0.250000
#
# Coordination Sequence:
#
# PCOD9472769 Si02
#       8
#    16   8  16  16   4  16  16   8
#     4  10  21  35  55  85 122 155 190 238 299 356
#     4  10  22  40  60  84 114 160 213 250 294 349
#     4  10  20  35  56  84 117 154 195 238 297 362
#     4  11  22  33  50  80 120 153 185 236 297 349
#     4  10  24  46  64  82 112 154 194 230 272 338
#     4  12  23  35  57  90 119 151 192 239 288 352
#     4  10  21  37  57  81 114 156 201 249 297 352
#     4  11  24  42  64  88 116 155 198 236 280 347
#
# _framework density 17.349443000000001
#
# number of rings (size 3 to 8) (size 9 to 14) (size 15 to 20)
#    0.000    1.440    3.200    2.400    2.240    3.200 
#    0.000    0.000    0.000    1.920    2.080    0.000 
#    0.000    0.000    0.000    0.000    0.000    0.000 
#
# Total GULP energy -278561.251345 kJ/mol
# GULP energy per Si atom -5571.225027 kJ/mol
# Density = 1.730996 g / cm^3
# Si number density = 17.349443 Si / 1000 Ang^3
#
#
#
# Elastic Constant Matrix: (Units=GPa)
#
#
# Indices 1 2 3 4 5 6 
#
# 1 83.5401 32.5744 33.8667 0.0000 0.0000 0.0000
# 2 32.5744 99.9900 55.9119 0.0000 0.0000 0.0000
# 3 33.8667 55.9119 135.0466 0.0000 0.0000 0.0000
# 4 0.0000 0.0000 0.0000 26.7307 0.0000 0.0000
# 5 0.0000 0.0000 0.0000 0.0000 164.3712 0.0000
# 6 0.0000 0.0000 0.0000 0.0000 0.0000 18.7997
#
#
#
# Elastic Compliance Matrix: (Units=1/GPa)
#
#
# Indices 1 2 3 4 5 6 
#
# 1 0.014171 -0.003421 -0.002137 0.000000 0.000000 0.000000
# 2 -0.003421 0.013840 -0.004872 0.000000 0.000000 0.000000
# 3 -0.002137 -0.004872 0.009958 0.000000 0.000000 0.000000
# 4 0.000000 0.000000 0.000000 0.037410 0.000000 0.000000
# 5 0.000000 0.000000 0.000000 0.000000 0.006084 0.000000
# 6 0.000000 0.000000 0.000000 0.000000 0.000000 0.053192
#
#
# Mechanical properties :
#
#
# Convention : Reuss Voigt Hill
#
# Bulk Modulus (GPa) = 58.45420 62.58698 60.52059
# Shear Modulus (GPa) = 31.01380 55.06190 43.03785
#
# Velocity S-wave (km/s) = 4.23258 5.63967 4.98601
# Velocity P-wave (km/s) = 7.59288 8.86344 8.25264
#
# Compressibility (1/GPa) = 0.01710741
#
# Stress axis : x y z
#
# Youngs Moduli (GPa) = 70.56758 72.25481 100.42292
#
# Poissons Ratio (x) = 0.24722 0.21462
# Poissons Ratio (y) = 0.24144 0.48926
# Poissons Ratio (z) = 0.15082 0.35202
#
# Static dielectric constant tensor:
#      x y z
#    x 1.567890 0.000000 0.000000 
#    y 0.000000 1.623870 0.000000 
#    z 0.000000 0.000000 1.595750 
# 
# From -- ./inp_files/8847.got.cif
#   From: 2010.05.17/outbox.cif.g08.bks.cpg/sg63_5_cif.got.tgz:8847.got - 2010.06.03 15:47:04.
