data_PCOD9472409
_publ_section_title
;
Structure prediction by ZEFSAII (Michael W. Deem and Ramdas Pophale) SiO2 
 PCOD9472409
Probable space group: C M C M
;
_chemical_formula_sum "Si O2"
_cell_formula_units_Z 80
_cell_length_a 11.386987
_cell_length_b 13.364680
_cell_length_c 24.555771
_cell_angle_alpha 90.000000
_cell_angle_beta 90.000000
_cell_angle_gamma 90.000000
_cell_volume 3736.981639
_symmetry_space_group_name_H-M "C M C M"
_symmetry_group_IT_number 63
_symmetry_cell_setting 'orthorhombic'
loop_
_space_group_symop_operation_xyz
x,y,z
-x,-y,1/2+z
x,-y,-z
-x,y,1/2-z
-x,-y,-z
x,y,1/2-z
-x,y,z
x,-y,1/2+z
1/2+x,1/2+y,z
1/2-x,1/2-y,1/2+z
1/2+x,1/2-y,-z
1/2-x,1/2+y,1/2-z
1/2-x,1/2-y,-z
1/2+x,1/2+y,1/2-z
1/2-x,1/2+y,z
1/2+x,1/2-y,1/2+z
loop_
_atom_site_type_symbol
_atom_site_label
_atom_site_fract_x
_atom_site_fract_y
_atom_site_fract_z
Si Si1 0.865947 0.500000 0.911294
Si Si2 0.124045 0.221774 0.813673
Si Si3 0.124045 0.778225 0.813673
Si Si4 0.802733 0.999999 0.809701
Si Si5 0.139665 0.672797 0.500000
O O1 0.786352 0.499999 0.858844
O O2 0.847139 0.401901 0.948526
O O3 0.000000 0.499999 0.893888
O O4 0.847139 0.598100 0.948525
O O5 0.126177 0.255412 0.750000
O O6 0.250000 0.249999 0.838449
O O7 0.124967 0.101830 0.813097
O O8 0.000000 0.257670 0.837988
O O9 0.126177 0.744586 0.750000
O O10 0.000000 0.742329 0.837988
O O11 0.124967 0.898169 0.813097
O O12 0.743957 0.999999 0.750000
O O13 0.250000 0.750000 0.500000
O O14 0.000000 0.708957 0.500000
#
# Coordination Sequence:
#
# PCOD9472409 Si02
#       5
#    16  16  16  16  16
#     4   9  20  38  59  86 119 153 190 236 290 345
#     4   9  18  33  51  72 103 147 196 238 276 324
#     4   9  18  33  51  72 103 147 196 238 276 324
#     4  10  20  34  54  82 119 159 193 228 277 341
#     4   9  19  41  68  88 112 147 191 245 298 342
#
# _framework density 21.407651999999999
#
# number of rings (size 3 to 8) (size 9 to 14) (size 15 to 20)
#    0.000    2.800    0.000    1.800    0.000    6.000 
#    0.000   14.000    0.000    0.000    0.000    0.000 
#    0.000    0.000    0.000    0.000    0.000    0.000 
#
# Total GULP energy -222971.716699 kJ/mol
# GULP energy per Si atom -5574.292917 kJ/mol
# Density = 2.135893 g / cm^3
# Si number density = 21.407652 Si / 1000 Ang^3
#
#
#
# Elastic Constant Matrix: (Units=GPa)
#
#
# Indices 1 2 3 4 5 6 
#
# 1 234.3225 60.1208 62.6620 0.0000 0.0000 0.0000
# 2 60.1208 78.2490 -0.4244 0.0000 0.0000 0.0000
# 3 62.6620 -0.4244 100.1046 0.0000 0.0000 0.0000
# 4 0.0000 0.0000 0.0000 14.4208 0.0000 0.0000
# 5 0.0000 0.0000 0.0000 0.0000 -4.9610 0.0000
# 6 0.0000 0.0000 0.0000 0.0000 0.0000 9.5461
#
#
#
# Elastic Compliance Matrix: (Units=1/GPa)
#
#
# Indices 1 2 3 4 5 6 
#
# 1 0.006734 -0.005197 -0.004237 0.000000 0.000000 0.000000
# 2 -0.005197 0.016791 0.003324 0.000000 0.000000 0.000000
# 3 -0.004237 0.003324 0.012656 0.000000 0.000000 0.000000
# 4 0.000000 0.000000 0.000000 0.069344 0.000000 0.000000
# 5 0.000000 0.000000 0.000000 0.000000 -0.201574 0.000000
# 6 0.000000 0.000000 0.000000 0.000000 0.000000 0.104755
#
#
# Mechanical properties :
#
#
# Convention : Reuss Voigt Hill
#
# Bulk Modulus (GPa) = 41.73464 73.04364 57.38914
# Shear Modulus (GPa) = 172.93258 23.15571 98.04414
#
# Velocity S-wave (km/s) = 8.99756 3.29242 6.77481
# Velocity P-wave (km/s) = 11.29066 6.97480 9.38421
#
# Compressibility (1/GPa) = 0.02396091
#
# Stress axis : x y z
#
# Youngs Moduli (GPa) = 148.49560 59.55649 79.01313
#
# Poissons Ratio (x) = 0.30952 0.33481
# Poissons Ratio (y) = 0.77174 -0.26267
# Poissons Ratio (z) = 0.62924 -0.19799
#
# Static dielectric constant tensor:
#      x y z
#    x 1.822870 0.000000 0.000000 
#    y 0.000000 1.809560 0.000000 
#    z 0.000000 0.000000 1.743880 
# 
# From -- ./inp_files/68087.got.cif
#   From: 2010.05.17/outbox.cif.g08.bks.cpg/sg63_35_cif.got.tgz:68087.got - 2010.06.03 15:47:04.
