data_PCOD9472676
_publ_section_title
;
Structure prediction by ZEFSAII (Michael W. Deem and Ramdas Pophale) SiO2 
 PCOD9472676
Probable space group: C M C M
;
_chemical_formula_sum "Si O2"
_cell_formula_units_Z 80
_cell_length_a 7.752918
_cell_length_b 18.732238
_cell_length_c 26.555874
_cell_angle_alpha 90.000000
_cell_angle_beta 90.000000
_cell_angle_gamma 90.000000
_cell_volume 3856.696440
_symmetry_space_group_name_H-M "C M C M"
_symmetry_group_IT_number 63
_symmetry_cell_setting 'orthorhombic'
loop_
_space_group_symop_operation_xyz
x,y,z
-x,-y,1/2+z
x,-y,-z
-x,y,1/2-z
-x,-y,-z
x,y,1/2-z
-x,y,z
x,-y,1/2+z
1/2+x,1/2+y,z
1/2-x,1/2-y,1/2+z
1/2+x,1/2-y,-z
1/2-x,1/2+y,1/2-z
1/2-x,1/2-y,-z
1/2+x,1/2+y,1/2-z
1/2-x,1/2+y,z
1/2+x,1/2-y,1/2+z
loop_
_atom_site_type_symbol
_atom_site_label
_atom_site_fract_x
_atom_site_fract_y
_atom_site_fract_z
Si Si1 0.707640 0.077420 0.848993
Si Si2 0.299412 0.840908 0.054563
Si Si3 0.203305 0.318244 0.943424
Si Si4 0.788737 0.338348 0.250000
Si Si5 0.788964 0.173491 0.250000
Si Si6 0.294011 0.411360 0.651176
O O1 0.500000 0.085978 0.849662
O O2 0.776831 0.111145 0.901026
O O3 0.770009 0.120553 0.800113
O O4 0.746804 0.994104 0.845045
O O5 0.500000 0.861785 0.050084
O O6 0.287916 0.757646 0.069902
O O7 0.226801 0.844035 0.997809
O O8 0.226955 0.375331 0.899766
O O9 0.000000 0.303399 0.949735
O O10 0.735061 0.255888 0.250000
O O11 0.000000 0.339104 0.250000
O O12 0.730912 0.132194 0.300036
O O13 0.000000 0.172671 0.250000
O O14 0.500000 0.405362 0.650153
#
# Coordination Sequence:
#
# PCOD9472676 Si02
#       6
#    16  16  16   8   8  16
#     4  10  20  35  55  79 108 140 176 218 265 318
#     4   9  19  36  57  79 107 145 183 221 268 321
#     4  10  20  35  56  81 108 140 182 227 268 316
#     4   9  17  32  57  81 100 131 176 221 264 314
#     4   9  19  36  57  79 104 139 180 219 266 324
#     4  11  22  36  55  79 110 144 178 219 268 321
#
# _framework density 20.743141999999999
#
# number of rings (size 3 to 8) (size 9 to 14) (size 15 to 20)
#    0.000    2.200    0.000    3.000    0.000    5.600 
#    0.000    5.500    0.000    2.400    0.000    0.000 
#    0.000    0.000    0.000    0.000    0.000    0.000 
#
# Total GULP energy -223417.252556 kJ/mol
# GULP energy per Si atom -5585.431314 kJ/mol
# Density = 2.069593 g / cm^3
# Si number density = 20.743142 Si / 1000 Ang^3
#
#
#
# Elastic Constant Matrix: (Units=GPa)
#
#
# Indices 1 2 3 4 5 6 
#
# 1 28.4145 -15.2336 4.7618 0.0000 0.0000 0.0000
# 2 -15.2336 166.1198 116.4577 0.0000 0.0000 0.0000
# 3 4.7618 116.4577 152.7337 0.0000 0.0000 0.0000
# 4 0.0000 0.0000 0.0000 -11.9884 0.0000 0.0000
# 5 0.0000 0.0000 0.0000 0.0000 4.4419 0.0000
# 6 0.0000 0.0000 0.0000 0.0000 0.0000 28.4848
#
#
#
# Elastic Compliance Matrix: (Units=1/GPa)
#
#
# Indices 1 2 3 4 5 6 
#
# 1 0.042259 0.010310 -0.009179 0.000000 0.000000 0.000000
# 2 0.010310 0.015448 -0.012101 0.000000 0.000000 0.000000
# 3 -0.009179 -0.012101 0.016060 0.000000 0.000000 0.000000
# 4 0.000000 0.000000 0.000000 -0.083414 0.000000 0.000000
# 5 0.000000 0.000000 0.000000 0.000000 0.225128 0.000000
# 6 0.000000 0.000000 0.000000 0.000000 0.000000 0.035106
#
#
# Mechanical properties :
#
#
# Convention : Reuss Voigt Hill
#
# Bulk Modulus (GPa) = 19.29436 62.13776 40.71606
# Shear Modulus (GPa) = 17.25312 20.27313 18.76313
#
# Velocity S-wave (km/s) = 2.88714 3.12964 3.01083
# Velocity P-wave (km/s) = 4.52060 6.56356 5.63543
#
# Compressibility (1/GPa) = 0.05182860
#
# Stress axis : x y z
#
# Youngs Moduli (GPa) = 23.66361 64.73217 62.26623
#
# Poissons Ratio (x) = -0.66739 0.57153
# Poissons Ratio (y) = -0.24397 0.75346
# Poissons Ratio (z) = 0.21720 0.78330
#
# Static dielectric constant tensor:
#      x y z
#    x 1.788610 0.000000 0.000000 
#    y 0.000000 1.688840 0.000000 
#    z 0.000000 0.000000 1.750120 
# 
# From -- ./inp_files/66646.got.cif
#   From: 2010.05.17/outbox.cif.g08.bks.cpg/sg63_34_cif.got.tgz:66646.got - 2010.06.03 15:47:04.
