data_PCOD9472590
_publ_section_title
;
Structure prediction by ZEFSAII (Michael W. Deem and Ramdas Pophale) SiO2 
 PCOD9472590
Probable space group: C M C M
;
_chemical_formula_sum "Si O2"
_cell_formula_units_Z 68
_cell_length_a 30.615758
_cell_length_b 4.962041
_cell_length_c 20.501585
_cell_angle_alpha 90.000000
_cell_angle_beta 90.000000
_cell_angle_gamma 90.000000
_cell_volume 3114.532040
_symmetry_space_group_name_H-M "C M C M"
_symmetry_group_IT_number 63
_symmetry_cell_setting 'orthorhombic'
loop_
_space_group_symop_operation_xyz
x,y,z
-x,-y,1/2+z
x,-y,-z
-x,y,1/2-z
-x,-y,-z
x,y,1/2-z
-x,y,z
x,-y,1/2+z
1/2+x,1/2+y,z
1/2-x,1/2-y,1/2+z
1/2+x,1/2-y,-z
1/2-x,1/2+y,1/2-z
1/2-x,1/2-y,-z
1/2+x,1/2+y,1/2-z
1/2-x,1/2+y,z
1/2+x,1/2-y,1/2+z
loop_
_atom_site_type_symbol
_atom_site_label
_atom_site_fract_x
_atom_site_fract_y
_atom_site_fract_z
Si Si1 0.500000 0.460300 0.750000
Si Si2 0.867661 0.637712 0.128256
Si Si3 0.593988 0.348785 0.930556
Si Si4 0.430231 0.963155 0.750000
Si Si5 0.721410 0.026764 0.923171
Si Si6 0.500000 0.745311 0.048937
O O1 0.461628 0.701054 0.750000
O O2 0.461348 0.223510 0.750000
O O3 0.885125 0.443364 0.070700
O O4 0.896942 0.547438 0.188888
O O5 0.816447 0.574007 0.124950
O O6 0.879301 0.947377 0.114581
O O7 0.543757 0.292355 0.910124
O O8 0.593275 0.500000 0.000000
O O9 0.763220 0.832409 0.914133
O O10 0.708396 0.000000 0.000000
O O11 0.500000 0.500000 0.000000
O O12 0.500000 0.000000 0.000000
#
# Coordination Sequence:
#
# PCOD9472590 Si02
#       6
#     4  16  16   8  16   8
#     4  10  24  48  68  88 126 176 230 270 304 356
#     4  12  24  40  64  91 126 165 215 267 309 379
#     4  11  22  37  60  90 123 162 204 258 323 382
#     4  11  26  46  66  95 126 173 226 264 314 369
#     4  10  21  39  63  93 127 162 203 256 324 392
#     4  10  20  35  52  83 124 153 189 246 317 382
#
# _framework density 21.833137000000001
#
# number of rings (size 3 to 8) (size 9 to 14) (size 15 to 20)
#    0.000    1.176    0.000    7.765    0.000    7.529 
#    0.000    1.176    0.000    0.000    0.000    0.000 
#    0.000    0.000    0.000    0.000    0.000    0.000 
#
# Total GULP energy -189320.966944 kJ/mol
# GULP energy per Si atom -5568.263734 kJ/mol
# Density = 2.178344 g / cm^3
# Si number density = 21.833137 Si / 1000 Ang^3
#
#
#
# Elastic Constant Matrix: (Units=GPa)
#
#
# Indices 1 2 3 4 5 6 
#
# 1 123.4966 18.1972 37.7179 0.0000 0.0000 0.0000
# 2 18.1972 142.6375 17.4827 0.0000 0.0000 0.0000
# 3 37.7179 17.4827 84.0363 0.0000 0.0000 0.0000
# 4 0.0000 0.0000 0.0000 9.1918 0.0000 0.0000
# 5 0.0000 0.0000 0.0000 0.0000 15.6550 0.0000
# 6 0.0000 0.0000 0.0000 0.0000 0.0000 26.0217
#
#
#
# Elastic Compliance Matrix: (Units=1/GPa)
#
#
# Indices 1 2 3 4 5 6 
#
# 1 0.009452 -0.000704 -0.004096 0.000000 0.000000 0.000000
# 2 -0.000704 0.007247 -0.001192 0.000000 0.000000 0.000000
# 3 -0.004096 -0.001192 0.013986 0.000000 0.000000 0.000000
# 4 0.000000 0.000000 0.000000 0.108792 0.000000 0.000000
# 5 0.000000 0.000000 0.000000 0.000000 0.063877 0.000000
# 6 0.000000 0.000000 0.000000 0.000000 0.000000 0.038430
#
#
# Mechanical properties :
#
#
# Convention : Reuss Voigt Hill
#
# Bulk Modulus (GPa) = 53.47104 55.21848 54.34476
# Shear Modulus (GPa) = 19.23074 28.62521 23.92798
#
# Velocity S-wave (km/s) = 2.97106 3.62483 3.31410
# Velocity P-wave (km/s) = 6.02607 6.54715 6.29201
#
# Compressibility (1/GPa) = 0.01870171
#
# Stress axis : x y z
#
# Youngs Moduli (GPa) = 105.79697 137.99516 71.50058
#
# Poissons Ratio (x) = 0.09713 0.29286
# Poissons Ratio (y) = 0.07446 0.08521
# Poissons Ratio (z) = 0.43334 0.16444
#
# Static dielectric constant tensor:
#      x y z
#    x 1.920870 0.000000 0.000000 
#    y 0.000000 1.734800 0.000000 
#    z 0.000000 0.000000 1.853520 
# 
# From -- ./inp_files/57950.got.cif
#   From: 2010.05.17/outbox.cif.g08.bks.cpg/sg63_29_cif.got.tgz:57950.got - 2010.06.03 15:47:04.
