data_PCOD9472853
_publ_section_title
;
Structure prediction by ZEFSAII (Michael W. Deem and Ramdas Pophale) SiO2 
 PCOD9472853
Probable space group: C M C M
;
_chemical_formula_sum "Si O2"
_cell_formula_units_Z 96
_cell_length_a 8.909859
_cell_length_b 19.666482
_cell_length_c 31.110501
_cell_angle_alpha 90.000000
_cell_angle_beta 90.000000
_cell_angle_gamma 90.000000
_cell_volume 5451.355633
_symmetry_space_group_name_H-M "C M C M"
_symmetry_group_IT_number 63
_symmetry_cell_setting 'orthorhombic'
loop_
_space_group_symop_operation_xyz
x,y,z
-x,-y,1/2+z
x,-y,-z
-x,y,1/2-z
-x,-y,-z
x,y,1/2-z
-x,y,z
x,-y,1/2+z
1/2+x,1/2+y,z
1/2-x,1/2-y,1/2+z
1/2+x,1/2-y,-z
1/2-x,1/2+y,1/2-z
1/2-x,1/2-y,-z
1/2+x,1/2+y,1/2-z
1/2-x,1/2+y,z
1/2+x,1/2-y,1/2+z
loop_
_atom_site_type_symbol
_atom_site_label
_atom_site_fract_x
_atom_site_fract_y
_atom_site_fract_z
Si Si1 0.322420 0.287655 0.141361
Si Si2 0.177035 0.892184 0.437179
Si Si3 0.678573 0.178475 0.014857
Si Si4 0.820451 0.153699 0.392304
Si Si5 0.679797 0.498667 0.867041
Si Si6 0.679401 0.099434 0.699930
O O1 0.500000 0.278808 0.147416
O O2 0.301837 0.331084 0.097278
O O3 0.241288 0.216053 0.135638
O O4 0.254123 0.334065 0.178795
O O5 0.272960 0.876208 0.479009
O O6 0.000000 0.894454 0.448433
O O7 0.216963 0.960121 0.410825
O O8 0.500000 0.185428 0.017284
O O9 0.745020 0.159423 0.061015
O O10 0.750000 0.250000 0.000000
O O11 0.785322 0.080360 0.372090
O O12 0.000000 0.159095 0.396914
O O13 0.500000 0.507127 0.861193
O O14 0.761822 0.536125 0.828077
O O15 0.718384 0.092810 0.750000
O O16 0.500000 0.104374 0.695913
#
# Coordination Sequence:
#
# PCOD9472853 Si02
#       6
#    16  16  16  16  16  16
#     4  10  20  35  58  84 112 146 184 229 279 332
#     4   9  18  35  55  77 108 146 190 234 276 329
#     4  12  23  34  52  79 111 151 196 241 283 328
#     4  11  22  37  57  82 114 151 189 235 285 333
#     4   9  21  39  59  83 113 150 188 229 285 341
#     4  10  21  38  62  89 114 143 182 228 277 335
#
# _framework density 17.610299000000001
#
# number of rings (size 3 to 8) (size 9 to 14) (size 15 to 20)
#    0.000    1.833    1.667    4.000    0.000    6.000 
#    0.000    4.167    0.000    1.000    0.000    0.000 
#    0.000    0.000    0.000    0.000    0.000    0.000 
#
# Total GULP energy -268129.501424 kJ/mol
# GULP energy per Si atom -5586.031280 kJ/mol
# Density = 1.757022 g / cm^3
# Si number density = 17.610299 Si / 1000 Ang^3
#
#
#
# Elastic Constant Matrix: (Units=GPa)
#
#
# Indices 1 2 3 4 5 6 
#
# 1 93.8457 74.9582 69.8424 0.0000 0.0000 0.0000
# 2 74.9582 140.6994 63.1819 0.0000 0.0000 0.0000
# 3 69.8424 63.1819 119.9699 0.0000 0.0000 0.0000
# 4 0.0000 0.0000 0.0000 13.7986 0.0000 0.0000
# 5 0.0000 0.0000 0.0000 0.0000 30.2387 0.0000
# 6 0.0000 0.0000 0.0000 0.0000 0.0000 28.7312
#
#
#
# Elastic Compliance Matrix: (Units=1/GPa)
#
#
# Indices 1 2 3 4 5 6 
#
# 1 0.025240 -0.008970 -0.009970 0.000000 0.000000 0.000000
# 2 -0.008970 0.012496 -0.001359 0.000000 0.000000 0.000000
# 3 -0.009970 -0.001359 0.014856 0.000000 0.000000 0.000000
# 4 0.000000 0.000000 0.000000 0.072471 0.000000 0.000000
# 5 0.000000 0.000000 0.000000 0.000000 0.033070 0.000000
# 6 0.000000 0.000000 0.000000 0.000000 0.000000 0.034805
#
#
# Mechanical properties :
#
#
# Convention : Reuss Voigt Hill
#
# Bulk Modulus (GPa) = 83.37587 85.60889 84.49238
# Shear Modulus (GPa) = 21.04951 24.32253 22.68602
#
# Velocity S-wave (km/s) = 3.46106 3.72042 3.59308
# Velocity P-wave (km/s) = 7.96364 8.19597 8.08064
#
# Compressibility (1/GPa) = 0.01199388
#
# Stress axis : x y z
#
# Youngs Moduli (GPa) = 39.61923 80.02289 67.31463
#
# Poissons Ratio (x) = 0.71778 0.67114
# Poissons Ratio (y) = 0.35537 0.09150
# Poissons Ratio (z) = 0.39501 0.10878
#
# Static dielectric constant tensor:
#      x y z
#    x 1.587520 0.000000 0.000000 
#    y 0.000000 1.598460 0.000000 
#    z 0.000000 0.000000 1.574270 
# 
# From -- ./inp_files/66975.got.cif
#   From: 2010.05.17/outbox.cif.g08.bks.cpg/sg63_34_cif.got.tgz:66975.got - 2010.06.03 15:47:04.
