data_PCOD9472530
_publ_section_title
;
Structure prediction by ZEFSAII (Michael W. Deem and Ramdas Pophale) SiO2 
 PCOD9472530
Probable space group: C M C M
;
_chemical_formula_sum "Si O2"
_cell_formula_units_Z 72
_cell_length_a 21.769388
_cell_length_b 19.597855
_cell_length_c 8.990912
_cell_angle_alpha 90.000000
_cell_angle_beta 90.000000
_cell_angle_gamma 90.000000
_cell_volume 3835.822542
_symmetry_space_group_name_H-M "C M C M"
_symmetry_group_IT_number 63
_symmetry_cell_setting 'orthorhombic'
loop_
_space_group_symop_operation_xyz
x,y,z
-x,-y,1/2+z
x,-y,-z
-x,y,1/2-z
-x,-y,-z
x,y,1/2-z
-x,y,z
x,-y,1/2+z
1/2+x,1/2+y,z
1/2-x,1/2-y,1/2+z
1/2+x,1/2-y,-z
1/2-x,1/2+y,1/2-z
1/2-x,1/2-y,-z
1/2+x,1/2+y,1/2-z
1/2-x,1/2+y,z
1/2+x,1/2-y,1/2+z
loop_
_atom_site_type_symbol
_atom_site_label
_atom_site_fract_x
_atom_site_fract_y
_atom_site_fract_z
Si Si1 0.612708 0.159639 0.571053
Si Si2 0.750557 0.325516 0.428197
Si Si3 0.373025 0.680481 0.073664
Si Si4 0.500000 0.923893 0.570526
Si Si5 0.571554 0.563974 0.914943
O O1 0.603219 0.153355 0.750000
O O2 0.683886 0.139676 0.537262
O O3 0.612324 0.240809 0.533240
O O4 0.560417 0.117185 0.487254
O O5 0.746841 0.319993 0.250000
O O6 0.750000 0.250000 0.500000
O O7 0.687683 0.352034 0.497421
O O8 0.365087 0.679463 0.250000
O O9 0.424840 0.630940 0.014822
O O10 0.500000 0.927666 0.750000
O O11 0.500000 0.000000 0.500000
O O12 0.597865 0.574882 0.750000
O O13 0.500000 0.548113 0.895757
O O14 0.600754 0.500000 0.000000
#
# Coordination Sequence:
#
# PCOD9472530 Si02
#       5
#    16  16  16   8  16
#     4   9  20  38  59  84 114 147 184 228 281 335
#     4   9  17  32  55  83 114 147 182 230 283 333
#     4  10  20  34  57  86 116 150 186 232 281 332
#     4  12  26  42  62  84 113 150 189 238 290 344
#     4  10  21  36  53  76 110 150 189 230 275 327
#
# _framework density 18.770420999999999
#
# number of rings (size 3 to 8) (size 9 to 14) (size 15 to 20)
#    0.000    2.222    0.000    4.333    1.556    6.667 
#    0.000    1.111    0.000    5.333    0.000    0.000 
#    0.000    0.000    0.000    0.000    0.000    0.000 
#
# Total GULP energy -200416.493293 kJ/mol
# GULP energy per Si atom -5567.124814 kJ/mol
# Density = 1.872770 g / cm^3
# Si number density = 18.770421 Si / 1000 Ang^3
#
#
#
# Elastic Constant Matrix: (Units=GPa)
#
#
# Indices 1 2 3 4 5 6 
#
# 1 107.9051 45.5497 63.8054 0.0000 0.0000 0.0000
# 2 45.5497 85.7493 53.2669 0.0000 0.0000 0.0000
# 3 63.8054 53.2669 102.7728 0.0000 0.0000 0.0000
# 4 0.0000 0.0000 0.0000 25.2010 0.0000 0.0000
# 5 0.0000 0.0000 0.0000 0.0000 34.0714 0.0000
# 6 0.0000 0.0000 0.0000 0.0000 0.0000 -4.5187
#
#
#
# Elastic Compliance Matrix: (Units=1/GPa)
#
#
# Indices 1 2 3 4 5 6 
#
# 1 0.015241 -0.003271 -0.007767 0.000000 0.000000 0.000000
# 2 -0.003271 0.017902 -0.007247 0.000000 0.000000 0.000000
# 3 -0.007767 -0.007247 0.018308 0.000000 0.000000 0.000000
# 4 0.000000 0.000000 0.000000 0.039681 0.000000 0.000000
# 5 0.000000 0.000000 0.000000 0.000000 0.029350 0.000000
# 6 0.000000 0.000000 0.000000 0.000000 0.000000 -0.221302
#
#
# Mechanical properties :
#
#
# Convention : Reuss Voigt Hill
#
# Bulk Modulus (GPa) = 67.20364 69.07458 68.13911
# Shear Modulus (GPa) = -84.33217 19.87107 -32.23055
#
# Velocity S-wave (km/s) = -6.71012 3.25720 -4.14828
# Velocity P-wave (km/s) = 4.91464 7.14321 3.66550
#
# Compressibility (1/GPa) = 0.01488015
#
# Stress axis : x y z
#
# Youngs Moduli (GPa) = 65.61357 55.86067 54.62000
#
# Poissons Ratio (x) = 0.18274 0.42421
# Poissons Ratio (y) = 0.21464 0.39586
# Poissons Ratio (z) = 0.50959 0.40485
#
# Static dielectric constant tensor:
#      x y z
#    x 1.878300 0.000000 0.000000 
#    y 0.000000 1.403550 0.000000 
#    z 0.000000 0.000000 1.673160 
# 
# From -- ./inp_files/7812.got.cif
#   From: 2010.05.17/outbox.cif.g08.bks.cpg/sg63_4_cif.got.tgz:7812.got - 2010.06.03 15:47:04.
