data_PCOD9472349
_publ_section_title
;
Structure prediction by ZEFSAII (Michael W. Deem and Ramdas Pophale) SiO2 
 PCOD9472349
Probable space group: C M C M
;
_chemical_formula_sum "Si O2"
_cell_formula_units_Z 96
_cell_length_a 24.341452
_cell_length_b 22.462190
_cell_length_c 8.904264
_cell_angle_alpha 90.000000
_cell_angle_beta 90.000000
_cell_angle_gamma 90.000000
_cell_volume 4868.516040
_symmetry_space_group_name_H-M "C M C M"
_symmetry_group_IT_number 63
_symmetry_cell_setting 'orthorhombic'
loop_
_space_group_symop_operation_xyz
x,y,z
-x,-y,1/2+z
x,-y,-z
-x,y,1/2-z
-x,-y,-z
x,y,1/2-z
-x,y,z
x,-y,1/2+z
1/2+x,1/2+y,z
1/2-x,1/2-y,1/2+z
1/2+x,1/2-y,-z
1/2-x,1/2+y,1/2-z
1/2-x,1/2-y,-z
1/2+x,1/2+y,1/2-z
1/2-x,1/2+y,z
1/2+x,1/2-y,1/2+z
loop_
_atom_site_type_symbol
_atom_site_label
_atom_site_fract_x
_atom_site_fract_y
_atom_site_fract_z
Si Si1 0.437564 0.065868 0.930036
Si Si2 0.834611 0.758886 0.926378
Si Si3 0.165457 0.367750 0.570913
Si Si4 0.436802 0.688761 0.575014
Si Si5 0.108143 0.059364 0.926477
Si Si6 0.714718 0.386490 0.569533
O O1 0.433411 0.062362 0.750000
O O2 0.500000 0.086666 0.967391
O O3 0.388809 0.106612 0.993129
O O4 0.431521 0.000000 0.000000
O O5 0.826155 0.747225 0.750000
O O6 0.799990 0.817640 0.970249
O O7 0.824542 0.700280 0.022372
O O8 0.897174 0.777167 0.962609
O O9 0.159089 0.371578 0.750000
O O10 0.222514 0.400511 0.527833
O O11 0.420492 0.700133 0.750000
O O12 0.500000 0.704869 0.557618
O O13 0.427786 0.618445 0.548282
O O14 0.113287 0.050273 0.750000
O O15 0.168160 0.073709 0.994205
O O16 0.085106 0.000000 0.000000
O O17 0.709534 0.390851 0.750000
#
# Coordination Sequence:
#
# PCOD9472349 Si02
#       6
#    16  16  16  16  16  16
#     4  10  22  41  62  83 109 140 175 218 267 316
#     4  10  20  35  55  80 111 143 177 221 270 316
#     4  11  22  36  58  85 110 141 180 217 260 318
#     4   9  19  36  55  76 105 142 183 225 269 317
#     4  10  20  34  54  78 106 142 181 223 271 319
#     4   9  20  37  55  78 109 143 179 221 267 315
#
# _framework density 19.718534999999999
#
# number of rings (size 3 to 8) (size 9 to 14) (size 15 to 20)
#    0.000    2.167    0.000    2.500    0.000    5.667 
#    0.000    0.000    0.000    0.000    0.000    0.000 
#    0.000    0.000    0.000    0.000    0.000    0.000 
#
# Total GULP energy -268000.620396 kJ/mol
# GULP energy per Si atom -5583.346258 kJ/mol
# Density = 1.967365 g / cm^3
# Si number density = 19.718535 Si / 1000 Ang^3
#
#
#
# Elastic Constant Matrix: (Units=GPa)
#
#
# Indices 1 2 3 4 5 6 
#
# 1 80.9353 -8.9832 20.7974 0.0000 0.0000 0.0000
# 2 -8.9832 13.1343 -0.2407 0.0000 0.0000 0.0000
# 3 20.7974 -0.2407 29.0897 0.0000 0.0000 0.0000
# 4 0.0000 0.0000 0.0000 37.4606 0.0000 0.0000
# 5 0.0000 0.0000 0.0000 0.0000 20.9893 0.0000
# 6 0.0000 0.0000 0.0000 0.0000 0.0000 -2.8046
#
#
#
# Elastic Compliance Matrix: (Units=1/GPa)
#
#
# Indices 1 2 3 4 5 6 
#
# 1 0.016624 0.011154 -0.011793 0.000000 0.000000 0.000000
# 2 0.011154 0.083631 -0.007282 0.000000 0.000000 0.000000
# 3 -0.011793 -0.007282 0.042747 0.000000 0.000000 0.000000
# 4 0.000000 0.000000 0.000000 0.026695 0.000000 0.000000
# 5 0.000000 0.000000 0.000000 0.000000 0.047643 0.000000
# 6 0.000000 0.000000 0.000000 0.000000 0.000000 -0.356551
#
#
# Mechanical properties :
#
#
# Convention : Reuss Voigt Hill
#
# Bulk Modulus (GPa) = 7.86409 16.25625 12.06017
# Shear Modulus (GPa) = -61.74258 18.56811 -21.58724
#
# Velocity S-wave (km/s) = -5.60178 3.07197 -3.31232
# Velocity P-wave (km/s) = 6.15167 4.56560 2.91533
#
# Compressibility (1/GPa) = 0.12716029
#
# Stress axis : x y z
#
# Youngs Moduli (GPa) = 60.15458 11.95722 23.39326
#
# Poissons Ratio (x) = -0.13337 0.27587
# Poissons Ratio (y) = -0.67094 0.17035
# Poissons Ratio (z) = 0.70939 0.08707
#
# Static dielectric constant tensor:
#      x y z
#    x 1.701910 0.000000 0.000000 
#    y 0.000000 1.689970 0.000000 
#    z 0.000000 0.000000 1.662920 
# 
# From -- ./inp_files/10489.got.cif
#   From: 2010.05.17/outbox.cif.g08.bks.cpg/sg63_6_cif.got.tgz:10489.got - 2010.06.03 15:47:04.
