data_PCOD9472322
_publ_section_title
;
Structure prediction by ZEFSAII (Michael W. Deem and Ramdas Pophale) SiO2 
 PCOD9472322
Probable space group: C M C M
;
_chemical_formula_sum "Si O2"
_cell_formula_units_Z 88
_cell_length_a 15.921708
_cell_length_b 29.638773
_cell_length_c 8.492832
_cell_angle_alpha 90.000000
_cell_angle_beta 90.000000
_cell_angle_gamma 90.000000
_cell_volume 4007.766480
_symmetry_space_group_name_H-M "C M C M"
_symmetry_group_IT_number 63
_symmetry_cell_setting 'orthorhombic'
loop_
_space_group_symop_operation_xyz
x,y,z
-x,-y,1/2+z
x,-y,-z
-x,y,1/2-z
-x,-y,-z
x,y,1/2-z
-x,y,z
x,-y,1/2+z
1/2+x,1/2+y,z
1/2-x,1/2-y,1/2+z
1/2+x,1/2-y,-z
1/2-x,1/2+y,1/2-z
1/2-x,1/2-y,-z
1/2+x,1/2+y,1/2-z
1/2-x,1/2+y,z
1/2+x,1/2-y,1/2+z
loop_
_atom_site_type_symbol
_atom_site_label
_atom_site_fract_x
_atom_site_fract_y
_atom_site_fract_z
Si Si1 0.101300 0.718119 0.428986
Si Si2 0.725100 0.471954 0.250000
Si Si3 0.864158 0.385033 0.569092
Si Si4 0.325156 0.398935 0.503330
Si Si5 0.601099 0.688317 0.067726
Si Si6 0.911011 0.048232 0.250000
Si Si7 0.405668 0.057566 0.750000
O O1 0.131438 0.724175 0.250000
O O2 0.123021 0.667325 0.476611
O O3 0.129688 0.760839 0.529987
O O4 0.000000 0.719783 0.428407
O O5 0.696676 0.439976 0.390374
O O6 0.670116 0.516460 0.250000
O O7 0.826062 0.476622 0.250000
O O8 0.898911 0.392396 0.750000
O O9 0.764801 0.392152 0.582953
O O10 0.895367 0.413965 0.415600
O O11 0.355708 0.349081 0.457212
O O12 0.401009 0.418702 0.604237
O O13 0.621989 0.677702 0.250000
O O14 0.500000 0.686415 0.050518
O O15 0.000000 0.023606 0.250000
O O16 0.500000 0.038372 0.750000
#
# Coordination Sequence:
#
# PCOD9472322 Si02
#       7
#    16   8  16  16  16   8   8
#     4   9  19  33  52  82 118 160 210 260 304 360
#     4  10  26  42  64  96 129 157 205 272 321 387
#     4  10  20  38  62  92 130 173 213 265 315 371
#     4  11  22  41  62  90 124 165 208 258 321 385
#     4  10  20  34  53  80 120 164 208 258 310 372
#     4  12  24  44  71  96 124 165 209 261 331 395
#     4  10  22  40  67  98 129 170 214 263 322 386
#
# _framework density 21.957367000000001
#
# number of rings (size 3 to 8) (size 9 to 14) (size 15 to 20)
#    0.000    1.818    1.818    1.636    2.545    4.000 
#    0.000    0.000    0.000    9.818    0.000    0.000 
#    0.000    0.000    0.000    0.000    0.000    0.000 
#
# Total GULP energy -245123.963701 kJ/mol
# GULP energy per Si atom -5570.999175 kJ/mol
# Density = 2.190739 g / cm^3
# Si number density = 21.957367 Si / 1000 Ang^3
#
#
#
# Elastic Constant Matrix: (Units=GPa)
#
#
# Indices 1 2 3 4 5 6 
#
# 1 103.4703 25.4614 21.3758 0.0000 0.0000 0.0000
# 2 25.4614 67.4965 5.2070 0.0000 0.0000 0.0000
# 3 21.3758 5.2070 50.1342 0.0000 0.0000 0.0000
# 4 0.0000 0.0000 0.0000 7.2932 0.0000 0.0000
# 5 0.0000 0.0000 0.0000 0.0000 15.9130 0.0000
# 6 0.0000 0.0000 0.0000 0.0000 0.0000 38.7120
#
#
#
# Elastic Compliance Matrix: (Units=1/GPa)
#
#
# Indices 1 2 3 4 5 6 
#
# 1 0.011589 -0.004023 -0.004523 0.000000 0.000000 0.000000
# 2 -0.004023 0.016332 0.000019 0.000000 0.000000 0.000000
# 3 -0.004523 0.000019 0.021873 0.000000 0.000000 0.000000
# 4 0.000000 0.000000 0.000000 0.137114 0.000000 0.000000
# 5 0.000000 0.000000 0.000000 0.000000 0.062842 0.000000
# 6 0.000000 0.000000 0.000000 0.000000 0.000000 0.025832
#
#
# Mechanical properties :
#
#
# Convention : Reuss Voigt Hill
#
# Bulk Modulus (GPa) = 30.54425 36.13216 33.33821
# Shear Modulus (GPa) = 16.47180 23.65409 20.06294
#
# Velocity S-wave (km/s) = 2.74190 3.28574 3.02606
# Velocity P-wave (km/s) = 4.89540 5.55753 5.23694
#
# Compressibility (1/GPa) = 0.03273938
#
# Stress axis : x y z
#
# Youngs Moduli (GPa) = 86.28888 61.23101 45.71814
#
# Poissons Ratio (x) = 0.24631 0.20680
# Poissons Ratio (y) = 0.34711 -0.00087
# Poissons Ratio (z) = 0.39032 -0.00116
#
# Static dielectric constant tensor:
#      x y z
#    x 1.798180 0.000000 0.000000 
#    y 0.000000 1.787880 0.000000 
#    z 0.000000 0.000000 1.860800 
# 
# From -- ./inp_files/6931.got.cif
#   From: 2010.05.17/outbox.cif.g08.bks.cpg/sg63_4_cif.got.tgz:6931.got - 2010.06.03 15:47:04.
