data_PCOD9472628
_publ_section_title
;
Structure prediction by ZEFSAII (Michael W. Deem and Ramdas Pophale) SiO2 
 PCOD9472628
Probable space group: C M C M
;
_chemical_formula_sum "Si O2"
_cell_formula_units_Z 112
_cell_length_a 12.893384
_cell_length_b 12.991693
_cell_length_c 28.739906
_cell_angle_alpha 90.000000
_cell_angle_beta 90.000000
_cell_angle_gamma 90.000000
_cell_volume 4814.132177
_symmetry_space_group_name_H-M "C M C M"
_symmetry_group_IT_number 63
_symmetry_cell_setting 'orthorhombic'
loop_
_space_group_symop_operation_xyz
x,y,z
-x,-y,1/2+z
x,-y,-z
-x,y,1/2-z
-x,-y,-z
x,y,1/2-z
-x,y,z
x,-y,1/2+z
1/2+x,1/2+y,z
1/2-x,1/2-y,1/2+z
1/2+x,1/2-y,-z
1/2-x,1/2+y,1/2-z
1/2-x,1/2-y,-z
1/2+x,1/2+y,1/2-z
1/2-x,1/2+y,z
1/2+x,1/2-y,1/2+z
loop_
_atom_site_type_symbol
_atom_site_label
_atom_site_fract_x
_atom_site_fract_y
_atom_site_fract_z
Si Si1 0.119814 0.272153 0.350224
Si Si2 0.612749 0.332351 0.995468
Si Si3 0.615593 0.705231 0.250000
Si Si4 0.610149 0.603935 0.896337
Si Si5 0.377785 0.538887 0.750000
Si Si6 0.162122 0.606303 0.476280
Si Si7 0.678553 0.178182 0.376604
Si Si8 0.775914 0.477558 0.163320
O O1 0.159547 0.237731 0.299131
O O2 0.202357 0.218724 0.384106
O O3 0.136168 0.394144 0.347303
O O4 0.000000 0.243956 0.357526
O O5 0.500000 0.360600 0.975873
O O6 0.613649 0.364553 0.049937
O O7 0.626623 0.208222 0.995345
O O8 0.712948 0.387545 0.975826
O O9 0.500000 0.752657 0.250000
O O10 0.608229 0.583670 0.250000
O O11 0.500000 0.556004 0.884497
O O12 0.622250 0.712902 0.869302
O O13 0.701387 0.529732 0.881522
O O14 0.500000 0.579452 0.750000
O O15 0.301528 0.555207 0.705346
O O16 0.128915 0.500000 0.500000
O O17 0.131645 0.625786 0.422838
O O18 0.679615 0.092412 0.336437
#
# Coordination Sequence:
#
# PCOD9472628 Si02
#       8
#    16  16   8  16   8  16  16  16
#     4  10  21  37  57  81 109 142 178 220 266 315
#     4   9  19  36  55  77 105 139 177 220 270 321
#     4   9  17  34  56  76 104 138 170 211 263 307
#     4   9  19  36  56  77 106 140 176 221 271 319
#     4  11  21  34  57  84 110 142 179 219 262 313
#     4  10  20  35  54  77 108 141 177 223 267 316
#     4  10  21  35  53  79 109 141 179 220 269 317
#     4  11  21  35  57  83 106 141 182 220 261 316
#
# _framework density 23.264838000000001
#
# number of rings (size 3 to 8) (size 9 to 14) (size 15 to 20)
#    0.000    2.143    1.429    1.714    0.000    3.429 
#    0.000    0.000    0.000    0.000    0.000    0.000 
#    0.000    0.000    0.000    0.000    0.000    0.000 
#
# Total GULP energy -312419.701805 kJ/mol
# GULP energy per Si atom -5578.923247 kJ/mol
# Density = 2.321189 g / cm^3
# Si number density = 23.264838 Si / 1000 Ang^3
#
#
#
# Elastic Constant Matrix: (Units=GPa)
#
#
# Indices 1 2 3 4 5 6 
#
# 1 75.0086 -7.5874 6.2707 0.0000 0.0000 0.0000
# 2 -7.5874 66.3508 10.1963 0.0000 0.0000 0.0000
# 3 6.2707 10.1963 51.1962 0.0000 0.0000 0.0000
# 4 0.0000 0.0000 0.0000 30.1167 0.0000 0.0000
# 5 0.0000 0.0000 0.0000 0.0000 -15.7799 0.0000
# 6 0.0000 0.0000 0.0000 0.0000 0.0000 -2.7692
#
#
#
# Elastic Compliance Matrix: (Units=1/GPa)
#
#
# Indices 1 2 3 4 5 6 
#
# 1 0.013694 0.001881 -0.002052 0.000000 0.000000 0.000000
# 2 0.001881 0.015806 -0.003378 0.000000 0.000000 0.000000
# 3 -0.002052 -0.003378 0.020457 0.000000 0.000000 0.000000
# 4 0.000000 0.000000 0.000000 0.033204 0.000000 0.000000
# 5 0.000000 0.000000 0.000000 0.000000 -0.063372 0.000000
# 6 0.000000 0.000000 0.000000 0.000000 0.000000 -0.361109
#
#
# Mechanical properties :
#
#
# Convention : Reuss Voigt Hill
#
# Bulk Modulus (GPa) = 23.33276 23.36831 23.35054
# Shear Modulus (GPa) = -15.62810 14.55858 -0.53476
#
# Velocity S-wave (km/s) = -2.59462 2.50427 -0.47995
# Velocity P-wave (km/s) = 1.03677 4.29279 3.12274
#
# Compressibility (1/GPa) = 0.04285820
#
# Stress axis : x y z
#
# Youngs Moduli (GPa) = 73.02658 63.26834 48.88337
#
# Poissons Ratio (x) = -0.11902 0.10031
# Poissons Ratio (y) = -0.13738 0.16514
# Poissons Ratio (z) = 0.14985 0.21374
#
# Static dielectric constant tensor:
#      x y z
#    x 1.908020 0.000000 0.000000 
#    y 0.000000 1.863040 0.000000 
#    z 0.000000 0.000000 1.934980 
# 
# From -- ./inp_files/69434.got.cif
#   From: 2010.05.17/outbox.cif.g08.bks.cpg/sg63_35_cif.got.tgz:69434.got - 2010.06.03 15:47:04.
