data_PCOD9472151
_publ_section_title
;
Structure prediction by ZEFSAII (Michael W. Deem and Ramdas Pophale) SiO2 
 PCOD9472151
Probable space group: C M C M
;
_chemical_formula_sum "Si O2"
_cell_formula_units_Z 104
_cell_length_a 20.940944
_cell_length_b 32.658612
_cell_length_c 8.780643
_cell_angle_alpha 90.000000
_cell_angle_beta 90.000000
_cell_angle_gamma 90.000000
_cell_volume 6005.100758
_symmetry_space_group_name_H-M "C M C M"
_symmetry_group_IT_number 63
_symmetry_cell_setting 'orthorhombic'
loop_
_space_group_symop_operation_xyz
x,y,z
-x,-y,1/2+z
x,-y,-z
-x,y,1/2-z
-x,-y,-z
x,y,1/2-z
-x,y,z
x,-y,1/2+z
1/2+x,1/2+y,z
1/2-x,1/2-y,1/2+z
1/2+x,1/2-y,-z
1/2-x,1/2+y,1/2-z
1/2-x,1/2-y,-z
1/2+x,1/2+y,1/2-z
1/2-x,1/2+y,z
1/2+x,1/2-y,1/2+z
loop_
_atom_site_type_symbol
_atom_site_label
_atom_site_fract_x
_atom_site_fract_y
_atom_site_fract_z
Si Si1 0.500000 0.955345 0.567418
Si Si2 0.741301 0.542679 0.932825
Si Si3 0.926928 0.729295 0.067421
Si Si4 0.824898 0.333168 0.432703
Si Si5 0.427494 0.319808 0.931164
Si Si6 0.634997 0.080285 0.433273
Si Si7 0.189435 0.132848 0.566935
O O1 0.500000 0.957602 0.750000
O O2 0.564478 0.933021 0.521356
O O3 0.500000 0.000000 0.500000
O O4 0.743849 0.540149 0.750000
O O5 0.705478 0.585449 0.973094
O O6 0.715251 0.500000 0.000000
O O7 0.811952 0.549756 0.000543
O O8 0.923744 0.727277 0.250000
O O9 0.000000 0.716198 0.022508
O O10 0.869580 0.702343 0.999292
O O11 0.919352 0.775902 0.011928
O O12 0.827982 0.331850 0.250000
O O13 0.852437 0.375570 0.495881
O O14 0.749647 0.337646 0.474866
O O15 0.421505 0.314066 0.750000
O O16 0.500000 0.333943 0.963658
O O17 0.374181 0.350739 0.989928
O O18 0.640323 0.081658 0.250000
O O19 0.183356 0.134478 0.750000
#
# Coordination Sequence:
#
# PCOD9472151 Si02
#       7
#     8  16  16  16  16  16  16
#     4  10  22  34  46  66  94 130 176 224 268 318
#     4  10  20  35  55  80 107 137 176 219 264 318
#     4  10  21  36  55  78 107 146 187 224 266 320
#     4  10  21  36  53  78 108 140 181 227 271 316
#     4  10  21  37  58  84 110 137 174 218 265 320
#     4  10  20  34  50  71 101 138 178 224 272 320
#     4   9  20  37  56  80 110 141 177 217 264 323
#
# _framework density 17.31861
#
# number of rings (size 3 to 8) (size 9 to 14) (size 15 to 20)
#    0.000    2.154    0.000    3.692    1.077    8.615 
#    0.000    0.000    0.000    0.462    0.000    0.000 
#    0.000    0.000    0.000    0.000    0.000    0.000 
#
# Total GULP energy -290060.457296 kJ/mol
# GULP energy per Si atom -5578.085717 kJ/mol
# Density = 1.727919 g / cm^3
# Si number density = 17.318610 Si / 1000 Ang^3
#
#
#
# Elastic Constant Matrix: (Units=GPa)
#
#
# Indices 1 2 3 4 5 6 
#
# 1 132.2240 74.6895 54.3419 0.0000 0.0000 0.0000
# 2 74.6895 82.8085 37.2010 0.0000 0.0000 0.0000
# 3 54.3419 37.2010 49.2435 0.0000 0.0000 0.0000
# 4 0.0000 0.0000 0.0000 35.3034 0.0000 0.0000
# 5 0.0000 0.0000 0.0000 0.0000 28.5056 0.0000
# 6 0.0000 0.0000 0.0000 0.0000 0.0000 11.4974
#
#
#
# Elastic Compliance Matrix: (Units=1/GPa)
#
#
# Indices 1 2 3 4 5 6 
#
# 1 0.019390 -0.011922 -0.012391 0.000000 0.000000 0.000000
# 2 -0.011922 0.025611 -0.006191 0.000000 0.000000 0.000000
# 3 -0.012391 -0.006191 0.038658 0.000000 0.000000 0.000000
# 4 0.000000 0.000000 0.000000 0.028326 0.000000 0.000000
# 5 0.000000 0.000000 0.000000 0.000000 0.035081 0.000000
# 6 0.000000 0.000000 0.000000 0.000000 0.000000 0.086976
#
#
# Mechanical properties :
#
#
# Convention : Reuss Voigt Hill
#
# Bulk Modulus (GPa) = 44.14916 66.30453 55.22684
# Shear Modulus (GPa) = 16.52352 21.59752 19.06052
#
# Velocity S-wave (km/s) = 3.09219 3.53522 3.32110
# Velocity P-wave (km/s) = 6.18842 7.41835 6.83112
#
# Compressibility (1/GPa) = 0.02265049
#
# Stress axis : x y z
#
# Youngs Moduli (GPa) = 51.57327 39.04618 25.86816
#
# Poissons Ratio (x) = 0.46553 0.32052
# Poissons Ratio (y) = 0.61488 0.16014
# Poissons Ratio (z) = 0.63902 0.24173
#
# Static dielectric constant tensor:
#      x y z
#    x 1.587700 0.000000 0.000000 
#    y 0.000000 1.579080 0.000000 
#    z 0.000000 0.000000 1.579160 
# 
# From -- ./inp_files/9085.got.cif
#   From: 2010.05.17/outbox.cif.g08.bks.cpg/sg63_5_cif.got.tgz:9085.got - 2010.06.03 15:47:04.
