data_PCOD9472852
_publ_section_title
;
Structure prediction by ZEFSAII (Michael W. Deem and Ramdas Pophale) SiO2 
 PCOD9472852
Probable space group: C M C M
;
_chemical_formula_sum "Si O2"
_cell_formula_units_Z 48
_cell_length_a 7.732826
_cell_length_b 38.865329
_cell_length_c 8.744954
_cell_angle_alpha 90.000000
_cell_angle_beta 90.000000
_cell_angle_gamma 90.000000
_cell_volume 2628.198214
_symmetry_space_group_name_H-M "C M C M"
_symmetry_group_IT_number 63
_symmetry_cell_setting 'orthorhombic'
loop_
_space_group_symop_operation_xyz
x,y,z
-x,-y,1/2+z
x,-y,-z
-x,y,1/2-z
-x,-y,-z
x,y,1/2-z
-x,y,z
x,-y,1/2+z
1/2+x,1/2+y,z
1/2-x,1/2-y,1/2+z
1/2+x,1/2-y,-z
1/2-x,1/2+y,1/2-z
1/2-x,1/2-y,-z
1/2+x,1/2+y,1/2-z
1/2-x,1/2+y,z
1/2+x,1/2-y,1/2+z
loop_
_atom_site_type_symbol
_atom_site_label
_atom_site_fract_x
_atom_site_fract_y
_atom_site_fract_z
Si Si1 0.201785 0.037822 0.567022
Si Si2 0.303491 0.286945 0.065671
Si Si3 0.000000 0.585073 0.432278
Si Si4 0.500000 0.161375 0.935128
O O1 0.222704 0.037069 0.750000
O O2 0.332219 0.065162 0.495998
O O3 0.000000 0.045562 0.532870
O O4 0.239819 0.000000 0.500000
O O5 0.297390 0.284663 0.250000
O O6 0.500000 0.294939 0.019466
O O7 0.167349 0.316144 0.019776
O O8 0.250000 0.250000 0.000000
O O9 0.000000 0.624071 0.491078
O O10 0.000000 0.583890 0.250000
O O11 0.500000 0.157829 0.750000
#
# Coordination Sequence:
#
# PCOD9472852 Si02
#       4
#    16  16   8   8
#     4  10  21  39  64  91 120 157 200 245 292 348
#     4  10  20  35  58  84 110 142 184 233 285 342
#     4  12  25  39  58  86 123 160 198 248 298 351
#     4  10  22  39  55  80 116 154 195 240 291 349
#
# _framework density 18.263462000000001
#
# number of rings (size 3 to 8) (size 9 to 14) (size 15 to 20)
#    0.000    1.667    1.667    3.000    0.000    4.667 
#    0.000    3.333    0.000    0.000    0.000    0.000 
#    0.000    0.000    0.000    0.000    0.000    0.000 
#
# Total GULP energy -134120.700590 kJ/mol
# GULP energy per Si atom -5588.362525 kJ/mol
# Density = 1.822189 g / cm^3
# Si number density = 18.263462 Si / 1000 Ang^3
#
#
#
# Elastic Constant Matrix: (Units=GPa)
#
#
# Indices 1 2 3 4 5 6 
#
# 1 180.9660 131.4054 63.8694 0.0000 0.0000 0.0000
# 2 131.4054 195.4190 68.2039 0.0000 0.0000 0.0000
# 3 63.8694 68.2039 61.7576 0.0000 0.0000 0.0000
# 4 0.0000 0.0000 0.0000 38.1191 0.0000 0.0000
# 5 0.0000 0.0000 0.0000 0.0000 21.9700 0.0000
# 6 0.0000 0.0000 0.0000 0.0000 0.0000 -16.6072
#
#
#
# Elastic Compliance Matrix: (Units=1/GPa)
#
#
# Indices 1 2 3 4 5 6 
#
# 1 0.011896 -0.006029 -0.005644 0.000000 0.000000 0.000000
# 2 -0.006029 0.011383 -0.006335 0.000000 0.000000 0.000000
# 3 -0.005644 -0.006335 0.029026 0.000000 0.000000 0.000000
# 4 0.000000 0.000000 0.000000 0.026234 0.000000 0.000000
# 5 0.000000 0.000000 0.000000 0.000000 0.045517 0.000000
# 6 0.000000 0.000000 0.000000 0.000000 0.000000 -0.060215
#
#
# Mechanical properties :
#
#
# Convention : Reuss Voigt Hill
#
# Bulk Modulus (GPa) = 61.39783 107.23332 84.31558
# Shear Modulus (GPa) = 47.48961 20.34064 33.91512
#
# Velocity S-wave (km/s) = 5.10480 3.34089 4.31396
# Velocity P-wave (km/s) = 8.27261 8.58628 8.43090
#
# Compressibility (1/GPa) = 0.01628722
#
# Stress axis : x y z
#
# Youngs Moduli (GPa) = 84.06166 87.85352 34.45206
#
# Poissons Ratio (x) = 0.52970 0.19445
# Poissons Ratio (y) = 0.50684 0.21826
# Poissons Ratio (z) = 0.47445 0.55657
#
# Static dielectric constant tensor:
#      x y z
#    x 1.637810 0.000000 0.000000 
#    y 0.000000 1.572530 0.000000 
#    z 0.000000 0.000000 1.614560 
# 
# From -- ./inp_files/1994.got.cif
#   From: 2010.05.17/outbox.cif.g08.bks.cpg/sg63_1_cif.got.tgz:1994.got - 2010.06.03 15:47:04.
