data_PCOD9472969
_publ_section_title
;
Structure prediction by ZEFSAII (Michael W. Deem and Ramdas Pophale) SiO2 
 PCOD9472969
Probable space group: C M C M
;
_chemical_formula_sum "Si O2"
_cell_formula_units_Z 96
_cell_length_a 12.489983
_cell_length_b 18.210095
_cell_length_c 22.653142
_cell_angle_alpha 90.000000
_cell_angle_beta 90.000000
_cell_angle_gamma 90.000000
_cell_volume 5152.316177
_symmetry_space_group_name_H-M "C M C M"
_symmetry_group_IT_number 63
_symmetry_cell_setting 'orthorhombic'
loop_
_space_group_symop_operation_xyz
x,y,z
-x,-y,1/2+z
x,-y,-z
-x,y,1/2-z
-x,-y,-z
x,y,1/2-z
-x,y,z
x,-y,1/2+z
1/2+x,1/2+y,z
1/2-x,1/2-y,1/2+z
1/2+x,1/2-y,-z
1/2-x,1/2+y,1/2-z
1/2-x,1/2-y,-z
1/2+x,1/2+y,1/2-z
1/2-x,1/2+y,z
1/2+x,1/2-y,1/2+z
loop_
_atom_site_type_symbol
_atom_site_label
_atom_site_fract_x
_atom_site_fract_y
_atom_site_fract_z
Si Si1 0.329245 0.043305 0.819914
Si Si2 0.193559 0.336433 0.088206
Si Si3 0.619728 0.544816 0.319386
Si Si4 0.500000 0.972988 0.600053
Si Si5 0.500000 0.114916 0.986368
Si Si6 0.624526 0.582753 0.981030
Si Si7 0.374923 0.320729 0.900820
O O1 0.354698 0.045237 0.750000
O O2 0.346478 0.120241 0.853549
O O3 0.206779 0.018071 0.827439
O O4 0.399458 0.984750 0.856816
O O5 0.298273 0.379158 0.066039
O O6 0.199801 0.250254 0.100144
O O7 0.106007 0.344182 0.035763
O O8 0.614683 0.559133 0.250000
O O9 0.500000 0.525276 0.340856
O O10 0.652479 0.618987 0.351988
O O11 0.500000 0.904392 0.555581
O O12 0.500000 0.040911 0.553652
O O13 0.500000 0.577835 0.962727
O O14 0.659460 0.500000 0.000000
O O15 0.630570 0.635206 0.037987
O O16 0.500000 0.297822 0.891992
#
# Coordination Sequence:
#
# PCOD9472969 Si02
#       7
#    16  16  16   8   8  16  16
#     4  10  21  36  56  83 111 145 190 234 275 330
#     4  11  21  35  56  83 114 144 182 233 287 338
#     4   9  19  36  58  82 109 147 194 236 278 329
#     4   9  19  34  52  78 111 149 181 221 274 334
#     4   9  20  32  52  82 113 142 181 221 282 343
#     4  10  22  37  56  81 110 147 185 225 276 336
#     4  10  20  36  54  81 114 146 184 232 283 336
#
# _framework density 18.632397000000001
#
# number of rings (size 3 to 8) (size 9 to 14) (size 15 to 20)
#    0.000    2.167    0.833    1.750    7.000    2.667 
#    0.000    0.000    0.000    0.000    0.000    0.000 
#    0.000    0.000    0.000    0.000    0.000    0.000 
#
# Total GULP energy -267720.844231 kJ/mol
# GULP energy per Si atom -5577.517588 kJ/mol
# Density = 1.858999 g / cm^3
# Si number density = 18.632397 Si / 1000 Ang^3
#
#
#
# Elastic Constant Matrix: (Units=GPa)
#
#
# Indices 1 2 3 4 5 6 
#
# 1 49.1671 11.5550 38.0042 0.0000 0.0000 0.0000
# 2 11.5550 68.8785 53.1729 0.0000 0.0000 0.0000
# 3 38.0042 53.1729 103.3377 0.0000 0.0000 0.0000
# 4 0.0000 0.0000 0.0000 17.2542 0.0000 0.0000
# 5 0.0000 0.0000 0.0000 0.0000 90.7235 0.0000
# 6 0.0000 0.0000 0.0000 0.0000 0.0000 11.1894
#
#
#
# Elastic Compliance Matrix: (Units=1/GPa)
#
#
# Indices 1 2 3 4 5 6 
#
# 1 0.029719 0.005727 -0.013876 0.000000 0.000000 0.000000
# 2 0.005727 0.025189 -0.015067 0.000000 0.000000 0.000000
# 3 -0.013876 -0.015067 0.022533 0.000000 0.000000 0.000000
# 4 0.000000 0.000000 0.000000 0.057957 0.000000 0.000000
# 5 0.000000 0.000000 0.000000 0.000000 0.011023 0.000000
# 6 0.000000 0.000000 0.000000 0.000000 0.000000 0.089370
#
#
# Mechanical properties :
#
#
# Convention : Reuss Voigt Hill
#
# Bulk Modulus (GPa) = 32.25040 47.42747 39.83893
# Shear Modulus (GPa) = 17.09046 31.74349 24.41698
#
# Velocity S-wave (km/s) = 3.03189 4.13203 3.62395
# Velocity P-wave (km/s) = 5.44085 6.94799 6.24009
#
# Compressibility (1/GPa) = 0.03100737
#
# Stress axis : x y z
#
# Youngs Moduli (GPa) = 33.64876 39.69933 44.37894
#
# Poissons Ratio (x) = -0.22734 0.61581
# Poissons Ratio (y) = -0.19269 0.66867
# Poissons Ratio (z) = 0.46692 0.59816
#
# Static dielectric constant tensor:
#      x y z
#    x 1.693580 0.000000 0.000000 
#    y 0.000000 1.623480 0.000000 
#    z 0.000000 0.000000 1.654370 
# 
# From -- ./inp_files/61520.got.cif
#   From: 2010.05.17/outbox.cif.g08.bks.cpg/sg63_31_cif.got.tgz:61520.got - 2010.06.03 15:47:04.
