data_PCOD9472366
_publ_section_title
;
Structure prediction by ZEFSAII (Michael W. Deem and Ramdas Pophale) SiO2 
 PCOD9472366
Probable space group: C M C M
;
_chemical_formula_sum "Si O2"
_cell_formula_units_Z 80
_cell_length_a 8.942356
_cell_length_b 19.627764
_cell_length_c 26.396302
_cell_angle_alpha 90.000000
_cell_angle_beta 90.000000
_cell_angle_gamma 90.000000
_cell_volume 4633.038097
_symmetry_space_group_name_H-M "C M C M"
_symmetry_group_IT_number 63
_symmetry_cell_setting 'orthorhombic'
loop_
_space_group_symop_operation_xyz
x,y,z
-x,-y,1/2+z
x,-y,-z
-x,y,1/2-z
-x,-y,-z
x,y,1/2-z
-x,y,z
x,-y,1/2+z
1/2+x,1/2+y,z
1/2-x,1/2-y,1/2+z
1/2+x,1/2-y,-z
1/2-x,1/2+y,1/2-z
1/2-x,1/2-y,-z
1/2+x,1/2+y,1/2-z
1/2-x,1/2+y,z
1/2+x,1/2-y,1/2+z
loop_
_atom_site_type_symbol
_atom_site_label
_atom_site_fract_x
_atom_site_fract_y
_atom_site_fract_z
Si Si1 0.178664 0.668236 0.105839
Si Si2 0.678391 0.670166 0.610205
Si Si3 0.179192 0.174673 0.002480
Si Si4 0.678572 0.424862 0.808825
Si Si5 0.677686 0.927562 0.308479
O O1 0.213210 0.748977 0.111883
O O2 0.251259 0.642977 0.053007
O O3 0.244035 0.626644 0.152627
O O4 0.000000 0.661664 0.102936
O O5 0.500000 0.663130 0.617998
O O6 0.712505 0.644223 0.553014
O O7 0.765106 0.628525 0.652444
O O8 0.000000 0.179431 0.007204
O O9 0.250000 0.250000 0.000000
O O10 0.712439 0.407941 0.750000
O O11 0.500000 0.423431 0.815386
O O12 0.739748 0.500914 0.818021
O O13 0.709111 0.907707 0.250000
O O14 0.500000 0.937367 0.313447
#
# Coordination Sequence:
#
# PCOD9472366 Si02
#       5
#    16  16  16  16  16
#     4  10  20  34  54  80 108 138 173 214 259 306
#     4   9  19  34  53  78 106 137 171 209 255 304
#     4   9  17  31  51  76 106 138 172 211 258 309
#     4  10  21  37  56  76 102 138 175 213 261 313
#     4  10  21  36  54  76 103 136 173 214 259 307
#
# _framework density 17.267287
#
# number of rings (size 3 to 8) (size 9 to 14) (size 15 to 20)
#    0.000    2.400    0.000    3.600    0.000    8.000 
#    0.000    5.000    0.000    6.000    0.000    0.000 
#    0.000    0.000    0.000    0.000    0.000    0.000 
#
# Total GULP energy -223058.530240 kJ/mol
# GULP energy per Si atom -5576.463256 kJ/mol
# Density = 1.722799 g / cm^3
# Si number density = 17.267287 Si / 1000 Ang^3
#
#
#
# Elastic Constant Matrix: (Units=GPa)
#
#
# Indices 1 2 3 4 5 6 
#
# 1 76.1544 48.0359 80.5740 0.0000 0.0000 0.0000
# 2 48.0359 57.4571 77.5472 0.0000 0.0000 0.0000
# 3 80.5740 77.5472 152.9160 0.0000 0.0000 0.0000
# 4 0.0000 0.0000 0.0000 -60.9326 0.0000 0.0000
# 5 0.0000 0.0000 0.0000 0.0000 36.0131 0.0000
# 6 0.0000 0.0000 0.0000 0.0000 0.0000 31.3575
#
#
#
# Elastic Compliance Matrix: (Units=1/GPa)
#
#
# Indices 1 2 3 4 5 6 
#
# 1 0.032405 -0.012824 -0.010572 0.000000 0.000000 0.000000
# 2 -0.012824 0.060228 -0.023786 0.000000 0.000000 0.000000
# 3 -0.010572 -0.023786 0.024172 0.000000 0.000000 0.000000
# 4 0.000000 0.000000 0.000000 -0.016412 0.000000 0.000000
# 5 0.000000 0.000000 0.000000 0.000000 0.027768 0.000000
# 6 0.000000 0.000000 0.000000 0.000000 0.000000 0.031890
#
#
# Mechanical properties :
#
#
# Convention : Reuss Voigt Hill
#
# Bulk Modulus (GPa) = 44.55740 77.64910 61.10325
# Shear Modulus (GPa) = 19.09154 6.64562 12.86858
#
# Velocity S-wave (km/s) = 3.32874 1.96393 2.73290
# Velocity P-wave (km/s) = 6.37452 7.08585 6.73958
#
# Compressibility (1/GPa) = 0.02244296
#
# Stress axis : x y z
#
# Youngs Moduli (GPa) = 30.85925 16.60352 41.36946
#
# Poissons Ratio (x) = 0.21292 0.43735
# Poissons Ratio (y) = 0.39573 0.98402
# Poissons Ratio (z) = 0.32623 0.39493
#
# Static dielectric constant tensor:
#      x y z
#    x 1.570890 0.000000 0.000000 
#    y 0.000000 1.558890 0.000000 
#    z 0.000000 0.000000 1.607210 
# 
# From -- ./inp_files/66593.got.cif
#   From: 2010.05.17/outbox.cif.g08.bks.cpg/sg63_34_cif.got.tgz:66593.got - 2010.06.03 15:47:04.
