data_PCOD9472130
_publ_section_title
;
Structure prediction by ZEFSAII (Michael W. Deem and Ramdas Pophale) SiO2 
 PCOD9472130
Probable space group: C M C M
;
_chemical_formula_sum "Si O2"
_cell_formula_units_Z 116
_cell_length_a 17.486752
_cell_length_b 18.922310
_cell_length_c 19.263995
_cell_angle_alpha 90.000000
_cell_angle_beta 90.000000
_cell_angle_gamma 90.000000
_cell_volume 6374.258340
_symmetry_space_group_name_H-M "C M C M"
_symmetry_group_IT_number 63
_symmetry_cell_setting 'orthorhombic'
loop_
_space_group_symop_operation_xyz
x,y,z
-x,-y,1/2+z
x,-y,-z
-x,y,1/2-z
-x,-y,-z
x,y,1/2-z
-x,y,z
x,-y,1/2+z
1/2+x,1/2+y,z
1/2-x,1/2-y,1/2+z
1/2+x,1/2-y,-z
1/2-x,1/2+y,1/2-z
1/2-x,1/2-y,-z
1/2+x,1/2+y,1/2-z
1/2-x,1/2+y,z
1/2+x,1/2-y,1/2+z
loop_
_atom_site_type_symbol
_atom_site_label
_atom_site_fract_x
_atom_site_fract_y
_atom_site_fract_z
Si Si1 0.588423 0.076215 0.462927
Si Si2 0.800893 0.633385 0.672778
Si Si3 0.674827 0.792817 0.029076
Si Si4 0.000000 0.115393 0.750000
Si Si5 0.911723 0.157518 0.012130
Si Si6 0.811195 0.037144 0.073849
Si Si7 0.337768 0.026544 0.168122
Si Si8 0.628525 0.598194 0.864992
O O1 0.500000 0.095880 0.478095
O O2 0.648761 0.135828 0.488587
O O3 0.599650 0.063357 0.380556
O O4 0.602964 0.000000 0.500000
O O5 0.816368 0.661594 0.750000
O O6 0.814482 0.684415 0.608579
O O7 0.845226 0.558829 0.664396
O O8 0.711944 0.612799 0.665775
O O9 0.604994 0.738606 0.026321
O O10 0.750000 0.750000 0.000000
O O11 0.065694 0.113252 0.809559
O O12 0.854424 0.109053 0.056642
O O13 0.000000 0.137943 0.022409
O O14 0.887425 0.143974 0.932950
O O15 0.740941 0.044102 0.126802
O O16 0.870124 0.982486 0.108640
O O17 0.787896 0.000000 0.000000
O O18 0.336325 0.045453 0.250000
#
# Coordination Sequence:
#
# PCOD9472130 Si02
#       8
#    16  16  16   4  16  16  16  16
#     4  11  23  41  66  94 125 160 207 266 323 375
#     4  10  20  38  60  87 116 154 207 255 307 362
#     4  12  23  39  65  91 119 164 212 258 307 378
#     4  12  20  32  58  92 132 156 206 242 318 376
#     4  11  22  37  56  85 122 160 202 247 297 363
#     4   9  20  35  58  87 120 160 208 249 295 354
#     4  10  20  37  64  92 119 152 204 264 310 367
#     4  10  20  33  58  88 118 161 198 245 296 371
#
# _framework density 18.198195999999999
#
# number of rings (size 3 to 8) (size 9 to 14) (size 15 to 20)
#    0.000    1.517    4.138    1.655    3.862    1.103 
#    0.000    2.759    1.517    2.483    0.000    0.000 
#    0.000    0.000    0.000    0.000    0.000    0.000 
#
# Total GULP energy -322959.119486 kJ/mol
# GULP energy per Si atom -5568.260681 kJ/mol
# Density = 1.815678 g / cm^3
# Si number density = 18.198196 Si / 1000 Ang^3
#
#
#
# Elastic Constant Matrix: (Units=GPa)
#
#
# Indices 1 2 3 4 5 6 
#
# 1 46.0704 24.0306 6.0923 0.0000 0.0000 0.0000
# 2 24.0306 81.3978 48.9112 0.0000 0.0000 0.0000
# 3 6.0923 48.9112 123.3442 0.0000 0.0000 0.0000
# 4 0.0000 0.0000 0.0000 22.1207 0.0000 0.0000
# 5 0.0000 0.0000 0.0000 0.0000 32.6582 0.0000
# 6 0.0000 0.0000 0.0000 0.0000 0.0000 0.4809
#
#
#
# Elastic Compliance Matrix: (Units=1/GPa)
#
#
# Indices 1 2 3 4 5 6 
#
# 1 0.026155 -0.009118 0.002324 0.000000 0.000000 0.000000
# 2 -0.009118 0.019307 -0.007206 0.000000 0.000000 0.000000
# 3 0.002324 -0.007206 0.010850 0.000000 0.000000 0.000000
# 4 0.000000 0.000000 0.000000 0.045206 0.000000 0.000000
# 5 0.000000 0.000000 0.000000 0.000000 0.030620 0.000000
# 6 0.000000 0.000000 0.000000 0.000000 0.000000 2.079463
#
#
# Mechanical properties :
#
#
# Convention : Reuss Voigt Hill
#
# Bulk Modulus (GPa) = 35.32065 45.43118 40.37592
# Shear Modulus (GPa) = 2.22317 22.50385 12.36351
#
# Velocity S-wave (km/s) = 1.10648 3.52034 2.60932
# Velocity P-wave (km/s) = 4.59167 6.44536 5.59580
#
# Compressibility (1/GPa) = 0.02831205
#
# Stress axis : x y z
#
# Youngs Moduli (GPa) = 38.23428 51.79485 92.16620
#
# Poissons Ratio (x) = 0.47225 -0.21417
# Poissons Ratio (y) = 0.34861 0.66412
# Poissons Ratio (z) = -0.08885 0.37322
#
# Static dielectric constant tensor:
#      x y z
#    x 1.623610 0.000000 0.000000 
#    y 0.000000 1.660950 0.000000 
#    z 0.000000 0.000000 1.623290 
# 
# From -- ./inp_files/45919.got.cif
#   From: 2010.05.17/outbox.cif.g08.bks.cpg/sg63_23_cif.got.tgz:45919.got - 2010.06.03 15:47:04.
