data_PCOD9472797
_publ_section_title
;
Structure prediction by ZEFSAII (Michael W. Deem and Ramdas Pophale) SiO2 
 PCOD9472797
Probable space group: C M C M
;
_chemical_formula_sum "Si O2"
_cell_formula_units_Z 96
_cell_length_a 27.866795
_cell_length_b 20.789435
_cell_length_c 8.746427
_cell_angle_alpha 90.000000
_cell_angle_beta 90.000000
_cell_angle_gamma 90.000000
_cell_volume 5067.110615
_symmetry_space_group_name_H-M "C M C M"
_symmetry_group_IT_number 63
_symmetry_cell_setting 'orthorhombic'
loop_
_space_group_symop_operation_xyz
x,y,z
-x,-y,1/2+z
x,-y,-z
-x,y,1/2-z
-x,-y,-z
x,y,1/2-z
-x,y,z
x,-y,1/2+z
1/2+x,1/2+y,z
1/2-x,1/2-y,1/2+z
1/2+x,1/2-y,-z
1/2-x,1/2+y,1/2-z
1/2-x,1/2-y,-z
1/2+x,1/2+y,1/2-z
1/2-x,1/2+y,z
1/2+x,1/2-y,1/2+z
loop_
_atom_site_type_symbol
_atom_site_label
_atom_site_fract_x
_atom_site_fract_y
_atom_site_fract_z
Si Si1 0.393259 0.198961 0.433289
Si Si2 0.264086 0.430866 0.433147
Si Si3 0.369634 0.569552 0.433831
Si Si4 0.711714 0.799925 0.432939
Si Si5 0.944120 0.431730 0.565895
Si Si6 0.445196 0.679557 0.434021
O O1 0.391014 0.199589 0.250000
O O2 0.340858 0.211964 0.500807
O O3 0.412889 0.129205 0.483750
O O4 0.428960 0.254205 0.489868
O O5 0.249139 0.500000 0.500000
O O6 0.267761 0.435879 0.250000
O O7 0.316805 0.415852 0.500503
O O8 0.228975 0.372265 0.471866
O O9 0.383500 0.500000 0.500000
O O10 0.366842 0.566201 0.250000
O O11 0.407954 0.623662 0.477964
O O12 0.710823 0.793662 0.250000
O O13 0.750000 0.750000 0.500000
O O14 0.927631 0.500000 0.500000
O O15 0.942799 0.434753 0.750000
O O16 0.000000 0.422488 0.520085
O O17 0.442484 0.686574 0.250000
O O18 0.500000 0.663464 0.474357
#
# Coordination Sequence:
#
# PCOD9472797 Si02
#       6
#    16  16  16  16  16  16
#     4  11  23  38  58  84 114 148 187 232 281 333
#     4  10  21  37  58  83 111 145 185 227 275 331
#     4  10  20  35  57  83 112 146 184 227 276 330
#     4  11  24  40  59  84 113 147 188 232 280 334
#     4   9  19  36  57  82 112 146 185 228 275 328
#     4  10  22  39  58  82 113 149 189 233 281 332
#
# _framework density 18.945708
#
# number of rings (size 3 to 8) (size 9 to 14) (size 15 to 20)
#    0.000    1.833    0.000    4.500    0.000   10.000 
#    0.000    5.000    0.000    0.000    0.000    0.000 
#    0.000    0.000    0.000    0.000    0.000    0.000 
#
# Total GULP energy -268245.538238 kJ/mol
# GULP energy per Si atom -5588.448713 kJ/mol
# Density = 1.890259 g / cm^3
# Si number density = 18.945708 Si / 1000 Ang^3
#
#
#
# Elastic Constant Matrix: (Units=GPa)
#
#
# Indices 1 2 3 4 5 6 
#
# 1 25.3900 -5.0440 3.4028 0.0000 0.0000 0.0000
# 2 -5.0440 34.0385 9.0445 0.0000 0.0000 0.0000
# 3 3.4028 9.0445 27.1279 0.0000 0.0000 0.0000
# 4 0.0000 0.0000 0.0000 31.8647 0.0000 0.0000
# 5 0.0000 0.0000 0.0000 0.0000 20.4368 0.0000
# 6 0.0000 0.0000 0.0000 0.0000 0.0000 32.1730
#
#
#
# Elastic Compliance Matrix: (Units=1/GPa)
#
#
# Indices 1 2 3 4 5 6 
#
# 1 0.042136 0.008392 -0.008083 0.000000 0.000000 0.000000
# 2 0.008392 0.033905 -0.012357 0.000000 0.000000 0.000000
# 3 -0.008083 -0.012357 0.041996 0.000000 0.000000 0.000000
# 4 0.000000 0.000000 0.000000 0.031383 0.000000 0.000000
# 5 0.000000 0.000000 0.000000 0.000000 0.048931 0.000000
# 6 0.000000 0.000000 0.000000 0.000000 0.000000 0.031082
#
#
# Mechanical properties :
#
#
# Convention : Reuss Voigt Hill
#
# Bulk Modulus (GPa) = 10.64496 11.26254 10.95375
# Shear Modulus (GPa) = 17.55352 22.17178 19.86265
#
# Velocity S-wave (km/s) = 3.04718 3.42465 3.24141
# Velocity P-wave (km/s) = 4.24397 4.64706 4.45008
#
# Compressibility (1/GPa) = 0.09394119
#
# Stress axis : x y z
#
# Youngs Moduli (GPa) = 23.73273 29.49386 23.81176
#
# Poissons Ratio (x) = -0.24750 0.19247
# Poissons Ratio (y) = -0.19916 0.29423
# Poissons Ratio (z) = 0.19183 0.36445
#
# Static dielectric constant tensor:
#      x y z
#    x 1.634230 0.000000 0.000000 
#    y 0.000000 1.645700 0.000000 
#    z 0.000000 0.000000 1.645680 
# 
# From -- ./inp_files/12319.got.cif
#   From: 2010.05.17/outbox.cif.g08.bks.cpg/sg63_7_cif.got.tgz:12319.got - 2010.06.03 15:47:04.
