data_PCOD9472928
_publ_section_title
;
Structure prediction by ZEFSAII (Michael W. Deem and Ramdas Pophale) SiO2 
 PCOD9472928
Probable space group: C M C M
;
_chemical_formula_sum "Si O2"
_cell_formula_units_Z 116
_cell_length_a 28.992295
_cell_length_b 10.711277
_cell_length_c 15.690420
_cell_angle_alpha 90.000000
_cell_angle_beta 90.000000
_cell_angle_gamma 90.000000
_cell_volume 4872.573675
_symmetry_space_group_name_H-M "C M C M"
_symmetry_group_IT_number 63
_symmetry_cell_setting 'orthorhombic'
loop_
_space_group_symop_operation_xyz
x,y,z
-x,-y,1/2+z
x,-y,-z
-x,y,1/2-z
-x,-y,-z
x,y,1/2-z
-x,y,z
x,-y,1/2+z
1/2+x,1/2+y,z
1/2-x,1/2-y,1/2+z
1/2+x,1/2-y,-z
1/2-x,1/2+y,1/2-z
1/2-x,1/2-y,-z
1/2+x,1/2+y,1/2-z
1/2-x,1/2+y,z
1/2+x,1/2-y,1/2+z
loop_
_atom_site_type_symbol
_atom_site_label
_atom_site_fract_x
_atom_site_fract_y
_atom_site_fract_z
Si Si1 0.145540 0.413629 0.914285
Si Si2 0.433213 0.260082 0.903965
Si Si3 0.830674 0.766656 0.545357
Si Si4 0.549673 0.814499 0.596139
Si Si5 0.000000 0.694049 0.750000
Si Si6 0.278865 0.089525 0.843165
Si Si7 0.428194 0.463401 0.347280
Si Si8 0.322590 0.490568 0.844794
O O1 0.094529 0.393625 0.876006
O O2 0.186715 0.472315 0.859620
O O3 0.141505 0.500000 0.000000
O O4 0.159671 0.277800 0.950513
O O5 0.378087 0.240152 0.902029
O O6 0.460101 0.204161 0.825220
O O7 0.440236 0.412093 0.901423
O O8 0.447901 0.199939 0.993586
O O9 0.790334 0.683514 0.582234
O O10 0.819751 0.904636 0.572296
O O11 0.500000 0.868314 0.622098
O O12 0.552425 0.670894 0.627506
O O13 0.290590 0.140608 0.750000
O O14 0.224925 0.063550 0.844335
O O15 0.442189 0.493258 0.250000
O O16 0.372854 0.448519 0.349611
O O17 0.323451 0.426480 0.750000
#
# Coordination Sequence:
#
# PCOD9472928 Si02
#       8
#    16  16  16  16   4  16  16  16
#     4   9  21  41  57  78 107 145 191 241 287 332
#     4  10  21  36  56  84 114 141 186 242 286 332
#     4   9  19  37  58  79 112 146 179 233 286 334
#     4  11  23  37  56  81 115 156 192 230 285 346
#     4  12  20  32  62  88 104 142 194 244 286 332
#     4  10  20  35  60  83 110 146 186 237 289 339
#     4  10  21  36  55  82 122 156 184 227 277 344
#     4   9  19  35  56  88 116 148 191 233 281 333
#
# _framework density 23.806721
#
# number of rings (size 3 to 8) (size 9 to 14) (size 15 to 20)
#    0.000    2.207    1.379    0.828    2.897    3.310 
#    0.000   13.793    0.000    0.000    0.000    0.000 
#    0.000    0.000    0.000    0.000    0.000    0.000 
#
# Total GULP energy -323404.162568 kJ/mol
# GULP energy per Si atom -5575.933837 kJ/mol
# Density = 2.375254 g / cm^3
# Si number density = 23.806721 Si / 1000 Ang^3
#
#
#
# Elastic Constant Matrix: (Units=GPa)
#
#
# Indices 1 2 3 4 5 6 
#
# 1 131.7568 9.4501 8.5663 0.0000 0.0000 0.0000
# 2 9.4501 26.2354 15.5103 0.0000 0.0000 0.0000
# 3 8.5663 15.5103 31.8943 0.0000 0.0000 0.0000
# 4 0.0000 0.0000 0.0000 8.8879 0.0000 0.0000
# 5 0.0000 0.0000 0.0000 0.0000 -39.7042 0.0000
# 6 0.0000 0.0000 0.0000 0.0000 0.0000 -29.6730
#
#
#
# Elastic Compliance Matrix: (Units=1/GPa)
#
#
# Indices 1 2 3 4 5 6 
#
# 1 0.007815 -0.002209 -0.001025 0.000000 0.000000 0.000000
# 2 -0.002209 0.054121 -0.025726 0.000000 0.000000 0.000000
# 3 -0.001025 -0.025726 0.044139 0.000000 0.000000 0.000000
# 4 0.000000 0.000000 0.000000 0.112512 0.000000 0.000000
# 5 0.000000 0.000000 0.000000 0.000000 -0.025186 0.000000
# 6 0.000000 0.000000 0.000000 0.000000 0.000000 -0.033701
#
#
# Mechanical properties :
#
#
# Convention : Reuss Voigt Hill
#
# Bulk Modulus (GPa) = 20.76586 28.54888 24.65737
# Shear Modulus (GPa) = 21.39752 -1.67386 9.86183
#
# Velocity S-wave (km/s) = 3.00125 -0.83942 2.03751
# Velocity P-wave (km/s) = 4.55540 3.32843 3.98937
#
# Compressibility (1/GPa) = 0.04815596
#
# Stress axis : x y z
#
# Youngs Moduli (GPa) = 127.96221 18.47702 22.65557
#
# Poissons Ratio (x) = 0.04082 0.02321
# Poissons Ratio (y) = 0.28269 0.58284
# Poissons Ratio (z) = 0.13111 0.47534
#
# Static dielectric constant tensor:
#      x y z
#    x 1.909320 0.000000 0.000000 
#    y 0.000000 1.992300 0.000000 
#    z 0.000000 0.000000 1.890170 
# 
# From -- ./inp_files/49624.got.cif
#   From: 2010.05.17/outbox.cif.g08.bks.cpg/sg63_25_cif.got.tgz:49624.got - 2010.06.03 15:47:04.
