data_PCOD9472937
_publ_section_title
;
Structure prediction by ZEFSAII (Michael W. Deem and Ramdas Pophale) SiO2 
 PCOD9472937
Probable space group: C M C M
;
_chemical_formula_sum "Si O2"
_cell_formula_units_Z 112
_cell_length_a 15.051529
_cell_length_b 20.740970
_cell_length_c 17.666215
_cell_angle_alpha 90.000000
_cell_angle_beta 90.000000
_cell_angle_gamma 90.000000
_cell_volume 5515.097499
_symmetry_space_group_name_H-M "C M C M"
_symmetry_group_IT_number 63
_symmetry_cell_setting 'orthorhombic'
loop_
_space_group_symop_operation_xyz
x,y,z
-x,-y,1/2+z
x,-y,-z
-x,y,1/2-z
-x,-y,-z
x,y,1/2-z
-x,y,z
x,-y,1/2+z
1/2+x,1/2+y,z
1/2-x,1/2-y,1/2+z
1/2+x,1/2-y,-z
1/2-x,1/2+y,1/2-z
1/2-x,1/2-y,-z
1/2+x,1/2+y,1/2-z
1/2-x,1/2+y,z
1/2+x,1/2-y,1/2+z
loop_
_atom_site_type_symbol
_atom_site_label
_atom_site_fract_x
_atom_site_fract_y
_atom_site_fract_z
Si Si1 0.822591 0.552405 0.938702
Si Si2 0.894807 0.214869 0.108545
Si Si3 0.210306 0.552052 0.339315
Si Si4 0.903778 0.366002 0.933951
Si Si5 0.898860 0.214434 0.940753
Si Si6 0.903517 0.927673 0.662107
Si Si7 0.740846 0.172614 0.840765
O O1 0.792020 0.444952 0.750000
O O2 0.852066 0.503740 0.872889
O O3 0.773008 0.608270 0.891642
O O4 0.890697 0.591645 0.990833
O O5 0.890127 0.149625 0.157283
O O6 0.833609 0.273139 0.137979
O O7 0.000000 0.233846 0.105375
O O8 0.867208 0.191783 0.023759
O O9 0.216841 0.500000 0.500000
O O10 0.174539 0.616722 0.376901
O O11 0.312265 0.540432 0.364978
O O12 0.899778 0.291245 0.952105
O O13 0.000000 0.379910 0.899599
O O14 0.834745 0.198439 0.871890
O O15 0.000000 0.192083 0.927890
O O16 0.909332 0.945565 0.750000
O O17 0.000000 0.942304 0.626016
O O18 0.739497 0.161196 0.750000
#
# Coordination Sequence:
#
# PCOD9472937 Si02
#       7
#    16  16  16  16  16  16  16
#     4  10  23  39  60  81 114 161 209 250 289 346
#     4  10  20  35  60  92 123 154 196 248 302 369
#     4  10  21  37  57  84 117 157 204 251 295 346
#     4  10  21  39  61  86 116 156 199 243 297 357
#     4  10  22  39  62  90 120 156 195 237 298 379
#     4   9  18  33  56  87 120 152 190 245 309 364
#     4  12  24  38  62  93 126 158 193 250 317 364
#
# _framework density 20.307891999999999
#
# number of rings (size 3 to 8) (size 9 to 14) (size 15 to 20)
#    0.000    1.857    1.429    2.143    4.000    5.714 
#    0.000    2.143    0.000   10.286    0.000    0.000 
#    0.000    0.000    0.000    0.000    0.000    0.000 
#
# Total GULP energy -311760.630256 kJ/mol
# GULP energy per Si atom -5567.154112 kJ/mol
# Density = 2.026167 g / cm^3
# Si number density = 20.307892 Si / 1000 Ang^3
#
#
#
# Elastic Constant Matrix: (Units=GPa)
#
#
# Indices 1 2 3 4 5 6 
#
# 1 59.3442 -6.6563 40.1710 0.0000 0.0000 0.0000
# 2 -6.6563 28.8535 -1.9309 0.0000 0.0000 0.0000
# 3 40.1710 -1.9309 78.5888 0.0000 0.0000 0.0000
# 4 0.0000 0.0000 0.0000 21.3343 0.0000 0.0000
# 5 0.0000 0.0000 0.0000 0.0000 19.0103 0.0000
# 6 0.0000 0.0000 0.0000 0.0000 0.0000 5.9621
#
#
#
# Elastic Compliance Matrix: (Units=1/GPa)
#
#
# Indices 1 2 3 4 5 6 
#
# 1 0.026529 0.005221 -0.013432 0.000000 0.000000 0.000000
# 2 0.005221 0.035742 -0.001791 0.000000 0.000000 0.000000
# 3 -0.013432 -0.001791 0.019546 0.000000 0.000000 0.000000
# 4 0.000000 0.000000 0.000000 0.046873 0.000000 0.000000
# 5 0.000000 0.000000 0.000000 0.000000 0.052603 0.000000
# 6 0.000000 0.000000 0.000000 0.000000 0.000000 0.167725
#
#
# Mechanical properties :
#
#
# Convention : Reuss Voigt Hill
#
# Bulk Modulus (GPa) = 16.17741 25.55046 20.86394
# Shear Modulus (GPa) = 12.83280 18.27487 15.55384
#
# Velocity S-wave (km/s) = 2.51651 3.00307 2.77049
# Velocity P-wave (km/s) = 4.05304 4.96321 4.53104
#
# Compressibility (1/GPa) = 0.06181457
#
# Stress axis : x y z
#
# Youngs Moduli (GPa) = 37.69480 27.97791 51.16056
#
# Poissons Ratio (x) = -0.14608 0.68719
# Poissons Ratio (y) = -0.19681 0.09161
# Poissons Ratio (z) = 0.50632 0.05010
#
# Static dielectric constant tensor:
#      x y z
#    x 1.748980 0.000000 0.000000 
#    y 0.000000 1.739230 0.000000 
#    z 0.000000 0.000000 1.726460 
# 
# From -- ./inp_files/32324.got.cif
#   From: 2010.05.17/outbox.cif.g08.bks.cpg/sg63_17_cif.got.tgz:32324.got - 2010.06.03 15:47:04.
