data_PCOD9472703
_publ_section_title
;
Structure prediction by ZEFSAII (Michael W. Deem and Ramdas Pophale) SiO2 
 PCOD9472703
Probable space group: C M C M
;
_chemical_formula_sum "Si O2"
_cell_formula_units_Z 80
_cell_length_a 28.450587
_cell_length_b 8.997479
_cell_length_c 15.390298
_cell_angle_alpha 90.000000
_cell_angle_beta 90.000000
_cell_angle_gamma 90.000000
_cell_volume 3939.663257
_symmetry_space_group_name_H-M "C M C M"
_symmetry_group_IT_number 63
_symmetry_cell_setting 'orthorhombic'
loop_
_space_group_symop_operation_xyz
x,y,z
-x,-y,1/2+z
x,-y,-z
-x,y,1/2-z
-x,-y,-z
x,y,1/2-z
-x,y,z
x,-y,1/2+z
1/2+x,1/2+y,z
1/2-x,1/2-y,1/2+z
1/2+x,1/2-y,-z
1/2-x,1/2+y,1/2-z
1/2-x,1/2-y,-z
1/2+x,1/2+y,1/2-z
1/2-x,1/2+y,z
1/2+x,1/2-y,1/2+z
loop_
_atom_site_type_symbol
_atom_site_label
_atom_site_fract_x
_atom_site_fract_y
_atom_site_fract_z
Si Si1 0.133178 0.602905 0.585440
Si Si2 0.275687 0.034713 0.147008
Si Si3 0.186448 0.858729 0.144089
Si Si4 0.552806 0.898058 0.848000
Si Si5 0.594559 0.346755 0.030521
O O1 0.136610 0.500000 0.500000
O O2 0.183897 0.586958 0.628809
O O3 0.092476 0.523416 0.640846
O O4 0.116952 0.762112 0.552194
O O5 0.270790 0.048376 0.250000
O O6 0.294206 0.195132 0.117182
O O7 0.225531 0.977658 0.115043
O O8 0.181587 0.860868 0.250000
O O9 0.137277 0.880807 0.096657
O O10 0.556867 0.837051 0.750000
O O11 0.500000 0.957813 0.859330
O O12 0.562178 0.770690 0.918822
O O13 0.571946 0.500000 0.000000
#
# Coordination Sequence:
#
# PCOD9472703 Si02
#       5
#    16  16  16  16  16
#     4  10  20  36  58  86 115 150 195 244 291 343
#     4  10  20  35  55  81 114 157 204 245 284 336
#     4  10  21  37  56  79 117 164 205 241 286 345
#     4  10  21  42  70  89 109 151 199 244 296 353
#     4  11  24  38  56  89 127 157 189 238 300 354
#
# _framework density 20.306304999999998
#
# number of rings (size 3 to 8) (size 9 to 14) (size 15 to 20)
#    0.000    1.800    4.000    1.200    2.800    5.600 
#    0.000    3.000    0.000    2.400    0.000    0.000 
#    0.000    0.000    0.000    0.000    0.000    0.000 
#
# Total GULP energy -223314.302162 kJ/mol
# GULP energy per Si atom -5582.857554 kJ/mol
# Density = 2.026009 g / cm^3
# Si number density = 20.306305 Si / 1000 Ang^3
#
#
#
# Elastic Constant Matrix: (Units=GPa)
#
#
# Indices 1 2 3 4 5 6 
#
# 1 76.2737 -20.1758 10.6446 0.0000 0.0000 0.0000
# 2 -20.1758 51.3111 12.7607 0.0000 0.0000 0.0000
# 3 10.6446 12.7607 32.3994 0.0000 0.0000 0.0000
# 4 0.0000 0.0000 0.0000 -2.9644 0.0000 0.0000
# 5 0.0000 0.0000 0.0000 0.0000 474.7266 0.0000
# 6 0.0000 0.0000 0.0000 0.0000 0.0000 19.0721
#
#
#
# Elastic Compliance Matrix: (Units=1/GPa)
#
#
# Indices 1 2 3 4 5 6 
#
# 1 0.016681 0.008782 -0.008940 0.000000 0.000000 0.000000
# 2 0.008782 0.026229 -0.013216 0.000000 0.000000 0.000000
# 3 -0.008940 -0.013216 0.039007 0.000000 0.000000 0.000000
# 4 0.000000 0.000000 0.000000 -0.337337 0.000000 0.000000
# 5 0.000000 0.000000 0.000000 0.000000 0.002106 0.000000
# 6 0.000000 0.000000 0.000000 0.000000 0.000000 0.052433
#
#
# Mechanical properties :
#
#
# Convention : Reuss Voigt Hill
#
# Bulk Modulus (GPa) = 18.12536 18.49368 18.30952
# Shear Modulus (GPa) = -32.10384 108.61717 38.25667
#
# Velocity S-wave (km/s) = -3.98047 7.32158 4.34519
# Velocity P-wave (km/s) = 3.49000 8.97781 5.84897
#
# Compressibility (1/GPa) = 0.05517131
#
# Stress axis : x y z
#
# Youngs Moduli (GPa) = 59.94713 38.12584 25.63648
#
# Poissons Ratio (x) = -0.33484 0.22918
# Poissons Ratio (y) = -0.52648 0.33881
# Poissons Ratio (z) = 0.53590 0.50386
#
# Static dielectric constant tensor:
#      x y z
#    x 1.714140 0.000000 0.000000 
#    y 0.000000 1.741460 0.000000 
#    z 0.000000 0.000000 1.731070 
# 
# From -- ./inp_files/48727.got.cif
#   From: 2010.05.17/outbox.cif.g08.bks.cpg/sg63_25_cif.got.tgz:48727.got - 2010.06.03 15:47:04.
