data_PCOD9472879
_publ_section_title
;
Structure prediction by ZEFSAII (Michael W. Deem and Ramdas Pophale) SiO2 
 PCOD9472879
Probable space group: C M C M
;
_chemical_formula_sum "Si O2"
_cell_formula_units_Z 112
_cell_length_a 15.109811
_cell_length_b 15.056127
_cell_length_c 27.076618
_cell_angle_alpha 90.000000
_cell_angle_beta 90.000000
_cell_angle_gamma 90.000000
_cell_volume 6159.801531
_symmetry_space_group_name_H-M "C M C M"
_symmetry_group_IT_number 63
_symmetry_cell_setting 'orthorhombic'
loop_
_space_group_symop_operation_xyz
x,y,z
-x,-y,1/2+z
x,-y,-z
-x,y,1/2-z
-x,-y,-z
x,y,1/2-z
-x,y,z
x,-y,1/2+z
1/2+x,1/2+y,z
1/2-x,1/2-y,1/2+z
1/2+x,1/2-y,-z
1/2-x,1/2+y,1/2-z
1/2-x,1/2-y,-z
1/2+x,1/2+y,1/2-z
1/2-x,1/2+y,z
1/2+x,1/2-y,1/2+z
loop_
_atom_site_type_symbol
_atom_site_label
_atom_site_fract_x
_atom_site_fract_y
_atom_site_fract_z
Si Si1 0.105280 0.720270 0.806804
Si Si2 0.811895 0.703897 0.040136
Si Si3 0.000000 0.650371 0.496782
Si Si4 0.597193 0.598444 0.807202
Si Si5 0.695291 0.030043 0.398289
Si Si6 0.309843 0.585580 0.194570
Si Si7 0.753637 0.157636 0.621358
Si Si8 0.000000 0.512282 0.919884
O O1 0.123586 0.688901 0.750000
O O2 0.139185 0.821801 0.809310
O O3 0.162162 0.673762 0.849435
O O4 0.000000 0.714070 0.814666
O O5 0.911104 0.702928 0.017704
O O6 0.794214 0.602408 0.058037
O O7 0.790211 0.763859 0.087695
O O8 0.750000 0.750000 0.000000
O O9 0.000000 0.564207 0.461624
O O10 0.000000 0.607532 0.551825
O O11 0.599182 0.624344 0.750000
O O12 0.500000 0.616484 0.827673
O O13 0.619573 0.494020 0.809671
O O14 0.673748 0.645678 0.836465
O O15 0.738760 0.069983 0.348576
O O16 0.742548 0.935361 0.407858
O O17 0.591506 0.006871 0.391886
O O18 0.270457 0.579769 0.250000
#
# Coordination Sequence:
#
# PCOD9472879 Si02
#       8
#    16  16   8  16  16  16  16   8
#     4  10  20  35  58  88 122 159 200 244 298 359
#     4  11  23  41  61  86 115 151 198 254 301 355
#     4   9  20  38  62  85 110 150 196 241 298 359
#     4   9  18  33  56  83 113 154 199 238 288 354
#     4  10  21  38  59  88 114 154 198 243 297 359
#     4   9  17  34  57  84 119 155 193 243 295 353
#     4  11  22  35  60  85 119 156 195 251 300 353
#     4   9  18  36  61  82 110 154 199 238 284 359
#
# _framework density 18.182403999999998
#
# number of rings (size 3 to 8) (size 9 to 14) (size 15 to 20)
#    0.000    2.143    1.429    1.714    2.000    4.000 
#    1.286    0.357    1.571    0.857    0.000    0.000 
#    0.000    0.000    0.000    0.000    0.000    0.000 
#
# Total GULP energy -312047.601243 kJ/mol
# GULP energy per Si atom -5572.278594 kJ/mol
# Density = 1.814102 g / cm^3
# Si number density = 18.182404 Si / 1000 Ang^3
#
#
#
# Elastic Constant Matrix: (Units=GPa)
#
#
# Indices 1 2 3 4 5 6 
#
# 1 139.0046 38.1278 51.5294 0.0000 0.0000 0.0000
# 2 38.1278 83.5345 36.9541 0.0000 0.0000 0.0000
# 3 51.5294 36.9541 48.2853 0.0000 0.0000 0.0000
# 4 0.0000 0.0000 0.0000 11.7233 0.0000 0.0000
# 5 0.0000 0.0000 0.0000 0.0000 25.1763 0.0000
# 6 0.0000 0.0000 0.0000 0.0000 0.0000 17.3946
#
#
#
# Elastic Compliance Matrix: (Units=1/GPa)
#
#
# Indices 1 2 3 4 5 6 
#
# 1 0.011907 0.000282 -0.012923 0.000000 0.000000 0.000000
# 2 0.000282 0.018105 -0.014158 0.000000 0.000000 0.000000
# 3 -0.012923 -0.014158 0.045337 0.000000 0.000000 0.000000
# 4 0.000000 0.000000 0.000000 0.085300 0.000000 0.000000
# 5 0.000000 0.000000 0.000000 0.000000 0.039720 0.000000
# 6 0.000000 0.000000 0.000000 0.000000 0.000000 0.057489
#
#
# Mechanical properties :
#
#
# Convention : Reuss Voigt Hill
#
# Bulk Modulus (GPa) = 45.97241 58.22744 52.09993
# Shear Modulus (GPa) = 15.68839 20.47306 18.08073
#
# Velocity S-wave (km/s) = 2.94059 3.35921 3.15684
# Velocity P-wave (km/s) = 6.07193 6.86580 6.48103
#
# Compressibility (1/GPa) = 0.02175218
#
# Stress axis : x y z
#
# Youngs Moduli (GPa) = 83.98209 55.23198 22.05698
#
# Poissons Ratio (x) = -0.01558 0.28505
# Poissons Ratio (y) = -0.02370 0.31228
# Poissons Ratio (z) = 1.08532 0.78196
#
# Static dielectric constant tensor:
#      x y z
#    x 1.579310 0.000000 0.000000 
#    y 0.000000 1.636770 0.000000 
#    z 0.000000 0.000000 1.684740 
# 
# From -- ./inp_files/69433.got.cif
#   From: 2010.05.17/outbox.cif.g08.bks.cpg/sg63_35_cif.got.tgz:69433.got - 2010.06.03 15:47:04.
