data_PCOD9472607
_publ_section_title
;
Structure prediction by ZEFSAII (Michael W. Deem and Ramdas Pophale) SiO2 
 PCOD9472607
Probable space group: C M C M
;
_chemical_formula_sum "Si O2"
_cell_formula_units_Z 112
_cell_length_a 14.425266
_cell_length_b 27.191255
_cell_length_c 14.860622
_cell_angle_alpha 90.000000
_cell_angle_beta 90.000000
_cell_angle_gamma 90.000000
_cell_volume 5828.946516
_symmetry_space_group_name_H-M "C M C M"
_symmetry_group_IT_number 63
_symmetry_cell_setting 'orthorhombic'
loop_
_space_group_symop_operation_xyz
x,y,z
-x,-y,1/2+z
x,-y,-z
-x,y,1/2-z
-x,-y,-z
x,y,1/2-z
-x,y,z
x,-y,1/2+z
1/2+x,1/2+y,z
1/2-x,1/2-y,1/2+z
1/2+x,1/2-y,-z
1/2-x,1/2+y,1/2-z
1/2-x,1/2-y,-z
1/2+x,1/2+y,1/2-z
1/2-x,1/2+y,z
1/2+x,1/2-y,1/2+z
loop_
_atom_site_type_symbol
_atom_site_label
_atom_site_fract_x
_atom_site_fract_y
_atom_site_fract_z
Si Si1 0.287281 0.068210 0.355142
Si Si2 0.107351 0.845532 0.043013
Si Si3 0.390164 0.034232 0.854583
Si Si4 0.110486 0.377459 0.491736
Si Si5 0.891604 0.797988 0.653231
Si Si6 0.723424 0.786446 0.080849
Si Si7 0.393671 0.554867 0.462228
O O1 0.297559 0.078148 0.250000
O O2 0.338491 0.108423 0.416091
O O3 0.181382 0.063603 0.385567
O O4 0.335243 0.015494 0.375189
O O5 0.122491 0.829137 0.938023
O O6 0.122954 0.904068 0.039468
O O7 0.000000 0.835192 0.065745
O O8 0.182115 0.816145 0.101726
O O9 0.372887 0.047656 0.750000
O O10 0.500000 0.023757 0.863778
O O11 0.367872 0.078638 0.921364
O O12 0.150952 0.327089 0.453191
O O13 0.000000 0.375057 0.503307
O O14 0.875757 0.823579 0.750000
O O15 0.826941 0.750004 0.649138
O O16 0.000000 0.783322 0.650291
O O17 0.750000 0.750000 0.000000
O O18 0.384433 0.500000 0.500000
O O19 0.500000 0.562309 0.431841
#
# Coordination Sequence:
#
# PCOD9472607 Si02
#       7
#    16  16  16  16  16  16  16
#     4  11  22  35  54  82 118 155 188 224 274 340
#     4   9  18  34  55  79 107 142 182 227 275 331
#     4   9  19  35  56  84 115 145 181 225 277 342
#     4  11  21  35  57  82 112 150 189 233 285 342
#     4   9  18  33  55  83 112 140 175 228 290 342
#     4  10  20  35  53  80 107 139 183 231 280 334
#     4  10  20  35  57  83 110 143 187 234 280 331
#
# _framework density 19.214449999999999
#
# number of rings (size 3 to 8) (size 9 to 14) (size 15 to 20)
#    0.000    2.143    1.429    2.143    0.000    4.000 
#    0.000    2.857    0.000    0.429    0.000    0.000 
#    0.000    0.000    0.000    0.000    0.000    0.000 
#
# Total GULP energy -312454.057295 kJ/mol
# GULP energy per Si atom -5579.536737 kJ/mol
# Density = 1.917072 g / cm^3
# Si number density = 19.214450 Si / 1000 Ang^3
#
#
#
# Elastic Constant Matrix: (Units=GPa)
#
#
# Indices 1 2 3 4 5 6 
#
# 1 78.0970 24.9852 12.4928 0.0000 0.0000 0.0000
# 2 24.9852 68.7010 -1.3325 0.0000 0.0000 0.0000
# 3 12.4928 -1.3325 32.4683 0.0000 0.0000 0.0000
# 4 0.0000 0.0000 0.0000 11.8918 0.0000 0.0000
# 5 0.0000 0.0000 0.0000 0.0000 20.8311 0.0000
# 6 0.0000 0.0000 0.0000 0.0000 0.0000 36.8906
#
#
#
# Elastic Compliance Matrix: (Units=1/GPa)
#
#
# Indices 1 2 3 4 5 6 
#
# 1 0.015669 -0.005820 -0.006268 0.000000 0.000000 0.000000
# 2 -0.005820 0.016729 0.002926 0.000000 0.000000 0.000000
# 3 -0.006268 0.002926 0.033331 0.000000 0.000000 0.000000
# 4 0.000000 0.000000 0.000000 0.084092 0.000000 0.000000
# 5 0.000000 0.000000 0.000000 0.000000 0.048005 0.000000
# 6 0.000000 0.000000 0.000000 0.000000 0.000000 0.027107
#
#
# Mechanical properties :
#
#
# Convention : Reuss Voigt Hill
#
# Bulk Modulus (GPa) = 21.09465 27.95083 24.52274
# Shear Modulus (GPa) = 19.30058 23.46408 21.38233
#
# Velocity S-wave (km/s) = 3.17280 3.49831 3.33952
# Velocity P-wave (km/s) = 4.94212 5.55841 5.25930
#
# Compressibility (1/GPa) = 0.04740538
#
# Stress axis : x y z
#
# Youngs Moduli (GPa) = 63.81915 59.77549 30.00202
#
# Poissons Ratio (x) = 0.34790 0.18805
# Poissons Ratio (y) = 0.37144 -0.08779
# Poissons Ratio (z) = 0.40001 -0.17490
#
# Static dielectric constant tensor:
#      x y z
#    x 1.684190 0.000000 0.000000 
#    y 0.000000 1.683310 0.000000 
#    z 0.000000 0.000000 1.650660 
# 
# From -- ./inp_files/32517.got.cif
#   From: 2010.05.17/outbox.cif.g08.bks.cpg/sg63_17_cif.got.tgz:32517.got - 2010.06.03 15:47:04.
