data_PCOD9472993
_publ_section_title
;
Structure prediction by ZEFSAII (Michael W. Deem and Ramdas Pophale) SiO2 
 PCOD9472993
Probable space group: C M C M
;
_chemical_formula_sum "Si O2"
_cell_formula_units_Z 104
_cell_length_a 32.316169
_cell_length_b 20.138491
_cell_length_c 7.498226
_cell_angle_alpha 90.000000
_cell_angle_beta 90.000000
_cell_angle_gamma 90.000000
_cell_volume 4879.837072
_symmetry_space_group_name_H-M "C M C M"
_symmetry_group_IT_number 63
_symmetry_cell_setting 'orthorhombic'
loop_
_space_group_symop_operation_xyz
x,y,z
-x,-y,1/2+z
x,-y,-z
-x,y,1/2-z
-x,-y,-z
x,y,1/2-z
-x,y,z
x,-y,1/2+z
1/2+x,1/2+y,z
1/2-x,1/2-y,1/2+z
1/2+x,1/2-y,-z
1/2-x,1/2+y,1/2-z
1/2-x,1/2-y,-z
1/2+x,1/2+y,1/2-z
1/2-x,1/2+y,z
1/2+x,1/2-y,1/2+z
loop_
_atom_site_type_symbol
_atom_site_label
_atom_site_fract_x
_atom_site_fract_y
_atom_site_fract_z
Si Si1 0.454417 0.787462 0.032165
Si Si2 0.824095 0.574038 0.963443
Si Si3 0.000000 0.921115 0.537088
Si Si4 0.909483 0.922589 0.536301
Si Si5 0.627501 0.707947 0.467992
Si Si6 0.080836 0.574051 0.536878
Si Si7 0.707516 0.787578 0.463703
O O1 0.454789 0.785190 0.250000
O O2 0.500000 0.764687 0.973980
O O3 0.414590 0.745190 0.977084
O O4 0.445945 0.863550 0.975230
O O5 0.826713 0.579362 0.750000
O O6 0.871666 0.578543 0.031622
O O7 0.797483 0.636512 0.029071
O O8 0.808197 0.500000 0.000000
O O9 0.000000 0.908013 0.750000
O O10 0.000000 0.000000 0.500000
O O11 0.044931 0.900503 0.467764
O O12 0.911728 0.917675 0.750000
O O13 0.876346 0.868669 0.475332
O O14 0.901894 0.000000 0.500000
O O15 0.628428 0.709975 0.250000
O O16 0.668138 0.745820 0.531007
O O17 0.064956 0.500000 0.500000
O O18 0.083059 0.580653 0.750000
O O19 0.703934 0.790276 0.250000
O O20 0.750000 0.750000 0.500000
#
# Coordination Sequence:
#
# PCOD9472993 Si02
#       7
#    16  16   8  16  16  16  16
#     4   9  16  26  45  73 101 130 167 205 240 285
#     4   9  17  31  52  75 101 132 166 205 247 294
#     4   8  14  24  40  66  94 120 157 196 230 278
#     4   9  17  29  47  70  96 128 162 198 242 290
#     4   9  17  31  50  71  99 131 162 203 250 293
#     4   9  16  28  46  70  99 132 166 202 241 283
#     4  10  20  36  56  78 103 131 166 209 257 303
#
# _framework density 21.312186000000001
#
# number of rings (size 3 to 8) (size 9 to 14) (size 15 to 20)
#    0.000    2.923    1.538    0.000    1.077    0.923 
#    0.000    1.538    0.000    4.615    0.000    0.000 
#    0.000    0.000    0.000    0.000    0.000    0.000 
#
# Total GULP energy -289988.065342 kJ/mol
# GULP energy per Si atom -5576.693564 kJ/mol
# Density = 2.126368 g / cm^3
# Si number density = 21.312186 Si / 1000 Ang^3
#
#
#
# Elastic Constant Matrix: (Units=GPa)
#
#
# Indices 1 2 3 4 5 6 
#
# 1 132.4262 93.8246 3.2073 0.0000 0.0000 0.0000
# 2 93.8246 161.6902 2.1490 0.0000 0.0000 0.0000
# 3 3.2073 2.1490 55.8936 0.0000 0.0000 0.0000
# 4 0.0000 0.0000 0.0000 16.4136 0.0000 0.0000
# 5 0.0000 0.0000 0.0000 0.0000 4.5901 0.0000
# 6 0.0000 0.0000 0.0000 0.0000 0.0000 28.9595
#
#
#
# Elastic Compliance Matrix: (Units=1/GPa)
#
#
# Indices 1 2 3 4 5 6 
#
# 1 0.012835 -0.007442 -0.000450 0.000000 0.000000 0.000000
# 2 -0.007442 0.010503 0.000023 0.000000 0.000000 0.000000
# 3 -0.000450 0.000023 0.017916 0.000000 0.000000 0.000000
# 4 0.000000 0.000000 0.000000 0.060925 0.000000 0.000000
# 5 0.000000 0.000000 0.000000 0.000000 0.217859 0.000000
# 6 0.000000 0.000000 0.000000 0.000000 0.000000 0.034531
#
#
# Mechanical properties :
#
#
# Convention : Reuss Voigt Hill
#
# Bulk Modulus (GPa) = 39.19151 60.93021 50.06086
# Shear Modulus (GPa) = 13.19917 26.71459 19.95688
#
# Velocity S-wave (km/s) = 2.49132 3.54431 3.06340
# Velocity P-wave (km/s) = 5.16767 6.73802 6.00440
#
# Compressibility (1/GPa) = 0.02551573
#
# Stress axis : x y z
#
# Youngs Moduli (GPa) = 77.91353 95.21486 55.81579
#
# Poissons Ratio (x) = 0.70856 0.02514
# Poissons Ratio (y) = 0.57981 -0.00130
# Poissons Ratio (z) = 0.03509 -0.00221
#
# Static dielectric constant tensor:
#      x y z
#    x 1.751360 0.000000 0.000000 
#    y 0.000000 1.796120 0.000000 
#    z 0.000000 0.000000 1.860680 
# 
# From -- ./inp_files/25047.got.cif
#   From: 2010.05.17/outbox.cif.g08.bks.cpg/sg63_13_cif.got.tgz:25047.got - 2010.06.03 15:47:04.
