data_PCOD9472073
_publ_section_title
;
Structure prediction by ZEFSAII (Michael W. Deem and Ramdas Pophale) SiO2 
 PCOD9472073
Probable space group: C M C M
;
_chemical_formula_sum "Si O2"
_cell_formula_units_Z 80
_cell_length_a 7.551212
_cell_length_b 30.339688
_cell_length_c 16.361865
_cell_angle_alpha 90.000000
_cell_angle_beta 90.000000
_cell_angle_gamma 90.000000
_cell_volume 3748.526442
_symmetry_space_group_name_H-M "C M C M"
_symmetry_group_IT_number 63
_symmetry_cell_setting 'orthorhombic'
loop_
_space_group_symop_operation_xyz
x,y,z
-x,-y,1/2+z
x,-y,-z
-x,y,1/2-z
-x,-y,-z
x,y,1/2-z
-x,y,z
x,-y,1/2+z
1/2+x,1/2+y,z
1/2-x,1/2-y,1/2+z
1/2+x,1/2-y,-z
1/2-x,1/2+y,1/2-z
1/2-x,1/2-y,-z
1/2+x,1/2+y,1/2-z
1/2-x,1/2+y,z
1/2+x,1/2-y,1/2+z
loop_
_atom_site_type_symbol
_atom_site_label
_atom_site_fract_x
_atom_site_fract_y
_atom_site_fract_z
Si Si1 0.782295 0.711342 0.250000
Si Si2 0.716356 0.052320 0.916224
Si Si3 0.211758 0.642695 0.659756
Si Si4 0.784321 0.545223 0.105008
Si Si5 0.283364 0.109017 0.250000
Si Si6 0.292133 0.265060 0.091268
O O1 0.728188 0.659996 0.250000
O O2 0.718666 0.736632 0.167883
O O3 0.000000 0.711502 0.250000
O O4 0.500000 0.052289 0.915032
O O5 0.780196 0.095788 0.870810
O O6 0.770775 0.005363 0.878480
O O7 0.768316 0.054452 0.011504
O O8 0.280794 0.653543 0.750000
O O9 0.245728 0.683828 0.601984
O O10 0.000000 0.638192 0.664664
O O11 0.725439 0.581242 0.170450
O O12 0.000000 0.545741 0.106749
O O13 0.500000 0.109137 0.250000
O O14 0.500000 0.260919 0.100291
O O15 0.250000 0.250000 0.000000
#
# Coordination Sequence:
#
# PCOD9472073 Si02
#       6
#     8  16  16  16   8  16
#     4   9  20  36  52  75 109 141 175 223 276 327
#     4   8  15  26  41  67 104 139 168 209 260 312
#     4  10  20  33  53  80 110 142 178 220 269 324
#     4   8  14  24  39  64 100 136 170 208 257 313
#     4   9  16  24  41  65  95 135 169 203 258 319
#     4  11  23  40  59  80 108 143 184 230 278 328
#
# _framework density 21.341718
#
# number of rings (size 3 to 8) (size 9 to 14) (size 15 to 20)
#    0.000    2.800    1.000    1.800    4.200    0.000 
#    0.000    0.000    0.000    0.000    0.000    2.800 
#    0.000    0.000    0.000    0.000    0.000    0.000 
#
# Total GULP energy -223219.576857 kJ/mol
# GULP energy per Si atom -5580.489421 kJ/mol
# Density = 2.129314 g / cm^3
# Si number density = 21.341718 Si / 1000 Ang^3
#
#
#
# Elastic Constant Matrix: (Units=GPa)
#
#
# Indices 1 2 3 4 5 6 
#
# 1 49.5643 7.2476 7.1900 0.0000 0.0000 0.0000
# 2 7.2476 145.5673 61.1593 0.0000 0.0000 0.0000
# 3 7.1900 61.1593 85.1578 0.0000 0.0000 0.0000
# 4 0.0000 0.0000 0.0000 151.7289 0.0000 0.0000
# 5 0.0000 0.0000 0.0000 0.0000 4.6185 0.0000
# 6 0.0000 0.0000 0.0000 0.0000 0.0000 5.5007
#
#
#
# Elastic Compliance Matrix: (Units=1/GPa)
#
#
# Indices 1 2 3 4 5 6 
#
# 1 0.020444 -0.000419 -0.001425 0.000000 0.000000 0.000000
# 2 -0.000419 0.009847 -0.007037 0.000000 0.000000 0.000000
# 3 -0.001425 -0.007037 0.016917 0.000000 0.000000 0.000000
# 4 0.000000 0.000000 0.000000 0.006591 0.000000 0.000000
# 5 0.000000 0.000000 0.000000 0.000000 0.216519 0.000000
# 6 0.000000 0.000000 0.000000 0.000000 0.000000 0.181795
#
#
# Mechanical properties :
#
#
# Convention : Reuss Voigt Hill
#
# Bulk Modulus (GPa) = 33.96048 47.94258 40.95153
# Shear Modulus (GPa) = 10.42343 46.01580 28.21961
#
# Velocity S-wave (km/s) = 2.21239 4.64847 3.64025
# Velocity P-wave (km/s) = 4.74062 7.16408 6.07443
#
# Compressibility (1/GPa) = 0.02944599
#
# Stress axis : x y z
#
# Youngs Moduli (GPa) = 48.91453 101.55485 59.11295
#
# Poissons Ratio (x) = 0.04256 0.08424
# Poissons Ratio (y) = 0.02050 0.41595
# Poissons Ratio (z) = 0.06971 0.71459
#
# Static dielectric constant tensor:
#      x y z
#    x 1.860250 0.000000 0.000000 
#    y 0.000000 1.731610 0.000000 
#    z 0.000000 0.000000 1.762390 
# 
# From -- ./inp_files/40549.got.cif
#   From: 2010.05.17/outbox.cif.g08.bks.cpg/sg63_21_cif.got.tgz:40549.got - 2010.06.03 15:47:04.
