data_PCOD9472512
_publ_section_title
;
Structure prediction by ZEFSAII (Michael W. Deem and Ramdas Pophale) SiO2 
 PCOD9472512
Probable space group: C M C M
;
_chemical_formula_sum "Si O2"
_cell_formula_units_Z 48
_cell_length_a 13.553603
_cell_length_b 6.542575
_cell_length_c 18.443948
_cell_angle_alpha 90.000000
_cell_angle_beta 90.000000
_cell_angle_gamma 90.000000
_cell_volume 1635.525650
_symmetry_space_group_name_H-M "C M C M"
_symmetry_group_IT_number 63
_symmetry_cell_setting 'orthorhombic'
loop_
_space_group_symop_operation_xyz
x,y,z
-x,-y,1/2+z
x,-y,-z
-x,y,1/2-z
-x,-y,-z
x,y,1/2-z
-x,y,z
x,-y,1/2+z
1/2+x,1/2+y,z
1/2-x,1/2-y,1/2+z
1/2+x,1/2-y,-z
1/2-x,1/2+y,1/2-z
1/2-x,1/2-y,-z
1/2+x,1/2+y,1/2-z
1/2-x,1/2+y,z
1/2+x,1/2-y,1/2+z
loop_
_atom_site_type_symbol
_atom_site_label
_atom_site_fract_x
_atom_site_fract_y
_atom_site_fract_z
Si Si1 0.365792 0.765812 0.515524
Si Si2 0.606957 0.358608 0.859048
Si Si3 0.338081 0.893047 0.669887
O O1 0.250000 0.750000 0.500000
O O2 0.401144 0.636339 0.446864
O O3 0.376670 0.756106 0.602663
O O4 0.395223 0.000000 0.500000
O O5 0.500000 0.429091 0.830426
O O6 0.718850 0.424123 0.837179
O O7 0.615164 0.116523 0.838695
O O8 0.359314 0.812027 0.750000
#
# Coordination Sequence:
#
# PCOD9472512 Si02
#       3
#    16  16  16
#     4   8  16  31  52  76 106 143 182 224 269 323
#     4  10  21  39  61  82 111 153 192 228 278 337
#     4  10  20  34  56  87 117 145 186 237 283 333
#
# _framework density 29.348361000000001
#
# number of rings (size 3 to 8) (size 9 to 14) (size 15 to 20)
#    0.000    2.667    0.000    1.000    0.000    8.667 
#    0.000    1.667    0.000   94.000    0.000    0.000 
#    0.000    0.000    0.000    0.000    0.000    0.000 
#
# Total GULP energy -134213.202191 kJ/mol
# GULP energy per Si atom -5592.216758 kJ/mol
# Density = 2.928156 g / cm^3
# Si number density = 29.348361 Si / 1000 Ang^3
#
#
#
# Elastic Constant Matrix: (Units=GPa)
#
#
# Indices 1 2 3 4 5 6 
#
# 1 260.7537 22.6613 25.7823 0.0000 0.0000 0.0000
# 2 22.6613 67.8186 40.7708 0.0000 0.0000 0.0000
# 3 25.7823 40.7708 326.9800 0.0000 0.0000 0.0000
# 4 0.0000 0.0000 0.0000 48.5103 0.0000 0.0000
# 5 0.0000 0.0000 0.0000 0.0000 -140.6048 0.0000
# 6 0.0000 0.0000 0.0000 0.0000 0.0000 -46.4326
#
#
#
# Elastic Compliance Matrix: (Units=1/GPa)
#
#
# Indices 1 2 3 4 5 6 
#
# 1 0.003957 -0.001227 -0.000159 0.000000 0.000000 0.000000
# 2 -0.001227 0.016320 -0.001938 0.000000 0.000000 0.000000
# 3 -0.000159 -0.001938 0.003313 0.000000 0.000000 0.000000
# 4 0.000000 0.000000 0.000000 0.020614 0.000000 0.000000
# 5 0.000000 0.000000 0.000000 0.000000 -0.007112 0.000000
# 6 0.000000 0.000000 0.000000 0.000000 0.000000 -0.021537
#
#
# Mechanical properties :
#
#
# Convention : Reuss Voigt Hill
#
# Bulk Modulus (GPa) = 59.02429 92.66455 75.84442
# Shear Modulus (GPa) = 179.52591 10.05045 94.78818
#
# Velocity S-wave (km/s) = 7.82965 1.85256 5.68926
# Velocity P-wave (km/s) = 10.09422 6.01818 8.30999
#
# Compressibility (1/GPa) = 0.01694218
#
# Stress axis : x y z
#
# Youngs Moduli (GPa) = 252.69278 61.27322 301.88570
#
# Poissons Ratio (x) = 0.07516 0.04802
# Poissons Ratio (y) = 0.30998 0.58513
# Poissons Ratio (z) = 0.04020 0.11876
#
# Static dielectric constant tensor:
#      x y z
#    x 2.237030 0.000000 0.000000 
#    y 0.000000 2.434980 0.000000 
#    z 0.000000 0.000000 2.238720 
# 
# From -- ./inp_files/43139.got.cif
#   From: 2010.05.17/outbox.cif.g08.bks.cpg/sg63_22_cif.got.tgz:43139.got - 2010.06.03 15:47:04.
