data_PCOD9472536
_publ_section_title
;
Structure prediction by ZEFSAII (Michael W. Deem and Ramdas Pophale) SiO2 
 PCOD9472536
Probable space group: C M C M
;
_chemical_formula_sum "Si O2"
_cell_formula_units_Z 104
_cell_length_a 22.687649
_cell_length_b 28.726371
_cell_length_c 8.691100
_cell_angle_alpha 90.000000
_cell_angle_beta 90.000000
_cell_angle_gamma 90.000000
_cell_volume 5664.283823
_symmetry_space_group_name_H-M "C M C M"
_symmetry_group_IT_number 63
_symmetry_cell_setting 'orthorhombic'
loop_
_space_group_symop_operation_xyz
x,y,z
-x,-y,1/2+z
x,-y,-z
-x,y,1/2-z
-x,-y,-z
x,y,1/2-z
-x,y,z
x,-y,1/2+z
1/2+x,1/2+y,z
1/2-x,1/2-y,1/2+z
1/2+x,1/2-y,-z
1/2-x,1/2+y,1/2-z
1/2-x,1/2-y,-z
1/2+x,1/2+y,1/2-z
1/2-x,1/2+y,z
1/2+x,1/2-y,1/2+z
loop_
_atom_site_type_symbol
_atom_site_label
_atom_site_fract_x
_atom_site_fract_y
_atom_site_fract_z
Si Si1 0.654379 0.388788 0.426208
Si Si2 0.882387 0.603752 0.434894
Si Si3 0.066006 0.045997 0.429976
Si Si4 0.000000 0.553549 0.936088
Si Si5 0.687615 0.700158 0.426926
Si Si6 0.817324 0.307443 0.068583
Si Si7 0.229955 0.449161 0.434316
O O1 0.641535 0.400111 0.250000
O O2 0.604776 0.410400 0.531259
O O3 0.656483 0.334324 0.456475
O O4 0.716928 0.412995 0.464199
O O5 0.886854 0.606276 0.250000
O O6 0.942217 0.581626 0.504289
O O7 0.862534 0.654318 0.502750
O O8 0.828742 0.570025 0.485035
O O9 0.062126 0.039325 0.250000
O O10 0.000000 0.050478 0.495526
O O11 0.094813 0.000000 0.500000
O O12 0.000000 0.551845 0.750000
O O13 0.000000 0.500000 0.000000
O O14 0.680446 0.685068 0.250000
O O15 0.756488 0.694227 0.472354
O O16 0.665061 0.753070 0.438458
O O17 0.805363 0.318509 0.250000
O O18 0.244464 0.500000 0.500000
O O19 0.221154 0.451510 0.250000
#
# Coordination Sequence:
#
# PCOD9472536 Si02
#       7
#    16  16  16   8  16  16  16
#     4  11  22  35  56  84 117 152 191 239 288 345
#     4  12  24  40  63  89 118 156 200 246 298 358
#     4  10  21  37  57  80 110 149 193 237 282 340
#     4  12  26  46  68  90 122 160 204 256 305 364
#     4  10  20  34  57  87 120 154 191 236 287 345
#     4  10  20  36  58  87 119 153 192 236 289 347
#     4  11  23  37  54  82 118 154 191 237 291 348
#
# _framework density 18.360661
#
# number of rings (size 3 to 8) (size 9 to 14) (size 15 to 20)
#    0.000    1.231    1.538    5.308    0.000    5.846 
#    0.000    0.000    1.692    0.000    0.000    0.000 
#    0.000    0.000    0.000    0.000    0.000    0.000 
#
# Total GULP energy -290276.814750 kJ/mol
# GULP energy per Si atom -5582.246437 kJ/mol
# Density = 1.831887 g / cm^3
# Si number density = 18.360661 Si / 1000 Ang^3
#
#
#
# Elastic Constant Matrix: (Units=GPa)
#
#
# Indices 1 2 3 4 5 6 
#
# 1 58.0922 30.9861 32.5515 0.0000 0.0000 0.0000
# 2 30.9861 102.0270 33.9234 0.0000 0.0000 0.0000
# 3 32.5515 33.9234 97.3376 0.0000 0.0000 0.0000
# 4 0.0000 0.0000 0.0000 34.4782 0.0000 0.0000
# 5 0.0000 0.0000 0.0000 0.0000 30.4542 0.0000
# 6 0.0000 0.0000 0.0000 0.0000 0.0000 23.1613
#
#
#
# Elastic Compliance Matrix: (Units=1/GPa)
#
#
# Indices 1 2 3 4 5 6 
#
# 1 0.023294 -0.005072 -0.006022 0.000000 0.000000 0.000000
# 2 -0.005072 0.012190 -0.002552 0.000000 0.000000 0.000000
# 3 -0.006022 -0.002552 0.013177 0.000000 0.000000 0.000000
# 4 0.000000 0.000000 0.000000 0.029004 0.000000 0.000000
# 5 0.000000 0.000000 0.000000 0.000000 0.032836 0.000000
# 6 0.000000 0.000000 0.000000 0.000000 0.000000 0.043175
#
#
# Mechanical properties :
#
#
# Convention : Reuss Voigt Hill
#
# Bulk Modulus (GPa) = 46.79893 50.26432 48.53162
# Shear Modulus (GPa) = 26.58262 28.28512 27.43387
#
# Velocity S-wave (km/s) = 3.80913 3.92921 3.86964
# Velocity P-wave (km/s) = 6.70000 6.92968 6.81581
#
# Compressibility (1/GPa) = 0.02136801
#
# Stress axis : x y z
#
# Youngs Moduli (GPa) = 42.92954 82.03184 75.88996
#
# Poissons Ratio (x) = 0.41608 0.45703
# Poissons Ratio (y) = 0.21774 0.19369
# Poissons Ratio (z) = 0.25853 0.20937
#
# Static dielectric constant tensor:
#      x y z
#    x 1.614370 0.000000 0.000000 
#    y 0.000000 1.690620 0.000000 
#    z 0.000000 0.000000 1.626950 
# 
# From -- ./inp_files/8786.got.cif
#   From: 2010.05.17/outbox.cif.g08.bks.cpg/sg63_5_cif.got.tgz:8786.got - 2010.06.03 15:47:04.
