data_PCOD9472003
_publ_section_title
;
Structure prediction by ZEFSAII (Michael W. Deem and Ramdas Pophale) SiO2 
 PCOD9472003
Probable space group: C M C M
;
_chemical_formula_sum "Si O2"
_cell_formula_units_Z 80
_cell_length_a 14.679855
_cell_length_b 34.329047
_cell_length_c 9.151566
_cell_angle_alpha 90.000000
_cell_angle_beta 90.000000
_cell_angle_gamma 90.000000
_cell_volume 4611.889884
_symmetry_space_group_name_H-M "C M C M"
_symmetry_group_IT_number 63
_symmetry_cell_setting 'orthorhombic'
loop_
_space_group_symop_operation_xyz
x,y,z
-x,-y,1/2+z
x,-y,-z
-x,y,1/2-z
-x,-y,-z
x,y,1/2-z
-x,y,z
x,-y,1/2+z
1/2+x,1/2+y,z
1/2-x,1/2-y,1/2+z
1/2+x,1/2-y,-z
1/2-x,1/2+y,1/2-z
1/2-x,1/2-y,-z
1/2+x,1/2+y,1/2-z
1/2-x,1/2+y,z
1/2+x,1/2-y,1/2+z
loop_
_atom_site_type_symbol
_atom_site_label
_atom_site_fract_x
_atom_site_fract_y
_atom_site_fract_z
Si Si1 0.745441 0.689688 0.925684
Si Si2 0.762848 0.400227 0.074155
Si Si3 0.394397 0.253751 0.574214
Si Si4 0.109308 0.540084 0.080118
Si Si5 0.105109 0.959633 0.424891
O O1 0.733785 0.691051 0.750000
O O2 0.756119 0.644811 0.969362
O O3 0.835202 0.715208 0.962098
O O4 0.659841 0.710768 0.000447
O O5 0.774787 0.401680 0.250000
O O6 0.671470 0.424271 0.036947
O O7 0.843751 0.423547 0.997449
O O8 0.391773 0.258146 0.750000
O O9 0.500000 0.251196 0.529467
O O10 0.135402 0.538030 0.250000
O O11 0.000000 0.543280 0.070866
O O12 0.136154 0.500000 0.000000
O O13 0.108824 0.964771 0.250000
O O14 0.000000 0.951841 0.465985
O O15 0.133357 0.000000 0.500000
#
# Coordination Sequence:
#
# PCOD9472003 Si02
#       5
#    16  16  16  16  16
#     4   9  19  34  52  77 104 130 166 209 254 307
#     4  10  20  33  52  77 103 132 166 209 258 302
#     4   9  18  34  54  74 100 134 168 205 252 305
#     4  10  21  36  53  74 102 137 175 213 253 298
#     4   9  18  32  48  68  96 129 165 203 243 290
#
# _framework density 17.346467000000001
#
# number of rings (size 3 to 8) (size 9 to 14) (size 15 to 20)
#    0.000    2.600    0.000    1.200    0.000    6.400 
#    0.000    4.000    0.000    2.400    0.000    0.000 
#    0.000    0.000    0.000    0.000    0.000    0.000 
#
# Total GULP energy -223133.999364 kJ/mol
# GULP energy per Si atom -5578.349984 kJ/mol
# Density = 1.730699 g / cm^3
# Si number density = 17.346467 Si / 1000 Ang^3
#
#
#
# Elastic Constant Matrix: (Units=GPa)
#
#
# Indices 1 2 3 4 5 6 
#
# 1 109.3434 75.1874 41.7147 0.0000 0.0000 0.0000
# 2 75.1874 180.4559 53.9829 0.0000 0.0000 0.0000
# 3 41.7147 53.9829 29.7405 0.0000 0.0000 0.0000
# 4 0.0000 0.0000 0.0000 28.8917 0.0000 0.0000
# 5 0.0000 0.0000 0.0000 0.0000 25.7990 0.0000
# 6 0.0000 0.0000 0.0000 0.0000 0.0000 208.8143
#
#
#
# Elastic Compliance Matrix: (Units=1/GPa)
#
#
# Indices 1 2 3 4 5 6 
#
# 1 0.019673 0.000127 -0.027824 0.000000 0.000000 0.000000
# 2 0.000127 0.012126 -0.022189 0.000000 0.000000 0.000000
# 3 -0.027824 -0.022189 0.112926 0.000000 0.000000 0.000000
# 4 0.000000 0.000000 0.000000 0.034612 0.000000 0.000000
# 5 0.000000 0.000000 0.000000 0.000000 0.038761 0.000000
# 6 0.000000 0.000000 0.000000 0.000000 0.000000 0.004789
#
#
# Mechanical properties :
#
#
# Convention : Reuss Voigt Hill
#
# Bulk Modulus (GPa) = 22.24507 73.47886 47.86196
# Shear Modulus (GPa) = 14.80845 62.61131 38.70988
#
# Velocity S-wave (km/s) = 2.92496 6.01439 4.72908
# Velocity P-wave (km/s) = 4.92534 9.52271 7.58093
#
# Compressibility (1/GPa) = 0.04495379
#
# Stress axis : x y z
#
# Youngs Moduli (GPa) = 50.83005 82.46409 8.85534
#
# Poissons Ratio (x) = -0.01043 0.24639
# Poissons Ratio (y) = -0.00643 0.19649
# Poissons Ratio (z) = 1.41430 1.82977
#
# Static dielectric constant tensor:
#      x y z
#    x 1.591400 0.000000 0.000000 
#    y 0.000000 1.558450 0.000000 
#    z 0.000000 0.000000 1.582150 
# 
# From -- ./inp_files/19659.got.cif
#   From: 2010.05.17/outbox.cif.g08.bks.cpg/sg63_10_cif.got.tgz:19659.got - 2010.06.03 15:47:04.
