data_PCOD9472365
_publ_section_title
;
Structure prediction by ZEFSAII (Michael W. Deem and Ramdas Pophale) SiO2 
 PCOD9472365
Probable space group: C M C M
;
_chemical_formula_sum "Si O2"
_cell_formula_units_Z 104
_cell_length_a 26.963679
_cell_length_b 22.423649
_cell_length_c 7.723444
_cell_angle_alpha 90.000000
_cell_angle_beta 90.000000
_cell_angle_gamma 90.000000
_cell_volume 4669.780174
_symmetry_space_group_name_H-M "C M C M"
_symmetry_group_IT_number 63
_symmetry_cell_setting 'orthorhombic'
loop_
_space_group_symop_operation_xyz
x,y,z
-x,-y,1/2+z
x,-y,-z
-x,y,1/2-z
-x,-y,-z
x,y,1/2-z
-x,y,z
x,-y,1/2+z
1/2+x,1/2+y,z
1/2-x,1/2-y,1/2+z
1/2+x,1/2-y,-z
1/2-x,1/2+y,1/2-z
1/2-x,1/2-y,-z
1/2+x,1/2+y,1/2-z
1/2-x,1/2+y,z
1/2+x,1/2-y,1/2+z
loop_
_atom_site_type_symbol
_atom_site_label
_atom_site_fract_x
_atom_site_fract_y
_atom_site_fract_z
Si Si1 0.000000 0.570156 0.041627
Si Si2 0.893836 0.383183 0.962718
Si Si3 0.618642 0.431093 0.956909
Si Si4 0.790020 0.149008 0.456948
Si Si5 0.853375 0.742402 0.052049
Si Si6 0.705383 0.935006 0.542581
Si Si7 0.055254 0.174740 0.039683
O O1 0.948977 0.600392 0.977203
O O2 0.000000 0.575879 0.250000
O O3 0.000000 0.500000 0.000000
O O4 0.896237 0.381668 0.750000
O O5 0.871493 0.320078 0.025266
O O6 0.851339 0.429608 0.017585
O O7 0.621407 0.427028 0.750000
O O8 0.666507 0.395025 0.024573
O O9 0.570711 0.392621 0.009120
O O10 0.617821 0.500000 0.000000
O O11 0.788579 0.143638 0.250000
O O12 0.807994 0.216458 0.488941
O O13 0.738868 0.120260 0.522351
O O14 0.840970 0.729201 0.250000
O O15 0.902160 0.783497 0.035191
O O16 0.704157 0.930795 0.750000
O O17 0.726854 0.000000 0.500000
O O18 0.057330 0.179706 0.250000
O O19 0.000000 0.190054 0.982936
#
# Coordination Sequence:
#
# PCOD9472365 Si02
#       7
#     8  16  16  16  16  16  16
#     4  10  20  38  60  82 114 150 183 226 279 330
#     4   9  20  36  56  82 113 147 179 225 283 329
#     4   9  17  29  45  67  95 129 167 209 262 316
#     4   9  19  35  53  74 107 144 175 219 276 323
#     4  10  20  34  54  80 107 139 185 226 266 327
#     4  10  20  36  57  82 111 145 184 225 275 330
#     4   9  19  35  51  69 100 139 175 222 280 328
#
# _framework density 22.270855999999998
#
# number of rings (size 3 to 8) (size 9 to 14) (size 15 to 20)
#    0.000    2.615    0.000    2.308    1.077    4.308 
#    0.000    3.077    0.000    0.000    0.000    0.000 
#    0.000    0.000    0.000    0.000    0.000    0.000 
#
# Total GULP energy -290042.385284 kJ/mol
# GULP energy per Si atom -5577.738179 kJ/mol
# Density = 2.222017 g / cm^3
# Si number density = 22.270856 Si / 1000 Ang^3
#
#
#
# Elastic Constant Matrix: (Units=GPa)
#
#
# Indices 1 2 3 4 5 6 
#
# 1 139.0385 52.4928 5.3019 0.0000 0.0000 0.0000
# 2 52.4928 138.3043 -6.7941 0.0000 0.0000 0.0000
# 3 5.3019 -6.7941 24.5604 0.0000 0.0000 0.0000
# 4 0.0000 0.0000 0.0000 16.5628 0.0000 0.0000
# 5 0.0000 0.0000 0.0000 0.0000 8.2810 0.0000
# 6 0.0000 0.0000 0.0000 0.0000 0.0000 25.7295
#
#
#
# Elastic Compliance Matrix: (Units=1/GPa)
#
#
# Indices 1 2 3 4 5 6 
#
# 1 0.008580 -0.003394 -0.002791 0.000000 0.000000 0.000000
# 2 -0.003394 0.008672 0.003132 0.000000 0.000000 0.000000
# 3 -0.002791 0.003132 0.042185 0.000000 0.000000 0.000000
# 4 0.000000 0.000000 0.000000 0.060376 0.000000 0.000000
# 5 0.000000 0.000000 0.000000 0.000000 0.120759 0.000000
# 6 0.000000 0.000000 0.000000 0.000000 0.000000 0.038866
#
#
# Mechanical properties :
#
#
# Convention : Reuss Voigt Hill
#
# Bulk Modulus (GPa) = 18.75080 44.87828 31.81454
# Shear Modulus (GPa) = 16.48421 26.84150 21.66286
#
# Velocity S-wave (km/s) = 2.72356 3.47541 3.12220
# Velocity P-wave (km/s) = 4.28113 6.02491 5.22626
#
# Compressibility (1/GPa) = 0.05333105
#
# Stress axis : x y z
#
# Youngs Moduli (GPa) = 116.55168 115.30995 23.70529
#
# Poissons Ratio (x) = 0.39131 0.06616
# Poissons Ratio (y) = 0.39553 -0.07424
# Poissons Ratio (z) = 0.32529 -0.36110
#
# Static dielectric constant tensor:
#      x y z
#    x 1.830000 0.000000 0.000000 
#    y 0.000000 1.824290 0.000000 
#    z 0.000000 0.000000 1.823480 
# 
# From -- ./inp_files/12554.got.cif
#   From: 2010.05.17/outbox.cif.g08.bks.cpg/sg63_7_cif.got.tgz:12554.got - 2010.06.03 15:47:04.
