data_PCOD9472039
_publ_section_title
;
Structure prediction by ZEFSAII (Michael W. Deem and Ramdas Pophale) SiO2 
 PCOD9472039
Probable space group: C M C M
;
_chemical_formula_sum "Si O2"
_cell_formula_units_Z 96
_cell_length_a 18.993118
_cell_length_b 28.777344
_cell_length_c 9.261950
_cell_angle_alpha 90.000000
_cell_angle_beta 90.000000
_cell_angle_gamma 90.000000
_cell_volume 5062.317815
_symmetry_space_group_name_H-M "C M C M"
_symmetry_group_IT_number 63
_symmetry_cell_setting 'orthorhombic'
loop_
_space_group_symop_operation_xyz
x,y,z
-x,-y,1/2+z
x,-y,-z
-x,y,1/2-z
-x,-y,-z
x,y,1/2-z
-x,y,z
x,-y,1/2+z
1/2+x,1/2+y,z
1/2-x,1/2-y,1/2+z
1/2+x,1/2-y,-z
1/2-x,1/2+y,1/2-z
1/2-x,1/2-y,-z
1/2+x,1/2+y,1/2-z
1/2-x,1/2+y,z
1/2+x,1/2-y,1/2+z
loop_
_atom_site_type_symbol
_atom_site_label
_atom_site_fract_x
_atom_site_fract_y
_atom_site_fract_z
Si Si1 0.082020 0.891033 0.920672
Si Si2 0.578208 0.959398 0.586005
Si Si3 0.212644 0.950983 0.922398
Si Si4 0.414951 0.298404 0.085832
Si Si5 0.083444 0.702721 0.923341
Si Si6 0.676473 0.127475 0.416382
O O1 0.086644 0.879528 0.750000
O O2 0.132432 0.934646 0.946190
O O3 0.000000 0.900267 0.954083
O O4 0.107158 0.846327 0.010801
O O5 0.574098 0.975511 0.750000
O O6 0.500000 0.953503 0.524488
O O7 0.614879 0.910619 0.586194
O O8 0.616011 0.000000 0.500000
O O9 0.226256 0.956468 0.750000
O O10 0.258977 0.905540 0.967254
O O11 0.225650 0.000000 0.000000
O O12 0.388494 0.293780 0.250000
O O13 0.500000 0.300738 0.092354
O O14 0.399958 0.253324 0.989624
O O15 0.086913 0.702998 0.750000
O O16 0.000000 0.691731 0.961812
O O17 0.142320 0.668187 0.988880
O O18 0.690621 0.142824 0.250000
#
# Coordination Sequence:
#
# PCOD9472039 Si02
#       6
#    16  16  16  16  16  16
#     4   9  18  35  58  82 109 139 172 215 268 324
#     4   9  17  28  43  63  87 119 161 209 257 300
#     4  10  22  38  56  79 107 141 179 221 271 323
#     4   9  17  31  54  83 111 139 173 215 264 316
#     4  10  20  33  52  80 111 143 180 220 261 308
#     4  10  20  34  50  70 101 140 180 220 262 309
#
# _framework density 18.963646000000001
#
# number of rings (size 3 to 8) (size 9 to 14) (size 15 to 20)
#    0.000    2.500    0.000    2.000    0.000    6.000 
#    0.000    2.500    0.000    0.000    0.000    0.000 
#    0.000    0.000    0.000    0.000    0.000    0.000 
#
# Total GULP energy -267263.334598 kJ/mol
# GULP energy per Si atom -5567.986137 kJ/mol
# Density = 1.892048 g / cm^3
# Si number density = 18.963646 Si / 1000 Ang^3
#
#
#
# Elastic Constant Matrix: (Units=GPa)
#
#
# Indices 1 2 3 4 5 6 
#
# 1 75.9912 46.3588 32.0572 0.0000 0.0000 0.0000
# 2 46.3588 91.3030 49.0378 0.0000 0.0000 0.0000
# 3 32.0572 49.0378 61.8560 0.0000 0.0000 0.0000
# 4 0.0000 0.0000 0.0000 32.6107 0.0000 0.0000
# 5 0.0000 0.0000 0.0000 0.0000 15.0804 0.0000
# 6 0.0000 0.0000 0.0000 0.0000 0.0000 42.0019
#
#
#
# Elastic Compliance Matrix: (Units=1/GPa)
#
#
# Indices 1 2 3 4 5 6 
#
# 1 0.019604 -0.007832 -0.003951 0.000000 0.000000 0.000000
# 2 -0.007832 0.022203 -0.013543 0.000000 0.000000 0.000000
# 3 -0.003951 -0.013543 0.028951 0.000000 0.000000 0.000000
# 4 0.000000 0.000000 0.000000 0.030665 0.000000 0.000000
# 5 0.000000 0.000000 0.000000 0.000000 0.066311 0.000000
# 6 0.000000 0.000000 0.000000 0.000000 0.000000 0.023808
#
#
# Mechanical properties :
#
#
# Convention : Reuss Voigt Hill
#
# Bulk Modulus (GPa) = 49.73644 53.78422 51.76033
# Shear Modulus (GPa) = 20.08871 24.71835 22.40353
#
# Velocity S-wave (km/s) = 3.25826 3.61426 3.44087
# Velocity P-wave (km/s) = 6.35918 6.77056 6.56809
#
# Compressibility (1/GPa) = 0.02010598
#
# Stress axis : x y z
#
# Youngs Moduli (GPa) = 51.00991 45.03906 34.54141
#
# Poissons Ratio (x) = 0.35274 0.13647
# Poissons Ratio (y) = 0.39950 0.46780
# Poissons Ratio (z) = 0.20154 0.60996
#
# Static dielectric constant tensor:
#      x y z
#    x 1.716290 0.000000 0.000000 
#    y 0.000000 1.636610 0.000000 
#    z 0.000000 0.000000 1.668040 
# 
# From -- ./inp_files/8651.got.cif
#   From: 2010.05.17/outbox.cif.g08.bks.cpg/sg63_5_cif.got.tgz:8651.got - 2010.06.03 15:47:04.
