data_PCOD9472955
_publ_section_title
;
Structure prediction by ZEFSAII (Michael W. Deem and Ramdas Pophale) SiO2 
 PCOD9472955
Probable space group: C M C M
;
_chemical_formula_sum "Si O2"
_cell_formula_units_Z 72
_cell_length_a 14.873937
_cell_length_b 18.099272
_cell_length_c 14.210174
_cell_angle_alpha 90.000000
_cell_angle_beta 90.000000
_cell_angle_gamma 90.000000
_cell_volume 3825.484443
_symmetry_space_group_name_H-M "C M C M"
_symmetry_group_IT_number 63
_symmetry_cell_setting 'orthorhombic'
loop_
_space_group_symop_operation_xyz
x,y,z
-x,-y,1/2+z
x,-y,-z
-x,y,1/2-z
-x,-y,-z
x,y,1/2-z
-x,y,z
x,-y,1/2+z
1/2+x,1/2+y,z
1/2-x,1/2-y,1/2+z
1/2+x,1/2-y,-z
1/2-x,1/2+y,1/2-z
1/2-x,1/2-y,-z
1/2+x,1/2+y,1/2-z
1/2-x,1/2+y,z
1/2+x,1/2-y,1/2+z
loop_
_atom_site_type_symbol
_atom_site_label
_atom_site_fract_x
_atom_site_fract_y
_atom_site_fract_z
Si Si1 0.396856 0.849123 0.054849
Si Si2 0.254645 0.368573 0.750000
Si Si3 0.607960 0.768733 0.250000
Si Si4 0.265076 0.576652 0.042196
Si Si5 0.607180 0.256428 0.250000
Si Si6 0.396869 0.307120 0.452360
O O1 0.500000 0.875261 0.058160
O O2 0.371943 0.817495 0.157670
O O3 0.329037 0.907125 0.010337
O O4 0.392450 0.776665 0.988999
O O5 0.335106 0.307085 0.750000
O O6 0.257157 0.416714 0.845203
O O7 0.164996 0.318066 0.750000
O O8 0.500000 0.752751 0.250000
O O9 0.300140 0.500000 0.000000
O O10 0.330743 0.642381 0.010645
O O11 0.500000 0.240458 0.250000
O O12 0.628044 0.302935 0.156942
O O13 0.500000 0.332090 0.462842
#
# Coordination Sequence:
#
# PCOD9472955 Si02
#       6
#    16   8   8  16   8  16
#     4  10  20  38  63  89 115 149 200 250 288 337
#     4  12  22  38  60  84 118 156 198 242 292 356
#     4  10  20  35  65  95 113 145 200 254 294 336
#     4  12  26  39  57  88 126 163 192 234 297 361
#     4  10  20  35  65  95 113 145 200 254 294 336
#     4  10  20  38  63  89 115 149 200 250 288 337
#
# _framework density 18.821145000000001
#
# number of rings (size 3 to 8) (size 9 to 14) (size 15 to 20)
#    0.000    1.333    4.444    2.000    0.000    2.667 
#    0.000    0.000    0.000    0.000    0.000    0.000 
#    0.000    0.000    0.000    0.000    0.000    0.000 
#
# Total GULP energy -201076.141704 kJ/mol
# GULP energy per Si atom -5585.448381 kJ/mol
# Density = 1.877831 g / cm^3
# Si number density = 18.821145 Si / 1000 Ang^3
#
#
#
# Elastic Constant Matrix: (Units=GPa)
#
#
# Indices 1 2 3 4 5 6 
#
# 1 41.7918 0.2113 12.4019 0.0000 0.0000 0.0000
# 2 0.2113 21.7167 1.2710 0.0000 0.0000 0.0000
# 3 12.4019 1.2710 136.8319 0.0000 0.0000 0.0000
# 4 0.0000 0.0000 0.0000 17.8212 0.0000 0.0000
# 5 0.0000 0.0000 0.0000 0.0000 14.3274 0.0000
# 6 0.0000 0.0000 0.0000 0.0000 0.0000 -2.0369
#
#
#
# Elastic Compliance Matrix: (Units=1/GPa)
#
#
# Indices 1 2 3 4 5 6 
#
# 1 0.024590 -0.000109 -0.002228 0.000000 0.000000 0.000000
# 2 -0.000109 0.046073 -0.000418 0.000000 0.000000 0.000000
# 3 -0.002228 -0.000418 0.007514 0.000000 0.000000 0.000000
# 4 0.000000 0.000000 0.000000 0.056113 0.000000 0.000000
# 5 0.000000 0.000000 0.000000 0.000000 0.069796 0.000000
# 6 0.000000 0.000000 0.000000 0.000000 0.000000 -0.490948
#
#
# Mechanical properties :
#
#
# Convention : Reuss Voigt Hill
#
# Bulk Modulus (GPa) = 13.76130 25.34544 19.55337
# Shear Modulus (GPa) = -19.44539 18.45277 -0.49631
#
# Velocity S-wave (km/s) = -3.21778 3.13457 -0.51407
# Velocity P-wave (km/s) = 2.54519 5.15717 3.17163
#
# Compressibility (1/GPa) = 0.07266755
#
# Stress axis : x y z
#
# Youngs Moduli (GPa) = 40.66732 21.70463 133.08436
#
# Poissons Ratio (x) = 0.00236 0.29647
# Poissons Ratio (y) = 0.00443 0.05564
# Poissons Ratio (z) = 0.09060 0.00907
#
# Static dielectric constant tensor:
#      x y z
#    x 1.682710 0.000000 0.000000 
#    y 0.000000 1.598630 0.000000 
#    z 0.000000 0.000000 1.684380 
# 
# From -- ./inp_files/31488.got.cif
#   From: 2010.05.17/outbox.cif.g08.bks.cpg/sg63_16_cif.got.tgz:31488.got - 2010.06.03 15:47:04.
