data_PCOD9472086
_publ_section_title
;
Structure prediction by ZEFSAII (Michael W. Deem and Ramdas Pophale) SiO2 
 PCOD9472086
Probable space group: C M C M
;
_chemical_formula_sum "Si O2"
_cell_formula_units_Z 80
_cell_length_a 15.106405
_cell_length_b 28.775036
_cell_length_c 9.042837
_cell_angle_alpha 90.000000
_cell_angle_beta 90.000000
_cell_angle_gamma 90.000000
_cell_volume 3930.806831
_symmetry_space_group_name_H-M "C M C M"
_symmetry_group_IT_number 63
_symmetry_cell_setting 'orthorhombic'
loop_
_space_group_symop_operation_xyz
x,y,z
-x,-y,1/2+z
x,-y,-z
-x,y,1/2-z
-x,-y,-z
x,y,1/2-z
-x,y,z
x,-y,1/2+z
1/2+x,1/2+y,z
1/2-x,1/2-y,1/2+z
1/2+x,1/2-y,-z
1/2-x,1/2+y,1/2-z
1/2-x,1/2-y,-z
1/2+x,1/2+y,1/2-z
1/2-x,1/2+y,z
1/2+x,1/2-y,1/2+z
loop_
_atom_site_type_symbol
_atom_site_label
_atom_site_fract_x
_atom_site_fract_y
_atom_site_fract_z
Si Si1 0.398965 0.328181 0.088091
Si Si2 0.663350 0.770393 0.575170
Si Si3 0.104202 0.373074 0.571155
Si Si4 0.774177 0.547993 0.573999
Si Si5 0.893842 0.916442 0.578905
O O1 0.354160 0.335067 0.250000
O O2 0.500000 0.342546 0.105385
O O3 0.400083 0.273770 0.054486
O O4 0.367626 0.362807 0.961001
O O5 0.678210 0.775358 0.750000
O O6 0.750000 0.750000 0.500000
O O7 0.630322 0.820455 0.523252
O O8 0.115065 0.376255 0.750000
O O9 0.167126 0.410166 0.492241
O O10 0.000000 0.380639 0.539410
O O11 0.804780 0.500000 0.500000
O O12 0.781393 0.546425 0.750000
O O13 0.671524 0.555247 0.526277
O O14 0.873509 0.925946 0.750000
O O15 0.000000 0.924294 0.559362
#
# Coordination Sequence:
#
# PCOD9472086 Si02
#       5
#    16  16  16  16  16
#     4   9  17  31  52  79 113 153 194 232 275 335
#     4  10  20  33  53  83 119 159 199 241 292 348
#     4  10  22  42  66  91 123 164 210 260 311 363
#     4  12  26  44  66  90 118 154 200 256 316 377
#     4  10  21  38  61  91 127 164 202 247 302 366
#
# _framework density 20.352056000000001
#
# number of rings (size 3 to 8) (size 9 to 14) (size 15 to 20)
#    0.000    1.800    0.000    4.200    0.000    9.600 
#    0.000    0.000    0.000    3.600    0.000    0.000 
#    0.000    0.000    0.000    0.000    0.000    0.000 
#
# Total GULP energy -223008.149571 kJ/mol
# GULP energy per Si atom -5575.203739 kJ/mol
# Density = 2.030573 g / cm^3
# Si number density = 20.352056 Si / 1000 Ang^3
#
#
#
# Elastic Constant Matrix: (Units=GPa)
#
#
# Indices 1 2 3 4 5 6 
#
# 1 84.1553 25.4007 43.7847 0.0000 0.0000 0.0000
# 2 25.4007 97.6066 37.1545 0.0000 0.0000 0.0000
# 3 43.7847 37.1545 67.7165 0.0000 0.0000 0.0000
# 4 0.0000 0.0000 0.0000 30.9362 0.0000 0.0000
# 5 0.0000 0.0000 0.0000 0.0000 29.9616 0.0000
# 6 0.0000 0.0000 0.0000 0.0000 0.0000 22.1280
#
#
#
# Elastic Compliance Matrix: (Units=1/GPa)
#
#
# Indices 1 2 3 4 5 6 
#
# 1 0.017915 -0.000319 -0.011408 0.000000 0.000000 0.000000
# 2 -0.000319 0.012956 -0.006902 0.000000 0.000000 0.000000
# 3 -0.011408 -0.006902 0.025931 0.000000 0.000000 0.000000
# 4 0.000000 0.000000 0.000000 0.032325 0.000000 0.000000
# 5 0.000000 0.000000 0.000000 0.000000 0.033376 0.000000
# 6 0.000000 0.000000 0.000000 0.000000 0.000000 0.045192
#
#
# Mechanical properties :
#
#
# Convention : Reuss Voigt Hill
#
# Bulk Modulus (GPa) = 51.17174 51.35091 51.26132
# Shear Modulus (GPa) = 23.64443 26.14772 24.89608
#
# Velocity S-wave (km/s) = 3.41217 3.58826 3.50132
# Velocity P-wave (km/s) = 6.38136 6.51564 6.44885
#
# Compressibility (1/GPa) = 0.01954203
#
# Stress axis : x y z
#
# Youngs Moduli (GPa) = 55.82011 77.18678 38.56430
#
# Poissons Ratio (x) = 0.02466 0.43995
# Poissons Ratio (y) = 0.01783 0.26617
# Poissons Ratio (z) = 0.63680 0.53273
#
# Static dielectric constant tensor:
#      x y z
#    x 1.553840 0.000000 0.000000 
#    y 0.000000 1.192350 0.000000 
#    z 0.000000 0.000000 1.690770 
# 
# From -- ./inp_files/6355.got.cif
#   From: 2010.05.17/outbox.cif.g08.bks.cpg/sg63_4_cif.got.tgz:6355.got - 2010.06.03 15:47:04.
