data_PCOD9472495
_publ_section_title
;
Structure prediction by ZEFSAII (Michael W. Deem and Ramdas Pophale) SiO2 
 PCOD9472495
Probable space group: C M C M
;
_chemical_formula_sum "Si O2"
_cell_formula_units_Z 112
_cell_length_a 13.033484
_cell_length_b 23.547858
_cell_length_c 18.663903
_cell_angle_alpha 90.000000
_cell_angle_beta 90.000000
_cell_angle_gamma 90.000000
_cell_volume 5728.150237
_symmetry_space_group_name_H-M "C M C M"
_symmetry_group_IT_number 63
_symmetry_cell_setting 'orthorhombic'
loop_
_space_group_symop_operation_xyz
x,y,z
-x,-y,1/2+z
x,-y,-z
-x,y,1/2-z
-x,-y,-z
x,y,1/2-z
-x,y,z
x,-y,1/2+z
1/2+x,1/2+y,z
1/2-x,1/2-y,1/2+z
1/2+x,1/2-y,-z
1/2-x,1/2+y,1/2-z
1/2-x,1/2-y,-z
1/2+x,1/2+y,1/2-z
1/2-x,1/2+y,z
1/2+x,1/2-y,1/2+z
loop_
_atom_site_type_symbol
_atom_site_label
_atom_site_fract_x
_atom_site_fract_y
_atom_site_fract_z
Si Si1 0.378749 0.190795 0.832963
Si Si2 0.276822 0.515458 0.165816
Si Si3 0.383070 0.107508 0.164310
Si Si4 0.736593 0.704753 0.397118
Si Si5 0.268982 0.605585 0.592102
Si Si6 0.616342 0.702581 0.962910
Si Si7 0.885314 0.938029 0.964940
O O1 0.362675 0.173429 0.750000
O O2 0.500000 0.195893 0.846066
O O3 0.323466 0.251395 0.845713
O O4 0.328004 0.143856 0.885527
O O5 0.298459 0.519693 0.250000
O O6 0.167123 0.545637 0.151150
O O7 0.277207 0.449951 0.140860
O O8 0.356623 0.550739 0.117225
O O9 0.388071 0.114431 0.250000
O O10 0.500000 0.113326 0.136280
O O11 0.301447 0.154022 0.136843
O O12 0.655734 0.686082 0.457806
O O13 0.818795 0.743879 0.437774
O O14 0.361083 0.651792 0.593212
O O15 0.286948 0.584414 0.510604
O O16 0.500000 0.718340 0.965086
O O17 0.000000 0.911068 0.973451
O O18 0.896478 0.000000 0.000000
#
# Coordination Sequence:
#
# PCOD9472495 Si02
#       7
#    16  16  16  16  16  16  16
#     4  10  21  37  59  87 119 155 194 243 302 353
#     4  10  21  37  57  84 116 152 199 250 298 352
#     4  10  21  37  57  79 106 144 185 228 283 342
#     4  10  20  36  58  83 113 146 189 238 282 343
#     4  10  20  35  57  84 117 155 194 237 291 355
#     4  10  20  34  56  84 113 149 188 232 289 344
#     4   9  18  34  55  78 110 152 190 231 286 341
#
# _framework density 19.552558999999999
#
# number of rings (size 3 to 8) (size 9 to 14) (size 15 to 20)
#    0.000    2.143    0.000    3.000    0.000    1.429 
#    0.000    7.857    0.000   25.714    0.000    0.000 
#    0.000    0.000    0.000    0.000    0.000    0.000 
#
# Total GULP energy -311813.681875 kJ/mol
# GULP energy per Si atom -5568.101462 kJ/mol
# Density = 1.950806 g / cm^3
# Si number density = 19.552559 Si / 1000 Ang^3
#
#
#
# Elastic Constant Matrix: (Units=GPa)
#
#
# Indices 1 2 3 4 5 6 
#
# 1 137.2145 35.2267 52.9264 0.0000 0.0000 0.0000
# 2 35.2267 76.1664 37.3609 0.0000 0.0000 0.0000
# 3 52.9264 37.3609 89.9995 0.0000 0.0000 0.0000
# 4 0.0000 0.0000 0.0000 36.4448 0.0000 0.0000
# 5 0.0000 0.0000 0.0000 0.0000 20.3116 0.0000
# 6 0.0000 0.0000 0.0000 0.0000 0.0000 7.5832
#
#
#
# Elastic Compliance Matrix: (Units=1/GPa)
#
#
# Indices 1 2 3 4 5 6 
#
# 1 0.009691 -0.002118 -0.004820 0.000000 0.000000 0.000000
# 2 -0.002118 0.016949 -0.005791 0.000000 0.000000 0.000000
# 3 -0.004820 -0.005791 0.016349 0.000000 0.000000 0.000000
# 4 0.000000 0.000000 0.000000 0.027439 0.000000 0.000000
# 5 0.000000 0.000000 0.000000 0.000000 0.049233 0.000000
# 6 0.000000 0.000000 0.000000 0.000000 0.000000 0.131871
#
#
# Mechanical properties :
#
#
# Convention : Reuss Voigt Hill
#
# Bulk Modulus (GPa) = 57.03542 61.60093 59.31818
# Shear Modulus (GPa) = 17.67836 24.72567 21.20202
#
# Velocity S-wave (km/s) = 3.01016 3.55994 3.29653
# Velocity P-wave (km/s) = 6.42768 6.96213 6.70024
#
# Compressibility (1/GPa) = 0.01753296
#
# Stress axis : x y z
#
# Youngs Moduli (GPa) = 103.19304 59.00075 61.16478
#
# Poissons Ratio (x) = 0.12495 0.29479
# Poissons Ratio (y) = 0.21853 0.35418
# Poissons Ratio (z) = 0.49736 0.34165
#
# Static dielectric constant tensor:
#      x y z
#    x 1.679070 0.000000 0.000000 
#    y 0.000000 1.764930 0.000000 
#    z 0.000000 0.000000 1.692970 
# 
# From -- ./inp_files/53369.got.cif
#   From: 2010.05.17/outbox.cif.g08.bks.cpg/sg63_27_cif.got.tgz:53369.got - 2010.06.03 15:47:04.
