data_PCOD9472059
_publ_section_title
;
Structure prediction by ZEFSAII (Michael W. Deem and Ramdas Pophale) SiO2 
 PCOD9472059
Probable space group: C M C M
;
_chemical_formula_sum "Si O2"
_cell_formula_units_Z 112
_cell_length_a 14.420060
_cell_length_b 14.554512
_cell_length_c 25.846629
_cell_angle_alpha 90.000000
_cell_angle_beta 90.000000
_cell_angle_gamma 90.000000
_cell_volume 5424.611308
_symmetry_space_group_name_H-M "C M C M"
_symmetry_group_IT_number 63
_symmetry_cell_setting 'orthorhombic'
loop_
_space_group_symop_operation_xyz
x,y,z
-x,-y,1/2+z
x,-y,-z
-x,y,1/2-z
-x,-y,-z
x,y,1/2-z
-x,y,z
x,-y,1/2+z
1/2+x,1/2+y,z
1/2-x,1/2-y,1/2+z
1/2+x,1/2-y,-z
1/2-x,1/2+y,1/2-z
1/2-x,1/2-y,-z
1/2+x,1/2+y,1/2-z
1/2-x,1/2+y,z
1/2+x,1/2-y,1/2+z
loop_
_atom_site_type_symbol
_atom_site_label
_atom_site_fract_x
_atom_site_fract_y
_atom_site_fract_z
Si Si1 0.393291 0.727618 0.310800
Si Si2 0.211306 0.065555 0.145403
Si Si3 0.240738 0.360364 0.124007
Si Si4 0.109253 0.089160 0.036870
Si Si5 0.103259 0.563604 0.951833
Si Si6 0.400085 0.886373 0.885820
Si Si7 0.607272 0.716363 0.946776
O O1 0.390040 0.747744 0.250000
O O2 0.500000 0.740118 0.328959
O O3 0.360740 0.622369 0.320289
O O4 0.322478 0.794469 0.340961
O O5 0.172684 0.077105 0.086836
O O6 0.309834 0.118032 0.149091
O O7 0.233081 0.957448 0.151195
O O8 0.181293 0.371738 0.070776
O O9 0.336419 0.321027 0.102051
O O10 0.000000 0.097500 0.051672
O O11 0.137743 0.175774 0.001564
O O12 0.117751 0.000000 0.000000
O O13 0.094941 0.490536 0.904915
O O14 0.000000 0.603276 0.961053
O O15 0.130302 0.500000 0.000000
O O16 0.500000 0.859850 0.862979
O O17 0.388096 0.824906 0.937510
O O18 0.500000 0.686850 0.942714
#
# Coordination Sequence:
#
# PCOD9472059 Si02
#       7
#    16  16  16  16  16  16  16
#     4  11  26  48  69  94 127 163 214 278 332 379
#     4  11  22  37  67  93 123 168 215 259 315 386
#     4  11  22  37  65  93 122 167 208 258 314 386
#     4  10  20  33  52  88 133 171 211 251 306 384
#     4   9  19  33  52  82 123 160 199 250 303 370
#     4   9  19  34  51  79 116 158 200 250 305 360
#     4  10  20  34  54  83 124 168 203 247 303 374
#
# _framework density 20.646640000000001
#
# number of rings (size 3 to 8) (size 9 to 14) (size 15 to 20)
#    0.000    1.857    2.857    0.857    4.000    3.429 
#    0.000    2.857    0.000    1.714    0.000    0.000 
#    0.000    0.000    0.000    0.000    0.000    0.000 
#
# Total GULP energy -312363.473328 kJ/mol
# GULP energy per Si atom -5577.919167 kJ/mol
# Density = 2.059965 g / cm^3
# Si number density = 20.646640 Si / 1000 Ang^3
#
#
#
# Elastic Constant Matrix: (Units=GPa)
#
#
# Indices 1 2 3 4 5 6 
#
# 1 84.2559 36.6941 29.4755 0.0000 0.0000 0.0000
# 2 36.6941 76.6969 7.6841 0.0000 0.0000 0.0000
# 3 29.4755 7.6841 41.1446 0.0000 0.0000 0.0000
# 4 0.0000 0.0000 0.0000 17.5928 0.0000 0.0000
# 5 0.0000 0.0000 0.0000 0.0000 19.0062 0.0000
# 6 0.0000 0.0000 0.0000 0.0000 0.0000 21.9940
#
#
#
# Elastic Compliance Matrix: (Units=1/GPa)
#
#
# Indices 1 2 3 4 5 6 
#
# 1 0.019914 -0.008253 -0.012725 0.000000 0.000000 0.000000
# 2 -0.008253 0.016707 0.002792 0.000000 0.000000 0.000000
# 3 -0.012725 0.002792 0.032899 0.000000 0.000000 0.000000
# 4 0.000000 0.000000 0.000000 0.056842 0.000000 0.000000
# 5 0.000000 0.000000 0.000000 0.000000 0.052614 0.000000
# 6 0.000000 0.000000 0.000000 0.000000 0.000000 0.045467
#
#
# Mechanical properties :
#
#
# Convention : Reuss Voigt Hill
#
# Bulk Modulus (GPa) = 30.16699 38.86720 34.51709
# Shear Modulus (GPa) = 18.39147 20.26816 19.32982
#
# Velocity S-wave (km/s) = 2.98782 3.13656 3.06309
# Velocity P-wave (km/s) = 5.15224 5.65536 5.40965
#
# Compressibility (1/GPa) = 0.03314882
#
# Stress axis : x y z
#
# Youngs Moduli (GPa) = 50.21486 59.85525 30.39582
#
# Poissons Ratio (x) = 0.49397 0.38679
# Poissons Ratio (y) = 0.41441 -0.08487
# Poissons Ratio (z) = 0.63899 -0.16712
#
# Static dielectric constant tensor:
#      x y z
#    x 1.826560 0.000000 0.000000 
#    y 0.000000 1.802380 0.000000 
#    z 0.000000 0.000000 1.702920 
# 
# From -- ./inp_files/62974.got.cif
#   From: 2010.05.17/outbox.cif.g08.bks.cpg/sg63_32_cif.got.tgz:62974.got - 2010.06.03 15:47:04.
