data_PCOD9472275
_publ_section_title
;
Structure prediction by ZEFSAII (Michael W. Deem and Ramdas Pophale) SiO2 
 PCOD9472275
Probable space group: C M C M
;
_chemical_formula_sum "Si O2"
_cell_formula_units_Z 96
_cell_length_a 8.631953
_cell_length_b 20.809437
_cell_length_c 30.476787
_cell_angle_alpha 90.000000
_cell_angle_beta 90.000000
_cell_angle_gamma 90.000000
_cell_volume 5474.425845
_symmetry_space_group_name_H-M "C M C M"
_symmetry_group_IT_number 63
_symmetry_cell_setting 'orthorhombic'
loop_
_space_group_symop_operation_xyz
x,y,z
-x,-y,1/2+z
x,-y,-z
-x,y,1/2-z
-x,-y,-z
x,y,1/2-z
-x,y,z
x,-y,1/2+z
1/2+x,1/2+y,z
1/2-x,1/2-y,1/2+z
1/2+x,1/2-y,-z
1/2-x,1/2+y,1/2-z
1/2-x,1/2-y,-z
1/2+x,1/2+y,1/2-z
1/2-x,1/2+y,z
1/2+x,1/2-y,1/2+z
loop_
_atom_site_type_symbol
_atom_site_label
_atom_site_fract_x
_atom_site_fract_y
_atom_site_fract_z
Si Si1 0.813064 0.691447 0.300667
Si Si2 0.188301 0.553010 0.534239
Si Si3 0.685384 0.448475 0.699028
Si Si4 0.185891 0.556432 0.634850
Si Si5 0.313880 0.199620 0.965171
Si Si6 0.186196 0.802603 0.367907
O O1 0.768242 0.704452 0.250000
O O2 0.743908 0.622541 0.313512
O O3 0.765233 0.748398 0.333110
O O4 0.000000 0.686818 0.302158
O O5 0.245708 0.500000 0.500000
O O6 0.234150 0.540397 0.584649
O O7 0.233544 0.626226 0.523246
O O8 0.000000 0.551310 0.533241
O O9 0.731406 0.458766 0.750000
O O10 0.500000 0.450483 0.696536
O O11 0.755526 0.502818 0.668111
O O12 0.252737 0.626928 0.644977
O O13 0.000000 0.559775 0.635819
O O14 0.500000 0.201984 0.964351
O O15 0.251071 0.212372 0.916290
O O16 0.250000 0.250000 0.000000
O O17 0.000000 0.804024 0.369593
#
# Coordination Sequence:
#
# PCOD9472275 Si02
#       6
#    16  16  16  16  16  16
#     4   9  19  36  56  77 102 135 176 219 263 314
#     4   8  16  32  52  73  98 130 169 210 252 302
#     4  10  21  36  54  77 106 139 174 216 266 316
#     4  10  20  34  54  79 106 138 176 218 263 313
#     4  10  20  34  53  77 105 137 175 220 268 318
#     4  10  20  35  55  78 107 142 178 219 267 317
#
# _framework density 17.536085
#
# number of rings (size 3 to 8) (size 9 to 14) (size 15 to 20)
#    0.000    2.500    0.000    3.000    0.000    4.333 
#    0.000    5.000    0.000   17.000    0.000    0.000 
#    0.000    0.000    0.000    0.000    0.000    0.000 
#
# Total GULP energy -267803.046231 kJ/mol
# GULP energy per Si atom -5579.230130 kJ/mol
# Density = 1.749617 g / cm^3
# Si number density = 17.536085 Si / 1000 Ang^3
#
#
#
# Elastic Constant Matrix: (Units=GPa)
#
#
# Indices 1 2 3 4 5 6 
#
# 1 43.1351 50.1497 41.2357 0.0000 0.0000 0.0000
# 2 50.1497 184.0174 137.1750 0.0000 0.0000 0.0000
# 3 41.2357 137.1750 121.6021 0.0000 0.0000 0.0000
# 4 0.0000 0.0000 0.0000 44.9076 0.0000 0.0000
# 5 0.0000 0.0000 0.0000 0.0000 27.8343 0.0000
# 6 0.0000 0.0000 0.0000 0.0000 0.0000 32.5085
#
#
#
# Elastic Compliance Matrix: (Units=1/GPa)
#
#
# Indices 1 2 3 4 5 6 
#
# 1 0.034842 -0.004324 -0.006937 0.000000 0.000000 0.000000
# 2 -0.004324 0.034695 -0.037672 0.000000 0.000000 0.000000
# 3 -0.006937 -0.037672 0.053073 0.000000 0.000000 0.000000
# 4 0.000000 0.000000 0.000000 0.022268 0.000000 0.000000
# 5 0.000000 0.000000 0.000000 0.000000 0.035927 0.000000
# 6 0.000000 0.000000 0.000000 0.000000 0.000000 0.030761
#
#
# Mechanical properties :
#
#
# Convention : Reuss Voigt Hill
#
# Bulk Modulus (GPa) = 40.41559 89.54171 64.97865
# Shear Modulus (GPa) = 15.73910 29.06303 22.40106
#
# Velocity S-wave (km/s) = 2.99912 4.07544 3.57799
# Velocity P-wave (km/s) = 5.92369 8.56259 7.36234
#
# Compressibility (1/GPa) = 0.02474293
#
# Stress axis : x y z
#
# Youngs Moduli (GPa) = 28.70104 28.82239 18.84214
#
# Poissons Ratio (x) = 0.12463 0.13071
# Poissons Ratio (y) = 0.12411 0.70982
# Poissons Ratio (z) = 0.19910 1.08580
#
# Static dielectric constant tensor:
#      x y z
#    x 1.596590 0.000000 0.000000 
#    y 0.000000 1.572120 0.000000 
#    z 0.000000 0.000000 1.583030 
# 
# From -- ./inp_files/66954.got.cif
#   From: 2010.05.17/outbox.cif.g08.bks.cpg/sg63_34_cif.got.tgz:66954.got - 2010.06.03 15:47:04.
