data_PCOD9472651
_publ_section_title
;
Structure prediction by ZEFSAII (Michael W. Deem and Ramdas Pophale) SiO2 
 PCOD9472651
Probable space group: C M C M
;
_chemical_formula_sum "Si O2"
_cell_formula_units_Z 80
_cell_length_a 35.001473
_cell_length_b 14.887206
_cell_length_c 7.695701
_cell_angle_alpha 90.000000
_cell_angle_beta 90.000000
_cell_angle_gamma 90.000000
_cell_volume 4010.030771
_symmetry_space_group_name_H-M "C M C M"
_symmetry_group_IT_number 63
_symmetry_cell_setting 'orthorhombic'
loop_
_space_group_symop_operation_xyz
x,y,z
-x,-y,1/2+z
x,-y,-z
-x,y,1/2-z
-x,-y,-z
x,y,1/2-z
-x,y,z
x,-y,1/2+z
1/2+x,1/2+y,z
1/2-x,1/2-y,1/2+z
1/2+x,1/2-y,-z
1/2-x,1/2+y,1/2-z
1/2-x,1/2-y,-z
1/2+x,1/2+y,1/2-z
1/2-x,1/2+y,z
1/2+x,1/2-y,1/2+z
loop_
_atom_site_type_symbol
_atom_site_label
_atom_site_fract_x
_atom_site_fract_y
_atom_site_fract_z
Si Si1 0.811177 0.745739 0.543154
Si Si2 0.251346 0.605409 0.543015
Si Si3 0.397745 0.250154 0.963462
Si Si4 0.957644 0.395835 0.041528
Si Si5 0.542375 0.395732 0.541448
O O1 0.814056 0.732058 0.750000
O O2 0.784631 0.664261 0.473802
O O3 0.788645 0.839029 0.515517
O O4 0.854237 0.748277 0.474164
O O5 0.250798 0.500000 0.500000
O O6 0.250519 0.611895 0.750000
O O7 0.396577 0.251155 0.750000
O O8 0.422890 0.164955 0.020251
O O9 0.422680 0.335562 0.021263
O O10 0.958768 0.385807 0.250000
O O11 0.000000 0.369403 0.975844
O O12 0.952015 0.500000 0.000000
O O13 0.547720 0.500000 0.500000
O O14 0.541303 0.385635 0.750000
O O15 0.500000 0.368777 0.476266
#
# Coordination Sequence:
#
# PCOD9472651 Si02
#       5
#    16  16  16  16  16
#     4   9  19  35  53  75 100 126 162 204 243 290
#     4  10  20  35  55  75  98 129 161 197 244 295
#     4   9  17  31  51  72  96 127 161 197 238 284
#     4   9  17  30  48  70  97 130 166 200 236 281
#     4   9  17  30  48  69  94 126 162 197 234 278
#
# _framework density 19.949971000000001
#
# number of rings (size 3 to 8) (size 9 to 14) (size 15 to 20)
#    0.000    2.800    0.000    1.200    0.000    4.800 
#    0.000    5.000    0.000    4.800    0.000    0.000 
#    0.000    0.000    0.000    0.000    0.000    0.000 
#
# Total GULP energy -223076.310452 kJ/mol
# GULP energy per Si atom -5576.907761 kJ/mol
# Density = 1.990456 g / cm^3
# Si number density = 19.949971 Si / 1000 Ang^3
#
#
#
# Elastic Constant Matrix: (Units=GPa)
#
#
# Indices 1 2 3 4 5 6 
#
# 1 238.3772 117.5569 8.9028 0.0000 0.0000 0.0000
# 2 117.5569 138.2675 -10.2206 0.0000 0.0000 0.0000
# 3 8.9028 -10.2206 28.3840 0.0000 0.0000 0.0000
# 4 0.0000 0.0000 0.0000 16.9443 0.0000 0.0000
# 5 0.0000 0.0000 0.0000 0.0000 11.5244 0.0000
# 6 0.0000 0.0000 0.0000 0.0000 0.0000 15.7283
#
#
#
# Elastic Compliance Matrix: (Units=1/GPa)
#
#
# Indices 1 2 3 4 5 6 
#
# 1 0.007860 -0.007053 -0.005005 0.000000 0.000000 0.000000
# 2 -0.007053 0.013758 0.007166 0.000000 0.000000 0.000000
# 3 -0.005005 0.007166 0.039381 0.000000 0.000000 0.000000
# 4 0.000000 0.000000 0.000000 0.059017 0.000000 0.000000
# 5 0.000000 0.000000 0.000000 0.000000 0.086772 0.000000
# 6 0.000000 0.000000 0.000000 0.000000 0.000000 0.063580
#
#
# Mechanical properties :
#
#
# Convention : Reuss Voigt Hill
#
# Bulk Modulus (GPa) = 19.52475 70.83410 45.17942
# Shear Modulus (GPa) = 16.82237 28.09205 22.45721
#
# Velocity S-wave (km/s) = 2.90699 3.75657 3.35875
# Velocity P-wave (km/s) = 4.59081 7.37555 6.14305
#
# Compressibility (1/GPa) = 0.05121706
#
# Stress axis : x y z
#
# Youngs Moduli (GPa) = 127.22685 72.68347 25.39277
#
# Poissons Ratio (x) = 0.51261 0.12709
# Poissons Ratio (y) = 0.89728 -0.18197
# Poissons Ratio (z) = 0.63675 -0.52086
#
# Static dielectric constant tensor:
#      x y z
#    x 1.711440 0.000000 0.000000 
#    y 0.000000 1.688910 0.000000 
#    z 0.000000 0.000000 1.737190 
# 
# From -- ./inp_files/25666.got.cif
#   From: 2010.05.17/outbox.cif.g08.bks.cpg/sg63_13_cif.got.tgz:25666.got - 2010.06.03 15:47:04.
