data_PCOD9472040
_publ_section_title
;
Structure prediction by ZEFSAII (Michael W. Deem and Ramdas Pophale) SiO2 
 PCOD9472040
Probable space group: C M C M
;
_chemical_formula_sum "Si O2"
_cell_formula_units_Z 96
_cell_length_a 8.767503
_cell_length_b 25.875214
_cell_length_c 24.145239
_cell_angle_alpha 90.000000
_cell_angle_beta 90.000000
_cell_angle_gamma 90.000000
_cell_volume 5477.613460
_symmetry_space_group_name_H-M "C M C M"
_symmetry_group_IT_number 63
_symmetry_cell_setting 'orthorhombic'
loop_
_space_group_symop_operation_xyz
x,y,z
-x,-y,1/2+z
x,-y,-z
-x,y,1/2-z
-x,-y,-z
x,y,1/2-z
-x,y,z
x,-y,1/2+z
1/2+x,1/2+y,z
1/2-x,1/2-y,1/2+z
1/2+x,1/2-y,-z
1/2-x,1/2+y,1/2-z
1/2-x,1/2-y,-z
1/2+x,1/2+y,1/2-z
1/2-x,1/2+y,z
1/2+x,1/2-y,1/2+z
loop_
_atom_site_type_symbol
_atom_site_label
_atom_site_fract_x
_atom_site_fract_y
_atom_site_fract_z
Si Si1 0.183999 0.810936 0.058514
Si Si2 0.817601 0.402115 0.863522
Si Si3 0.182556 0.006297 0.064291
Si Si4 0.682998 0.595974 0.636688
Si Si5 0.181063 0.557892 0.750000
Si Si6 0.183763 0.692412 0.061592
Si Si7 0.181671 0.942322 0.750000
O O1 0.232163 0.852688 0.103965
O O2 0.229677 0.751922 0.072054
O O3 0.000000 0.812857 0.055368
O O4 0.248784 0.823460 0.997838
O O5 0.768913 0.447194 0.905879
O O6 0.770515 0.347782 0.891056
O O7 0.740150 0.414079 0.805072
O O8 0.000000 0.402524 0.856490
O O9 0.000000 0.016262 0.067051
O O10 0.212757 0.953561 0.097658
O O11 0.224262 0.000000 0.000000
O O12 0.500000 0.598401 0.645529
O O13 0.763471 0.586950 0.694970
O O14 0.254082 0.500690 0.750000
O O15 0.000000 0.552551 0.750000
O O16 0.000000 0.691108 0.057635
O O17 0.000000 0.945019 0.750000
#
# Coordination Sequence:
#
# PCOD9472040 Si02
#       7
#    16  16  16  16   8  16   8
#     4   9  18  35  59  84 111 148 188 224 269 324
#     4  11  22  36  55  81 112 146 183 228 280 329
#     4  10  20  33  52  80 111 143 180 225 272 327
#     4  10  20  35  56  80 109 145 186 227 267 322
#     4  12  24  38  57  80 109 145 182 226 280 333
#     4   9  19  35  56  84 116 147 182 226 275 324
#     4  12  24  40  59  78 105 145 190 232 274 331
#
# _framework density 17.525880000000001
#
# number of rings (size 3 to 8) (size 9 to 14) (size 15 to 20)
#    0.000    1.833    1.667    3.000    0.000    3.667 
#    0.000    0.833    0.000    5.000    0.000    0.000 
#    0.000    0.000    0.000    0.000    0.000    0.000 
#
# Total GULP energy -268085.792966 kJ/mol
# GULP energy per Si atom -5585.120687 kJ/mol
# Density = 1.748599 g / cm^3
# Si number density = 17.525880 Si / 1000 Ang^3
#
#
#
# Elastic Constant Matrix: (Units=GPa)
#
#
# Indices 1 2 3 4 5 6 
#
# 1 44.7155 42.0672 50.9716 0.0000 0.0000 0.0000
# 2 42.0672 104.8255 76.6058 0.0000 0.0000 0.0000
# 3 50.9716 76.6058 148.4714 0.0000 0.0000 0.0000
# 4 0.0000 0.0000 0.0000 23.2381 0.0000 0.0000
# 5 0.0000 0.0000 0.0000 0.0000 28.5547 0.0000
# 6 0.0000 0.0000 0.0000 0.0000 0.0000 22.3526
#
#
#
# Elastic Compliance Matrix: (Units=1/GPa)
#
#
# Indices 1 2 3 4 5 6 
#
# 1 0.042718 -0.010315 -0.009343 0.000000 0.000000 0.000000
# 2 -0.010315 0.017805 -0.005645 0.000000 0.000000 0.000000
# 3 -0.009343 -0.005645 0.012856 0.000000 0.000000 0.000000
# 4 0.000000 0.000000 0.000000 0.043033 0.000000 0.000000
# 5 0.000000 0.000000 0.000000 0.000000 0.035021 0.000000
# 6 0.000000 0.000000 0.000000 0.000000 0.000000 0.044738
#
#
# Mechanical properties :
#
#
# Convention : Reuss Voigt Hill
#
# Bulk Modulus (GPa) = 43.91503 70.81129 57.36316
# Shear Modulus (GPa) = 19.65658 23.38693 21.52176
#
# Velocity S-wave (km/s) = 3.35262 3.65694 3.50808
# Velocity P-wave (km/s) = 6.33233 7.63692 7.01502
#
# Compressibility (1/GPa) = 0.02277125
#
# Stress axis : x y z
#
# Youngs Moduli (GPa) = 23.40915 56.16478 77.78608
#
# Poissons Ratio (x) = 0.57934 0.72679
# Poissons Ratio (y) = 0.24147 0.43913
# Poissons Ratio (z) = 0.21872 0.31707
#
# Static dielectric constant tensor:
#      x y z
#    x 1.591230 0.000000 0.000000 
#    y 0.000000 1.594230 0.000000 
#    z 0.000000 0.000000 1.564570 
# 
# From -- ./inp_files/60000.got.cif
#   From: 2010.05.17/outbox.cif.g08.bks.cpg/sg63_30_cif.got.tgz:60000.got - 2010.06.03 15:47:04.
