data_PCOD9472489
_publ_section_title
;
Structure prediction by ZEFSAII (Michael W. Deem and Ramdas Pophale) SiO2 
 PCOD9472489
Probable space group: C M C M
;
_chemical_formula_sum "Si O2"
_cell_formula_units_Z 80
_cell_length_a 24.583237
_cell_length_b 20.204738
_cell_length_c 7.613657
_cell_angle_alpha 90.000000
_cell_angle_beta 90.000000
_cell_angle_gamma 90.000000
_cell_volume 3781.687160
_symmetry_space_group_name_H-M "C M C M"
_symmetry_group_IT_number 63
_symmetry_cell_setting 'orthorhombic'
loop_
_space_group_symop_operation_xyz
x,y,z
-x,-y,1/2+z
x,-y,-z
-x,y,1/2-z
-x,-y,-z
x,y,1/2-z
-x,y,z
x,-y,1/2+z
1/2+x,1/2+y,z
1/2-x,1/2-y,1/2+z
1/2+x,1/2-y,-z
1/2-x,1/2+y,1/2-z
1/2-x,1/2-y,-z
1/2+x,1/2+y,1/2-z
1/2-x,1/2+y,z
1/2+x,1/2-y,1/2+z
loop_
_atom_site_type_symbol
_atom_site_label
_atom_site_fract_x
_atom_site_fract_y
_atom_site_fract_z
Si Si1 0.879675 0.304557 0.462940
Si Si2 0.338366 0.577877 0.961525
Si Si3 0.062758 0.165366 0.958381
Si Si4 0.740495 0.826959 0.039731
Si Si5 0.940058 0.568039 0.539491
O O1 0.877273 0.301596 0.250000
O O2 0.903666 0.233878 0.518097
O O3 0.821198 0.331431 0.525626
O O4 0.918695 0.362554 0.523569
O O5 0.338871 0.584707 0.750000
O O6 0.395869 0.608602 0.027201
O O7 0.287701 0.623676 0.027020
O O8 0.332235 0.500000 0.000000
O O9 0.057647 0.154863 0.750000
O O10 0.000000 0.167877 0.027896
O O11 0.739970 0.836106 0.250000
O O12 0.750000 0.750000 0.000000
O O13 0.908805 0.500000 0.500000
O O14 0.942364 0.572586 0.750000
O O15 0.000000 0.561207 0.462419
#
# Coordination Sequence:
#
# PCOD9472489 Si02
#       5
#    16  16  16  16  16
#     4  10  20  34  56  83 110 141 183 230 276 331
#     4  10  22  39  57  82 115 148 187 232 278 331
#     4  10  21  37  57  82 113 149 189 233 280 331
#     4  10  20  36  58  82 109 142 180 223 273 328
#     4   9  18  32  48  70 104 141 176 217 263 313
#
# _framework density 21.154578999999998
#
# number of rings (size 3 to 8) (size 9 to 14) (size 15 to 20)
#    0.000    2.200    2.000    0.600    0.000    4.800 
#    0.000    2.000    0.000    0.000    0.000    0.000 
#    0.000    0.000    0.000    0.000    0.000    0.000 
#
# Total GULP energy -222742.236361 kJ/mol
# GULP energy per Si atom -5568.555909 kJ/mol
# Density = 2.110643 g / cm^3
# Si number density = 21.154579 Si / 1000 Ang^3
#
#
#
# Elastic Constant Matrix: (Units=GPa)
#
#
# Indices 1 2 3 4 5 6 
#
# 1 166.1712 86.2991 9.8725 0.0000 0.0000 0.0000
# 2 86.2991 170.6090 -7.0701 0.0000 0.0000 0.0000
# 3 9.8725 -7.0701 42.3379 0.0000 0.0000 0.0000
# 4 0.0000 0.0000 0.0000 27.3258 0.0000 0.0000
# 5 0.0000 0.0000 0.0000 0.0000 9.6158 0.0000
# 6 0.0000 0.0000 0.0000 0.0000 0.0000 35.3006
#
#
#
# Elastic Compliance Matrix: (Units=1/GPa)
#
#
# Indices 1 2 3 4 5 6 
#
# 1 0.008459 -0.004391 -0.002706 0.000000 0.000000 0.000000
# 2 -0.004391 0.008181 0.002390 0.000000 0.000000 0.000000
# 3 -0.002706 0.002390 0.024650 0.000000 0.000000 0.000000
# 4 0.000000 0.000000 0.000000 0.036595 0.000000 0.000000
# 5 0.000000 0.000000 0.000000 0.000000 0.103996 0.000000
# 6 0.000000 0.000000 0.000000 0.000000 0.000000 0.028328
#
#
# Mechanical properties :
#
#
# Convention : Reuss Voigt Hill
#
# Bulk Modulus (GPa) = 31.37065 61.92458 46.64761
# Shear Modulus (GPa) = 21.71567 33.78286 27.74926
#
# Velocity S-wave (km/s) = 3.20742 4.00052 3.62572
# Velocity P-wave (km/s) = 5.34585 7.11863 6.29496
#
# Compressibility (1/GPa) = 0.03187693
#
# Stress axis : x y z
#
# Youngs Moduli (GPa) = 118.21671 122.22717 40.56864
#
# Poissons Ratio (x) = 0.53670 0.10977
# Poissons Ratio (y) = 0.51909 -0.09697
# Poissons Ratio (z) = 0.31987 -0.29214
#
# Static dielectric constant tensor:
#      x y z
#    x 0.685610 0.000000 0.000000 
#    y 0.000000 1.927820 0.000000 
#    z 0.000000 0.000000 1.807270 
# 
# From -- ./inp_files/12021.got.cif
#   From: 2010.05.17/outbox.cif.g08.bks.cpg/sg63_7_cif.got.tgz:12021.got - 2010.06.03 15:47:04.
