data_PCOD9472971
_publ_section_title
;
Structure prediction by ZEFSAII (Michael W. Deem and Ramdas Pophale) SiO2 
 PCOD9472971
Probable space group: C M C M
;
_chemical_formula_sum "Si O2"
_cell_formula_units_Z 80
_cell_length_a 23.606361
_cell_length_b 8.728690
_cell_length_c 21.630335
_cell_angle_alpha 90.000000
_cell_angle_beta 90.000000
_cell_angle_gamma 90.000000
_cell_volume 4456.986921
_symmetry_space_group_name_H-M "C M C M"
_symmetry_group_IT_number 63
_symmetry_cell_setting 'orthorhombic'
loop_
_space_group_symop_operation_xyz
x,y,z
-x,-y,1/2+z
x,-y,-z
-x,y,1/2-z
-x,-y,-z
x,y,1/2-z
-x,y,z
x,-y,1/2+z
1/2+x,1/2+y,z
1/2-x,1/2-y,1/2+z
1/2+x,1/2-y,-z
1/2-x,1/2+y,1/2-z
1/2-x,1/2-y,-z
1/2+x,1/2+y,1/2-z
1/2-x,1/2+y,z
1/2+x,1/2-y,1/2+z
loop_
_atom_site_type_symbol
_atom_site_label
_atom_site_fract_x
_atom_site_fract_y
_atom_site_fract_z
Si Si1 0.226840 0.092467 0.678187
Si Si2 0.377651 0.000000 0.000000
Si Si3 0.697209 0.748614 0.549762
Si Si4 0.891376 0.000000 0.000000
Si Si5 0.435889 0.251125 0.915971
Si Si6 0.835141 0.231968 0.180074
O O1 0.210415 0.135077 0.750000
O O2 0.209199 0.197354 0.619908
O O3 0.294289 0.120328 0.676831
O O4 0.202445 0.921843 0.666853
O O5 0.416716 0.119069 0.963593
O O6 0.334767 0.910078 0.954753
O O7 0.750000 0.750000 0.500000
O O8 0.651301 0.626312 0.526451
O O9 0.929492 0.913864 0.950258
O O10 0.500000 0.227063 0.894793
O O11 0.387901 0.253744 0.864202
O O12 0.855002 0.214614 0.250000
#
# Coordination Sequence:
#
# PCOD9472971 Si02
#       6
#    16   8  16   8  16  16
#     4  10  21  37  58  86 121 153 190 240 302 367
#     4  10  24  36  54  86 118 151 199 238 294 352
#     4  11  21  33  57  86 120 154 187 242 299 361
#     4  10  20  36  54  84 112 147 199 236 292 342
#     4  11  22  40  59  81 115 156 201 244 286 346
#     4  10  22  38  60  88 116 152 193 239 299 355
#
# _framework density 17.949345999999998
#
# number of rings (size 3 to 8) (size 9 to 14) (size 15 to 20)
#    0.000    1.600    2.000    3.600    5.600    0.400 
#    0.000    0.000    0.000    0.000    0.000    0.000 
#    0.000    0.000    0.000    0.000    0.000    0.000 
#
# Total GULP energy -222902.585056 kJ/mol
# GULP energy per Si atom -5572.564626 kJ/mol
# Density = 1.790849 g / cm^3
# Si number density = 17.949346 Si / 1000 Ang^3
#
#
#
# Elastic Constant Matrix: (Units=GPa)
#
#
# Indices 1 2 3 4 5 6 
#
# 1 120.1440 41.7360 59.9059 0.0000 0.0000 0.0000
# 2 41.7360 70.3572 35.6667 0.0000 0.0000 0.0000
# 3 59.9059 35.6667 95.6701 0.0000 0.0000 0.0000
# 4 0.0000 0.0000 0.0000 25.9479 0.0000 0.0000
# 5 0.0000 0.0000 0.0000 0.0000 -2.4331 0.0000
# 6 0.0000 0.0000 0.0000 0.0000 0.0000 17.7524
#
#
#
# Elastic Compliance Matrix: (Units=1/GPa)
#
#
# Indices 1 2 3 4 5 6 
#
# 1 0.013152 -0.004472 -0.006568 0.000000 0.000000 0.000000
# 2 -0.004472 0.019046 -0.004300 0.000000 0.000000 0.000000
# 3 -0.006568 -0.004300 0.016168 0.000000 0.000000 0.000000
# 4 0.000000 0.000000 0.000000 0.038539 0.000000 0.000000
# 5 0.000000 0.000000 0.000000 0.000000 -0.410993 0.000000
# 6 0.000000 0.000000 0.000000 0.000000 0.000000 0.056331
#
#
# Mechanical properties :
#
#
# Convention : Reuss Voigt Hill
#
# Bulk Modulus (GPa) = 56.54334 62.30981 59.42658
# Shear Modulus (GPa) = -21.62802 18.17762 -1.72520
#
# Velocity S-wave (km/s) = -3.47500 3.18577 -0.98145
# Velocity P-wave (km/s) = 3.93308 6.95139 5.64761
#
# Compressibility (1/GPa) = 0.01768555
#
# Stress axis : x y z
#
# Youngs Moduli (GPa) = 76.03516 52.50454 61.84874
#
# Poissons Ratio (x) = 0.23480 0.40623
# Poissons Ratio (y) = 0.34004 0.26596
# Poissons Ratio (z) = 0.49940 0.22578
#
# Static dielectric constant tensor:
#      x y z
#    x 1.601990 0.000000 0.000000 
#    y 0.000000 1.666290 0.000000 
#    z 0.000000 0.000000 1.717860 
# 
# From -- ./inp_files/57268.got.cif
#   From: 2010.05.17/outbox.cif.g08.bks.cpg/sg63_29_cif.got.tgz:57268.got - 2010.06.03 15:47:04.
