data_PCOD9472020
_publ_section_title
;
Structure prediction by ZEFSAII (Michael W. Deem and Ramdas Pophale) SiO2 
 PCOD9472020
Probable space group: C M C M
;
_chemical_formula_sum "Si O2"
_cell_formula_units_Z 80
_cell_length_a 9.191581
_cell_length_b 26.037249
_cell_length_c 19.603086
_cell_angle_alpha 90.000000
_cell_angle_beta 90.000000
_cell_angle_gamma 90.000000
_cell_volume 4691.478823
_symmetry_space_group_name_H-M "C M C M"
_symmetry_group_IT_number 63
_symmetry_cell_setting 'orthorhombic'
loop_
_space_group_symop_operation_xyz
x,y,z
-x,-y,1/2+z
x,-y,-z
-x,y,1/2-z
-x,-y,-z
x,y,1/2-z
-x,y,z
x,-y,1/2+z
1/2+x,1/2+y,z
1/2-x,1/2-y,1/2+z
1/2+x,1/2-y,-z
1/2-x,1/2+y,1/2-z
1/2-x,1/2-y,-z
1/2+x,1/2+y,1/2-z
1/2-x,1/2+y,z
1/2+x,1/2-y,1/2+z
loop_
_atom_site_type_symbol
_atom_site_label
_atom_site_fract_x
_atom_site_fract_y
_atom_site_fract_z
Si Si1 0.172860 0.308633 0.925842
Si Si2 0.826998 0.811275 0.429068
Si Si3 0.170678 0.110017 0.331875
Si Si4 0.167028 0.507211 0.167148
Si Si5 0.674954 0.891518 0.330593
O O1 0.197845 0.248452 0.909554
O O2 0.240761 0.345685 0.869539
O O3 0.000000 0.316705 0.931793
O O4 0.250172 0.319260 0.998039
O O5 0.757680 0.849483 0.374455
O O6 0.000000 0.819130 0.435042
O O7 0.189127 0.113962 0.250000
O O8 0.232202 0.054350 0.353780
O O9 0.000000 0.114200 0.347273
O O10 0.165748 0.506289 0.250000
O O11 0.212915 0.449779 0.146693
O O12 0.000000 0.516052 0.145137
O O13 0.708025 0.886430 0.250000
O O14 0.500000 0.886322 0.338018
#
# Coordination Sequence:
#
# PCOD9472020 Si02
#       5
#    16  16  16  16  16
#     4  10  21  37  55  73  99 137 174 209 254 307
#     4  10  21  36  54  76 102 133 170 213 259 303
#     4  10  20  33  52  79 107 134 167 210 256 298
#     4   8  15  30  51  74 102 136 170 203 245 299
#     4   9  18  33  54  79 106 137 171 206 248 301
#
# _framework density 17.052192000000002
#
# number of rings (size 3 to 8) (size 9 to 14) (size 15 to 20)
#    0.000    2.600    0.000    3.000    0.000    5.600 
#    0.000    7.000    0.000    6.000    0.000    0.000 
#    0.000    0.000    0.000    0.000    0.000    0.000 
#
# Total GULP energy -223075.303832 kJ/mol
# GULP energy per Si atom -5576.882596 kJ/mol
# Density = 1.701338 g / cm^3
# Si number density = 17.052192 Si / 1000 Ang^3
#
#
#
# Elastic Constant Matrix: (Units=GPa)
#
#
# Indices 1 2 3 4 5 6 
#
# 1 95.9712 89.0464 54.9201 0.0000 0.0000 0.0000
# 2 89.0464 125.2532 64.6143 0.0000 0.0000 0.0000
# 3 54.9201 64.6143 46.5488 0.0000 0.0000 0.0000
# 4 0.0000 0.0000 0.0000 -81.1420 0.0000 0.0000
# 5 0.0000 0.0000 0.0000 0.0000 31.1128 0.0000
# 6 0.0000 0.0000 0.0000 0.0000 0.0000 35.6093
#
#
#
# Elastic Compliance Matrix: (Units=1/GPa)
#
#
# Indices 1 2 3 4 5 6 
#
# 1 0.037653 -0.013565 -0.025595 0.000000 0.000000 0.000000
# 2 -0.013565 0.033007 -0.029812 0.000000 0.000000 0.000000
# 3 -0.025595 -0.029812 0.093063 0.000000 0.000000 0.000000
# 4 0.000000 0.000000 0.000000 -0.012324 0.000000 0.000000
# 5 0.000000 0.000000 0.000000 0.000000 0.032141 0.000000
# 6 0.000000 0.000000 0.000000 0.000000 0.000000 0.028083
#
#
# Mechanical properties :
#
#
# Convention : Reuss Voigt Hill
#
# Bulk Modulus (GPa) = 38.79187 76.10389 57.44788
# Shear Modulus (GPa) = 13.96031 1.06218 7.51125
#
# Velocity S-wave (km/s) = 2.86436 0.79010 2.10105
# Velocity P-wave (km/s) = 5.80842 6.74976 6.29670
#
# Compressibility (1/GPa) = 0.02577860
#
# Stress axis : x y z
#
# Youngs Moduli (GPa) = 26.55855 30.29676 10.74544
#
# Poissons Ratio (x) = 0.41098 0.27503
# Poissons Ratio (y) = 0.36027 0.32035
# Poissons Ratio (z) = 0.67976 0.90321
#
# Static dielectric constant tensor:
#      x y z
#    x 1.564150 0.000000 0.000000 
#    y 0.000000 1.573430 0.000000 
#    z 0.000000 0.000000 1.550340 
# 
# From -- ./inp_files/40444.got.cif
#   From: 2010.05.17/outbox.cif.g08.bks.cpg/sg63_21_cif.got.tgz:40444.got - 2010.06.03 15:47:04.
