data_PCOD9472646
_publ_section_title
;
Structure prediction by ZEFSAII (Michael W. Deem and Ramdas Pophale) SiO2 
 PCOD9472646
Probable space group: C M C M
;
_chemical_formula_sum "Si O2"
_cell_formula_units_Z 112
_cell_length_a 22.274785
_cell_length_b 13.255527
_cell_length_c 16.379687
_cell_angle_alpha 90.000000
_cell_angle_beta 90.000000
_cell_angle_gamma 90.000000
_cell_volume 4836.332131
_symmetry_space_group_name_H-M "C M C M"
_symmetry_group_IT_number 63
_symmetry_cell_setting 'orthorhombic'
loop_
_space_group_symop_operation_xyz
x,y,z
-x,-y,1/2+z
x,-y,-z
-x,y,1/2-z
-x,-y,-z
x,y,1/2-z
-x,y,z
x,-y,1/2+z
1/2+x,1/2+y,z
1/2-x,1/2-y,1/2+z
1/2+x,1/2-y,-z
1/2-x,1/2+y,1/2-z
1/2-x,1/2-y,-z
1/2+x,1/2+y,1/2-z
1/2-x,1/2+y,z
1/2+x,1/2-y,1/2+z
loop_
_atom_site_type_symbol
_atom_site_label
_atom_site_fract_x
_atom_site_fract_y
_atom_site_fract_z
Si Si1 0.261207 0.278177 0.658967
Si Si2 0.071883 0.319671 0.013727
Si Si3 0.117900 0.730028 0.157726
Si Si4 0.928649 0.909662 0.563843
Si Si5 0.256276 0.976777 0.912723
Si Si6 0.359691 0.446470 0.342079
Si Si7 0.146786 0.406387 0.157956
O O1 0.274232 0.319152 0.750000
O O2 0.190055 0.258496 0.656100
O O3 0.269704 0.365223 0.593531
O O4 0.304133 0.183489 0.648060
O O5 0.088066 0.203435 0.038355
O O6 0.100901 0.390085 0.083648
O O7 0.000000 0.329830 0.014071
O O8 0.095229 0.331566 0.920536
O O9 0.100356 0.697089 0.250000
O O10 0.098905 0.847850 0.146047
O O11 0.000000 0.910065 0.573440
O O12 0.913289 0.000000 0.500000
O O13 0.896463 0.951276 0.644043
O O14 0.199169 0.047424 0.897679
O O15 0.310610 0.995618 0.850477
O O16 0.282709 0.000000 0.000000
O O17 0.336629 0.441031 0.250000
O O18 0.121341 0.401253 0.250000
#
# Coordination Sequence:
#
# PCOD9472646 Si02
#       7
#    16  16  16  16  16  16  16
#     4  10  21  38  61  91 124 162 206 255 314 383
#     4  11  24  40  62  88 121 167 219 263 311 380
#     4  10  21  37  59  87 126 164 205 258 312 374
#     4  10  20  35  54  81 119 161 207 256 305 368
#     4  12  24  36  62  93 124 164 204 258 320 386
#     4  11  21  34  54  84 122 163 203 247 307 376
#     4  11  24  43  65  93 132 168 207 266 326 381
#
# _framework density 23.158045999999999
#
# number of rings (size 3 to 8) (size 9 to 14) (size 15 to 20)
#    0.000    1.286    2.857    3.429    2.000    3.714 
#    0.000    2.857    0.000    3.857    0.000    4.000 
#    0.000    0.000    0.000    0.000    0.000    0.000 
#
# Total GULP energy -312886.067980 kJ/mol
# GULP energy per Si atom -5587.251214 kJ/mol
# Density = 2.310534 g / cm^3
# Si number density = 23.158046 Si / 1000 Ang^3
#
#
#
# Elastic Constant Matrix: (Units=GPa)
#
#
# Indices 1 2 3 4 5 6 
#
# 1 68.4336 1.8198 42.7226 0.0000 0.0000 0.0000
# 2 1.8198 43.1155 3.2487 0.0000 0.0000 0.0000
# 3 42.7226 3.2487 125.4786 0.0000 0.0000 0.0000
# 4 0.0000 0.0000 0.0000 24.2533 0.0000 0.0000
# 5 0.0000 0.0000 0.0000 0.0000 20.3721 0.0000
# 6 0.0000 0.0000 0.0000 0.0000 0.0000 31.1716
#
#
#
# Elastic Compliance Matrix: (Units=1/GPa)
#
#
# Indices 1 2 3 4 5 6 
#
# 1 0.018561 -0.000308 -0.006312 0.000000 0.000000 0.000000
# 2 -0.000308 0.023244 -0.000497 0.000000 0.000000 0.000000
# 3 -0.006312 -0.000497 0.010131 0.000000 0.000000 0.000000
# 4 0.000000 0.000000 0.000000 0.041231 0.000000 0.000000
# 5 0.000000 0.000000 0.000000 0.000000 0.049087 0.000000
# 6 0.000000 0.000000 0.000000 0.000000 0.000000 0.032080
#
#
# Mechanical properties :
#
#
# Convention : Reuss Voigt Hill
#
# Bulk Modulus (GPa) = 26.52274 36.95666 31.73970
# Shear Modulus (GPa) = 24.85880 27.77519 26.31700
#
# Velocity S-wave (km/s) = 3.27990 3.46696 3.37472
# Velocity P-wave (km/s) = 5.08148 5.65858 5.37777
#
# Compressibility (1/GPa) = 0.03770350
#
# Stress axis : x y z
#
# Youngs Moduli (GPa) = 53.87574 43.02190 98.70359
#
# Poissons Ratio (x) = 0.01324 0.62299
# Poissons Ratio (y) = 0.01658 0.04906
# Poissons Ratio (z) = 0.34005 0.02138
#
# Static dielectric constant tensor:
#      x y z
#    x 1.813260 0.000000 0.000000 
#    y 0.000000 1.961830 0.000000 
#    z 0.000000 0.000000 1.900700 
# 
# From -- ./inp_files/36867.got.cif
#   From: 2010.05.17/outbox.cif.g08.bks.cpg/sg63_19_cif.got.tgz:36867.got - 2010.06.03 15:47:04.
