data_PCOD9472618
_publ_section_title
;
Structure prediction by ZEFSAII (Michael W. Deem and Ramdas Pophale) SiO2 
 PCOD9472618
Probable space group: C M C M
;
_chemical_formula_sum "Si O2"
_cell_formula_units_Z 104
_cell_length_a 21.200007
_cell_length_b 29.395419
_cell_length_c 7.718827
_cell_angle_alpha 90.000000
_cell_angle_beta 90.000000
_cell_angle_gamma 90.000000
_cell_volume 4810.242450
_symmetry_space_group_name_H-M "C M C M"
_symmetry_group_IT_number 63
_symmetry_cell_setting 'orthorhombic'
loop_
_space_group_symop_operation_xyz
x,y,z
-x,-y,1/2+z
x,-y,-z
-x,y,1/2-z
-x,-y,-z
x,y,1/2-z
-x,y,z
x,-y,1/2+z
1/2+x,1/2+y,z
1/2-x,1/2-y,1/2+z
1/2+x,1/2-y,-z
1/2-x,1/2+y,1/2-z
1/2-x,1/2-y,-z
1/2+x,1/2+y,1/2-z
1/2-x,1/2+y,z
1/2+x,1/2-y,1/2+z
loop_
_atom_site_type_symbol
_atom_site_label
_atom_site_fract_x
_atom_site_fract_y
_atom_site_fract_z
Si Si1 0.070461 0.176728 0.453547
Si Si2 0.000000 0.946312 0.042780
Si Si3 0.200460 0.863190 0.551450
Si Si4 0.636511 0.552871 0.542688
Si Si5 0.840525 0.637633 0.041527
Si Si6 0.928340 0.447663 0.044134
Si Si7 0.570472 0.218097 0.040944
O O1 0.068475 0.164693 0.250000
O O2 0.135836 0.156808 0.529928
O O3 0.077136 0.231235 0.468827
O O4 0.000000 0.165066 0.527377
O O5 0.932524 0.929826 0.978187
O O6 0.000000 0.941521 0.250000
O O7 0.000000 0.000000 0.000000
O O8 0.201974 0.846295 0.750000
O O9 0.188790 0.917129 0.546770
O O10 0.269330 0.857032 0.472045
O O11 0.641455 0.500000 0.500000
O O12 0.639674 0.558172 0.750000
O O13 0.836001 0.640743 0.250000
O O14 0.881060 0.680429 0.978277
O O15 0.877751 0.590574 0.008785
O O16 0.932160 0.445032 0.250000
O O17 0.000000 0.439228 0.973565
O O18 0.911187 0.500000 0.000000
O O19 0.575511 0.221827 0.250000
O O20 0.500000 0.201876 0.999511
#
# Coordination Sequence:
#
# PCOD9472618 Si02
#       7
#    16   8  16  16  16  16  16
#     4   9  19  36  56  79 108 142 180 226 278 327
#     4   8  16  30  48  72  96 122 164 216 266 312
#     4  10  22  37  53  78 110 147 187 226 273 327
#     4  10  20  35  54  76 103 137 178 224 272 323
#     4  10  21  37  56  80 113 149 186 226 270 324
#     4  10  21  37  59  87 116 147 185 227 272 323
#     4   9  18  34  57  82 106 137 177 222 273 327
#
# _framework density 21.620529999999999
#
# number of rings (size 3 to 8) (size 9 to 14) (size 15 to 20)
#    0.000    2.462    0.000    1.385    1.077    5.231 
#    0.000    1.538    0.000    0.000    0.000    0.000 
#    0.000    0.000    0.000    0.000    0.000    0.000 
#
# Total GULP energy -290059.627347 kJ/mol
# GULP energy per Si atom -5578.069757 kJ/mol
# Density = 2.157132 g / cm^3
# Si number density = 21.620530 Si / 1000 Ang^3
#
#
#
# Elastic Constant Matrix: (Units=GPa)
#
#
# Indices 1 2 3 4 5 6 
#
# 1 186.3880 85.2102 16.6370 0.0000 0.0000 0.0000
# 2 85.2102 92.4137 2.2030 0.0000 0.0000 0.0000
# 3 16.6370 2.2030 50.7875 0.0000 0.0000 0.0000
# 4 0.0000 0.0000 0.0000 27.8442 0.0000 0.0000
# 5 0.0000 0.0000 0.0000 0.0000 6.8175 0.0000
# 6 0.0000 0.0000 0.0000 0.0000 0.0000 17.8980
#
#
#
# Elastic Compliance Matrix: (Units=1/GPa)
#
#
# Indices 1 2 3 4 5 6 
#
# 1 0.009651 -0.008833 -0.002778 0.000000 0.000000 0.000000
# 2 -0.008833 0.018916 0.002073 0.000000 0.000000 0.000000
# 3 -0.002778 0.002073 0.020510 0.000000 0.000000 0.000000
# 4 0.000000 0.000000 0.000000 0.035914 0.000000 0.000000
# 5 0.000000 0.000000 0.000000 0.000000 0.146681 0.000000
# 6 0.000000 0.000000 0.000000 0.000000 0.000000 0.055872
#
#
# Mechanical properties :
#
#
# Convention : Reuss Voigt Hill
#
# Bulk Modulus (GPa) = 33.33260 59.74327 46.53793
# Shear Modulus (GPa) = 15.79181 25.54790 20.66985
#
# Velocity S-wave (km/s) = 2.70554 3.44124 3.09533
# Velocity P-wave (km/s) = 5.02100 6.59410 5.86057
#
# Compressibility (1/GPa) = 0.03000066
#
# Stress axis : x y z
#
# Youngs Moduli (GPa) = 103.61512 52.86648 48.75639
#
# Poissons Ratio (x) = 0.46695 0.13546
# Poissons Ratio (y) = 0.91519 -0.10107
# Poissons Ratio (z) = 0.28788 -0.10959
#
# Static dielectric constant tensor:
#      x y z
#    x 1.835700 0.000000 0.000000 
#    y 0.000000 1.767080 0.000000 
#    z 0.000000 0.000000 1.802630 
# 
# From -- ./inp_files/8830.got.cif
#   From: 2010.05.17/outbox.cif.g08.bks.cpg/sg63_5_cif.got.tgz:8830.got - 2010.06.03 15:47:04.
