data_PCOD9472465
_publ_section_title
;
Structure prediction by ZEFSAII (Michael W. Deem and Ramdas Pophale) SiO2 
 PCOD9472465
Probable space group: C M C M
;
_chemical_formula_sum "Si O2"
_cell_formula_units_Z 96
_cell_length_a 7.452280
_cell_length_b 25.167274
_cell_length_c 28.253522
_cell_angle_alpha 90.000000
_cell_angle_beta 90.000000
_cell_angle_gamma 90.000000
_cell_volume 5299.048992
_symmetry_space_group_name_H-M "C M C M"
_symmetry_group_IT_number 63
_symmetry_cell_setting 'orthorhombic'
loop_
_space_group_symop_operation_xyz
x,y,z
-x,-y,1/2+z
x,-y,-z
-x,y,1/2-z
-x,-y,-z
x,y,1/2-z
-x,y,z
x,-y,1/2+z
1/2+x,1/2+y,z
1/2-x,1/2-y,1/2+z
1/2+x,1/2-y,-z
1/2-x,1/2+y,1/2-z
1/2-x,1/2-y,-z
1/2+x,1/2+y,1/2-z
1/2-x,1/2+y,z
1/2+x,1/2-y,1/2+z
loop_
_atom_site_type_symbol
_atom_site_label
_atom_site_fract_x
_atom_site_fract_y
_atom_site_fract_z
Si Si1 0.000000 0.022317 0.805459
Si Si2 0.717005 0.082709 0.553735
Si Si3 0.500000 0.349613 0.305682
Si Si4 0.217124 0.317358 0.119158
Si Si5 0.215425 0.484450 0.621640
Si Si6 0.287391 0.723102 0.050749
Si Si7 0.706765 0.100758 0.050505
O O1 0.000000 0.010357 0.750000
O O2 0.000000 0.086335 0.811087
O O3 0.827002 0.998580 0.831991
O O4 0.500000 0.085212 0.550808
O O5 0.768923 0.134546 0.583668
O O6 0.787658 0.084637 0.500235
O O7 0.759597 0.030186 0.583051
O O8 0.500000 0.337395 0.250000
O O9 0.673522 0.326729 0.332990
O O10 0.269052 0.263248 0.092179
O O11 0.000000 0.318596 0.125571
O O12 0.275727 0.429755 0.596545
O O13 0.000000 0.485299 0.630629
O O14 0.500000 0.717264 0.054587
O O15 0.210236 0.664173 0.053687
O O16 0.250000 0.750000 0.000000
O O17 0.500000 0.082602 0.048471
#
# Coordination Sequence:
#
# PCOD9472465 Si02
#       7
#     8  16   8  16  16  16  16
#     4  11  24  40  60  88 114 138 192 254 296 347
#     4   9  16  32  54  80 119 156 184 221 277 335
#     4  11  24  40  63  89 109 147 195 246 304 340
#     4  10  21  37  57  84 119 153 187 233 287 346
#     4  10  21  38  58  82 117 156 190 231 289 347
#     4  11  22  34  53  84 120 159 193 230 281 339
#     4  10  20  34  55  84 117 157 196 226 269 342
#
# _framework density 18.116458000000002
#
# number of rings (size 3 to 8) (size 9 to 14) (size 15 to 20)
#    0.000    1.833    3.333    1.000    3.500    2.667 
#    1.500    2.500    0.000    1.000    0.000    0.000 
#    0.000    0.000    0.000    0.000    0.000    0.000 
#
# Total GULP energy -267942.684896 kJ/mol
# GULP energy per Si atom -5582.139269 kJ/mol
# Density = 1.807522 g / cm^3
# Si number density = 18.116458 Si / 1000 Ang^3
#
#
#
# Elastic Constant Matrix: (Units=GPa)
#
#
# Indices 1 2 3 4 5 6 
#
# 1 82.7253 18.7522 53.6370 0.0000 0.0000 0.0000
# 2 18.7522 86.4810 64.8750 0.0000 0.0000 0.0000
# 3 53.6370 64.8750 164.7807 0.0000 0.0000 0.0000
# 4 0.0000 0.0000 0.0000 25.9697 0.0000 0.0000
# 5 0.0000 0.0000 0.0000 0.0000 20.1447 0.0000
# 6 0.0000 0.0000 0.0000 0.0000 0.0000 20.6687
#
#
#
# Elastic Compliance Matrix: (Units=1/GPa)
#
#
# Indices 1 2 3 4 5 6 
#
# 1 0.015343 0.000595 -0.005229 0.000000 0.000000 0.000000
# 2 0.000595 0.016433 -0.006664 0.000000 0.000000 0.000000
# 3 -0.005229 -0.006664 0.010394 0.000000 0.000000 0.000000
# 4 0.000000 0.000000 0.000000 0.038506 0.000000 0.000000
# 5 0.000000 0.000000 0.000000 0.000000 0.049641 0.000000
# 6 0.000000 0.000000 0.000000 0.000000 0.000000 0.048382
#
#
# Mechanical properties :
#
#
# Convention : Reuss Voigt Hill
#
# Bulk Modulus (GPa) = 51.08115 67.61283 59.34699
# Shear Modulus (GPa) = 24.05934 26.47147 25.26541
#
# Velocity S-wave (km/s) = 3.64818 3.82669 3.73850
# Velocity P-wave (km/s) = 6.78254 7.54500 7.17390
#
# Compressibility (1/GPa) = 0.01957669
#
# Stress axis : x y z
#
# Youngs Moduli (GPa) = 65.17440 60.85367 96.20804
#
# Poissons Ratio (x) = -0.03624 0.50305
# Poissons Ratio (y) = -0.03881 0.64108
# Poissons Ratio (z) = 0.34078 0.40550
#
# Static dielectric constant tensor:
#      x y z
#    x 1.672450 0.000000 0.000000 
#    y 0.000000 1.603920 0.000000 
#    z 0.000000 0.000000 1.584840 
# 
# From -- ./inp_files/60061.got.cif
#   From: 2010.05.17/outbox.cif.g08.bks.cpg/sg63_31_cif.got.tgz:60061.got - 2010.06.03 15:47:04.
