data_PCOD9472713
_publ_section_title
;
Structure prediction by ZEFSAII (Michael W. Deem and Ramdas Pophale) SiO2 
 PCOD9472713
Probable space group: C M C M
;
_chemical_formula_sum "Si O2"
_cell_formula_units_Z 72
_cell_length_a 27.626813
_cell_length_b 15.112882
_cell_length_c 8.441183
_cell_angle_alpha 90.000000
_cell_angle_beta 90.000000
_cell_angle_gamma 90.000000
_cell_volume 3524.369183
_symmetry_space_group_name_H-M "C M C M"
_symmetry_group_IT_number 63
_symmetry_cell_setting 'orthorhombic'
loop_
_space_group_symop_operation_xyz
x,y,z
-x,-y,1/2+z
x,-y,-z
-x,y,1/2-z
-x,-y,-z
x,y,1/2-z
-x,y,z
x,-y,1/2+z
1/2+x,1/2+y,z
1/2-x,1/2-y,1/2+z
1/2+x,1/2-y,-z
1/2-x,1/2+y,1/2-z
1/2-x,1/2-y,-z
1/2+x,1/2+y,1/2-z
1/2-x,1/2+y,z
1/2+x,1/2-y,1/2+z
loop_
_atom_site_type_symbol
_atom_site_label
_atom_site_fract_x
_atom_site_fract_y
_atom_site_fract_z
Si Si1 0.832382 0.089990 0.060102
Si Si2 0.124893 0.597917 0.439756
Si Si3 0.732120 0.154790 0.058392
Si Si4 0.000000 0.898352 0.439090
Si Si5 0.087651 0.223528 0.440190
O O1 0.832692 0.089120 0.250000
O O2 0.777122 0.094900 0.004073
O O3 0.862485 0.175353 0.008291
O O4 0.856005 0.000000 0.000000
O O5 0.112522 0.500000 0.500000
O O6 0.125449 0.597059 0.250000
O O7 0.179505 0.623218 0.498104
O O8 0.089698 0.676582 0.496515
O O9 0.730637 0.155475 0.250000
O O10 0.750000 0.250000 0.000000
O O11 0.045709 0.840827 0.498372
O O12 0.000000 0.901596 0.250000
O O13 0.000000 0.000000 0.500000
O O14 0.085482 0.226144 0.250000
#
# Coordination Sequence:
#
# PCOD9472713 Si02
#       5
#    16  16  16   8  16
#     4  10  21  35  55  85 120 159 203 250 302 361
#     4  11  23  39  62  91 126 170 215 261 313 370
#     4  10  20  35  55  84 121 165 211 256 306 360
#     4  12  26  46  71 100 131 162 202 250 314 380
#     4  11  23  42  66  92 125 162 207 259 314 373
#
# _framework density 20.429188
#
# number of rings (size 3 to 8) (size 9 to 14) (size 15 to 20)
#    0.000    1.333    2.222    3.667    0.000    5.333 
#    0.000    0.556    0.000    0.000    0.000    0.000 
#    0.000    0.000    0.000    0.000    0.000    0.000 
#
# Total GULP energy -201047.109262 kJ/mol
# GULP energy per Si atom -5584.641924 kJ/mol
# Density = 2.038269 g / cm^3
# Si number density = 20.429188 Si / 1000 Ang^3
#
#
#
# Elastic Constant Matrix: (Units=GPa)
#
#
# Indices 1 2 3 4 5 6 
#
# 1 86.6657 57.8863 28.1331 0.0000 0.0000 0.0000
# 2 57.8863 210.4061 41.4646 0.0000 0.0000 0.0000
# 3 28.1331 41.4646 49.9336 0.0000 0.0000 0.0000
# 4 0.0000 0.0000 0.0000 38.9721 0.0000 0.0000
# 5 0.0000 0.0000 0.0000 0.0000 20.9484 0.0000
# 6 0.0000 0.0000 0.0000 0.0000 0.0000 31.5948
#
#
#
# Elastic Compliance Matrix: (Units=1/GPa)
#
#
# Indices 1 2 3 4 5 6 
#
# 1 0.015615 -0.003063 -0.006254 0.000000 0.000000 0.000000
# 2 -0.003063 0.006284 -0.003492 0.000000 0.000000 0.000000
# 3 -0.006254 -0.003492 0.026450 0.000000 0.000000 0.000000
# 4 0.000000 0.000000 0.000000 0.025659 0.000000 0.000000
# 5 0.000000 0.000000 0.000000 0.000000 0.047736 0.000000
# 6 0.000000 0.000000 0.000000 0.000000 0.000000 0.031651
#
#
# Mechanical properties :
#
#
# Convention : Reuss Voigt Hill
#
# Bulk Modulus (GPa) = 43.99470 66.88592 55.44031
# Shear Modulus (GPa) = 26.79682 32.93783 29.86732
#
# Velocity S-wave (km/s) = 3.62566 4.01969 3.82775
# Velocity P-wave (km/s) = 6.25373 7.37261 6.83610
#
# Compressibility (1/GPa) = 0.02273001
#
# Stress axis : x y z
#
# Youngs Moduli (GPa) = 64.04180 159.14221 37.80773
#
# Poissons Ratio (x) = 0.48753 0.23643
# Poissons Ratio (y) = 0.19619 0.13202
# Poissons Ratio (z) = 0.40049 0.55571
#
# Static dielectric constant tensor:
#      x y z
#    x 1.762160 0.000000 0.000000 
#    y 0.000000 1.737520 0.000000 
#    z 0.000000 0.000000 1.689450 
# 
# From -- ./inp_files/11759.got.cif
#   From: 2010.05.17/outbox.cif.g08.bks.cpg/sg63_6_cif.got.tgz:11759.got - 2010.06.03 15:47:04.
