data_PCOD9472871
_publ_section_title
;
Structure prediction by ZEFSAII (Michael W. Deem and Ramdas Pophale) SiO2 
 PCOD9472871
Probable space group: C M C M
;
_chemical_formula_sum "Si O2"
_cell_formula_units_Z 96
_cell_length_a 8.337523
_cell_length_b 29.818658
_cell_length_c 21.134347
_cell_angle_alpha 90.000000
_cell_angle_beta 90.000000
_cell_angle_gamma 90.000000
_cell_volume 5254.289196
_symmetry_space_group_name_H-M "C M C M"
_symmetry_group_IT_number 63
_symmetry_cell_setting 'orthorhombic'
loop_
_space_group_symop_operation_xyz
x,y,z
-x,-y,1/2+z
x,-y,-z
-x,y,1/2-z
-x,-y,-z
x,y,1/2-z
-x,y,z
x,-y,1/2+z
1/2+x,1/2+y,z
1/2-x,1/2-y,1/2+z
1/2+x,1/2-y,-z
1/2-x,1/2+y,1/2-z
1/2-x,1/2-y,-z
1/2+x,1/2+y,1/2-z
1/2-x,1/2+y,z
1/2+x,1/2-y,1/2+z
loop_
_atom_site_type_symbol
_atom_site_label
_atom_site_fract_x
_atom_site_fract_y
_atom_site_fract_z
Si Si1 0.308208 0.028821 0.439276
Si Si2 0.196041 0.779508 0.321049
Si Si3 0.195533 0.875589 0.125863
Si Si4 0.692033 0.221302 0.439850
Si Si5 0.305980 0.471554 0.178749
Si Si6 0.308080 0.624974 0.020586
O O1 0.500000 0.028500 0.440900
O O2 0.249253 0.079563 0.446547
O O3 0.248529 0.000000 0.500000
O O4 0.251581 0.005343 0.375090
O O5 0.248405 0.768429 0.250000
O O6 0.246374 0.829876 0.340108
O O7 0.249249 0.745353 0.375543
O O8 0.000000 0.779338 0.321316
O O9 0.247305 0.921242 0.159806
O O10 0.000000 0.875559 0.126183
O O11 0.247993 0.875495 0.052737
O O12 0.500000 0.222349 0.439809
O O13 0.750000 0.250000 0.500000
O O14 0.748539 0.170403 0.447141
O O15 0.252719 0.482512 0.250000
O O16 0.500000 0.471581 0.178195
O O17 0.500000 0.625568 0.019705
#
# Coordination Sequence:
#
# PCOD9472871 Si02
#       6
#    16  16  16  16  16  16
#     4  11  23  38  57  83 115 152 190 233 284 339
#     4   9  17  31  53  82 113 145 184 228 275 330
#     4   9  16  29  53  85 114 139 177 229 283 336
#     4  11  21  35  56  84 115 149 189 233 282 338
#     4  10  20  35  58  87 116 148 187 234 287 342
#     4  11  21  36  59  85 111 147 192 237 285 334
#
# _framework density 18.270786999999999
#
# number of rings (size 3 to 8) (size 9 to 14) (size 15 to 20)
#    0.000    1.833    3.333    2.000    0.000    3.000 
#    0.000    0.833    0.000    5.000    0.000    0.000 
#    0.000    0.000    0.000    0.000    0.000    0.000 
#
# Total GULP energy -268048.618181 kJ/mol
# GULP energy per Si atom -5584.346212 kJ/mol
# Density = 1.822920 g / cm^3
# Si number density = 18.270787 Si / 1000 Ang^3
#
#
#
# Elastic Constant Matrix: (Units=GPa)
#
#
# Indices 1 2 3 4 5 6 
#
# 1 25.2440 24.9297 27.4655 0.0000 0.0000 0.0000
# 2 24.9297 174.6809 108.6951 0.0000 0.0000 0.0000
# 3 27.4655 108.6951 191.9561 0.0000 0.0000 0.0000
# 4 0.0000 0.0000 0.0000 22.9713 0.0000 0.0000
# 5 0.0000 0.0000 0.0000 0.0000 17.7853 0.0000
# 6 0.0000 0.0000 0.0000 0.0000 0.0000 22.1132
#
#
#
# Elastic Compliance Matrix: (Units=1/GPa)
#
#
# Indices 1 2 3 4 5 6 
#
# 1 0.048693 -0.004036 -0.004682 0.000000 0.000000 0.000000
# 2 -0.004036 0.009174 -0.004617 0.000000 0.000000 0.000000
# 3 -0.004682 -0.004617 0.008494 0.000000 0.000000 0.000000
# 4 0.000000 0.000000 0.000000 0.043533 0.000000 0.000000
# 5 0.000000 0.000000 0.000000 0.000000 0.056226 0.000000
# 6 0.000000 0.000000 0.000000 0.000000 0.000000 0.045222
#
#
# Mechanical properties :
#
#
# Convention : Reuss Voigt Hill
#
# Bulk Modulus (GPa) = 25.19480 79.34018 52.26749
# Shear Modulus (GPa) = 19.90119 27.96000 23.93060
#
# Velocity S-wave (km/s) = 3.30394 3.91616 3.62301
# Velocity P-wave (km/s) = 5.32675 7.99796 6.79491
#
# Compressibility (1/GPa) = 0.03969074
#
# Stress axis : x y z
#
# Youngs Moduli (GPa) = 20.53686 109.00666 117.73226
#
# Poissons Ratio (x) = 0.43996 0.55118
# Poissons Ratio (y) = 0.08289 0.54359
# Poissons Ratio (z) = 0.09615 0.50330
#
# Static dielectric constant tensor:
#      x y z
#    x 1.638920 0.000000 0.000000 
#    y 0.000000 1.590510 0.000000 
#    z 0.000000 0.000000 1.621020 
# 
# From -- ./inp_files/51323.got.cif
#   From: 2010.05.17/outbox.cif.g08.bks.cpg/sg63_26_cif.got.tgz:51323.got - 2010.06.03 15:47:04.
