data_PCOD9472963
_publ_section_title
;
Structure prediction by ZEFSAII (Michael W. Deem and Ramdas Pophale) SiO2 
 PCOD9472963
Probable space group: C M C M
;
_chemical_formula_sum "Si O2"
_cell_formula_units_Z 80
_cell_length_a 27.107872
_cell_length_b 7.266685
_cell_length_c 17.265467
_cell_angle_alpha 90.000000
_cell_angle_beta 90.000000
_cell_angle_gamma 90.000000
_cell_volume 3401.027085
_symmetry_space_group_name_H-M "C M C M"
_symmetry_group_IT_number 63
_symmetry_cell_setting 'orthorhombic'
loop_
_space_group_symop_operation_xyz
x,y,z
-x,-y,1/2+z
x,-y,-z
-x,y,1/2-z
-x,-y,-z
x,y,1/2-z
-x,y,z
x,-y,1/2+z
1/2+x,1/2+y,z
1/2-x,1/2-y,1/2+z
1/2+x,1/2-y,-z
1/2-x,1/2+y,1/2-z
1/2-x,1/2-y,-z
1/2+x,1/2+y,1/2-z
1/2-x,1/2+y,z
1/2+x,1/2-y,1/2+z
loop_
_atom_site_type_symbol
_atom_site_label
_atom_site_fract_x
_atom_site_fract_y
_atom_site_fract_z
Si Si1 0.394300 0.350949 0.336555
Si Si2 0.198776 0.914911 0.414749
Si Si3 0.500000 0.319792 0.105120
Si Si4 0.405083 0.797216 0.339129
Si Si5 0.500000 0.763404 0.429803
Si Si6 0.795912 0.289506 0.339459
O O1 0.378557 0.300640 0.250000
O O2 0.350876 0.301707 0.396576
O O3 0.448721 0.274556 0.353058
O O4 0.401765 0.573178 0.341199
O O5 0.251845 0.827626 0.398946
O O6 0.195124 0.000000 0.500000
O O7 0.198218 0.071217 0.348454
O O8 0.500000 0.543161 0.091390
O O9 0.500000 0.228143 0.021412
O O10 0.414989 0.847845 0.250000
O O11 0.450440 0.845792 0.393379
O O12 0.350143 0.866312 0.359985
O O13 0.784858 0.337906 0.250000
#
# Coordination Sequence:
#
# PCOD9472963 Si02
#       6
#    16  16   8  16   8  16
#     4   9  17  29  44  65  97 134 169 206 256 315
#     4  11  22  34  53  79 107 139 177 225 266 310
#     4   9  17  23  41  65  95 132 162 206 254 311
#     4   8  15  26  44  66  96 130 166 207 254 309
#     4   9  15  23  39  67  97 124 159 208 262 299
#     4  10  20  36  54  75 105 142 178 214 264 321
#
# _framework density 23.522307000000001
#
# number of rings (size 3 to 8) (size 9 to 14) (size 15 to 20)
#    0.000    2.600    0.000    4.200    8.400    2.400 
#    0.000    0.000    0.000    0.000    0.000    2.100 
#    0.000    3.200    0.000    0.000    0.000    0.000 
#
# Total GULP energy -223286.234523 kJ/mol
# GULP energy per Si atom -5582.155863 kJ/mol
# Density = 2.346877 g / cm^3
# Si number density = 23.522307 Si / 1000 Ang^3
#
#
#
# Elastic Constant Matrix: (Units=GPa)
#
#
# Indices 1 2 3 4 5 6 
#
# 1 202.4008 3.1275 82.4249 0.0000 0.0000 0.0000
# 2 3.1275 53.0899 2.2249 0.0000 0.0000 0.0000
# 3 82.4249 2.2249 91.8148 0.0000 0.0000 0.0000
# 4 0.0000 0.0000 0.0000 7.3084 0.0000 0.0000
# 5 0.0000 0.0000 0.0000 0.0000 -195.9665 0.0000
# 6 0.0000 0.0000 0.0000 0.0000 0.0000 6.5679
#
#
#
# Elastic Compliance Matrix: (Units=1/GPa)
#
#
# Indices 1 2 3 4 5 6 
#
# 1 0.007789 -0.000166 -0.006989 0.000000 0.000000 0.000000
# 2 -0.000166 0.018859 -0.000308 0.000000 0.000000 0.000000
# 3 -0.006989 -0.000308 0.017173 0.000000 0.000000 0.000000
# 4 0.000000 0.000000 0.000000 0.136828 0.000000 0.000000
# 5 0.000000 0.000000 0.000000 0.000000 -0.005103 0.000000
# 6 0.000000 0.000000 0.000000 0.000000 0.000000 0.152256
#
#
# Mechanical properties :
#
#
# Convention : Reuss Voigt Hill
#
# Bulk Modulus (GPa) = 34.60735 58.09554 46.35145
# Shear Modulus (GPa) = 14.19008 -19.11614 -2.46303
#
# Velocity S-wave (km/s) = 2.45880 -2.85385 -1.02439
# Velocity P-wave (km/s) = 4.77550 3.72725 4.28356
#
# Compressibility (1/GPa) = 0.02889560
#
# Stress axis : x y z
#
# Youngs Moduli (GPa) = 128.38144 53.02603 58.23137
#
# Poissons Ratio (x) = 0.00880 0.40696
# Poissons Ratio (y) = 0.02131 0.01793
# Poissons Ratio (z) = 0.89721 0.01633
#
# Static dielectric constant tensor:
#      x y z
#    x 1.966230 0.000000 0.000000 
#    y 0.000000 2.062430 0.000000 
#    z 0.000000 0.000000 1.808720 
# 
# From -- ./inp_files/47916.got.cif
#   From: 2010.05.17/outbox.cif.g08.bks.cpg/sg63_24_cif.got.tgz:47916.got - 2010.06.03 15:47:04.
