data_PCOD9472410
_publ_section_title
;
Structure prediction by ZEFSAII (Michael W. Deem and Ramdas Pophale) SiO2 
 PCOD9472410
Probable space group: C M C M
;
_chemical_formula_sum "Si O2"
_cell_formula_units_Z 80
_cell_length_a 18.046598
_cell_length_b 17.585702
_cell_length_c 11.222038
_cell_angle_alpha 90.000000
_cell_angle_beta 90.000000
_cell_angle_gamma 90.000000
_cell_volume 3561.449485
_symmetry_space_group_name_H-M "C M C M"
_symmetry_group_IT_number 63
_symmetry_cell_setting 'orthorhombic'
loop_
_space_group_symop_operation_xyz
x,y,z
-x,-y,1/2+z
x,-y,-z
-x,y,1/2-z
-x,-y,-z
x,y,1/2-z
-x,y,z
x,-y,1/2+z
1/2+x,1/2+y,z
1/2-x,1/2-y,1/2+z
1/2+x,1/2-y,-z
1/2-x,1/2+y,1/2-z
1/2-x,1/2-y,-z
1/2+x,1/2+y,1/2-z
1/2-x,1/2+y,z
1/2+x,1/2-y,1/2+z
loop_
_atom_site_type_symbol
_atom_site_label
_atom_site_fract_x
_atom_site_fract_y
_atom_site_fract_z
Si Si1 0.914477 0.340590 0.250000
Si Si2 0.000000 0.231735 0.607270
Si Si3 0.585956 0.653369 0.250000
Si Si4 0.500000 0.902870 0.612903
Si Si5 0.351174 0.669748 0.007753
Si Si6 0.301447 0.161806 0.950546
Si Si7 0.837723 0.544617 0.115167
O O1 0.916535 0.247408 0.250000
O O2 0.865531 0.368677 0.137646
O O3 0.000000 0.366750 0.250000
O O4 0.926461 0.190803 0.559225
O O5 0.000000 0.228628 0.750000
O O6 0.000000 0.318807 0.553241
O O7 0.500000 0.629893 0.250000
O O8 0.626501 0.627061 0.370762
O O9 0.500000 0.879445 0.750000
O O10 0.573705 0.951544 0.601323
O O11 0.316117 0.748977 0.054092
O O12 0.283887 0.640288 0.925693
O O13 0.315150 0.131303 0.083895
O O14 0.817336 0.524482 0.250000
O O15 0.806839 0.500000 0.000000
#
# Coordination Sequence:
#
# PCOD9472410 Si02
#       7
#     8   8   8   8  16  16  16
#     4   9  20  34  54  76 109 153 193 235 283 341
#     4  11  20  32  56  82 119 156 190 227 293 354
#     4   9  16  30  50  75 110 146 186 221 281 349
#     4   9  19  37  55  77 109 152 195 239 280 344
#     4  10  20  34  54  83 114 153 188 240 291 358
#     4  10  22  35  56  81 114 147 197 242 298 347
#     4  11  24  40  58  79 110 153 204 249 293 339
#
# _framework density 22.462764
#
# number of rings (size 3 to 8) (size 9 to 14) (size 15 to 20)
#    0.000    2.000    3.000    0.300    7.000    0.000 
#    0.000    0.000    2.200    0.000    0.000    0.700 
#    0.000    0.000    0.000    0.000    0.000    0.000 
#
# Total GULP energy -222858.166441 kJ/mol
# GULP energy per Si atom -5571.454161 kJ/mol
# Density = 2.241164 g / cm^3
# Si number density = 22.462764 Si / 1000 Ang^3
#
#
#
# Elastic Constant Matrix: (Units=GPa)
#
#
# Indices 1 2 3 4 5 6 
#
# 1 184.6023 -1.2752 59.4099 0.0000 0.0000 0.0000
# 2 -1.2752 15.6015 9.0880 0.0000 0.0000 0.0000
# 3 59.4099 9.0880 121.8941 0.0000 0.0000 0.0000
# 4 0.0000 0.0000 0.0000 7.2861 0.0000 0.0000
# 5 0.0000 0.0000 0.0000 0.0000 21.1187 0.0000
# 6 0.0000 0.0000 0.0000 0.0000 0.0000 23.6654
#
#
#
# Elastic Compliance Matrix: (Units=1/GPa)
#
#
# Indices 1 2 3 4 5 6 
#
# 1 0.006516 0.002491 -0.003362 0.000000 0.000000 0.000000
# 2 0.002491 0.067959 -0.006281 0.000000 0.000000 0.000000
# 3 -0.003362 -0.006281 0.010311 0.000000 0.000000 0.000000
# 4 0.000000 0.000000 0.000000 0.137248 0.000000 0.000000
# 5 0.000000 0.000000 0.000000 0.000000 0.047351 0.000000
# 6 0.000000 0.000000 0.000000 0.000000 0.000000 0.042256
#
#
# Mechanical properties :
#
#
# Convention : Reuss Voigt Hill
#
# Bulk Modulus (GPa) = 14.18800 50.72701 32.45750
# Shear Modulus (GPa) = 14.30870 27.40572 20.85721
#
# Velocity S-wave (km/s) = 2.52662 3.49671 3.05047
# Velocity P-wave (km/s) = 3.85249 6.23974 5.18537
#
# Compressibility (1/GPa) = 0.07048211
#
# Stress axis : x y z
#
# Youngs Moduli (GPa) = 153.46604 14.71484 96.98841
#
# Poissons Ratio (x) = -0.03665 0.32603
# Poissons Ratio (y) = -0.38225 0.60916
# Poissons Ratio (z) = 0.51589 0.09242
#
# Static dielectric constant tensor:
#      x y z
#    x 1.908890 0.000000 0.000000 
#    y 0.000000 1.942200 0.000000 
#    z 0.000000 0.000000 1.875440 
# 
# From -- ./inp_files/21276.got.cif
#   From: 2010.05.17/outbox.cif.g08.bks.cpg/sg63_11_cif.got.tgz:21276.got - 2010.06.03 15:47:04.
