data_PCOD9472070
_publ_section_title
;
Structure prediction by ZEFSAII (Michael W. Deem and Ramdas Pophale) SiO2 
 PCOD9472070
Probable space group: C M C M
;
_chemical_formula_sum "Si O2"
_cell_formula_units_Z 80
_cell_length_a 13.865574
_cell_length_b 18.575156
_cell_length_c 16.754975
_cell_angle_alpha 90.000000
_cell_angle_beta 90.000000
_cell_angle_gamma 90.000000
_cell_volume 4315.330938
_symmetry_space_group_name_H-M "C M C M"
_symmetry_group_IT_number 63
_symmetry_cell_setting 'orthorhombic'
loop_
_space_group_symop_operation_xyz
x,y,z
-x,-y,1/2+z
x,-y,-z
-x,y,1/2-z
-x,-y,-z
x,y,1/2-z
-x,y,z
x,-y,1/2+z
1/2+x,1/2+y,z
1/2-x,1/2-y,1/2+z
1/2+x,1/2-y,-z
1/2-x,1/2+y,1/2-z
1/2-x,1/2-y,-z
1/2+x,1/2+y,1/2-z
1/2-x,1/2+y,z
1/2+x,1/2-y,1/2+z
loop_
_atom_site_type_symbol
_atom_site_label
_atom_site_fract_x
_atom_site_fract_y
_atom_site_fract_z
Si Si1 0.698071 0.222261 0.157736
Si Si2 0.109822 0.144597 0.377119
Si Si3 0.798991 0.008351 0.842699
Si Si4 0.108303 0.569564 0.347110
Si Si5 0.612252 0.643340 0.931397
O O1 0.672260 0.236848 0.250000
O O2 0.810225 0.200298 0.153284
O O3 0.640869 0.150333 0.130479
O O4 0.670463 0.289610 0.104215
O O5 0.116859 0.142844 0.473079
O O6 0.000000 0.161296 0.354454
O O7 0.139890 0.065403 0.346986
O O8 0.794626 0.031594 0.750000
O O9 0.845306 0.069878 0.895961
O O10 0.691817 0.985737 0.871421
O O11 0.109353 0.568870 0.250000
O O12 0.000000 0.553648 0.374221
O O13 0.500000 0.649981 0.907808
#
# Coordination Sequence:
#
# PCOD9472070 Si02
#       5
#    16  16  16  16  16
#     4  10  20  34  55  80 103 132 174 222 266 312
#     4  10  21  37  55  75 105 145 179 211 262 325
#     4  10  20  33  53  80 106 137 179 223 264 310
#     4   8  15  30  51  73  98 130 168 209 255 308
#     4  11  22  35  53  78 108 139 173 220 273 316
#
# _framework density 18.538554999999999
#
# number of rings (size 3 to 8) (size 9 to 14) (size 15 to 20)
#    0.000    2.200    0.000    4.800    0.000    6.400 
#    0.000    1.000    0.000   13.200    0.000    0.000 
#    0.000    0.000    0.000    0.000    0.000    0.000 
#
# Total GULP energy -223338.229283 kJ/mol
# GULP energy per Si atom -5583.455732 kJ/mol
# Density = 1.849636 g / cm^3
# Si number density = 18.538555 Si / 1000 Ang^3
#
#
#
# Elastic Constant Matrix: (Units=GPa)
#
#
# Indices 1 2 3 4 5 6 
#
# 1 118.8015 32.1188 11.4533 0.0000 0.0000 0.0000
# 2 32.1188 69.6097 15.2002 0.0000 0.0000 0.0000
# 3 11.4533 15.2002 46.9928 0.0000 0.0000 0.0000
# 4 0.0000 0.0000 0.0000 26.7199 0.0000 0.0000
# 5 0.0000 0.0000 0.0000 0.0000 23.5449 0.0000
# 6 0.0000 0.0000 0.0000 0.0000 0.0000 13.7249
#
#
#
# Elastic Compliance Matrix: (Units=1/GPa)
#
#
# Indices 1 2 3 4 5 6 
#
# 1 0.009659 -0.004242 -0.000982 0.000000 0.000000 0.000000
# 2 -0.004242 0.017321 -0.004569 0.000000 0.000000 0.000000
# 3 -0.000982 -0.004569 0.022997 0.000000 0.000000 0.000000
# 4 0.000000 0.000000 0.000000 0.037425 0.000000 0.000000
# 5 0.000000 0.000000 0.000000 0.000000 0.042472 0.000000
# 6 0.000000 0.000000 0.000000 0.000000 0.000000 0.072860
#
#
# Mechanical properties :
#
#
# Convention : Reuss Voigt Hill
#
# Bulk Modulus (GPa) = 32.90444 39.21651 36.06048
# Shear Modulus (GPa) = 21.50995 24.57339 23.04167
#
# Velocity S-wave (km/s) = 3.40999 3.64473 3.52931
# Velocity P-wave (km/s) = 5.76990 6.23795 6.00848
#
# Compressibility (1/GPa) = 0.03039104
#
# Stress axis : x y z
#
# Youngs Moduli (GPa) = 103.53013 57.73362 43.48408
#
# Poissons Ratio (x) = 0.24493 0.04270
# Poissons Ratio (y) = 0.43921 0.19866
# Poissons Ratio (z) = 0.10166 0.26376
#
# Static dielectric constant tensor:
#      x y z
#    x 1.655460 0.000000 0.000000 
#    y 0.000000 1.595360 0.000000 
#    z 0.000000 0.000000 1.642440 
# 
# From -- ./inp_files/43942.got.cif
#   From: 2010.05.17/outbox.cif.g08.bks.cpg/sg63_22_cif.got.tgz:43942.got - 2010.06.03 15:47:04.
