data_PCOD9472169
_publ_section_title
;
Structure prediction by ZEFSAII (Michael W. Deem and Ramdas Pophale) SiO2 
 PCOD9472169
Probable space group: C M C M
;
_chemical_formula_sum "Si O2"
_cell_formula_units_Z 88
_cell_length_a 24.705647
_cell_length_b 14.218395
_cell_length_c 14.411793
_cell_angle_alpha 90.000000
_cell_angle_beta 90.000000
_cell_angle_gamma 90.000000
_cell_volume 5062.497510
_symmetry_space_group_name_H-M "C M C M"
_symmetry_group_IT_number 63
_symmetry_cell_setting 'orthorhombic'
loop_
_space_group_symop_operation_xyz
x,y,z
-x,-y,1/2+z
x,-y,-z
-x,y,1/2-z
-x,-y,-z
x,y,1/2-z
-x,y,z
x,-y,1/2+z
1/2+x,1/2+y,z
1/2-x,1/2-y,1/2+z
1/2+x,1/2-y,-z
1/2-x,1/2+y,1/2-z
1/2-x,1/2-y,-z
1/2+x,1/2+y,1/2-z
1/2-x,1/2+y,z
1/2+x,1/2-y,1/2+z
loop_
_atom_site_type_symbol
_atom_site_label
_atom_site_fract_x
_atom_site_fract_y
_atom_site_fract_z
Si Si1 0.190452 0.500000 0.500000
Si Si2 0.237648 0.230638 0.856567
Si Si3 0.561420 0.658174 0.004438
Si Si4 0.595840 0.499268 0.361221
Si Si5 0.279217 0.494585 0.144877
Si Si6 0.838680 0.294424 0.018781
O O1 0.232516 0.532595 0.420510
O O2 0.157762 0.592514 0.529577
O O3 0.236047 0.261108 0.750000
O O4 0.227372 0.118235 0.858312
O O5 0.191493 0.273019 0.921757
O O6 0.296456 0.244224 0.903753
O O7 0.500000 0.691838 0.994517
O O8 0.565115 0.585472 0.090699
O O9 0.577568 0.595132 0.914531
O O10 0.605064 0.739815 0.019715
O O11 0.589475 0.493047 0.250000
O O12 0.659455 0.515926 0.383083
O O13 0.271621 0.525910 0.250000
#
# Coordination Sequence:
#
# PCOD9472169 Si02
#       6
#     8  16  16  16  16  16
#     4  10  20  34  51  74 109 142 172 218 266 310
#     4   9  18  33  54  78 105 135 168 214 271 325
#     4  11  23  37  53  77 110 145 185 226 262 311
#     4  10  20  35  56  82 111 142 175 213 267 331
#     4   9  17  30  51  80 109 133 163 206 263 325
#     4  10  21  35  53  77 107 141 181 220 265 312
#
# _framework density 17.382725000000001
#
# number of rings (size 3 to 8) (size 9 to 14) (size 15 to 20)
#    0.000    2.182    1.818    2.182    5.091    2.909 
#    0.000    0.455    0.000    0.000    0.000    0.000 
#    0.000    7.273    0.000    0.000    0.000    0.000 
#
# Total GULP energy -245565.541356 kJ/mol
# GULP energy per Si atom -5581.035031 kJ/mol
# Density = 1.734316 g / cm^3
# Si number density = 17.382725 Si / 1000 Ang^3
#
#
#
# Elastic Constant Matrix: (Units=GPa)
#
#
# Indices 1 2 3 4 5 6 
#
# 1 118.7241 46.5034 24.1412 0.0000 0.0000 0.0000
# 2 46.5034 39.4578 -5.0889 0.0000 0.0000 0.0000
# 3 24.1412 -5.0889 89.9244 0.0000 0.0000 0.0000
# 4 0.0000 0.0000 0.0000 13.6014 0.0000 0.0000
# 5 0.0000 0.0000 0.0000 0.0000 6.4723 0.0000
# 6 0.0000 0.0000 0.0000 0.0000 0.0000 22.6749
#
#
#
# Elastic Compliance Matrix: (Units=1/GPa)
#
#
# Indices 1 2 3 4 5 6 
#
# 1 0.018608 -0.022740 -0.006282 0.000000 0.000000 0.000000
# 2 -0.022740 0.053321 0.009122 0.000000 0.000000 0.000000
# 3 -0.006282 0.009122 0.013323 0.000000 0.000000 0.000000
# 4 0.000000 0.000000 0.000000 0.073522 0.000000 0.000000
# 5 0.000000 0.000000 0.000000 0.000000 0.154504 0.000000
# 6 0.000000 0.000000 0.000000 0.000000 0.000000 0.044102
#
#
# Mechanical properties :
#
#
# Convention : Reuss Voigt Hill
#
# Bulk Modulus (GPa) = 22.00165 42.13532 32.06848
# Shear Modulus (GPa) = 12.12618 20.71975 16.42297
#
# Velocity S-wave (km/s) = 2.64408 3.45624 3.07707
# Velocity P-wave (km/s) = 4.69108 6.34191 5.57791
#
# Compressibility (1/GPa) = 0.04545114
#
# Stress axis : x y z
#
# Youngs Moduli (GPa) = 53.74153 18.75434 75.05684
#
# Poissons Ratio (x) = 0.42648 0.47153
# Poissons Ratio (y) = 1.22210 -0.68470
# Poissons Ratio (z) = 0.33762 -0.17108
#
# Static dielectric constant tensor:
#      x y z
#    x 1.566830 0.000000 0.000000 
#    y 0.000000 1.630280 0.000000 
#    z 0.000000 0.000000 1.599990 
# 
# From -- ./inp_files/35189.got.cif
#   From: 2010.05.17/outbox.cif.g08.bks.cpg/sg63_18_cif.got.tgz:35189.got - 2010.06.03 15:47:04.
