data_PCOD9472625
_publ_section_title
;
Structure prediction by ZEFSAII (Michael W. Deem and Ramdas Pophale) SiO2 
 PCOD9472625
Probable space group: C M C M
;
_chemical_formula_sum "Si O2"
_cell_formula_units_Z 80
_cell_length_a 27.382548
_cell_length_b 19.176065
_cell_length_c 8.631057
_cell_angle_alpha 90.000000
_cell_angle_beta 90.000000
_cell_angle_gamma 90.000000
_cell_volume 4532.077580
_symmetry_space_group_name_H-M "C M C M"
_symmetry_group_IT_number 63
_symmetry_cell_setting 'orthorhombic'
loop_
_space_group_symop_operation_xyz
x,y,z
-x,-y,1/2+z
x,-y,-z
-x,y,1/2-z
-x,-y,-z
x,y,1/2-z
-x,y,z
x,-y,1/2+z
1/2+x,1/2+y,z
1/2-x,1/2-y,1/2+z
1/2+x,1/2-y,-z
1/2-x,1/2+y,1/2-z
1/2-x,1/2-y,-z
1/2+x,1/2+y,1/2-z
1/2-x,1/2+y,z
1/2+x,1/2-y,1/2+z
loop_
_atom_site_type_symbol
_atom_site_label
_atom_site_fract_x
_atom_site_fract_y
_atom_site_fract_z
Si Si1 0.943086 0.926565 0.563529
Si Si2 0.702037 0.213186 0.935331
Si Si3 0.344088 0.075677 0.064097
Si Si4 0.446135 0.141266 0.063340
Si Si5 0.098614 0.779574 0.936720
O O1 0.941446 0.928929 0.750000
O O2 0.915333 0.857100 0.511619
O O3 0.000000 0.920285 0.516513
O O4 0.924029 0.000000 0.500000
O O5 0.704914 0.208276 0.750000
O O6 0.653981 0.258617 0.975835
O O7 0.750000 0.250000 0.000000
O O8 0.691250 0.136765 0.004126
O O9 0.343413 0.075117 0.250000
O O10 0.399354 0.096296 0.010587
O O11 0.331295 0.000000 0.000000
O O12 0.445933 0.139850 0.250000
O O13 0.500000 0.118370 0.009377
O O14 0.435664 0.220061 0.008497
O O15 0.093283 0.776407 0.750000
#
# Coordination Sequence:
#
# PCOD9472625 Si02
#       5
#    16  16  16  16  16
#     4   9  17  29  45  67  96 128 160 195 237 285
#     4  10  20  36  57  78 100 129 167 210 258 307
#     4  10  20  35  54  77 106 137 170 208 251 300
#     4   9  18  31  48  73 104 136 169 205 246 295
#     4   9  18  32  50  71  96 128 167 209 249 296
#
# _framework density 17.651948999999998
#
# number of rings (size 3 to 8) (size 9 to 14) (size 15 to 20)
#    0.000    2.600    0.000    1.800    0.000    4.000 
#    0.000    3.000    0.000    2.400    0.000    0.000 
#    0.000    0.000    0.000    0.000    0.000    0.000 
#
# Total GULP energy -223082.658170 kJ/mol
# GULP energy per Si atom -5577.066454 kJ/mol
# Density = 1.761177 g / cm^3
# Si number density = 17.651949 Si / 1000 Ang^3
#
#
#
# Elastic Constant Matrix: (Units=GPa)
#
#
# Indices 1 2 3 4 5 6 
#
# 1 93.7294 55.9549 28.9938 0.0000 0.0000 0.0000
# 2 55.9549 157.0806 31.9810 0.0000 0.0000 0.0000
# 3 28.9938 31.9810 22.6438 0.0000 0.0000 0.0000
# 4 0.0000 0.0000 0.0000 28.8098 0.0000 0.0000
# 5 0.0000 0.0000 0.0000 0.0000 20.5445 0.0000
# 6 0.0000 0.0000 0.0000 0.0000 0.0000 11.6856
#
#
#
# Elastic Compliance Matrix: (Units=1/GPa)
#
#
# Indices 1 2 3 4 5 6 
#
# 1 0.018317 -0.002456 -0.019985 0.000000 0.000000 0.000000
# 2 -0.002456 0.009265 -0.009941 0.000000 0.000000 0.000000
# 3 -0.019985 -0.009941 0.083792 0.000000 0.000000 0.000000
# 4 0.000000 0.000000 0.000000 0.034710 0.000000 0.000000
# 5 0.000000 0.000000 0.000000 0.000000 0.048675 0.000000
# 6 0.000000 0.000000 0.000000 0.000000 0.000000 0.085576
#
#
# Mechanical properties :
#
#
# Convention : Reuss Voigt Hill
#
# Bulk Modulus (GPa) = 21.45460 56.36813 38.91136
# Shear Modulus (GPa) = 13.86443 22.64292 18.25368
#
# Velocity S-wave (km/s) = 2.80560 3.58543 3.21921
# Velocity P-wave (km/s) = 4.76191 7.01019 5.99244
#
# Compressibility (1/GPa) = 0.04661006
#
# Stress axis : x y z
#
# Youngs Moduli (GPa) = 54.59294 107.93427 11.93438
#
# Poissons Ratio (x) = 0.26509 0.23851
# Poissons Ratio (y) = 0.13408 0.11863
# Poissons Ratio (z) = 1.09106 1.07292
#
# Static dielectric constant tensor:
#      x y z
#    x 1.605120 0.000000 0.000000 
#    y 0.000000 1.582960 0.000000 
#    z 0.000000 0.000000 1.591800 
# 
# From -- ./inp_files/11982.got.cif
#   From: 2010.05.17/outbox.cif.g08.bks.cpg/sg63_6_cif.got.tgz:11982.got - 2010.06.03 15:47:04.
