data_PCOD9472129
_publ_section_title
;
Structure prediction by ZEFSAII (Michael W. Deem and Ramdas Pophale) SiO2 
 PCOD9472129
Probable space group: C M C M
;
_chemical_formula_sum "Si O2"
_cell_formula_units_Z 80
_cell_length_a 13.728736
_cell_length_b 12.069569
_cell_length_c 22.603118
_cell_angle_alpha 90.000000
_cell_angle_beta 90.000000
_cell_angle_gamma 90.000000
_cell_volume 3745.334990
_symmetry_space_group_name_H-M "C M C M"
_symmetry_group_IT_number 63
_symmetry_cell_setting 'orthorhombic'
loop_
_space_group_symop_operation_xyz
x,y,z
-x,-y,1/2+z
x,-y,-z
-x,y,1/2-z
-x,-y,-z
x,y,1/2-z
-x,y,z
x,-y,1/2+z
1/2+x,1/2+y,z
1/2-x,1/2-y,1/2+z
1/2+x,1/2-y,-z
1/2-x,1/2+y,1/2-z
1/2-x,1/2-y,-z
1/2+x,1/2+y,1/2-z
1/2-x,1/2+y,z
1/2+x,1/2-y,1/2+z
loop_
_atom_site_type_symbol
_atom_site_label
_atom_site_fract_x
_atom_site_fract_y
_atom_site_fract_z
Si Si1 0.611529 0.351538 0.125272
Si Si2 0.191349 0.284248 0.318443
Si Si3 0.389735 0.053438 0.585415
Si Si4 0.386078 0.253355 0.500709
Si Si5 0.197441 0.916088 0.596191
O O1 0.500000 0.335923 0.144808
O O2 0.696927 0.324671 0.171390
O O3 0.628428 0.476926 0.102665
O O4 0.631531 0.274184 0.068134
O O5 0.165753 0.286699 0.250000
O O6 0.124727 0.364354 0.358605
O O7 0.184530 0.162952 0.347256
O O8 0.500000 0.010151 0.582704
O O9 0.370906 0.132123 0.528631
O O10 0.305871 0.964171 0.592131
O O11 0.500000 0.277360 0.510781
O O12 0.327466 0.342000 0.539371
#
# Coordination Sequence:
#
# PCOD9472129 Si02
#       5
#    16  16  16  16  16
#     4  10  21  37  59  85 113 145 181 226 280 335
#     4  10  23  40  55  76 109 147 189 235 279 322
#     4   9  20  38  59  83 112 148 188 226 272 333
#     4   9  18  35  58  86 117 145 177 221 277 340
#     4  10  20  33  58  86 113 143 182 229 278 330
#
# _framework density 21.359904
#
# number of rings (size 3 to 8) (size 9 to 14) (size 15 to 20)
#    0.000    2.400    0.000    1.200    0.000   16.000 
#    0.000    0.000    0.000   13.200    0.000    0.000 
#    0.000    0.000    0.000    0.000    0.000    0.000 
#
# Total GULP energy -223868.131056 kJ/mol
# GULP energy per Si atom -5596.703276 kJ/mol
# Density = 2.131129 g / cm^3
# Si number density = 21.359904 Si / 1000 Ang^3
#
#
#
# Elastic Constant Matrix: (Units=GPa)
#
#
# Indices 1 2 3 4 5 6 
#
# 1 71.2657 10.5490 12.8234 0.0000 0.0000 0.0000
# 2 10.5490 78.5006 4.4428 0.0000 0.0000 0.0000
# 3 12.8234 4.4428 79.6751 0.0000 0.0000 0.0000
# 4 0.0000 0.0000 0.0000 7.2101 0.0000 0.0000
# 5 0.0000 0.0000 0.0000 0.0000 15.1018 0.0000
# 6 0.0000 0.0000 0.0000 0.0000 0.0000 23.2308
#
#
#
# Elastic Compliance Matrix: (Units=1/GPa)
#
#
# Indices 1 2 3 4 5 6 
#
# 1 0.014713 -0.001849 -0.002265 0.000000 0.000000 0.000000
# 2 -0.001849 0.013011 -0.000428 0.000000 0.000000 0.000000
# 3 -0.002265 -0.000428 0.012939 0.000000 0.000000 0.000000
# 4 0.000000 0.000000 0.000000 0.138695 0.000000 0.000000
# 5 0.000000 0.000000 0.000000 0.000000 0.066217 0.000000
# 6 0.000000 0.000000 0.000000 0.000000 0.000000 0.043046
#
#
# Mechanical properties :
#
#
# Convention : Reuss Voigt Hill
#
# Bulk Modulus (GPa) = 31.66532 31.67465 31.66998
# Shear Modulus (GPa) = 16.22148 22.55027 19.38588
#
# Velocity S-wave (km/s) = 2.75878 3.25272 3.01588
# Velocity P-wave (km/s) = 5.00046 5.38221 5.19484
#
# Compressibility (1/GPa) = 0.03158029
#
# Stress axis : x y z
#
# Youngs Moduli (GPa) = 67.96597 76.85543 77.28349
#
# Poissons Ratio (x) = 0.14210 0.17504
# Poissons Ratio (y) = 0.12567 0.03307
# Poissons Ratio (z) = 0.15394 0.03289
#
# Static dielectric constant tensor:
#      x y z
#    x 1.800650 0.000000 0.000000 
#    y 0.000000 1.781820 0.000000 
#    z 0.000000 0.000000 1.728130 
# 
# From -- ./inp_files/62538.got.cif
#   From: 2010.05.17/outbox.cif.g08.bks.cpg/sg63_32_cif.got.tgz:62538.got - 2010.06.03 15:47:04.
