data_PCOD9472754
_publ_section_title
;
Structure prediction by ZEFSAII (Michael W. Deem and Ramdas Pophale) SiO2 
 PCOD9472754
Probable space group: C M C M
;
_chemical_formula_sum "Si O2"
_cell_formula_units_Z 96
_cell_length_a 7.995967
_cell_length_b 31.120738
_cell_length_c 19.681159
_cell_angle_alpha 90.000000
_cell_angle_beta 90.000000
_cell_angle_gamma 90.000000
_cell_volume 4897.467361
_symmetry_space_group_name_H-M "C M C M"
_symmetry_group_IT_number 63
_symmetry_cell_setting 'orthorhombic'
loop_
_space_group_symop_operation_xyz
x,y,z
-x,-y,1/2+z
x,-y,-z
-x,y,1/2-z
-x,-y,-z
x,y,1/2-z
-x,y,z
x,-y,1/2+z
1/2+x,1/2+y,z
1/2-x,1/2-y,1/2+z
1/2+x,1/2-y,-z
1/2-x,1/2+y,1/2-z
1/2-x,1/2-y,-z
1/2+x,1/2+y,1/2-z
1/2-x,1/2+y,z
1/2+x,1/2-y,1/2+z
loop_
_atom_site_type_symbol
_atom_site_label
_atom_site_fract_x
_atom_site_fract_y
_atom_site_fract_z
Si Si1 0.200041 0.263743 0.076066
Si Si2 0.201493 0.937717 0.172985
Si Si3 0.700796 0.186411 0.172916
Si Si4 0.201765 0.013370 0.075259
Si Si5 0.701646 0.889130 0.925118
Si Si6 0.297864 0.139012 0.924720
O O1 0.263005 0.229296 0.130349
O O2 0.260854 0.312393 0.088391
O O3 0.000000 0.264043 0.079330
O O4 0.250000 0.250000 0.000000
O O5 0.265275 0.937098 0.250000
O O6 0.244570 0.894842 0.131806
O O7 0.000000 0.940754 0.175626
O O8 0.263231 0.978713 0.129959
O O9 0.766005 0.187906 0.250000
O O10 0.500000 0.182195 0.176645
O O11 0.764019 0.145622 0.129505
O O12 0.250672 0.062107 0.090600
O O13 0.000000 0.011235 0.074079
O O14 0.262372 0.000000 0.000000
O O15 0.500000 0.886416 0.926284
O O16 0.761557 0.876558 0.000846
O O17 0.500000 0.139689 0.926648
#
# Coordination Sequence:
#
# PCOD9472754 Si02
#       6
#    16  16  16  16  16  16
#     4  11  22  38  61  88 118 152 195 242 290 344
#     4  10  22  39  57  81 115 150 187 234 286 340
#     4  10  22  41  61  85 121 157 190 236 293 347
#     4  10  20  35  56  83 111 145 188 233 283 336
#     4  10  20  36  58  85 114 148 191 234 281 337
#     4  10  21  37  58  84 114 147 188 236 281 335
#
# _framework density 19.601966999999998
#
# number of rings (size 3 to 8) (size 9 to 14) (size 15 to 20)
#    0.000    1.833    3.333    0.500    0.000    5.000 
#    0.000    3.333    0.000    0.000    0.000    0.000 
#    0.000    0.000    0.000    0.000    0.000    0.000 
#
# Total GULP energy -268120.337875 kJ/mol
# GULP energy per Si atom -5585.840372 kJ/mol
# Density = 1.955735 g / cm^3
# Si number density = 19.601967 Si / 1000 Ang^3
#
#
#
# Elastic Constant Matrix: (Units=GPa)
#
#
# Indices 1 2 3 4 5 6 
#
# 1 11.8084 2.6431 11.9583 0.0000 0.0000 0.0000
# 2 2.6431 222.9201 126.4009 0.0000 0.0000 0.0000
# 3 11.9583 126.4009 209.6855 0.0000 0.0000 0.0000
# 4 0.0000 0.0000 0.0000 30.9713 0.0000 0.0000
# 5 0.0000 0.0000 0.0000 0.0000 19.7402 0.0000
# 6 0.0000 0.0000 0.0000 0.0000 0.0000 32.0820
#
#
#
# Elastic Compliance Matrix: (Units=1/GPa)
#
#
# Indices 1 2 3 4 5 6 
#
# 1 0.091039 0.002833 -0.006900 0.000000 0.000000 0.000000
# 2 0.002833 0.006904 -0.004323 0.000000 0.000000 0.000000
# 3 -0.006900 -0.004323 0.007769 0.000000 0.000000 0.000000
# 4 0.000000 0.000000 0.000000 0.032288 0.000000 0.000000
# 5 0.000000 0.000000 0.000000 0.000000 0.050658 0.000000
# 6 0.000000 0.000000 0.000000 0.000000 0.000000 0.031170
#
#
# Mechanical properties :
#
#
# Convention : Reuss Voigt Hill
#
# Bulk Modulus (GPa) = 11.24467 80.71318 45.97892
# Shear Modulus (GPa) = 18.77932 36.78617 27.78275
#
# Velocity S-wave (km/s) = 3.09857 4.33674 3.76885
# Velocity P-wave (km/s) = 4.30702 8.14505 6.51507
#
# Compressibility (1/GPa) = 0.08893103
#
# Stress axis : x y z
#
# Youngs Moduli (GPa) = 10.98435 144.85087 128.72381
#
# Poissons Ratio (x) = -0.41033 0.88813
# Poissons Ratio (y) = -0.03112 0.55649
# Poissons Ratio (z) = 0.07579 0.62621
#
# Static dielectric constant tensor:
#      x y z
#    x 1.725330 0.000000 0.000000 
#    y 0.000000 1.653370 0.000000 
#    z 0.000000 0.000000 1.666880 
# 
# From -- ./inp_files/51256.got.cif
#   From: 2010.05.17/outbox.cif.g08.bks.cpg/sg63_26_cif.got.tgz:51256.got - 2010.06.03 15:47:04.
