data_PCOD9472827
_publ_section_title
;
Structure prediction by ZEFSAII (Michael W. Deem and Ramdas Pophale) SiO2 
 PCOD9472827
Probable space group: C M C M
;
_chemical_formula_sum "Si O2"
_cell_formula_units_Z 104
_cell_length_a 22.015807
_cell_length_b 29.027682
_cell_length_c 8.837789
_cell_angle_alpha 90.000000
_cell_angle_beta 90.000000
_cell_angle_gamma 90.000000
_cell_volume 5647.946767
_symmetry_space_group_name_H-M "C M C M"
_symmetry_group_IT_number 63
_symmetry_cell_setting 'orthorhombic'
loop_
_space_group_symop_operation_xyz
x,y,z
-x,-y,1/2+z
x,-y,-z
-x,y,1/2-z
-x,-y,-z
x,y,1/2-z
-x,y,z
x,-y,1/2+z
1/2+x,1/2+y,z
1/2-x,1/2-y,1/2+z
1/2+x,1/2-y,-z
1/2-x,1/2+y,1/2-z
1/2-x,1/2-y,-z
1/2+x,1/2+y,1/2-z
1/2-x,1/2+y,z
1/2+x,1/2-y,1/2+z
loop_
_atom_site_type_symbol
_atom_site_label
_atom_site_fract_x
_atom_site_fract_y
_atom_site_fract_z
Si Si1 0.626844 0.898305 0.932564
Si Si2 0.674535 0.197257 0.571927
Si Si3 0.500000 0.948155 0.567826
Si Si4 0.155974 0.887209 0.925788
Si Si5 0.821219 0.205323 0.574204
Si Si6 0.240802 0.450167 0.069180
Si Si7 0.572505 0.546670 0.921865
O O1 0.631446 0.896440 0.750000
O O2 0.560584 0.918980 0.973019
O O3 0.643749 0.847874 0.999246
O O4 0.677489 0.932567 0.999537
O O5 0.659357 0.199616 0.750000
O O6 0.748288 0.196845 0.561609
O O7 0.659785 0.244536 0.484966
O O8 0.500000 0.953017 0.750000
O O9 0.500000 0.000000 0.500000
O O10 0.169611 0.892572 0.750000
O O11 0.151375 0.834464 0.972102
O O12 0.208542 0.913196 0.019641
O O13 0.094737 0.912252 0.974611
O O14 0.837319 0.199995 0.750000
O O15 0.237041 0.452530 0.250000
O O16 0.255460 0.500000 0.000000
O O17 0.595680 0.550631 0.750000
O O18 0.500000 0.544998 0.915689
O O19 0.594777 0.500000 0.000000
#
# Coordination Sequence:
#
# PCOD9472827 Si02
#       7
#    16  16   8  16  16  16  16
#     4  11  22  39  61  86 117 154 196 243 297 355
#     4  10  20  35  58  87 117 151 189 233 285 345
#     4  10  24  42  62  88 118 158 204 250 301 360
#     4  12  23  36  57  85 117 152 189 236 287 341
#     4  10  20  35  57  86 120 152 188 233 284 344
#     4  12  24  38  55  82 117 152 191 237 290 348
#     4  10  21  38  59  82 112 151 193 234 279 335
#
# _framework density 18.413772000000002
#
# number of rings (size 3 to 8) (size 9 to 14) (size 15 to 20)
#    0.000    1.231    1.538    5.538    0.000    4.615 
#    0.000    0.000    1.692    0.000    0.000    0.000 
#    0.000    0.000    0.000    0.000    0.000    0.000 
#
# Total GULP energy -290491.881597 kJ/mol
# GULP energy per Si atom -5586.382338 kJ/mol
# Density = 1.837186 g / cm^3
# Si number density = 18.413772 Si / 1000 Ang^3
#
#
#
# Elastic Constant Matrix: (Units=GPa)
#
#
# Indices 1 2 3 4 5 6 
#
# 1 58.6730 32.6489 29.5406 0.0000 0.0000 0.0000
# 2 32.6489 96.8411 33.1632 0.0000 0.0000 0.0000
# 3 29.5406 33.1632 115.0054 0.0000 0.0000 0.0000
# 4 0.0000 0.0000 0.0000 37.1610 0.0000 0.0000
# 5 0.0000 0.0000 0.0000 0.0000 21.3814 0.0000
# 6 0.0000 0.0000 0.0000 0.0000 0.0000 22.5199
#
#
#
# Elastic Compliance Matrix: (Units=1/GPa)
#
#
# Indices 1 2 3 4 5 6 
#
# 1 0.022516 -0.006225 -0.003988 0.000000 0.000000 0.000000
# 2 -0.006225 0.013179 -0.002201 0.000000 0.000000 0.000000
# 3 -0.003988 -0.002201 0.010354 0.000000 0.000000 0.000000
# 4 0.000000 0.000000 0.000000 0.026910 0.000000 0.000000
# 5 0.000000 0.000000 0.000000 0.000000 0.046770 0.000000
# 6 0.000000 0.000000 0.000000 0.000000 0.000000 0.044405
#
#
# Mechanical properties :
#
#
# Convention : Reuss Voigt Hill
#
# Bulk Modulus (GPa) = 47.12656 51.24719 49.18687
# Shear Modulus (GPa) = 25.50552 27.89026 26.69789
#
# Velocity S-wave (km/s) = 3.72577 3.89606 3.81187
# Velocity P-wave (km/s) = 6.64509 6.93761 6.79292
#
# Compressibility (1/GPa) = 0.02121946
#
# Stress axis : x y z
#
# Youngs Moduli (GPa) = 44.41359 75.87985 96.57681
#
# Poissons Ratio (x) = 0.47236 0.38518
# Poissons Ratio (y) = 0.27648 0.21259
# Poissons Ratio (z) = 0.17714 0.16703
#
# Static dielectric constant tensor:
#      x y z
#    x 1.649640 0.000000 0.000000 
#    y 0.000000 1.608590 0.000000 
#    z 0.000000 0.000000 1.618260 
# 
# From -- ./inp_files/8758.got.cif
#   From: 2010.05.17/outbox.cif.g08.bks.cpg/sg63_5_cif.got.tgz:8758.got - 2010.06.03 15:47:04.
