data_PCOD9472054
_publ_section_title
;
Structure prediction by ZEFSAII (Michael W. Deem and Ramdas Pophale) SiO2 
 PCOD9472054
Probable space group: C M C M
;
_chemical_formula_sum "Si O2"
_cell_formula_units_Z 96
_cell_length_a 7.659424
_cell_length_b 25.472474
_cell_length_c 27.470203
_cell_angle_alpha 90.000000
_cell_angle_beta 90.000000
_cell_angle_gamma 90.000000
_cell_volume 5359.559636
_symmetry_space_group_name_H-M "C M C M"
_symmetry_group_IT_number 63
_symmetry_cell_setting 'orthorhombic'
loop_
_space_group_symop_operation_xyz
x,y,z
-x,-y,1/2+z
x,-y,-z
-x,y,1/2-z
-x,-y,-z
x,y,1/2-z
-x,y,z
x,-y,1/2+z
1/2+x,1/2+y,z
1/2-x,1/2-y,1/2+z
1/2+x,1/2-y,-z
1/2-x,1/2+y,1/2-z
1/2-x,1/2-y,-z
1/2+x,1/2+y,1/2-z
1/2-x,1/2+y,z
1/2+x,1/2-y,1/2+z
loop_
_atom_site_type_symbol
_atom_site_label
_atom_site_fract_x
_atom_site_fract_y
_atom_site_fract_z
Si Si1 0.000000 0.016615 0.806897
Si Si2 0.708280 0.080246 0.546958
Si Si3 0.500000 0.356847 0.306895
Si Si4 0.209426 0.322568 0.119447
Si Si5 0.199544 0.489247 0.620427
Si Si6 0.290788 0.726618 0.052984
Si Si7 0.797734 0.108330 0.060883
O O1 0.000000 0.079903 0.811377
O O2 0.000000 0.003173 0.750000
O O3 0.829983 0.995190 0.834751
O O4 0.500000 0.076260 0.539222
O O5 0.742141 0.131612 0.579645
O O6 0.789500 0.086373 0.494076
O O7 0.761815 0.029825 0.578390
O O8 0.500000 0.343383 0.250000
O O9 0.671037 0.335256 0.334488
O O10 0.263386 0.268008 0.094080
O O11 0.000000 0.322325 0.129405
O O12 0.204979 0.431832 0.596858
O O13 0.000000 0.503618 0.633141
O O14 0.500000 0.723596 0.055549
O O15 0.223641 0.667457 0.059296
O O16 0.250000 0.750000 0.000000
O O17 0.000000 0.110368 0.076036
#
# Coordination Sequence:
#
# PCOD9472054 Si02
#       7
#     8  16   8  16  16  16  16
#     4  11  24  42  64  90 116 142 192 258 308 353
#     4  10  20  33  52  83 123 159 192 229 283 346
#     4  11  24  40  65  93 113 149 199 248 308 354
#     4  10  21  38  58  85 124 158 191 240 292 349
#     4  11  23  40  59  84 119 158 197 237 295 359
#     4  10  21  34  53  85 122 161 196 236 286 342
#     4  11  22  33  55  87 121 163 203 235 280 348
#
# _framework density 17.911919000000001
#
# number of rings (size 3 to 8) (size 9 to 14) (size 15 to 20)
#    0.000    1.500    4.167    1.000    3.500    3.333 
#    0.000    1.667    0.000    1.000    0.000    0.000 
#    0.000    0.000    0.000    0.000    0.000    0.000 
#
# Total GULP energy -268136.153726 kJ/mol
# GULP energy per Si atom -5586.169869 kJ/mol
# Density = 1.787115 g / cm^3
# Si number density = 17.911919 Si / 1000 Ang^3
#
#
#
# Elastic Constant Matrix: (Units=GPa)
#
#
# Indices 1 2 3 4 5 6 
#
# 1 75.6876 25.7084 53.8664 0.0000 0.0000 0.0000
# 2 25.7084 121.4100 58.1920 0.0000 0.0000 0.0000
# 3 53.8664 58.1920 127.8147 0.0000 0.0000 0.0000
# 4 0.0000 0.0000 0.0000 18.7347 0.0000 0.0000
# 5 0.0000 0.0000 0.0000 0.0000 6.7673 0.0000
# 6 0.0000 0.0000 0.0000 0.0000 0.0000 18.1414
#
#
#
# Elastic Compliance Matrix: (Units=1/GPa)
#
#
# Indices 1 2 3 4 5 6 
#
# 1 0.018878 -0.000235 -0.007849 0.000000 0.000000 0.000000
# 2 -0.000235 0.010539 -0.004699 0.000000 0.000000 0.000000
# 3 -0.007849 -0.004699 0.013271 0.000000 0.000000 0.000000
# 4 0.000000 0.000000 0.000000 0.053377 0.000000 0.000000
# 5 0.000000 0.000000 0.000000 0.000000 0.147769 0.000000
# 6 0.000000 0.000000 0.000000 0.000000 0.000000 0.055122
#
#
# Mechanical properties :
#
#
# Convention : Reuss Voigt Hill
#
# Bulk Modulus (GPa) = 58.40628 66.71623 62.56125
# Shear Modulus (GPa) = 15.14101 21.20506 18.17304
#
# Velocity S-wave (km/s) = 2.91056 3.44445 3.18870
# Velocity P-wave (km/s) = 6.63125 7.29018 6.96850
#
# Compressibility (1/GPa) = 0.01712145
#
# Stress axis : x y z
#
# Youngs Moduli (GPa) = 52.97125 94.88968 75.35258
#
# Poissons Ratio (x) = 0.02234 0.59143
# Poissons Ratio (y) = 0.01247 0.35407
# Poissons Ratio (z) = 0.41576 0.44587
#
# Static dielectric constant tensor:
#      x y z
#    x 1.663910 0.000000 0.000000 
#    y 0.000000 1.637730 0.000000 
#    z 0.000000 0.000000 1.563000 
# 
# From -- ./inp_files/60060.got.cif
#   From: 2010.05.17/outbox.cif.g08.bks.cpg/sg63_31_cif.got.tgz:60060.got - 2010.06.03 15:47:04.
