data_PCOD9472725
_publ_section_title
;
Structure prediction by ZEFSAII (Michael W. Deem and Ramdas Pophale) SiO2 
 PCOD9472725
Probable space group: C M C M
;
_chemical_formula_sum "Si O2"
_cell_formula_units_Z 112
_cell_length_a 16.271643
_cell_length_b 25.376645
_cell_length_c 13.577842
_cell_angle_alpha 90.000000
_cell_angle_beta 90.000000
_cell_angle_gamma 90.000000
_cell_volume 5606.558554
_symmetry_space_group_name_H-M "C M C M"
_symmetry_group_IT_number 63
_symmetry_cell_setting 'orthorhombic'
loop_
_space_group_symop_operation_xyz
x,y,z
-x,-y,1/2+z
x,-y,-z
-x,y,1/2-z
-x,-y,-z
x,y,1/2-z
-x,y,z
x,-y,1/2+z
1/2+x,1/2+y,z
1/2-x,1/2-y,1/2+z
1/2+x,1/2-y,-z
1/2-x,1/2+y,1/2-z
1/2-x,1/2-y,-z
1/2+x,1/2+y,1/2-z
1/2-x,1/2+y,z
1/2+x,1/2-y,1/2+z
loop_
_atom_site_type_symbol
_atom_site_label
_atom_site_fract_x
_atom_site_fract_y
_atom_site_fract_z
Si Si1 0.090545 0.522775 0.869565
Si Si2 0.726646 0.445327 0.368090
Si Si3 0.219900 0.315377 0.632149
Si Si4 0.406849 0.462425 0.866602
Si Si5 0.910282 0.224602 0.635703
Si Si6 0.642570 0.637603 0.494370
Si Si7 0.411055 0.900746 0.869562
O O1 0.089715 0.524011 0.750000
O O2 0.178403 0.546142 0.897110
O O3 0.094702 0.461443 0.899115
O O4 0.000000 0.543784 0.899825
O O5 0.722758 0.437814 0.250000
O O6 0.665155 0.495016 0.388912
O O7 0.695622 0.395284 0.427187
O O8 0.233033 0.317892 0.750000
O O9 0.164824 0.263852 0.612730
O O10 0.303627 0.324088 0.574614
O O11 0.163567 0.364723 0.599914
O O12 0.399376 0.450774 0.750000
O O13 0.500000 0.483710 0.883272
O O14 0.396686 0.408443 0.927353
O O15 0.900441 0.207699 0.750000
O O16 0.910775 0.175867 0.561913
O O17 0.000000 0.251738 0.630232
O O18 0.410040 0.900234 0.750000
O O19 0.500000 0.880148 0.901076
#
# Coordination Sequence:
#
# PCOD9472725 Si02
#       7
#    16  16  16  16  16  16  16
#     4   8  14  27  48  73 103 141 181 219 263 318
#     4  10  21  36  54  79 114 153 191 230 274 329
#     4  10  20  35  56  80 107 139 175 221 278 337
#     4  10  22  39  58  82 114 153 195 235 277 330
#     4  10  22  40  60  81 106 139 182 232 286 342
#     4  12  22  35  56  84 113 143 181 230 286 338
#     4   8  13  24  46  73  99 131 172 215 259 310
#
# _framework density 19.976603999999998
#
# number of rings (size 3 to 8) (size 9 to 14) (size 15 to 20)
#    0.000    2.286    0.000    4.286    0.000    5.714 
#    0.000    2.857    0.000    3.429    0.000    0.000 
#    0.000    0.000    0.000    0.000    0.000    0.000 
#
# Total GULP energy -312422.232314 kJ/mol
# GULP energy per Si atom -5578.968434 kJ/mol
# Density = 1.993114 g / cm^3
# Si number density = 19.976604 Si / 1000 Ang^3
#
#
#
# Elastic Constant Matrix: (Units=GPa)
#
#
# Indices 1 2 3 4 5 6 
#
# 1 130.9610 38.8296 39.4913 0.0000 0.0000 0.0000
# 2 38.8296 65.6069 35.2367 0.0000 0.0000 0.0000
# 3 39.4913 35.2367 89.3259 0.0000 0.0000 0.0000
# 4 0.0000 0.0000 0.0000 34.5827 0.0000 0.0000
# 5 0.0000 0.0000 0.0000 0.0000 -17.2939 0.0000
# 6 0.0000 0.0000 0.0000 0.0000 0.0000 31.0005
#
#
#
# Elastic Compliance Matrix: (Units=1/GPa)
#
#
# Indices 1 2 3 4 5 6 
#
# 1 0.009704 -0.004364 -0.002569 0.000000 0.000000 0.000000
# 2 -0.004364 0.021302 -0.006474 0.000000 0.000000 0.000000
# 3 -0.002569 -0.006474 0.014884 0.000000 0.000000 0.000000
# 4 0.000000 0.000000 0.000000 0.028916 0.000000 0.000000
# 5 0.000000 0.000000 0.000000 0.000000 -0.057824 0.000000
# 6 0.000000 0.000000 0.000000 0.000000 0.000000 0.032258
#
#
# Mechanical properties :
#
#
# Convention : Reuss Voigt Hill
#
# Bulk Modulus (GPa) = 52.41717 57.00100 54.70909
# Shear Modulus (GPa) = 60.66992 21.14693 40.90843
#
# Velocity S-wave (km/s) = 5.51692 3.25712 4.53019
# Velocity P-wave (km/s) = 8.17791 6.53765 7.40335
#
# Compressibility (1/GPa) = 0.01907772
#
# Stress axis : x y z
#
# Youngs Moduli (GPa) = 103.04615 46.94378 67.18421
#
# Poissons Ratio (x) = 0.20485 0.17259
# Poissons Ratio (y) = 0.44968 0.43494
# Poissons Ratio (z) = 0.26472 0.30391
#
# Static dielectric constant tensor:
#      x y z
#    x 3.566310 0.000000 0.000000 
#    y 0.000000 1.669670 0.000000 
#    z 0.000000 0.000000 1.729330 
# 
# From -- ./inp_files/32252.got.cif
#   From: 2010.05.17/outbox.cif.g08.bks.cpg/sg63_17_cif.got.tgz:32252.got - 2010.06.03 15:47:04.
