data_PCOD9472846
_publ_section_title
;
Structure prediction by ZEFSAII (Michael W. Deem and Ramdas Pophale) SiO2 
 PCOD9472846
Probable space group: C M C M
;
_chemical_formula_sum "Si O2"
_cell_formula_units_Z 64
_cell_length_a 8.775499
_cell_length_b 27.841606
_cell_length_c 13.575309
_cell_angle_alpha 90.000000
_cell_angle_beta 90.000000
_cell_angle_gamma 90.000000
_cell_volume 3316.773601
_symmetry_space_group_name_H-M "C M C M"
_symmetry_group_IT_number 63
_symmetry_cell_setting 'orthorhombic'
loop_
_space_group_symop_operation_xyz
x,y,z
-x,-y,1/2+z
x,-y,-z
-x,y,1/2-z
-x,-y,-z
x,y,1/2-z
-x,y,z
x,-y,1/2+z
1/2+x,1/2+y,z
1/2-x,1/2-y,1/2+z
1/2+x,1/2-y,-z
1/2-x,1/2+y,1/2-z
1/2-x,1/2-y,-z
1/2+x,1/2+y,1/2-z
1/2-x,1/2+y,z
1/2+x,1/2-y,1/2+z
loop_
_atom_site_type_symbol
_atom_site_label
_atom_site_fract_x
_atom_site_fract_y
_atom_site_fract_z
Si Si1 0.500000 0.017530 0.364844
Si Si2 0.000000 0.201565 0.866472
Si Si3 0.835951 0.044828 0.075479
Si Si4 0.000000 0.590074 0.633614
Si Si5 0.247708 0.856832 0.485419
Si Si6 0.500000 0.183113 0.134345
O O1 0.500000 0.008025 0.250000
O O2 0.336390 0.042508 0.381751
O O3 0.500000 0.963851 0.411864
O O4 0.856893 0.181008 0.928116
O O5 0.000000 0.259149 0.867074
O O6 0.000000 0.186436 0.750000
O O7 0.000000 0.039311 0.131184
O O8 0.840944 0.097369 0.027692
O O9 0.836298 0.000000 0.000000
O O10 0.143154 0.618987 0.594805
O O11 0.000000 0.588701 0.750000
O O12 0.352865 0.835113 0.572676
O O13 0.500000 0.167473 0.250000
#
# Coordination Sequence:
#
# PCOD9472846 Si02
#       6
#     8   8  16   8  16   8
#     4  11  22  37  58  85 126 174 216 260 311 367
#     4  11  23  42  65  97 124 157 207 270 331 391
#     4  11  22  38  59  88 126 166 212 250 316 373
#     4  10  20  35  57  91 124 164 212 260 312 380
#     4  11  21  39  65  90 124 165 209 259 326 374
#     4  10  24  43  66  90 124 165 216 264 322 390
#
# _framework density 19.295860000000001
#
# number of rings (size 3 to 8) (size 9 to 14) (size 15 to 20)
#    0.000    1.250    3.750    3.375    0.000    2.500 
#    0.000    0.625    0.000    4.500    0.000    0.000 
#    0.000    0.000    0.000    0.000    0.000    0.000 
#
# Total GULP energy -178190.249266 kJ/mol
# GULP energy per Si atom -5568.445290 kJ/mol
# Density = 1.925194 g / cm^3
# Si number density = 19.295860 Si / 1000 Ang^3
#
#
#
# Elastic Constant Matrix: (Units=GPa)
#
#
# Indices 1 2 3 4 5 6 
#
# 1 182.6068 45.1969 65.5144 0.0000 0.0000 0.0000
# 2 45.1969 110.2171 48.5668 0.0000 0.0000 0.0000
# 3 65.5144 48.5668 122.8584 0.0000 0.0000 0.0000
# 4 0.0000 0.0000 0.0000 26.6506 0.0000 0.0000
# 5 0.0000 0.0000 0.0000 0.0000 9.0033 0.0000
# 6 0.0000 0.0000 0.0000 0.0000 0.0000 19.9517
#
#
#
# Elastic Compliance Matrix: (Units=1/GPa)
#
#
# Indices 1 2 3 4 5 6 
#
# 1 0.006965 -0.001477 -0.003130 0.000000 0.000000 0.000000
# 2 -0.001477 0.011300 -0.003679 0.000000 0.000000 0.000000
# 3 -0.003130 -0.003679 0.011263 0.000000 0.000000 0.000000
# 4 0.000000 0.000000 0.000000 0.037523 0.000000 0.000000
# 5 0.000000 0.000000 0.000000 0.000000 0.111070 0.000000
# 6 0.000000 0.000000 0.000000 0.000000 0.000000 0.050121
#
#
# Mechanical properties :
#
#
# Convention : Reuss Voigt Hill
#
# Bulk Modulus (GPa) = 77.19014 81.58205 79.38610
# Shear Modulus (GPa) = 20.06961 28.21474 24.14218
#
# Velocity S-wave (km/s) = 3.22856 3.82804 3.54101
# Velocity P-wave (km/s) = 7.34768 7.86828 7.61243
#
# Compressibility (1/GPa) = 0.01295502
#
# Stress axis : x y z
#
# Youngs Moduli (GPa) = 143.57932 88.49626 88.78508
#
# Poissons Ratio (x) = 0.13069 0.27792
# Poissons Ratio (y) = 0.21203 0.32668
# Poissons Ratio (z) = 0.44943 0.32562
#
# Static dielectric constant tensor:
#      x y z
#    x 1.760100 0.000000 0.000000 
#    y 0.000000 1.661980 0.000000 
#    z 0.000000 0.000000 1.703850 
# 
# From -- ./inp_files/27641.got.cif
#   From: 2010.05.17/outbox.cif.g08.bks.cpg/sg63_14_cif.got.tgz:27641.got - 2010.06.03 15:47:04.
