data_PCOD9472197
_publ_section_title
;
Structure prediction by ZEFSAII (Michael W. Deem and Ramdas Pophale) SiO2 
 PCOD9472197
Probable space group: C M C M
;
_chemical_formula_sum "Si O2"
_cell_formula_units_Z 96
_cell_length_a 25.376924
_cell_length_b 13.490509
_cell_length_c 15.069604
_cell_angle_alpha 90.000000
_cell_angle_beta 90.000000
_cell_angle_gamma 90.000000
_cell_volume 5159.043088
_symmetry_space_group_name_H-M "C M C M"
_symmetry_group_IT_number 63
_symmetry_cell_setting 'orthorhombic'
loop_
_space_group_symop_operation_xyz
x,y,z
-x,-y,1/2+z
x,-y,-z
-x,y,1/2-z
-x,-y,-z
x,y,1/2-z
-x,y,z
x,-y,1/2+z
1/2+x,1/2+y,z
1/2-x,1/2-y,1/2+z
1/2+x,1/2-y,-z
1/2-x,1/2+y,1/2-z
1/2-x,1/2-y,-z
1/2+x,1/2+y,1/2-z
1/2-x,1/2+y,z
1/2+x,1/2-y,1/2+z
loop_
_atom_site_type_symbol
_atom_site_label
_atom_site_fract_x
_atom_site_fract_y
_atom_site_fract_z
Si Si1 0.222109 0.983908 0.894116
Si Si2 0.442739 0.001448 0.355962
Si Si3 0.665890 0.680172 0.646772
Si Si4 0.830697 0.564001 0.589472
Si Si5 0.441676 0.769126 0.858482
Si Si6 0.777578 0.757344 0.856489
O O1 0.209014 0.871404 0.872223
O O2 0.181096 0.064976 0.859243
O O3 0.281110 0.011665 0.859834
O O4 0.223013 0.000000 0.000000
O O5 0.446272 0.005242 0.250000
O O6 0.500000 0.965208 0.389745
O O7 0.435687 0.115784 0.385471
O O8 0.389868 0.942789 0.375847
O O9 0.663286 0.708508 0.750000
O O10 0.609264 0.709451 0.608433
O O11 0.717304 0.738056 0.612036
O O12 0.832676 0.500000 0.500000
O O13 0.812837 0.678146 0.590943
O O14 0.442259 0.766017 0.750000
O O15 0.500000 0.734784 0.887172
O O16 0.781109 0.736471 0.750000
#
# Coordination Sequence:
#
# PCOD9472197 Si02
#       6
#    16  16  16  16  16  16
#     4  10  21  33  48  71 101 133 168 210 258 306
#     4   9  17  30  49  73 101 133 170 212 255 302
#     4   9  17  29  48  71  94 125 163 202 247 301
#     4  10  21  33  50  75 104 135 169 210 260 311
#     4   8  14  25  44  70  94 117 152 200 249 293
#     4  10  20  34  52  74 101 134 171 209 252 307
#
# _framework density 18.608101999999999
#
# number of rings (size 3 to 8) (size 9 to 14) (size 15 to 20)
#    0.000    2.667    0.000    3.000    0.000   11.000 
#    0.000    0.000    0.000    1.500    0.000    2.333 
#    0.000    0.000    0.000    0.000    0.000    0.000 
#
# Total GULP energy -267398.312970 kJ/mol
# GULP energy per Si atom -5570.798187 kJ/mol
# Density = 1.856575 g / cm^3
# Si number density = 18.608102 Si / 1000 Ang^3
#
#
#
# Elastic Constant Matrix: (Units=GPa)
#
#
# Indices 1 2 3 4 5 6 
#
# 1 189.0201 60.4475 11.8201 0.0000 0.0000 0.0000
# 2 60.4475 90.6716 1.8308 0.0000 0.0000 0.0000
# 3 11.8201 1.8308 37.2754 0.0000 0.0000 0.0000
# 4 0.0000 0.0000 0.0000 14.0045 0.0000 0.0000
# 5 0.0000 0.0000 0.0000 0.0000 11.1643 0.0000
# 6 0.0000 0.0000 0.0000 0.0000 0.0000 17.8454
#
#
#
# Elastic Compliance Matrix: (Units=1/GPa)
#
#
# Indices 1 2 3 4 5 6 
#
# 1 0.006863 -0.004536 -0.001954 0.000000 0.000000 0.000000
# 2 -0.004536 0.014038 0.000749 0.000000 0.000000 0.000000
# 3 -0.001954 0.000749 0.027410 0.000000 0.000000 0.000000
# 4 0.000000 0.000000 0.000000 0.071406 0.000000 0.000000
# 5 0.000000 0.000000 0.000000 0.000000 0.089571 0.000000
# 6 0.000000 0.000000 0.000000 0.000000 0.000000 0.056037
#
#
# Mechanical properties :
#
#
# Convention : Reuss Voigt Hill
#
# Bulk Modulus (GPa) = 27.15203 51.68487 39.41845
# Shear Modulus (GPa) = 17.29610 24.79408 21.04509
#
# Velocity S-wave (km/s) = 3.05207 3.65421 3.36663
# Velocity P-wave (km/s) = 5.20032 6.75575 6.02841
#
# Compressibility (1/GPa) = 0.03682966
#
# Stress axis : x y z
#
# Youngs Moduli (GPa) = 145.70480 71.23687 36.48295
#
# Poissons Ratio (x) = 0.32313 0.07127
# Poissons Ratio (y) = 0.66092 -0.02732
# Poissons Ratio (z) = 0.28464 -0.05335
#
# Static dielectric constant tensor:
#      x y z
#    x 1.688980 0.000000 0.000000 
#    y 0.000000 1.627560 0.000000 
#    z 0.000000 0.000000 1.627070 
# 
# From -- ./inp_files/48953.got.cif
#   From: 2010.05.17/outbox.cif.g08.bks.cpg/sg63_25_cif.got.tgz:48953.got - 2010.06.03 15:47:04.
