data_PCOD9472297
_publ_section_title
;
Structure prediction by ZEFSAII (Michael W. Deem and Ramdas Pophale) SiO2 
 PCOD9472297
Probable space group: C M C M
;
_chemical_formula_sum "Si O2"
_cell_formula_units_Z 80
_cell_length_a 25.002376
_cell_length_b 5.515178
_cell_length_c 26.318655
_cell_angle_alpha 90.000000
_cell_angle_beta 90.000000
_cell_angle_gamma 90.000000
_cell_volume 3629.146557
_symmetry_space_group_name_H-M "C M C M"
_symmetry_group_IT_number 63
_symmetry_cell_setting 'orthorhombic'
loop_
_space_group_symop_operation_xyz
x,y,z
-x,-y,1/2+z
x,-y,-z
-x,y,1/2-z
-x,-y,-z
x,y,1/2-z
-x,y,z
x,-y,1/2+z
1/2+x,1/2+y,z
1/2-x,1/2-y,1/2+z
1/2+x,1/2-y,-z
1/2-x,1/2+y,1/2-z
1/2-x,1/2-y,-z
1/2+x,1/2+y,1/2-z
1/2-x,1/2+y,z
1/2+x,1/2-y,1/2+z
loop_
_atom_site_type_symbol
_atom_site_label
_atom_site_fract_x
_atom_site_fract_y
_atom_site_fract_z
Si Si1 0.740222 0.659294 0.632133
Si Si2 0.835144 0.131088 0.309323
Si Si3 0.163296 0.749430 0.514580
Si Si4 0.908500 0.255565 0.392522
Si Si5 0.941455 0.245552 0.559074
O O1 0.742879 0.913753 0.604249
O O2 0.784405 0.696317 0.676942
O O3 0.683329 0.606815 0.658511
O O4 0.839399 0.089287 0.250000
O O5 0.888151 0.235885 0.335111
O O6 0.189811 0.500000 0.500000
O O7 0.145167 0.747808 0.572770
O O8 0.107341 0.750959 0.481055
O O9 0.189861 0.000000 0.500000
O O10 0.935777 0.509752 0.407281
O O11 0.937085 0.005909 0.409512
O O12 0.000000 0.251004 0.533945
#
# Coordination Sequence:
#
# PCOD9472297 Si02
#       5
#    16  16  16  16  16
#     4   8  19  32  52  76 101 130 165 212 254 288
#     4  10  20  34  53  78 108 134 168 206 251 299
#     4   8  16  30  47  73  98 123 156 205 257 293
#     4  10  21  31  51  80 102 131 166 209 257 304
#     4  10  20  35  54  76 100 129 170 218 260 294
#
# _framework density 22.043752000000001
#
# number of rings (size 3 to 8) (size 9 to 14) (size 15 to 20)
#    1.200    1.600    0.000    1.200    2.800    7.200 
#    0.000    0.000    0.000    3.600    0.000   37.800 
#    0.000    0.000    0.000    0.000    0.000    0.000 
#
# Total GULP energy -222997.602257 kJ/mol
# GULP energy per Si atom -5574.940056 kJ/mol
# Density = 2.199358 g / cm^3
# Si number density = 22.043752 Si / 1000 Ang^3
#
#
#
# Elastic Constant Matrix: (Units=GPa)
#
#
# Indices 1 2 3 4 5 6 
#
# 1 87.2977 12.4308 28.6092 0.0000 0.0000 0.0000
# 2 12.4308 187.5270 17.0828 0.0000 0.0000 0.0000
# 3 28.6092 17.0828 82.8231 0.0000 0.0000 0.0000
# 4 0.0000 0.0000 0.0000 8.9880 0.0000 0.0000
# 5 0.0000 0.0000 0.0000 0.0000 18.5663 0.0000
# 6 0.0000 0.0000 0.0000 0.0000 0.0000 12.5382
#
#
#
# Elastic Compliance Matrix: (Units=1/GPa)
#
#
# Indices 1 2 3 4 5 6 
#
# 1 0.012956 -0.000460 -0.004381 0.000000 0.000000 0.000000
# 2 -0.000460 0.005451 -0.000965 0.000000 0.000000 0.000000
# 3 -0.004381 -0.000965 0.013786 0.000000 0.000000 0.000000
# 4 0.000000 0.000000 0.000000 0.111259 0.000000 0.000000
# 5 0.000000 0.000000 0.000000 0.000000 0.053861 0.000000
# 6 0.000000 0.000000 0.000000 0.000000 0.000000 0.079757
#
#
# Mechanical properties :
#
#
# Convention : Reuss Voigt Hill
#
# Bulk Modulus (GPa) = 48.58685 52.65484 50.62084
# Shear Modulus (GPa) = 16.91805 27.98682 22.45244
#
# Velocity S-wave (km/s) = 2.77334 3.56701 3.19492
# Velocity P-wave (km/s) = 5.68719 6.39556 6.05175
#
# Compressibility (1/GPa) = 0.02058170
#
# Stress axis : x y z
#
# Youngs Moduli (GPa) = 77.18360 183.45272 72.53628
#
# Poissons Ratio (x) = 0.08435 0.31775
# Poissons Ratio (y) = 0.03549 0.07003
# Poissons Ratio (z) = 0.33811 0.17712
#
# Static dielectric constant tensor:
#      x y z
#    x 1.849930 0.000000 0.000000 
#    y 0.000000 1.927440 0.000000 
#    z 0.000000 0.000000 1.760740 
# 
# From -- ./inp_files/70888.got.cif
#   From: 2010.05.17/outbox.cif.g08.bks.cpg/sg63_36_cif.got.tgz:70888.got - 2010.06.03 15:47:04.
