data_PCOD9472704
_publ_section_title
;
Structure prediction by ZEFSAII (Michael W. Deem and Ramdas Pophale) SiO2 
 PCOD9472704
Probable space group: C M C M
;
_chemical_formula_sum "Si O2"
_cell_formula_units_Z 88
_cell_length_a 25.132268
_cell_length_b 20.509084
_cell_length_c 8.275970
_cell_angle_alpha 90.000000
_cell_angle_beta 90.000000
_cell_angle_gamma 90.000000
_cell_volume 4265.764285
_symmetry_space_group_name_H-M "C M C M"
_symmetry_group_IT_number 63
_symmetry_cell_setting 'orthorhombic'
loop_
_space_group_symop_operation_xyz
x,y,z
-x,-y,1/2+z
x,-y,-z
-x,y,1/2-z
-x,-y,-z
x,y,1/2-z
-x,y,z
x,-y,1/2+z
1/2+x,1/2+y,z
1/2-x,1/2-y,1/2+z
1/2+x,1/2-y,-z
1/2-x,1/2+y,1/2-z
1/2-x,1/2-y,-z
1/2+x,1/2+y,1/2-z
1/2-x,1/2+y,z
1/2+x,1/2-y,1/2+z
loop_
_atom_site_type_symbol
_atom_site_label
_atom_site_fract_x
_atom_site_fract_y
_atom_site_fract_z
Si Si1 0.938080 0.211203 0.933306
Si Si2 0.500000 0.923984 0.053187
Si Si3 0.785136 0.069459 0.438918
Si Si4 0.603339 0.158985 0.937448
Si Si5 0.780513 0.686146 0.562992
Si Si6 0.594664 0.567188 0.556377
O O1 0.915668 0.217663 0.750000
O O2 0.932112 0.136035 0.982431
O O3 0.000000 0.226282 0.926048
O O4 0.912918 0.265262 0.046732
O O5 0.500000 0.921438 0.250000
O O6 0.554107 0.885424 0.997209
O O7 0.500000 0.000000 0.000000
O O8 0.774516 0.078434 0.250000
O O9 0.759748 0.127017 0.540061
O O10 0.848147 0.069257 0.470658
O O11 0.764240 0.000000 0.500000
O O12 0.608023 0.139179 0.750000
O O13 0.663042 0.161174 0.010987
O O14 0.791693 0.699686 0.750000
O O15 0.750000 0.750000 0.500000
O O16 0.567665 0.500000 0.500000
O O17 0.601342 0.563830 0.750000
#
# Coordination Sequence:
#
# PCOD9472704 Si02
#       6
#    16   8  16  16  16  16
#     4  10  21  36  56  82 113 149 191 237 287 341
#     4  10  22  42  64  90 119 152 197 250 303 362
#     4  11  22  38  59  83 114 153 194 239 292 351
#     4  10  22  40  62  86 117 153 196 244 297 359
#     4  11  23  39  60  90 123 158 200 250 302 363
#     4  10  20  35  55  81 115 153 194 240 285 340
#
# _framework density 20.629363000000001
#
# number of rings (size 3 to 8) (size 9 to 14) (size 15 to 20)
#    0.000    1.636    0.909    4.909    0.000    7.636 
#    0.000    1.818    0.000    0.000    0.000    0.000 
#    0.000    0.000    0.000    0.000    0.000    0.000 
#
# Total GULP energy -245348.583174 kJ/mol
# GULP energy per Si atom -5576.104163 kJ/mol
# Density = 2.058241 g / cm^3
# Si number density = 20.629363 Si / 1000 Ang^3
#
#
#
# Elastic Constant Matrix: (Units=GPa)
#
#
# Indices 1 2 3 4 5 6 
#
# 1 77.7133 20.1497 10.7783 0.0000 0.0000 0.0000
# 2 20.1497 101.0397 3.0652 0.0000 0.0000 0.0000
# 3 10.7783 3.0652 21.5053 0.0000 0.0000 0.0000
# 4 0.0000 0.0000 0.0000 33.3781 0.0000 0.0000
# 5 0.0000 0.0000 0.0000 0.0000 13.8440 0.0000
# 6 0.0000 0.0000 0.0000 0.0000 0.0000 -199.0170
#
#
#
# Elastic Compliance Matrix: (Units=1/GPa)
#
#
# Indices 1 2 3 4 5 6 
#
# 1 0.014521 -0.002687 -0.006895 0.000000 0.000000 0.000000
# 2 -0.002687 0.010437 -0.000141 0.000000 0.000000 0.000000
# 3 -0.006895 -0.000141 0.049976 0.000000 0.000000 0.000000
# 4 0.000000 0.000000 0.000000 0.029960 0.000000 0.000000
# 5 0.000000 0.000000 0.000000 0.000000 0.072233 0.000000
# 6 0.000000 0.000000 0.000000 0.000000 0.000000 -0.005025
#
#
# Mechanical properties :
#
#
# Convention : Reuss Voigt Hill
#
# Bulk Modulus (GPa) = 18.02165 29.80497 23.91331
# Shear Modulus (GPa) = 23.80461 -19.27465 2.26498
#
# Velocity S-wave (km/s) = 3.40062 -3.06000 1.04896
# Velocity P-wave (km/s) = 4.91669 1.41224 3.61720
#
# Compressibility (1/GPa) = 0.05548882
#
# Stress axis : x y z
#
# Youngs Moduli (GPa) = 68.86745 95.81158 20.00964
#
# Poissons Ratio (x) = 0.25741 0.13796
# Poissons Ratio (y) = 0.18502 0.00282
# Poissons Ratio (z) = 0.47482 0.01352
#
# Static dielectric constant tensor:
#      x y z
#    x 1.769400 0.000000 0.000000 
#    y 0.000000 1.730030 0.000000 
#    z 0.000000 0.000000 1.759960 
# 
# From -- ./inp_files/10208.got.cif
#   From: 2010.05.17/outbox.cif.g08.bks.cpg/sg63_6_cif.got.tgz:10208.got - 2010.06.03 15:47:04.
