data_PCOD9472546
_publ_section_title
;
Structure prediction by ZEFSAII (Michael W. Deem and Ramdas Pophale) SiO2 
 PCOD9472546
Probable space group: C M C M
;
_chemical_formula_sum "Si O2"
_cell_formula_units_Z 84
_cell_length_a 23.249860
_cell_length_b 7.555148
_cell_length_c 22.258907
_cell_angle_alpha 90.000000
_cell_angle_beta 90.000000
_cell_angle_gamma 90.000000
_cell_volume 3909.913535
_symmetry_space_group_name_H-M "C M C M"
_symmetry_group_IT_number 63
_symmetry_cell_setting 'orthorhombic'
loop_
_space_group_symop_operation_xyz
x,y,z
-x,-y,1/2+z
x,-y,-z
-x,y,1/2-z
-x,-y,-z
x,y,1/2-z
-x,y,z
x,-y,1/2+z
1/2+x,1/2+y,z
1/2-x,1/2-y,1/2+z
1/2+x,1/2-y,-z
1/2-x,1/2+y,1/2-z
1/2-x,1/2-y,-z
1/2+x,1/2+y,1/2-z
1/2-x,1/2+y,z
1/2+x,1/2-y,1/2+z
loop_
_atom_site_type_symbol
_atom_site_label
_atom_site_fract_x
_atom_site_fract_y
_atom_site_fract_z
Si Si1 0.668174 0.367460 0.180917
Si Si2 0.566097 0.224900 0.114045
Si Si3 0.431062 0.697320 0.015841
Si Si4 0.711949 0.036629 0.681557
Si Si5 0.908360 0.331635 0.148244
Si Si6 0.000000 0.226546 0.250000
O O1 0.656315 0.422049 0.250000
O O2 0.609562 0.364854 0.143340
O O3 0.724652 0.459298 0.152982
O O4 0.687681 0.161321 0.180665
O O5 0.500000 0.287499 0.116403
O O6 0.570508 0.037570 0.147787
O O7 0.582794 0.192535 0.044424
O O8 0.500000 0.694830 0.019261
O O9 0.412514 0.762199 0.080535
O O10 0.410702 0.500000 0.000000
O O11 0.724416 0.089284 0.750000
O O12 0.659575 0.160872 0.662268
O O13 0.949044 0.237976 0.196842
#
# Coordination Sequence:
#
# PCOD9472546 Si02
#       6
#    16  16  16  16  16   4
#     4   9  19  33  54  78 113 147 185 226 277 333
#     4  10  20  34  58  85 110 141 189 232 280 327
#     4  10  21  37  55  78 115 157 187 222 278 339
#     4   9  18  33  51  80 109 149 182 223 279 337
#     4  11  20  34  60  86 115 142 188 235 278 330
#     4  12  20  32  60  94 114 140 182 242 282 320
#
# _framework density 21.483851999999999
#
# number of rings (size 3 to 8) (size 9 to 14) (size 15 to 20)
#    0.000    2.095    2.857    0.571    1.333    3.429 
#    0.000    0.952    2.095    1.143    0.000    0.000 
#    0.000    0.000    0.000    0.000    0.000    0.000 
#
# Total GULP energy -233830.742870 kJ/mol
# GULP energy per Si atom -5567.398640 kJ/mol
# Density = 2.143495 g / cm^3
# Si number density = 21.483852 Si / 1000 Ang^3
#
#
#
# Elastic Constant Matrix: (Units=GPa)
#
#
# Indices 1 2 3 4 5 6 
#
# 1 133.5966 28.3148 54.2702 0.0000 0.0000 0.0000
# 2 28.3148 24.6399 8.1862 0.0000 0.0000 0.0000
# 3 54.2702 8.1862 93.9013 0.0000 0.0000 0.0000
# 4 0.0000 0.0000 0.0000 17.8320 0.0000 0.0000
# 5 0.0000 0.0000 0.0000 0.0000 33.8576 0.0000
# 6 0.0000 0.0000 0.0000 0.0000 0.0000 22.6202
#
#
#
# Elastic Compliance Matrix: (Units=1/GPa)
#
#
# Indices 1 2 3 4 5 6 
#
# 1 0.012661 -0.012479 -0.006229 0.000000 0.000000 0.000000
# 2 -0.012479 0.054096 0.002496 0.000000 0.000000 0.000000
# 3 -0.006229 0.002496 0.014032 0.000000 0.000000 0.000000
# 4 0.000000 0.000000 0.000000 0.056079 0.000000 0.000000
# 5 0.000000 0.000000 0.000000 0.000000 0.029535 0.000000
# 6 0.000000 0.000000 0.000000 0.000000 0.000000 0.044208
#
#
# Mechanical properties :
#
#
# Convention : Reuss Voigt Hill
#
# Bulk Modulus (GPa) = 20.67650 48.18670 34.43160
# Shear Modulus (GPa) = 19.29336 25.61975 22.45656
#
# Velocity S-wave (km/s) = 2.99998 3.45702 3.23658
# Velocity P-wave (km/s) = 4.65241 6.19779 5.47985
#
# Compressibility (1/GPa) = 0.04836408
#
# Stress axis : x y z
#
# Youngs Moduli (GPa) = 78.98527 18.48574 71.26549
#
# Poissons Ratio (x) = 0.23069 0.44393
# Poissons Ratio (y) = 0.98568 -0.17791
# Poissons Ratio (z) = 0.49202 -0.04615
#
# Static dielectric constant tensor:
#      x y z
#    x 1.812990 0.000000 0.000000 
#    y 0.000000 1.874620 0.000000 
#    z 0.000000 0.000000 1.773310 
# 
# From -- ./inp_files/64899.got.cif
#   From: 2010.05.17/outbox.cif.g08.bks.cpg/sg63_33_cif.got.tgz:64899.got - 2010.06.03 15:47:04.
