data_PCOD9472775
_publ_section_title
;
Structure prediction by ZEFSAII (Michael W. Deem and Ramdas Pophale) SiO2 
 PCOD9472775
Probable space group: C M C M
;
_chemical_formula_sum "Si O2"
_cell_formula_units_Z 104
_cell_length_a 21.604660
_cell_length_b 28.810260
_cell_length_c 8.749633
_cell_angle_alpha 90.000000
_cell_angle_beta 90.000000
_cell_angle_gamma 90.000000
_cell_volume 5446.085444
_symmetry_space_group_name_H-M "C M C M"
_symmetry_group_IT_number 63
_symmetry_cell_setting 'orthorhombic'
loop_
_space_group_symop_operation_xyz
x,y,z
-x,-y,1/2+z
x,-y,-z
-x,y,1/2-z
-x,-y,-z
x,y,1/2-z
-x,y,z
x,-y,1/2+z
1/2+x,1/2+y,z
1/2-x,1/2-y,1/2+z
1/2+x,1/2-y,-z
1/2-x,1/2+y,1/2-z
1/2-x,1/2-y,-z
1/2+x,1/2+y,1/2-z
1/2-x,1/2+y,z
1/2+x,1/2-y,1/2+z
loop_
_atom_site_type_symbol
_atom_site_label
_atom_site_fract_x
_atom_site_fract_y
_atom_site_fract_z
Si Si1 0.174714 0.549821 0.567933
Si Si2 0.398646 0.626929 0.066850
Si Si3 0.071873 0.617622 0.933964
Si Si4 0.000000 0.948138 0.565363
Si Si5 0.762017 0.864305 0.433256
Si Si6 0.840566 0.303379 0.567548
Si Si7 0.932173 0.224647 0.565963
O O1 0.187871 0.500000 0.500000
O O2 0.178786 0.546294 0.750000
O O3 0.106780 0.569604 0.528817
O O4 0.221901 0.590456 0.520697
O O5 0.396467 0.627023 0.250000
O O6 0.439996 0.582577 0.019066
O O7 0.329841 0.628766 0.999832
O O8 0.429343 0.674334 0.008517
O O9 0.078589 0.625003 0.750000
O O10 0.000000 0.617283 0.972334
O O11 0.109350 0.657653 0.019693
O O12 0.000000 0.950912 0.750000
O O13 0.000000 0.000000 0.500000
O O14 0.764612 0.861652 0.250000
O O15 0.723855 0.819639 0.493072
O O16 0.833188 0.302298 0.750000
O O17 0.873647 0.255695 0.516849
O O18 0.928635 0.220218 0.750000
O O19 0.000000 0.246094 0.530029
#
# Coordination Sequence:
#
# PCOD9472775 Si02
#       7
#    16  16  16   8  16  16  16
#     4   9  19  34  52  75 105 141 185 234 284 340
#     4  11  23  41  63  90 119 148 189 238 285 340
#     4   9  18  33  51  74 109 151 193 236 284 340
#     4  10  24  44  66  94 124 154 194 242 295 358
#     4  10  22  40  59  82 114 153 194 236 290 354
#     4  10  20  35  56  85 117 152 196 242 286 337
#     4  10  21  37  59  87 120 157 194 234 286 346
#
# _framework density 19.096285000000002
#
# number of rings (size 3 to 8) (size 9 to 14) (size 15 to 20)
#    0.000    2.154    0.769    2.769    0.000    8.000 
#    0.000    3.077    0.000    0.000    0.000    0.000 
#    0.000    0.000    0.000    0.000    0.000    0.000 
#
# Total GULP energy -290181.957553 kJ/mol
# GULP energy per Si atom -5580.422261 kJ/mol
# Density = 1.905282 g / cm^3
# Si number density = 19.096285 Si / 1000 Ang^3
#
#
#
# Elastic Constant Matrix: (Units=GPa)
#
#
# Indices 1 2 3 4 5 6 
#
# 1 146.7823 56.8490 32.2091 0.0000 0.0000 0.0000
# 2 56.8490 120.6124 29.2936 0.0000 0.0000 0.0000
# 3 32.2091 29.2936 20.2463 0.0000 0.0000 0.0000
# 4 0.0000 0.0000 0.0000 33.4312 0.0000 0.0000
# 5 0.0000 0.0000 0.0000 0.0000 27.9043 0.0000
# 6 0.0000 0.0000 0.0000 0.0000 0.0000 15.5718
#
#
#
# Elastic Compliance Matrix: (Units=1/GPa)
#
#
# Indices 1 2 3 4 5 6 
#
# 1 0.010616 -0.001391 -0.014876 0.000000 0.000000 0.000000
# 2 -0.001391 0.012965 -0.016547 0.000000 0.000000 0.000000
# 3 -0.014876 -0.016547 0.096999 0.000000 0.000000 0.000000
# 4 0.000000 0.000000 0.000000 0.029912 0.000000 0.000000
# 5 0.000000 0.000000 0.000000 0.000000 0.035837 0.000000
# 6 0.000000 0.000000 0.000000 0.000000 0.000000 0.064218
#
#
# Mechanical properties :
#
#
# Convention : Reuss Voigt Hill
#
# Bulk Modulus (GPa) = 18.19754 58.26048 38.22901
# Shear Modulus (GPa) = 14.94807 26.66741 20.80774
#
# Velocity S-wave (km/s) = 2.80084 3.74099 3.30452
# Velocity P-wave (km/s) = 4.47322 7.01677 5.88408
#
# Compressibility (1/GPa) = 0.05495249
#
# Stress axis : x y z
#
# Youngs Moduli (GPa) = 94.19986 77.12968 10.30944
#
# Poissons Ratio (x) = 0.10725 0.15337
# Poissons Ratio (y) = 0.13099 0.17059
# Poissons Ratio (z) = 1.40134 1.27624
#
# Static dielectric constant tensor:
#      x y z
#    x 1.687550 0.000000 0.000000 
#    y 0.000000 1.660230 0.000000 
#    z 0.000000 0.000000 1.640430 
# 
# From -- ./inp_files/8824.got.cif
#   From: 2010.05.17/outbox.cif.g08.bks.cpg/sg63_5_cif.got.tgz:8824.got - 2010.06.03 15:47:04.
