data_PCOD9472437
_publ_section_title
;
Structure prediction by ZEFSAII (Michael W. Deem and Ramdas Pophale) SiO2 
 PCOD9472437
Probable space group: C M C M
;
_chemical_formula_sum "Si O2"
_cell_formula_units_Z 96
_cell_length_a 14.724423
_cell_length_b 17.526739
_cell_length_c 22.490792
_cell_angle_alpha 90.000000
_cell_angle_beta 90.000000
_cell_angle_gamma 90.000000
_cell_volume 5804.223855
_symmetry_space_group_name_H-M "C M C M"
_symmetry_group_IT_number 63
_symmetry_cell_setting 'orthorhombic'
loop_
_space_group_symop_operation_xyz
x,y,z
-x,-y,1/2+z
x,-y,-z
-x,y,1/2-z
-x,-y,-z
x,y,1/2-z
-x,y,z
x,-y,1/2+z
1/2+x,1/2+y,z
1/2-x,1/2-y,1/2+z
1/2+x,1/2-y,-z
1/2-x,1/2+y,1/2-z
1/2-x,1/2-y,-z
1/2+x,1/2+y,1/2-z
1/2-x,1/2+y,z
1/2+x,1/2-y,1/2+z
loop_
_atom_site_type_symbol
_atom_site_label
_atom_site_fract_x
_atom_site_fract_y
_atom_site_fract_z
Si Si1 0.108248 0.795316 0.319304
Si Si2 0.603049 0.991752 0.320792
Si Si3 0.395963 0.449296 0.939596
Si Si4 0.744180 0.340714 0.508500
Si Si5 0.104865 0.645798 0.104287
Si Si6 0.223921 0.924014 0.382247
O O1 0.127699 0.780320 0.250000
O O2 0.130535 0.722250 0.359909
O O3 0.162874 0.867367 0.343330
O O4 0.000000 0.808691 0.324889
O O5 0.614799 0.997286 0.250000
O O6 0.500000 0.963526 0.332347
O O7 0.610020 0.074839 0.350931
O O8 0.682064 0.942045 0.349749
O O9 0.500000 0.439248 0.919466
O O10 0.333271 0.498847 0.895443
O O11 0.398920 0.500000 0.000000
O O12 0.345574 0.370966 0.957133
O O13 0.750000 0.250000 0.500000
O O14 0.829069 0.365561 0.548890
O O15 0.743292 0.383084 0.445233
O O16 0.000000 0.653403 0.084925
#
# Coordination Sequence:
#
# PCOD9472437 Si02
#       6
#    16  16  16  16  16  16
#     4  10  20  34  55  82 107 137 181 230 273 312
#     4  10  21  37  57  80 108 145 184 224 273 324
#     4   9  19  34  53  77 105 138 172 213 268 322
#     4  11  21  35  53  80 111 143 179 219 268 328
#     4  10  20  36  56  79 108 141 183 229 268 318
#     4  11  20  34  57  79 113 140 175 224 272 327
#
# _framework density 16.539679
#
# number of rings (size 3 to 8) (size 9 to 14) (size 15 to 20)
#    0.000    1.833    3.333    1.500    0.000    4.000 
#    0.000    1.667    0.000    0.000    0.000    0.000 
#    0.000    0.000    0.000    0.000    0.000    0.000 
#
# Total GULP energy -267745.528675 kJ/mol
# GULP energy per Si atom -5578.031847 kJ/mol
# Density = 1.650203 g / cm^3
# Si number density = 16.539679 Si / 1000 Ang^3
#
#
#
# Elastic Constant Matrix: (Units=GPa)
#
#
# Indices 1 2 3 4 5 6 
#
# 1 89.2205 30.0380 39.9968 0.0000 0.0000 0.0000
# 2 30.0380 65.5509 5.9651 0.0000 0.0000 0.0000
# 3 39.9968 5.9651 57.0435 0.0000 0.0000 0.0000
# 4 0.0000 0.0000 0.0000 18.9994 0.0000 0.0000
# 5 0.0000 0.0000 0.0000 0.0000 33.2045 0.0000
# 6 0.0000 0.0000 0.0000 0.0000 0.0000 30.6659
#
#
#
# Elastic Compliance Matrix: (Units=1/GPa)
#
#
# Indices 1 2 3 4 5 6 
#
# 1 0.019654 -0.007827 -0.012962 0.000000 0.000000 0.000000
# 2 -0.007827 0.018519 0.003551 0.000000 0.000000 0.000000
# 3 -0.012962 0.003551 0.026248 0.000000 0.000000 0.000000
# 4 0.000000 0.000000 0.000000 0.052633 0.000000 0.000000
# 5 0.000000 0.000000 0.000000 0.000000 0.030116 0.000000
# 6 0.000000 0.000000 0.000000 0.000000 0.000000 0.032609
#
#
# Mechanical properties :
#
#
# Convention : Reuss Voigt Hill
#
# Bulk Modulus (GPa) = 33.39439 40.42387 36.90913
# Shear Modulus (GPa) = 22.29783 25.62829 23.96306
#
# Velocity S-wave (km/s) = 3.67569 3.94064 3.81047
# Velocity P-wave (km/s) = 6.18454 6.72298 6.45937
#
# Compressibility (1/GPa) = 0.02994515
#
# Stress axis : x y z
#
# Youngs Moduli (GPa) = 50.87984 53.99952 38.09840
#
# Poissons Ratio (x) = 0.42264 0.49384
# Poissons Ratio (y) = 0.39822 -0.13530
# Poissons Ratio (z) = 0.65952 -0.19177
#
# Static dielectric constant tensor:
#      x y z
#    x 1.552680 0.000000 0.000000 
#    y 0.000000 1.546950 0.000000 
#    z 0.000000 0.000000 1.537150 
# 
# From -- ./inp_files/54184.got.cif
#   From: 2010.05.17/outbox.cif.g08.bks.cpg/sg63_28_cif.got.tgz:54184.got - 2010.06.03 15:47:04.
