data_PCOD9472957
_publ_section_title
;
Structure prediction by ZEFSAII (Michael W. Deem and Ramdas Pophale) SiO2 
 PCOD9472957
Probable space group: C M C M
;
_chemical_formula_sum "Si O2"
_cell_formula_units_Z 72
_cell_length_a 23.145013
_cell_length_b 12.982251
_cell_length_c 14.401486
_cell_angle_alpha 90.000000
_cell_angle_beta 90.000000
_cell_angle_gamma 90.000000
_cell_volume 4327.277406
_symmetry_space_group_name_H-M "C M C M"
_symmetry_group_IT_number 63
_symmetry_cell_setting 'orthorhombic'
loop_
_space_group_symop_operation_xyz
x,y,z
-x,-y,1/2+z
x,-y,-z
-x,y,1/2-z
-x,-y,-z
x,y,1/2-z
-x,y,z
x,-y,1/2+z
1/2+x,1/2+y,z
1/2-x,1/2-y,1/2+z
1/2+x,1/2-y,-z
1/2-x,1/2+y,1/2-z
1/2-x,1/2-y,-z
1/2+x,1/2+y,1/2-z
1/2-x,1/2+y,z
1/2+x,1/2-y,1/2+z
loop_
_atom_site_type_symbol
_atom_site_label
_atom_site_fract_x
_atom_site_fract_y
_atom_site_fract_z
Si Si1 0.340107 0.799236 0.552299
Si Si2 0.703019 0.302889 0.750000
Si Si3 0.166566 0.651117 0.250000
Si Si4 0.066006 0.599528 0.566261
Si Si5 0.360791 0.920436 0.250000
Si Si6 0.284414 0.391352 0.546029
O O1 0.363427 0.813406 0.655992
O O2 0.392067 0.819872 0.483069
O O3 0.310637 0.693005 0.523619
O O4 0.285605 0.878263 0.546011
O O5 0.772136 0.290589 0.750000
O O6 0.673156 0.189524 0.750000
O O7 0.693506 0.363803 0.848530
O O8 0.175869 0.526903 0.250000
O O9 0.065758 0.500000 0.500000
O O10 0.097885 0.573934 0.661399
O O11 0.000000 0.633245 0.580137
O O12 0.298793 0.500000 0.500000
#
# Coordination Sequence:
#
# PCOD9472957 Si02
#       6
#    16   8   8  16   8  16
#     4  10  20  36  52  82 113 146 181 228 282 333
#     4  10  22  33  53  84 107 152 186 220 280 344
#     4  10  22  31  55  82 115 152 173 228 279 337
#     4  11  22  36  57  82 109 149 192 232 277 330
#     4  12  21  38  56  80 120 146 186 228 279 343
#     4  10  21  34  56  79 113 148 184 226 283 338
#
# _framework density 16.638636999999999
#
# number of rings (size 3 to 8) (size 9 to 14) (size 15 to 20)
#    0.000    1.556    4.444    1.000    3.111    0.889 
#    0.000    0.556    0.000    0.667    0.000    0.000 
#    0.000    0.000    0.000    0.000    0.000    0.000 
#
# Total GULP energy -200491.840458 kJ/mol
# GULP energy per Si atom -5569.217791 kJ/mol
# Density = 1.660077 g / cm^3
# Si number density = 16.638637 Si / 1000 Ang^3
#
#
#
# Elastic Constant Matrix: (Units=GPa)
#
#
# Indices 1 2 3 4 5 6 
#
# 1 80.8199 28.4481 20.0939 0.0000 0.0000 0.0000
# 2 28.4481 80.4073 50.9576 0.0000 0.0000 0.0000
# 3 20.0939 50.9576 116.9592 0.0000 0.0000 0.0000
# 4 0.0000 0.0000 0.0000 22.5026 0.0000 0.0000
# 5 0.0000 0.0000 0.0000 0.0000 14.9338 0.0000
# 6 0.0000 0.0000 0.0000 0.0000 0.0000 13.5393
#
#
#
# Elastic Compliance Matrix: (Units=1/GPa)
#
#
# Indices 1 2 3 4 5 6 
#
# 1 0.014143 -0.004785 -0.000345 0.000000 0.000000 0.000000
# 2 -0.004785 0.018800 -0.007369 0.000000 0.000000 0.000000
# 3 -0.000345 -0.007369 0.011820 0.000000 0.000000 0.000000
# 4 0.000000 0.000000 0.000000 0.044439 0.000000 0.000000
# 5 0.000000 0.000000 0.000000 0.000000 0.066962 0.000000
# 6 0.000000 0.000000 0.000000 0.000000 0.000000 0.073859
#
#
# Mechanical properties :
#
#
# Convention : Reuss Voigt Hill
#
# Bulk Modulus (GPa) = 50.59493 53.02062 51.80777
# Shear Modulus (GPa) = 19.11248 22.10759 20.61004
#
# Velocity S-wave (km/s) = 3.39290 3.64907 3.52331
# Velocity P-wave (km/s) = 6.76928 7.04908 6.91059
#
# Compressibility (1/GPa) = 0.01976483
#
# Stress axis : x y z
#
# Youngs Moduli (GPa) = 70.70462 53.19288 84.60481
#
# Poissons Ratio (x) = 0.25454 0.02919
# Poissons Ratio (y) = 0.33834 0.62342
# Poissons Ratio (z) = 0.02439 0.39196
#
# Static dielectric constant tensor:
#      x y z
#    x 1.540390 0.000000 0.000000 
#    y 0.000000 1.563830 0.000000 
#    z 0.000000 0.000000 1.680730 
# 
# From -- ./inp_files/36399.got.cif
#   From: 2010.05.17/outbox.cif.g08.bks.cpg/sg63_19_cif.got.tgz:36399.got - 2010.06.03 15:47:04.
