data_PCOD9472673
_publ_section_title
;
Structure prediction by ZEFSAII (Michael W. Deem and Ramdas Pophale) SiO2 
 PCOD9472673
Probable space group: C M C M
;
_chemical_formula_sum "Si O2"
_cell_formula_units_Z 80
_cell_length_a 9.072589
_cell_length_b 29.866974
_cell_length_c 16.592506
_cell_angle_alpha 90.000000
_cell_angle_beta 90.000000
_cell_angle_gamma 90.000000
_cell_volume 4496.084289
_symmetry_space_group_name_H-M "C M C M"
_symmetry_group_IT_number 63
_symmetry_cell_setting 'orthorhombic'
loop_
_space_group_symop_operation_xyz
x,y,z
-x,-y,1/2+z
x,-y,-z
-x,y,1/2-z
-x,-y,-z
x,y,1/2-z
-x,y,z
x,-y,1/2+z
1/2+x,1/2+y,z
1/2-x,1/2-y,1/2+z
1/2+x,1/2-y,-z
1/2-x,1/2+y,1/2-z
1/2-x,1/2-y,-z
1/2+x,1/2+y,1/2-z
1/2-x,1/2+y,z
1/2+x,1/2-y,1/2+z
loop_
_atom_site_type_symbol
_atom_site_label
_atom_site_fract_x
_atom_site_fract_y
_atom_site_fract_z
Si Si1 0.172807 0.081936 0.378277
Si Si2 0.169973 0.185016 0.840571
Si Si3 0.175777 0.355400 0.750000
Si Si4 0.169106 0.508259 0.902836
Si Si5 0.826012 0.901913 0.069238
Si Si6 0.825045 0.758673 0.750000
O O1 0.265057 0.116801 0.326322
O O2 0.187933 0.093300 0.473017
O O3 0.000000 0.084044 0.357387
O O4 0.235547 0.031941 0.366184
O O5 0.168503 0.164365 0.750000
O O6 0.223340 0.146876 0.900720
O O7 0.268059 0.229027 0.826264
O O8 0.000000 0.197290 0.859723
O O9 0.247065 0.306333 0.750000
O O10 0.000000 0.352539 0.750000
O O11 0.238614 0.557098 0.891023
O O12 0.000000 0.506056 0.875728
O O13 0.170650 0.500000 0.000000
O O14 0.000000 0.905888 0.088945
O O15 0.000000 0.762805 0.750000
#
# Coordination Sequence:
#
# PCOD9472673 Si02
#       6
#    16  16   8  16  16   8
#     4  10  20  35  55  79 106 139 182 223 262 311
#     4   8  16  33  55  79 107 136 168 208 261 315
#     4  12  24  40  57  74 101 138 178 219 271 321
#     4   9  17  30  49  75 108 143 175 211 257 305
#     4   9  17  32  56  82 109 142 177 217 263 312
#     4  10  20  36  57  78 103 136 172 215 267 315
#
# _framework density 17.79326
#
# number of rings (size 3 to 8) (size 9 to 14) (size 15 to 20)
#    0.600    2.000    0.000    2.700    0.000    4.000 
#    1.800    1.000    0.000    0.000    0.000    0.000 
#    0.000    0.000    0.000    0.000    0.000    0.000 
#
# Total GULP energy -222847.766890 kJ/mol
# GULP energy per Si atom -5571.194172 kJ/mol
# Density = 1.775276 g / cm^3
# Si number density = 17.793260 Si / 1000 Ang^3
#
#
#
# Elastic Constant Matrix: (Units=GPa)
#
#
# Indices 1 2 3 4 5 6 
#
# 1 142.5931 95.3065 32.2647 0.0000 0.0000 0.0000
# 2 95.3065 157.4596 36.4210 0.0000 0.0000 0.0000
# 3 32.2647 36.4210 22.1011 0.0000 0.0000 0.0000
# 4 0.0000 0.0000 0.0000 25.2288 0.0000 0.0000
# 5 0.0000 0.0000 0.0000 0.0000 6.2459 0.0000
# 6 0.0000 0.0000 0.0000 0.0000 0.0000 33.9857
#
#
#
# Elastic Compliance Matrix: (Units=1/GPa)
#
#
# Indices 1 2 3 4 5 6 
#
# 1 0.012942 -0.005596 -0.009671 0.000000 0.000000 0.000000
# 2 -0.005596 0.012683 -0.012730 0.000000 0.000000 0.000000
# 3 -0.009671 -0.012730 0.080343 0.000000 0.000000 0.000000
# 4 0.000000 0.000000 0.000000 0.039637 0.000000 0.000000
# 5 0.000000 0.000000 0.000000 0.000000 0.160104 0.000000
# 6 0.000000 0.000000 0.000000 0.000000 0.000000 0.029424
#
#
# Mechanical properties :
#
#
# Convention : Reuss Voigt Hill
#
# Bulk Modulus (GPa) = 20.01094 72.23760 46.12427
# Shear Modulus (GPa) = 12.26137 23.63619 17.94878
#
# Velocity S-wave (km/s) = 2.62792 3.64865 3.17951
# Velocity P-wave (km/s) = 4.52535 7.64438 6.28153
#
# Compressibility (1/GPa) = 0.04997266
#
# Stress axis : x y z
#
# Youngs Moduli (GPa) = 77.26964 78.84708 12.44669
#
# Poissons Ratio (x) = 0.44126 0.12037
# Poissons Ratio (y) = 0.43244 0.15845
# Poissons Ratio (z) = 0.74724 1.00374
#
# Static dielectric constant tensor:
#      x y z
#    x 1.599240 0.000000 0.000000 
#    y 0.000000 1.588230 0.000000 
#    z 0.000000 0.000000 1.622750 
# 
# From -- ./inp_files/40554.got.cif
#   From: 2010.05.17/outbox.cif.g08.bks.cpg/sg63_21_cif.got.tgz:40554.got - 2010.06.03 15:47:04.
