data_PCOD9472239
_publ_section_title
;
Structure prediction by ZEFSAII (Michael W. Deem and Ramdas Pophale) SiO2 
 PCOD9472239
Probable space group: C M C M
;
_chemical_formula_sum "Si O2"
_cell_formula_units_Z 80
_cell_length_a 14.077437
_cell_length_b 12.089464
_cell_length_c 24.606281
_cell_angle_alpha 90.000000
_cell_angle_beta 90.000000
_cell_angle_gamma 90.000000
_cell_volume 4187.710183
_symmetry_space_group_name_H-M "C M C M"
_symmetry_group_IT_number 63
_symmetry_cell_setting 'orthorhombic'
loop_
_space_group_symop_operation_xyz
x,y,z
-x,-y,1/2+z
x,-y,-z
-x,y,1/2-z
-x,-y,-z
x,y,1/2-z
-x,y,z
x,-y,1/2+z
1/2+x,1/2+y,z
1/2-x,1/2-y,1/2+z
1/2+x,1/2-y,-z
1/2-x,1/2+y,1/2-z
1/2-x,1/2-y,-z
1/2+x,1/2+y,1/2-z
1/2-x,1/2+y,z
1/2+x,1/2-y,1/2+z
loop_
_atom_site_type_symbol
_atom_site_label
_atom_site_fract_x
_atom_site_fract_y
_atom_site_fract_z
Si Si1 0.109488 0.726377 0.106103
Si Si2 0.389849 0.836651 0.485048
Si Si3 0.107966 0.917290 0.948397
Si Si4 0.609813 0.975447 0.686178
Si Si5 0.751441 0.430818 0.397493
O O1 0.118160 0.642822 0.156132
O O2 0.180835 0.827761 0.108842
O O3 0.000000 0.766768 0.102820
O O4 0.125881 0.661099 0.049566
O O5 0.500000 0.867293 0.474199
O O6 0.376595 0.708027 0.467815
O O7 0.317691 0.907286 0.449676
O O8 0.000000 0.924310 0.926961
O O9 0.186159 0.961714 0.907085
O O10 0.113119 0.000000 0.000000
O O11 0.629816 0.968188 0.750000
O O12 0.500000 0.011214 0.679105
O O13 0.680798 0.054518 0.653984
#
# Coordination Sequence:
#
# PCOD9472239 Si02
#       5
#    16  16  16  16  16
#     4  10  21  36  56  82 114 146 180 224 272 332
#     4  10  21  34  51  85 121 148 178 217 274 334
#     4  10  20  34  52  81 123 153 170 210 274 335
#     4  10  24  43  57  75 107 146 188 238 287 320
#     4  12  21  33  60  86 110 145 191 225 268 332
#
# _framework density 19.103518999999999
#
# number of rings (size 3 to 8) (size 9 to 14) (size 15 to 20)
#    0.000    1.600    2.000    3.000    2.800    0.800 
#    0.000    3.000    0.000    1.800    0.000    0.000 
#    0.000    0.000    0.000    0.000    0.000    0.000 
#
# Total GULP energy -223809.562018 kJ/mol
# GULP energy per Si atom -5595.239050 kJ/mol
# Density = 1.906004 g / cm^3
# Si number density = 19.103519 Si / 1000 Ang^3
#
#
#
# Elastic Constant Matrix: (Units=GPa)
#
#
# Indices 1 2 3 4 5 6 
#
# 1 137.9707 57.2597 82.2259 0.0000 0.0000 0.0000
# 2 57.2597 74.3633 32.4647 0.0000 0.0000 0.0000
# 3 82.2259 32.4647 133.4874 0.0000 0.0000 0.0000
# 4 0.0000 0.0000 0.0000 10.6538 0.0000 0.0000
# 5 0.0000 0.0000 0.0000 0.0000 26.8371 0.0000
# 6 0.0000 0.0000 0.0000 0.0000 0.0000 24.2034
#
#
#
# Elastic Compliance Matrix: (Units=1/GPa)
#
#
# Indices 1 2 3 4 5 6 
#
# 1 0.015053 -0.008439 -0.007220 0.000000 0.000000 0.000000
# 2 -0.008439 0.019776 0.000389 0.000000 0.000000 0.000000
# 3 -0.007220 0.000389 0.011844 0.000000 0.000000 0.000000
# 4 0.000000 0.000000 0.000000 0.093863 0.000000 0.000000
# 5 0.000000 0.000000 0.000000 0.000000 0.037262 0.000000
# 6 0.000000 0.000000 0.000000 0.000000 0.000000 0.041316
#
#
# Mechanical properties :
#
#
# Convention : Reuss Voigt Hill
#
# Bulk Modulus (GPa) = 61.98654 76.63578 69.31116
# Shear Modulus (GPa) = 19.60535 23.93028 21.76781
#
# Velocity S-wave (km/s) = 3.20702 3.54314 3.37926
# Velocity P-wave (km/s) = 6.79937 7.54596 7.18237
#
# Compressibility (1/GPa) = 0.01613254
#
# Stress axis : x y z
#
# Youngs Moduli (GPa) = 66.43181 50.56709 84.42905
#
# Poissons Ratio (x) = 0.42672 0.60958
# Poissons Ratio (y) = 0.56060 -0.03281
# Poissons Ratio (z) = 0.47964 -0.01965
#
# Static dielectric constant tensor:
#      x y z
#    x 1.698860 0.000000 0.000000 
#    y 0.000000 1.676750 0.000000 
#    z 0.000000 0.000000 1.621160 
# 
# From -- ./inp_files/62557.got.cif
#   From: 2010.05.17/outbox.cif.g08.bks.cpg/sg63_32_cif.got.tgz:62557.got - 2010.06.03 15:47:04.
