data_PCOD9472627
_publ_section_title
;
Structure prediction by ZEFSAII (Michael W. Deem and Ramdas Pophale) SiO2 
 PCOD9472627
Probable space group: C M C M
;
_chemical_formula_sum "Si O2"
_cell_formula_units_Z 96
_cell_length_a 24.697428
_cell_length_b 23.514854
_cell_length_c 8.589992
_cell_angle_alpha 90.000000
_cell_angle_beta 90.000000
_cell_angle_gamma 90.000000
_cell_volume 4988.692947
_symmetry_space_group_name_H-M "C M C M"
_symmetry_group_IT_number 63
_symmetry_cell_setting 'orthorhombic'
loop_
_space_group_symop_operation_xyz
x,y,z
-x,-y,1/2+z
x,-y,-z
-x,y,1/2-z
-x,-y,-z
x,y,1/2-z
-x,y,z
x,-y,1/2+z
1/2+x,1/2+y,z
1/2-x,1/2-y,1/2+z
1/2+x,1/2-y,-z
1/2-x,1/2+y,1/2-z
1/2-x,1/2-y,-z
1/2+x,1/2+y,1/2-z
1/2-x,1/2+y,z
1/2+x,1/2-y,1/2+z
loop_
_atom_site_type_symbol
_atom_site_label
_atom_site_fract_x
_atom_site_fract_y
_atom_site_fract_z
Si Si1 0.379469 0.939130 0.064978
Si Si2 0.664909 0.764269 0.935748
Si Si3 0.938807 0.675503 0.563538
Si Si4 0.275269 0.123423 0.063356
Si Si5 0.337772 0.634987 0.563277
Si Si6 0.438269 0.563918 0.063221
O O1 0.371722 0.942149 0.250000
O O2 0.423310 0.890049 0.032697
O O3 0.323559 0.917996 0.987960
O O4 0.395476 0.000000 0.000000
O O5 0.671940 0.762146 0.750000
O O6 0.706156 0.813153 0.994421
O O7 0.668223 0.700131 0.996004
O O8 0.605526 0.787222 0.976856
O O9 0.933482 0.684400 0.750000
O O10 0.000000 0.688099 0.517376
O O11 0.271698 0.124440 0.250000
O O12 0.217881 0.106190 0.992274
O O13 0.340267 0.635115 0.750000
O O14 0.391495 0.604917 0.499876
O O15 0.435651 0.562879 0.250000
O O16 0.500000 0.581048 0.018152
O O17 0.429722 0.500000 0.000000
#
# Coordination Sequence:
#
# PCOD9472627 Si02
#       6
#    16  16  16  16  16  16
#     4  10  20  35  54  77 107 142 181 225 273 321
#     4   9  20  36  54  79 111 145 179 220 268 316
#     4   9  19  35  54  77 107 143 182 225 271 317
#     4  10  20  36  56  79 109 143 181 223 268 316
#     4  11  22  36  57  85 113 142 178 217 263 320
#     4  10  22  41  62  83 109 141 177 219 267 316
#
# _framework density 19.243518000000002
#
# number of rings (size 3 to 8) (size 9 to 14) (size 15 to 20)
#    0.000    2.167    0.000    2.500    0.000    5.667 
#    0.000    6.667    0.000    0.000    0.000    0.000 
#    0.000    0.000    0.000    0.000    0.000    0.000 
#
# Total GULP energy -267965.458085 kJ/mol
# GULP energy per Si atom -5582.613710 kJ/mol
# Density = 1.919972 g / cm^3
# Si number density = 19.243518 Si / 1000 Ang^3
#
#
#
# Elastic Constant Matrix: (Units=GPa)
#
#
# Indices 1 2 3 4 5 6 
#
# 1 97.1451 -3.4988 10.8532 0.0000 0.0000 0.0000
# 2 -3.4988 14.5637 0.6186 0.0000 0.0000 0.0000
# 3 10.8532 0.6186 31.9077 0.0000 0.0000 0.0000
# 4 0.0000 0.0000 0.0000 27.1987 0.0000 0.0000
# 5 0.0000 0.0000 0.0000 0.0000 29.6623 0.0000
# 6 0.0000 0.0000 0.0000 0.0000 0.0000 7.2369
#
#
#
# Elastic Compliance Matrix: (Units=1/GPa)
#
#
# Indices 1 2 3 4 5 6 
#
# 1 0.010810 0.002755 -0.003730 0.000000 0.000000 0.000000
# 2 0.002755 0.069423 -0.002283 0.000000 0.000000 0.000000
# 3 -0.003730 -0.002283 0.032654 0.000000 0.000000 0.000000
# 4 0.000000 0.000000 0.000000 0.036766 0.000000 0.000000
# 5 0.000000 0.000000 0.000000 0.000000 0.033713 0.000000
# 6 0.000000 0.000000 0.000000 0.000000 0.000000 0.138181
#
#
# Mechanical properties :
#
#
# Convention : Reuss Voigt Hill
#
# Bulk Modulus (GPa) = 9.40113 17.72917 13.56515
# Shear Modulus (GPa) = 13.75441 21.86248 17.80845
#
# Velocity S-wave (km/s) = 2.67639 3.37426 3.04538
# Velocity P-wave (km/s) = 3.80088 4.94104 4.40798
#
# Compressibility (1/GPa) = 0.10637015
#
# Stress axis : x y z
#
# Youngs Moduli (GPa) = 92.50804 14.40445 30.62459
#
# Poissons Ratio (x) = -0.03969 0.11424
# Poissons Ratio (y) = -0.25490 0.06992
# Poissons Ratio (z) = 0.34508 0.03289
#
# Static dielectric constant tensor:
#      x y z
#    x 1.644930 0.000000 0.000000 
#    y 0.000000 1.679380 0.000000 
#    z 0.000000 0.000000 1.656910 
# 
# From -- ./inp_files/10480.got.cif
#   From: 2010.05.17/outbox.cif.g08.bks.cpg/sg63_6_cif.got.tgz:10480.got - 2010.06.03 15:47:04.
