data_PCOD9472389
_publ_section_title
;
Structure prediction by ZEFSAII (Michael W. Deem and Ramdas Pophale) SiO2 
 PCOD9472389
Probable space group: C M C M
;
_chemical_formula_sum "Si O2"
_cell_formula_units_Z 80
_cell_length_a 13.773454
_cell_length_b 25.192814
_cell_length_c 11.329680
_cell_angle_alpha 90.000000
_cell_angle_beta 90.000000
_cell_angle_gamma 90.000000
_cell_volume 3931.309056
_symmetry_space_group_name_H-M "C M C M"
_symmetry_group_IT_number 63
_symmetry_cell_setting 'orthorhombic'
loop_
_space_group_symop_operation_xyz
x,y,z
-x,-y,1/2+z
x,-y,-z
-x,y,1/2-z
-x,-y,-z
x,y,1/2-z
-x,y,z
x,-y,1/2+z
1/2+x,1/2+y,z
1/2-x,1/2-y,1/2+z
1/2+x,1/2-y,-z
1/2-x,1/2+y,1/2-z
1/2-x,1/2-y,-z
1/2+x,1/2+y,1/2-z
1/2-x,1/2+y,z
1/2+x,1/2-y,1/2+z
loop_
_atom_site_type_symbol
_atom_site_label
_atom_site_fract_x
_atom_site_fract_y
_atom_site_fract_z
Si Si1 0.107827 0.133511 0.485173
Si Si2 0.386613 0.254533 0.114434
Si Si3 0.178484 0.963471 0.118996
Si Si4 0.687233 0.857546 0.886343
Si Si5 0.105356 0.557443 0.939932
O O1 0.119665 0.192001 0.540070
O O2 0.118867 0.089443 0.587399
O O3 0.200428 0.125751 0.401248
O O4 0.000000 0.129104 0.432366
O O5 0.357949 0.265995 0.250000
O O6 0.500000 0.238569 0.114188
O O7 0.327725 0.203147 0.072678
O O8 0.152172 0.985190 0.250000
O O9 0.291819 0.946298 0.125756
O O10 0.167607 0.000000 0.000000
O O11 0.658610 0.860017 0.750000
O O12 0.623132 0.897117 0.963183
O O13 0.000000 0.566875 0.882259
O O14 0.099318 0.500000 0.000000
#
# Coordination Sequence:
#
# PCOD9472389 Si02
#       5
#    16  16  16  16  16
#     4  10  21  36  54  77 109 149 191 235 284 339
#     4   9  17  31  54  81 106 137 181 232 286 344
#     4  10  22  39  59  84 115 151 192 238 286 338
#     4  10  20  34  54  81 112 145 186 236 286 338
#     4   9  19  34  53  79 111 144 177 219 275 337
#
# _framework density 20.349454999999999
#
# number of rings (size 3 to 8) (size 9 to 14) (size 15 to 20)
#    0.000    2.400    0.000    1.800    0.000   10.800 
#    0.000    4.000    0.000    0.000    0.000    5.600 
#    0.000    0.000    0.000    0.000    0.000    0.000 
#
# Total GULP energy -222820.313191 kJ/mol
# GULP energy per Si atom -5570.507830 kJ/mol
# Density = 2.030314 g / cm^3
# Si number density = 20.349455 Si / 1000 Ang^3
#
#
#
# Elastic Constant Matrix: (Units=GPa)
#
#
# Indices 1 2 3 4 5 6 
#
# 1 85.2942 26.1106 3.4386 0.0000 0.0000 0.0000
# 2 26.1106 92.8553 43.3860 0.0000 0.0000 0.0000
# 3 3.4386 43.3860 85.5810 0.0000 0.0000 0.0000
# 4 0.0000 0.0000 0.0000 13.1452 0.0000 0.0000
# 5 0.0000 0.0000 0.0000 0.0000 0.5792 0.0000
# 6 0.0000 0.0000 0.0000 0.0000 0.0000 35.4791
#
#
#
# Elastic Compliance Matrix: (Units=1/GPa)
#
#
# Indices 1 2 3 4 5 6 
#
# 1 0.013025 -0.004479 0.001747 0.000000 0.000000 0.000000
# 2 -0.004479 0.015652 -0.007755 0.000000 0.000000 0.000000
# 3 0.001747 -0.007755 0.015546 0.000000 0.000000 0.000000
# 4 0.000000 0.000000 0.000000 0.076074 0.000000 0.000000
# 5 0.000000 0.000000 0.000000 0.000000 1.726420 0.000000
# 6 0.000000 0.000000 0.000000 0.000000 0.000000 0.028186
#
#
# Mechanical properties :
#
#
# Convention : Reuss Voigt Hill
#
# Bulk Modulus (GPa) = 43.01112 45.51121 44.26117
# Shear Modulus (GPa) = 2.62657 22.56038 12.59347
#
# Velocity S-wave (km/s) = 1.13734 3.33325 2.49039
# Velocity P-wave (km/s) = 4.78611 6.10143 5.48335
#
# Compressibility (1/GPa) = 0.02324980
#
# Stress axis : x y z
#
# Youngs Moduli (GPa) = 76.77657 63.88773 64.32452
#
# Poissons Ratio (x) = 0.28615 -0.11239
# Poissons Ratio (y) = 0.34388 0.49885
# Poissons Ratio (z) = -0.13415 0.49546
#
# Static dielectric constant tensor:
#      x y z
#    x 1.755860 0.000000 0.000000 
#    y 0.000000 1.714690 0.000000 
#    z 0.000000 0.000000 1.687580 
# 
# From -- ./inp_files/19660.got.cif
#   From: 2010.05.17/outbox.cif.g08.bks.cpg/sg63_10_cif.got.tgz:19660.got - 2010.06.03 15:47:04.
