data_PCOD9472356
_publ_section_title
;
Structure prediction by ZEFSAII (Michael W. Deem and Ramdas Pophale) SiO2 
 PCOD9472356
Probable space group: C M C M
;
_chemical_formula_sum "Si O2"
_cell_formula_units_Z 80
_cell_length_a 11.379336
_cell_length_b 25.089044
_cell_length_c 14.064203
_cell_angle_alpha 90.000000
_cell_angle_beta 90.000000
_cell_angle_gamma 90.000000
_cell_volume 4015.283004
_symmetry_space_group_name_H-M "C M C M"
_symmetry_group_IT_number 63
_symmetry_cell_setting 'orthorhombic'
loop_
_space_group_symop_operation_xyz
x,y,z
-x,-y,1/2+z
x,-y,-z
-x,y,1/2-z
-x,-y,-z
x,y,1/2-z
-x,y,z
x,-y,1/2+z
1/2+x,1/2+y,z
1/2-x,1/2-y,1/2+z
1/2+x,1/2-y,-z
1/2-x,1/2+y,1/2-z
1/2-x,1/2-y,-z
1/2+x,1/2+y,1/2-z
1/2-x,1/2+y,z
1/2+x,1/2-y,1/2+z
loop_
_atom_site_type_symbol
_atom_site_label
_atom_site_fract_x
_atom_site_fract_y
_atom_site_fract_z
Si Si1 0.699453 0.287108 0.860202
Si Si2 0.632150 0.813672 0.472607
Si Si3 0.134163 0.465024 0.866258
Si Si4 0.141702 0.412857 0.358117
Si Si5 0.372858 0.593105 0.136907
O O1 0.731718 0.281928 0.750000
O O2 0.634818 0.234396 0.896689
O O3 0.631587 0.342875 0.871473
O O4 0.807121 0.293910 0.932031
O O5 0.500000 0.827685 0.497309
O O6 0.688915 0.865421 0.423236
O O7 0.129043 0.462880 0.750000
O O8 0.158579 0.526657 0.892001
O O9 0.247382 0.430612 0.896654
O O10 0.000000 0.450612 0.898665
O O11 0.186902 0.408273 0.250000
O O12 0.000000 0.406198 0.352908
O O13 0.374404 0.581080 0.250000
O O14 0.500000 0.574261 0.097308
#
# Coordination Sequence:
#
# PCOD9472356 Si02
#       5
#    16  16  16  16  16
#     4  10  21  35  52  76 106 139 175 219 271 324
#     4  10  20  34  54  79 104 134 177 224 270 324
#     4   8  14  26  47  76 106 134 169 219 274 318
#     4   8  14  27  50  78 104 131 169 220 272 317
#     4   9  17  30  50  75 103 140 183 218 256 319
#
# _framework density 19.923874999999999
#
# number of rings (size 3 to 8) (size 9 to 14) (size 15 to 20)
#    0.000    3.000    0.000    2.400    0.000    3.200 
#    0.000    3.000    0.000   10.800    0.000    5.600 
#    0.000    0.000    0.000    0.000    0.000    1.600 
#
# Total GULP energy -222872.515437 kJ/mol
# GULP energy per Si atom -5571.812886 kJ/mol
# Density = 1.987853 g / cm^3
# Si number density = 19.923875 Si / 1000 Ang^3
#
#
#
# Elastic Constant Matrix: (Units=GPa)
#
#
# Indices 1 2 3 4 5 6 
#
# 1 103.9483 60.7937 34.6555 0.0000 0.0000 0.0000
# 2 60.7937 86.1900 34.1724 0.0000 0.0000 0.0000
# 3 34.6555 34.1724 91.9017 0.0000 0.0000 0.0000
# 4 0.0000 0.0000 0.0000 30.2760 0.0000 0.0000
# 5 0.0000 0.0000 0.0000 0.0000 -3.5437 0.0000
# 6 0.0000 0.0000 0.0000 0.0000 0.0000 32.5525
#
#
#
# Elastic Compliance Matrix: (Units=1/GPa)
#
#
# Indices 1 2 3 4 5 6 
#
# 1 0.016765 -0.010930 -0.002258 0.000000 0.000000 0.000000
# 2 -0.010930 0.020734 -0.003588 0.000000 0.000000 0.000000
# 3 -0.002258 -0.003588 0.013067 0.000000 0.000000 0.000000
# 4 0.000000 0.000000 0.000000 0.033029 0.000000 0.000000
# 5 0.000000 0.000000 0.000000 0.000000 -0.282192 0.000000
# 6 0.000000 0.000000 0.000000 0.000000 0.000000 0.030720
#
#
# Mechanical properties :
#
#
# Convention : Reuss Voigt Hill
#
# Bulk Modulus (GPa) = 58.77417 60.14259 59.45838
# Shear Modulus (GPa) = -38.86435 22.01819 -8.42308
#
# Velocity S-wave (km/s) = -4.42140 3.32794 -2.05835
# Velocity P-wave (km/s) = 1.87040 6.70959 4.92529
#
# Compressibility (1/GPa) = 0.01701428
#
# Stress axis : x y z
#
# Youngs Moduli (GPa) = 59.64665 48.22895 76.52972
#
# Poissons Ratio (x) = 0.52715 0.17279
# Poissons Ratio (y) = 0.65195 0.27460
# Poissons Ratio (z) = 0.13467 0.17305
#
# Static dielectric constant tensor:
#      x y z
#    x 1.715300 0.000000 0.000000 
#    y 0.000000 1.729290 0.000000 
#    z 0.000000 0.000000 1.718690 
# 
# From -- ./inp_files/29708.got.cif
#   From: 2010.05.17/outbox.cif.g08.bks.cpg/sg63_15_cif.got.tgz:29708.got - 2010.06.03 15:47:04.
