data_PCOD9472579
_publ_section_title
;
Structure prediction by ZEFSAII (Michael W. Deem and Ramdas Pophale) SiO2 
 PCOD9472579
Probable space group: C M C M
;
_chemical_formula_sum "Si O2"
_cell_formula_units_Z 96
_cell_length_a 7.685657
_cell_length_b 20.122180
_cell_length_c 31.208667
_cell_angle_alpha 90.000000
_cell_angle_beta 90.000000
_cell_angle_gamma 90.000000
_cell_volume 4826.488186
_symmetry_space_group_name_H-M "C M C M"
_symmetry_group_IT_number 63
_symmetry_cell_setting 'orthorhombic'
loop_
_space_group_symop_operation_xyz
x,y,z
-x,-y,1/2+z
x,-y,-z
-x,y,1/2-z
-x,-y,-z
x,y,1/2-z
-x,y,z
x,-y,1/2+z
1/2+x,1/2+y,z
1/2-x,1/2-y,1/2+z
1/2+x,1/2-y,-z
1/2-x,1/2+y,1/2-z
1/2-x,1/2-y,-z
1/2+x,1/2+y,1/2-z
1/2-x,1/2+y,z
1/2+x,1/2-y,1/2+z
loop_
_atom_site_type_symbol
_atom_site_label
_atom_site_fract_x
_atom_site_fract_y
_atom_site_fract_z
Si Si1 0.290262 0.702321 0.139627
Si Si2 0.208830 0.411409 0.798162
Si Si3 0.790628 0.490950 0.127251
Si Si4 0.209019 0.103745 0.064535
Si Si5 0.291824 0.323047 0.481757
Si Si6 0.202644 0.655980 0.884217
O O1 0.500000 0.705078 0.135825
O O2 0.247037 0.660635 0.181784
O O3 0.226172 0.658314 0.099188
O O4 0.221795 0.777258 0.136844
O O5 0.276174 0.419267 0.750000
O O6 0.275666 0.465104 0.832781
O O7 0.000000 0.418665 0.796744
O O8 0.752318 0.532223 0.084065
O O9 0.720924 0.416113 0.126399
O O10 0.000000 0.488207 0.130509
O O11 0.000000 0.108926 0.063611
O O12 0.270275 0.124029 0.017413
O O13 0.500000 0.328684 0.477080
O O14 0.250000 0.250000 0.500000
O O15 0.211639 0.333391 0.435268
O O16 0.000000 0.653341 0.871336
#
# Coordination Sequence:
#
# PCOD9472579 Si02
#       6
#    16  16  16  16  16  16
#     4   9  17  32  52  73 100 131 166 207 252 302
#     4   9  18  34  55  78 101 127 166 211 254 308
#     4   9  19  34  53  75 102 137 170 207 258 308
#     4   9  18  33  50  70 100 136 173 213 249 292
#     4  11  21  33  51  75 103 139 180 219 257 297
#     4  10  20  35  51  74 107 137 171 215 258 302
#
# _framework density 19.890236999999999
#
# number of rings (size 3 to 8) (size 9 to 14) (size 15 to 20)
#    0.000    2.500    1.667    0.500    0.000    3.667 
#    0.000    4.167    0.000    3.000    0.000    0.000 
#    0.000    0.000    0.000    0.000    0.000    0.000 
#
# Total GULP energy -267791.291500 kJ/mol
# GULP energy per Si atom -5578.985240 kJ/mol
# Density = 1.984497 g / cm^3
# Si number density = 19.890237 Si / 1000 Ang^3
#
#
#
# Elastic Constant Matrix: (Units=GPa)
#
#
# Indices 1 2 3 4 5 6 
#
# 1 34.9506 -3.7745 -11.8768 0.0000 0.0000 0.0000
# 2 -3.7745 162.8571 46.5719 0.0000 0.0000 0.0000
# 3 -11.8768 46.5719 80.5037 0.0000 0.0000 0.0000
# 4 0.0000 0.0000 0.0000 16.0858 0.0000 0.0000
# 5 0.0000 0.0000 0.0000 0.0000 17.6622 0.0000
# 6 0.0000 0.0000 0.0000 0.0000 0.0000 16.8600
#
#
#
# Elastic Compliance Matrix: (Units=1/GPa)
#
#
# Indices 1 2 3 4 5 6 
#
# 1 0.030186 -0.000688 0.004851 0.000000 0.000000 0.000000
# 2 -0.000688 0.007373 -0.004367 0.000000 0.000000 0.000000
# 3 0.004851 -0.004367 0.015664 0.000000 0.000000 0.000000
# 4 0.000000 0.000000 0.000000 0.062167 0.000000 0.000000
# 5 0.000000 0.000000 0.000000 0.000000 0.056618 0.000000
# 6 0.000000 0.000000 0.000000 0.000000 0.000000 0.059312
#
#
# Mechanical properties :
#
#
# Convention : Reuss Voigt Hill
#
# Bulk Modulus (GPa) = 18.93355 37.79473 28.36414
# Shear Modulus (GPa) = 20.05357 26.61431 23.33394
#
# Velocity S-wave (km/s) = 3.17868 3.66192 3.42882
# Velocity P-wave (km/s) = 4.79705 6.07638 5.47422
#
# Compressibility (1/GPa) = 0.05281630
#
# Stress axis : x y z
#
# Youngs Moduli (GPa) = 33.12790 135.62619 63.84155
#
# Poissons Ratio (x) = 0.09327 -0.30971
# Poissons Ratio (y) = 0.02278 0.27879
# Poissons Ratio (z) = -0.16071 0.59227
#
# Static dielectric constant tensor:
#      x y z
#    x 1.701230 0.000000 0.000000 
#    y 0.000000 1.721650 0.000000 
#    z 0.000000 0.000000 1.684670 
# 
# From -- ./inp_files/66919.got.cif
#   From: 2010.05.17/outbox.cif.g08.bks.cpg/sg63_34_cif.got.tgz:66919.got - 2010.06.03 15:47:04.
