data_PCOD9472443
_publ_section_title
;
Structure prediction by ZEFSAII (Michael W. Deem and Ramdas Pophale) SiO2 
 PCOD9472443
Probable space group: C M C M
;
_chemical_formula_sum "Si O2"
_cell_formula_units_Z 104
_cell_length_a 21.364713
_cell_length_b 29.100017
_cell_length_c 8.792914
_cell_angle_alpha 90.000000
_cell_angle_beta 90.000000
_cell_angle_gamma 90.000000
_cell_volume 5466.673439
_symmetry_space_group_name_H-M "C M C M"
_symmetry_group_IT_number 63
_symmetry_cell_setting 'orthorhombic'
loop_
_space_group_symop_operation_xyz
x,y,z
-x,-y,1/2+z
x,-y,-z
-x,y,1/2-z
-x,-y,-z
x,y,1/2-z
-x,y,z
x,-y,1/2+z
1/2+x,1/2+y,z
1/2-x,1/2-y,1/2+z
1/2+x,1/2-y,-z
1/2-x,1/2+y,1/2-z
1/2-x,1/2-y,-z
1/2+x,1/2+y,1/2-z
1/2-x,1/2+y,z
1/2+x,1/2-y,1/2+z
loop_
_atom_site_type_symbol
_atom_site_label
_atom_site_fract_x
_atom_site_fract_y
_atom_site_fract_z
Si Si1 0.315108 0.698919 0.932859
Si Si2 0.128287 0.949680 0.930594
Si Si3 0.739403 0.950121 0.430429
Si Si4 0.068985 0.863803 0.432648
Si Si5 0.615104 0.109317 0.930260
Si Si6 0.319486 0.806526 0.568680
Si Si7 0.500000 0.948087 0.932144
O O1 0.307348 0.695046 0.750000
O O2 0.374636 0.669215 0.980619
O O3 0.327564 0.752519 0.968318
O O4 0.250503 0.682914 0.008640
O O5 0.128749 0.952419 0.750000
O O6 0.196687 0.934095 0.990897
O O7 0.079256 0.912836 0.990432
O O8 0.117432 0.000000 0.000000
O O9 0.750863 0.954178 0.250000
O O10 0.680322 0.917712 0.454557
O O11 0.725102 0.000000 0.500000
O O12 0.073319 0.869278 0.250000
O O13 0.000000 0.845316 0.468196
O O14 0.602275 0.110885 0.750000
O O15 0.629472 0.160060 0.993894
O O16 0.560316 0.080766 0.011426
O O17 0.321769 0.812122 0.750000
O O18 0.500000 0.951486 0.750000
O O19 0.500000 0.000000 0.000000
#
# Coordination Sequence:
#
# PCOD9472443 Si02
#       7
#    16  16  16  16  16  16   8
#     4   9  19  37  59  86 117 152 193 238 293 354
#     4  11  22  36  56  82 113 146 184 233 280 333
#     4  10  20  34  55  82 111 145 185 232 282 336
#     4  10  21  38  58  79 108 148 189 230 278 335
#     4  11  23  39  59  85 118 156 196 241 295 352
#     4  10  20  35  59  90 118 149 192 242 295 348
#     4  12  26  44  64  86 118 160 204 250 299 362
#
# _framework density 19.024366000000001
#
# number of rings (size 3 to 8) (size 9 to 14) (size 15 to 20)
#    0.000    1.692    0.000    5.769    0.000    9.231 
#    1.385    0.000    0.000    0.000    0.000    0.000 
#    0.000    0.000    0.000    0.000    0.000    0.000 
#
# Total GULP energy -290574.954243 kJ/mol
# GULP energy per Si atom -5587.979889 kJ/mol
# Density = 1.898107 g / cm^3
# Si number density = 19.024366 Si / 1000 Ang^3
#
#
#
# Elastic Constant Matrix: (Units=GPa)
#
#
# Indices 1 2 3 4 5 6 
#
# 1 99.3643 69.4720 49.8127 0.0000 0.0000 0.0000
# 2 69.4720 96.8932 45.1728 0.0000 0.0000 0.0000
# 3 49.8127 45.1728 66.2936 0.0000 0.0000 0.0000
# 4 0.0000 0.0000 0.0000 28.8312 0.0000 0.0000
# 5 0.0000 0.0000 0.0000 0.0000 28.0285 0.0000
# 6 0.0000 0.0000 0.0000 0.0000 0.0000 28.0651
#
#
#
# Elastic Compliance Matrix: (Units=1/GPa)
#
#
# Indices 1 2 3 4 5 6 
#
# 1 0.023342 -0.012544 -0.008991 0.000000 0.000000 0.000000
# 2 -0.012544 0.021867 -0.005475 0.000000 0.000000 0.000000
# 3 -0.008991 -0.005475 0.025571 0.000000 0.000000 0.000000
# 4 0.000000 0.000000 0.000000 0.034685 0.000000 0.000000
# 5 0.000000 0.000000 0.000000 0.000000 0.035678 0.000000
# 6 0.000000 0.000000 0.000000 0.000000 0.000000 0.035631
#
#
# Mechanical properties :
#
#
# Convention : Reuss Voigt Hill
#
# Bulk Modulus (GPa) = 59.66758 65.71845 62.69301
# Shear Modulus (GPa) = 21.15226 23.52453 22.33840
#
# Velocity S-wave (km/s) = 3.33806 3.52027 3.43038
# Velocity P-wave (km/s) = 6.80358 7.15139 6.97965
#
# Compressibility (1/GPa) = 0.01675952
#
# Stress axis : x y z
#
# Youngs Moduli (GPa) = 42.84134 45.73063 39.10675
#
# Poissons Ratio (x) = 0.57365 0.35162
# Poissons Ratio (y) = 0.53741 0.21410
# Poissons Ratio (z) = 0.38520 0.25036
#
# Static dielectric constant tensor:
#      x y z
#    x 1.652270 0.000000 0.000000 
#    y 0.000000 1.664260 0.000000 
#    z 0.000000 0.000000 1.641930 
# 
# From -- ./inp_files/8722.got.cif
#   From: 2010.05.17/outbox.cif.g08.bks.cpg/sg63_5_cif.got.tgz:8722.got - 2010.06.03 15:47:04.
