data_PCOD9472868
_publ_section_title
;
Structure prediction by ZEFSAII (Michael W. Deem and Ramdas Pophale) SiO2 
 PCOD9472868
Probable space group: C M C M
;
_chemical_formula_sum "Si O2"
_cell_formula_units_Z 80
_cell_length_a 8.010682
_cell_length_b 17.696044
_cell_length_c 29.847933
_cell_angle_alpha 90.000000
_cell_angle_beta 90.000000
_cell_angle_gamma 90.000000
_cell_volume 4231.164815
_symmetry_space_group_name_H-M "C M C M"
_symmetry_group_IT_number 63
_symmetry_cell_setting 'orthorhombic'
loop_
_space_group_symop_operation_xyz
x,y,z
-x,-y,1/2+z
x,-y,-z
-x,y,1/2-z
-x,-y,-z
x,y,1/2-z
-x,y,z
x,-y,1/2+z
1/2+x,1/2+y,z
1/2-x,1/2-y,1/2+z
1/2+x,1/2-y,-z
1/2-x,1/2+y,1/2-z
1/2-x,1/2-y,-z
1/2+x,1/2+y,1/2-z
1/2-x,1/2+y,z
1/2+x,1/2-y,1/2+z
loop_
_atom_site_type_symbol
_atom_site_label
_atom_site_fract_x
_atom_site_fract_y
_atom_site_fract_z
Si Si1 0.000000 0.716733 0.698473
Si Si2 0.000000 0.532225 0.698524
Si Si3 0.199555 0.210453 0.046285
Si Si4 0.301224 0.963640 0.953102
Si Si5 0.685523 0.466785 0.360763
Si Si6 0.812716 0.215536 0.638285
O O1 0.000000 0.624471 0.698630
O O2 0.165841 0.740826 0.671688
O O3 0.000000 0.741506 0.750000
O O4 0.165439 0.507903 0.671781
O O5 0.000000 0.507443 0.750000
O O6 0.263743 0.124906 0.045917
O O7 0.276648 0.252875 0.088960
O O8 0.000000 0.211633 0.050612
O O9 0.250000 0.250000 0.000000
O O10 0.500000 0.976702 0.948923
O O11 0.215193 0.000498 0.910121
O O12 0.244893 0.000000 0.000000
O O13 0.500000 0.487874 0.344791
O O14 0.693403 0.375676 0.363517
O O15 0.000000 0.237618 0.652562
#
# Coordination Sequence:
#
# PCOD9472868 Si02
#       6
#     8   8  16  16  16  16
#     4   9  18  34  58  87 116 150 193 240 294 341
#     4   9  18  34  57  85 117 148 188 242 288 337
#     4  12  24  38  57  84 117 155 194 237 283 343
#     4  11  23  38  58  84 116 155 192 236 283 341
#     4  10  20  35  58  86 116 153 192 236 286 338
#     4  10  20  36  58  86 119 153 192 240 286 341
#
# _framework density 18.907323000000002
#
# number of rings (size 3 to 8) (size 9 to 14) (size 15 to 20)
#    0.000    1.600    2.000    3.600    0.000    5.600 
#    0.000    4.000    0.000    1.200    0.000    0.000 
#    0.000    0.000    0.000    0.000    0.000    0.000 
#
# Total GULP energy -223476.744735 kJ/mol
# GULP energy per Si atom -5586.918618 kJ/mol
# Density = 1.886429 g / cm^3
# Si number density = 18.907323 Si / 1000 Ang^3
#
#
#
# Elastic Constant Matrix: (Units=GPa)
#
#
# Indices 1 2 3 4 5 6 
#
# 1 141.7712 22.1164 91.8263 0.0000 0.0000 0.0000
# 2 22.1164 12.8990 24.4441 0.0000 0.0000 0.0000
# 3 91.8263 24.4441 164.3996 0.0000 0.0000 0.0000
# 4 0.0000 0.0000 0.0000 21.4112 0.0000 0.0000
# 5 0.0000 0.0000 0.0000 0.0000 11.3080 0.0000
# 6 0.0000 0.0000 0.0000 0.0000 0.0000 20.9652
#
#
#
# Elastic Compliance Matrix: (Units=1/GPa)
#
#
# Indices 1 2 3 4 5 6 
#
# 1 0.012085 -0.011039 -0.005109 0.000000 0.000000 0.000000
# 2 -0.011039 0.118023 -0.011383 0.000000 0.000000 0.000000
# 3 -0.005109 -0.011383 0.010629 0.000000 0.000000 0.000000
# 4 0.000000 0.000000 0.000000 0.046704 0.000000 0.000000
# 5 0.000000 0.000000 0.000000 0.000000 0.088433 0.000000
# 6 0.000000 0.000000 0.000000 0.000000 0.000000 0.047698
#
#
# Mechanical properties :
#
#
# Convention : Reuss Voigt Hill
#
# Bulk Modulus (GPa) = 11.67191 66.20483 38.93837
# Shear Modulus (GPa) = 12.27925 22.78241 17.53083
#
# Velocity S-wave (km/s) = 2.55118 3.47501 3.04830
# Velocity P-wave (km/s) = 3.85547 7.15488 5.74704
#
# Compressibility (1/GPa) = 0.08567579
#
# Stress axis : x y z
#
# Youngs Moduli (GPa) = 82.75032 8.47292 94.08589
#
# Poissons Ratio (x) = 0.09353 0.48064
# Poissons Ratio (y) = 0.91348 1.07094
# Poissons Ratio (z) = 0.42273 0.09644
#
# Static dielectric constant tensor:
#      x y z
#    x 1.677610 0.000000 0.000000 
#    y 0.000000 1.631490 0.000000 
#    z 0.000000 0.000000 1.614480 
# 
# From -- ./inp_files/66675.got.cif
#   From: 2010.05.17/outbox.cif.g08.bks.cpg/sg63_34_cif.got.tgz:66675.got - 2010.06.03 15:47:04.
