data_PCOD9472332
_publ_section_title
;
Structure prediction by ZEFSAII (Michael W. Deem and Ramdas Pophale) SiO2 
 PCOD9472332
Probable space group: C M C M
;
_chemical_formula_sum "Si O2"
_cell_formula_units_Z 80
_cell_length_a 18.975944
_cell_length_b 19.925611
_cell_length_c 11.062001
_cell_angle_alpha 90.000000
_cell_angle_beta 90.000000
_cell_angle_gamma 90.000000
_cell_volume 4182.623093
_symmetry_space_group_name_H-M "C M C M"
_symmetry_group_IT_number 63
_symmetry_cell_setting 'orthorhombic'
loop_
_space_group_symop_operation_xyz
x,y,z
-x,-y,1/2+z
x,-y,-z
-x,y,1/2-z
-x,-y,-z
x,y,1/2-z
-x,y,z
x,-y,1/2+z
1/2+x,1/2+y,z
1/2-x,1/2-y,1/2+z
1/2+x,1/2-y,-z
1/2-x,1/2+y,1/2-z
1/2-x,1/2-y,-z
1/2+x,1/2+y,1/2-z
1/2-x,1/2+y,z
1/2+x,1/2-y,1/2+z
loop_
_atom_site_type_symbol
_atom_site_label
_atom_site_fract_x
_atom_site_fract_y
_atom_site_fract_z
Si Si1 0.814166 0.929567 0.035452
Si Si2 0.084503 0.094102 0.750000
Si Si3 0.084804 0.253796 0.750000
Si Si4 0.273628 0.800433 0.389720
Si Si5 0.424078 0.638220 0.388095
Si Si6 0.080404 0.715187 0.510381
O O1 0.876942 0.936777 0.133812
O O2 0.763977 0.871294 0.084697
O O3 0.855922 0.903544 0.918549
O O4 0.780048 0.000000 0.000000
O O5 0.101582 0.174413 0.750000
O O6 0.000000 0.086024 0.750000
O O7 0.105768 0.291155 0.627866
O O8 0.000000 0.254806 0.750000
O O9 0.258374 0.778208 0.250000
O O10 0.250000 0.750000 0.500000
O O11 0.357775 0.809553 0.403781
O O12 0.422388 0.660895 0.250000
O O13 0.500000 0.603536 0.408170
O O14 0.423082 0.704416 0.469691
O O15 0.000000 0.690262 0.527821
#
# Coordination Sequence:
#
# PCOD9472332 Si02
#       6
#    16   8   8  16  16  16
#     4  12  26  41  56  84 127 171 212 255 311 378
#     4  11  20  38  61  80 117 171 217 252 298 359
#     4   9  16  32  59  90 124 159 195 252 315 373
#     4  12  25  42  66  94 128 169 214 264 324 383
#     4  10  20  34  53  82 118 157 203 254 303 360
#     4  10  20  36  62  94 124 155 204 262 319 376
#
# _framework density 19.126753999999998
#
# number of rings (size 3 to 8) (size 9 to 14) (size 15 to 20)
#    0.000    1.200    5.000    1.200    2.800    2.800 
#    0.000    0.000    0.000    0.600    0.000    0.000 
#    0.000    0.000    0.000    0.000    0.000    0.000 
#
# Total GULP energy -223087.643244 kJ/mol
# GULP energy per Si atom -5577.191081 kJ/mol
# Density = 1.908322 g / cm^3
# Si number density = 19.126754 Si / 1000 Ang^3
#
#
#
# Elastic Constant Matrix: (Units=GPa)
#
#
# Indices 1 2 3 4 5 6 
#
# 1 104.3253 31.3380 32.2066 0.0000 0.0000 0.0000
# 2 31.3380 57.6206 19.4789 0.0000 0.0000 0.0000
# 3 32.2066 19.4789 112.6812 0.0000 0.0000 0.0000
# 4 0.0000 0.0000 0.0000 6.4771 0.0000 0.0000
# 5 0.0000 0.0000 0.0000 0.0000 27.8061 0.0000
# 6 0.0000 0.0000 0.0000 0.0000 0.0000 14.7631
#
#
#
# Elastic Compliance Matrix: (Units=1/GPa)
#
#
# Indices 1 2 3 4 5 6 
#
# 1 0.012066 -0.005731 -0.002458 0.000000 0.000000 0.000000
# 2 -0.005731 0.021154 -0.002019 0.000000 0.000000 0.000000
# 3 -0.002458 -0.002019 0.009926 0.000000 0.000000 0.000000
# 4 0.000000 0.000000 0.000000 0.154391 0.000000 0.000000
# 5 0.000000 0.000000 0.000000 0.000000 0.035963 0.000000
# 6 0.000000 0.000000 0.000000 0.000000 0.000000 0.067736
#
#
# Mechanical properties :
#
#
# Convention : Reuss Voigt Hill
#
# Bulk Modulus (GPa) = 43.99401 48.96377 46.47889
# Shear Modulus (GPa) = 15.18697 22.58284 18.88490
#
# Velocity S-wave (km/s) = 2.82089 3.43985 3.14563
# Velocity P-wave (km/s) = 5.80182 6.43677 6.12752
#
# Compressibility (1/GPa) = 0.02273036
#
# Stress axis : x y z
#
# Youngs Moduli (GPa) = 82.87899 47.27148 100.74453
#
# Poissons Ratio (x) = 0.27093 0.24762
# Poissons Ratio (y) = 0.47500 0.20338
# Poissons Ratio (z) = 0.20371 0.09543
#
# Static dielectric constant tensor:
#      x y z
#    x 1.705860 0.000000 0.000000 
#    y 0.000000 1.653540 0.000000 
#    z 0.000000 0.000000 1.773920 
# 
# From -- ./inp_files/21067.got.cif
#   From: 2010.05.17/outbox.cif.g08.bks.cpg/sg63_11_cif.got.tgz:21067.got - 2010.06.03 15:47:04.
