data_PCOD9472664
_publ_section_title
;
Structure prediction by ZEFSAII (Michael W. Deem and Ramdas Pophale) SiO2 
 PCOD9472664
Probable space group: C M C M
;
_chemical_formula_sum "Si O2"
_cell_formula_units_Z 72
_cell_length_a 30.837601
_cell_length_b 13.702081
_cell_length_c 7.499430
_cell_angle_alpha 90.000000
_cell_angle_beta 90.000000
_cell_angle_gamma 90.000000
_cell_volume 3168.803953
_symmetry_space_group_name_H-M "C M C M"
_symmetry_group_IT_number 63
_symmetry_cell_setting 'orthorhombic'
loop_
_space_group_symop_operation_xyz
x,y,z
-x,-y,1/2+z
x,-y,-z
-x,y,1/2-z
-x,-y,-z
x,y,1/2-z
-x,y,z
x,-y,1/2+z
1/2+x,1/2+y,z
1/2-x,1/2-y,1/2+z
1/2+x,1/2-y,-z
1/2-x,1/2+y,1/2-z
1/2-x,1/2-y,-z
1/2+x,1/2+y,1/2-z
1/2-x,1/2+y,z
1/2+x,1/2-y,1/2+z
loop_
_atom_site_type_symbol
_atom_site_label
_atom_site_fract_x
_atom_site_fract_y
_atom_site_fract_z
Si Si1 0.000000 0.114866 0.035928
Si Si2 0.632790 0.885845 0.961951
Si Si3 0.089472 0.200235 0.043592
Si Si4 0.227673 0.616782 0.463362
Si Si5 0.321001 0.615581 0.463819
O O1 0.955444 0.161962 0.965389
O O2 0.000000 0.130769 0.250000
O O3 0.000000 0.000000 0.000000
O O4 0.633253 0.874187 0.750000
O O5 0.680402 0.852539 0.033851
O O6 0.595719 0.816249 0.036212
O O7 0.627243 0.000000 0.000000
O O8 0.089684 0.168099 0.250000
O O9 0.134303 0.159134 0.962862
O O10 0.228290 0.500000 0.500000
O O11 0.227293 0.629467 0.250000
O O12 0.274215 0.653869 0.533663
O O13 0.322198 0.500000 0.500000
O O14 0.320143 0.629805 0.250000
#
# Coordination Sequence:
#
# PCOD9472664 Si02
#       5
#     8  16  16  16  16
#     4  10  22  40  61  84 111 140 171 214 264 312
#     4  10  20  35  55  78 106 140 177 217 260 309
#     4  10  21  36  54  78 107 139 176 218 265 313
#     4   8  15  28  46  71 103 138 174 211 255 305
#     4   9  17  30  49  74 106 141 176 216 260 309
#
# _framework density 22.721508
#
# number of rings (size 3 to 8) (size 9 to 14) (size 15 to 20)
#    0.000    2.667    0.000    1.333    0.000    3.556 
#    0.000    0.556    0.000    0.000    0.000    0.000 
#    0.000    0.000    0.000    0.000    0.000    0.000 
#
# Total GULP energy -201006.934381 kJ/mol
# GULP energy per Si atom -5583.525955 kJ/mol
# Density = 2.266979 g / cm^3
# Si number density = 22.721508 Si / 1000 Ang^3
#
#
#
# Elastic Constant Matrix: (Units=GPa)
#
#
# Indices 1 2 3 4 5 6 
#
# 1 214.8497 89.9623 8.2578 0.0000 0.0000 0.0000
# 2 89.9623 100.9060 -11.3432 0.0000 0.0000 0.0000
# 3 8.2578 -11.3432 82.2576 0.0000 0.0000 0.0000
# 4 0.0000 0.0000 0.0000 25.7288 0.0000 0.0000
# 5 0.0000 0.0000 0.0000 0.0000 1.0638 0.0000
# 6 0.0000 0.0000 0.0000 0.0000 0.0000 47.4790
#
#
#
# Elastic Compliance Matrix: (Units=1/GPa)
#
#
# Indices 1 2 3 4 5 6 
#
# 1 0.007664 -0.007028 -0.001739 0.000000 0.000000 0.000000
# 2 -0.007028 0.016512 0.002983 0.000000 0.000000 0.000000
# 3 -0.001739 0.002983 0.012743 0.000000 0.000000 0.000000
# 4 0.000000 0.000000 0.000000 0.038867 0.000000 0.000000
# 5 0.000000 0.000000 0.000000 0.000000 0.940019 0.000000
# 6 0.000000 0.000000 0.000000 0.000000 0.000000 0.021062
#
#
# Mechanical properties :
#
#
# Convention : Reuss Voigt Hill
#
# Bulk Modulus (GPa) = 39.44845 63.52967 51.48906
# Shear Modulus (GPa) = 4.73088 35.59675 20.16382
#
# Velocity S-wave (km/s) = 1.44452 3.96239 2.98221
# Velocity P-wave (km/s) = 4.49239 6.99678 5.87948
#
# Compressibility (1/GPa) = 0.02534954
#
# Stress axis : x y z
#
# Youngs Moduli (GPa) = 130.47682 60.56330 78.47597
#
# Poissons Ratio (x) = 0.42566 0.13644
# Poissons Ratio (y) = 0.91705 -0.23405
# Poissons Ratio (z) = 0.22685 -0.18063
#
# Static dielectric constant tensor:
#      x y z
#    x 1.889840 0.000000 0.000000 
#    y 0.000000 1.804270 0.000000 
#    z 0.000000 0.000000 1.829560 
# 
# From -- ./inp_files/11728.got.cif
#   From: 2010.05.17/outbox.cif.g08.bks.cpg/sg63_6_cif.got.tgz:11728.got - 2010.06.03 15:47:04.
