data_PCOD9472798
_publ_section_title
;
Structure prediction by ZEFSAII (Michael W. Deem and Ramdas Pophale) SiO2 
 PCOD9472798
Probable space group: C M C M
;
_chemical_formula_sum "Si O2"
_cell_formula_units_Z 80
_cell_length_a 12.058024
_cell_length_b 20.584100
_cell_length_c 16.997686
_cell_angle_alpha 90.000000
_cell_angle_beta 90.000000
_cell_angle_gamma 90.000000
_cell_volume 4218.886378
_symmetry_space_group_name_H-M "C M C M"
_symmetry_group_IT_number 63
_symmetry_cell_setting 'orthorhombic'
loop_
_space_group_symop_operation_xyz
x,y,z
-x,-y,1/2+z
x,-y,-z
-x,y,1/2-z
-x,-y,-z
x,y,1/2-z
-x,y,z
x,-y,1/2+z
1/2+x,1/2+y,z
1/2-x,1/2-y,1/2+z
1/2+x,1/2-y,-z
1/2-x,1/2+y,1/2-z
1/2-x,1/2-y,-z
1/2+x,1/2+y,1/2-z
1/2-x,1/2+y,z
1/2+x,1/2-y,1/2+z
loop_
_atom_site_type_symbol
_atom_site_label
_atom_site_fract_x
_atom_site_fract_y
_atom_site_fract_z
Si Si1 0.628025 0.383445 0.155023
Si Si2 0.745254 0.752849 0.153527
Si Si3 0.372952 0.123900 0.344786
Si Si4 0.000000 0.731724 0.842712
Si Si5 0.718600 0.007283 0.592801
Si Si6 0.000000 0.575831 0.657617
O O1 0.633281 0.385011 0.250000
O O2 0.500000 0.374824 0.132138
O O3 0.701307 0.321463 0.129135
O O4 0.679476 0.450139 0.123808
O O5 0.742777 0.753880 0.250000
O O6 0.821185 0.692382 0.129379
O O7 0.618536 0.745411 0.124956
O O8 0.376626 0.124433 0.250000
O O9 0.500000 0.115456 0.373270
O O10 0.297416 0.064002 0.370939
O O11 0.000000 0.749386 0.750000
O O12 0.000000 0.653486 0.847111
O O13 0.608807 0.046726 0.618170
O O14 0.724317 0.000000 0.500000
O O15 0.000000 0.557421 0.750000
#
# Coordination Sequence:
#
# PCOD9472798 Si02
#       6
#    16  16  16   8  16   8
#     4  10  20  37  62  85 108 146 197 242 281 335
#     4   9  17  32  56  87 112 139 186 241 288 331
#     4  10  20  35  57  83 114 149 188 235 283 332
#     4   9  16  29  57  87 112 137 177 241 291 326
#     4  12  24  37  56  84 120 154 191 233 289 345
#     4  11  19  35  63  87 109 141 193 247 283 328
#
# _framework density 18.962350000000001
#
# number of rings (size 3 to 8) (size 9 to 14) (size 15 to 20)
#    0.000    1.800    3.000    2.700    0.000    2.800 
#    1.800    1.000    0.000    0.000    0.000    0.000 
#    0.000    0.000    0.000    0.000    0.000    0.000 
#
# Total GULP energy -223302.437330 kJ/mol
# GULP energy per Si atom -5582.560933 kJ/mol
# Density = 1.891919 g / cm^3
# Si number density = 18.962350 Si / 1000 Ang^3
#
#
#
# Elastic Constant Matrix: (Units=GPa)
#
#
# Indices 1 2 3 4 5 6 
#
# 1 111.2814 54.3124 17.1040 0.0000 0.0000 0.0000
# 2 54.3124 115.3909 15.6346 0.0000 0.0000 0.0000
# 3 17.1040 15.6346 8.9533 0.0000 0.0000 0.0000
# 4 0.0000 0.0000 0.0000 -11.2747 0.0000 0.0000
# 5 0.0000 0.0000 0.0000 0.0000 8.2366 0.0000
# 6 0.0000 0.0000 0.0000 0.0000 0.0000 37.6610
#
#
#
# Elastic Compliance Matrix: (Units=1/GPa)
#
#
# Indices 1 2 3 4 5 6 
#
# 1 0.013923 -0.003864 -0.019851 0.000000 0.000000 0.000000
# 2 -0.003864 0.012424 -0.014315 0.000000 0.000000 0.000000
# 3 -0.019851 -0.014315 0.174612 0.000000 0.000000 0.000000
# 4 0.000000 0.000000 0.000000 -0.088694 0.000000 0.000000
# 5 0.000000 0.000000 0.000000 0.000000 0.121409 0.000000
# 6 0.000000 0.000000 0.000000 0.000000 0.000000 0.026553
#
#
# Mechanical properties :
#
#
# Convention : Reuss Voigt Hill
#
# Bulk Modulus (GPa) = 8.00643 45.52529 26.76586
# Shear Modulus (GPa) = 13.23031 16.82956 15.02994
#
# Velocity S-wave (km/s) = 2.64429 2.98237 2.81841
# Velocity P-wave (km/s) = 3.68164 5.99331 4.97364
#
# Compressibility (1/GPa) = 0.12489955
#
# Stress axis : x y z
#
# Youngs Moduli (GPa) = 71.82321 80.48739 5.72698
#
# Poissons Ratio (x) = 0.31097 0.11369
# Poissons Ratio (y) = 0.27750 0.08198
# Poissons Ratio (z) = 1.42579 1.15218
#
# Static dielectric constant tensor:
#      x y z
#    x 1.663350 0.000000 0.000000 
#    y 0.000000 1.638380 0.000000 
#    z 0.000000 0.000000 1.635090 
# 
# From -- ./inp_files/42179.got.cif
#   From: 2010.05.17/outbox.cif.g08.bks.cpg/sg63_22_cif.got.tgz:42179.got - 2010.06.03 15:47:04.
