data_PCOD9472730
_publ_section_title
;
Structure prediction by ZEFSAII (Michael W. Deem and Ramdas Pophale) SiO2 
 PCOD9472730
Probable space group: C M C M
;
_chemical_formula_sum "Si O2"
_cell_formula_units_Z 80
_cell_length_a 16.524185
_cell_length_b 26.954496
_cell_length_c 9.121492
_cell_angle_alpha 90.000000
_cell_angle_beta 90.000000
_cell_angle_gamma 90.000000
_cell_volume 4062.722374
_symmetry_space_group_name_H-M "C M C M"
_symmetry_group_IT_number 63
_symmetry_cell_setting 'orthorhombic'
loop_
_space_group_symop_operation_xyz
x,y,z
-x,-y,1/2+z
x,-y,-z
-x,y,1/2-z
-x,-y,-z
x,y,1/2-z
-x,y,z
x,-y,1/2+z
1/2+x,1/2+y,z
1/2-x,1/2-y,1/2+z
1/2+x,1/2-y,-z
1/2-x,1/2+y,1/2-z
1/2-x,1/2-y,-z
1/2+x,1/2+y,1/2-z
1/2-x,1/2+y,z
1/2+x,1/2-y,1/2+z
loop_
_atom_site_type_symbol
_atom_site_label
_atom_site_fract_x
_atom_site_fract_y
_atom_site_fract_z
Si Si1 0.402531 0.849745 0.082328
Si Si2 0.096588 0.950875 0.574928
Si Si3 0.902754 0.841878 0.918035
Si Si4 0.098953 0.449578 0.580901
Si Si5 0.163188 0.252881 0.924456
O O1 0.372766 0.845763 0.250000
O O2 0.500000 0.852083 0.087856
O O3 0.374209 0.900398 0.005015
O O4 0.379039 0.801733 0.989488
O O5 0.104354 0.954853 0.750000
O O6 0.128402 0.896227 0.533274
O O7 0.000000 0.950229 0.540935
O O8 0.131550 0.000000 0.500000
O O9 0.874478 0.832186 0.750000
O O10 0.000000 0.845227 0.910959
O O11 0.880859 0.797113 0.023231
O O12 0.124247 0.500000 0.500000
O O13 0.125251 0.448742 0.750000
O O14 0.000000 0.449370 0.580990
O O15 0.167897 0.255695 0.750000
O O16 0.250000 0.250000 0.000000
#
# Coordination Sequence:
#
# PCOD9472730 Si02
#       5
#    16  16  16  16  16
#     4  10  20  35  56  81 109 140 174 215 263 314
#     4   8  14  25  44  72 105 137 167 203 248 296
#     4   9  18  34  55  79 108 140 173 212 259 308
#     4   9  16  27  46  75 109 141 174 213 257 305
#     4  12  25  39  55  75 102 137 177 220 267 317
#
# _framework density 19.691229
#
# number of rings (size 3 to 8) (size 9 to 14) (size 15 to 20)
#    0.000    2.400    0.000    4.800    0.000    7.200 
#    0.000    2.000    0.000    1.200    0.000    5.600 
#    0.000    0.000    0.000    0.000    0.000    0.000 
#
# Total GULP energy -223192.412754 kJ/mol
# GULP energy per Si atom -5579.810319 kJ/mol
# Density = 1.964641 g / cm^3
# Si number density = 19.691229 Si / 1000 Ang^3
#
#
#
# Elastic Constant Matrix: (Units=GPa)
#
#
# Indices 1 2 3 4 5 6 
#
# 1 7.6508 14.2133 12.3367 0.0000 0.0000 0.0000
# 2 14.2133 213.0197 109.1338 0.0000 0.0000 0.0000
# 3 12.3367 109.1338 163.6246 0.0000 0.0000 0.0000
# 4 0.0000 0.0000 0.0000 38.7552 0.0000 0.0000
# 5 0.0000 0.0000 0.0000 0.0000 17.7186 0.0000
# 6 0.0000 0.0000 0.0000 0.0000 0.0000 -23.1462
#
#
#
# Elastic Compliance Matrix: (Units=1/GPa)
#
#
# Indices 1 2 3 4 5 6 
#
# 1 0.154673 -0.006601 -0.007259 0.000000 0.000000 0.000000
# 2 -0.006601 0.007413 -0.004446 0.000000 0.000000 0.000000
# 3 -0.007259 -0.004446 0.009625 0.000000 0.000000 0.000000
# 4 0.000000 0.000000 0.000000 0.025803 0.000000 0.000000
# 5 0.000000 0.000000 0.000000 0.000000 0.056438 0.000000
# 6 0.000000 0.000000 0.000000 0.000000 0.000000 -0.043204
#
#
# Mechanical properties :
#
#
# Convention : Reuss Voigt Hill
#
# Bulk Modulus (GPa) = 7.40209 72.85140 40.12674
# Shear Modulus (GPa) = 17.10025 23.23960 20.16993
#
# Velocity S-wave (km/s) = 2.95009 3.43913 3.20396
# Velocity P-wave (km/s) = 3.92063 7.26962 5.84032
#
# Compressibility (1/GPa) = 0.13509706
#
# Stress axis : x y z
#
# Youngs Moduli (GPa) = 6.46525 134.90015 103.90110
#
# Poissons Ratio (x) = 0.89054 0.75419
# Poissons Ratio (y) = 0.04268 0.46200
# Poissons Ratio (z) = 0.04693 0.59983
#
# Static dielectric constant tensor:
#      x y z
#    x 1.730180 0.000000 0.000000 
#    y 0.000000 1.730670 0.000000 
#    z 0.000000 0.000000 1.666300 
# 
# From -- ./inp_files/6409.got.cif
#   From: 2010.05.17/outbox.cif.g08.bks.cpg/sg63_4_cif.got.tgz:6409.got - 2010.06.03 15:47:04.
