data_PCOD9472350
_publ_section_title
;
Structure prediction by ZEFSAII (Michael W. Deem and Ramdas Pophale) SiO2 
 PCOD9472350
Probable space group: C M C M
;
_chemical_formula_sum "Si O2"
_cell_formula_units_Z 88
_cell_length_a 17.225196
_cell_length_b 28.810679
_cell_length_c 9.227000
_cell_angle_alpha 90.000000
_cell_angle_beta 90.000000
_cell_angle_gamma 90.000000
_cell_volume 4579.079532
_symmetry_space_group_name_H-M "C M C M"
_symmetry_group_IT_number 63
_symmetry_cell_setting 'orthorhombic'
loop_
_space_group_symop_operation_xyz
x,y,z
-x,-y,1/2+z
x,-y,-z
-x,y,1/2-z
-x,-y,-z
x,y,1/2-z
-x,y,z
x,-y,1/2+z
1/2+x,1/2+y,z
1/2-x,1/2-y,1/2+z
1/2+x,1/2-y,-z
1/2-x,1/2+y,1/2-z
1/2-x,1/2-y,-z
1/2+x,1/2+y,1/2-z
1/2-x,1/2+y,z
1/2+x,1/2-y,1/2+z
loop_
_atom_site_type_symbol
_atom_site_label
_atom_site_fract_x
_atom_site_fract_y
_atom_site_fract_z
Si Si1 0.347125 0.110959 0.423948
Si Si2 0.094429 0.197148 0.416041
Si Si3 0.000000 0.549415 0.078448
Si Si4 0.408919 0.211079 0.423317
Si Si5 0.092484 0.908049 0.577995
Si Si6 0.727189 0.546783 0.922283
O O1 0.331416 0.108487 0.250000
O O2 0.424325 0.080529 0.453097
O O3 0.363717 0.164374 0.462893
O O4 0.279070 0.088440 0.515967
O O5 0.119639 0.202789 0.250000
O O6 0.120767 0.241144 0.507864
O O7 0.115215 0.145033 0.462602
O O8 0.000000 0.197667 0.417898
O O9 0.000000 0.540430 0.250000
O O10 0.000000 0.500000 0.000000
O O11 0.406760 0.215105 0.250000
O O12 0.500000 0.204995 0.464493
O O13 0.109845 0.914250 0.750000
O O14 0.140851 0.942781 0.480009
O O15 0.000000 0.912884 0.560737
O O16 0.730878 0.542690 0.750000
O O17 0.755842 0.500000 0.000000
#
# Coordination Sequence:
#
# PCOD9472350 Si02
#       6
#    16  16   8  16  16  16
#     4  10  20  37  57  80 114 152 192 236 282 331
#     4   8  15  29  52  83 116 147 180 223 275 330
#     4  10  20  34  54  78 106 144 192 240 283 330
#     4   9  16  29  52  82 115 152 190 229 276 327
#     4   9  19  39  65  89 114 146 184 228 282 340
#     4  12  26  42  60  83 112 147 187 233 288 341
#
# _framework density 19.217835000000001
#
# number of rings (size 3 to 8) (size 9 to 14) (size 15 to 20)
#    0.000    2.364    0.909    3.273    0.000    4.364 
#    0.000    2.727    0.000    0.000    0.000    0.000 
#    0.000    0.000    0.000    0.000    0.000    0.000 
#
# Total GULP energy -245573.974820 kJ/mol
# GULP energy per Si atom -5581.226700 kJ/mol
# Density = 1.917409 g / cm^3
# Si number density = 19.217835 Si / 1000 Ang^3
#
#
#
# Elastic Constant Matrix: (Units=GPa)
#
#
# Indices 1 2 3 4 5 6 
#
# 1 42.5955 10.9838 32.3068 0.0000 0.0000 0.0000
# 2 10.9838 61.2731 32.4068 0.0000 0.0000 0.0000
# 3 32.3068 32.4068 57.4823 0.0000 0.0000 0.0000
# 4 0.0000 0.0000 0.0000 36.1119 0.0000 0.0000
# 5 0.0000 0.0000 0.0000 0.0000 22.1059 0.0000
# 6 0.0000 0.0000 0.0000 0.0000 0.0000 -2.6231
#
#
#
# Elastic Compliance Matrix: (Units=1/GPa)
#
#
# Indices 1 2 3 4 5 6 
#
# 1 0.043062 0.007240 -0.028283 0.000000 0.000000 0.000000
# 2 0.007240 0.024471 -0.017865 0.000000 0.000000 0.000000
# 3 -0.028283 -0.017865 0.043365 0.000000 0.000000 0.000000
# 4 0.000000 0.000000 0.000000 0.027692 0.000000 0.000000
# 5 0.000000 0.000000 0.000000 0.000000 0.045237 0.000000
# 6 0.000000 0.000000 0.000000 0.000000 0.000000 -0.381227
#
#
# Mechanical properties :
#
#
# Convention : Reuss Voigt Hill
#
# Bulk Modulus (GPa) = 30.23000 34.74954 32.48977
# Shear Modulus (GPa) = -46.05905 16.82917 -14.61494
#
# Velocity S-wave (km/s) = -4.90090 2.96244 -2.76069
# Velocity P-wave (km/s) = 4.03247 5.46101 2.60401
#
# Compressibility (1/GPa) = 0.03307972
#
# Stress axis : x y z
#
# Youngs Moduli (GPa) = 23.22256 40.86418 23.06022
#
# Poissons Ratio (x) = -0.29584 0.65222
# Poissons Ratio (y) = -0.16812 0.41197
# Poissons Ratio (z) = 0.65681 0.73004
#
# Static dielectric constant tensor:
#      x y z
#    x 1.701030 0.000000 0.000000 
#    y 0.000000 1.671560 0.000000 
#    z 0.000000 0.000000 1.635860 
# 
# From -- ./inp_files/6892.got.cif
#   From: 2010.05.17/outbox.cif.g08.bks.cpg/sg63_4_cif.got.tgz:6892.got - 2010.06.03 15:47:04.
