data_PCOD9472998
_publ_section_title
;
Structure prediction by ZEFSAII (Michael W. Deem and Ramdas Pophale) SiO2 
 PCOD9472998
Probable space group: C M C M
;
_chemical_formula_sum "Si O2"
_cell_formula_units_Z 112
_cell_length_a 13.164041
_cell_length_b 14.359610
_cell_length_c 30.668583
_cell_angle_alpha 90.000000
_cell_angle_beta 90.000000
_cell_angle_gamma 90.000000
_cell_volume 5797.297419
_symmetry_space_group_name_H-M "C M C M"
_symmetry_group_IT_number 63
_symmetry_cell_setting 'orthorhombic'
loop_
_space_group_symop_operation_xyz
x,y,z
-x,-y,1/2+z
x,-y,-z
-x,y,1/2-z
-x,-y,-z
x,y,1/2-z
-x,y,z
x,-y,1/2+z
1/2+x,1/2+y,z
1/2-x,1/2-y,1/2+z
1/2+x,1/2-y,-z
1/2-x,1/2+y,1/2-z
1/2-x,1/2-y,-z
1/2+x,1/2+y,1/2-z
1/2-x,1/2+y,z
1/2+x,1/2-y,1/2+z
loop_
_atom_site_type_symbol
_atom_site_label
_atom_site_fract_x
_atom_site_fract_y
_atom_site_fract_z
Si Si1 0.615413 0.806455 0.198252
Si Si2 0.116825 0.136647 0.615248
Si Si3 0.673630 0.399149 0.484334
Si Si4 0.268499 0.181261 0.145171
Si Si5 0.309362 0.978809 0.143505
Si Si6 0.613861 0.306234 0.928519
Si Si7 0.613254 0.091841 0.555602
O O1 0.627228 0.816067 0.250000
O O2 0.500000 0.776675 0.188519
O O3 0.694158 0.731977 0.179096
O O4 0.635767 0.904484 0.174431
O O5 0.131802 0.127658 0.563024
O O6 0.152094 0.239853 0.629989
O O7 0.195915 0.063351 0.636291
O O8 0.000000 0.119369 0.626469
O O9 0.635812 0.500000 0.500000
O O10 0.642029 0.328101 0.521752
O O11 0.795439 0.406364 0.478646
O O12 0.198368 0.154537 0.103494
O O13 0.311852 0.083387 0.161043
O O14 0.360235 0.976266 0.095415
O O15 0.500000 0.340854 0.919566
O O16 0.615428 0.194946 0.922882
O O17 0.500000 0.076851 0.538373
#
# Coordination Sequence:
#
# PCOD9472998 Si02
#       7
#    16  16  16  16  16  16  16
#     4  10  21  40  66  93 121 150 186 235 289 351
#     4  10  22  39  55  80 116 155 198 242 292 342
#     4  11  22  36  52  77 114 153 201 255 296 342
#     4  11  22  38  62  88 117 154 193 243 287 350
#     4  10  21  38  61  86 119 150 191 238 292 349
#     4  11  20  34  58  79 109 157 200 242 291 342
#     4  10  20  36  56  78 111 153 196 247 296 342
#
# _framework density 19.319347
#
# number of rings (size 3 to 8) (size 9 to 14) (size 15 to 20)
#    0.000    1.571    4.286    3.429    0.000    5.429 
#    0.000    0.000    0.000    6.857    0.000    0.000 
#    0.000    0.000    0.000    0.000    0.000    0.000 
#
# Total GULP energy -312812.750695 kJ/mol
# GULP energy per Si atom -5585.941977 kJ/mol
# Density = 1.927538 g / cm^3
# Si number density = 19.319347 Si / 1000 Ang^3
#
#
#
# Elastic Constant Matrix: (Units=GPa)
#
#
# Indices 1 2 3 4 5 6 
#
# 1 83.6621 1.8103 6.6676 0.0000 0.0000 0.0000
# 2 1.8103 104.3194 11.2863 0.0000 0.0000 0.0000
# 3 6.6676 11.2863 49.8129 0.0000 0.0000 0.0000
# 4 0.0000 0.0000 0.0000 8.5076 0.0000 0.0000
# 5 0.0000 0.0000 0.0000 0.0000 10.4353 0.0000
# 6 0.0000 0.0000 0.0000 0.0000 0.0000 1.0083
#
#
#
# Elastic Compliance Matrix: (Units=1/GPa)
#
#
# Indices 1 2 3 4 5 6 
#
# 1 0.012082 -0.000036 -0.001609 0.000000 0.000000 0.000000
# 2 -0.000036 0.009827 -0.002222 0.000000 0.000000 0.000000
# 3 -0.001609 -0.002222 0.020794 0.000000 0.000000 0.000000
# 4 0.000000 0.000000 0.000000 0.117541 0.000000 0.000000
# 5 0.000000 0.000000 0.000000 0.000000 0.095829 0.000000
# 6 0.000000 0.000000 0.000000 0.000000 0.000000 0.991806
#
#
# Mechanical properties :
#
#
# Convention : Reuss Voigt Hill
#
# Bulk Modulus (GPa) = 28.59615 30.81367 29.70491
# Shear Modulus (GPa) = 3.94549 18.52557 11.23553
#
# Velocity S-wave (km/s) = 1.43062 3.09999 2.41419
# Velocity P-wave (km/s) = 4.19081 5.36633 4.81458
#
# Compressibility (1/GPa) = 0.03496974
#
# Stress axis : x y z
#
# Youngs Moduli (GPa) = 82.76875 101.76115 48.09096
#
# Poissons Ratio (x) = 0.00362 0.07739
# Poissons Ratio (y) = 0.00294 0.10685
# Poissons Ratio (z) = 0.13319 0.22609
#
# Static dielectric constant tensor:
#      x y z
#    x 1.700530 0.000000 0.000000 
#    y 0.000000 1.711580 0.000000 
#    z 0.000000 0.000000 1.663870 
# 
# From -- ./inp_files/73547.got.cif
#   From: 2010.05.17/outbox.cif.g08.bks.cpg/sg63_37_cif.got.tgz:73547.got - 2010.06.03 15:47:04.
