data_PCOD9472922
_publ_section_title
;
Structure prediction by ZEFSAII (Michael W. Deem and Ramdas Pophale) SiO2 
 PCOD9472922
Probable space group: C M C M
;
_chemical_formula_sum "Si O2"
_cell_formula_units_Z 80
_cell_length_a 15.138062
_cell_length_b 15.315757
_cell_length_c 17.920213
_cell_angle_alpha 90.000000
_cell_angle_beta 90.000000
_cell_angle_gamma 90.000000
_cell_volume 4154.817137
_symmetry_space_group_name_H-M "C M C M"
_symmetry_group_IT_number 63
_symmetry_cell_setting 'orthorhombic'
loop_
_space_group_symop_operation_xyz
x,y,z
-x,-y,1/2+z
x,-y,-z
-x,y,1/2-z
-x,-y,-z
x,y,1/2-z
-x,y,z
x,-y,1/2+z
1/2+x,1/2+y,z
1/2-x,1/2-y,1/2+z
1/2+x,1/2-y,-z
1/2-x,1/2+y,1/2-z
1/2-x,1/2-y,-z
1/2+x,1/2+y,1/2-z
1/2-x,1/2+y,z
1/2+x,1/2-y,1/2+z
loop_
_atom_site_type_symbol
_atom_site_label
_atom_site_fract_x
_atom_site_fract_y
_atom_site_fract_z
Si Si1 0.402153 0.073546 0.063912
Si Si2 0.598531 0.434812 0.069885
Si Si3 0.354841 0.744241 0.009442
Si Si4 0.897136 0.692448 0.834573
Si Si5 0.771553 0.477135 0.336966
O O1 0.500000 0.065524 0.098405
O O2 0.323724 0.054133 0.121101
O O3 0.393535 0.166807 0.024726
O O4 0.394632 0.000000 0.000000
O O5 0.500000 0.443278 0.102630
O O6 0.678144 0.456585 0.125277
O O7 0.605529 0.500000 0.000000
O O8 0.610572 0.338502 0.035692
O O9 0.378233 0.742405 0.097263
O O10 0.250000 0.750000 0.000000
O O11 0.882733 0.726359 0.750000
O O12 0.834095 0.608660 0.844965
O O13 0.000000 0.665670 0.839856
O O14 0.761533 0.495844 0.250000
#
# Coordination Sequence:
#
# PCOD9472922 Si02
#       5
#    16  16  16  16  16
#     4  11  21  36  61  94 126 159 203 255 317 381
#     4  11  24  43  64  88 120 165 221 267 306 365
#     4  12  21  38  64  92 129 167 210 256 313 373
#     4  10  20  35  59  92 126 158 195 245 308 374
#     4  11  22  39  61  88 124 163 202 255 320 381
#
# _framework density 19.254759
#
# number of rings (size 3 to 8) (size 9 to 14) (size 15 to 20)
#    0.000    1.000    4.000    4.200    0.000    1.600 
#    0.000    5.000    0.000    3.600    0.000    0.000 
#    0.000    0.000    0.000    0.000    0.000    0.000 
#
# Total GULP energy -223602.976603 kJ/mol
# GULP energy per Si atom -5590.074415 kJ/mol
# Density = 1.921093 g / cm^3
# Si number density = 19.254759 Si / 1000 Ang^3
#
#
#
# Elastic Constant Matrix: (Units=GPa)
#
#
# Indices 1 2 3 4 5 6 
#
# 1 172.3470 24.1301 73.4581 0.0000 0.0000 0.0000
# 2 24.1301 88.5317 31.7205 0.0000 0.0000 0.0000
# 3 73.4581 31.7205 125.6562 0.0000 0.0000 0.0000
# 4 0.0000 0.0000 0.0000 12.3774 0.0000 0.0000
# 5 0.0000 0.0000 0.0000 0.0000 28.0922 0.0000
# 6 0.0000 0.0000 0.0000 0.0000 0.0000 -6.3435
#
#
#
# Elastic Compliance Matrix: (Units=1/GPa)
#
#
# Indices 1 2 3 4 5 6 
#
# 1 0.007751 -0.000538 -0.004395 0.000000 0.000000 0.000000
# 2 -0.000538 0.012456 -0.002830 0.000000 0.000000 0.000000
# 3 -0.004395 -0.002830 0.011242 0.000000 0.000000 0.000000
# 4 0.000000 0.000000 0.000000 0.080792 0.000000 0.000000
# 5 0.000000 0.000000 0.000000 0.000000 0.035597 0.000000
# 6 0.000000 0.000000 0.000000 0.000000 0.000000 -0.157641
#
#
# Mechanical properties :
#
#
# Convention : Reuss Voigt Hill
#
# Bulk Modulus (GPa) = 62.80331 71.68360 67.24346
# Shear Modulus (GPa) = 453.23868 23.97363 238.60615
#
# Velocity S-wave (km/s) = 15.35908 3.53239 11.14404
# Velocity P-wave (km/s) = 18.63392 7.34486 14.16280
#
# Compressibility (1/GPa) = 0.01592273
#
# Stress axis : x y z
#
# Youngs Moduli (GPa) = 129.01617 80.28302 88.95073
#
# Poissons Ratio (x) = 0.04317 0.39098
# Poissons Ratio (y) = 0.06938 0.25173
# Poissons Ratio (z) = 0.56708 0.22720
#
# Static dielectric constant tensor:
#      x y z
#    x 1.696690 0.000000 0.000000 
#    y 0.000000 1.654330 0.000000 
#    z 0.000000 0.000000 1.655370 
# 
# From -- ./inp_files/43932.got.cif
#   From: 2010.05.17/outbox.cif.g08.bks.cpg/sg63_22_cif.got.tgz:43932.got - 2010.06.03 15:47:04.
