data_PCOD9472788
_publ_section_title
;
Structure prediction by ZEFSAII (Michael W. Deem and Ramdas Pophale) SiO2 
 PCOD9472788
Probable space group: C M C M
;
_chemical_formula_sum "Si O2"
_cell_formula_units_Z 80
_cell_length_a 11.564086
_cell_length_b 27.249382
_cell_length_c 13.553523
_cell_angle_alpha 90.000000
_cell_angle_beta 90.000000
_cell_angle_gamma 90.000000
_cell_volume 4270.907515
_symmetry_space_group_name_H-M "C M C M"
_symmetry_group_IT_number 63
_symmetry_cell_setting 'orthorhombic'
loop_
_space_group_symop_operation_xyz
x,y,z
-x,-y,1/2+z
x,-y,-z
-x,y,1/2-z
-x,-y,-z
x,y,1/2-z
-x,y,z
x,-y,1/2+z
1/2+x,1/2+y,z
1/2-x,1/2-y,1/2+z
1/2+x,1/2-y,-z
1/2-x,1/2+y,1/2-z
1/2-x,1/2-y,-z
1/2+x,1/2+y,1/2-z
1/2-x,1/2+y,z
1/2+x,1/2-y,1/2+z
loop_
_atom_site_type_symbol
_atom_site_label
_atom_site_fract_x
_atom_site_fract_y
_atom_site_fract_z
Si Si1 0.000000 0.162374 0.869523
Si Si2 0.500000 0.550773 0.630994
Si Si3 0.236416 0.217874 0.864841
Si Si4 0.137943 0.573471 0.453908
Si Si5 0.754461 0.521527 0.635264
Si Si6 0.363418 0.813788 0.553429
O O1 0.117625 0.190232 0.896650
O O2 0.000000 0.161365 0.750000
O O3 0.000000 0.106672 0.907062
O O4 0.500000 0.553887 0.750000
O O5 0.619772 0.524833 0.605844
O O6 0.259572 0.207696 0.750000
O O7 0.208765 0.275212 0.882024
O O8 0.334307 0.200174 0.940100
O O9 0.197363 0.532672 0.385617
O O10 0.177379 0.558718 0.564254
O O11 0.168376 0.629484 0.430328
O O12 0.000000 0.568269 0.446419
O O13 0.766483 0.534403 0.750000
O O14 0.500000 0.808004 0.573350
#
# Coordination Sequence:
#
# PCOD9472788 Si02
#       6
#     8   8  16  16  16  16
#     4   9  16  30  53  81 104 133 178 228 271 318
#     4   9  18  31  53  81 106 135 182 223 267 328
#     4  10  20  35  57  81 108 141 181 230 279 330
#     4  10  22  36  53  81 111 143 188 226 267 330
#     4  10  20  36  55  78 111 148 183 229 274 320
#     4  10  21  37  55  80 111 144 183 229 277 329
#
# _framework density 18.731382
#
# number of rings (size 3 to 8) (size 9 to 14) (size 15 to 20)
#    0.000    2.200    1.000    2.400    0.000    6.800 
#    0.000    5.000    0.000    0.000    0.000    0.000 
#    0.000    0.000    0.000    0.000    0.000    0.000 
#
# Total GULP energy -223202.007442 kJ/mol
# GULP energy per Si atom -5580.050186 kJ/mol
# Density = 1.868875 g / cm^3
# Si number density = 18.731382 Si / 1000 Ang^3
#
#
#
# Elastic Constant Matrix: (Units=GPa)
#
#
# Indices 1 2 3 4 5 6 
#
# 1 56.0591 44.2890 -11.8263 0.0000 0.0000 0.0000
# 2 44.2890 91.0413 -16.1705 0.0000 0.0000 0.0000
# 3 -11.8263 -16.1705 29.2302 0.0000 0.0000 0.0000
# 4 0.0000 0.0000 0.0000 8.2167 0.0000 0.0000
# 5 0.0000 0.0000 0.0000 0.0000 34.4495 0.0000
# 6 0.0000 0.0000 0.0000 0.0000 0.0000 16.5676
#
#
#
# Elastic Compliance Matrix: (Units=1/GPa)
#
#
# Indices 1 2 3 4 5 6 
#
# 1 0.029482 -0.013555 0.004429 0.000000 0.000000 0.000000
# 2 -0.013555 0.018414 0.004702 0.000000 0.000000 0.000000
# 3 0.004429 0.004702 0.038604 0.000000 0.000000 0.000000
# 4 0.000000 0.000000 0.000000 0.121704 0.000000 0.000000
# 5 0.000000 0.000000 0.000000 0.000000 0.029028 0.000000
# 6 0.000000 0.000000 0.000000 0.000000 0.000000 0.060359
#
#
# Mechanical properties :
#
#
# Convention : Reuss Voigt Hill
#
# Bulk Modulus (GPa) = 12.87802 23.21279 18.04541
# Shear Modulus (GPa) = 15.04562 22.51598 18.78080
#
# Velocity S-wave (km/s) = 2.83721 3.47081 3.16988
# Velocity P-wave (km/s) = 4.19798 5.33680 4.80127
#
# Compressibility (1/GPa) = 0.07765167
#
# Stress axis : x y z
#
# Youngs Moduli (GPa) = 33.91893 54.30781 25.90376
#
# Poissons Ratio (x) = 0.73617 -0.11473
# Poissons Ratio (y) = 0.45979 -0.12180
# Poissons Ratio (z) = -0.15023 -0.25536
#
# Static dielectric constant tensor:
#      x y z
#    x 1.636750 0.000000 0.000000 
#    y 0.000000 1.656940 0.000000 
#    z 0.000000 0.000000 1.650270 
# 
# From -- ./inp_files/30056.got.cif
#   From: 2010.05.17/outbox.cif.g08.bks.cpg/sg63_16_cif.got.tgz:30056.got - 2010.06.03 15:47:04.
