data_PCOD9472103
_publ_section_title
;
Structure prediction by ZEFSAII (Michael W. Deem and Ramdas Pophale) SiO2 
 PCOD9472103
Probable space group: C M C M
;
_chemical_formula_sum "Si O2"
_cell_formula_units_Z 80
_cell_length_a 8.746121
_cell_length_b 20.683434
_cell_length_c 23.814555
_cell_angle_alpha 90.000000
_cell_angle_beta 90.000000
_cell_angle_gamma 90.000000
_cell_volume 4308.048629
_symmetry_space_group_name_H-M "C M C M"
_symmetry_group_IT_number 63
_symmetry_cell_setting 'orthorhombic'
loop_
_space_group_symop_operation_xyz
x,y,z
-x,-y,1/2+z
x,-y,-z
-x,y,1/2-z
-x,-y,-z
x,y,1/2-z
-x,y,z
x,-y,1/2+z
1/2+x,1/2+y,z
1/2-x,1/2-y,1/2+z
1/2+x,1/2-y,-z
1/2-x,1/2+y,1/2-z
1/2-x,1/2-y,-z
1/2+x,1/2+y,1/2-z
1/2-x,1/2+y,z
1/2+x,1/2-y,1/2+z
loop_
_atom_site_type_symbol
_atom_site_label
_atom_site_fract_x
_atom_site_fract_y
_atom_site_fract_z
Si Si1 0.682180 0.367735 0.635961
Si Si2 0.683163 0.752313 0.937534
Si Si3 0.315808 0.494121 0.182822
Si Si4 0.827956 0.322117 0.750000
Si Si5 0.836727 0.705943 0.750000
Si Si6 0.173300 0.633988 0.632847
O O1 0.500000 0.364484 0.627594
O O2 0.760035 0.319033 0.591839
O O3 0.727614 0.442657 0.645830
O O4 0.733398 0.340419 0.695774
O O5 0.500000 0.751518 0.937536
O O6 0.744186 0.688497 0.904763
O O7 0.750000 0.750000 0.000000
O O8 0.264356 0.496331 0.250000
O O9 0.500000 0.492853 0.185765
O O10 0.257208 0.432935 0.147341
O O11 0.819616 0.245215 0.750000
O O12 0.000000 0.347363 0.750000
O O13 0.838533 0.665002 0.805727
O O14 0.000000 0.743775 0.750000
O O15 0.000000 0.623166 0.611332
#
# Coordination Sequence:
#
# PCOD9472103 Si02
#       6
#    16  16  16   8   8  16
#     4  11  22  40  62  89 127 167 204 253 310 367
#     4  12  26  45  67  91 118 159 212 265 311 366
#     4  10  21  37  59  91 131 170 203 243 303 372
#     4  12  22  31  54  91 125 161 203 253 306 369
#     4  10  20  33  54  85 125 163 197 245 308 367
#     4  11  22  38  61  91 127 165 202 251 306 365
#
# _framework density 18.569891999999999
#
# number of rings (size 3 to 8) (size 9 to 14) (size 15 to 20)
#    0.000    1.000    4.000    3.900    0.000    2.400 
#    0.000    1.000    0.000    6.000    0.000    0.000 
#    0.000    0.000    0.000    0.000    0.000    0.000 
#
# Total GULP energy -222845.667924 kJ/mol
# GULP energy per Si atom -5571.141698 kJ/mol
# Density = 1.852763 g / cm^3
# Si number density = 18.569892 Si / 1000 Ang^3
#
#
#
# Elastic Constant Matrix: (Units=GPa)
#
#
# Indices 1 2 3 4 5 6 
#
# 1 84.6650 66.5632 45.0981 0.0000 0.0000 0.0000
# 2 66.5632 161.4985 77.1703 0.0000 0.0000 0.0000
# 3 45.0981 77.1703 132.0714 0.0000 0.0000 0.0000
# 4 0.0000 0.0000 0.0000 -20.1725 0.0000 0.0000
# 5 0.0000 0.0000 0.0000 0.0000 37.0118 0.0000
# 6 0.0000 0.0000 0.0000 0.0000 0.0000 31.8629
#
#
#
# Elastic Compliance Matrix: (Units=1/GPa)
#
#
# Indices 1 2 3 4 5 6 
#
# 1 0.018059 -0.006238 -0.002521 0.000000 0.000000 0.000000
# 2 -0.006238 0.010745 -0.004148 0.000000 0.000000 0.000000
# 3 -0.002521 -0.004148 0.010857 0.000000 0.000000 0.000000
# 4 0.000000 0.000000 0.000000 -0.049572 0.000000 0.000000
# 5 0.000000 0.000000 0.000000 0.000000 0.027018 0.000000
# 6 0.000000 0.000000 0.000000 0.000000 0.000000 0.031385
#
#
# Mechanical properties :
#
#
# Convention : Reuss Voigt Hill
#
# Bulk Modulus (GPa) = 72.23059 83.98867 78.10963
# Shear Modulus (GPa) = 63.35298 22.36731 42.86014
#
# Velocity S-wave (km/s) = 5.84722 3.47435 4.80942
# Velocity P-wave (km/s) = 9.19607 7.83718 8.54369
#
# Compressibility (1/GPa) = 0.01384455
#
# Stress axis : x y z
#
# Youngs Moduli (GPa) = 55.37451 93.06224 92.10946
#
# Poissons Ratio (x) = 0.58055 0.23225
# Poissons Ratio (y) = 0.34544 0.38212
# Poissons Ratio (z) = 0.13962 0.38607
#
# Static dielectric constant tensor:
#      x y z
#    x 1.693440 0.000000 0.000000 
#    y 0.000000 1.738350 0.000000 
#    z 0.000000 0.000000 1.622440 
# 
# From -- ./inp_files/66717.got.cif
#   From: 2010.05.17/outbox.cif.g08.bks.cpg/sg63_34_cif.got.tgz:66717.got - 2010.06.03 15:47:04.
