data_PCOD9472308
_publ_section_title
;
Structure prediction by ZEFSAII (Michael W. Deem and Ramdas Pophale) SiO2 
 PCOD9472308
Probable space group: C M C M
;
_chemical_formula_sum "Si O2"
_cell_formula_units_Z 80
_cell_length_a 26.036497
_cell_length_b 10.533502
_cell_length_c 16.775877
_cell_angle_alpha 90.000000
_cell_angle_beta 90.000000
_cell_angle_gamma 90.000000
_cell_volume 4600.876421
_symmetry_space_group_name_H-M "C M C M"
_symmetry_group_IT_number 63
_symmetry_cell_setting 'orthorhombic'
loop_
_space_group_symop_operation_xyz
x,y,z
-x,-y,1/2+z
x,-y,-z
-x,y,1/2-z
-x,-y,-z
x,y,1/2-z
-x,y,z
x,-y,1/2+z
1/2+x,1/2+y,z
1/2-x,1/2-y,1/2+z
1/2+x,1/2-y,-z
1/2-x,1/2+y,1/2-z
1/2-x,1/2-y,-z
1/2+x,1/2+y,1/2-z
1/2-x,1/2+y,z
1/2+x,1/2-y,1/2+z
loop_
_atom_site_type_symbol
_atom_site_label
_atom_site_fract_x
_atom_site_fract_y
_atom_site_fract_z
Si Si1 0.126620 0.642042 0.495474
Si Si2 0.677133 0.744085 0.660117
Si Si3 0.059885 0.873937 0.554518
Si Si4 0.218303 0.751484 0.581567
Si Si5 0.149922 0.953114 0.658487
O O1 0.105860 0.500000 0.500000
O O2 0.153534 0.670403 0.410176
O O3 0.085196 0.751970 0.511902
O O4 0.171011 0.657557 0.563493
O O5 0.667286 0.790181 0.750000
O O6 0.738388 0.726371 0.647122
O O7 0.653197 0.604050 0.650511
O O8 0.094604 0.902605 0.631518
O O9 0.000000 0.854075 0.570986
O O10 0.065205 0.000000 0.500000
O O11 0.250000 0.750000 0.500000
O O12 0.191367 0.885139 0.601602
O O13 0.161045 0.919483 0.750000
#
# Coordination Sequence:
#
# PCOD9472308 Si02
#       5
#    16  16  16  16  16
#     4  10  21  36  55  83 112 147 187 232 279 335
#     4  10  20  34  53  78 115 152 186 228 279 332
#     4  10  20  38  61  81 107 144 191 239 284 338
#     4   9  20  31  52  76 110 150 189 218 267 328
#     4  10  20  35  55  83 112 144 191 242 282 329
#
# _framework density 17.387992000000001
#
# number of rings (size 3 to 8) (size 9 to 14) (size 15 to 20)
#    0.000    2.200    2.000    0.600    5.600    0.800 
#    0.000    4.000    0.000    0.600    0.000    0.000 
#    0.000    0.000    0.000    0.000    0.000    0.000 
#
# Total GULP energy -222877.081629 kJ/mol
# GULP energy per Si atom -5571.927041 kJ/mol
# Density = 1.734842 g / cm^3
# Si number density = 17.387992 Si / 1000 Ang^3
#
#
#
# Elastic Constant Matrix: (Units=GPa)
#
#
# Indices 1 2 3 4 5 6 
#
# 1 101.2024 38.2164 23.0508 0.0000 0.0000 0.0000
# 2 38.2164 96.1884 31.1775 0.0000 0.0000 0.0000
# 3 23.0508 31.1775 80.1830 0.0000 0.0000 0.0000
# 4 0.0000 0.0000 0.0000 22.7045 0.0000 0.0000
# 5 0.0000 0.0000 0.0000 0.0000 -0.9302 0.0000
# 6 0.0000 0.0000 0.0000 0.0000 0.0000 16.5091
#
#
#
# Elastic Compliance Matrix: (Units=1/GPa)
#
#
# Indices 1 2 3 4 5 6 
#
# 1 0.011849 -0.004123 -0.001803 0.000000 0.000000 0.000000
# 2 -0.004123 0.013330 -0.003998 0.000000 0.000000 0.000000
# 3 -0.001803 -0.003998 0.014544 0.000000 0.000000 0.000000
# 4 0.000000 0.000000 0.000000 0.044044 0.000000 0.000000
# 5 0.000000 0.000000 0.000000 0.000000 -1.075016 0.000000
# 6 0.000000 0.000000 0.000000 0.000000 0.000000 0.060573
#
#
# Mechanical properties :
#
#
# Convention : Reuss Voigt Hill
#
# Bulk Modulus (GPa) = 50.31407 51.38481 50.84944
# Shear Modulus (GPa) = -5.52973 19.99861 7.23444
#
# Velocity S-wave (km/s) = -1.78525 3.39505 2.04197
# Velocity P-wave (km/s) = 4.97488 6.70705 5.90483
#
# Compressibility (1/GPa) = 0.01987516
#
# Stress axis : x y z
#
# Youngs Moduli (GPa) = 84.39602 75.01712 68.75549
#
# Poissons Ratio (x) = 0.30931 0.12397
# Poissons Ratio (y) = 0.34799 0.27488
# Poissons Ratio (z) = 0.15217 0.29991
#
# Static dielectric constant tensor:
#      x y z
#    x 1.591990 0.000000 0.000000 
#    y 0.000000 1.587160 0.000000 
#    z 0.000000 0.000000 1.623880 
# 
# From -- ./inp_files/48732.got.cif
#   From: 2010.05.17/outbox.cif.g08.bks.cpg/sg63_25_cif.got.tgz:48732.got - 2010.06.03 15:47:04.
