data_PCOD9472478
_publ_section_title
;
Structure prediction by ZEFSAII (Michael W. Deem and Ramdas Pophale) SiO2 
 PCOD9472478
Probable space group: C M C M
;
_chemical_formula_sum "Si O2"
_cell_formula_units_Z 96
_cell_length_a 22.427445
_cell_length_b 8.777910
_cell_length_c 24.150725
_cell_angle_alpha 90.000000
_cell_angle_beta 90.000000
_cell_angle_gamma 90.000000
_cell_volume 4754.458892
_symmetry_space_group_name_H-M "C M C M"
_symmetry_group_IT_number 63
_symmetry_cell_setting 'orthorhombic'
loop_
_space_group_symop_operation_xyz
x,y,z
-x,-y,1/2+z
x,-y,-z
-x,y,1/2-z
-x,-y,-z
x,y,1/2-z
-x,y,z
x,-y,1/2+z
1/2+x,1/2+y,z
1/2-x,1/2-y,1/2+z
1/2+x,1/2-y,-z
1/2-x,1/2+y,1/2-z
1/2-x,1/2-y,-z
1/2+x,1/2+y,1/2-z
1/2-x,1/2+y,z
1/2+x,1/2-y,1/2+z
loop_
_atom_site_type_symbol
_atom_site_label
_atom_site_fract_x
_atom_site_fract_y
_atom_site_fract_z
Si Si1 0.300163 0.665934 0.188445
Si Si2 0.432617 0.317557 0.997858
Si Si3 0.430940 0.162085 0.380989
Si Si4 0.733082 0.617232 0.541139
Si Si5 0.679191 0.317601 0.157651
Si Si6 0.143618 0.366581 0.090658
O O1 0.318346 0.715005 0.250000
O O2 0.311612 0.486131 0.181848
O O3 0.230062 0.705598 0.181048
O O4 0.334433 0.757952 0.140488
O O5 0.500000 0.285129 0.976989
O O6 0.386848 0.233983 0.957111
O O7 0.426683 0.500000 0.000000
O O8 0.429081 0.246434 0.059242
O O9 0.500000 0.154140 0.363976
O O10 0.387245 0.252572 0.339383
O O11 0.401347 0.996725 0.389781
O O12 0.702923 0.500000 0.500000
O O13 0.750000 0.750000 0.500000
O O14 0.693980 0.665837 0.592454
O O15 0.795629 0.557712 0.566631
#
# Coordination Sequence:
#
# PCOD9472478 Si02
#       6
#    16  16  16  16  16  16
#     4  11  24  42  67  92 118 157 205 266 325 373
#     4  10  20  34  55  86 126 168 205 242 292 365
#     4  11  23  39  61  90 127 169 208 248 302 375
#     4  11  20  31  52  85 122 152 185 238 300 364
#     4  11  22  39  62  91 123 159 203 252 312 377
#     4  11  21  36  59  87 121 162 207 252 307 367
#
# _framework density 20.191573000000002
#
# number of rings (size 3 to 8) (size 9 to 14) (size 15 to 20)
#    0.000    1.167    0.000    9.500    0.000    2.667 
#    0.000    1.667    0.000    8.000    0.000    0.000 
#    0.000    0.000    0.000    0.000    0.000    0.000 
#
# Total GULP energy -268412.871026 kJ/mol
# GULP energy per Si atom -5591.934813 kJ/mol
# Density = 2.014562 g / cm^3
# Si number density = 20.191573 Si / 1000 Ang^3
#
#
#
# Elastic Constant Matrix: (Units=GPa)
#
#
# Indices 1 2 3 4 5 6 
#
# 1 167.5105 46.8092 10.8806 0.0000 0.0000 0.0000
# 2 46.8092 94.5747 6.6168 0.0000 0.0000 0.0000
# 3 10.8806 6.6168 48.4827 0.0000 0.0000 0.0000
# 4 0.0000 0.0000 0.0000 15.2323 0.0000 0.0000
# 5 0.0000 0.0000 0.0000 0.0000 1.7508 0.0000
# 6 0.0000 0.0000 0.0000 0.0000 0.0000 30.3103
#
#
#
# Elastic Compliance Matrix: (Units=1/GPa)
#
#
# Indices 1 2 3 4 5 6 
#
# 1 0.006986 -0.003380 -0.001107 0.000000 0.000000 0.000000
# 2 -0.003380 0.012311 -0.000922 0.000000 0.000000 0.000000
# 3 -0.001107 -0.000922 0.021000 0.000000 0.000000 0.000000
# 4 0.000000 0.000000 0.000000 0.065650 0.000000 0.000000
# 5 0.000000 0.000000 0.000000 0.000000 0.571152 0.000000
# 6 0.000000 0.000000 0.000000 0.000000 0.000000 0.032992
#
#
# Mechanical properties :
#
#
# Convention : Reuss Voigt Hill
#
# Bulk Modulus (GPa) = 33.92068 48.79789 41.35929
# Shear Modulus (GPa) = 6.84243 25.87612 16.35927
#
# Velocity S-wave (km/s) = 1.84285 3.58373 2.84949
# Velocity P-wave (km/s) = 4.62213 6.42994 5.59947
#
# Compressibility (1/GPa) = 0.02948054
#
# Stress axis : x y z
#
# Youngs Moduli (GPa) = 143.13792 81.22657 47.61901
#
# Poissons Ratio (x) = 0.27458 0.05269
# Poissons Ratio (y) = 0.48386 0.04388
# Poissons Ratio (z) = 0.15839 0.07486
#
# Static dielectric constant tensor:
#      x y z
#    x 1.751420 0.000000 0.000000 
#    y 0.000000 1.675140 0.000000 
#    z 0.000000 0.000000 1.663750 
# 
# From -- ./inp_files/64985.got.cif
#   From: 2010.05.17/outbox.cif.g08.bks.cpg/sg63_33_cif.got.tgz:64985.got - 2010.06.03 15:47:04.
