data_PCOD9472232
_publ_section_title
;
Structure prediction by ZEFSAII (Michael W. Deem and Ramdas Pophale) SiO2 
 PCOD9472232
Probable space group: C M C M
;
_chemical_formula_sum "Si O2"
_cell_formula_units_Z 96
_cell_length_a 12.701170
_cell_length_b 16.845398
_cell_length_c 24.449774
_cell_angle_alpha 90.000000
_cell_angle_beta 90.000000
_cell_angle_gamma 90.000000
_cell_volume 5231.182294
_symmetry_space_group_name_H-M "C M C M"
_symmetry_group_IT_number 63
_symmetry_cell_setting 'orthorhombic'
loop_
_space_group_symop_operation_xyz
x,y,z
-x,-y,1/2+z
x,-y,-z
-x,y,1/2-z
-x,-y,-z
x,y,1/2-z
-x,y,z
x,-y,1/2+z
1/2+x,1/2+y,z
1/2-x,1/2-y,1/2+z
1/2+x,1/2-y,-z
1/2-x,1/2+y,1/2-z
1/2-x,1/2-y,-z
1/2+x,1/2+y,1/2-z
1/2-x,1/2+y,z
1/2+x,1/2-y,1/2+z
loop_
_atom_site_type_symbol
_atom_site_label
_atom_site_fract_x
_atom_site_fract_y
_atom_site_fract_z
Si Si1 0.380030 0.692673 0.883354
Si Si2 0.814249 0.085774 0.981629
Si Si3 0.735372 0.145371 0.408454
Si Si4 0.621906 0.023232 0.912587
Si Si5 0.124644 0.082195 0.186963
Si Si6 0.754561 0.581074 0.812781
O O1 0.500000 0.703498 0.865894
O O2 0.374601 0.629866 0.933376
O O3 0.329710 0.774566 0.903433
O O4 0.308943 0.656156 0.835370
O O5 0.699246 0.065710 0.955816
O O6 0.800213 0.139050 0.035184
O O7 0.858708 0.000000 0.000000
O O8 0.813542 0.134438 0.357151
O O9 0.659117 0.068291 0.409333
O O10 0.500000 0.030336 0.926222
O O11 0.650462 0.061966 0.854043
O O12 0.140415 0.108391 0.250000
O O13 0.000000 0.079564 0.176091
O O14 0.174891 0.994154 0.182531
O O15 0.786384 0.589124 0.750000
#
# Coordination Sequence:
#
# PCOD9472232 Si02
#       6
#    16  16  16  16  16  16
#     4  11  22  34  51  77 108 138 169 212 265 312
#     4   9  20  36  53  75 103 137 178 216 249 299
#     4  10  20  34  52  79 110 136 167 211 262 314
#     4   9  18  34  56  78 101 135 176 215 255 301
#     4   9  18  35  58  78  99 134 176 214 252 299
#     4   9  19  35  53  75 103 134 174 216 252 304
#
# _framework density 18.351492
#
# number of rings (size 3 to 8) (size 9 to 14) (size 15 to 20)
#    0.000    2.500    0.000    2.500    0.000    6.667 
#    0.000    3.333    0.000    3.000    0.000    0.000 
#    0.000    0.000    0.000    0.000    0.000    0.000 
#
# Total GULP energy -267842.548666 kJ/mol
# GULP energy per Si atom -5580.053097 kJ/mol
# Density = 1.830972 g / cm^3
# Si number density = 18.351492 Si / 1000 Ang^3
#
#
#
# Elastic Constant Matrix: (Units=GPa)
#
#
# Indices 1 2 3 4 5 6 
#
# 1 60.5065 2.7308 3.8549 0.0000 0.0000 0.0000
# 2 2.7308 39.1344 15.6514 0.0000 0.0000 0.0000
# 3 3.8549 15.6514 86.1657 0.0000 0.0000 0.0000
# 4 0.0000 0.0000 0.0000 23.1157 0.0000 0.0000
# 5 0.0000 0.0000 0.0000 0.0000 8.3508 0.0000
# 6 0.0000 0.0000 0.0000 0.0000 0.0000 4.4899
#
#
#
# Elastic Compliance Matrix: (Units=1/GPa)
#
#
# Indices 1 2 3 4 5 6 
#
# 1 0.016606 -0.000929 -0.000574 0.000000 0.000000 0.000000
# 2 -0.000929 0.027607 -0.004973 0.000000 0.000000 0.000000
# 3 -0.000574 -0.004973 0.012535 0.000000 0.000000 0.000000
# 4 0.000000 0.000000 0.000000 0.043261 0.000000 0.000000
# 5 0.000000 0.000000 0.000000 0.000000 0.119749 0.000000
# 6 0.000000 0.000000 0.000000 0.000000 0.000000 0.222720
#
#
# Mechanical properties :
#
#
# Convention : Reuss Voigt Hill
#
# Bulk Modulus (GPa) = 22.83398 25.58675 24.21036
# Shear Modulus (GPa) = 10.63766 18.09591 14.36679
#
# Velocity S-wave (km/s) = 2.41023 3.14359 2.80101
# Velocity P-wave (km/s) = 4.49613 5.21048 4.86643
#
# Compressibility (1/GPa) = 0.04379439
#
# Stress axis : x y z
#
# Youngs Moduli (GPa) = 60.22047 36.22307 79.77952
#
# Poissons Ratio (x) = 0.03366 0.04581
# Poissons Ratio (y) = 0.05595 0.39674
# Poissons Ratio (z) = 0.03458 0.18014
#
# Static dielectric constant tensor:
#      x y z
#    x 1.591340 0.000000 0.000000 
#    y 0.000000 1.622750 0.000000 
#    z 0.000000 0.000000 1.641510 
# 
# From -- ./inp_files/61465.got.cif
#   From: 2010.05.17/outbox.cif.g08.bks.cpg/sg63_31_cif.got.tgz:61465.got - 2010.06.03 15:47:04.
