data_PCOD9472795
_publ_section_title
;
Structure prediction by ZEFSAII (Michael W. Deem and Ramdas Pophale) SiO2 
 PCOD9472795
Probable space group: C M C M
;
_chemical_formula_sum "Si O2"
_cell_formula_units_Z 80
_cell_length_a 7.492116
_cell_length_b 16.239140
_cell_length_c 29.618891
_cell_angle_alpha 90.000000
_cell_angle_beta 90.000000
_cell_angle_gamma 90.000000
_cell_volume 3603.597794
_symmetry_space_group_name_H-M "C M C M"
_symmetry_group_IT_number 63
_symmetry_cell_setting 'orthorhombic'
loop_
_space_group_symop_operation_xyz
x,y,z
-x,-y,1/2+z
x,-y,-z
-x,y,1/2-z
-x,-y,-z
x,y,1/2-z
-x,y,z
x,-y,1/2+z
1/2+x,1/2+y,z
1/2-x,1/2-y,1/2+z
1/2+x,1/2-y,-z
1/2-x,1/2+y,1/2-z
1/2-x,1/2-y,-z
1/2+x,1/2+y,1/2-z
1/2-x,1/2+y,z
1/2+x,1/2-y,1/2+z
loop_
_atom_site_type_symbol
_atom_site_label
_atom_site_fract_x
_atom_site_fract_y
_atom_site_fract_z
Si Si1 0.215471 0.505040 0.551579
Si Si2 0.712417 0.332405 0.392024
Si Si3 0.793577 0.344052 0.897641
Si Si4 0.284469 0.600101 0.200056
Si Si5 0.282634 0.592773 0.799598
O O1 0.276894 0.500000 0.500000
O O2 0.263376 0.590545 0.575247
O O3 0.284192 0.426445 0.580015
O O4 0.000000 0.502754 0.551582
O O5 0.500000 0.320708 0.386522
O O6 0.785637 0.245101 0.409109
O O7 0.783596 0.357263 0.342604
O O8 0.785798 0.353051 0.843461
O O9 0.000000 0.343400 0.912200
O O10 0.227080 0.628852 0.250000
O O11 0.500000 0.603646 0.198702
O O12 0.233205 0.503611 0.195761
O O13 0.224698 0.621908 0.750000
O O14 0.500000 0.594402 0.800014
#
# Coordination Sequence:
#
# PCOD9472795 Si02
#       5
#    16  16  16  16  16
#     4  10  22  40  57  75 107 145 176 219 282 335
#     4  10  20  35  57  83 107 136 180 226 264 313
#     4  10  21  35  54  82 111 138 177 226 270 315
#     4   9  17  31  53  79 108 144 181 213 254 315
#     4   8  14  27  49  75 103 136 170 205 251 307
#
# _framework density 22.200035
#
# number of rings (size 3 to 8) (size 9 to 14) (size 15 to 20)
#    0.000    2.600    2.000    1.200    0.000    3.200 
#    0.000    2.000    0.000    0.600    0.000    0.000 
#    0.000    0.000    0.000    0.000    0.000    0.000 
#
# Total GULP energy -223337.991025 kJ/mol
# GULP energy per Si atom -5583.449776 kJ/mol
# Density = 2.214951 g / cm^3
# Si number density = 22.200035 Si / 1000 Ang^3
#
#
#
# Elastic Constant Matrix: (Units=GPa)
#
#
# Indices 1 2 3 4 5 6 
#
# 1 59.6131 1.6419 -10.2339 0.0000 0.0000 0.0000
# 2 1.6419 169.6982 70.1923 0.0000 0.0000 0.0000
# 3 -10.2339 70.1923 101.4795 0.0000 0.0000 0.0000
# 4 0.0000 0.0000 0.0000 -3.7294 0.0000 0.0000
# 5 0.0000 0.0000 0.0000 0.0000 8.3398 0.0000
# 6 0.0000 0.0000 0.0000 0.0000 0.0000 -3.3163
#
#
#
# Elastic Compliance Matrix: (Units=1/GPa)
#
#
# Indices 1 2 3 4 5 6 
#
# 1 0.017255 -0.001242 0.002599 0.000000 0.000000 0.000000
# 2 -0.001242 0.008344 -0.005897 0.000000 0.000000 0.000000
# 3 0.002599 -0.005897 0.014195 0.000000 0.000000 0.000000
# 4 0.000000 0.000000 0.000000 -0.268138 0.000000 0.000000
# 5 0.000000 0.000000 0.000000 0.000000 0.119907 0.000000
# 6 0.000000 0.000000 0.000000 0.000000 0.000000 -0.301536
#
#
# Mechanical properties :
#
#
# Convention : Reuss Voigt Hill
#
# Bulk Modulus (GPa) = 32.55715 50.44349 41.50032
# Shear Modulus (GPa) = -12.79899 18.20483 2.70292
#
# Velocity S-wave (km/s) = -2.40371 2.86673 1.10461
# Velocity P-wave (km/s) = 2.64451 5.80768 4.51235
#
# Compressibility (1/GPa) = 0.03071522
#
# Stress axis : x y z
#
# Youngs Moduli (GPa) = 57.95331 119.84879 70.44756
#
# Poissons Ratio (x) = 0.14886 -0.18311
# Poissons Ratio (y) = 0.07198 0.41540
# Poissons Ratio (z) = -0.15064 0.70670
#
# Static dielectric constant tensor:
#      x y z
#    x 1.835810 0.000000 0.000000 
#    y 0.000000 1.831920 0.000000 
#    z 0.000000 0.000000 1.788310 
# 
# From -- ./inp_files/61141.got.cif
#   From: 2010.05.17/outbox.cif.g08.bks.cpg/sg63_31_cif.got.tgz:61141.got - 2010.06.03 15:47:04.
