data_PCOD9472735
_publ_section_title
;
Structure prediction by ZEFSAII (Michael W. Deem and Ramdas Pophale) SiO2 
 PCOD9472735
Probable space group: C M C M
;
_chemical_formula_sum "Si O2"
_cell_formula_units_Z 96
_cell_length_a 17.597956
_cell_length_b 14.848452
_cell_length_c 19.056477
_cell_angle_alpha 90.000000
_cell_angle_beta 90.000000
_cell_angle_gamma 90.000000
_cell_volume 4979.503270
_symmetry_space_group_name_H-M "C M C M"
_symmetry_group_IT_number 63
_symmetry_cell_setting 'orthorhombic'
loop_
_space_group_symop_operation_xyz
x,y,z
-x,-y,1/2+z
x,-y,-z
-x,y,1/2-z
-x,-y,-z
x,y,1/2-z
-x,y,z
x,-y,1/2+z
1/2+x,1/2+y,z
1/2-x,1/2-y,1/2+z
1/2+x,1/2-y,-z
1/2-x,1/2+y,1/2-z
1/2-x,1/2-y,-z
1/2+x,1/2+y,1/2-z
1/2-x,1/2+y,z
1/2+x,1/2-y,1/2+z
loop_
_atom_site_type_symbol
_atom_site_label
_atom_site_fract_x
_atom_site_fract_y
_atom_site_fract_z
Si Si1 0.213572 0.986200 0.080428
Si Si2 0.854802 0.495297 0.332947
Si Si3 0.909822 0.134584 0.073915
Si Si4 0.683043 0.288666 0.051882
Si Si5 0.408518 0.197914 0.830816
Si Si6 0.413543 0.814613 0.833000
O O1 0.209076 0.879522 0.091059
O O2 0.276264 0.023725 0.132167
O O3 0.135946 0.042456 0.087016
O O4 0.239148 0.000000 0.000000
O O5 0.845318 0.484864 0.250000
O O6 0.880370 0.397620 0.360754
O O7 0.912097 0.577412 0.343240
O O8 0.885557 0.212852 0.127941
O O9 0.000000 0.121119 0.077156
O O10 0.883052 0.174641 0.999618
O O11 0.645922 0.225104 0.110744
O O12 0.750000 0.250000 0.000000
O O13 0.384323 0.205801 0.750000
O O14 0.500000 0.194408 0.832304
O O15 0.394383 0.797745 0.750000
O O16 0.500000 0.781356 0.844798
#
# Coordination Sequence:
#
# PCOD9472735 Si02
#       6
#    16  16  16  16  16  16
#     4  10  22  37  55  78 108 143 183 230 279 331
#     4  10  20  35  56  81 110 144 182 225 277 335
#     4  10  21  37  57  80 107 145 188 230 281 337
#     4  11  22  38  59  82 112 148 189 234 281 337
#     4   9  18  34  56  81 109 142 182 227 273 328
#     4  10  21  37  58  85 116 149 185 230 287 346
#
# _framework density 19.279032000000001
#
# number of rings (size 3 to 8) (size 9 to 14) (size 15 to 20)
#    0.000    2.000    0.000    4.000    0.000    7.000 
#    0.000    4.167    0.000    7.000    0.000    0.000 
#    0.000    0.000    0.000    0.000    0.000    0.000 
#
# Total GULP energy -267567.202049 kJ/mol
# GULP energy per Si atom -5574.316709 kJ/mol
# Density = 1.923515 g / cm^3
# Si number density = 19.279032 Si / 1000 Ang^3
#
#
#
# Elastic Constant Matrix: (Units=GPa)
#
#
# Indices 1 2 3 4 5 6 
#
# 1 82.3479 50.5778 42.7059 0.0000 0.0000 0.0000
# 2 50.5778 101.6637 38.6070 0.0000 0.0000 0.0000
# 3 42.7059 38.6070 40.9993 0.0000 0.0000 0.0000
# 4 0.0000 0.0000 0.0000 28.7264 0.0000 0.0000
# 5 0.0000 0.0000 0.0000 0.0000 27.4640 0.0000
# 6 0.0000 0.0000 0.0000 0.0000 0.0000 49.8437
#
#
#
# Elastic Compliance Matrix: (Units=1/GPa)
#
#
# Indices 1 2 3 4 5 6 
#
# 1 0.027609 -0.004381 -0.024633 0.000000 0.000000 0.000000
# 2 -0.004381 0.016007 -0.010509 0.000000 0.000000 0.000000
# 3 -0.024633 -0.010509 0.059945 0.000000 0.000000 0.000000
# 4 0.000000 0.000000 0.000000 0.034811 0.000000 0.000000
# 5 0.000000 0.000000 0.000000 0.000000 0.036411 0.000000
# 6 0.000000 0.000000 0.000000 0.000000 0.000000 0.020063
#
#
# Mechanical properties :
#
#
# Convention : Reuss Voigt Hill
#
# Bulk Modulus (GPa) = 40.79254 54.31025 47.55139
# Shear Modulus (GPa) = 17.72640 27.41483 22.57061
#
# Velocity S-wave (km/s) = 3.03556 3.77504 3.42531
# Velocity P-wave (km/s) = 5.78715 6.87263 6.35311
#
# Compressibility (1/GPa) = 0.02451429
#
# Stress axis : x y z
#
# Youngs Moduli (GPa) = 36.21973 62.47273 16.68191
#
# Poissons Ratio (x) = 0.27371 0.41092
# Poissons Ratio (y) = 0.15869 0.17532
# Poissons Ratio (z) = 0.89220 0.65655
#
# Static dielectric constant tensor:
#      x y z
#    x 1.683770 0.000000 0.000000 
#    y 0.000000 1.727530 0.000000 
#    z 0.000000 0.000000 1.672280 
# 
# From -- ./inp_files/54222.got.cif
#   From: 2010.05.17/outbox.cif.g08.bks.cpg/sg63_28_cif.got.tgz:54222.got - 2010.06.03 15:47:04.
