data_PCOD9472839
_publ_section_title
;
Structure prediction by ZEFSAII (Michael W. Deem and Ramdas Pophale) SiO2 
 PCOD9472839
Probable space group: C M C M
;
_chemical_formula_sum "Si O2"
_cell_formula_units_Z 88
_cell_length_a 7.707546
_cell_length_b 35.314571
_cell_length_c 13.275121
_cell_angle_alpha 90.000000
_cell_angle_beta 90.000000
_cell_angle_gamma 90.000000
_cell_volume 3613.337668
_symmetry_space_group_name_H-M "C M C M"
_symmetry_group_IT_number 63
_symmetry_cell_setting 'orthorhombic'
loop_
_space_group_symop_operation_xyz
x,y,z
-x,-y,1/2+z
x,-y,-z
-x,y,1/2-z
-x,-y,-z
x,y,1/2-z
-x,y,z
x,-y,1/2+z
1/2+x,1/2+y,z
1/2-x,1/2-y,1/2+z
1/2+x,1/2-y,-z
1/2-x,1/2+y,1/2-z
1/2-x,1/2-y,-z
1/2+x,1/2+y,1/2-z
1/2-x,1/2+y,z
1/2+x,1/2-y,1/2+z
loop_
_atom_site_type_symbol
_atom_site_label
_atom_site_fract_x
_atom_site_fract_y
_atom_site_fract_z
Si Si1 0.189052 0.147594 0.128092
Si Si2 0.204644 0.896763 0.363817
Si Si3 0.206527 0.956598 0.968057
Si Si4 0.793372 0.686718 0.865770
Si Si5 0.205669 0.730016 0.130773
Si Si6 0.000000 0.587776 0.109251
O O1 0.188698 0.148959 0.250000
O O2 0.210613 0.191077 0.093747
O O3 0.349270 0.121023 0.104176
O O4 0.000000 0.133197 0.095240
O O5 0.279295 0.898692 0.250000
O O6 0.268107 0.929116 0.439251
O O7 0.231252 0.854064 0.404352
O O8 0.000000 0.902962 0.355761
O O9 0.000000 0.951045 0.947031
O O10 0.343221 0.944210 0.883935
O O11 0.226572 0.000000 0.000000
O O12 0.724696 0.687229 0.750000
O O13 0.750733 0.728145 0.908713
O O14 0.000000 0.684438 0.864528
O O15 0.253491 0.731947 0.250000
O O16 0.000000 0.724955 0.122683
#
# Coordination Sequence:
#
# PCOD9472839 Si02
#       6
#    16  16  16  16  16   8
#     4  10  20  35  57  87 123 163 210 259 302 349
#     4   9  18  35  59  87 116 150 195 253 310 359
#     4  10  23  43  65  90 120 159 204 248 307 385
#     4   9  16  25  44  79 116 147 191 249 309 355
#     4   9  15  26  46  77 115 155 200 252 303 350
#     4  12  22  38  61  88 118 160 208 246 306 370
#
# _framework density 24.354216999999998
#
# number of rings (size 3 to 8) (size 9 to 14) (size 15 to 20)
#    0.000    2.364    0.909    2.182    1.273    4.364 
#    0.000    1.818    0.000    5.455    0.000    0.000 
#    0.000    0.000    0.000    0.000    0.000    0.000 
#
# Total GULP energy -244949.915256 kJ/mol
# GULP energy per Si atom -5567.043529 kJ/mol
# Density = 2.429879 g / cm^3
# Si number density = 24.354217 Si / 1000 Ang^3
#
#
#
# Elastic Constant Matrix: (Units=GPa)
#
#
# Indices 1 2 3 4 5 6 
#
# 1 140.4807 55.3843 14.5245 0.0000 0.0000 0.0000
# 2 55.3843 208.6782 35.5843 0.0000 0.0000 0.0000
# 3 14.5245 35.5843 64.9833 0.0000 0.0000 0.0000
# 4 0.0000 0.0000 0.0000 18.1222 0.0000 0.0000
# 5 0.0000 0.0000 0.0000 0.0000 -11.9055 0.0000
# 6 0.0000 0.0000 0.0000 0.0000 0.0000 40.6102
#
#
#
# Elastic Compliance Matrix: (Units=1/GPa)
#
#
# Indices 1 2 3 4 5 6 
#
# 1 0.007978 -0.002000 -0.000688 0.000000 0.000000 0.000000
# 2 -0.002000 0.005787 -0.002722 0.000000 0.000000 0.000000
# 3 -0.000688 -0.002722 0.017033 0.000000 0.000000 0.000000
# 4 0.000000 0.000000 0.000000 0.055181 0.000000 0.000000
# 5 0.000000 0.000000 0.000000 0.000000 -0.083995 0.000000
# 6 0.000000 0.000000 0.000000 0.000000 0.000000 0.024624
#
#
# Mechanical properties :
#
#
# Convention : Reuss Voigt Hill
#
# Bulk Modulus (GPa) = 50.05494 69.45871 59.75683
# Shear Modulus (GPa) = 113.40957 29.94198 71.67577
#
# Velocity S-wave (km/s) = 6.83138 3.51014 5.43088
# Velocity P-wave (km/s) = 9.10062 6.70896 7.99473
#
# Compressibility (1/GPa) = 0.01997805
#
# Stress axis : x y z
#
# Youngs Moduli (GPa) = 125.34340 172.79955 58.71019
#
# Poissons Ratio (x) = 0.34562 0.04039
# Poissons Ratio (y) = 0.25070 0.15980
# Poissons Ratio (z) = 0.08623 0.47034
#
# Static dielectric constant tensor:
#      x y z
#    x 1.776730 0.000000 0.000000 
#    y 0.000000 1.893860 0.000000 
#    z 0.000000 0.000000 2.168640 
# 
# From -- ./inp_files/40827.got.cif
#   From: 2010.05.17/outbox.cif.g08.bks.cpg/sg63_21_cif.got.tgz:40827.got - 2010.06.03 15:47:04.
