data_PCOD9472996
_publ_section_title
;
Structure prediction by ZEFSAII (Michael W. Deem and Ramdas Pophale) SiO2 
 PCOD9472996
Probable space group: C M C M
;
_chemical_formula_sum "Si O2"
_cell_formula_units_Z 80
_cell_length_a 8.854050
_cell_length_b 19.536138
_cell_length_c 26.172844
_cell_angle_alpha 90.000000
_cell_angle_beta 90.000000
_cell_angle_gamma 90.000000
_cell_volume 4527.220017
_symmetry_space_group_name_H-M "C M C M"
_symmetry_group_IT_number 63
_symmetry_cell_setting 'orthorhombic'
loop_
_space_group_symop_operation_xyz
x,y,z
-x,-y,1/2+z
x,-y,-z
-x,y,1/2-z
-x,-y,-z
x,y,1/2-z
-x,y,z
x,-y,1/2+z
1/2+x,1/2+y,z
1/2-x,1/2-y,1/2+z
1/2+x,1/2-y,-z
1/2-x,1/2+y,1/2-z
1/2-x,1/2-y,-z
1/2+x,1/2+y,1/2-z
1/2-x,1/2+y,z
1/2+x,1/2-y,1/2+z
loop_
_atom_site_type_symbol
_atom_site_label
_atom_site_fract_x
_atom_site_fract_y
_atom_site_fract_z
Si Si1 0.821379 0.015990 0.609131
Si Si2 0.180871 0.869709 0.309732
Si Si3 0.179236 0.626472 0.417586
Si Si4 0.679850 0.637977 0.970152
Si Si5 0.320119 0.236401 0.886212
O O1 0.784298 0.060879 0.659158
O O2 0.796966 0.067598 0.561491
O O3 0.000000 0.999036 0.609967
O O4 0.727025 0.947514 0.603284
O O5 0.215394 0.874384 0.250000
O O6 0.266502 0.808480 0.338084
O O7 0.000000 0.858632 0.315944
O O8 0.245179 0.633074 0.474812
O O9 0.253406 0.687656 0.385423
O O10 0.000000 0.634091 0.418470
O O11 0.500000 0.649030 0.974884
O O12 0.751523 0.697757 0.935787
O O13 0.500000 0.237770 0.889820
#
# Coordination Sequence:
#
# PCOD9472996 Si02
#       5
#    16  16  16  16  16
#     4   9  19  35  55  80 109 142 178 217 265 321
#     4   9  19  39  64  84 105 136 174 219 272 326
#     4  12  23  34  51  78 113 148 182 223 267 311
#     4  10  20  36  56  78 109 147 183 219 264 320
#     4  11  22  36  55  80 110 143 182 223 264 317
#
# _framework density 17.670888999999999
#
# number of rings (size 3 to 8) (size 9 to 14) (size 15 to 20)
#    0.000    1.800    0.000    6.600    0.000    6.800 
#    0.000    1.000    0.000    3.600    0.000    0.000 
#    0.000    0.000    0.000    0.000    0.000    0.000 
#
# Total GULP energy -223539.141942 kJ/mol
# GULP energy per Si atom -5588.478549 kJ/mol
# Density = 1.763067 g / cm^3
# Si number density = 17.670889 Si / 1000 Ang^3
#
#
#
# Elastic Constant Matrix: (Units=GPa)
#
#
# Indices 1 2 3 4 5 6 
#
# 1 110.7783 66.6656 44.9176 0.0000 0.0000 0.0000
# 2 66.6656 98.3714 32.3383 0.0000 0.0000 0.0000
# 3 44.9176 32.3383 88.3560 0.0000 0.0000 0.0000
# 4 0.0000 0.0000 0.0000 2.6134 0.0000 0.0000
# 5 0.0000 0.0000 0.0000 0.0000 23.2157 0.0000
# 6 0.0000 0.0000 0.0000 0.0000 0.0000 35.4177
#
#
#
# Elastic Compliance Matrix: (Units=1/GPa)
#
#
# Indices 1 2 3 4 5 6 
#
# 1 0.017009 -0.009872 -0.005034 0.000000 0.000000 0.000000
# 2 -0.009872 0.017286 -0.001308 0.000000 0.000000 0.000000
# 3 -0.005034 -0.001308 0.014356 0.000000 0.000000 0.000000
# 4 0.000000 0.000000 0.000000 0.382646 0.000000 0.000000
# 5 0.000000 0.000000 0.000000 0.000000 0.043074 0.000000
# 6 0.000000 0.000000 0.000000 0.000000 0.000000 0.028234
#
#
# Mechanical properties :
#
#
# Convention : Reuss Voigt Hill
#
# Bulk Modulus (GPa) = 61.64127 65.03874 63.34000
# Shear Modulus (GPa) = 9.25171 22.48830 15.87000
#
# Velocity S-wave (km/s) = 2.29062 3.57125 3.00006
# Velocity P-wave (km/s) = 6.47724 7.34102 6.92261
#
# Compressibility (1/GPa) = 0.01622290
#
# Stress axis : x y z
#
# Youngs Moduli (GPa) = 58.79222 57.85090 69.65968
#
# Poissons Ratio (x) = 0.57111 0.35064
# Poissons Ratio (y) = 0.58041 0.09111
# Poissons Ratio (z) = 0.29594 0.07566
#
# Static dielectric constant tensor:
#      x y z
#    x 1.585990 0.000000 0.000000 
#    y 0.000000 1.596130 0.000000 
#    z 0.000000 0.000000 1.580790 
# 
# From -- ./inp_files/66556.got.cif
#   From: 2010.05.17/outbox.cif.g08.bks.cpg/sg63_34_cif.got.tgz:66556.got - 2010.06.03 15:47:04.
