data_PCOD9472319
_publ_section_title
;
Structure prediction by ZEFSAII (Michael W. Deem and Ramdas Pophale) SiO2 
 PCOD9472319
Probable space group: C M C M
;
_chemical_formula_sum "Si O2"
_cell_formula_units_Z 80
_cell_length_a 8.039570
_cell_length_b 15.316360
_cell_length_c 31.183897
_cell_angle_alpha 90.000000
_cell_angle_beta 90.000000
_cell_angle_gamma 90.000000
_cell_volume 3839.889915
_symmetry_space_group_name_H-M "C M C M"
_symmetry_group_IT_number 63
_symmetry_cell_setting 'orthorhombic'
loop_
_space_group_symop_operation_xyz
x,y,z
-x,-y,1/2+z
x,-y,-z
-x,y,1/2-z
-x,-y,-z
x,y,1/2-z
-x,y,z
x,-y,1/2+z
1/2+x,1/2+y,z
1/2-x,1/2-y,1/2+z
1/2+x,1/2-y,-z
1/2-x,1/2+y,1/2-z
1/2-x,1/2-y,-z
1/2+x,1/2+y,1/2-z
1/2-x,1/2+y,z
1/2+x,1/2-y,1/2+z
loop_
_atom_site_type_symbol
_atom_site_label
_atom_site_fract_x
_atom_site_fract_y
_atom_site_fract_z
Si Si1 0.799225 0.868477 0.798723
Si Si2 0.306755 0.543931 0.545559
Si Si3 0.698760 0.984823 0.134521
Si Si4 0.795944 0.717179 0.638873
Si Si5 0.816042 0.732127 0.952802
O O1 0.737398 0.874541 0.750000
O O2 0.743093 0.780373 0.822977
O O3 0.000000 0.865552 0.797384
O O4 0.749897 0.950387 0.827885
O O5 0.274196 0.500000 0.500000
O O6 0.500000 0.572577 0.545395
O O7 0.275653 0.488440 0.588409
O O8 0.188632 0.627185 0.549951
O O9 0.500000 0.985538 0.130691
O O10 0.753789 0.884263 0.143407
O O11 0.734064 0.755173 0.592864
O O12 0.000000 0.717608 0.637036
O O13 0.000000 0.770399 0.952174
O O14 0.750000 0.750000 0.000000
#
# Coordination Sequence:
#
# PCOD9472319 Si02
#       5
#    16  16  16  16  16
#     4  10  21  38  61  86 111 148 195 237 286 350
#     4  10  21  36  55  80 112 153 194 234 287 349
#     4  10  21  38  59  85 117 151 189 242 296 347
#     4   8  18  37  57  78 111 152 190 230 282 346
#     4  10  20  34  53  80 114 151 194 238 286 345
#
# _framework density 20.833931
#
# number of rings (size 3 to 8) (size 9 to 14) (size 15 to 20)
#    0.000    2.400    0.000    3.000    2.800    2.800 
#    0.000    7.000    0.000    0.000    0.000    0.000 
#    0.000    0.000    0.000    0.000    0.000    0.000 
#
# Total GULP energy -223048.842231 kJ/mol
# GULP energy per Si atom -5576.221056 kJ/mol
# Density = 2.078651 g / cm^3
# Si number density = 20.833931 Si / 1000 Ang^3
#
#
#
# Elastic Constant Matrix: (Units=GPa)
#
#
# Indices 1 2 3 4 5 6 
#
# 1 23.8672 5.8278 21.5722 0.0000 0.0000 0.0000
# 2 5.8278 80.9750 78.9158 0.0000 0.0000 0.0000
# 3 21.5722 78.9158 227.1095 0.0000 0.0000 0.0000
# 4 0.0000 0.0000 0.0000 37.6080 0.0000 0.0000
# 5 0.0000 0.0000 0.0000 0.0000 25.1347 0.0000
# 6 0.0000 0.0000 0.0000 0.0000 0.0000 17.9696
#
#
#
# Elastic Compliance Matrix: (Units=1/GPa)
#
#
# Indices 1 2 3 4 5 6 
#
# 1 0.045943 0.001431 -0.004861 0.000000 0.000000 0.000000
# 2 0.001431 0.018718 -0.006640 0.000000 0.000000 0.000000
# 3 -0.004861 -0.006640 0.007172 0.000000 0.000000 0.000000
# 4 0.000000 0.000000 0.000000 0.026590 0.000000 0.000000
# 5 0.000000 0.000000 0.000000 0.000000 0.039786 0.000000
# 6 0.000000 0.000000 0.000000 0.000000 0.000000 0.055650
#
#
# Mechanical properties :
#
#
# Convention : Reuss Voigt Hill
#
# Bulk Modulus (GPa) = 19.34522 60.50924 39.92723
# Shear Modulus (GPa) = 21.62363 31.18487 26.40425
#
# Velocity S-wave (km/s) = 3.22515 3.87309 3.56387
# Velocity P-wave (km/s) = 4.81398 7.00769 6.01174
#
# Compressibility (1/GPa) = 0.05169237
#
# Stress axis : x y z
#
# Youngs Moduli (GPa) = 21.76619 53.42589 139.42890
#
# Poissons Ratio (x) = -0.07645 0.67778
# Poissons Ratio (y) = -0.03115 0.92579
# Poissons Ratio (z) = 0.10581 0.35474
#
# Static dielectric constant tensor:
#      x y z
#    x 1.786170 0.000000 0.000000 
#    y 0.000000 1.732800 0.000000 
#    z 0.000000 0.000000 1.790890 
# 
# From -- ./inp_files/66584.got.cif
#   From: 2010.05.17/outbox.cif.g08.bks.cpg/sg63_34_cif.got.tgz:66584.got - 2010.06.03 15:47:04.
