data_PCOD9472875
_publ_section_title
;
Structure prediction by ZEFSAII (Michael W. Deem and Ramdas Pophale) SiO2 
 PCOD9472875
Probable space group: C M C M
;
_chemical_formula_sum "Si O2"
_cell_formula_units_Z 116
_cell_length_a 23.988850
_cell_length_b 26.892854
_cell_length_c 8.681501
_cell_angle_alpha 90.000000
_cell_angle_beta 90.000000
_cell_angle_gamma 90.000000
_cell_volume 5600.684939
_symmetry_space_group_name_H-M "C M C M"
_symmetry_group_IT_number 63
_symmetry_cell_setting 'orthorhombic'
loop_
_space_group_symop_operation_xyz
x,y,z
-x,-y,1/2+z
x,-y,-z
-x,y,1/2-z
-x,-y,-z
x,y,1/2-z
-x,y,z
x,-y,1/2+z
1/2+x,1/2+y,z
1/2-x,1/2-y,1/2+z
1/2+x,1/2-y,-z
1/2-x,1/2+y,1/2-z
1/2-x,1/2-y,-z
1/2+x,1/2+y,1/2-z
1/2-x,1/2+y,z
1/2+x,1/2-y,1/2+z
loop_
_atom_site_type_symbol
_atom_site_label
_atom_site_fract_x
_atom_site_fract_y
_atom_site_fract_z
Si Si1 0.601558 0.569406 0.929704
Si Si2 0.910759 0.257463 0.925558
Si Si3 0.658750 0.945028 0.064109
Si Si4 0.436890 0.338709 0.581913
Si Si5 0.565041 0.864764 0.064156
Si Si6 0.219722 0.904181 0.438433
Si Si7 0.000000 0.000000 0.500000
Si Si8 0.211425 0.790896 0.074495
O O1 0.596209 0.555387 0.750000
O O2 0.665218 0.563712 0.986589
O O3 0.591850 0.628366 0.951290
O O4 0.550659 0.541919 0.013135
O O5 0.931628 0.254512 0.750000
O O6 0.848725 0.234789 0.926663
O O7 0.939424 0.218764 0.039172
O O8 0.916820 0.313119 0.986123
O O9 0.659099 0.946686 0.250000
O O10 0.608973 0.907546 0.018114
O O11 0.720132 0.925347 0.015379
O O12 0.649660 0.000000 0.000000
O O13 0.410167 0.346212 0.750000
O O14 0.500000 0.356169 0.589414
O O15 0.568413 0.859301 0.250000
O O16 0.500000 0.875454 0.026050
O O17 0.216759 0.904288 0.250000
O O18 0.213915 0.846725 0.492817
O O19 0.230111 0.797258 0.250000
O O20 0.250000 0.750000 0.000000
#
# Coordination Sequence:
#
# PCOD9472875 Si02
#       8
#    16  16  16  16  16  16   4  16
#     4  11  23  42  64  84 118 164 211 266 322 375
#     4  11  22  37  60  91 126 165 208 253 309 376
#     4  10  22  41  66  91 122 161 205 260 317 378
#     4  11  23  38  58  86 121 158 204 256 310 374
#     4  10  22  41  64  92 127 167 208 252 315 386
#     4   9  19  39  62  86 119 162 206 253 313 375
#     4  12  26  36  64  98 118 156 218 282 324 368
#     4  10  20  35  58  87 123 162 206 251 303 373
#
# _framework density 20.711753000000002
#
# number of rings (size 3 to 8) (size 9 to 14) (size 15 to 20)
#    0.000    1.655    2.069    2.276    0.966    6.897 
#    0.000    1.379    0.000    0.000    0.000    0.000 
#    0.000    0.000    0.000    0.000    0.000    0.000 
#
# Total GULP energy -322951.522473 kJ/mol
# GULP energy per Si atom -5568.129698 kJ/mol
# Density = 2.066461 g / cm^3
# Si number density = 20.711753 Si / 1000 Ang^3
#
#
#
# Elastic Constant Matrix: (Units=GPa)
#
#
# Indices 1 2 3 4 5 6 
#
# 1 106.5221 78.7775 21.0466 0.0000 0.0000 0.0000
# 2 78.7775 149.4631 12.7641 0.0000 0.0000 0.0000
# 3 21.0466 12.7641 20.5546 0.0000 0.0000 0.0000
# 4 0.0000 0.0000 0.0000 -3.4014 0.0000 0.0000
# 5 0.0000 0.0000 0.0000 0.0000 10.5650 0.0000
# 6 0.0000 0.0000 0.0000 0.0000 0.0000 30.1992
#
#
#
# Elastic Compliance Matrix: (Units=1/GPa)
#
#
# Indices 1 2 3 4 5 6 
#
# 1 0.018360 -0.008523 -0.013506 0.000000 0.000000 0.000000
# 2 -0.008523 0.011022 0.001883 0.000000 0.000000 0.000000
# 3 -0.013506 0.001883 0.061311 0.000000 0.000000 0.000000
# 4 0.000000 0.000000 0.000000 -0.293995 0.000000 0.000000
# 5 0.000000 0.000000 0.000000 0.000000 0.094652 0.000000
# 6 0.000000 0.000000 0.000000 0.000000 0.000000 0.033113
#
#
# Mechanical properties :
#
#
# Convention : Reuss Voigt Hill
#
# Bulk Modulus (GPa) = 19.84145 55.74623 37.79384
# Shear Modulus (GPa) = -271.12341 18.40265 -126.36038
#
# Velocity S-wave (km/s) = -11.45370 2.98403 -7.81930
# Velocity P-wave (km/s) = 12.85752 6.23268 7.95203
#
# Compressibility (1/GPa) = 0.05039954
#
# Stress axis : x y z
#
# Youngs Moduli (GPa) = 54.46706 90.72536 16.31019
#
# Poissons Ratio (x) = 0.77329 0.22029
# Poissons Ratio (y) = 0.46425 -0.03071
# Poissons Ratio (z) = 0.73565 -0.17082
#
# Static dielectric constant tensor:
#      x y z
#    x 1.846620 0.000000 0.000000 
#    y 0.000000 1.734840 0.000000 
#    z 0.000000 0.000000 1.760860 
# 
# From -- ./inp_files/10936.got.cif
#   From: 2010.05.17/outbox.cif.g08.bks.cpg/sg63_6_cif.got.tgz:10936.got - 2010.06.03 15:47:04.
