data_PCOD9472694
_publ_section_title
;
Structure prediction by ZEFSAII (Michael W. Deem and Ramdas Pophale) SiO2 
 PCOD9472694
Probable space group: C M C M
;
_chemical_formula_sum "Si O2"
_cell_formula_units_Z 96
_cell_length_a 18.776806
_cell_length_b 13.364979
_cell_length_c 20.669100
_cell_angle_alpha 90.000000
_cell_angle_beta 90.000000
_cell_angle_gamma 90.000000
_cell_volume 5186.944085
_symmetry_space_group_name_H-M "C M C M"
_symmetry_group_IT_number 63
_symmetry_cell_setting 'orthorhombic'
loop_
_space_group_symop_operation_xyz
x,y,z
-x,-y,1/2+z
x,-y,-z
-x,y,1/2-z
-x,-y,-z
x,y,1/2-z
-x,y,z
x,-y,1/2+z
1/2+x,1/2+y,z
1/2-x,1/2-y,1/2+z
1/2+x,1/2-y,-z
1/2-x,1/2+y,1/2-z
1/2-x,1/2-y,-z
1/2+x,1/2+y,1/2-z
1/2-x,1/2+y,z
1/2+x,1/2-y,1/2+z
loop_
_atom_site_type_symbol
_atom_site_label
_atom_site_fract_x
_atom_site_fract_y
_atom_site_fract_z
Si Si1 0.198935 0.570121 0.559501
Si Si2 0.280734 0.925886 0.823798
Si Si3 0.679745 0.717317 0.612834
Si Si4 0.414499 0.215844 0.506690
Si Si5 0.875022 0.022582 0.821111
Si Si6 0.919214 0.924681 0.948659
O O1 0.223227 0.500000 0.500000
O O2 0.187352 0.501994 0.623036
O O3 0.257959 0.654968 0.575987
O O4 0.126656 0.622015 0.535912
O O5 0.308273 0.935571 0.750000
O O6 0.290130 0.813455 0.849695
O O7 0.198244 0.959161 0.821871
O O8 0.620349 0.756314 0.562428
O O9 0.645102 0.636171 0.660929
O O10 0.500000 0.202136 0.504215
O O11 0.391865 0.312228 0.550211
O O12 0.907107 0.016067 0.750000
O O13 0.918515 0.976437 0.879803
O O14 0.000000 0.910721 0.972102
O O15 0.883951 0.000000 0.000000
#
# Coordination Sequence:
#
# PCOD9472694 Si02
#       6
#    16  16  16  16  16  16
#     4  11  23  37  62  93 117 155 198 247 293 350
#     4  10  22  39  57  85 119 152 193 243 301 350
#     4  11  21  36  62  86 120 152 200 240 297 351
#     4  11  23  38  59  89 119 153 199 249 294 342
#     4  10  21  34  56  85 116 151 188 243 296 350
#     4  10  20  35  55  80 114 155 192 236 291 349
#
# _framework density 18.508008
#
# number of rings (size 3 to 8) (size 9 to 14) (size 15 to 20)
#    0.000    1.500    3.333    2.000    4.667    1.333 
#    0.000    0.833    0.000    4.000    0.000    0.000 
#    0.000    0.000    0.000    0.000    0.000    0.000 
#
# Total GULP energy -267706.887042 kJ/mol
# GULP energy per Si atom -5577.226813 kJ/mol
# Density = 1.846588 g / cm^3
# Si number density = 18.508008 Si / 1000 Ang^3
#
#
#
# Elastic Constant Matrix: (Units=GPa)
#
#
# Indices 1 2 3 4 5 6 
#
# 1 66.6418 38.8304 37.1597 0.0000 0.0000 0.0000
# 2 38.8304 110.1949 53.9660 0.0000 0.0000 0.0000
# 3 37.1597 53.9660 135.9168 0.0000 0.0000 0.0000
# 4 0.0000 0.0000 0.0000 24.3395 0.0000 0.0000
# 5 0.0000 0.0000 0.0000 0.0000 42.4672 0.0000
# 6 0.0000 0.0000 0.0000 0.0000 0.0000 11.5397
#
#
#
# Elastic Compliance Matrix: (Units=1/GPa)
#
#
# Indices 1 2 3 4 5 6 
#
# 1 0.020019 -0.005430 -0.003317 0.000000 0.000000 0.000000
# 2 -0.005430 0.012738 -0.003573 0.000000 0.000000 0.000000
# 3 -0.003317 -0.003573 0.009683 0.000000 0.000000 0.000000
# 4 0.000000 0.000000 0.000000 0.041085 0.000000 0.000000
# 5 0.000000 0.000000 0.000000 0.000000 0.023548 0.000000
# 6 0.000000 0.000000 0.000000 0.000000 0.000000 0.086658
#
#
# Mechanical properties :
#
#
# Convention : Reuss Voigt Hill
#
# Bulk Modulus (GPa) = 56.18033 63.62953 59.90493
# Shear Modulus (GPa) = 22.29110 27.85578 25.07344
#
# Velocity S-wave (km/s) = 3.47422 3.88373 3.68466
# Velocity P-wave (km/s) = 6.82012 7.38683 7.10912
#
# Compressibility (1/GPa) = 0.01779982
#
# Stress axis : x y z
#
# Youngs Moduli (GPa) = 49.95222 78.50495 103.27218
#
# Poissons Ratio (x) = 0.42626 0.34259
# Poissons Ratio (y) = 0.27123 0.36901
# Poissons Ratio (z) = 0.16571 0.28051
#
# Static dielectric constant tensor:
#      x y z
#    x 1.636140 0.000000 0.000000 
#    y 0.000000 1.666690 0.000000 
#    z 0.000000 0.000000 1.648440 
# 
# From -- ./inp_files/56572.got.cif
#   From: 2010.05.17/outbox.cif.g08.bks.cpg/sg63_29_cif.got.tgz:56572.got - 2010.06.03 15:47:04.
