data_PCOD9472206
_publ_section_title
;
Structure prediction by ZEFSAII (Michael W. Deem and Ramdas Pophale) SiO2 
 PCOD9472206
Probable space group: C M C M
;
_chemical_formula_sum "Si O2"
_cell_formula_units_Z 96
_cell_length_a 7.500764
_cell_length_b 20.958696
_cell_length_c 24.115391
_cell_angle_alpha 90.000000
_cell_angle_beta 90.000000
_cell_angle_gamma 90.000000
_cell_volume 3791.089763
_symmetry_space_group_name_H-M "C M C M"
_symmetry_group_IT_number 63
_symmetry_cell_setting 'orthorhombic'
loop_
_space_group_symop_operation_xyz
x,y,z
-x,-y,1/2+z
x,-y,-z
-x,y,1/2-z
-x,-y,-z
x,y,1/2-z
-x,y,z
x,-y,1/2+z
1/2+x,1/2+y,z
1/2-x,1/2-y,1/2+z
1/2+x,1/2-y,-z
1/2-x,1/2+y,1/2-z
1/2-x,1/2-y,-z
1/2+x,1/2+y,1/2-z
1/2-x,1/2+y,z
1/2+x,1/2-y,1/2+z
loop_
_atom_site_type_symbol
_atom_site_label
_atom_site_fract_x
_atom_site_fract_y
_atom_site_fract_z
Si Si1 0.781602 0.911976 0.689866
Si Si2 0.294695 0.230828 0.572118
Si Si3 0.705051 0.449806 0.161021
Si Si4 0.716197 0.691782 0.688910
Si Si5 0.789403 0.409196 0.045504
Si Si6 0.214910 0.131381 0.430884
O O1 0.726946 0.884980 0.750000
O O2 0.721606 0.883033 0.631227
O O3 0.000000 0.910881 0.688662
O O4 0.720752 0.985763 0.686160
O O5 0.500000 0.228810 0.554733
O O6 0.288884 0.233271 0.638915
O O7 0.212769 0.162224 0.557758
O O8 0.216691 0.297802 0.552410
O O9 0.500000 0.447734 0.179019
O O10 0.780003 0.381306 0.178914
O O11 0.710322 0.452695 0.093894
O O12 0.768856 0.712801 0.750000
O O13 0.500000 0.692462 0.685296
O O14 0.000000 0.409514 0.056148
O O15 0.762722 0.417662 0.979995
O O16 0.000000 0.133768 0.429218
#
# Coordination Sequence:
#
# PCOD9472206 Si02
#       6
#    16  16  16  16  16  16
#     4   9  18  33  54  78 101 128 165 207 247 290
#     4   9  19  33  49  72 101 134 169 206 250 298
#     4   9  17  32  54  76  99 128 164 206 250 295
#     4   9  17  29  48  74 100 128 165 208 251 295
#     4  10  20  34  52  75 103 132 165 206 252 298
#     4  10  20  34  53  76 101 131 168 206 246 295
#
# _framework density 25.322535999999999
#
# number of rings (size 3 to 8) (size 9 to 14) (size 15 to 20)
#    0.000    2.667    0.000    1.500    0.000    5.000 
#    0.000    5.833    0.000    3.000    0.000    0.000 
#    0.000    0.000    0.000    0.000    0.000    0.000 
#
# Total GULP energy -268155.452201 kJ/mol
# GULP energy per Si atom -5586.571921 kJ/mol
# Density = 2.526490 g / cm^3
# Si number density = 25.322536 Si / 1000 Ang^3
#
#
#
# Elastic Constant Matrix: (Units=GPa)
#
#
# Indices 1 2 3 4 5 6 
#
# 1 85.8026 -0.6496 5.3860 0.0000 0.0000 0.0000
# 2 -0.6496 34.0213 6.6976 0.0000 0.0000 0.0000
# 3 5.3860 6.6976 179.1980 0.0000 0.0000 0.0000
# 4 0.0000 0.0000 0.0000 27.8230 0.0000 0.0000
# 5 0.0000 0.0000 0.0000 0.0000 18.8964 0.0000
# 6 0.0000 0.0000 0.0000 0.0000 0.0000 -1.9558
#
#
#
# Elastic Compliance Matrix: (Units=1/GPa)
#
#
# Indices 1 2 3 4 5 6 
#
# 1 0.011680 0.000294 -0.000362 0.000000 0.000000 0.000000
# 2 0.000294 0.029619 -0.001116 0.000000 0.000000 0.000000
# 3 -0.000362 -0.001116 0.005633 0.000000 0.000000 0.000000
# 4 0.000000 0.000000 0.000000 0.035942 0.000000 0.000000
# 5 0.000000 0.000000 0.000000 0.000000 0.052920 0.000000
# 6 0.000000 0.000000 0.000000 0.000000 0.000000 -0.511300
#
#
# Mechanical properties :
#
#
# Convention : Reuss Voigt Hill
#
# Bulk Modulus (GPa) = 22.43961 35.76553 29.10257
# Shear Modulus (GPa) = -13.95535 28.12525 7.08495
#
# Velocity S-wave (km/s) = -2.35011 3.33630 1.67450
# Velocity P-wave (km/s) = 1.23157 5.38478 3.90593
#
# Compressibility (1/GPa) = 0.04456405
#
# Stress axis : x y z
#
# Youngs Moduli (GPa) = 85.61928 33.76252 177.52514
#
# Poissons Ratio (x) = -0.00994 0.06427
# Poissons Ratio (y) = -0.02520 0.19809
# Poissons Ratio (z) = 0.03100 0.03767
#
# Static dielectric constant tensor:
#      x y z
#    x 1.942550 0.000000 0.000000 
#    y 0.000000 2.001560 0.000000 
#    z 0.000000 0.000000 2.039200 
# 
# From -- ./inp_files/59831.got.cif
#   From: 2010.05.17/outbox.cif.g08.bks.cpg/sg63_30_cif.got.tgz:59831.got - 2010.06.03 15:47:04.
