data_PCOD9472500
_publ_section_title
;
Structure prediction by ZEFSAII (Michael W. Deem and Ramdas Pophale) SiO2 
 PCOD9472500
Probable space group: C M C M
;
_chemical_formula_sum "Si O2"
_cell_formula_units_Z 96
_cell_length_a 29.702666
_cell_length_b 20.779074
_cell_length_c 8.604352
_cell_angle_alpha 90.000000
_cell_angle_beta 90.000000
_cell_angle_gamma 90.000000
_cell_volume 5310.553523
_symmetry_space_group_name_H-M "C M C M"
_symmetry_group_IT_number 63
_symmetry_cell_setting 'orthorhombic'
loop_
_space_group_symop_operation_xyz
x,y,z
-x,-y,1/2+z
x,-y,-z
-x,y,1/2-z
-x,-y,-z
x,y,1/2-z
-x,y,z
x,-y,1/2+z
1/2+x,1/2+y,z
1/2-x,1/2-y,1/2+z
1/2+x,1/2-y,-z
1/2-x,1/2+y,1/2-z
1/2-x,1/2-y,-z
1/2+x,1/2+y,1/2-z
1/2-x,1/2+y,z
1/2+x,1/2-y,1/2+z
loop_
_atom_site_type_symbol
_atom_site_label
_atom_site_fract_x
_atom_site_fract_y
_atom_site_fract_z
Si Si1 0.447513 0.828098 0.061774
Si Si2 0.804749 0.794513 0.564808
Si Si3 0.869318 0.427714 0.435765
Si Si4 0.097449 0.197636 0.936452
Si Si5 0.949143 0.064211 0.563959
Si Si6 0.786406 0.653211 0.433848
O O1 0.446247 0.824887 0.250000
O O2 0.500000 0.838331 0.016139
O O3 0.412293 0.884152 0.013057
O O4 0.428252 0.761195 0.995195
O O5 0.800525 0.782998 0.750000
O O6 0.854934 0.811517 0.519402
O O7 0.797346 0.727168 0.476053
O O8 0.766697 0.847381 0.522183
O O9 0.871465 0.500000 0.500000
O O10 0.870405 0.430290 0.250000
O O11 0.822879 0.392448 0.485507
O O12 0.103249 0.202807 0.750000
O O13 0.070860 0.132956 0.974388
O O14 0.949963 0.059295 0.750000
O O15 0.000000 0.064595 0.501918
O O16 0.925850 0.000000 0.500000
O O17 0.790495 0.642620 0.250000
#
# Coordination Sequence:
#
# PCOD9472500 Si02
#       6
#    16  16  16  16  16  16
#     4  10  22  39  58  83 115 151 195 245 295 349
#     4  10  20  34  56  85 115 145 181 227 279 336
#     4  11  23  39  60  84 116 155 197 244 295 352
#     4  11  21  34  56  86 117 150 189 236 285 339
#     4   9  19  35  53  76 107 144 186 228 274 331
#     4  10  20  36  58  84 112 145 186 230 280 337
#
# _framework density 18.077213
#
# number of rings (size 3 to 8) (size 9 to 14) (size 15 to 20)
#    0.000    1.833    1.667    2.500    0.000    5.333 
#    0.000    2.500    0.000    2.000    0.000    0.000 
#    0.000    0.000    0.000    0.000    0.000    0.000 
#
# Total GULP energy -267611.995863 kJ/mol
# GULP energy per Si atom -5575.249914 kJ/mol
# Density = 1.803607 g / cm^3
# Si number density = 18.077213 Si / 1000 Ang^3
#
#
#
# Elastic Constant Matrix: (Units=GPa)
#
#
# Indices 1 2 3 4 5 6 
#
# 1 129.7129 71.1961 28.4352 0.0000 0.0000 0.0000
# 2 71.1961 140.7822 29.4278 0.0000 0.0000 0.0000
# 3 28.4352 29.4278 22.2887 0.0000 0.0000 0.0000
# 4 0.0000 0.0000 0.0000 31.7848 0.0000 0.0000
# 5 0.0000 0.0000 0.0000 0.0000 24.8869 0.0000
# 6 0.0000 0.0000 0.0000 0.0000 0.0000 -137.0637
#
#
#
# Elastic Compliance Matrix: (Units=1/GPa)
#
#
# Indices 1 2 3 4 5 6 
#
# 1 0.012147 -0.004010 -0.010202 0.000000 0.000000 0.000000
# 2 -0.004010 0.011135 -0.009585 0.000000 0.000000 0.000000
# 3 -0.010202 -0.009585 0.070536 0.000000 0.000000 0.000000
# 4 0.000000 0.000000 0.000000 0.031462 0.000000 0.000000
# 5 0.000000 0.000000 0.000000 0.000000 0.040182 0.000000
# 6 0.000000 0.000000 0.000000 0.000000 0.000000 -0.007296
#
#
# Mechanical properties :
#
#
# Convention : Reuss Voigt Hill
#
# Bulk Modulus (GPa) = 21.63406 61.21132 41.42269
# Shear Modulus (GPa) = 22.60734 -5.16341 8.72197
#
# Velocity S-wave (km/s) = 3.54022 -1.69189 2.19893
# Velocity P-wave (km/s) = 5.35765 5.48798 5.42320
#
# Compressibility (1/GPa) = 0.04622341
#
# Stress axis : x y z
#
# Youngs Moduli (GPa) = 82.32529 89.80766 14.17720
#
# Poissons Ratio (x) = 0.36017 0.14463
# Poissons Ratio (y) = 0.33016 0.13589
# Poissons Ratio (z) = 0.83985 0.86081
#
# Static dielectric constant tensor:
#      x y z
#    x 1.674150 0.000000 0.000000 
#    y 0.000000 1.603390 0.000000 
#    z 0.000000 0.000000 1.612830 
# 
# From -- ./inp_files/12351.got.cif
#   From: 2010.05.17/outbox.cif.g08.bks.cpg/sg63_7_cif.got.tgz:12351.got - 2010.06.03 15:47:04.
