data_PCOD9472721
_publ_section_title
;
Structure prediction by ZEFSAII (Michael W. Deem and Ramdas Pophale) SiO2 
 PCOD9472721
Probable space group: C M C M
;
_chemical_formula_sum "Si O2"
_cell_formula_units_Z 120
_cell_length_a 14.663655
_cell_length_b 27.389024
_cell_length_c 14.069313
_cell_angle_alpha 90.000000
_cell_angle_beta 90.000000
_cell_angle_gamma 90.000000
_cell_volume 5650.562491
_symmetry_space_group_name_H-M "C M C M"
_symmetry_group_IT_number 63
_symmetry_cell_setting 'orthorhombic'
loop_
_space_group_symop_operation_xyz
x,y,z
-x,-y,1/2+z
x,-y,-z
-x,y,1/2-z
-x,-y,-z
x,y,1/2-z
-x,y,z
x,-y,1/2+z
1/2+x,1/2+y,z
1/2-x,1/2-y,1/2+z
1/2+x,1/2-y,-z
1/2-x,1/2+y,1/2-z
1/2-x,1/2-y,-z
1/2+x,1/2+y,1/2-z
1/2-x,1/2+y,z
1/2+x,1/2-y,1/2+z
loop_
_atom_site_type_symbol
_atom_site_label
_atom_site_fract_x
_atom_site_fract_y
_atom_site_fract_z
Si Si1 0.105086 0.013869 0.140077
Si Si2 0.396111 0.064758 0.556207
Si Si3 0.253733 0.500000 0.500000
Si Si4 0.392862 0.603919 0.858043
Si Si5 0.391819 0.113699 0.146995
Si Si6 0.206889 0.190470 0.547151
Si Si7 0.397471 0.169739 0.638964
Si Si8 0.282102 0.214032 0.142361
O O1 0.120400 0.027573 0.250000
O O2 0.114420 0.954683 0.133140
O O3 0.000000 0.026184 0.115529
O O4 0.178793 0.032542 0.065119
O O5 0.500000 0.045406 0.561403
O O6 0.314983 0.027211 0.571898
O O7 0.375946 0.083322 0.448613
O O8 0.392410 0.111301 0.624114
O O9 0.364023 0.616052 0.750000
O O10 0.500000 0.615044 0.868345
O O11 0.336276 0.638856 0.926363
O O12 0.364409 0.091692 0.250000
O O13 0.500000 0.120559 0.148605
O O14 0.345648 0.166439 0.140015
O O15 0.313421 0.189486 0.578683
O O16 0.205180 0.202239 0.435937
O O17 0.169044 0.236286 0.607114
O O18 0.387254 0.181389 0.750000
O O19 0.500000 0.184277 0.607467
O O20 0.249522 0.220599 0.250000
#
# Coordination Sequence:
#
# PCOD9472721 Si02
#       8
#    16  16   8  16  16  16  16  16
#     4   9  20  38  57  80 109 137 174 228 282 331
#     4  10  21  36  51  78 114 143 180 225 270 325
#     4  12  22  32  58  84 104 144 182 222 276 332
#     4   9  18  34  57  82 107 135 172 223 278 322
#     4   9  18  35  55  72 102 147 184 218 264 319
#     4  11  20  33  55  80 109 142 179 228 270 312
#     4  10  20  35  56  79 107 146 184 219 267 327
#     4  10  21  33  49  78 111 142 180 224 266 312
#
# _framework density 21.236823999999999
#
# number of rings (size 3 to 8) (size 9 to 14) (size 15 to 20)
#    0.000    2.133    1.333    3.200    0.000    2.667 
#    0.000    3.333    0.000    5.200    0.000    0.000 
#    0.000    0.000    0.000    0.000    0.000    0.000 
#
# Total GULP energy -334765.477866 kJ/mol
# GULP energy per Si atom -5579.424631 kJ/mol
# Density = 2.118849 g / cm^3
# Si number density = 21.236824 Si / 1000 Ang^3
#
#
#
# Elastic Constant Matrix: (Units=GPa)
#
#
# Indices 1 2 3 4 5 6 
#
# 1 71.1654 10.0990 15.4634 0.0000 0.0000 0.0000
# 2 10.0990 24.0177 -7.2527 0.0000 0.0000 0.0000
# 3 15.4634 -7.2527 98.4649 0.0000 0.0000 0.0000
# 4 0.0000 0.0000 0.0000 18.6616 0.0000 0.0000
# 5 0.0000 0.0000 0.0000 0.0000 14.2301 0.0000
# 6 0.0000 0.0000 0.0000 0.0000 0.0000 10.6330
#
#
#
# Elastic Compliance Matrix: (Units=1/GPa)
#
#
# Indices 1 2 3 4 5 6 
#
# 1 0.015783 -0.007553 -0.003035 0.000000 0.000000 0.000000
# 2 -0.007553 0.046198 0.004589 0.000000 0.000000 0.000000
# 3 -0.003035 0.004589 0.010971 0.000000 0.000000 0.000000
# 4 0.000000 0.000000 0.000000 0.053586 0.000000 0.000000
# 5 0.000000 0.000000 0.000000 0.000000 0.070274 0.000000
# 6 0.000000 0.000000 0.000000 0.000000 0.000000 0.094047
#
#
# Mechanical properties :
#
#
# Convention : Reuss Voigt Hill
#
# Bulk Modulus (GPa) = 16.40601 25.58528 20.99564
# Shear Modulus (GPa) = 15.47156 20.39415 17.93286
#
# Velocity S-wave (km/s) = 2.70205 3.10227 2.90905
# Velocity P-wave (km/s) = 4.18053 4.99057 4.60340
#
# Compressibility (1/GPa) = 0.06095327
#
# Stress axis : x y z
#
# Youngs Moduli (GPa) = 63.35905 21.64611 91.15322
#
# Poissons Ratio (x) = 0.16349 0.27665
# Poissons Ratio (y) = 0.47855 -0.41830
# Poissons Ratio (z) = 0.19229 -0.09933
#
# Static dielectric constant tensor:
#      x y z
#    x 1.778310 0.000000 0.000000 
#    y 0.000000 1.782690 0.000000 
#    z 0.000000 0.000000 1.818390 
# 
# From -- ./inp_files/32818.got.cif
#   From: 2010.05.17/outbox.cif.g08.bks.cpg/sg63_17_cif.got.tgz:32818.got - 2010.06.03 15:47:04.
