data_PCOD9472092
_publ_section_title
;
Structure prediction by ZEFSAII (Michael W. Deem and Ramdas Pophale) SiO2 
 PCOD9472092
Probable space group: C M C M
;
_chemical_formula_sum "Si O2"
_cell_formula_units_Z 96
_cell_length_a 22.775537
_cell_length_b 24.560905
_cell_length_c 9.197004
_cell_angle_alpha 90.000000
_cell_angle_beta 90.000000
_cell_angle_gamma 90.000000
_cell_volume 5144.691839
_symmetry_space_group_name_H-M "C M C M"
_symmetry_group_IT_number 63
_symmetry_cell_setting 'orthorhombic'
loop_
_space_group_symop_operation_xyz
x,y,z
-x,-y,1/2+z
x,-y,-z
-x,y,1/2-z
-x,-y,-z
x,y,1/2-z
-x,y,z
x,-y,1/2+z
1/2+x,1/2+y,z
1/2-x,1/2-y,1/2+z
1/2+x,1/2-y,-z
1/2-x,1/2+y,1/2-z
1/2-x,1/2-y,-z
1/2+x,1/2+y,1/2-z
1/2-x,1/2+y,z
1/2+x,1/2-y,1/2+z
loop_
_atom_site_type_symbol
_atom_site_label
_atom_site_fract_x
_atom_site_fract_y
_atom_site_fract_z
Si Si1 0.432359 0.388806 0.922274
Si Si2 0.672300 0.447391 0.080913
Si Si3 0.069483 0.556106 0.075589
Si Si4 0.240838 0.834682 0.418235
Si Si5 0.863805 0.334847 0.575214
Si Si6 0.616621 0.715747 0.575086
O O1 0.420142 0.387984 0.750000
O O2 0.500000 0.404051 0.944765
O O3 0.387634 0.429004 0.002656
O O4 0.420449 0.329173 0.990301
O O5 0.661424 0.458960 0.250000
O O6 0.715344 0.395855 0.071711
O O7 0.696600 0.500000 0.000000
O O8 0.076246 0.550920 0.250000
O O9 0.104422 0.609833 0.026212
O O10 0.000000 0.563373 0.045487
O O11 0.088801 0.500000 0.000000
O O12 0.255571 0.823144 0.250000
O O13 0.298289 0.830697 0.514246
O O14 0.185308 0.796939 0.458676
O O15 0.861468 0.336176 0.750000
O O16 0.896250 0.278236 0.537059
O O17 0.609789 0.707627 0.750000
#
# Coordination Sequence:
#
# PCOD9472092 Si02
#       6
#    16  16  16  16  16  16
#     4  10  21  36  54  78 107 139 176 218 264 312
#     4  10  21  37  56  78 105 140 180 219 263 311
#     4   9  19  36  54  73 100 132 167 209 255 303
#     4   9  19  34  51  75 107 138 169 209 257 308
#     4  10  20  33  54  81 103 132 175 215 256 309
#     4   9  19  35  53  76 106 139 174 212 258 310
#
# _framework density 18.660011000000001
#
# number of rings (size 3 to 8) (size 9 to 14) (size 15 to 20)
#    0.000    2.500    0.000    2.500    0.000    7.667 
#    0.000    5.000    0.000    2.000    0.000    0.000 
#    0.000    0.000    0.000    0.000    0.000    0.000 
#
# Total GULP energy -267833.039351 kJ/mol
# GULP energy per Si atom -5579.854986 kJ/mol
# Density = 1.861754 g / cm^3
# Si number density = 18.660011 Si / 1000 Ang^3
#
#
#
# Elastic Constant Matrix: (Units=GPa)
#
#
# Indices 1 2 3 4 5 6 
#
# 1 7.8426 -7.8410 5.8058 0.0000 0.0000 0.0000
# 2 -7.8410 93.3373 17.5498 0.0000 0.0000 0.0000
# 3 5.8058 17.5498 33.1571 0.0000 0.0000 0.0000
# 4 0.0000 0.0000 0.0000 27.9720 0.0000 0.0000
# 5 0.0000 0.0000 0.0000 0.0000 27.2636 0.0000
# 6 0.0000 0.0000 0.0000 0.0000 0.0000 1.3923
#
#
#
# Elastic Compliance Matrix: (Units=1/GPa)
#
#
# Indices 1 2 3 4 5 6 
#
# 1 0.184885 0.024008 -0.045080 0.000000 0.000000 0.000000
# 2 0.024008 0.015015 -0.012151 0.000000 0.000000 0.000000
# 3 -0.045080 -0.012151 0.044484 0.000000 0.000000 0.000000
# 4 0.000000 0.000000 0.000000 0.035750 0.000000 0.000000
# 5 0.000000 0.000000 0.000000 0.000000 0.036679 0.000000
# 6 0.000000 0.000000 0.000000 0.000000 0.000000 0.718239
#
#
# Mechanical properties :
#
#
# Convention : Reuss Voigt Hill
#
# Bulk Modulus (GPa) = 5.61994 18.37399 11.99696
# Shear Modulus (GPa) = 4.30733 19.24707 11.77720
#
# Velocity S-wave (km/s) = 1.52096 3.21512 2.51499
# Velocity P-wave (km/s) = 2.47037 4.86321 3.85704
#
# Compressibility (1/GPa) = 0.17793792
#
# Stress axis : x y z
#
# Youngs Moduli (GPa) = 5.40876 66.59821 22.47978
#
# Poissons Ratio (x) = -1.59889 1.01339
# Poissons Ratio (y) = -0.12985 0.27316
# Poissons Ratio (z) = 0.24383 0.80925
#
# Static dielectric constant tensor:
#      x y z
#    x 1.620900 0.000000 0.000000 
#    y 0.000000 1.663440 0.000000 
#    z 0.000000 0.000000 1.628770 
# 
# From -- ./inp_files/10434.got.cif
#   From: 2010.05.17/outbox.cif.g08.bks.cpg/sg63_6_cif.got.tgz:10434.got - 2010.06.03 15:47:04.
