data_PCOD9472964
_publ_section_title
;
Structure prediction by ZEFSAII (Michael W. Deem and Ramdas Pophale) SiO2 
 PCOD9472964
Probable space group: C M C M
;
_chemical_formula_sum "Si O2"
_cell_formula_units_Z 80
_cell_length_a 27.221755
_cell_length_b 9.287541
_cell_length_c 14.637234
_cell_angle_alpha 90.000000
_cell_angle_beta 90.000000
_cell_angle_gamma 90.000000
_cell_volume 3700.631836
_symmetry_space_group_name_H-M "C M C M"
_symmetry_group_IT_number 63
_symmetry_cell_setting 'orthorhombic'
loop_
_space_group_symop_operation_xyz
x,y,z
-x,-y,1/2+z
x,-y,-z
-x,y,1/2-z
-x,-y,-z
x,y,1/2-z
-x,y,z
x,-y,1/2+z
1/2+x,1/2+y,z
1/2-x,1/2-y,1/2+z
1/2+x,1/2-y,-z
1/2-x,1/2+y,1/2-z
1/2-x,1/2-y,-z
1/2+x,1/2+y,1/2-z
1/2-x,1/2+y,z
1/2+x,1/2-y,1/2+z
loop_
_atom_site_type_symbol
_atom_site_label
_atom_site_fract_x
_atom_site_fract_y
_atom_site_fract_z
Si Si1 0.500000 0.063126 0.103096
Si Si2 0.200116 0.067436 0.361814
Si Si3 0.500000 0.397178 0.139178
Si Si4 0.598141 0.928014 0.401031
Si Si5 0.792439 0.610548 0.857043
Si Si6 0.092046 0.906964 0.638992
O O1 0.500000 0.235404 0.102001
O O2 0.449322 0.002313 0.144817
O O3 0.500000 0.000000 0.000000
O O4 0.201395 0.069380 0.250000
O O5 0.205285 0.230002 0.396952
O O6 0.246604 0.977643 0.394262
O O7 0.144636 0.022571 0.385189
O O8 0.500000 0.385002 0.250000
O O9 0.452358 0.489787 0.112497
O O10 0.589311 0.755433 0.400030
O O11 0.600774 0.000000 0.500000
O O12 0.652788 0.953501 0.362341
O O13 0.781956 0.628081 0.750000
O O14 0.090695 0.888818 0.750000
#
# Coordination Sequence:
#
# PCOD9472964 Si02
#       6
#     8  16   8  16  16  16
#     4  10  23  40  54  77 113 147 176 216 277 338
#     4   8  15  28  49  75 105 140 175 214 277 339
#     4  10  21  36  62  93 111 133 184 238 272 314
#     4  10  20  36  54  76 107 149 190 222 267 332
#     4   9  17  31  51  74 101 139 182 228 275 323
#     4   9  18  35  56  81 113 145 178 230 287 327
#
# _framework density 21.617930000000001
#
# number of rings (size 3 to 8) (size 9 to 14) (size 15 to 20)
#    0.000    2.800    0.000    2.400    0.000    3.200 
#    0.000   16.000    0.000    0.000    0.000    0.000 
#    0.000    0.000    0.000    0.000    0.000    0.000 
#
# Total GULP energy -223086.377294 kJ/mol
# GULP energy per Si atom -5577.159432 kJ/mol
# Density = 2.156873 g / cm^3
# Si number density = 21.617930 Si / 1000 Ang^3
#
#
#
# Elastic Constant Matrix: (Units=GPa)
#
#
# Indices 1 2 3 4 5 6 
#
# 1 256.2484 118.6899 5.9309 0.0000 0.0000 0.0000
# 2 118.6899 119.9773 19.3822 0.0000 0.0000 0.0000
# 3 5.9309 19.3822 60.2633 0.0000 0.0000 0.0000
# 4 0.0000 0.0000 0.0000 23.3215 0.0000 0.0000
# 5 0.0000 0.0000 0.0000 0.0000 46.3012 0.0000
# 6 0.0000 0.0000 0.0000 0.0000 0.0000 45.7960
#
#
#
# Elastic Compliance Matrix: (Units=1/GPa)
#
#
# Indices 1 2 3 4 5 6 
#
# 1 0.007366 -0.007563 0.001707 0.000000 0.000000 0.000000
# 2 -0.007563 0.016556 -0.004581 0.000000 0.000000 0.000000
# 3 0.001707 -0.004581 0.017899 0.000000 0.000000 0.000000
# 4 0.000000 0.000000 0.000000 0.042879 0.000000 0.000000
# 5 0.000000 0.000000 0.000000 0.000000 0.021598 0.000000
# 6 0.000000 0.000000 0.000000 0.000000 0.000000 0.021836
#
#
# Mechanical properties :
#
#
# Convention : Reuss Voigt Hill
#
# Bulk Modulus (GPa) = 47.73375 80.49944 64.11659
# Shear Modulus (GPa) = 32.05360 42.58282 37.31821
#
# Velocity S-wave (km/s) = 3.85480 4.44305 4.15934
# Velocity P-wave (km/s) = 6.47621 7.97741 7.26568
#
# Compressibility (1/GPa) = 0.02094954
#
# Stress axis : x y z
#
# Youngs Moduli (GPa) = 135.76218 60.39965 55.86878
#
# Poissons Ratio (x) = 0.45678 -0.09539
# Poissons Ratio (y) = 1.02672 0.25592
# Poissons Ratio (z) = -0.23180 0.27667
#
# Static dielectric constant tensor:
#      x y z
#    x 1.836030 0.000000 0.000000 
#    y 0.000000 1.748010 0.000000 
#    z 0.000000 0.000000 1.912790 
# 
# From -- ./inp_files/48865.got.cif
#   From: 2010.05.17/outbox.cif.g08.bks.cpg/sg63_25_cif.got.tgz:48865.got - 2010.06.03 15:47:04.
