data_PCOD9472811
_publ_section_title
;
Structure prediction by ZEFSAII (Michael W. Deem and Ramdas Pophale) SiO2 
 PCOD9472811
Probable space group: C M C M
;
_chemical_formula_sum "Si O2"
_cell_formula_units_Z 112
_cell_length_a 18.570353
_cell_length_b 12.395095
_cell_length_c 27.703007
_cell_angle_alpha 90.000000
_cell_angle_beta 90.000000
_cell_angle_gamma 90.000000
_cell_volume 6376.713878
_symmetry_space_group_name_H-M "C M C M"
_symmetry_group_IT_number 63
_symmetry_cell_setting 'orthorhombic'
loop_
_space_group_symop_operation_xyz
x,y,z
-x,-y,1/2+z
x,-y,-z
-x,y,1/2-z
-x,-y,-z
x,y,1/2-z
-x,y,z
x,-y,1/2+z
1/2+x,1/2+y,z
1/2-x,1/2-y,1/2+z
1/2+x,1/2-y,-z
1/2-x,1/2+y,1/2-z
1/2-x,1/2-y,-z
1/2+x,1/2+y,1/2-z
1/2-x,1/2+y,z
1/2+x,1/2-y,1/2+z
loop_
_atom_site_type_symbol
_atom_site_label
_atom_site_fract_x
_atom_site_fract_y
_atom_site_fract_z
Si Si1 0.416905 0.629788 0.955066
Si Si2 0.085421 0.018336 0.806767
Si Si3 0.176163 0.037061 0.396030
Si Si4 0.181224 0.228682 0.034823
Si Si5 0.912835 0.274255 0.696785
Si Si6 0.084292 0.358804 0.598306
Si Si7 0.312448 0.032117 0.946551
O O1 0.500000 0.608539 0.964258
O O2 0.381402 0.530025 0.927776
O O3 0.410923 0.737978 0.922673
O O4 0.375126 0.662741 0.002994
O O5 0.093959 0.990713 0.750000
O O6 0.100466 0.147012 0.811389
O O7 0.000000 0.001909 0.819070
O O8 0.140467 0.960624 0.843215
O O9 0.194172 0.153811 0.418799
O O10 0.249624 0.971381 0.406635
O O11 0.156372 0.347924 0.049564
O O12 0.250000 0.250000 0.000000
O O13 0.886215 0.303988 0.750000
O O14 0.887014 0.347553 0.652914
O O15 0.000000 0.283220 0.696828
O O16 0.129235 0.442848 0.567333
O O17 0.000000 0.388901 0.598268
O O18 0.282695 0.000000 0.000000
#
# Coordination Sequence:
#
# PCOD9472811 Si02
#       7
#    16  16  16  16  16  16  16
#     4  11  21  34  56  86 115 144 191 246 288 336
#     4   9  18  34  58  89 120 148 185 238 299 348
#     4  12  22  35  59  81 116 150 190 238 291 355
#     4  12  23  39  53  80 114 160 198 232 287 350
#     4   8  14  29  56  86 112 141 182 238 296 339
#     4  10  20  35  57  84 115 149 193 243 289 344
#     4  12  23  38  57  76 112 160 197 230 287 349
#
# _framework density 17.563905999999999
#
# number of rings (size 3 to 8) (size 9 to 14) (size 15 to 20)
#    0.000    1.429    5.714    1.714    0.000    2.571 
#    0.000    0.714    0.000    1.714    0.000    2.000 
#    0.000    0.000    0.000    0.000    0.000    0.000 
#
# Total GULP energy -312314.450550 kJ/mol
# GULP energy per Si atom -5577.043760 kJ/mol
# Density = 1.752393 g / cm^3
# Si number density = 17.563906 Si / 1000 Ang^3
#
#
#
# Elastic Constant Matrix: (Units=GPa)
#
#
# Indices 1 2 3 4 5 6 
#
# 1 64.5904 17.1404 32.3464 0.0000 0.0000 0.0000
# 2 17.1404 73.2376 30.3417 0.0000 0.0000 0.0000
# 3 32.3464 30.3417 98.4319 0.0000 0.0000 0.0000
# 4 0.0000 0.0000 0.0000 21.1385 0.0000 0.0000
# 5 0.0000 0.0000 0.0000 0.0000 29.6733 0.0000
# 6 0.0000 0.0000 0.0000 0.0000 0.0000 22.1486
#
#
#
# Elastic Compliance Matrix: (Units=1/GPa)
#
#
# Indices 1 2 3 4 5 6 
#
# 1 0.018812 -0.002111 -0.005531 0.000000 0.000000 0.000000
# 2 -0.002111 0.015890 -0.004204 0.000000 0.000000 0.000000
# 3 -0.005531 -0.004204 0.013273 0.000000 0.000000 0.000000
# 4 0.000000 0.000000 0.000000 0.047307 0.000000 0.000000
# 5 0.000000 0.000000 0.000000 0.000000 0.033700 0.000000
# 6 0.000000 0.000000 0.000000 0.000000 0.000000 0.045150
#
#
# Mechanical properties :
#
#
# Convention : Reuss Voigt Hill
#
# Bulk Modulus (GPa) = 41.18318 43.99077 42.58697
# Shear Modulus (GPa) = 24.28123 25.02083 24.65103
#
# Velocity S-wave (km/s) = 3.72217 3.77843 3.75040
# Velocity P-wave (km/s) = 6.47852 6.64348 6.56152
#
# Compressibility (1/GPa) = 0.02428176
#
# Stress axis : x y z
#
# Youngs Moduli (GPa) = 53.15618 62.93211 75.34103
#
# Poissons Ratio (x) = 0.13287 0.41673
# Poissons Ratio (y) = 0.11223 0.31676
# Poissons Ratio (z) = 0.29402 0.26459
#
# Static dielectric constant tensor:
#      x y z
#    x 1.598190 0.000000 0.000000 
#    y 0.000000 1.599640 0.000000 
#    z 0.000000 0.000000 1.657280 
# 
# From -- ./inp_files/70469.got.cif
#   From: 2010.05.17/outbox.cif.g08.bks.cpg/sg63_36_cif.got.tgz:70469.got - 2010.06.03 15:47:04.
