data_PCOD9472967
_publ_section_title
;
Structure prediction by ZEFSAII (Michael W. Deem and Ramdas Pophale) SiO2 
 PCOD9472967
Probable space group: C M C M
;
_chemical_formula_sum "Si O2"
_cell_formula_units_Z 96
_cell_length_a 20.458517
_cell_length_b 7.480173
_cell_length_c 28.956289
_cell_angle_alpha 90.000000
_cell_angle_beta 90.000000
_cell_angle_gamma 90.000000
_cell_volume 4431.274912
_symmetry_space_group_name_H-M "C M C M"
_symmetry_group_IT_number 63
_symmetry_cell_setting 'orthorhombic'
loop_
_space_group_symop_operation_xyz
x,y,z
-x,-y,1/2+z
x,-y,-z
-x,y,1/2-z
-x,-y,-z
x,y,1/2-z
-x,y,z
x,-y,1/2+z
1/2+x,1/2+y,z
1/2-x,1/2-y,1/2+z
1/2+x,1/2-y,-z
1/2-x,1/2+y,1/2-z
1/2-x,1/2-y,-z
1/2+x,1/2+y,1/2-z
1/2-x,1/2+y,z
1/2+x,1/2-y,1/2+z
loop_
_atom_site_type_symbol
_atom_site_label
_atom_site_fract_x
_atom_site_fract_y
_atom_site_fract_z
Si Si1 0.372196 0.488754 0.103388
Si Si2 0.231737 0.894154 0.037901
Si Si3 0.859454 0.574251 0.904213
Si Si4 0.336898 0.494900 0.700589
Si Si5 0.000000 0.448380 0.445632
Si Si6 0.000000 0.023059 0.053586
Si Si7 0.316616 0.929023 0.198213
O O1 0.358685 0.704370 0.097557
O O2 0.378174 0.448536 0.157030
O O3 0.436476 0.442335 0.076285
O O4 0.312649 0.377166 0.082258
O O5 0.300000 0.966838 0.059895
O O6 0.250000 0.750000 0.000000
O O7 0.187537 0.000000 0.000000
O O8 0.845157 0.509140 0.851502
O O9 0.929522 0.503853 0.922638
O O10 0.361008 0.558654 0.750000
O O11 0.334747 0.279790 0.700661
O O12 0.261805 0.554903 0.694554
O O13 0.000000 0.500000 0.500000
O O14 0.000000 0.234732 0.438569
O O15 0.000000 0.000000 0.000000
O O16 0.333470 0.005254 0.250000
#
# Coordination Sequence:
#
# PCOD9472967 Si02
#       7
#    16  16  16  16   8   8  16
#     4  10  20  36  54  79 105 140 181 217 271 318
#     4  12  22  33  51  79 107 137 179 227 264 313
#     4  10  20  36  55  78 107 141 176 225 268 315
#     4   9  17  31  52  78 106 133 170 219 269 319
#     4  10  22  40  55  75 107 145 184 218 264 318
#     4  10  22  38  57  71 109 149 178 218 262 325
#     4   9  17  31  52  79 106 135 171 217 271 320
#
# _framework density 21.664194999999999
#
# number of rings (size 3 to 8) (size 9 to 14) (size 15 to 20)
#    0.000    2.000    3.333    1.000    2.333    0.000 
#    0.000    0.833    0.000    5.000    0.000    0.000 
#    0.000    6.667    0.000    0.000    0.000    0.000 
#
# Total GULP energy -267237.157835 kJ/mol
# GULP energy per Si atom -5567.440788 kJ/mol
# Density = 2.161489 g / cm^3
# Si number density = 21.664195 Si / 1000 Ang^3
#
#
#
# Elastic Constant Matrix: (Units=GPa)
#
#
# Indices 1 2 3 4 5 6 
#
# 1 126.5885 -5.2985 89.5082 0.0000 0.0000 0.0000
# 2 -5.2985 37.3514 5.7594 0.0000 0.0000 0.0000
# 3 89.5082 5.7594 240.4991 0.0000 0.0000 0.0000
# 4 0.0000 0.0000 0.0000 20.4730 0.0000 0.0000
# 5 0.0000 0.0000 0.0000 0.0000 42.3788 0.0000
# 6 0.0000 0.0000 0.0000 0.0000 0.0000 32.1302
#
#
#
# Elastic Compliance Matrix: (Units=1/GPa)
#
#
# Indices 1 2 3 4 5 6 
#
# 1 0.010895 0.002179 -0.004107 0.000000 0.000000 0.000000
# 2 0.002179 0.027308 -0.001465 0.000000 0.000000 0.000000
# 3 -0.004107 -0.001465 0.005722 0.000000 0.000000 0.000000
# 4 0.000000 0.000000 0.000000 0.048845 0.000000 0.000000
# 5 0.000000 0.000000 0.000000 0.000000 0.023597 0.000000
# 6 0.000000 0.000000 0.000000 0.000000 0.000000 0.031123
#
#
# Mechanical properties :
#
#
# Convention : Reuss Voigt Hill
#
# Bulk Modulus (GPa) = 26.92663 64.93079 45.92871
# Shear Modulus (GPa) = 30.00221 39.96106 34.98163
#
# Velocity S-wave (km/s) = 3.72543 4.29950 4.02272
# Velocity P-wave (km/s) = 5.56428 7.39487 6.54390
#
# Compressibility (1/GPa) = 0.03713796
#
# Stress axis : x y z
#
# Youngs Moduli (GPa) = 91.78740 36.61975 174.77597
#
# Poissons Ratio (x) = -0.07979 0.71780
# Poissons Ratio (y) = -0.19998 0.25602
# Poissons Ratio (z) = 0.37697 0.05364
#
# Static dielectric constant tensor:
#      x y z
#    x 1.730190 0.000000 0.000000 
#    y 0.000000 1.973730 0.000000 
#    z 0.000000 0.000000 1.789780 
# 
# From -- ./inp_files/69912.got.cif
#   From: 2010.05.17/outbox.cif.g08.bks.cpg/sg63_35_cif.got.tgz:69912.got - 2010.06.03 15:47:04.
