data_PCOD9472026
_publ_section_title
;
Structure prediction by ZEFSAII (Michael W. Deem and Ramdas Pophale) SiO2 
 PCOD9472026
Probable space group: C M C M
;
_chemical_formula_sum "Si O2"
_cell_formula_units_Z 96
_cell_length_a 27.941989
_cell_length_b 19.446583
_cell_length_c 8.781619
_cell_angle_alpha 90.000000
_cell_angle_beta 90.000000
_cell_angle_gamma 90.000000
_cell_volume 4771.722835
_symmetry_space_group_name_H-M "C M C M"
_symmetry_group_IT_number 63
_symmetry_cell_setting 'orthorhombic'
loop_
_space_group_symop_operation_xyz
x,y,z
-x,-y,1/2+z
x,-y,-z
-x,y,1/2-z
-x,-y,-z
x,y,1/2-z
-x,y,z
x,-y,1/2+z
1/2+x,1/2+y,z
1/2-x,1/2-y,1/2+z
1/2+x,1/2-y,-z
1/2-x,1/2+y,1/2-z
1/2-x,1/2-y,-z
1/2+x,1/2+y,1/2-z
1/2-x,1/2+y,z
1/2+x,1/2-y,1/2+z
loop_
_atom_site_type_symbol
_atom_site_label
_atom_site_fract_x
_atom_site_fract_y
_atom_site_fract_z
Si Si1 0.346345 0.925550 0.566477
Si Si2 0.771610 0.318636 0.424899
Si Si3 0.693023 0.564723 0.924239
Si Si4 0.942986 0.218269 0.422396
Si Si5 0.554703 0.862395 0.567509
Si Si6 0.909892 0.071336 0.430757
O O1 0.343336 0.927466 0.750000
O O2 0.313738 0.861882 0.507419
O O3 0.401732 0.911176 0.518848
O O4 0.332202 0.000000 0.500000
O O5 0.786124 0.304469 0.250000
O O6 0.750000 0.250000 0.500000
O O7 0.727032 0.370738 0.424300
O O8 0.678924 0.549441 0.750000
O O9 0.719104 0.500000 0.000000
O O10 0.645804 0.574531 0.024308
O O11 0.922857 0.223475 0.250000
O O12 0.930259 0.285443 0.517583
O O13 0.930285 0.143774 0.488499
O O14 0.000000 0.219743 0.411071
O O15 0.552622 0.864891 0.750000
O O16 0.500000 0.876483 0.510772
O O17 0.917180 0.069119 0.250000
O O18 0.929159 0.000000 0.500000
#
# Coordination Sequence:
#
# PCOD9472026 Si02
#       6
#    16  16  16  16  16  16
#     4  11  24  42  65  94 127 163 204 252 305 364
#     4  11  25  42  62  90 122 159 200 247 300 357
#     4  10  21  37  57  80 109 147 189 235 285 341
#     4   9  19  35  54  79 112 149 192 243 299 358
#     4   9  20  39  62  89 121 158 201 249 303 363
#     4  10  20  33  52  79 109 148 192 240 292 348
#
# _framework density 20.118518999999999
#
# number of rings (size 3 to 8) (size 9 to 14) (size 15 to 20)
#    0.000    2.000    0.000    3.500    2.333    7.333 
#    0.000    0.000    0.000    0.000    0.000    0.000 
#    0.000    0.000    0.000    0.000    0.000    0.000 
#
# Total GULP energy -267675.054002 kJ/mol
# GULP energy per Si atom -5576.563625 kJ/mol
# Density = 2.007273 g / cm^3
# Si number density = 20.118519 Si / 1000 Ang^3
#
#
#
# Elastic Constant Matrix: (Units=GPa)
#
#
# Indices 1 2 3 4 5 6 
#
# 1 52.7361 52.9008 20.1250 0.0000 0.0000 0.0000
# 2 52.9008 121.2235 39.2818 0.0000 0.0000 0.0000
# 3 20.1250 39.2818 54.3463 0.0000 0.0000 0.0000
# 4 0.0000 0.0000 0.0000 34.0112 0.0000 0.0000
# 5 0.0000 0.0000 0.0000 0.0000 18.6128 0.0000
# 6 0.0000 0.0000 0.0000 0.0000 0.0000 33.1405
#
#
#
# Elastic Compliance Matrix: (Units=1/GPa)
#
#
# Indices 1 2 3 4 5 6 
#
# 1 0.033971 -0.014036 -0.002435 0.000000 0.000000 0.000000
# 2 -0.014036 0.016571 -0.006780 0.000000 0.000000 0.000000
# 3 -0.002435 -0.006780 0.024203 0.000000 0.000000 0.000000
# 4 0.000000 0.000000 0.000000 0.029402 0.000000 0.000000
# 5 0.000000 0.000000 0.000000 0.000000 0.053727 0.000000
# 6 0.000000 0.000000 0.000000 0.000000 0.000000 0.030175
#
#
# Mechanical properties :
#
#
# Convention : Reuss Voigt Hill
#
# Bulk Modulus (GPa) = 35.40591 50.32457 42.86524
# Shear Modulus (GPa) = 20.49477 24.88610 22.69043
#
# Velocity S-wave (km/s) = 3.19517 3.52088 3.36197
# Velocity P-wave (km/s) = 5.59008 6.44959 6.03516
#
# Compressibility (1/GPa) = 0.02824388
#
# Stress axis : x y z
#
# Youngs Moduli (GPa) = 29.43694 60.34496 41.31712
#
# Poissons Ratio (x) = 0.84698 0.10060
# Poissons Ratio (y) = 0.41317 0.28015
# Poissons Ratio (z) = 0.07167 0.40916
#
# Static dielectric constant tensor:
#      x y z
#    x 1.734290 0.000000 0.000000 
#    y 0.000000 1.792800 0.000000 
#    z 0.000000 0.000000 1.721110 
# 
# From -- ./inp_files/12340.got.cif
#   From: 2010.05.17/outbox.cif.g08.bks.cpg/sg63_7_cif.got.tgz:12340.got - 2010.06.03 15:47:04.
