data_PCOD9472083
_publ_section_title
;
Structure prediction by ZEFSAII (Michael W. Deem and Ramdas Pophale) SiO2 
 PCOD9472083
Probable space group: C M C M
;
_chemical_formula_sum "Si O2"
_cell_formula_units_Z 96
_cell_length_a 24.022171
_cell_length_b 26.120547
_cell_length_c 8.725396
_cell_angle_alpha 90.000000
_cell_angle_beta 90.000000
_cell_angle_gamma 90.000000
_cell_volume 5474.943831
_symmetry_space_group_name_H-M "C M C M"
_symmetry_group_IT_number 63
_symmetry_cell_setting 'orthorhombic'
loop_
_space_group_symop_operation_xyz
x,y,z
-x,-y,1/2+z
x,-y,-z
-x,y,1/2-z
-x,-y,-z
x,y,1/2-z
-x,y,z
x,-y,1/2+z
1/2+x,1/2+y,z
1/2-x,1/2-y,1/2+z
1/2+x,1/2-y,-z
1/2-x,1/2+y,1/2-z
1/2-x,1/2-y,-z
1/2+x,1/2+y,1/2-z
1/2-x,1/2+y,z
1/2+x,1/2-y,1/2+z
loop_
_atom_site_type_symbol
_atom_site_label
_atom_site_fract_x
_atom_site_fract_y
_atom_site_fract_z
Si Si1 0.864529 0.346902 0.433328
Si Si2 0.864185 0.152960 0.934683
Si Si3 0.249836 0.692449 0.067600
Si Si4 0.434850 0.754288 0.566432
Si Si5 0.064070 0.444342 0.434825
Si Si6 0.564240 0.444427 0.434941
O O1 0.857991 0.347957 0.250000
O O2 0.805157 0.336319 0.509343
O O3 0.904523 0.300147 0.479944
O O4 0.894355 0.399448 0.483606
O O5 0.856984 0.151418 0.750000
O O6 0.904291 0.201004 0.969165
O O7 0.894594 0.100799 0.983865
O O8 0.805116 0.163723 0.011248
O O9 0.249006 0.696218 0.250000
O O10 0.250000 0.750000 0.000000
O O11 0.429459 0.762596 0.750000
O O12 0.500000 0.751811 0.529119
O O13 0.078613 0.500000 0.500000
O O14 0.064975 0.446543 0.250000
O O15 0.000000 0.432733 0.481520
O O16 0.579228 0.500000 0.500000
O O17 0.565350 0.446384 0.250000
O O18 0.500000 0.433357 0.480482
#
# Coordination Sequence:
#
# PCOD9472083 Si02
#       6
#    16  16  16  16  16  16
#     4  11  22  37  57  82 113 148 187 232 281 332
#     4  10  20  36  57  81 112 148 188 231 278 332
#     4  12  24  39  58  81 110 148 190 232 280 336
#     4  10  20  33  53  82 113 145 182 226 279 338
#     4   9  19  36  58  84 114 147 183 226 277 331
#     4   9  18  34  57  84 115 150 186 228 278 331
#
# _framework density 17.534426
#
# number of rings (size 3 to 8) (size 9 to 14) (size 15 to 20)
#    0.000    1.833    1.667    3.000    0.000    5.000 
#    0.000    2.500    0.000    3.000    0.000    0.000 
#    0.000    0.000    0.000    0.000    0.000    0.000 
#
# Total GULP energy -268085.468704 kJ/mol
# GULP energy per Si atom -5585.113931 kJ/mol
# Density = 1.749452 g / cm^3
# Si number density = 17.534426 Si / 1000 Ang^3
#
#
#
# Elastic Constant Matrix: (Units=GPa)
#
#
# Indices 1 2 3 4 5 6 
#
# 1 162.7210 110.2790 59.7045 0.0000 0.0000 0.0000
# 2 110.2790 168.0694 55.0420 0.0000 0.0000 0.0000
# 3 59.7045 55.0420 46.7234 0.0000 0.0000 0.0000
# 4 0.0000 0.0000 0.0000 27.7592 0.0000 0.0000
# 5 0.0000 0.0000 0.0000 0.0000 26.0072 0.0000
# 6 0.0000 0.0000 0.0000 0.0000 0.0000 17.2624
#
#
#
# Elastic Compliance Matrix: (Units=1/GPa)
#
#
# Indices 1 2 3 4 5 6 
#
# 1 0.014090 -0.005452 -0.011582 0.000000 0.000000 0.000000
# 2 -0.005452 0.011797 -0.006930 0.000000 0.000000 0.000000
# 3 -0.011582 -0.006930 0.044366 0.000000 0.000000 0.000000
# 4 0.000000 0.000000 0.000000 0.036024 0.000000 0.000000
# 5 0.000000 0.000000 0.000000 0.000000 0.038451 0.000000
# 6 0.000000 0.000000 0.000000 0.000000 0.000000 0.057929
#
#
# Mechanical properties :
#
#
# Convention : Reuss Voigt Hill
#
# Bulk Modulus (GPa) = 44.79344 91.95164 68.37254
# Shear Modulus (GPa) = 19.37774 24.37166 21.87470
#
# Velocity S-wave (km/s) = 3.32795 3.73222 3.53587
# Velocity P-wave (km/s) = 6.35362 8.43369 7.46644
#
# Compressibility (1/GPa) = 0.02232470
#
# Stress axis : x y z
#
# Youngs Moduli (GPa) = 70.97204 84.76655 22.53966
#
# Poissons Ratio (x) = 0.46217 0.26105
# Poissons Ratio (y) = 0.38696 0.15621
# Poissons Ratio (z) = 0.82198 0.58747
#
# Static dielectric constant tensor:
#      x y z
#    x 1.580280 0.000000 0.000000 
#    y 0.000000 1.570750 0.000000 
#    z 0.000000 0.000000 1.592770 
# 
# From -- ./inp_files/8604.got.cif
#   From: 2010.05.17/outbox.cif.g08.bks.cpg/sg63_5_cif.got.tgz:8604.got - 2010.06.03 15:47:04.
