data_PCOD9472076
_publ_section_title
;
Structure prediction by ZEFSAII (Michael W. Deem and Ramdas Pophale) SiO2 
 PCOD9472076
Probable space group: C M C M
;
_chemical_formula_sum "Si O2"
_cell_formula_units_Z 96
_cell_length_a 24.144397
_cell_length_b 26.056180
_cell_length_c 8.757651
_cell_angle_alpha 90.000000
_cell_angle_beta 90.000000
_cell_angle_gamma 90.000000
_cell_volume 5509.532426
_symmetry_space_group_name_H-M "C M C M"
_symmetry_group_IT_number 63
_symmetry_cell_setting 'orthorhombic'
loop_
_space_group_symop_operation_xyz
x,y,z
-x,-y,1/2+z
x,-y,-z
-x,y,1/2-z
-x,-y,-z
x,y,1/2-z
-x,y,z
x,-y,1/2+z
1/2+x,1/2+y,z
1/2-x,1/2-y,1/2+z
1/2+x,1/2-y,-z
1/2-x,1/2+y,1/2-z
1/2-x,1/2-y,-z
1/2+x,1/2+y,1/2-z
1/2-x,1/2+y,z
1/2+x,1/2-y,1/2+z
loop_
_atom_site_type_symbol
_atom_site_label
_atom_site_fract_x
_atom_site_fract_y
_atom_site_fract_z
Si Si1 0.688925 0.944031 0.433945
Si Si2 0.615134 0.847620 0.434986
Si Si3 0.811183 0.249363 0.066217
Si Si4 0.500000 0.303633 0.565408
Si Si5 0.117819 0.849779 0.565911
Si Si6 0.683578 0.443926 0.432809
Si Si7 0.500000 0.811588 0.567886
O O1 0.687646 0.946752 0.250000
O O2 0.646536 0.899663 0.481749
O O3 0.752577 0.931093 0.478098
O O4 0.675737 0.000000 0.500000
O O5 0.610265 0.847301 0.250000
O O6 0.653483 0.799221 0.479386
O O7 0.555006 0.839328 0.505941
O O8 0.808075 0.249773 0.250000
O O9 0.843522 0.198043 0.019445
O O10 0.750000 0.250000 0.000000
O O11 0.500000 0.296969 0.750000
O O12 0.555294 0.334548 0.522972
O O13 0.500000 0.246942 0.494195
O O14 0.119735 0.854126 0.750000
O O15 0.142002 0.901200 0.494268
O O16 0.671283 0.500000 0.500000
O O17 0.681331 0.445827 0.250000
O O18 0.500000 0.810983 0.750000
#
# Coordination Sequence:
#
# PCOD9472076 Si02
#       7
#    16  16  16   8  16  16   8
#     4   9  19  35  58  83 110 146 184 224 275 330
#     4  10  20  38  58  77 108 152 188 218 275 343
#     4  10  20  33  53  80 111 143 180 225 276 333
#     4  10  20  40  61  76 107 152 191 225 273 339
#     4  10  20  35  57  81 106 144 187 227 273 328
#     4  10  20  36  58  84 115 146 181 227 275 330
#     4  12  24  36  55  84 111 142 187 239 279 317
#
# _framework density 17.424347000000001
#
# number of rings (size 3 to 8) (size 9 to 14) (size 15 to 20)
#    0.000    2.000    1.667    2.250    0.000    4.667 
#    0.000    0.833    0.000    0.000    0.000    0.000 
#    0.000    0.000    0.000    0.000    0.000    0.000 
#
# Total GULP energy -268016.313119 kJ/mol
# GULP energy per Si atom -5583.673190 kJ/mol
# Density = 1.738469 g / cm^3
# Si number density = 17.424347 Si / 1000 Ang^3
#
#
#
# Elastic Constant Matrix: (Units=GPa)
#
#
# Indices 1 2 3 4 5 6 
#
# 1 176.8345 109.9711 45.6645 0.0000 0.0000 0.0000
# 2 109.9711 154.4405 43.7770 0.0000 0.0000 0.0000
# 3 45.6645 43.7770 26.0312 0.0000 0.0000 0.0000
# 4 0.0000 0.0000 0.0000 29.4812 0.0000 0.0000
# 5 0.0000 0.0000 0.0000 0.0000 24.0970 0.0000
# 6 0.0000 0.0000 0.0000 0.0000 0.0000 21.9155
#
#
#
# Elastic Compliance Matrix: (Units=1/GPa)
#
#
# Indices 1 2 3 4 5 6 
#
# 1 0.012032 -0.004939 -0.012801 0.000000 0.000000 0.000000
# 2 -0.004939 0.014401 -0.015553 0.000000 0.000000 0.000000
# 3 -0.012801 -0.015553 0.087027 0.000000 0.000000 0.000000
# 4 0.000000 0.000000 0.000000 0.033920 0.000000 0.000000
# 5 0.000000 0.000000 0.000000 0.000000 0.041499 0.000000
# 6 0.000000 0.000000 0.000000 0.000000 0.000000 0.045630
#
#
# Mechanical properties :
#
#
# Convention : Reuss Voigt Hill
#
# Bulk Modulus (GPa) = 21.33415 84.01458 52.67437
# Shear Modulus (GPa) = 15.78683 25.62498 20.70591
#
# Velocity S-wave (km/s) = 3.01328 3.83906 3.45096
# Velocity P-wave (km/s) = 4.93730 8.24455 6.79520
#
# Compressibility (1/GPa) = 0.04687321
#
# Stress axis : x y z
#
# Youngs Moduli (GPa) = 83.10999 69.44123 11.49069
#
# Poissons Ratio (x) = 0.34299 0.14709
# Poissons Ratio (y) = 0.41050 0.17872
# Poissons Ratio (z) = 1.06388 1.08004
#
# Static dielectric constant tensor:
#      x y z
#    x 1.574690 0.000000 0.000000 
#    y 0.000000 1.564980 0.000000 
#    z 0.000000 0.000000 1.588820 
# 
# From -- ./inp_files/10542.got.cif
#   From: 2010.05.17/outbox.cif.g08.bks.cpg/sg63_6_cif.got.tgz:10542.got - 2010.06.03 15:47:04.
