data_PCOD9472598
_publ_section_title
;
Structure prediction by ZEFSAII (Michael W. Deem and Ramdas Pophale) SiO2 
 PCOD9472598
Probable space group: C M C M
;
_chemical_formula_sum "Si O2"
_cell_formula_units_Z 120
_cell_length_a 33.155057
_cell_length_b 16.338643
_cell_length_c 13.831163
_cell_angle_alpha 90.000000
_cell_angle_beta 90.000000
_cell_angle_gamma 90.000000
_cell_volume 7492.460498
_symmetry_space_group_name_H-M "C M C M"
_symmetry_group_IT_number 63
_symmetry_cell_setting 'orthorhombic'
loop_
_space_group_symop_operation_xyz
x,y,z
-x,-y,1/2+z
x,-y,-z
-x,y,1/2-z
-x,-y,-z
x,y,1/2-z
-x,y,z
x,-y,1/2+z
1/2+x,1/2+y,z
1/2-x,1/2-y,1/2+z
1/2+x,1/2-y,-z
1/2-x,1/2+y,1/2-z
1/2-x,1/2-y,-z
1/2+x,1/2+y,1/2-z
1/2-x,1/2+y,z
1/2+x,1/2-y,1/2+z
loop_
_atom_site_type_symbol
_atom_site_label
_atom_site_fract_x
_atom_site_fract_y
_atom_site_fract_z
Si Si1 0.317162 0.593878 0.973868
Si Si2 0.878958 0.799421 0.136679
Si Si3 0.451771 0.628792 0.554672
Si Si4 0.048744 0.049438 0.142946
Si Si5 0.674009 0.862475 0.862133
Si Si6 0.732446 0.309824 0.864004
Si Si7 0.237642 0.383414 0.137483
Si Si8 0.185486 0.500000 0.500000
O O1 0.356696 0.636382 0.932800
O O2 0.284082 0.601755 0.888913
O O3 0.323831 0.500000 0.000000
O O4 0.296716 0.640555 0.064862
O O5 0.876093 0.821659 0.250000
O O6 0.925231 0.801043 0.103033
O O7 0.854912 0.714915 0.124383
O O8 0.500000 0.641991 0.559278
O O9 0.442642 0.543856 0.611535
O O10 0.439627 0.609981 0.443622
O O11 0.064844 0.066995 0.250000
O O12 0.000000 0.053903 0.146308
O O13 0.672102 0.887619 0.750000
O O14 0.720813 0.836246 0.880764
O O15 0.662535 0.935704 0.933092
O O16 0.724056 0.324337 0.750000
O O17 0.728844 0.212445 0.882465
O O18 0.230014 0.398851 0.250000
O O19 0.212720 0.445244 0.071389
#
# Coordination Sequence:
#
# PCOD9472598 Si02
#       8
#    16  16  16  16  16  16  16   8
#     4  12  22  33  48  70  97 130 170 203 240 285
#     4  11  23  36  50  70 102 135 163 206 255 294
#     4   9  18  32  51  74  97 129 172 206 242 296
#     4   8  14  27  49  74  99 128 164 205 242 283
#     4  10  20  35  53  74  98 128 165 205 255 302
#     4  10  20  36  53  69  97 132 167 205 249 295
#     4  11  20  32  50  70  92 126 168 207 245 289
#     4  12  20  32  52  74  93 124 167 214 240 296
#
# _framework density 16.016100999999999
#
# number of rings (size 3 to 8) (size 9 to 14) (size 15 to 20)
#    0.000    1.733    3.333    3.200    1.867    2.933 
#    0.000    0.667    0.000    1.600    0.000    0.467 
#    0.000    0.000    0.000    0.000    0.000    0.000 
#
# Total GULP energy -334804.480554 kJ/mol
# GULP energy per Si atom -5580.074676 kJ/mol
# Density = 1.597965 g / cm^3
# Si number density = 16.016101 Si / 1000 Ang^3
#
#
#
# Elastic Constant Matrix: (Units=GPa)
#
#
# Indices 1 2 3 4 5 6 
#
# 1 57.7955 28.2000 38.8473 0.0000 0.0000 0.0000
# 2 28.2000 82.0067 61.0900 0.0000 0.0000 0.0000
# 3 38.8473 61.0900 120.3605 0.0000 0.0000 0.0000
# 4 0.0000 0.0000 0.0000 25.9486 0.0000 0.0000
# 5 0.0000 0.0000 0.0000 0.0000 19.8980 0.0000
# 6 0.0000 0.0000 0.0000 0.0000 0.0000 7.7932
#
#
#
# Elastic Compliance Matrix: (Units=1/GPa)
#
#
# Indices 1 2 3 4 5 6 
#
# 1 0.022807 -0.003793 -0.005436 0.000000 0.000000 0.000000
# 2 -0.003793 0.020239 -0.009048 0.000000 0.000000 0.000000
# 3 -0.005436 -0.009048 0.014655 0.000000 0.000000 0.000000
# 4 0.000000 0.000000 0.000000 0.038538 0.000000 0.000000
# 5 0.000000 0.000000 0.000000 0.000000 0.050256 0.000000
# 6 0.000000 0.000000 0.000000 0.000000 0.000000 0.128317
#
#
# Mechanical properties :
#
#
# Convention : Reuss Voigt Hill
#
# Bulk Modulus (GPa) = 47.28896 57.38192 52.33544
# Shear Modulus (GPa) = 15.70276 19.52965 17.61620
#
# Velocity S-wave (km/s) = 3.13459 3.49574 3.32008
# Velocity P-wave (km/s) = 6.53382 7.22489 6.88803
#
# Compressibility (1/GPa) = 0.02114658
#
# Stress axis : x y z
#
# Youngs Moduli (GPa) = 43.84633 49.41003 68.23511
#
# Poissons Ratio (x) = 0.18743 0.37091
# Poissons Ratio (y) = 0.16633 0.61739
# Poissons Ratio (z) = 0.23834 0.44706
#
# Static dielectric constant tensor:
#      x y z
#    x 1.542330 0.000000 0.000000 
#    y 0.000000 1.531940 0.000000 
#    z 0.000000 0.000000 1.572500 
# 
# From -- ./inp_files/38781.got.cif
#   From: 2010.05.17/outbox.cif.g08.bks.cpg/sg63_20_cif.got.tgz:38781.got - 2010.06.03 15:47:04.
