data_PCOD9472080
_publ_section_title
;
Structure prediction by ZEFSAII (Michael W. Deem and Ramdas Pophale) SiO2 
 PCOD9472080
Probable space group: C M C M
;
_chemical_formula_sum "Si O2"
_cell_formula_units_Z 112
_cell_length_a 13.720354
_cell_length_b 22.850054
_cell_length_c 18.815161
_cell_angle_alpha 90.000000
_cell_angle_beta 90.000000
_cell_angle_gamma 90.000000
_cell_volume 5898.756738
_symmetry_space_group_name_H-M "C M C M"
_symmetry_group_IT_number 63
_symmetry_cell_setting 'orthorhombic'
loop_
_space_group_symop_operation_xyz
x,y,z
-x,-y,1/2+z
x,-y,-z
-x,y,1/2-z
-x,-y,-z
x,y,1/2-z
-x,y,z
x,-y,1/2+z
1/2+x,1/2+y,z
1/2-x,1/2-y,1/2+z
1/2+x,1/2-y,-z
1/2-x,1/2+y,1/2-z
1/2-x,1/2-y,-z
1/2+x,1/2+y,1/2-z
1/2-x,1/2+y,z
1/2+x,1/2-y,1/2+z
loop_
_atom_site_type_symbol
_atom_site_label
_atom_site_fract_x
_atom_site_fract_y
_atom_site_fract_z
Si Si1 0.299358 0.940384 0.035219
Si Si2 0.615697 0.184567 0.494673
Si Si3 0.893080 0.841594 0.167107
Si Si4 0.609497 0.673809 0.173745
Si Si5 0.611762 0.429484 0.935918
Si Si6 0.187074 0.030583 0.666949
Si Si7 0.749439 0.751141 0.394695
O O1 0.280808 0.952484 0.118549
O O2 0.358647 0.881770 0.017984
O O3 0.192317 0.932479 0.997719
O O4 0.340332 0.000000 0.000000
O O5 0.500000 0.192180 0.489045
O O6 0.665835 0.229463 0.550060
O O7 0.674842 0.202968 0.424120
O O8 0.887179 0.823975 0.250000
O O9 0.877801 0.910946 0.165330
O O10 0.810747 0.808271 0.124155
O O11 0.000000 0.826356 0.139142
O O12 0.616792 0.642125 0.250000
O O13 0.500000 0.698284 0.169592
O O14 0.621811 0.630778 0.107420
O O15 0.690401 0.723072 0.169269
O O16 0.500000 0.435021 0.961225
O O17 0.635532 0.479055 0.877191
O O18 0.206020 0.016529 0.750000
#
# Coordination Sequence:
#
# PCOD9472080 Si02
#       7
#    16  16  16  16  16  16  16
#     4  10  21  39  59  84 110 148 190 235 284 334
#     4  11  23  39  59  83 109 147 195 239 289 339
#     4  10  20  33  53  81 112 149 187 224 275 339
#     4  10  20  34  56  85 116 152 189 228 280 339
#     4  10  20  35  56  85 119 150 185 230 282 339
#     4  10  20  35  56  83 118 150 182 228 282 338
#     4  11  21  38  55  80 114 151 185 240 282 337
#
# _framework density 18.987051000000001
#
# number of rings (size 3 to 8) (size 9 to 14) (size 15 to 20)
#    0.000    1.714    2.857    2.143    0.000    4.857 
#    0.000    0.000    0.000    1.286    0.000    0.000 
#    0.000    0.000    0.000    0.000    0.000    0.000 
#
# Total GULP energy -312378.770114 kJ/mol
# GULP energy per Si atom -5578.192323 kJ/mol
# Density = 1.894384 g / cm^3
# Si number density = 18.987051 Si / 1000 Ang^3
#
#
#
# Elastic Constant Matrix: (Units=GPa)
#
#
# Indices 1 2 3 4 5 6 
#
# 1 111.4341 36.5438 32.2406 0.0000 0.0000 0.0000
# 2 36.5438 59.5452 3.0496 0.0000 0.0000 0.0000
# 3 32.2406 3.0496 75.7522 0.0000 0.0000 0.0000
# 4 0.0000 0.0000 0.0000 24.1532 0.0000 0.0000
# 5 0.0000 0.0000 0.0000 0.0000 13.8889 0.0000
# 6 0.0000 0.0000 0.0000 0.0000 0.0000 20.5260
#
#
#
# Elastic Compliance Matrix: (Units=1/GPa)
#
#
# Indices 1 2 3 4 5 6 
#
# 1 0.013020 -0.007723 -0.005230 0.000000 0.000000 0.000000
# 2 -0.007723 0.021409 0.002425 0.000000 0.000000 0.000000
# 3 -0.005230 0.002425 0.015329 0.000000 0.000000 0.000000
# 4 0.000000 0.000000 0.000000 0.041402 0.000000 0.000000
# 5 0.000000 0.000000 0.000000 0.000000 0.072000 0.000000
# 6 0.000000 0.000000 0.000000 0.000000 0.000000 0.048719
#
#
# Mechanical properties :
#
#
# Convention : Reuss Voigt Hill
#
# Bulk Modulus (GPa) = 34.84047 43.37775 39.10911
# Shear Modulus (GPa) = 20.61830 23.37344 21.99587
#
# Velocity S-wave (km/s) = 3.29890 3.51240 3.40732
# Velocity P-wave (km/s) = 5.73583 6.27254 6.01018
#
# Compressibility (1/GPa) = 0.02870225
#
# Stress axis : x y z
#
# Youngs Moduli (GPa) = 76.80646 46.70880 65.23413
#
# Poissons Ratio (x) = 0.36071 0.34120
# Poissons Ratio (y) = 0.59314 -0.15818
# Poissons Ratio (z) = 0.40173 -0.11326
#
# Static dielectric constant tensor:
#      x y z
#    x 1.640100 0.000000 0.000000 
#    y 0.000000 1.662340 0.000000 
#    z 0.000000 0.000000 1.698560 
# 
# From -- ./inp_files/53128.got.cif
#   From: 2010.05.17/outbox.cif.g08.bks.cpg/sg63_27_cif.got.tgz:53128.got - 2010.06.03 15:47:04.
