data_PCOD9472503
_publ_section_title
;
Structure prediction by ZEFSAII (Michael W. Deem and Ramdas Pophale) SiO2 
 PCOD9472503
Probable space group: C M C M
;
_chemical_formula_sum "Si O2"
_cell_formula_units_Z 96
_cell_length_a 8.039056
_cell_length_b 31.352579
_cell_length_c 17.080438
_cell_angle_alpha 90.000000
_cell_angle_beta 90.000000
_cell_angle_gamma 90.000000
_cell_volume 4305.041358
_symmetry_space_group_name_H-M "C M C M"
_symmetry_group_IT_number 63
_symmetry_cell_setting 'orthorhombic'
loop_
_space_group_symop_operation_xyz
x,y,z
-x,-y,1/2+z
x,-y,-z
-x,y,1/2-z
-x,-y,-z
x,y,1/2-z
-x,y,z
x,-y,1/2+z
1/2+x,1/2+y,z
1/2-x,1/2-y,1/2+z
1/2+x,1/2-y,-z
1/2-x,1/2+y,1/2-z
1/2-x,1/2-y,-z
1/2+x,1/2+y,1/2-z
1/2-x,1/2+y,z
1/2+x,1/2-y,1/2+z
loop_
_atom_site_type_symbol
_atom_site_label
_atom_site_fract_x
_atom_site_fract_y
_atom_site_fract_z
Si Si1 0.696541 0.794483 0.569758
Si Si2 0.192931 0.795257 0.393429
Si Si3 0.691220 0.469308 0.842622
Si Si4 0.701291 0.622737 0.159334
Si Si5 0.799314 0.886608 0.338733
Si Si6 0.814276 0.536559 0.941754
O O1 0.500000 0.788092 0.553437
O O2 0.790565 0.798635 0.487444
O O3 0.758473 0.752983 0.618557
O O4 0.722191 0.837852 0.615325
O O5 0.264857 0.838515 0.356635
O O6 0.000000 0.794705 0.368907
O O7 0.686940 0.463212 0.750000
O O8 0.500000 0.479071 0.865712
O O9 0.745046 0.423521 0.876376
O O10 0.807941 0.507856 0.863862
O O11 0.752398 0.624690 0.250000
O O12 0.500000 0.624875 0.156447
O O13 0.745701 0.899346 0.250000
O O14 0.756635 0.918830 0.409996
O O15 0.000000 0.885538 0.337355
O O16 0.000000 0.544316 0.970914
O O17 0.736249 0.500000 0.000000
#
# Coordination Sequence:
#
# PCOD9472503 Si02
#       6
#    16  16  16  16  16  16
#     4  10  20  34  56  85 118 151 189 237 284 335
#     4   9  20  38  58  82 113 153 192 232 284 337
#     4   9  19  37  59  81 107 144 189 231 273 329
#     4   9  19  35  55  81 113 148 186 229 277 332
#     4  10  22  41  64  87 112 149 199 245 284 338
#     4  11  25  40  55  83 119 149 182 232 291 346
#
# _framework density 22.299437000000001
#
# number of rings (size 3 to 8) (size 9 to 14) (size 15 to 20)
#    0.000    2.333    0.000    2.500    2.333    7.000 
#    0.000    3.333    0.000    0.000    0.000    0.000 
#    0.000    0.000    0.000    0.000    0.000    0.000 
#
# Total GULP energy -267439.805398 kJ/mol
# GULP energy per Si atom -5571.662612 kJ/mol
# Density = 2.224868 g / cm^3
# Si number density = 22.299437 Si / 1000 Ang^3
#
#
#
# Elastic Constant Matrix: (Units=GPa)
#
#
# Indices 1 2 3 4 5 6 
#
# 1 25.9043 11.5017 3.8132 0.0000 0.0000 0.0000
# 2 11.5017 102.7313 4.4826 0.0000 0.0000 0.0000
# 3 3.8132 4.4826 23.0393 0.0000 0.0000 0.0000
# 4 0.0000 0.0000 0.0000 30.4086 0.0000 0.0000
# 5 0.0000 0.0000 0.0000 0.0000 14.6243 0.0000
# 6 0.0000 0.0000 0.0000 0.0000 0.0000 25.4149
#
#
#
# Elastic Compliance Matrix: (Units=1/GPa)
#
#
# Indices 1 2 3 4 5 6 
#
# 1 0.041431 -0.004376 -0.006006 0.000000 0.000000 0.000000
# 2 -0.004376 0.010280 -0.001276 0.000000 0.000000 0.000000
# 3 -0.006006 -0.001276 0.044646 0.000000 0.000000 0.000000
# 4 0.000000 0.000000 0.000000 0.032885 0.000000 0.000000
# 5 0.000000 0.000000 0.000000 0.000000 0.068379 0.000000
# 6 0.000000 0.000000 0.000000 0.000000 0.000000 0.039347
#
#
# Mechanical properties :
#
#
# Convention : Reuss Voigt Hill
#
# Bulk Modulus (GPa) = 13.69091 21.25222 17.47156
# Shear Modulus (GPa) = 17.56658 22.88140 20.22399
#
# Velocity S-wave (km/s) = 2.80975 3.20675 3.01479
# Velocity P-wave (km/s) = 4.08401 4.82308 4.46885
#
# Compressibility (1/GPa) = 0.07304117
#
# Stress axis : x y z
#
# Youngs Moduli (GPa) = 24.13661 97.27833 22.39824
#
# Poissons Ratio (x) = 0.42574 0.13452
# Poissons Ratio (y) = 0.10563 0.02857
# Poissons Ratio (z) = 0.14496 0.12410
#
# Static dielectric constant tensor:
#      x y z
#    x 1.850530 0.000000 0.000000 
#    y 0.000000 1.865350 0.000000 
#    z 0.000000 0.000000 1.892420 
# 
# From -- ./inp_files/51371.got.cif
#   From: 2010.05.17/outbox.cif.g08.bks.cpg/sg63_26_cif.got.tgz:51371.got - 2010.06.03 15:47:04.
