data_PCOD9472548
_publ_section_title
;
Structure prediction by ZEFSAII (Michael W. Deem and Ramdas Pophale) SiO2 
 PCOD9472548
Probable space group: C M C M
;
_chemical_formula_sum "Si O2"
_cell_formula_units_Z 100
_cell_length_a 9.141556
_cell_length_b 30.459324
_cell_length_c 20.250128
_cell_angle_alpha 90.000000
_cell_angle_beta 90.000000
_cell_angle_gamma 90.000000
_cell_volume 5638.559366
_symmetry_space_group_name_H-M "C M C M"
_symmetry_group_IT_number 63
_symmetry_cell_setting 'orthorhombic'
loop_
_space_group_symop_operation_xyz
x,y,z
-x,-y,1/2+z
x,-y,-z
-x,y,1/2-z
-x,-y,-z
x,y,1/2-z
-x,y,z
x,-y,1/2+z
1/2+x,1/2+y,z
1/2-x,1/2-y,1/2+z
1/2+x,1/2-y,-z
1/2-x,1/2+y,1/2-z
1/2-x,1/2-y,-z
1/2+x,1/2+y,1/2-z
1/2-x,1/2+y,z
1/2+x,1/2-y,1/2+z
loop_
_atom_site_type_symbol
_atom_site_label
_atom_site_fract_x
_atom_site_fract_y
_atom_site_fract_z
Si Si1 0.326502 0.216505 0.408144
Si Si2 0.160477 0.480120 0.382670
Si Si3 0.173471 0.306156 0.437664
Si Si4 0.824307 0.140200 0.173003
Si Si5 0.673153 0.563891 0.071482
Si Si6 0.000000 0.501000 0.750000
Si Si7 0.673258 0.397400 0.425534
O O1 0.500000 0.220752 0.397733
O O2 0.248541 0.263681 0.405297
O O3 0.303438 0.198926 0.483117
O O4 0.256126 0.182023 0.357997
O O5 0.239006 0.519062 0.421558
O O6 0.124730 0.496308 0.308910
O O7 0.256822 0.436427 0.383239
O O8 0.000000 0.469702 0.412488
O O9 0.247314 0.351193 0.415035
O O10 0.000000 0.306218 0.425530
O O11 0.788815 0.134364 0.250000
O O12 0.784712 0.097682 0.129531
O O13 0.000000 0.146151 0.166729
O O14 0.500000 0.554412 0.077005
O O15 0.696985 0.587540 0.001577
O O16 0.500000 0.393255 0.414881
#
# Coordination Sequence:
#
# PCOD9472548 Si02
#       7
#    16  16  16  16  16   4  16
#     4  10  20  35  55  83 115 149 190 237 286 338
#     4  10  22  39  59  78 116 152 194 238 290 347
#     4  10  20  34  58  85 114 149 187 234 290 346
#     4  10  21  36  56  81 117 159 196 234 289 352
#     4  10  21  36  57  88 121 151 192 241 292 351
#     4   8  24  44  56  80 112 160 200 244 288 348
#     4  11  21  36  60  91 119 148 190 246 300 347
#
# _framework density 17.735025
#
# number of rings (size 3 to 8) (size 9 to 14) (size 15 to 20)
#    0.480    1.440    1.600    2.400    1.120    5.440 
#    0.000    1.200    1.760    0.000    0.000    0.000 
#    0.000    0.000    0.000    0.000    0.000    0.000 
#
# Total GULP energy -278509.025864 kJ/mol
# GULP energy per Si atom -5570.180517 kJ/mol
# Density = 1.769466 g / cm^3
# Si number density = 17.735025 Si / 1000 Ang^3
#
#
#
# Elastic Constant Matrix: (Units=GPa)
#
#
# Indices 1 2 3 4 5 6 
#
# 1 43.4915 30.9350 5.5381 0.0000 0.0000 0.0000
# 2 30.9350 84.4627 -9.6373 0.0000 0.0000 0.0000
# 3 5.5381 -9.6373 31.5417 0.0000 0.0000 0.0000
# 4 0.0000 0.0000 0.0000 9.6246 0.0000 0.0000
# 5 0.0000 0.0000 0.0000 0.0000 30.2175 0.0000
# 6 0.0000 0.0000 0.0000 0.0000 0.0000 35.9445
#
#
#
# Elastic Compliance Matrix: (Units=1/GPa)
#
#
# Indices 1 2 3 4 5 6 
#
# 1 0.033944 -0.013586 -0.010111 0.000000 0.000000 0.000000
# 2 -0.013586 0.017705 0.007795 0.000000 0.000000 0.000000
# 3 -0.010111 0.007795 0.035861 0.000000 0.000000 0.000000
# 4 0.000000 0.000000 0.000000 0.103900 0.000000 0.000000
# 5 0.000000 0.000000 0.000000 0.000000 0.033093 0.000000
# 6 0.000000 0.000000 0.000000 0.000000 0.000000 0.027821
#
#
# Mechanical properties :
#
#
# Convention : Reuss Voigt Hill
#
# Bulk Modulus (GPa) = 17.95129 23.68526 20.81828
# Shear Modulus (GPa) = 16.51821 24.00135 20.25978
#
# Velocity S-wave (km/s) = 3.05518 3.68275 3.38355
# Velocity P-wave (km/s) = 4.75283 5.60960 5.19890
#
# Compressibility (1/GPa) = 0.05570631
#
# Stress axis : x y z
#
# Youngs Moduli (GPa) = 29.46040 56.48174 27.88540
#
# Poissons Ratio (x) = 0.76735 0.28195
# Poissons Ratio (y) = 0.40024 -0.21737
# Poissons Ratio (z) = 0.29787 -0.44027
#
# Static dielectric constant tensor:
#      x y z
#    x 1.602500 0.000000 0.000000 
#    y 0.000000 1.580010 0.000000 
#    z 0.000000 0.000000 1.592060 
# 
# From -- ./inp_files/51467.got.cif
#   From: 2010.05.17/outbox.cif.g08.bks.cpg/sg63_26_cif.got.tgz:51467.got - 2010.06.03 15:47:04.
