data_PCOD9472452
_publ_section_title
;
Structure prediction by ZEFSAII (Michael W. Deem and Ramdas Pophale) SiO2 
 PCOD9472452
Probable space group: C M C M
;
_chemical_formula_sum "Si O2"
_cell_formula_units_Z 96
_cell_length_a 7.475598
_cell_length_b 20.925196
_cell_length_c 27.740936
_cell_angle_alpha 90.000000
_cell_angle_beta 90.000000
_cell_angle_gamma 90.000000
_cell_volume 4339.468939
_symmetry_space_group_name_H-M "C M C M"
_symmetry_group_IT_number 63
_symmetry_cell_setting 'orthorhombic'
loop_
_space_group_symop_operation_xyz
x,y,z
-x,-y,1/2+z
x,-y,-z
-x,y,1/2-z
-x,-y,-z
x,y,1/2-z
-x,y,z
x,-y,1/2+z
1/2+x,1/2+y,z
1/2-x,1/2-y,1/2+z
1/2+x,1/2-y,-z
1/2-x,1/2+y,1/2-z
1/2-x,1/2-y,-z
1/2+x,1/2+y,1/2-z
1/2-x,1/2+y,z
1/2+x,1/2-y,1/2+z
loop_
_atom_site_type_symbol
_atom_site_label
_atom_site_fract_x
_atom_site_fract_y
_atom_site_fract_z
Si Si1 0.790201 0.186007 0.870257
Si Si2 0.286955 0.319914 0.021292
Si Si3 0.719035 0.196916 0.305535
Si Si4 0.281135 0.064804 0.144981
Si Si5 0.792765 0.446585 0.535922
Si Si6 0.783860 0.434503 0.304512
O O1 0.717610 0.244244 0.838348
O O2 0.773071 0.121409 0.840163
O O3 0.000000 0.200524 0.877106
O O4 0.715717 0.178206 0.923968
O O5 0.500000 0.329942 0.021926
O O6 0.212768 0.377530 0.989197
O O7 0.250000 0.250000 0.000000
O O8 0.776366 0.202315 0.250000
O O9 0.500000 0.197974 0.304909
O O10 0.774750 0.130390 0.329725
O O11 0.500000 0.066294 0.144469
O O12 0.217447 0.058220 0.089856
O O13 0.226114 0.003105 0.175438
O O14 0.713306 0.500000 0.500000
O O15 0.000000 0.465596 0.542950
O O16 0.721041 0.423289 0.250000
O O17 0.000000 0.434705 0.303806
#
# Coordination Sequence:
#
# PCOD9472452 Si02
#       6
#    16  16  16  16  16  16
#     4  10  21  36  54  77 106 141 178 218 269 329
#     4  11  23  38  57  81 110 144 185 234 284 336
#     4   9  16  28  49  74  98 128 169 214 256 304
#     4   9  17  31  51  76 106 137 173 217 263 313
#     4  10  20  35  56  80 109 147 186 225 273 329
#     4  10  20  34  55  83 111 140 177 221 267 316
#
# _framework density 22.122523999999999
#
# number of rings (size 3 to 8) (size 9 to 14) (size 15 to 20)
#    0.000    2.167    0.000    3.500    0.000    8.667 
#    0.000    0.833    0.000    1.000    0.000    0.000 
#    0.000    0.000    0.000    0.000    0.000    0.000 
#
# Total GULP energy -268352.844185 kJ/mol
# GULP energy per Si atom -5590.684254 kJ/mol
# Density = 2.207217 g / cm^3
# Si number density = 22.122524 Si / 1000 Ang^3
#
#
#
# Elastic Constant Matrix: (Units=GPa)
#
#
# Indices 1 2 3 4 5 6 
#
# 1 61.6547 -25.3463 -9.2975 0.0000 0.0000 0.0000
# 2 -25.3463 76.1577 2.5857 0.0000 0.0000 0.0000
# 3 -9.2975 2.5857 133.9206 0.0000 0.0000 0.0000
# 4 0.0000 0.0000 0.0000 49.1398 0.0000 0.0000
# 5 0.0000 0.0000 0.0000 0.0000 2.6736 0.0000
# 6 0.0000 0.0000 0.0000 0.0000 0.0000 18.9237
#
#
#
# Elastic Compliance Matrix: (Units=1/GPa)
#
#
# Indices 1 2 3 4 5 6 
#
# 1 0.018980 0.006276 0.001197 0.000000 0.000000 0.000000
# 2 0.006276 0.015215 0.000142 0.000000 0.000000 0.000000
# 3 0.001197 0.000142 0.007547 0.000000 0.000000 0.000000
# 4 0.000000 0.000000 0.000000 0.020350 0.000000 0.000000
# 5 0.000000 0.000000 0.000000 0.000000 0.374033 0.000000
# 6 0.000000 0.000000 0.000000 0.000000 0.000000 0.052844
#
#
# Mechanical properties :
#
#
# Convention : Reuss Voigt Hill
#
# Bulk Modulus (GPa) = 17.55271 23.06853 20.31062
# Shear Modulus (GPa) = 10.14754 34.40015 22.27385
#
# Velocity S-wave (km/s) = 2.14405 3.94761 3.17652
# Velocity P-wave (km/s) = 3.75244 5.58824 4.75968
#
# Compressibility (1/GPa) = 0.05697126
#
# Stress axis : x y z
#
# Youngs Moduli (GPa) = 52.68723 65.72624 132.49530
#
# Poissons Ratio (x) = -0.41251 -0.15853
# Poissons Ratio (y) = -0.33067 -0.01881
# Poissons Ratio (z) = -0.06304 -0.00933
#
# Static dielectric constant tensor:
#      x y z
#    x 1.861750 0.000000 0.000000 
#    y 0.000000 1.741260 0.000000 
#    z 0.000000 0.000000 1.787330 
# 
# From -- ./inp_files/61497.got.cif
#   From: 2010.05.17/outbox.cif.g08.bks.cpg/sg63_31_cif.got.tgz:61497.got - 2010.06.03 15:47:04.
