data_PCOD9472507
_publ_section_title
;
Structure prediction by ZEFSAII (Michael W. Deem and Ramdas Pophale) SiO2 
 PCOD9472507
Probable space group: C M C M
;
_chemical_formula_sum "Si O2"
_cell_formula_units_Z 72
_cell_length_a 17.303343
_cell_length_b 25.346304
_cell_length_c 8.402266
_cell_angle_alpha 90.000000
_cell_angle_beta 90.000000
_cell_angle_gamma 90.000000
_cell_volume 3685.030465
_symmetry_space_group_name_H-M "C M C M"
_symmetry_group_IT_number 63
_symmetry_cell_setting 'orthorhombic'
loop_
_space_group_symop_operation_xyz
x,y,z
-x,-y,1/2+z
x,-y,-z
-x,y,1/2-z
-x,-y,-z
x,y,1/2-z
-x,y,z
x,-y,1/2+z
1/2+x,1/2+y,z
1/2-x,1/2-y,1/2+z
1/2+x,1/2-y,-z
1/2-x,1/2+y,1/2-z
1/2-x,1/2-y,-z
1/2+x,1/2+y,1/2-z
1/2-x,1/2+y,z
1/2+x,1/2-y,1/2+z
loop_
_atom_site_type_symbol
_atom_site_label
_atom_site_fract_x
_atom_site_fract_y
_atom_site_fract_z
Si Si1 0.914962 0.740256 0.943919
Si Si2 0.375386 0.357949 0.559971
Si Si3 0.000000 0.060007 0.938266
Si Si4 0.911998 0.557550 0.558252
Si Si5 0.701387 0.151169 0.556922
O O1 0.913468 0.739483 0.750000
O O2 0.907080 0.800855 0.995224
O O3 0.843201 0.704322 0.996120
O O4 0.000000 0.719586 0.991274
O O5 0.382897 0.359531 0.750000
O O6 0.425561 0.406106 0.493459
O O7 0.285904 0.357712 0.512106
O O8 0.000000 0.057839 0.750000
O O9 0.000000 0.000000 0.000000
O O10 0.887513 0.500000 0.500000
O O11 0.913461 0.557631 0.750000
O O12 0.854180 0.603169 0.508264
O O13 0.000000 0.566776 0.502075
O O14 0.706848 0.152216 0.750000
#
# Coordination Sequence:
#
# PCOD9472507 Si02
#       5
#    16  16   8  16  16
#     4   9  17  33  59  86 117 157 199 245 300 356
#     4  11  22  39  61  87 121 155 192 243 303 359
#     4  12  26  46  70  92 116 152 201 250 301 362
#     4   9  18  33  53  77 108 148 192 237 287 342
#     4  10  20  34  56  86 117 154 202 247 293 354
#
# _framework density 19.538509000000001
#
# number of rings (size 3 to 8) (size 9 to 14) (size 15 to 20)
#    0.000    2.000    1.111    3.000    0.000    4.444 
#    0.000    3.333    0.000    1.333    0.000    0.000 
#    0.000    0.000    0.000    0.000    0.000    0.000 
#
# Total GULP energy -201009.430079 kJ/mol
# GULP energy per Si atom -5583.595280 kJ/mol
# Density = 1.949404 g / cm^3
# Si number density = 19.538509 Si / 1000 Ang^3
#
#
#
# Elastic Constant Matrix: (Units=GPa)
#
#
# Indices 1 2 3 4 5 6 
#
# 1 142.4820 98.0486 30.4180 0.0000 0.0000 0.0000
# 2 98.0486 159.1410 36.1613 0.0000 0.0000 0.0000
# 3 30.4180 36.1613 35.9086 0.0000 0.0000 0.0000
# 4 0.0000 0.0000 0.0000 22.9761 0.0000 0.0000
# 5 0.0000 0.0000 0.0000 0.0000 23.4180 0.0000
# 6 0.0000 0.0000 0.0000 0.0000 0.0000 5.4187
#
#
#
# Elastic Compliance Matrix: (Units=1/GPa)
#
#
# Indices 1 2 3 4 5 6 
#
# 1 0.012550 -0.006894 -0.003688 0.000000 0.000000 0.000000
# 2 -0.006894 0.011935 -0.006179 0.000000 0.000000 0.000000
# 3 -0.003688 -0.006179 0.037196 0.000000 0.000000 0.000000
# 4 0.000000 0.000000 0.000000 0.043524 0.000000 0.000000
# 5 0.000000 0.000000 0.000000 0.000000 0.042702 0.000000
# 6 0.000000 0.000000 0.000000 0.000000 0.000000 0.184546
#
#
# Mechanical properties :
#
#
# Convention : Reuss Voigt Hill
#
# Bulk Modulus (GPa) = 35.51472 74.08749 54.80111
# Shear Modulus (GPa) = 13.32045 21.88945 17.60495
#
# Velocity S-wave (km/s) = 2.61387 3.35075 3.00499
# Velocity P-wave (km/s) = 5.22743 7.27812 6.33629
#
# Compressibility (1/GPa) = 0.02815734
#
# Stress axis : x y z
#
# Youngs Moduli (GPa) = 79.68117 83.78426 26.88466
#
# Poissons Ratio (x) = 0.57762 0.09916
# Poissons Ratio (y) = 0.54933 0.16613
# Poissons Ratio (z) = 0.29390 0.51774
#
# Static dielectric constant tensor:
#      x y z
#    x 1.678590 0.000000 0.000000 
#    y 0.000000 1.682690 0.000000 
#    z 0.000000 0.000000 1.675480 
# 
# From -- ./inp_files/4619.got.cif
#   From: 2010.05.17/outbox.cif.g08.bks.cpg/sg63_3_cif.got.tgz:4619.got - 2010.06.03 15:47:04.
