data_PCOD9472257
_publ_section_title
;
Structure prediction by ZEFSAII (Michael W. Deem and Ramdas Pophale) SiO2 
 PCOD9472257
Probable space group: C M C M
;
_chemical_formula_sum "Si O2"
_cell_formula_units_Z 80
_cell_length_a 8.537558
_cell_length_b 27.903640
_cell_length_c 19.128336
_cell_angle_alpha 90.000000
_cell_angle_beta 90.000000
_cell_angle_gamma 90.000000
_cell_volume 4556.923303
_symmetry_space_group_name_H-M "C M C M"
_symmetry_group_IT_number 63
_symmetry_cell_setting 'orthorhombic'
loop_
_space_group_symop_operation_xyz
x,y,z
-x,-y,1/2+z
x,-y,-z
-x,y,1/2-z
-x,-y,-z
x,y,1/2-z
-x,y,z
x,-y,1/2+z
1/2+x,1/2+y,z
1/2-x,1/2-y,1/2+z
1/2+x,1/2-y,-z
1/2-x,1/2+y,1/2-z
1/2-x,1/2-y,-z
1/2+x,1/2+y,1/2-z
1/2-x,1/2+y,z
1/2+x,1/2-y,1/2+z
loop_
_atom_site_type_symbol
_atom_site_label
_atom_site_fract_x
_atom_site_fract_y
_atom_site_fract_z
Si Si1 0.809422 0.523300 0.106269
Si Si2 0.687232 0.272805 0.607858
Si Si3 0.687235 0.679543 0.962508
Si Si4 0.187427 0.318197 0.750000
Si Si5 0.808295 0.571022 0.250000
Si Si6 0.689318 0.925684 0.463038
O O1 0.755441 0.544247 0.179782
O O2 0.762151 0.468892 0.088474
O O3 0.000000 0.523342 0.106737
O O4 0.763391 0.556682 0.040822
O O5 0.500000 0.273984 0.611148
O O6 0.738391 0.305218 0.541253
O O7 0.742310 0.219242 0.589177
O O8 0.754625 0.292335 0.679989
O O9 0.500000 0.682684 0.959729
O O10 0.741645 0.625949 0.946989
O O11 0.241148 0.373617 0.750000
O O12 0.000000 0.318176 0.750000
O O13 0.000000 0.570508 0.250000
O O14 0.500000 0.922688 0.461738
#
# Coordination Sequence:
#
# PCOD9472257 Si02
#       6
#    16  16  16   8   8  16
#     4   8  15  27  45  70  98 129 166 203 241 296
#     4  10  21  36  53  74 102 135 171 209 252 307
#     4  10  20  34  53  76 101 132 172 216 258 300
#     4  11  21  33  54  81 106 131 162 207 258 303
#     4   9  16  27  46  73 100 125 158 201 246 291
#     4   9  16  29  49  71  97 130 166 205 250 299
#
# _framework density 17.555703999999999
#
# number of rings (size 3 to 8) (size 9 to 14) (size 15 to 20)
#    0.000    2.600    0.000    3.900    0.000    4.000 
#    0.000    3.000    0.000    4.800    0.000    0.000 
#    0.000    0.000    0.000    0.000    0.000    0.000 
#
# Total GULP energy -223140.914601 kJ/mol
# GULP energy per Si atom -5578.522865 kJ/mol
# Density = 1.751575 g / cm^3
# Si number density = 17.555704 Si / 1000 Ang^3
#
#
#
# Elastic Constant Matrix: (Units=GPa)
#
#
# Indices 1 2 3 4 5 6 
#
# 1 25.5481 27.9964 28.1844 0.0000 0.0000 0.0000
# 2 27.9964 168.0408 96.4459 0.0000 0.0000 0.0000
# 3 28.1844 96.4459 152.8317 0.0000 0.0000 0.0000
# 4 0.0000 0.0000 0.0000 15.7009 0.0000 0.0000
# 5 0.0000 0.0000 0.0000 0.0000 15.7894 0.0000
# 6 0.0000 0.0000 0.0000 0.0000 0.0000 26.5315
#
#
#
# Elastic Compliance Matrix: (Units=1/GPa)
#
#
# Indices 1 2 3 4 5 6 
#
# 1 0.051605 -0.004916 -0.006414 0.000000 0.000000 0.000000
# 2 -0.004916 0.009799 -0.005277 0.000000 0.000000 0.000000
# 3 -0.006414 -0.005277 0.011056 0.000000 0.000000 0.000000
# 4 0.000000 0.000000 0.000000 0.063691 0.000000 0.000000
# 5 0.000000 0.000000 0.000000 0.000000 0.063334 0.000000
# 6 0.000000 0.000000 0.000000 0.000000 0.000000 0.037691
#
#
# Mechanical properties :
#
#
# Convention : Reuss Voigt Hill
#
# Bulk Modulus (GPa) = 25.48084 72.40821 48.94453
# Shear Modulus (GPa) = 17.63840 24.52394 21.08117
#
# Velocity S-wave (km/s) = 3.17316 3.74160 3.46904
# Velocity P-wave (km/s) = 5.28876 7.74599 6.63217
#
# Compressibility (1/GPa) = 0.03924517
#
# Stress axis : x y z
#
# Youngs Moduli (GPa) = 19.37782 102.05484 90.44784
#
# Poissons Ratio (x) = 0.50172 0.58016
# Poissons Ratio (y) = 0.09527 0.47729
# Poissons Ratio (z) = 0.12430 0.53853
#
# Static dielectric constant tensor:
#      x y z
#    x 1.595890 0.000000 0.000000 
#    y 0.000000 1.577430 0.000000 
#    z 0.000000 0.000000 1.583890 
# 
# From -- ./inp_files/40584.got.cif
#   From: 2010.05.17/outbox.cif.g08.bks.cpg/sg63_21_cif.got.tgz:40584.got - 2010.06.03 15:47:04.
