data_PCOD9472840
_publ_section_title
;
Structure prediction by ZEFSAII (Michael W. Deem and Ramdas Pophale) SiO2 
 PCOD9472840
Probable space group: C M C M
;
_chemical_formula_sum "Si O2"
_cell_formula_units_Z 64
_cell_length_a 12.929351
_cell_length_b 7.857749
_cell_length_c 26.108314
_cell_angle_alpha 90.000000
_cell_angle_beta 90.000000
_cell_angle_gamma 90.000000
_cell_volume 2652.489692
_symmetry_space_group_name_H-M "C M C M"
_symmetry_group_IT_number 63
_symmetry_cell_setting 'orthorhombic'
loop_
_space_group_symop_operation_xyz
x,y,z
-x,-y,1/2+z
x,-y,-z
-x,y,1/2-z
-x,-y,-z
x,y,1/2-z
-x,y,z
x,-y,1/2+z
1/2+x,1/2+y,z
1/2-x,1/2-y,1/2+z
1/2+x,1/2-y,-z
1/2-x,1/2+y,1/2-z
1/2-x,1/2-y,-z
1/2+x,1/2+y,1/2-z
1/2-x,1/2+y,z
1/2+x,1/2-y,1/2+z
loop_
_atom_site_type_symbol
_atom_site_label
_atom_site_fract_x
_atom_site_fract_y
_atom_site_fract_z
Si Si1 0.306605 0.127605 0.460367
Si Si2 0.668191 0.727909 0.810638
Si Si3 0.889886 0.621062 0.688847
Si Si4 0.387620 0.555993 0.905925
O O1 0.250000 0.250000 0.500000
O O2 0.376440 0.249348 0.426335
O O3 0.213825 0.960585 0.572298
O O4 0.361912 0.000000 0.500000
O O5 0.661693 0.688885 0.750000
O O6 0.787771 0.717307 0.828416
O O7 0.615176 0.584948 0.844970
O O8 0.626566 0.918388 0.817857
O O9 0.894181 0.648655 0.750000
O O10 0.000000 0.670625 0.665590
O O11 0.500000 0.486739 0.922350
#
# Coordination Sequence:
#
# PCOD9472840 Si02
#       4
#    16  16  16  16
#     4   9  21  41  62  87 116 144 191 252 302 355
#     4  10  20  35  57  87 124 162 200 239 281 345
#     4   9  18  34  54  76 111 159 202 242 286 328
#     4  11  22  38  62  89 120 158 196 239 296 355
#
# _framework density 24.128276
#
# number of rings (size 3 to 8) (size 9 to 14) (size 15 to 20)
#    0.000    2.250    0.000    2.250    0.000    6.500 
#    0.000   10.000    0.000   15.000    0.000    0.000 
#    0.000    0.000    0.000    0.000    0.000    0.000 
#
# Total GULP energy -178695.624472 kJ/mol
# GULP energy per Si atom -5584.238265 kJ/mol
# Density = 2.407336 g / cm^3
# Si number density = 24.128276 Si / 1000 Ang^3
#
#
#
# Elastic Constant Matrix: (Units=GPa)
#
#
# Indices 1 2 3 4 5 6 
#
# 1 150.0481 15.2372 6.5492 0.0000 0.0000 0.0000
# 2 15.2372 57.1285 32.4594 0.0000 0.0000 0.0000
# 3 6.5492 32.4594 97.6108 0.0000 0.0000 0.0000
# 4 0.0000 0.0000 0.0000 34.8920 0.0000 0.0000
# 5 0.0000 0.0000 0.0000 0.0000 13.9042 0.0000
# 6 0.0000 0.0000 0.0000 0.0000 0.0000 -19.3460
#
#
#
# Elastic Compliance Matrix: (Units=1/GPa)
#
#
# Indices 1 2 3 4 5 6 
#
# 1 0.006853 -0.001931 0.000182 0.000000 0.000000 0.000000
# 2 -0.001931 0.022127 -0.007228 0.000000 0.000000 0.000000
# 3 0.000182 -0.007228 0.012636 0.000000 0.000000 0.000000
# 4 0.000000 0.000000 0.000000 0.028660 0.000000 0.000000
# 5 0.000000 0.000000 0.000000 0.000000 0.071921 0.000000
# 6 0.000000 0.000000 0.000000 0.000000 0.000000 -0.051690
#
#
# Mechanical properties :
#
#
# Convention : Reuss Voigt Hill
#
# Bulk Modulus (GPa) = 42.26380 45.91991 44.09186
# Shear Modulus (GPa) = 42.97476 22.59282 32.78379
#
# Velocity S-wave (km/s) = 4.22488 3.06332 3.69009
# Velocity P-wave (km/s) = 6.43069 5.62004 6.03898
#
# Compressibility (1/GPa) = 0.02366091
#
# Stress axis : x y z
#
# Youngs Moduli (GPa) = 145.92795 45.19453 79.13752
#
# Poissons Ratio (x) = 0.08729 -0.01444
# Poissons Ratio (y) = 0.28185 0.57203
# Poissons Ratio (z) = -0.02663 0.32668
#
# Static dielectric constant tensor:
#      x y z
#    x 0.866370 0.000000 0.000000 
#    y 0.000000 1.964570 0.000000 
#    z 0.000000 0.000000 1.958870 
# 
# From -- ./inp_files/62360.got.cif
#   From: 2010.05.17/outbox.cif.g08.bks.cpg/sg63_32_cif.got.tgz:62360.got - 2010.06.03 15:47:04.
