data_PCOD9472346
_publ_section_title
;
Structure prediction by ZEFSAII (Michael W. Deem and Ramdas Pophale) SiO2 
 PCOD9472346
Probable space group: C M C M
;
_chemical_formula_sum "Si O2"
_cell_formula_units_Z 88
_cell_length_a 23.532377
_cell_length_b 19.844109
_cell_length_c 10.294895
_cell_angle_alpha 90.000000
_cell_angle_beta 90.000000
_cell_angle_gamma 90.000000
_cell_volume 4807.500330
_symmetry_space_group_name_H-M "C M C M"
_symmetry_group_IT_number 63
_symmetry_cell_setting 'orthorhombic'
loop_
_space_group_symop_operation_xyz
x,y,z
-x,-y,1/2+z
x,-y,-z
-x,y,1/2-z
-x,-y,-z
x,y,1/2-z
-x,y,z
x,-y,1/2+z
1/2+x,1/2+y,z
1/2-x,1/2-y,1/2+z
1/2+x,1/2-y,-z
1/2-x,1/2+y,1/2-z
1/2-x,1/2-y,-z
1/2+x,1/2+y,1/2-z
1/2-x,1/2+y,z
1/2+x,1/2-y,1/2+z
loop_
_atom_site_type_symbol
_atom_site_label
_atom_site_fract_x
_atom_site_fract_y
_atom_site_fract_z
Si Si1 0.000000 0.434380 0.905587
Si Si2 0.932309 0.794174 0.603323
Si Si3 0.269792 0.807132 0.599438
Si Si4 0.589438 0.447904 0.895929
Si Si5 0.597010 0.177324 0.401450
Si Si6 0.276079 0.548934 0.107389
O O1 0.055597 0.386404 0.929326
O O2 0.000000 0.451998 0.750000
O O3 0.000000 0.500000 0.000000
O O4 0.908624 0.782636 0.750000
O O5 0.916732 0.870183 0.563409
O O6 0.915366 0.738182 0.499792
O O7 0.000000 0.791762 0.612450
O O8 0.262482 0.785094 0.750000
O O9 0.250000 0.750000 0.500000
O O10 0.335105 0.831843 0.586044
O O11 0.232407 0.873173 0.575922
O O12 0.565692 0.454140 0.750000
O O13 0.656569 0.462848 0.885853
O O14 0.565442 0.500000 0.000000
O O15 0.585521 0.195539 0.250000
O O16 0.251024 0.536658 0.250000
O O17 0.250969 0.500000 0.000000
#
# Coordination Sequence:
#
# PCOD9472346 Si02
#       6
#     8  16  16  16  16  16
#     4  10  22  40  60  84 115 150 193 242 291 346
#     4  10  20  34  54  78 105 139 181 225 269 320
#     4  10  21  36  56  83 113 146 185 231 281 336
#     4   9  18  32  49  72 104 140 176 217 261 310
#     4  10  21  38  58  81 112 147 185 230 283 340
#     4   9  18  33  51  72 102 137 174 215 262 315
#
# _framework density 18.304731
#
# number of rings (size 3 to 8) (size 9 to 14) (size 15 to 20)
#    0.000    2.364    0.909    1.091    0.000    5.455 
#    0.000    3.636    0.000    0.000    0.000    0.000 
#    0.000    0.000    0.000    0.000    0.000    0.000 
#
# Total GULP energy -245153.173354 kJ/mol
# GULP energy per Si atom -5571.663031 kJ/mol
# Density = 1.826307 g / cm^3
# Si number density = 18.304731 Si / 1000 Ang^3
#
#
#
# Elastic Constant Matrix: (Units=GPa)
#
#
# Indices 1 2 3 4 5 6 
#
# 1 50.1683 21.0996 28.7943 0.0000 0.0000 0.0000
# 2 21.0996 116.5157 107.0132 0.0000 0.0000 0.0000
# 3 28.7943 107.0132 115.2363 0.0000 0.0000 0.0000
# 4 0.0000 0.0000 0.0000 38.9102 0.0000 0.0000
# 5 0.0000 0.0000 0.0000 0.0000 1.0087 0.0000
# 6 0.0000 0.0000 0.0000 0.0000 0.0000 24.7379
#
#
#
# Elastic Compliance Matrix: (Units=1/GPa)
#
#
# Indices 1 2 3 4 5 6 
#
# 1 0.024321 0.008003 -0.013509 0.000000 0.000000 0.000000
# 2 0.008003 0.060981 -0.058629 0.000000 0.000000 0.000000
# 3 -0.013509 -0.058629 0.066499 0.000000 0.000000 0.000000
# 4 0.000000 0.000000 0.000000 0.025700 0.000000 0.000000
# 5 0.000000 0.000000 0.000000 0.000000 0.991370 0.000000
# 6 0.000000 0.000000 0.000000 0.000000 0.000000 0.040424
#
#
# Mechanical properties :
#
#
# Convention : Reuss Voigt Hill
#
# Bulk Modulus (GPa) = 42.49868 66.19270 54.34569
# Shear Modulus (GPa) = 3.71635 21.26560 12.49097
#
# Velocity S-wave (km/s) = 1.42642 3.41215 2.61509
# Velocity P-wave (km/s) = 5.09712 7.19470 6.23475
#
# Compressibility (1/GPa) = 0.02353014
#
# Stress axis : x y z
#
# Youngs Moduli (GPa) = 41.11749 16.39866 15.03791
#
# Poissons Ratio (x) = -0.13124 0.20315
# Poissons Ratio (y) = -0.32907 0.88166
# Poissons Ratio (z) = 0.55546 0.96144
#
# Static dielectric constant tensor:
#      x y z
#    x 1.677770 0.000000 0.000000 
#    y 0.000000 1.519800 0.000000 
#    z 0.000000 0.000000 1.662940 
# 
# From -- ./inp_files/23772.got.cif
#   From: 2010.05.17/outbox.cif.g08.bks.cpg/sg63_12_cif.got.tgz:23772.got - 2010.06.03 15:47:04.
