data_PCOD9472559
_publ_section_title
;
Structure prediction by ZEFSAII (Michael W. Deem and Ramdas Pophale) SiO2 
 PCOD9472559
Probable space group: C M C M
;
_chemical_formula_sum "Si O2"
_cell_formula_units_Z 112
_cell_length_a 14.061175
_cell_length_b 12.918983
_cell_length_c 28.401273
_cell_angle_alpha 90.000000
_cell_angle_beta 90.000000
_cell_angle_gamma 90.000000
_cell_volume 5159.263942
_symmetry_space_group_name_H-M "C M C M"
_symmetry_group_IT_number 63
_symmetry_cell_setting 'orthorhombic'
loop_
_space_group_symop_operation_xyz
x,y,z
-x,-y,1/2+z
x,-y,-z
-x,y,1/2-z
-x,-y,-z
x,y,1/2-z
-x,y,z
x,-y,1/2+z
1/2+x,1/2+y,z
1/2-x,1/2-y,1/2+z
1/2+x,1/2-y,-z
1/2-x,1/2+y,1/2-z
1/2-x,1/2-y,-z
1/2+x,1/2+y,1/2-z
1/2-x,1/2+y,z
1/2+x,1/2-y,1/2+z
loop_
_atom_site_type_symbol
_atom_site_label
_atom_site_fract_x
_atom_site_fract_y
_atom_site_fract_z
Si Si1 0.894002 0.031161 0.196867
Si Si2 0.392871 0.314680 0.162691
Si Si3 0.108858 0.507910 0.943955
Si Si4 0.614540 0.775038 0.097157
Si Si5 0.116290 0.883917 0.516969
Si Si6 0.700837 0.258824 0.801937
Si Si7 0.887613 0.282528 0.939388
O O1 0.892800 0.986939 0.250000
O O2 0.880872 0.938077 0.161663
O O3 0.000000 0.077569 0.189885
O O4 0.816769 0.118984 0.194613
O O5 0.500000 0.293759 0.179592
O O6 0.310757 0.268472 0.194339
O O7 0.382531 0.272270 0.110521
O O8 0.148486 0.618803 0.928257
O O9 0.154362 0.397253 0.931955
O O10 0.000000 0.507204 0.925021
O O11 0.104729 0.500000 0.000000
O O12 0.500000 0.774457 0.097151
O O13 0.641126 0.671644 0.067100
O O14 0.651103 0.781508 0.150663
O O15 0.147460 0.796885 0.478924
O O16 0.000000 0.889539 0.516298
O O17 0.148709 0.000000 0.500000
O O18 0.663709 0.226116 0.750000
O O19 0.000000 0.298601 0.951763
#
# Coordination Sequence:
#
# PCOD9472559 Si02
#       7
#    16  16  16  16  16  16  16
#     4   9  19  38  64  90 119 162 211 260 324 397
#     4  10  22  40  64  90 120 166 221 270 324 389
#     4   9  15  29  54  83 119 165 210 246 303 390
#     4  10  20  34  58  91 130 174 211 257 328 396
#     4   9  17  29  52  88 127 165 204 253 319 388
#     4  11  24  40  60  90 127 164 214 276 326 377
#     4   9  17  31  54  84 117 158 206 259 313 375
#
# _framework density 21.708523
#
# number of rings (size 3 to 8) (size 9 to 14) (size 15 to 20)
#    0.000    2.429    1.429    0.857    2.000    2.857 
#    0.000    0.714    0.000    1.714    0.000   12.000 
#    0.000    0.000    0.000    0.000    0.000    0.000 
#
# Total GULP energy -312285.214850 kJ/mol
# GULP energy per Si atom -5576.521694 kJ/mol
# Density = 2.165911 g / cm^3
# Si number density = 21.708523 Si / 1000 Ang^3
#
#
#
# Elastic Constant Matrix: (Units=GPa)
#
#
# Indices 1 2 3 4 5 6 
#
# 1 69.8950 34.1300 20.7147 0.0000 0.0000 0.0000
# 2 34.1300 129.5443 73.1826 0.0000 0.0000 0.0000
# 3 20.7147 73.1826 110.3347 0.0000 0.0000 0.0000
# 4 0.0000 0.0000 0.0000 38.5124 0.0000 0.0000
# 5 0.0000 0.0000 0.0000 0.0000 1.2513 0.0000
# 6 0.0000 0.0000 0.0000 0.0000 0.0000 11.8407
#
#
#
# Elastic Compliance Matrix: (Units=1/GPa)
#
#
# Indices 1 2 3 4 5 6 
#
# 1 0.016428 -0.004135 -0.000341 0.000000 0.000000 0.000000
# 2 -0.004135 0.013386 -0.008102 0.000000 0.000000 0.000000
# 3 -0.000341 -0.008102 0.014502 0.000000 0.000000 0.000000
# 4 0.000000 0.000000 0.000000 0.025966 0.000000 0.000000
# 5 0.000000 0.000000 0.000000 0.000000 0.799163 0.000000
# 6 0.000000 0.000000 0.000000 0.000000 0.000000 0.084455
#
#
# Mechanical properties :
#
#
# Convention : Reuss Voigt Hill
#
# Bulk Modulus (GPa) = 52.19933 62.86985 57.53459
# Shear Modulus (GPa) = 5.07387 22.43733 13.75560
#
# Velocity S-wave (km/s) = 1.53047 3.21841 2.51997
# Velocity P-wave (km/s) = 5.21736 6.54482 5.91843
#
# Compressibility (1/GPa) = 0.01915733
#
# Stress axis : x y z
#
# Youngs Moduli (GPa) = 60.87324 74.70498 68.95837
#
# Poissons Ratio (x) = 0.30892 0.02354
# Poissons Ratio (y) = 0.25172 0.55872
# Poissons Ratio (z) = 0.02078 0.60528
#
# Static dielectric constant tensor:
#      x y z
#    x 1.840460 0.000000 0.000000 
#    y 0.000000 1.846480 0.000000 
#    z 0.000000 0.000000 1.370730 
# 
# From -- ./inp_files/73395.got.cif
#   From: 2010.05.17/outbox.cif.g08.bks.cpg/sg63_37_cif.got.tgz:73395.got - 2010.06.03 15:47:04.
