data_PCOD9472371
_publ_section_title
;
Structure prediction by ZEFSAII (Michael W. Deem and Ramdas Pophale) SiO2 
 PCOD9472371
Probable space group: C M C M
;
_chemical_formula_sum "Si O2"
_cell_formula_units_Z 96
_cell_length_a 15.006363
_cell_length_b 22.092208
_cell_length_c 15.277513
_cell_angle_alpha 90.000000
_cell_angle_beta 90.000000
_cell_angle_gamma 90.000000
_cell_volume 5064.857525
_symmetry_space_group_name_H-M "C M C M"
_symmetry_group_IT_number 63
_symmetry_cell_setting 'orthorhombic'
loop_
_space_group_symop_operation_xyz
x,y,z
-x,-y,1/2+z
x,-y,-z
-x,y,1/2-z
-x,-y,-z
x,y,1/2-z
-x,y,z
x,-y,1/2+z
1/2+x,1/2+y,z
1/2-x,1/2-y,1/2+z
1/2+x,1/2-y,-z
1/2-x,1/2+y,1/2-z
1/2-x,1/2-y,-z
1/2+x,1/2+y,1/2-z
1/2-x,1/2+y,z
1/2+x,1/2-y,1/2+z
loop_
_atom_site_type_symbol
_atom_site_label
_atom_site_fract_x
_atom_site_fract_y
_atom_site_fract_z
Si Si1 0.898466 0.123086 0.496048
Si Si2 0.165045 0.659500 0.650564
Si Si3 0.207987 0.429670 0.998198
Si Si4 0.135663 0.211870 0.650375
Si Si5 0.397239 0.713497 0.153096
Si Si6 0.394371 0.852880 0.854156
O O1 0.816057 0.077185 0.504752
O O2 0.905080 0.165527 0.581422
O O3 0.863321 0.168146 0.419588
O O4 0.000000 0.100125 0.478511
O O5 0.143762 0.640263 0.750000
O O6 0.167944 0.605918 0.581740
O O7 0.261626 0.691643 0.650923
O O8 0.104845 0.716608 0.625315
O O9 0.166261 0.396049 0.913776
O O10 0.184714 0.500000 0.000000
O O11 0.102089 0.205765 0.750000
O O12 0.124564 0.281974 0.624722
O O13 0.354843 0.708648 0.250000
O O14 0.500000 0.696474 0.161486
O O15 0.377116 0.860689 0.750000
O O16 0.500000 0.863827 0.869314
#
# Coordination Sequence:
#
# PCOD9472371 Si02
#       6
#    16  16  16  16  16  16
#     4  10  20  34  54  80 109 140 174 215 265 318
#     4   9  18  33  52  76 106 138 173 215 266 320
#     4  11  24  38  53  74 104 146 190 225 254 295
#     4   9  17  31  54  82 108 132 163 212 274 332
#     4   9  17  30  51  80 109 133 161 207 271 334
#     4  10  21  37  58  83 108 135 170 216 271 324
#
# _framework density 18.954135999999998
#
# number of rings (size 3 to 8) (size 9 to 14) (size 15 to 20)
#    0.000    2.333    0.000    2.500    0.000    9.000 
#    0.000    0.000    0.000    2.000    0.000    4.667 
#    0.000    0.000    0.000    0.000    0.000    0.000 
#
# Total GULP energy -267511.934745 kJ/mol
# GULP energy per Si atom -5573.165307 kJ/mol
# Density = 1.891100 g / cm^3
# Si number density = 18.954136 Si / 1000 Ang^3
#
#
#
# Elastic Constant Matrix: (Units=GPa)
#
#
# Indices 1 2 3 4 5 6 
#
# 1 35.5918 9.7127 9.5939 0.0000 0.0000 0.0000
# 2 9.7127 75.7307 37.1494 0.0000 0.0000 0.0000
# 3 9.5939 37.1494 63.0225 0.0000 0.0000 0.0000
# 4 0.0000 0.0000 0.0000 1.4028 0.0000 0.0000
# 5 0.0000 0.0000 0.0000 0.0000 22.5868 0.0000
# 6 0.0000 0.0000 0.0000 0.0000 0.0000 51.4522
#
#
#
# Elastic Compliance Matrix: (Units=1/GPa)
#
#
# Indices 1 2 3 4 5 6 
#
# 1 0.029563 -0.002228 -0.003187 0.000000 0.000000 0.000000
# 2 -0.002228 0.018744 -0.010710 0.000000 0.000000 0.000000
# 3 -0.003187 -0.010710 0.022665 0.000000 0.000000 0.000000
# 4 0.000000 0.000000 0.000000 0.712868 0.000000 0.000000
# 5 0.000000 0.000000 0.000000 0.000000 0.044274 0.000000
# 6 0.000000 0.000000 0.000000 0.000000 0.000000 0.019436
#
#
# Mechanical properties :
#
#
# Convention : Reuss Voigt Hill
#
# Bulk Modulus (GPa) = 25.82434 31.91745 28.87090
# Shear Modulus (GPa) = 5.60094 22.94763 14.27429
#
# Velocity S-wave (km/s) = 1.72088 3.48328 2.74724
# Velocity P-wave (km/s) = 4.19557 5.74922 5.03271
#
# Compressibility (1/GPa) = 0.03872315
#
# Stress axis : x y z
#
# Youngs Moduli (GPa) = 33.82550 53.35023 44.12000
#
# Poissons Ratio (x) = 0.11888 0.14061
# Poissons Ratio (y) = 0.07537 0.47251
# Poissons Ratio (z) = 0.10780 0.57137
#
# Static dielectric constant tensor:
#      x y z
#    x 1.798430 0.000000 0.000000 
#    y 0.000000 1.601980 0.000000 
#    z 0.000000 0.000000 1.716180 
# 
# From -- ./inp_files/31961.got.cif
#   From: 2010.05.17/outbox.cif.g08.bks.cpg/sg63_16_cif.got.tgz:31961.got - 2010.06.03 15:47:04.
