data_PCOD9472738
_publ_section_title
;
Structure prediction by ZEFSAII (Michael W. Deem and Ramdas Pophale) SiO2 
 PCOD9472738
Probable space group: C M C M
;
_chemical_formula_sum "Si O2"
_cell_formula_units_Z 96
_cell_length_a 8.750085
_cell_length_b 25.666171
_cell_length_c 24.044850
_cell_angle_alpha 90.000000
_cell_angle_beta 90.000000
_cell_angle_gamma 90.000000
_cell_volume 5400.020735
_symmetry_space_group_name_H-M "C M C M"
_symmetry_group_IT_number 63
_symmetry_cell_setting 'orthorhombic'
loop_
_space_group_symop_operation_xyz
x,y,z
-x,-y,1/2+z
x,-y,-z
-x,y,1/2-z
-x,-y,-z
x,y,1/2-z
-x,y,z
x,-y,1/2+z
1/2+x,1/2+y,z
1/2-x,1/2-y,1/2+z
1/2+x,1/2-y,-z
1/2-x,1/2+y,1/2-z
1/2-x,1/2-y,-z
1/2+x,1/2+y,1/2-z
1/2-x,1/2+y,z
1/2+x,1/2-y,1/2+z
loop_
_atom_site_type_symbol
_atom_site_label
_atom_site_fract_x
_atom_site_fract_y
_atom_site_fract_z
Si Si1 0.182284 0.940855 0.750000
Si Si2 0.818338 0.397666 0.864226
Si Si3 0.182528 0.009587 0.064326
Si Si4 0.183411 0.442830 0.250000
Si Si5 0.317849 0.305956 0.568469
Si Si6 0.683952 0.910896 0.128307
Si Si7 0.683609 0.813849 0.447836
O O1 0.245347 0.913476 0.805425
O O2 0.000000 0.939558 0.750000
O O3 0.238481 0.000714 0.750000
O O4 0.762604 0.440151 0.909378
O O5 0.763165 0.341826 0.886279
O O6 0.000000 0.399600 0.859667
O O7 0.000000 0.016343 0.068277
O O8 0.235111 0.959503 0.099132
O O9 0.223210 0.000000 0.000000
O O10 0.222293 0.412548 0.193528
O O11 0.000000 0.451508 0.250000
O O12 0.500000 0.311834 0.573272
O O13 0.278718 0.244612 0.572213
O O14 0.264588 0.323016 0.506816
O O15 0.500000 0.917573 0.123260
O O16 0.725121 0.857886 0.096598
O O17 0.500000 0.815648 0.456708
#
# Coordination Sequence:
#
# PCOD9472738 Si02
#       7
#     8  16  16   8  16  16  16
#     4  12  24  40  61  84 113 149 192 238 288 343
#     4  12  24  39  59  83 114 152 195 237 286 346
#     4  11  23  36  53  82 116 147 184 235 290 340
#     4  10  20  36  57  82 111 149 188 226 278 339
#     4  10  20  36  58  85 117 152 194 241 287 338
#     4  10  20  35  56  81 112 147 188 231 279 344
#     4   9  19  36  58  85 116 154 194 235 289 347
#
# _framework density 17.777709999999999
#
# number of rings (size 3 to 8) (size 9 to 14) (size 15 to 20)
#    0.000    1.500    1.667    4.250    0.000    5.333 
#    0.000    0.833    0.000    3.000    0.000    0.000 
#    0.000    0.000    0.000    0.000    0.000    0.000 
#
# Total GULP energy -268247.128608 kJ/mol
# GULP energy per Si atom -5588.481846 kJ/mol
# Density = 1.773725 g / cm^3
# Si number density = 17.777710 Si / 1000 Ang^3
#
#
#
# Elastic Constant Matrix: (Units=GPa)
#
#
# Indices 1 2 3 4 5 6 
#
# 1 50.5370 20.2519 24.8696 0.0000 0.0000 0.0000
# 2 20.2519 58.0226 14.6815 0.0000 0.0000 0.0000
# 3 24.8696 14.6815 61.1312 0.0000 0.0000 0.0000
# 4 0.0000 0.0000 0.0000 21.2512 0.0000 0.0000
# 5 0.0000 0.0000 0.0000 0.0000 22.1555 0.0000
# 6 0.0000 0.0000 0.0000 0.0000 0.0000 29.8654
#
#
#
# Elastic Compliance Matrix: (Units=1/GPa)
#
#
# Indices 1 2 3 4 5 6 
#
# 1 0.027264 -0.007144 -0.009376 0.000000 0.000000 0.000000
# 2 -0.007144 0.020222 -0.001950 0.000000 0.000000 0.000000
# 3 -0.009376 -0.001950 0.020641 0.000000 0.000000 0.000000
# 4 0.000000 0.000000 0.000000 0.047056 0.000000 0.000000
# 5 0.000000 0.000000 0.000000 0.000000 0.045135 0.000000
# 6 0.000000 0.000000 0.000000 0.000000 0.000000 0.033484
#
#
# Mechanical properties :
#
#
# Convention : Reuss Voigt Hill
#
# Bulk Modulus (GPa) = 32.06489 32.14407 32.10448
# Shear Modulus (GPa) = 20.73505 21.98029 21.35767
#
# Velocity S-wave (km/s) = 3.41889 3.52006 3.46984
# Velocity P-wave (km/s) = 5.80180 5.88570 5.84390
#
# Compressibility (1/GPa) = 0.03118676
#
# Stress axis : x y z
#
# Youngs Moduli (GPa) = 36.67807 49.45214 48.44719
#
# Poissons Ratio (x) = 0.35327 0.45424
# Poissons Ratio (y) = 0.26202 0.09448
# Poissons Ratio (z) = 0.34390 0.09644
#
# Static dielectric constant tensor:
#      x y z
#    x 1.598770 0.000000 0.000000 
#    y 0.000000 1.588410 0.000000 
#    z 0.000000 0.000000 1.589600 
# 
# From -- ./inp_files/60072.got.cif
#   From: 2010.05.17/outbox.cif.g08.bks.cpg/sg63_31_cif.got.tgz:60072.got - 2010.06.03 15:47:04.
