data_PCOD9472300
_publ_section_title
;
Structure prediction by ZEFSAII (Michael W. Deem and Ramdas Pophale) SiO2 
 PCOD9472300
Probable space group: C M C M
;
_chemical_formula_sum "Si O2"
_cell_formula_units_Z 72
_cell_length_a 12.646724
_cell_length_b 17.207296
_cell_length_c 19.540794
_cell_angle_alpha 90.000000
_cell_angle_beta 90.000000
_cell_angle_gamma 90.000000
_cell_volume 4252.387928
_symmetry_space_group_name_H-M "C M C M"
_symmetry_group_IT_number 63
_symmetry_cell_setting 'orthorhombic'
loop_
_space_group_symop_operation_xyz
x,y,z
-x,-y,1/2+z
x,-y,-z
-x,y,1/2-z
-x,-y,-z
x,y,1/2-z
-x,y,z
x,-y,1/2+z
1/2+x,1/2+y,z
1/2-x,1/2-y,1/2+z
1/2+x,1/2-y,-z
1/2-x,1/2+y,1/2-z
1/2-x,1/2-y,-z
1/2+x,1/2+y,1/2-z
1/2-x,1/2+y,z
1/2+x,1/2-y,1/2+z
loop_
_atom_site_type_symbol
_atom_site_label
_atom_site_fract_x
_atom_site_fract_y
_atom_site_fract_z
Si Si1 0.123517 0.182476 0.123865
Si Si2 0.229556 0.652547 0.863928
Si Si3 0.873916 0.455026 0.250000
Si Si4 0.878180 0.090811 0.517887
Si Si5 0.121907 0.222916 0.750000
Si Si6 0.261262 0.121186 0.250000
O O1 0.160580 0.271779 0.117464
O O2 0.137233 0.139482 0.051643
O O3 0.190662 0.140252 0.183175
O O4 0.000000 0.180009 0.142568
O O5 0.161576 0.594011 0.817001
O O6 0.321307 0.685675 0.815058
O O7 0.289023 0.613853 0.927591
O O8 0.809801 0.535717 0.250000
O O9 0.000000 0.466661 0.250000
O O10 0.000000 0.105364 0.542160
O O11 0.870743 0.000000 0.500000
O O12 0.146369 0.314460 0.750000
O O13 0.000000 0.206195 0.750000
#
# Coordination Sequence:
#
# PCOD9472300 Si02
#       6
#    16  16   8  16   8   8
#     4  10  20  35  56  79 105 139 178 219 263 314
#     4  10  20  34  54  77 105 140 177 216 261 315
#     4  11  22  36  55  78 106 138 171 213 263 313
#     4  10  20  34  53  78 109 142 177 221 268 312
#     4   9  18  32  51  74 100 132 173 217 259 309
#     4  10  20  34  54  78 104 136 172 216 264 312
#
# _framework density 16.931663
#
# number of rings (size 3 to 8) (size 9 to 14) (size 15 to 20)
#    0.000    2.000    0.000    4.667    0.000    0.000 
#    0.000    5.556    0.000   16.000    0.000    0.000 
#    0.000    0.000    0.000    0.000    0.000    0.000 
#
# Total GULP energy -200891.278209 kJ/mol
# GULP energy per Si atom -5580.313284 kJ/mol
# Density = 1.689313 g / cm^3
# Si number density = 16.931663 Si / 1000 Ang^3
#
#
#
# Elastic Constant Matrix: (Units=GPa)
#
#
# Indices 1 2 3 4 5 6 
#
# 1 104.9113 56.4732 46.7680 0.0000 0.0000 0.0000
# 2 56.4732 133.2930 52.5090 0.0000 0.0000 0.0000
# 3 46.7680 52.5090 82.6997 0.0000 0.0000 0.0000
# 4 0.0000 0.0000 0.0000 1.3790 0.0000 0.0000
# 5 0.0000 0.0000 0.0000 0.0000 -1.5168 0.0000
# 6 0.0000 0.0000 0.0000 0.0000 0.0000 20.0439
#
#
#
# Elastic Compliance Matrix: (Units=1/GPa)
#
#
# Indices 1 2 3 4 5 6 
#
# 1 0.014027 -0.003758 -0.005547 0.000000 0.000000 0.000000
# 2 -0.003758 0.011012 -0.004866 0.000000 0.000000 0.000000
# 3 -0.005547 -0.004866 0.018318 0.000000 0.000000 0.000000
# 4 0.000000 0.000000 0.000000 0.725181 0.000000 0.000000
# 5 0.000000 0.000000 0.000000 0.000000 -0.659298 0.000000
# 6 0.000000 0.000000 0.000000 0.000000 0.000000 0.049891
#
#
# Mechanical properties :
#
#
# Convention : Reuss Voigt Hill
#
# Bulk Modulus (GPa) = 66.59860 70.26716 68.43288
# Shear Modulus (GPa) = 25.97695 14.99147 20.48421
#
# Velocity S-wave (km/s) = 3.92117 2.97881 3.48202
# Velocity P-wave (km/s) = 7.74079 7.30901 7.52800
#
# Compressibility (1/GPa) = 0.01501533
#
# Stress axis : x y z
#
# Youngs Moduli (GPa) = 71.28902 90.81403 54.58982
#
# Poissons Ratio (x) = 0.34129 0.30279
# Poissons Ratio (y) = 0.26791 0.26565
# Poissons Ratio (z) = 0.39541 0.44193
#
# Static dielectric constant tensor:
#      x y z
#    x 1.547950 0.000000 0.000000 
#    y 0.000000 1.558690 0.000000 
#    z 0.000000 0.000000 1.573450 
# 
# From -- ./inp_files/41940.got.cif
#   From: 2010.05.17/outbox.cif.g08.bks.cpg/sg63_21_cif.got.tgz:41940.got - 2010.06.03 15:47:04.
