data_PCOD9472939
_publ_section_title
;
Structure prediction by ZEFSAII (Michael W. Deem and Ramdas Pophale) SiO2 
 PCOD9472939
Probable space group: C M C M
;
_chemical_formula_sum "Si O2"
_cell_formula_units_Z 96
_cell_length_a 16.094894
_cell_length_b 20.552693
_cell_length_c 15.231496
_cell_angle_alpha 90.000000
_cell_angle_beta 90.000000
_cell_angle_gamma 90.000000
_cell_volume 5038.478581
_symmetry_space_group_name_H-M "C M C M"
_symmetry_group_IT_number 63
_symmetry_cell_setting 'orthorhombic'
loop_
_space_group_symop_operation_xyz
x,y,z
-x,-y,1/2+z
x,-y,-z
-x,y,1/2-z
-x,-y,-z
x,y,1/2-z
-x,y,z
x,-y,1/2+z
1/2+x,1/2+y,z
1/2-x,1/2-y,1/2+z
1/2+x,1/2-y,-z
1/2-x,1/2+y,1/2-z
1/2-x,1/2-y,-z
1/2+x,1/2+y,1/2-z
1/2-x,1/2+y,z
1/2+x,1/2-y,1/2+z
loop_
_atom_site_type_symbol
_atom_site_label
_atom_site_fract_x
_atom_site_fract_y
_atom_site_fract_z
Si Si1 0.819814 0.197662 0.897000
Si Si2 0.403393 0.077335 0.521185
Si Si3 0.000000 0.164616 0.854458
Si Si4 0.769318 0.661465 0.080135
Si Si5 0.256922 0.066031 0.653182
Si Si6 0.153189 0.943956 0.648703
Si Si7 0.000000 0.925894 0.975103
O O1 0.783232 0.268336 0.877365
O O2 0.789231 0.134822 0.844437
O O3 0.916909 0.203258 0.877802
O O4 0.789367 0.177753 0.995338
O O5 0.500000 0.096774 0.531438
O O6 0.353092 0.125051 0.454681
O O7 0.343264 0.078686 0.605178
O O8 0.402945 0.000000 0.500000
O O9 0.000000 0.145609 0.750000
O O10 0.000000 0.109803 0.930978
O O11 0.724069 0.610280 0.141863
O O12 0.274405 0.040812 0.750000
O O13 0.194878 0.011404 0.613647
O O14 0.125675 0.953853 0.750000
O O15 0.080182 0.917681 0.586674
O O16 0.000000 0.000000 0.000000
#
# Coordination Sequence:
#
# PCOD9472939 Si02
#       7
#    16  16   8  16  16  16   8
#     4  10  22  38  61  88 121 162 207 244 304 369
#     4  10  20  35  61  89 118 155 204 254 311 367
#     4  12  24  39  62  93 127 163 206 250 306 371
#     4  10  21  40  64  87 117 164 204 253 307 366
#     4  10  21  38  60  87 122 161 205 253 307 368
#     4  11  23  40  64  94 123 161 209 255 310 369
#     4  12  25  39  64  89 129 163 199 254 304 358
#
# _framework density 19.053370999999999
#
# number of rings (size 3 to 8) (size 9 to 14) (size 15 to 20)
#    0.000    1.500    3.333    1.750    3.500    3.667 
#    0.000    0.000    0.000    0.000    0.000    0.000 
#    0.000    0.000    0.000    0.000    0.000    0.000 
#
# Total GULP energy -267368.116654 kJ/mol
# GULP energy per Si atom -5570.169097 kJ/mol
# Density = 1.901001 g / cm^3
# Si number density = 19.053371 Si / 1000 Ang^3
#
#
#
# Elastic Constant Matrix: (Units=GPa)
#
#
# Indices 1 2 3 4 5 6 
#
# 1 136.0081 33.9277 26.5693 0.0000 0.0000 0.0000
# 2 33.9277 121.7475 18.7655 0.0000 0.0000 0.0000
# 3 26.5693 18.7655 57.5991 0.0000 0.0000 0.0000
# 4 0.0000 0.0000 0.0000 0.6624 0.0000 0.0000
# 5 0.0000 0.0000 0.0000 0.0000 -0.9598 0.0000
# 6 0.0000 0.0000 0.0000 0.0000 0.0000 16.4856
#
#
#
# Elastic Compliance Matrix: (Units=1/GPa)
#
#
# Indices 1 2 3 4 5 6 
#
# 1 0.008458 -0.001849 -0.003299 0.000000 0.000000 0.000000
# 2 -0.001849 0.009052 -0.002096 0.000000 0.000000 0.000000
# 3 -0.003299 -0.002096 0.019566 0.000000 0.000000 0.000000
# 4 0.000000 0.000000 0.000000 1.509671 0.000000 0.000000
# 5 0.000000 0.000000 0.000000 0.000000 -1.041857 0.000000
# 6 0.000000 0.000000 0.000000 0.000000 0.000000 0.060659
#
#
# Mechanical properties :
#
#
# Convention : Reuss Voigt Hill
#
# Bulk Modulus (GPa) = 44.27147 52.65331 48.46239
# Shear Modulus (GPa) = 8.50968 18.97712 13.74340
#
# Velocity S-wave (km/s) = 2.11564 3.15937 2.68864
# Velocity P-wave (km/s) = 5.40868 6.40339 5.92694
#
# Compressibility (1/GPa) = 0.02258791
#
# Stress axis : x y z
#
# Youngs Moduli (GPa) = 118.22914 110.47310 51.10826
#
# Poissons Ratio (x) = 0.20421 0.16862
# Poissons Ratio (y) = 0.21855 0.10714
# Poissons Ratio (z) = 0.39008 0.23160
#
# Static dielectric constant tensor:
#      x y z
#    x 1.735280 0.000000 0.000000 
#    y 0.000000 0.739110 0.000000 
#    z 0.000000 0.000000 1.749640 
# 
# From -- ./inp_files/31988.got.cif
#   From: 2010.05.17/outbox.cif.g08.bks.cpg/sg63_16_cif.got.tgz:31988.got - 2010.06.03 15:47:04.
