data_PCOD9472133
_publ_section_title
;
Structure prediction by ZEFSAII (Michael W. Deem and Ramdas Pophale) SiO2 
 PCOD9472133
Probable space group: C M C M
;
_chemical_formula_sum "Si O2"
_cell_formula_units_Z 88
_cell_length_a 12.159888
_cell_length_b 20.274669
_cell_length_c 18.819870
_cell_angle_alpha 90.000000
_cell_angle_beta 90.000000
_cell_angle_gamma 90.000000
_cell_volume 4639.807545
_symmetry_space_group_name_H-M "C M C M"
_symmetry_group_IT_number 63
_symmetry_cell_setting 'orthorhombic'
loop_
_space_group_symop_operation_xyz
x,y,z
-x,-y,1/2+z
x,-y,-z
-x,y,1/2-z
-x,-y,-z
x,y,1/2-z
-x,y,z
x,-y,1/2+z
1/2+x,1/2+y,z
1/2-x,1/2-y,1/2+z
1/2+x,1/2-y,-z
1/2-x,1/2+y,1/2-z
1/2-x,1/2-y,-z
1/2+x,1/2+y,1/2-z
1/2-x,1/2+y,z
1/2+x,1/2-y,1/2+z
loop_
_atom_site_type_symbol
_atom_site_label
_atom_site_fract_x
_atom_site_fract_y
_atom_site_fract_z
Si Si1 0.718514 0.498977 0.916545
Si Si2 0.500000 0.803073 0.169558
Si Si3 0.500000 0.488056 0.669868
Si Si4 0.131350 0.761872 0.334774
Si Si5 0.746485 0.649947 0.074400
Si Si6 0.288886 0.858366 0.409564
Si Si7 0.000000 0.841164 0.621869
O O1 0.609002 0.508507 0.871206
O O2 0.767157 0.426266 0.902942
O O3 0.792866 0.562565 0.903222
O O4 0.688512 0.500000 0.000000
O O5 0.500000 0.827617 0.250000
O O6 0.606683 0.826900 0.127868
O O7 0.500000 0.724097 0.168371
O O8 0.500000 0.512159 0.750000
O O9 0.500000 0.408294 0.666518
O O10 0.153669 0.761158 0.250000
O O11 0.193005 0.701176 0.373973
O O12 0.182951 0.827033 0.370740
O O13 0.000000 0.758187 0.345231
O O14 0.613919 0.658777 0.077914
O O15 0.783970 0.658853 0.993140
#
# Coordination Sequence:
#
# PCOD9472133 Si02
#       7
#    16   8   8  16  16  16   8
#     4   9  21  41  59  89 122 158 200 253 301 353
#     4  12  25  40  60  88 125 160 203 254 305 357
#     4  10  20  33  60  91 118 161 202 245 300 359
#     4  11  25  41  61  90 128 164 202 250 305 363
#     4  10  22  41  67  91 120 161 208 252 299 361
#     4  11  24  40  65  90 122 160 203 253 306 363
#     4  10  21  37  63  91 122 153 204 253 301 348
#
# _framework density 18.966303
#
# number of rings (size 3 to 8) (size 9 to 14) (size 15 to 20)
#    0.000    1.636    1.818    1.636    3.818    5.818 
#    1.636    1.364    0.000    0.000    0.000    0.000 
#    0.000    0.000    0.000    0.000    0.000    0.000 
#
# Total GULP energy -245709.772002 kJ/mol
# GULP energy per Si atom -5584.313000 kJ/mol
# Density = 1.892314 g / cm^3
# Si number density = 18.966303 Si / 1000 Ang^3
#
#
#
# Elastic Constant Matrix: (Units=GPa)
#
#
# Indices 1 2 3 4 5 6 
#
# 1 68.4103 26.0974 26.8405 0.0000 0.0000 0.0000
# 2 26.0974 104.5744 38.0189 0.0000 0.0000 0.0000
# 3 26.8405 38.0189 73.7443 0.0000 0.0000 0.0000
# 4 0.0000 0.0000 0.0000 9.0603 0.0000 0.0000
# 5 0.0000 0.0000 0.0000 0.0000 -37.7654 0.0000
# 6 0.0000 0.0000 0.0000 0.0000 0.0000 11.4793
#
#
#
# Elastic Compliance Matrix: (Units=1/GPa)
#
#
# Indices 1 2 3 4 5 6 
#
# 1 0.017583 -0.002537 -0.005092 0.000000 0.000000 0.000000
# 2 -0.002537 0.012134 -0.005333 0.000000 0.000000 0.000000
# 3 -0.005092 -0.005333 0.018163 0.000000 0.000000 0.000000
# 4 0.000000 0.000000 0.000000 0.110372 0.000000 0.000000
# 5 0.000000 0.000000 0.000000 0.000000 -0.026479 0.000000
# 6 0.000000 0.000000 0.000000 0.000000 0.000000 0.087114
#
#
# Mechanical properties :
#
#
# Convention : Reuss Voigt Hill
#
# Bulk Modulus (GPa) = 45.54166 47.62699 46.58432
# Shear Modulus (GPa) = 19.83116 6.93963 13.38540
#
# Velocity S-wave (km/s) = 3.23708 1.91491 2.65947
# Velocity P-wave (km/s) = 6.16730 5.48225 5.83484
#
# Compressibility (1/GPa) = 0.02195792
#
# Stress axis : x y z
#
# Youngs Moduli (GPa) = 56.87244 82.41066 55.05755
#
# Poissons Ratio (x) = 0.20906 0.28034
# Poissons Ratio (y) = 0.14428 0.29360
# Poissons Ratio (z) = 0.28959 0.43946
#
# Static dielectric constant tensor:
#      x y z
#    x 1.632440 0.000000 0.000000 
#    y 0.000000 1.679050 0.000000 
#    z 0.000000 0.000000 1.632710 
# 
# From -- ./inp_files/42320.got.cif
#   From: 2010.05.17/outbox.cif.g08.bks.cpg/sg63_22_cif.got.tgz:42320.got - 2010.06.03 15:47:04.
