data_PCOD9472449
_publ_section_title
;
Structure prediction by ZEFSAII (Michael W. Deem and Ramdas Pophale) SiO2 
 PCOD9472449
Probable space group: C M C M
;
_chemical_formula_sum "Si O2"
_cell_formula_units_Z 48
_cell_length_a 29.458162
_cell_length_b 4.996786
_cell_length_c 17.542194
_cell_angle_alpha 90.000000
_cell_angle_beta 90.000000
_cell_angle_gamma 90.000000
_cell_volume 2582.143094
_symmetry_space_group_name_H-M "C M C M"
_symmetry_group_IT_number 63
_symmetry_cell_setting 'orthorhombic'
loop_
_space_group_symop_operation_xyz
x,y,z
-x,-y,1/2+z
x,-y,-z
-x,y,1/2-z
-x,-y,-z
x,y,1/2-z
-x,y,z
x,-y,1/2+z
1/2+x,1/2+y,z
1/2-x,1/2-y,1/2+z
1/2+x,1/2-y,-z
1/2-x,1/2+y,1/2-z
1/2-x,1/2-y,-z
1/2+x,1/2+y,1/2-z
1/2-x,1/2+y,z
1/2+x,1/2-y,1/2+z
loop_
_atom_site_type_symbol
_atom_site_label
_atom_site_fract_x
_atom_site_fract_y
_atom_site_fract_z
Si Si1 0.000000 0.749226 0.556601
Si Si2 0.720474 0.765607 0.750000
Si Si3 0.136896 0.915943 0.335263
Si Si4 0.097296 0.403446 0.087558
O O1 0.000000 0.500000 0.500000
O O2 0.047207 0.721773 0.601023
O O3 0.000000 0.000000 0.500000
O O4 0.763673 0.570488 0.750000
O O5 0.688016 0.691424 0.678740
O O6 0.122402 0.005286 0.250000
O O7 0.107402 0.664977 0.362787
O O8 0.131578 0.165196 0.391230
O O9 0.100744 0.500000 0.000000
#
# Coordination Sequence:
#
# PCOD9472449 Si02
#       4
#     8   8  16  16
#     4  10  20  34  55  82 115 160 197 216 265 344
#     4  10  20  38  64  81 106 149 194 228 286 376
#     4  10  22  36  59  86 113 143 200 233 294 340
#     4  11  20  37  58  84 117 155 193 236 276 335
#
# _framework density 18.589209
#
# number of rings (size 3 to 8) (size 9 to 14) (size 15 to 20)
#    1.000    0.667    0.000    8.000    0.000    0.000 
#    0.000    5.000    0.000   20.000    0.000    0.000 
#    0.000    0.000    0.000    0.000    0.000    0.000 
#
# Total GULP energy -133706.540450 kJ/mol
# GULP energy per Si atom -5571.105852 kJ/mol
# Density = 1.854690 g / cm^3
# Si number density = 18.589209 Si / 1000 Ang^3
#
#
#
# Elastic Constant Matrix: (Units=GPa)
#
#
# Indices 1 2 3 4 5 6 
#
# 1 50.3795 2.2778 28.2644 0.0000 0.0000 0.0000
# 2 2.2778 96.2745 12.4916 0.0000 0.0000 0.0000
# 3 28.2644 12.4916 48.4474 0.0000 0.0000 0.0000
# 4 0.0000 0.0000 0.0000 36.1056 0.0000 0.0000
# 5 0.0000 0.0000 0.0000 0.0000 26.1754 0.0000
# 6 0.0000 0.0000 0.0000 0.0000 0.0000 38.5716
#
#
#
# Elastic Compliance Matrix: (Units=1/GPa)
#
#
# Indices 1 2 3 4 5 6 
#
# 1 0.029744 0.001601 -0.017766 0.000000 0.000000 0.000000
# 2 0.001601 0.010833 -0.003727 0.000000 0.000000 0.000000
# 3 -0.017766 -0.003727 0.031966 0.000000 0.000000 0.000000
# 4 0.000000 0.000000 0.000000 0.027697 0.000000 0.000000
# 5 0.000000 0.000000 0.000000 0.000000 0.038204 0.000000
# 6 0.000000 0.000000 0.000000 0.000000 0.000000 0.025926
#
#
# Mechanical properties :
#
#
# Convention : Reuss Voigt Hill
#
# Bulk Modulus (GPa) = 30.52504 31.24102 30.88303
# Shear Modulus (GPa) = 23.24800 30.30838 26.77819
#
# Velocity S-wave (km/s) = 3.54024 4.04224 3.79954
# Velocity P-wave (km/s) = 5.75913 6.21520 5.99151
#
# Compressibility (1/GPa) = 0.03275999
#
# Stress axis : x y z
#
# Youngs Moduli (GPa) = 33.62030 92.31310 31.28278
#
# Poissons Ratio (x) = -0.14783 0.55576
# Poissons Ratio (y) = -0.05384 0.11660
# Poissons Ratio (z) = 0.59728 0.34408
#
# Static dielectric constant tensor:
#      x y z
#    x 1.715130 0.000000 0.000000 
#    y 0.000000 1.621990 0.000000 
#    z 0.000000 0.000000 1.650660 
# 
# From -- ./inp_files/38163.got.cif
#   From: 2010.05.17/outbox.cif.g08.bks.cpg/sg63_20_cif.got.tgz:38163.got - 2010.06.03 15:47:04.
