data_PCOD9472541
_publ_section_title
;
Structure prediction by ZEFSAII (Michael W. Deem and Ramdas Pophale) SiO2 
 PCOD9472541
Probable space group: C M C M
;
_chemical_formula_sum "Si O2"
_cell_formula_units_Z 80
_cell_length_a 8.729206
_cell_length_b 15.982632
_cell_length_c 29.448425
_cell_angle_alpha 90.000000
_cell_angle_beta 90.000000
_cell_angle_gamma 90.000000
_cell_volume 4108.517249
_symmetry_space_group_name_H-M "C M C M"
_symmetry_group_IT_number 63
_symmetry_cell_setting 'orthorhombic'
loop_
_space_group_symop_operation_xyz
x,y,z
-x,-y,1/2+z
x,-y,-z
-x,y,1/2-z
-x,-y,-z
x,y,1/2-z
-x,y,z
x,-y,1/2+z
1/2+x,1/2+y,z
1/2-x,1/2-y,1/2+z
1/2+x,1/2-y,-z
1/2-x,1/2+y,1/2-z
1/2-x,1/2-y,-z
1/2+x,1/2+y,1/2-z
1/2-x,1/2+y,z
1/2+x,1/2-y,1/2+z
loop_
_atom_site_type_symbol
_atom_site_label
_atom_site_fract_x
_atom_site_fract_y
_atom_site_fract_z
Si Si1 0.683301 0.249493 0.050359
Si Si2 0.317796 0.903780 0.393913
Si Si3 0.182848 0.153008 0.801427
Si Si4 0.815409 0.589340 0.390424
Si Si5 0.682156 0.339341 0.801014
O O1 0.500000 0.248630 0.048285
O O2 0.737482 0.330831 0.077868
O O3 0.732920 0.166071 0.077569
O O4 0.750000 0.250000 0.000000
O O5 0.500000 0.893097 0.397883
O O6 0.268399 0.894551 0.341472
O O7 0.276380 0.997655 0.409175
O O8 0.220781 0.125488 0.750000
O O9 0.232673 0.250186 0.805139
O O10 0.000000 0.146425 0.807572
O O11 0.740910 0.602878 0.341276
O O12 0.000000 0.592903 0.385502
O O13 0.711142 0.372079 0.750000
O O14 0.500000 0.325488 0.805490
#
# Coordination Sequence:
#
# PCOD9472541 Si02
#       5
#    16  16  16  16  16
#     4  11  24  44  67  90 119 157 199 251 311 366
#     4  11  23  40  63  92 123 159 203 251 299 357
#     4  10  20  35  57  86 123 165 204 245 298 356
#     4  10  23  41  62  89 124 162 200 244 303 364
#     4  10  20  34  57  89 123 161 206 251 294 349
#
# _framework density 19.471744000000001
#
# number of rings (size 3 to 8) (size 9 to 14) (size 15 to 20)
#    0.000    1.600    2.000    2.400    0.000    6.400 
#    0.000    8.000    0.000    0.000    0.000    0.000 
#    0.000    0.000    0.000    0.000    0.000    0.000 
#
# Total GULP energy -223536.681070 kJ/mol
# GULP energy per Si atom -5588.417027 kJ/mol
# Density = 1.942743 g / cm^3
# Si number density = 19.471744 Si / 1000 Ang^3
#
#
#
# Elastic Constant Matrix: (Units=GPa)
#
#
# Indices 1 2 3 4 5 6 
#
# 1 36.3455 36.1154 31.6694 0.0000 0.0000 0.0000
# 2 36.1154 133.6309 66.4843 0.0000 0.0000 0.0000
# 3 31.6694 66.4843 112.6415 0.0000 0.0000 0.0000
# 4 0.0000 0.0000 0.0000 -2.1912 0.0000 0.0000
# 5 0.0000 0.0000 0.0000 0.0000 37.5597 0.0000
# 6 0.0000 0.0000 0.0000 0.0000 0.0000 25.6616
#
#
#
# Elastic Compliance Matrix: (Units=1/GPa)
#
#
# Indices 1 2 3 4 5 6 
#
# 1 0.041279 -0.007620 -0.007108 0.000000 0.000000 0.000000
# 2 -0.007620 0.012001 -0.004941 0.000000 0.000000 0.000000
# 3 -0.007108 -0.004941 0.013793 0.000000 0.000000 0.000000
# 4 0.000000 0.000000 0.000000 -0.456372 0.000000 0.000000
# 5 0.000000 0.000000 0.000000 0.000000 0.026624 0.000000
# 6 0.000000 0.000000 0.000000 0.000000 0.000000 0.038969
#
#
# Mechanical properties :
#
#
# Convention : Reuss Voigt Hill
#
# Bulk Modulus (GPa) = 36.05620 61.23955 48.64787
# Shear Modulus (GPa) = -18.17361 22.09595 1.96117
#
# Velocity S-wave (km/s) = -3.05836 3.37229 1.00468
# Velocity P-wave (km/s) = 2.46697 6.83241 5.13653
#
# Compressibility (1/GPa) = 0.02773448
#
# Stress axis : x y z
#
# Youngs Moduli (GPa) = 24.22545 83.32764 72.50284
#
# Poissons Ratio (x) = 0.63492 0.51538
# Poissons Ratio (y) = 0.18459 0.35823
# Poissons Ratio (z) = 0.17220 0.41172
#
# Static dielectric constant tensor:
#      x y z
#    x 1.650070 0.000000 0.000000 
#    y 0.000000 1.694550 0.000000 
#    z 0.000000 0.000000 1.660510 
# 
# From -- ./inp_files/66562.got.cif
#   From: 2010.05.17/outbox.cif.g08.bks.cpg/sg63_34_cif.got.tgz:66562.got - 2010.06.03 15:47:04.
