data_PCOD9472071
_publ_section_title
;
Structure prediction by ZEFSAII (Michael W. Deem and Ramdas Pophale) SiO2 
 PCOD9472071
Probable space group: C M C M
;
_chemical_formula_sum "Si O2"
_cell_formula_units_Z 112
_cell_length_a 13.791351
_cell_length_b 25.140325
_cell_length_c 16.618455
_cell_angle_alpha 90.000000
_cell_angle_beta 90.000000
_cell_angle_gamma 90.000000
_cell_volume 5761.934869
_symmetry_space_group_name_H-M "C M C M"
_symmetry_group_IT_number 63
_symmetry_cell_setting 'orthorhombic'
loop_
_space_group_symop_operation_xyz
x,y,z
-x,-y,1/2+z
x,-y,-z
-x,y,1/2-z
-x,-y,-z
x,y,1/2-z
-x,y,z
x,-y,1/2+z
1/2+x,1/2+y,z
1/2-x,1/2-y,1/2+z
1/2+x,1/2-y,-z
1/2-x,1/2+y,1/2-z
1/2-x,1/2-y,-z
1/2+x,1/2+y,1/2-z
1/2-x,1/2+y,z
1/2+x,1/2-y,1/2+z
loop_
_atom_site_type_symbol
_atom_site_label
_atom_site_fract_x
_atom_site_fract_y
_atom_site_fract_z
Si Si1 0.198647 0.807117 0.431783
Si Si2 0.608477 0.696027 0.104507
Si Si3 0.113330 0.983726 0.593048
Si Si4 0.258299 0.391251 0.659182
Si Si5 0.115358 0.096791 0.838062
Si Si6 0.108699 0.685818 0.657926
Si Si7 0.113899 0.701193 0.347242
O O1 0.173984 0.797757 0.524692
O O2 0.140108 0.858506 0.402226
O O3 0.307593 0.824113 0.407027
O O4 0.163426 0.754056 0.384395
O O5 0.500000 0.682472 0.077604
O O6 0.654796 0.651207 0.158569
O O7 0.604741 0.750315 0.153447
O O8 0.194115 0.938821 0.608525
O O9 0.000000 0.969127 0.615299
O O10 0.110596 0.000000 0.500000
O O11 0.144398 0.036957 0.640295
O O12 0.237236 0.409647 0.750000
O O13 0.168115 0.354223 0.630312
O O14 0.153426 0.112685 0.750000
O O15 0.000000 0.094756 0.834328
O O16 0.131793 0.669869 0.750000
O O17 0.000000 0.666165 0.637884
O O18 0.121729 0.705234 0.250000
O O19 0.000000 0.700632 0.369227
#
# Coordination Sequence:
#
# PCOD9472071 Si02
#       7
#    16  16  16  16  16  16  16
#     4  12  21  36  56  82 116 158 192 232 292 347
#     4  11  22  34  52  82 116 149 189 235 283 341
#     4  10  21  38  58  82 113 145 184 237 292 347
#     4  11  22  37  59  85 116 157 197 236 294 355
#     4  10  20  33  53  80 108 143 188 234 281 340
#     4  10  21  36  53  76 110 150 192 237 282 336
#     4  10  21  36  56  84 117 154 197 242 286 342
#
# _framework density 19.437915
#
# number of rings (size 3 to 8) (size 9 to 14) (size 15 to 20)
#    0.000    1.429    1.429    5.143    0.000    4.571 
#    0.000    0.000    0.000    1.286    0.000    2.000 
#    0.000    0.000    0.000    0.000    0.000    0.000 
#
# Total GULP energy -312302.164290 kJ/mol
# GULP energy per Si atom -5576.824362 kJ/mol
# Density = 1.939367 g / cm^3
# Si number density = 19.437915 Si / 1000 Ang^3
#
#
#
# Elastic Constant Matrix: (Units=GPa)
#
#
# Indices 1 2 3 4 5 6 
#
# 1 119.9245 25.8135 29.2845 0.0000 0.0000 0.0000
# 2 25.8135 68.3069 2.0521 0.0000 0.0000 0.0000
# 3 29.2845 2.0521 62.2894 0.0000 0.0000 0.0000
# 4 0.0000 0.0000 0.0000 25.2473 0.0000 0.0000
# 5 0.0000 0.0000 0.0000 0.0000 -237.8352 0.0000
# 6 0.0000 0.0000 0.0000 0.0000 0.0000 25.5057
#
#
#
# Elastic Compliance Matrix: (Units=1/GPa)
#
#
# Indices 1 2 3 4 5 6 
#
# 1 0.010298 -0.003750 -0.004718 0.000000 0.000000 0.000000
# 2 -0.003750 0.016020 0.001235 0.000000 0.000000 0.000000
# 3 -0.004718 0.001235 0.018231 0.000000 0.000000 0.000000
# 4 0.000000 0.000000 0.000000 0.039608 0.000000 0.000000
# 5 0.000000 0.000000 0.000000 0.000000 -0.004205 0.000000
# 6 0.000000 0.000000 0.000000 0.000000 0.000000 0.039207
#
#
# Mechanical properties :
#
#
# Convention : Reuss Voigt Hill
#
# Bulk Modulus (GPa) = 33.24028 40.53567 36.88798
# Shear Modulus (GPa) = 34.80622 -24.52506 5.14058
#
# Velocity S-wave (km/s) = 4.23618 -3.55591 1.62799
# Velocity P-wave (km/s) = 6.40819 2.00993 4.74893
#
# Compressibility (1/GPa) = 0.03008398
#
# Stress axis : x y z
#
# Youngs Moduli (GPa) = 97.10833 62.42284 54.85039
#
# Poissons Ratio (x) = 0.23408 0.25877
# Poissons Ratio (y) = 0.36414 -0.06775
# Poissons Ratio (z) = 0.45814 -0.07710
#
# Static dielectric constant tensor:
#      x y z
#    x 1.735930 0.000000 0.000000 
#    y 0.000000 1.672610 0.000000 
#    z 0.000000 0.000000 1.883090 
# 
# From -- ./inp_files/32284.got.cif
#   From: 2010.05.17/outbox.cif.g08.bks.cpg/sg63_17_cif.got.tgz:32284.got - 2010.06.03 15:47:04.
