data_PCOD9472383
_publ_section_title
;
Structure prediction by ZEFSAII (Michael W. Deem and Ramdas Pophale) SiO2 
 PCOD9472383
Probable space group: C M C M
;
_chemical_formula_sum "Si O2"
_cell_formula_units_Z 72
_cell_length_a 17.774804
_cell_length_b 23.084045
_cell_length_c 9.067470
_cell_angle_alpha 90.000000
_cell_angle_beta 90.000000
_cell_angle_gamma 90.000000
_cell_volume 3720.513290
_symmetry_space_group_name_H-M "C M C M"
_symmetry_group_IT_number 63
_symmetry_cell_setting 'orthorhombic'
loop_
_space_group_symop_operation_xyz
x,y,z
-x,-y,1/2+z
x,-y,-z
-x,y,1/2-z
-x,-y,-z
x,y,1/2-z
-x,y,z
x,-y,1/2+z
1/2+x,1/2+y,z
1/2-x,1/2-y,1/2+z
1/2+x,1/2-y,-z
1/2-x,1/2+y,1/2-z
1/2-x,1/2-y,-z
1/2+x,1/2+y,1/2-z
1/2-x,1/2+y,z
1/2+x,1/2-y,1/2+z
loop_
_atom_site_type_symbol
_atom_site_label
_atom_site_fract_x
_atom_site_fract_y
_atom_site_fract_z
Si Si1 0.500000 0.562935 0.072973
Si Si2 0.723537 0.941435 0.574793
Si Si3 0.641455 0.644220 0.074079
Si Si4 0.912112 0.381555 0.074427
Si Si5 0.089845 0.258946 0.922188
O O1 0.500000 0.555600 0.250000
O O2 0.573328 0.600776 0.033401
O O3 0.500000 0.500000 0.000000
O O4 0.718201 0.949201 0.750000
O O5 0.781119 0.889110 0.545170
O O6 0.643451 0.925473 0.505601
O O7 0.752630 0.000000 0.500000
O O8 0.635399 0.655471 0.250000
O O9 0.632532 0.703908 0.987598
O O10 0.901222 0.383302 0.250000
O O11 0.000000 0.393428 0.042727
O O12 0.895099 0.317414 0.012370
O O13 0.107521 0.268023 0.750000
O O14 0.000000 0.247321 0.934781
#
# Coordination Sequence:
#
# PCOD9472383 Si02
#       5
#     8  16  16  16  16
#     4  10  20  34  54  80 114 156 201 240 279 334
#     4  11  24  41  61  87 119 155 197 245 295 348
#     4  10  21  37  58  84 118 160 198 238 289 345
#     4  10  22  41  65  89 115 152 194 241 299 357
#     4  10  20  35  59  91 122 153 194 244 293 345
#
# _framework density 19.352169
#
# number of rings (size 3 to 8) (size 9 to 14) (size 15 to 20)
#    0.000    1.778    1.111    2.667    0.000    6.222 
#    0.000    0.000    0.000    0.000    0.000    0.000 
#    0.000    0.000    0.000    0.000    0.000    0.000 
#
# Total GULP energy -201243.086064 kJ/mol
# GULP energy per Si atom -5590.085724 kJ/mol
# Density = 1.930812 g / cm^3
# Si number density = 19.352169 Si / 1000 Ang^3
#
#
#
# Elastic Constant Matrix: (Units=GPa)
#
#
# Indices 1 2 3 4 5 6 
#
# 1 58.0572 6.2194 34.4937 0.0000 0.0000 0.0000
# 2 6.2194 22.0531 11.0784 0.0000 0.0000 0.0000
# 3 34.4937 11.0784 49.5741 0.0000 0.0000 0.0000
# 4 0.0000 0.0000 0.0000 41.2704 0.0000 0.0000
# 5 0.0000 0.0000 0.0000 0.0000 26.3402 0.0000
# 6 0.0000 0.0000 0.0000 0.0000 0.0000 26.3665
#
#
#
# Elastic Compliance Matrix: (Units=1/GPa)
#
#
# Indices 1 2 3 4 5 6 
#
# 1 0.029461 0.002241 -0.021000 0.000000 0.000000 0.000000
# 2 0.002241 0.051250 -0.013012 0.000000 0.000000 0.000000
# 3 -0.021000 -0.013012 0.037691 0.000000 0.000000 0.000000
# 4 0.000000 0.000000 0.000000 0.024230 0.000000 0.000000
# 5 0.000000 0.000000 0.000000 0.000000 0.037965 0.000000
# 6 0.000000 0.000000 0.000000 0.000000 0.000000 0.037927
#
#
# Mechanical properties :
#
#
# Convention : Reuss Voigt Hill
#
# Bulk Modulus (GPa) = 18.22822 25.91862 22.07342
# Shear Modulus (GPa) = 16.64709 23.98828 20.31768
#
# Velocity S-wave (km/s) = 2.93613 3.52457 3.24372
# Velocity P-wave (km/s) = 4.57538 5.47591 5.04578
#
# Compressibility (1/GPa) = 0.05485999
#
# Stress axis : x y z
#
# Youngs Moduli (GPa) = 33.94318 19.51231 26.53132
#
# Poissons Ratio (x) = -0.04372 0.55715
# Poissons Ratio (y) = -0.07606 0.34523
# Poissons Ratio (z) = 0.71280 0.25389
#
# Static dielectric constant tensor:
#      x y z
#    x 1.680240 0.000000 0.000000 
#    y 0.000000 1.643390 0.000000 
#    z 0.000000 0.000000 1.646780 
# 
# From -- ./inp_files/6116.got.cif
#   From: 2010.05.17/outbox.cif.g08.bks.cpg/sg63_4_cif.got.tgz:6116.got - 2010.06.03 15:47:04.
