data_PCOD9472784
_publ_section_title
;
Structure prediction by ZEFSAII (Michael W. Deem and Ramdas Pophale) SiO2 
 PCOD9472784
Probable space group: C M C M
;
_chemical_formula_sum "Si O2"
_cell_formula_units_Z 88
_cell_length_a 21.638827
_cell_length_b 9.594997
_cell_length_c 22.019856
_cell_angle_alpha 90.000000
_cell_angle_beta 90.000000
_cell_angle_gamma 90.000000
_cell_volume 4571.861155
_symmetry_space_group_name_H-M "C M C M"
_symmetry_group_IT_number 63
_symmetry_cell_setting 'orthorhombic'
loop_
_space_group_symop_operation_xyz
x,y,z
-x,-y,1/2+z
x,-y,-z
-x,y,1/2-z
-x,-y,-z
x,y,1/2-z
-x,y,z
x,-y,1/2+z
1/2+x,1/2+y,z
1/2-x,1/2-y,1/2+z
1/2+x,1/2-y,-z
1/2-x,1/2+y,1/2-z
1/2-x,1/2-y,-z
1/2+x,1/2+y,1/2-z
1/2-x,1/2+y,z
1/2+x,1/2-y,1/2+z
loop_
_atom_site_type_symbol
_atom_site_label
_atom_site_fract_x
_atom_site_fract_y
_atom_site_fract_z
Si Si1 0.569407 0.461855 0.250000
Si Si2 0.105121 0.728834 0.343633
Si Si3 0.202027 0.434969 0.067559
Si Si4 0.247612 0.306399 0.864759
Si Si5 0.427853 0.986679 0.250000
Si Si6 0.837955 0.779629 0.750000
Si Si7 0.067230 0.519341 0.428058
O O1 0.500000 0.517850 0.250000
O O2 0.578288 0.360728 0.308447
O O3 0.618844 0.584266 0.250000
O O4 0.178825 0.741189 0.345918
O O5 0.086050 0.591142 0.305689
O O6 0.079825 0.680839 0.409196
O O7 0.239206 0.535492 0.113362
O O8 0.229184 0.283200 0.077975
O O9 0.130187 0.438590 0.088019
O O10 0.205594 0.500000 0.000000
O O11 0.294132 0.284851 0.809206
O O12 0.500000 0.946305 0.250000
O O13 0.381360 0.857016 0.250000
O O14 0.063837 0.500000 0.500000
O O15 0.000000 0.474831 0.403433
#
# Coordination Sequence:
#
# PCOD9472784 Si02
#       7
#     8  16  16  16   8   8  16
#     4  11  22  35  52  77 114 151 180 218 274 343
#     4  10  20  35  57  80 106 144 186 225 270 328
#     4  10  21  37  57  81 110 145 185 229 276 329
#     4  11  22  36  56  82 111 146 183 226 277 330
#     4  11  22  37  58  81 108 143 186 232 272 321
#     4  12  23  36  54  82 117 146 180 228 284 338
#     4   9  17  31  53  80 106 135 180 234 277 315
#
# _framework density 19.248176999999998
#
# number of rings (size 3 to 8) (size 9 to 14) (size 15 to 20)
#    0.000    1.636    0.000    7.364    0.000    2.182 
#    0.000    0.909    0.000    0.000    0.000    0.000 
#    0.000   35.636    0.000    0.000    0.000    0.000 
#
# Total GULP energy -245393.055893 kJ/mol
# GULP energy per Si atom -5577.114907 kJ/mol
# Density = 1.920437 g / cm^3
# Si number density = 19.248177 Si / 1000 Ang^3
#
#
#
# Elastic Constant Matrix: (Units=GPa)
#
#
# Indices 1 2 3 4 5 6 
#
# 1 154.4624 44.1456 39.1586 0.0000 0.0000 0.0000
# 2 44.1456 68.5400 19.2489 0.0000 0.0000 0.0000
# 3 39.1586 19.2489 82.6177 0.0000 0.0000 0.0000
# 4 0.0000 0.0000 0.0000 16.6178 0.0000 0.0000
# 5 0.0000 0.0000 0.0000 0.0000 18.7886 0.0000
# 6 0.0000 0.0000 0.0000 0.0000 0.0000 17.5443
#
#
#
# Elastic Compliance Matrix: (Units=1/GPa)
#
#
# Indices 1 2 3 4 5 6 
#
# 1 0.008565 -0.004683 -0.002969 0.000000 0.000000 0.000000
# 2 -0.004683 0.018172 -0.002014 0.000000 0.000000 0.000000
# 3 -0.002969 -0.002014 0.013980 0.000000 0.000000 0.000000
# 4 0.000000 0.000000 0.000000 0.060177 0.000000 0.000000
# 5 0.000000 0.000000 0.000000 0.000000 0.053224 0.000000
# 6 0.000000 0.000000 0.000000 0.000000 0.000000 0.056999
#
#
# Mechanical properties :
#
#
# Convention : Reuss Voigt Hill
#
# Bulk Modulus (GPa) = 46.76002 56.74734 51.75368
# Shear Modulus (GPa) = 21.04589 24.12794 22.58692
#
# Velocity S-wave (km/s) = 3.31024 3.54435 3.42929
# Velocity P-wave (km/s) = 6.24149 6.80410 6.52886
#
# Compressibility (1/GPa) = 0.02138579
#
# Stress axis : x y z
#
# Youngs Moduli (GPa) = 116.75400 55.03001 71.52948
#
# Poissons Ratio (x) = 0.25770 0.21234
# Poissons Ratio (y) = 0.54675 0.14408
# Poissons Ratio (z) = 0.34659 0.11084
#
# Static dielectric constant tensor:
#      x y z
#    x 1.685130 0.000000 0.000000 
#    y 0.000000 1.635530 0.000000 
#    z 0.000000 0.000000 1.806460 
# 
# From -- ./inp_files/64473.got.cif
#   From: 2010.05.17/outbox.cif.g08.bks.cpg/sg63_33_cif.got.tgz:64473.got - 2010.06.03 15:47:04.
