data_PCOD9472746
_publ_section_title
;
Structure prediction by ZEFSAII (Michael W. Deem and Ramdas Pophale) SiO2 
 PCOD9472746
Probable space group: C M C M
;
_chemical_formula_sum "Si O2"
_cell_formula_units_Z 96
_cell_length_a 8.882670
_cell_length_b 24.188537
_cell_length_c 25.967447
_cell_angle_alpha 90.000000
_cell_angle_beta 90.000000
_cell_angle_gamma 90.000000
_cell_volume 5579.334293
_symmetry_space_group_name_H-M "C M C M"
_symmetry_group_IT_number 63
_symmetry_cell_setting 'orthorhombic'
loop_
_space_group_symop_operation_xyz
x,y,z
-x,-y,1/2+z
x,-y,-z
-x,y,1/2-z
-x,-y,-z
x,y,1/2-z
-x,y,z
x,-y,1/2+z
1/2+x,1/2+y,z
1/2-x,1/2-y,1/2+z
1/2+x,1/2-y,-z
1/2-x,1/2+y,1/2-z
1/2-x,1/2-y,-z
1/2+x,1/2+y,1/2-z
1/2-x,1/2+y,z
1/2+x,1/2-y,1/2+z
loop_
_atom_site_type_symbol
_atom_site_label
_atom_site_fract_x
_atom_site_fract_y
_atom_site_fract_z
Si Si1 0.320475 0.731648 0.054881
Si Si2 0.829224 0.924006 0.471307
Si Si3 0.825595 0.170955 0.884863
Si Si4 0.676765 0.887395 0.571857
Si Si5 0.321856 0.489903 0.880892
Si Si6 0.320657 0.083464 0.810850
O O1 0.500000 0.730958 0.049840
O O2 0.266823 0.775954 0.097178
O O3 0.259880 0.671366 0.070075
O O4 0.250000 0.750000 0.000000
O O5 0.824024 0.871691 0.433006
O O6 0.711144 0.914330 0.516065
O O7 0.000000 0.927154 0.493117
O O8 0.803478 0.976570 0.434858
O O9 0.754213 0.136525 0.838149
O O10 0.000000 0.184831 0.874614
O O11 0.500000 0.879888 0.579501
O O12 0.745349 0.930605 0.612524
O O13 0.500000 0.485149 0.871698
O O14 0.247858 0.529205 0.838128
O O15 0.292102 0.083059 0.750000
O O16 0.500000 0.084675 0.819773
#
# Coordination Sequence:
#
# PCOD9472746 Si02
#       6
#    16  16  16  16  16  16
#     4  12  23  36  54  77 111 152 193 230 270 325
#     4   9  18  32  50  73 107 145 182 224 269 318
#     4  10  20  35  56  82 112 145 186 232 276 325
#     4  12  23  33  50  76 110 150 188 224 270 327
#     4  10  21  36  54  77 108 143 184 230 275 328
#     4  10  21  38  61  87 113 141 179 230 283 333
#
# _framework density 17.206354999999999
#
# number of rings (size 3 to 8) (size 9 to 14) (size 15 to 20)
#    0.000    1.500    1.667    6.000    0.000    6.667 
#    0.000    0.000    0.000    1.000    0.000    0.000 
#    0.000    0.000    0.000    0.000    0.000    0.000 
#
# Total GULP energy -268193.175461 kJ/mol
# GULP energy per Si atom -5587.357822 kJ/mol
# Density = 1.716719 g / cm^3
# Si number density = 17.206355 Si / 1000 Ang^3
#
#
#
# Elastic Constant Matrix: (Units=GPa)
#
#
# Indices 1 2 3 4 5 6 
#
# 1 160.1502 84.7842 62.8397 0.0000 0.0000 0.0000
# 2 84.7842 133.9547 47.2136 0.0000 0.0000 0.0000
# 3 62.8397 47.2136 77.3396 0.0000 0.0000 0.0000
# 4 0.0000 0.0000 0.0000 8.0052 0.0000 0.0000
# 5 0.0000 0.0000 0.0000 0.0000 23.6984 0.0000
# 6 0.0000 0.0000 0.0000 0.0000 0.0000 31.2310
#
#
#
# Elastic Compliance Matrix: (Units=1/GPa)
#
#
# Indices 1 2 3 4 5 6 
#
# 1 0.011288 -0.004984 -0.006129 0.000000 0.000000 0.000000
# 2 -0.004984 0.011713 -0.003101 0.000000 0.000000 0.000000
# 3 -0.006129 -0.003101 0.019802 0.000000 0.000000 0.000000
# 4 0.000000 0.000000 0.000000 0.124918 0.000000 0.000000
# 5 0.000000 0.000000 0.000000 0.000000 0.042197 0.000000
# 6 0.000000 0.000000 0.000000 0.000000 0.000000 0.032019
#
#
# Mechanical properties :
#
#
# Convention : Reuss Voigt Hill
#
# Bulk Modulus (GPa) = 69.56063 84.56885 77.06474
# Shear Modulus (GPa) = 18.17153 24.36072 21.26613
#
# Velocity S-wave (km/s) = 3.25329 3.76679 3.51942
# Velocity P-wave (km/s) = 7.39100 8.25680 7.83587
#
# Compressibility (1/GPa) = 0.01437595
#
# Stress axis : x y z
#
# Youngs Moduli (GPa) = 88.59346 85.37784 50.49898
#
# Poissons Ratio (x) = 0.42554 0.30949
# Poissons Ratio (y) = 0.44156 0.15657
# Poissons Ratio (z) = 0.54296 0.26472
#
# Static dielectric constant tensor:
#      x y z
#    x 1.577800 0.000000 0.000000 
#    y 0.000000 1.596740 0.000000 
#    z 0.000000 0.000000 1.564340 
# 
# From -- ./inp_files/67253.got.cif
#   From: 2010.05.17/outbox.cif.g08.bks.cpg/sg63_34_cif.got.tgz:67253.got - 2010.06.03 15:47:04.
