data_PCOD9472376
_publ_section_title
;
Structure prediction by ZEFSAII (Michael W. Deem and Ramdas Pophale) SiO2 
 PCOD9472376
Probable space group: C M C M
;
_chemical_formula_sum "Si O2"
_cell_formula_units_Z 96
_cell_length_a 20.342015
_cell_length_b 30.649483
_cell_length_c 8.644541
_cell_angle_alpha 90.000000
_cell_angle_beta 90.000000
_cell_angle_gamma 90.000000
_cell_volume 5389.631366
_symmetry_space_group_name_H-M "C M C M"
_symmetry_group_IT_number 63
_symmetry_cell_setting 'orthorhombic'
loop_
_space_group_symop_operation_xyz
x,y,z
-x,-y,1/2+z
x,-y,-z
-x,y,1/2-z
-x,-y,-z
x,y,1/2-z
-x,y,z
x,-y,1/2+z
1/2+x,1/2+y,z
1/2-x,1/2-y,1/2+z
1/2+x,1/2-y,-z
1/2-x,1/2+y,1/2-z
1/2-x,1/2-y,-z
1/2+x,1/2+y,1/2-z
1/2-x,1/2+y,z
1/2+x,1/2-y,1/2+z
loop_
_atom_site_type_symbol
_atom_site_label
_atom_site_fract_x
_atom_site_fract_y
_atom_site_fract_z
Si Si1 0.426369 0.328195 0.434606
Si Si2 0.787967 0.292519 0.934322
Si Si3 0.706273 0.626528 0.935034
Si Si4 0.425741 0.768762 0.065645
Si Si5 0.429793 0.950502 0.563260
Si Si6 0.785912 0.548974 0.064464
O O1 0.420514 0.318939 0.250000
O O2 0.500000 0.345005 0.463161
O O3 0.368317 0.360803 0.477481
O O4 0.419131 0.282405 0.522530
O O5 0.783913 0.291374 0.750000
O O6 0.750000 0.250000 0.000000
O O7 0.751906 0.335082 0.998756
O O8 0.864082 0.291699 0.985656
O O9 0.711400 0.626141 0.750000
O O10 0.730865 0.580908 0.000887
O O11 0.420876 0.774017 0.250000
O O12 0.500000 0.782124 0.016780
O O13 0.429956 0.951756 0.750000
O O14 0.500000 0.930201 0.513451
O O15 0.358526 0.932636 0.516332
O O16 0.430183 0.000000 0.500000
O O17 0.783637 0.547569 0.250000
O O18 0.780054 0.500000 0.000000
#
# Coordination Sequence:
#
# PCOD9472376 Si02
#       6
#    16  16  16  16  16  16
#     4   9  18  33  54  79 106 139 180 225 274 330
#     4  12  23  36  55  80 112 148 184 226 273 327
#     4  11  22  36  56  82 111 144 182 228 277 332
#     4  10  20  34  54  80 111 147 186 228 274 327
#     4   8  14  26  46  71  97 127 166 211 258 308
#     4  10  20  35  55  79 108 142 181 228 278 332
#
# _framework density 17.811978
#
# number of rings (size 3 to 8) (size 9 to 14) (size 15 to 20)
#    0.000    2.000    1.667    3.000    0.000    2.333 
#    0.000    0.833    0.000    3.500    0.000    0.000 
#    0.000    0.000    0.000    0.000    0.000    0.000 
#
# Total GULP energy -267730.637555 kJ/mol
# GULP energy per Si atom -5577.721616 kJ/mol
# Density = 1.777144 g / cm^3
# Si number density = 17.811978 Si / 1000 Ang^3
#
#
#
# Elastic Constant Matrix: (Units=GPa)
#
#
# Indices 1 2 3 4 5 6 
#
# 1 146.7347 51.7072 46.0766 0.0000 0.0000 0.0000
# 2 51.7072 62.1889 25.1376 0.0000 0.0000 0.0000
# 3 46.0766 25.1376 56.6370 0.0000 0.0000 0.0000
# 4 0.0000 0.0000 0.0000 24.9648 0.0000 0.0000
# 5 0.0000 0.0000 0.0000 0.0000 23.1483 0.0000
# 6 0.0000 0.0000 0.0000 0.0000 0.0000 65.0637
#
#
#
# Elastic Compliance Matrix: (Units=1/GPa)
#
#
# Indices 1 2 3 4 5 6 
#
# 1 0.011098 -0.006798 -0.006012 0.000000 0.000000 0.000000
# 2 -0.006798 0.023759 -0.005015 0.000000 0.000000 0.000000
# 3 -0.006012 -0.005015 0.024773 0.000000 0.000000 0.000000
# 4 0.000000 0.000000 0.000000 0.040056 0.000000 0.000000
# 5 0.000000 0.000000 0.000000 0.000000 0.043200 0.000000
# 6 0.000000 0.000000 0.000000 0.000000 0.000000 0.015370
#
#
# Mechanical properties :
#
#
# Convention : Reuss Voigt Hill
#
# Bulk Modulus (GPa) = 41.69898 56.82260 49.26079
# Shear Modulus (GPa) = 24.76491 32.14464 28.45477
#
# Velocity S-wave (km/s) = 3.73279 4.25274 4.00122
# Velocity P-wave (km/s) = 6.48380 7.48899 7.00445
#
# Compressibility (1/GPa) = 0.02398140
#
# Stress axis : x y z
#
# Youngs Moduli (GPa) = 90.10491 42.08921 40.36642
#
# Poissons Ratio (x) = 0.28610 0.24268
# Poissons Ratio (y) = 0.61249 0.20244
# Poissons Ratio (z) = 0.54170 0.21108
#
# Static dielectric constant tensor:
#      x y z
#    x 1.660190 0.000000 0.000000 
#    y 0.000000 1.574590 0.000000 
#    z 0.000000 0.000000 1.602800 
# 
# From -- ./inp_files/8607.got.cif
#   From: 2010.05.17/outbox.cif.g08.bks.cpg/sg63_5_cif.got.tgz:8607.got - 2010.06.03 15:47:04.
