data_PCOD9472538
_publ_section_title
;
Structure prediction by ZEFSAII (Michael W. Deem and Ramdas Pophale) SiO2 
 PCOD9472538
Probable space group: C M C M
;
_chemical_formula_sum "Si O2"
_cell_formula_units_Z 104
_cell_length_a 7.376907
_cell_length_b 20.099710
_cell_length_c 29.936818
_cell_angle_alpha 90.000000
_cell_angle_beta 90.000000
_cell_angle_gamma 90.000000
_cell_volume 4438.842514
_symmetry_space_group_name_H-M "C M C M"
_symmetry_group_IT_number 63
_symmetry_cell_setting 'orthorhombic'
loop_
_space_group_symop_operation_xyz
x,y,z
-x,-y,1/2+z
x,-y,-z
-x,y,1/2-z
-x,-y,-z
x,y,1/2-z
-x,y,z
x,-y,1/2+z
1/2+x,1/2+y,z
1/2-x,1/2-y,1/2+z
1/2+x,1/2-y,-z
1/2-x,1/2+y,1/2-z
1/2-x,1/2-y,-z
1/2+x,1/2+y,1/2-z
1/2-x,1/2+y,z
1/2+x,1/2-y,1/2+z
loop_
_atom_site_type_symbol
_atom_site_label
_atom_site_fract_x
_atom_site_fract_y
_atom_site_fract_z
Si Si1 0.219487 0.171266 0.930786
Si Si2 0.218566 0.683115 0.074718
Si Si3 0.208772 0.572104 0.009437
Si Si4 0.744552 0.725688 0.750000
Si Si5 0.720882 0.372487 0.332080
Si Si6 0.719844 0.485663 0.801594
Si Si7 0.286649 0.337205 0.821624
O O1 0.280206 0.245498 0.943671
O O2 0.287242 0.115971 0.964739
O O3 0.274631 0.156944 0.879783
O O4 0.000000 0.169072 0.931992
O O5 0.265670 0.680179 0.126723
O O6 0.000000 0.682647 0.071196
O O7 0.289309 0.619634 0.047664
O O8 0.000000 0.559774 0.023033
O O9 0.291579 0.500000 0.000000
O O10 0.781472 0.670263 0.710383
O O11 0.705918 0.782219 0.789014
O O12 0.500000 0.370622 0.329233
O O13 0.778821 0.449476 0.328603
O O14 0.766139 0.496592 0.750000
O O15 0.500000 0.483883 0.804934
O O16 0.782839 0.412366 0.815303
O O17 0.500000 0.336172 0.809013
#
# Coordination Sequence:
#
# PCOD9472538 Si02
#       7
#    16  16  16   8  16  16  16
#     4  10  21  38  60  90 117 148 203 255 291 342
#     4  10  22  41  62  85 117 155 199 245 293 360
#     4  10  23  42  62  87 121 159 195 240 307 373
#     4  12  20  34  56  86 123 154 191 236 295 350
#     4  10  20  34  57  88 119 155 199 247 292 346
#     4   9  17  32  53  78 112 154 197 241 289 339
#     4  11  23  37  58  88 121 155 196 247 298 349
#
# _framework density 23.429532999999999
#
# number of rings (size 3 to 8) (size 9 to 14) (size 15 to 20)
#    0.000    1.846    3.077    0.923    2.154    2.154 
#    0.000    0.000    0.000    1.846    0.000    0.000 
#    0.000    0.000    0.000    0.000    0.000    0.000 
#
# Total GULP energy -289751.281867 kJ/mol
# GULP energy per Si atom -5572.140036 kJ/mol
# Density = 2.337621 g / cm^3
# Si number density = 23.429533 Si / 1000 Ang^3
#
#
#
# Elastic Constant Matrix: (Units=GPa)
#
#
# Indices 1 2 3 4 5 6 
#
# 1 82.6710 -0.1357 -15.2678 0.0000 0.0000 0.0000
# 2 -0.1357 169.0787 34.5545 0.0000 0.0000 0.0000
# 3 -15.2678 34.5545 122.5620 0.0000 0.0000 0.0000
# 4 0.0000 0.0000 0.0000 71.7331 0.0000 0.0000
# 5 0.0000 0.0000 0.0000 0.0000 157.8156 0.0000
# 6 0.0000 0.0000 0.0000 0.0000 0.0000 -32.2538
#
#
#
# Elastic Compliance Matrix: (Units=1/GPa)
#
#
# Indices 1 2 3 4 5 6 
#
# 1 0.012398 -0.000324 0.001636 0.000000 0.000000 0.000000
# 2 -0.000324 0.006285 -0.001812 0.000000 0.000000 0.000000
# 3 0.001636 -0.001812 0.008874 0.000000 0.000000 0.000000
# 4 0.000000 0.000000 0.000000 0.013941 0.000000 0.000000
# 5 0.000000 0.000000 0.000000 0.000000 0.006337 0.000000
# 6 0.000000 0.000000 0.000000 0.000000 0.000000 -0.031004
#
#
# Mechanical properties :
#
#
# Convention : Reuss Voigt Hill
#
# Bulk Modulus (GPa) = 37.65826 45.84597 41.75211
# Shear Modulus (GPa) = 187.39159 63.13635 125.26397
#
# Velocity S-wave (km/s) = 8.95291 5.19671 7.31985
# Velocity P-wave (km/s) = 11.08966 7.45774 9.44983
#
# Compressibility (1/GPa) = 0.02655460
#
# Stress axis : x y z
#
# Youngs Moduli (GPa) = 80.66003 159.12142 112.69066
#
# Poissons Ratio (x) = 0.05161 -0.18435
# Poissons Ratio (y) = 0.02616 0.20422
# Poissons Ratio (z) = -0.13195 0.28836
#
# Static dielectric constant tensor:
#      x y z
#    x 1.955120 0.000000 0.000000 
#    y 0.000000 1.874730 0.000000 
#    z 0.000000 0.000000 1.811660 
# 
# From -- ./inp_files/72923.got.cif
#   From: 2010.05.17/outbox.cif.g08.bks.cpg/sg63_37_cif.got.tgz:72923.got - 2010.06.03 15:47:04.
