data_PCOD9472251
_publ_section_title
;
Structure prediction by ZEFSAII (Michael W. Deem and Ramdas Pophale) SiO2 
 PCOD9472251
Probable space group: C M C M
;
_chemical_formula_sum "Si O2"
_cell_formula_units_Z 64
_cell_length_a 27.796648
_cell_length_b 11.587395
_cell_length_c 8.935572
_cell_angle_alpha 90.000000
_cell_angle_beta 90.000000
_cell_angle_gamma 90.000000
_cell_volume 2878.064998
_symmetry_space_group_name_H-M "C M C M"
_symmetry_group_IT_number 63
_symmetry_cell_setting 'orthorhombic'
loop_
_space_group_symop_operation_xyz
x,y,z
-x,-y,1/2+z
x,-y,-z
-x,y,1/2-z
-x,-y,-z
x,y,1/2-z
-x,y,z
x,-y,1/2+z
1/2+x,1/2+y,z
1/2-x,1/2-y,1/2+z
1/2+x,1/2-y,-z
1/2-x,1/2+y,1/2-z
1/2-x,1/2-y,-z
1/2+x,1/2+y,1/2-z
1/2-x,1/2+y,z
1/2+x,1/2-y,1/2+z
loop_
_atom_site_type_symbol
_atom_site_label
_atom_site_fract_x
_atom_site_fract_y
_atom_site_fract_z
Si Si1 0.084597 0.119008 0.073095
Si Si2 0.316971 0.647181 0.920950
Si Si3 0.784166 0.600766 0.080586
Si Si4 0.941972 0.621035 0.578572
O O1 0.075139 0.114616 0.250000
O O2 0.069570 0.248498 0.018081
O O3 0.141319 0.114441 0.034427
O O4 0.064193 0.000000 0.000000
O O5 0.324709 0.606131 0.750000
O O6 0.315075 0.785084 0.917204
O O7 0.264149 0.617566 0.983032
O O8 0.770601 0.572904 0.250000
O O9 0.812343 0.500000 0.000000
O O10 0.927124 0.500000 0.500000
O O11 0.923561 0.618813 0.750000
O O12 0.000000 0.617353 0.581753
#
# Coordination Sequence:
#
# PCOD9472251 Si02
#       4
#    16  16  16  16
#     4  11  23  38  58  85 118 153 190 234 283 338
#     4  10  21  36  53  75 106 144 186 231 280 334
#     4  10  20  34  53  75 102 140 185 233 283 334
#     4   9  20  40  64  89 117 150 188 231 281 337
#
# _framework density 22.237162999999999
#
# number of rings (size 3 to 8) (size 9 to 14) (size 15 to 20)
#    0.000    2.000    0.000    3.000    0.000    6.500 
#    0.000    5.000    0.000    0.000    0.000    0.000 
#    0.000    0.000    0.000    0.000    0.000    0.000 
#
# Total GULP energy -178392.587748 kJ/mol
# GULP energy per Si atom -5574.768367 kJ/mol
# Density = 2.218655 g / cm^3
# Si number density = 22.237163 Si / 1000 Ang^3
#
#
#
# Elastic Constant Matrix: (Units=GPa)
#
#
# Indices 1 2 3 4 5 6 
#
# 1 38.2693 10.7221 -7.6707 0.0000 0.0000 0.0000
# 2 10.7221 221.4006 59.8354 0.0000 0.0000 0.0000
# 3 -7.6707 59.8354 72.5563 0.0000 0.0000 0.0000
# 4 0.0000 0.0000 0.0000 44.0975 0.0000 0.0000
# 5 0.0000 0.0000 0.0000 0.0000 2.6403 0.0000
# 6 0.0000 0.0000 0.0000 0.0000 0.0000 -21.7874
#
#
#
# Elastic Compliance Matrix: (Units=1/GPa)
#
#
# Indices 1 2 3 4 5 6 
#
# 1 0.027957 -0.002770 0.005240 0.000000 0.000000 0.000000
# 2 -0.002770 0.006087 -0.005312 0.000000 0.000000 0.000000
# 3 0.005240 -0.005312 0.018717 0.000000 0.000000 0.000000
# 4 0.000000 0.000000 0.000000 0.022677 0.000000 0.000000
# 5 0.000000 0.000000 0.000000 0.000000 0.378746 0.000000
# 6 0.000000 0.000000 0.000000 0.000000 0.000000 -0.045898
#
#
# Mechanical properties :
#
#
# Convention : Reuss Voigt Hill
#
# Bulk Modulus (GPa) = 21.24211 50.88886 36.06549
# Shear Modulus (GPa) = 11.63704 22.94603 17.29154
#
# Velocity S-wave (km/s) = 2.29009 3.21577 2.79157
# Velocity P-wave (km/s) = 4.07013 6.05991 5.16181
#
# Compressibility (1/GPa) = 0.04707630
#
# Stress axis : x y z
#
# Youngs Moduli (GPa) = 35.76915 164.29697 53.42653
#
# Poissons Ratio (x) = 0.45512 -0.27996
# Poissons Ratio (y) = 0.09908 0.28382
# Poissons Ratio (z) = -0.18743 0.87279
#
# Static dielectric constant tensor:
#      x y z
#    x 1.792540 0.000000 0.000000 
#    y 0.000000 2.007700 0.000000 
#    z 0.000000 0.000000 1.814040 
# 
# From -- ./inp_files/13717.got.cif
#   From: 2010.05.17/outbox.cif.g08.bks.cpg/sg63_7_cif.got.tgz:13717.got - 2010.06.03 15:47:04.
