data_PCOD9472374
_publ_section_title
;
Structure prediction by ZEFSAII (Michael W. Deem and Ramdas Pophale) SiO2 
 PCOD9472374
Probable space group: C M C M
;
_chemical_formula_sum "Si O2"
_cell_formula_units_Z 116
_cell_length_a 7.401240
_cell_length_b 28.170116
_cell_length_c 26.203605
_cell_angle_alpha 90.000000
_cell_angle_beta 90.000000
_cell_angle_gamma 90.000000
_cell_volume 5463.288901
_symmetry_space_group_name_H-M "C M C M"
_symmetry_group_IT_number 63
_symmetry_cell_setting 'orthorhombic'
loop_
_space_group_symop_operation_xyz
x,y,z
-x,-y,1/2+z
x,-y,-z
-x,y,1/2-z
-x,-y,-z
x,y,1/2-z
-x,y,z
x,-y,1/2+z
1/2+x,1/2+y,z
1/2-x,1/2-y,1/2+z
1/2+x,1/2-y,-z
1/2-x,1/2+y,1/2-z
1/2-x,1/2-y,-z
1/2+x,1/2+y,1/2-z
1/2-x,1/2+y,z
1/2+x,1/2-y,1/2+z
loop_
_atom_site_type_symbol
_atom_site_label
_atom_site_fract_x
_atom_site_fract_y
_atom_site_fract_z
Si Si1 0.711562 0.355331 0.555931
Si Si2 0.781105 0.712681 0.306884
Si Si3 0.781193 0.493879 0.692150
Si Si4 0.710212 0.252335 0.916443
Si Si5 0.216903 0.350348 0.057175
Si Si6 0.794044 0.608532 0.338390
Si Si7 0.500000 0.620269 0.750000
Si Si8 0.720065 0.903726 0.339607
O O1 0.500000 0.353638 0.568544
O O2 0.787804 0.301723 0.562414
O O3 0.732428 0.370582 0.497862
O O4 0.795288 0.386792 0.600474
O O5 0.725792 0.727683 0.250000
O O6 0.721441 0.744066 0.354884
O O7 0.717532 0.658371 0.317438
O O8 0.000000 0.712715 0.308355
O O9 0.724079 0.504582 0.750000
O O10 0.712564 0.441846 0.677018
O O11 0.734483 0.539995 0.659679
O O12 0.000000 0.491330 0.691165
O O13 0.500000 0.252416 0.931057
O O14 0.789139 0.203449 0.936934
O O15 0.268267 0.380184 0.106560
O O16 0.000000 0.347970 0.058219
O O17 0.000000 0.608256 0.318921
O O18 0.659759 0.618401 0.794783
O O19 0.500000 0.899043 0.331166
#
# Coordination Sequence:
#
# PCOD9472374 Si02
#       8
#    16  16  16  16  16  16   4  16
#     4  10  20  34  54  80 111 139 177 233 282 332
#     4   9  17  30  47  75 109 140 176 224 270 324
#     4   9  16  32  57  82 108 143 186 231 269 321
#     4   9  19  35  53  76 104 141 184 224 279 336
#     4  10  21  38  58  78 104 143 187 231 276 334
#     4   9  17  31  54  78 105 144 185 220 273 332
#     4  12  22  40  64  86 118 160 182 236 286 326
#     4  10  22  40  61  88 118 148 192 235 277 333
#
# _framework density 21.232631999999999
#
# number of rings (size 3 to 8) (size 9 to 14) (size 15 to 20)
#    0.000    2.483    0.690    1.448    0.966    3.034 
#    2.483    0.690    0.000    4.966    0.000    0.000 
#    0.000    0.000    0.000    0.000    0.000    0.000 
#
# Total GULP energy -323141.675141 kJ/mol
# GULP energy per Si atom -5571.408192 kJ/mol
# Density = 2.118431 g / cm^3
# Si number density = 21.232632 Si / 1000 Ang^3
#
#
#
# Elastic Constant Matrix: (Units=GPa)
#
#
# Indices 1 2 3 4 5 6 
#
# 1 80.4877 0.6346 -9.7910 0.0000 0.0000 0.0000
# 2 0.6346 31.3601 3.7263 0.0000 0.0000 0.0000
# 3 -9.7910 3.7263 93.9714 0.0000 0.0000 0.0000
# 4 0.0000 0.0000 0.0000 17.1824 0.0000 0.0000
# 5 0.0000 0.0000 0.0000 0.0000 23.5766 0.0000
# 6 0.0000 0.0000 0.0000 0.0000 0.0000 -5.3588
#
#
#
# Elastic Compliance Matrix: (Units=1/GPa)
#
#
# Indices 1 2 3 4 5 6 
#
# 1 0.012589 -0.000413 0.001328 0.000000 0.000000 0.000000
# 2 -0.000413 0.032052 -0.001314 0.000000 0.000000 0.000000
# 3 0.001328 -0.001314 0.010832 0.000000 0.000000 0.000000
# 4 0.000000 0.000000 0.000000 0.058199 0.000000 0.000000
# 5 0.000000 0.000000 0.000000 0.000000 0.042415 0.000000
# 6 0.000000 0.000000 0.000000 0.000000 0.000000 -0.186610
#
#
# Mechanical properties :
#
#
# Convention : Reuss Voigt Hill
#
# Bulk Modulus (GPa) = 18.28950 21.66212 19.97581
# Shear Modulus (GPa) = -434.77214 21.16333 -206.80440
#
# Velocity S-wave (km/s) = -14.32517 3.16054 -9.87982
# Velocity P-wave (km/s) = 16.27825 4.85212 10.98723
#
# Compressibility (1/GPa) = 0.05467619
#
# Stress axis : x y z
#
# Youngs Moduli (GPa) = 79.43408 31.19919 92.31894
#
# Poissons Ratio (x) = 0.01287 -0.12260
# Poissons Ratio (y) = 0.03277 0.12130
# Poissons Ratio (z) = -0.10549 0.04099
#
# Static dielectric constant tensor:
#      x y z
#    x 1.829490 0.000000 0.000000 
#    y 0.000000 1.777760 0.000000 
#    z 0.000000 0.000000 1.745280 
# 
# From -- ./inp_files/60611.got.cif
#   From: 2010.05.17/outbox.cif.g08.bks.cpg/sg63_31_cif.got.tgz:60611.got - 2010.06.03 15:47:04.
