data_PCOD9472674
_publ_section_title
;
Structure prediction by ZEFSAII (Michael W. Deem and Ramdas Pophale) SiO2 
 PCOD9472674
Probable space group: C M C M
;
_chemical_formula_sum "Si O2"
_cell_formula_units_Z 80
_cell_length_a 17.407577
_cell_length_b 28.941377
_cell_length_c 8.212905
_cell_angle_alpha 90.000000
_cell_angle_beta 90.000000
_cell_angle_gamma 90.000000
_cell_volume 4137.655368
_symmetry_space_group_name_H-M "C M C M"
_symmetry_group_IT_number 63
_symmetry_cell_setting 'orthorhombic'
loop_
_space_group_symop_operation_xyz
x,y,z
-x,-y,1/2+z
x,-y,-z
-x,y,1/2-z
-x,-y,-z
x,y,1/2-z
-x,y,z
x,-y,1/2+z
1/2+x,1/2+y,z
1/2-x,1/2-y,1/2+z
1/2+x,1/2-y,-z
1/2-x,1/2+y,1/2-z
1/2-x,1/2-y,-z
1/2+x,1/2+y,1/2-z
1/2-x,1/2+y,z
1/2+x,1/2-y,1/2+z
loop_
_atom_site_type_symbol
_atom_site_label
_atom_site_fract_x
_atom_site_fract_y
_atom_site_fract_z
Si Si1 0.587114 0.318595 0.056214
Si Si2 0.000000 0.673014 0.063508
Si Si3 0.851567 0.278918 0.059895
Si Si4 0.329133 0.950447 0.057444
Si Si5 0.000000 0.563204 0.432620
Si Si6 0.759825 0.141124 0.549992
O O1 0.580935 0.324536 0.250000
O O2 0.500000 0.320361 0.988320
O O3 0.651320 0.355073 0.998034
O O4 0.625351 0.268616 0.025543
O O5 0.000000 0.618417 0.075238
O O6 0.000000 0.692059 0.250000
O O7 0.073854 0.689533 0.966470
O O8 0.838219 0.269367 0.250000
O O9 0.783162 0.311609 0.996189
O O10 0.322030 0.948700 0.250000
O O11 0.285194 0.904690 0.992760
O O12 0.419418 0.949038 0.014228
O O13 0.298005 0.000000 0.000000
O O14 0.000000 0.543477 0.250000
O O15 0.756820 0.141570 0.750000
#
# Coordination Sequence:
#
# PCOD9472674 Si02
#       6
#    16   8  16  16   8  16
#     4  10  20  35  55  79 107 139 178 220 265 316
#     4  11  21  32  50  77 111 146 181 217 254 305
#     4  11  20  33  53  77 109 145 181 215 259 311
#     4  11  22  38  57  78 107 141 179 221 267 319
#     4  11  22  36  55  81 110 142 182 219 261 311
#     4   9  20  36  54  77 106 142 177 217 267 318
#
# _framework density 19.334620999999999
#
# number of rings (size 3 to 8) (size 9 to 14) (size 15 to 20)
#    0.000    1.600    3.000    2.700    0.000    0.800 
#    0.000    3.000    0.000    0.600    0.000    0.000 
#    0.000    0.000    0.000    0.000    0.000    0.200 
#
# Total GULP energy -223166.721356 kJ/mol
# GULP energy per Si atom -5579.168034 kJ/mol
# Density = 1.929061 g / cm^3
# Si number density = 19.334621 Si / 1000 Ang^3
#
#
#
# Elastic Constant Matrix: (Units=GPa)
#
#
# Indices 1 2 3 4 5 6 
#
# 1 157.2805 66.8795 5.2995 0.0000 0.0000 0.0000
# 2 66.8795 85.2159 0.3098 0.0000 0.0000 0.0000
# 3 5.2995 0.3098 19.6681 0.0000 0.0000 0.0000
# 4 0.0000 0.0000 0.0000 20.8893 0.0000 0.0000
# 5 0.0000 0.0000 0.0000 0.0000 18.9406 0.0000
# 6 0.0000 0.0000 0.0000 0.0000 0.0000 7.7780
#
#
#
# Elastic Compliance Matrix: (Units=1/GPa)
#
#
# Indices 1 2 3 4 5 6 
#
# 1 0.009663 -0.007574 -0.002484 0.000000 0.000000 0.000000
# 2 -0.007574 0.017673 0.001763 0.000000 0.000000 0.000000
# 3 -0.002484 0.001763 0.051485 0.000000 0.000000 0.000000
# 4 0.000000 0.000000 0.000000 0.047871 0.000000 0.000000
# 5 0.000000 0.000000 0.000000 0.000000 0.052797 0.000000
# 6 0.000000 0.000000 0.000000 0.000000 0.000000 0.128568
#
#
# Mechanical properties :
#
#
# Convention : Reuss Voigt Hill
#
# Bulk Modulus (GPa) = 16.06974 45.23802 30.65388
# Shear Modulus (GPa) = 14.47631 22.16663 18.32147
#
# Velocity S-wave (km/s) = 2.73925 3.38963 3.08165
# Velocity P-wave (km/s) = 4.28183 6.22637 5.34330
#
# Compressibility (1/GPa) = 0.06222875
#
# Stress axis : x y z
#
# Youngs Moduli (GPa) = 103.49197 56.58333 19.42299
#
# Poissons Ratio (x) = 0.42858 0.04825
# Poissons Ratio (y) = 0.78389 -0.03423
# Poissons Ratio (z) = 0.25710 -0.09973
#
# Static dielectric constant tensor:
#      x y z
#    x 1.709190 0.000000 0.000000 
#    y 0.000000 1.688050 0.000000 
#    z 0.000000 0.000000 1.711410 
# 
# From -- ./inp_files/6532.got.cif
#   From: 2010.05.17/outbox.cif.g08.bks.cpg/sg63_4_cif.got.tgz:6532.got - 2010.06.03 15:47:04.
