data_PCOD9472068
_publ_section_title
;
Structure prediction by ZEFSAII (Michael W. Deem and Ramdas Pophale) SiO2 
 PCOD9472068
Probable space group: C M C M
;
_chemical_formula_sum "Si O2"
_cell_formula_units_Z 72
_cell_length_a 16.494757
_cell_length_b 27.917761
_cell_length_c 8.689662
_cell_angle_alpha 90.000000
_cell_angle_beta 90.000000
_cell_angle_gamma 90.000000
_cell_volume 4001.560533
_symmetry_space_group_name_H-M "C M C M"
_symmetry_group_IT_number 63
_symmetry_cell_setting 'orthorhombic'
loop_
_space_group_symop_operation_xyz
x,y,z
-x,-y,1/2+z
x,-y,-z
-x,y,1/2-z
-x,-y,-z
x,y,1/2-z
-x,y,z
x,-y,1/2+z
1/2+x,1/2+y,z
1/2-x,1/2-y,1/2+z
1/2+x,1/2-y,-z
1/2-x,1/2+y,1/2-z
1/2-x,1/2-y,-z
1/2+x,1/2+y,1/2-z
1/2-x,1/2+y,z
1/2+x,1/2-y,1/2+z
loop_
_atom_site_type_symbol
_atom_site_label
_atom_site_fract_x
_atom_site_fract_y
_atom_site_fract_z
Si Si1 0.500000 0.554458 0.065502
Si Si2 0.657333 0.391479 0.434597
Si Si3 0.823514 0.552631 0.933121
Si Si4 0.250012 0.803412 0.564662
Si Si5 0.410954 0.859722 0.935145
O O1 0.500000 0.551881 0.250000
O O2 0.500000 0.500000 0.000000
O O3 0.421172 0.583586 0.007364
O O4 0.648208 0.389120 0.250000
O O5 0.735721 0.424412 0.471436
O O6 0.680775 0.338913 0.498849
O O7 0.830884 0.551738 0.750000
O O8 0.829333 0.500000 0.000000
O O9 0.890443 0.587773 0.003023
O O10 0.244823 0.803131 0.750000
O O11 0.250000 0.750000 0.500000
O O12 0.336330 0.826468 0.516288
O O13 0.410187 0.860883 0.750000
O O14 0.500000 0.843708 0.986546
#
# Coordination Sequence:
#
# PCOD9472068 Si02
#       5
#     8  16  16  16  16
#     4  12  24  38  58  86 120 156 194 238 291 348
#     4  10  21  38  58  82 112 148 191 237 285 338
#     4  10  20  33  53  79 108 144 183 221 269 323
#     4  10  20  37  60  83 111 146 187 234 286 341
#     4   9  19  36  56  78 105 139 180 224 271 322
#
# _framework density 17.992978999999998
#
# number of rings (size 3 to 8) (size 9 to 14) (size 15 to 20)
#    0.000    2.000    0.000    3.667    0.000    6.222 
#    2.000    0.000    0.000    0.000    0.000    0.000 
#    0.000    0.000    0.000    0.000    0.000    0.000 
#
# Total GULP energy -200962.995544 kJ/mol
# GULP energy per Si atom -5582.305432 kJ/mol
# Density = 1.795203 g / cm^3
# Si number density = 17.992979 Si / 1000 Ang^3
#
#
#
# Elastic Constant Matrix: (Units=GPa)
#
#
# Indices 1 2 3 4 5 6 
#
# 1 117.1487 60.3018 40.3272 0.0000 0.0000 0.0000
# 2 60.3018 163.3981 40.7316 0.0000 0.0000 0.0000
# 3 40.3272 40.7316 47.2843 0.0000 0.0000 0.0000
# 4 0.0000 0.0000 0.0000 34.6898 0.0000 0.0000
# 5 0.0000 0.0000 0.0000 0.0000 23.6355 0.0000
# 6 0.0000 0.0000 0.0000 0.0000 0.0000 18.2386
#
#
#
# Elastic Compliance Matrix: (Units=1/GPa)
#
#
# Indices 1 2 3 4 5 6 
#
# 1 0.012876 -0.002565 -0.008772 0.000000 0.000000 0.000000
# 2 -0.002565 0.008305 -0.004966 0.000000 0.000000 0.000000
# 3 -0.008772 -0.004966 0.032908 0.000000 0.000000 0.000000
# 4 0.000000 0.000000 0.000000 0.028827 0.000000 0.000000
# 5 0.000000 0.000000 0.000000 0.000000 0.042309 0.000000
# 6 0.000000 0.000000 0.000000 0.000000 0.000000 0.054829
#
#
# Mechanical properties :
#
#
# Convention : Reuss Voigt Hill
#
# Bulk Modulus (GPa) = 46.54994 67.83915 57.19455
# Shear Modulus (GPa) = 22.74581 27.74415 25.24498
#
# Velocity S-wave (km/s) = 3.55935 3.93102 3.74979
# Velocity P-wave (km/s) = 6.54364 7.64126 7.11365
#
# Compressibility (1/GPa) = 0.02148231
#
# Stress axis : x y z
#
# Youngs Moduli (GPa) = 77.66207 120.41457 30.38799
#
# Poissons Ratio (x) = 0.30890 0.26656
# Poissons Ratio (y) = 0.19923 0.15090
# Poissons Ratio (z) = 0.68125 0.59797
#
# Static dielectric constant tensor:
#      x y z
#    x 1.621840 0.000000 0.000000 
#    y 0.000000 1.584300 0.000000 
#    z 0.000000 0.000000 1.601890 
# 
# From -- ./inp_files/4598.got.cif
#   From: 2010.05.17/outbox.cif.g08.bks.cpg/sg63_3_cif.got.tgz:4598.got - 2010.06.03 15:47:04.
