data_PCOD9472193
_publ_section_title
;
Structure prediction by ZEFSAII (Michael W. Deem and Ramdas Pophale) SiO2 
 PCOD9472193
Probable space group: C M C M
;
_chemical_formula_sum "Si O2"
_cell_formula_units_Z 96
_cell_length_a 7.533193
_cell_length_b 21.010650
_cell_length_c 29.128252
_cell_angle_alpha 90.000000
_cell_angle_beta 90.000000
_cell_angle_gamma 90.000000
_cell_volume 4610.340542
_symmetry_space_group_name_H-M "C M C M"
_symmetry_group_IT_number 63
_symmetry_cell_setting 'orthorhombic'
loop_
_space_group_symop_operation_xyz
x,y,z
-x,-y,1/2+z
x,-y,-z
-x,y,1/2-z
-x,-y,-z
x,y,1/2-z
-x,y,z
x,-y,1/2+z
1/2+x,1/2+y,z
1/2-x,1/2-y,1/2+z
1/2+x,1/2-y,-z
1/2-x,1/2+y,1/2-z
1/2-x,1/2-y,-z
1/2+x,1/2+y,1/2-z
1/2-x,1/2+y,z
1/2+x,1/2-y,1/2+z
loop_
_atom_site_type_symbol
_atom_site_label
_atom_site_fract_x
_atom_site_fract_y
_atom_site_fract_z
Si Si1 0.703980 0.510498 0.389423
Si Si2 0.282530 0.242688 0.899441
Si Si3 0.784399 0.872028 0.551955
Si Si4 0.207442 0.388610 0.054561
Si Si5 0.715235 0.561205 0.698582
Si Si6 0.290682 0.210249 0.699239
O O1 0.500000 0.527547 0.378832
O O2 0.781536 0.571581 0.414901
O O3 0.705040 0.451169 0.424408
O O4 0.782481 0.483836 0.342004
O O5 0.500000 0.242255 0.899374
O O6 0.227095 0.303704 0.928653
O O7 0.224470 0.176535 0.922525
O O8 0.221182 0.243948 0.846520
O O9 0.726846 0.883714 0.499938
O O10 0.000000 0.873262 0.551651
O O11 0.000000 0.394053 0.066233
O O12 0.769725 0.542180 0.750000
O O13 0.500000 0.561672 0.696988
O O14 0.772206 0.634307 0.691496
O O15 0.214917 0.224306 0.750000
O O16 0.500000 0.224591 0.701323
#
# Coordination Sequence:
#
# PCOD9472193 Si02
#       6
#    16  16  16  16  16  16
#     4  10  20  34  52  74 100 133 166 199 246 298
#     4   9  18  33  51  74 101 129 163 204 246 290
#     4  10  21  36  51  69 101 137 166 200 246 299
#     4  11  21  34  53  75  98 128 170 214 247 284
#     4   9  17  30  49  74 100 125 159 201 241 286
#     4   9  16  29  51  76  99 125 160 201 245 291
#
# _framework density 20.822756999999999
#
# number of rings (size 3 to 8) (size 9 to 14) (size 15 to 20)
#    0.000    2.333    1.667    1.500    0.000    2.667 
#    0.000    2.500    0.000    5.000    0.000    0.000 
#    0.000    6.667    0.000    0.000    0.000    0.000 
#
# Total GULP energy -267983.142839 kJ/mol
# GULP energy per Si atom -5582.982142 kJ/mol
# Density = 2.077536 g / cm^3
# Si number density = 20.822757 Si / 1000 Ang^3
#
#
#
# Elastic Constant Matrix: (Units=GPa)
#
#
# Indices 1 2 3 4 5 6 
#
# 1 55.2830 -6.8455 -9.6216 0.0000 0.0000 0.0000
# 2 -6.8455 48.4823 -3.3373 0.0000 0.0000 0.0000
# 3 -9.6216 -3.3373 106.4874 0.0000 0.0000 0.0000
# 4 0.0000 0.0000 0.0000 -5.3743 0.0000 0.0000
# 5 0.0000 0.0000 0.0000 0.0000 8.0167 0.0000
# 6 0.0000 0.0000 0.0000 0.0000 0.0000 26.8967
#
#
#
# Elastic Compliance Matrix: (Units=1/GPa)
#
#
# Indices 1 2 3 4 5 6 
#
# 1 0.018741 0.002769 0.001780 0.000000 0.000000 0.000000
# 2 0.002769 0.021080 0.000911 0.000000 0.000000 0.000000
# 3 0.001780 0.000911 0.009580 0.000000 0.000000 0.000000
# 4 0.000000 0.000000 0.000000 -0.186071 0.000000 0.000000
# 5 0.000000 0.000000 0.000000 0.000000 0.124739 0.000000
# 6 0.000000 0.000000 0.000000 0.000000 0.000000 0.037179
#
#
# Mechanical properties :
#
#
# Convention : Reuss Voigt Hill
#
# Bulk Modulus (GPa) = 16.57808 18.96045 17.76926
# Shear Modulus (GPa) = 145.19509 21.24496 83.22003
#
# Velocity S-wave (km/s) = 8.35945 3.19764 6.32872
# Velocity P-wave (km/s) = 10.05747 4.77060 7.87119
#
# Compressibility (1/GPa) = 0.06032060
#
# Stress axis : x y z
#
# Youngs Moduli (GPa) = 53.35783 47.43899 104.38224
#
# Poissons Ratio (x) = -0.13135 -0.18582
# Poissons Ratio (y) = -0.14773 -0.09507
# Poissons Ratio (z) = -0.09498 -0.04321
#
# Static dielectric constant tensor:
#      x y z
#    x 1.791980 0.000000 0.000000 
#    y 0.000000 1.698640 0.000000 
#    z 0.000000 0.000000 1.752420 
# 
# From -- ./inp_files/66916.got.cif
#   From: 2010.05.17/outbox.cif.g08.bks.cpg/sg63_34_cif.got.tgz:66916.got - 2010.06.03 15:47:04.
