data_PCOD9472848
_publ_section_title
;
Structure prediction by ZEFSAII (Michael W. Deem and Ramdas Pophale) SiO2 
 PCOD9472848
Probable space group: C M C M
;
_chemical_formula_sum "Si O2"
_cell_formula_units_Z 80
_cell_length_a 21.367827
_cell_length_b 18.373252
_cell_length_c 10.193357
_cell_angle_alpha 90.000000
_cell_angle_beta 90.000000
_cell_angle_gamma 90.000000
_cell_volume 4001.875977
_symmetry_space_group_name_H-M "C M C M"
_symmetry_group_IT_number 63
_symmetry_cell_setting 'orthorhombic'
loop_
_space_group_symop_operation_xyz
x,y,z
-x,-y,1/2+z
x,-y,-z
-x,y,1/2-z
-x,-y,-z
x,y,1/2-z
-x,y,z
x,-y,1/2+z
1/2+x,1/2+y,z
1/2-x,1/2-y,1/2+z
1/2+x,1/2-y,-z
1/2-x,1/2+y,1/2-z
1/2-x,1/2-y,-z
1/2+x,1/2+y,1/2-z
1/2-x,1/2+y,z
1/2+x,1/2-y,1/2+z
loop_
_atom_site_type_symbol
_atom_site_label
_atom_site_fract_x
_atom_site_fract_y
_atom_site_fract_z
Si Si1 0.242800 0.175097 0.613144
Si Si2 0.069455 0.157226 0.403063
Si Si3 0.642443 0.214903 0.022309
Si Si4 0.925157 0.565564 0.098201
Si Si5 0.693608 0.568072 0.404883
O O1 0.231894 0.133882 0.750000
O O2 0.314277 0.200187 0.604529
O O3 0.193172 0.241064 0.609386
O O4 0.232211 0.130458 0.479937
O O5 0.070016 0.178933 0.250000
O O6 0.089282 0.226676 0.488151
O O7 0.121997 0.095572 0.416226
O O8 0.000000 0.131875 0.437315
O O9 0.612872 0.139943 0.072201
O O10 0.915659 0.543743 0.250000
O O11 0.000000 0.578774 0.079467
O O12 0.906799 0.500000 0.000000
O O13 0.702767 0.500000 0.500000
O O14 0.708626 0.559491 0.250000
#
# Coordination Sequence:
#
# PCOD9472848 Si02
#       5
#    16  16  16  16  16
#     4  10  21  36  57  84 112 146 187 229 276 328
#     4   9  18  33  55  84 114 144 180 222 272 329
#     4  10  20  35  58  82 112 145 183 228 275 325
#     4  10  22  39  58  82 112 146 184 226 274 327
#     4  10  21  37  57  81 112 148 185 228 276 327
#
# _framework density 19.990622999999999
#
# number of rings (size 3 to 8) (size 9 to 14) (size 15 to 20)
#    0.000    2.200    0.000    2.400    0.000    8.400 
#    0.000    2.000    0.000   11.400    0.000    0.000 
#    0.000    0.000    0.000    0.000    0.000    0.000 
#
# Total GULP energy -222862.706997 kJ/mol
# GULP energy per Si atom -5571.567675 kJ/mol
# Density = 1.994512 g / cm^3
# Si number density = 19.990623 Si / 1000 Ang^3
#
#
#
# Elastic Constant Matrix: (Units=GPa)
#
#
# Indices 1 2 3 4 5 6 
#
# 1 33.2562 -1.2730 14.9414 0.0000 0.0000 0.0000
# 2 -1.2730 96.0360 54.2657 0.0000 0.0000 0.0000
# 3 14.9414 54.2657 144.2898 0.0000 0.0000 0.0000
# 4 0.0000 0.0000 0.0000 23.0873 0.0000 0.0000
# 5 0.0000 0.0000 0.0000 0.0000 -17.5226 0.0000
# 6 0.0000 0.0000 0.0000 0.0000 0.0000 10.3679
#
#
#
# Elastic Compliance Matrix: (Units=1/GPa)
#
#
# Indices 1 2 3 4 5 6 
#
# 1 0.032174 0.002932 -0.004434 0.000000 0.000000 0.000000
# 2 0.002932 0.013490 -0.005377 0.000000 0.000000 0.000000
# 3 -0.004434 -0.005377 0.009412 0.000000 0.000000 0.000000
# 4 0.000000 0.000000 0.000000 0.043314 0.000000 0.000000
# 5 0.000000 0.000000 0.000000 0.000000 -0.057069 0.000000
# 6 0.000000 0.000000 0.000000 0.000000 0.000000 0.096451
#
#
# Mechanical properties :
#
#
# Convention : Reuss Voigt Hill
#
# Bulk Modulus (GPa) = 24.20287 45.49448 34.84867
# Shear Modulus (GPa) = 30.24747 16.89638 23.57193
#
# Velocity S-wave (km/s) = 3.89406 2.91041 3.43760
# Velocity P-wave (km/s) = 5.68785 5.83963 5.76424
#
# Compressibility (1/GPa) = 0.04131742
#
# Stress axis : x y z
#
# Youngs Moduli (GPa) = 31.08086 74.12920 106.24810
#
# Poissons Ratio (x) = -0.21736 0.47115
# Poissons Ratio (y) = -0.09113 0.57130
# Poissons Ratio (z) = 0.13783 0.39860
#
# Static dielectric constant tensor:
#      x y z
#    x 1.707030 0.000000 0.000000 
#    y 0.000000 1.717720 0.000000 
#    z 0.000000 0.000000 1.746600 
# 
# From -- ./inp_files/23649.got.cif
#   From: 2010.05.17/outbox.cif.g08.bks.cpg/sg63_12_cif.got.tgz:23649.got - 2010.06.03 15:47:04.
