data_PCOD9472364
_publ_section_title
;
Structure prediction by ZEFSAII (Michael W. Deem and Ramdas Pophale) SiO2 
 PCOD9472364
Probable space group: C M C M
;
_chemical_formula_sum "Si O2"
_cell_formula_units_Z 80
_cell_length_a 9.122934
_cell_length_b 27.238907
_cell_length_c 18.781638
_cell_angle_alpha 90.000000
_cell_angle_beta 90.000000
_cell_angle_gamma 90.000000
_cell_volume 4667.213581
_symmetry_space_group_name_H-M "C M C M"
_symmetry_group_IT_number 63
_symmetry_cell_setting 'orthorhombic'
loop_
_space_group_symop_operation_xyz
x,y,z
-x,-y,1/2+z
x,-y,-z
-x,y,1/2-z
-x,-y,-z
x,y,1/2-z
-x,y,z
x,-y,1/2+z
1/2+x,1/2+y,z
1/2-x,1/2-y,1/2+z
1/2+x,1/2-y,-z
1/2-x,1/2+y,1/2-z
1/2-x,1/2-y,-z
1/2+x,1/2+y,1/2-z
1/2-x,1/2+y,z
1/2+x,1/2-y,1/2+z
loop_
_atom_site_type_symbol
_atom_site_label
_atom_site_fract_x
_atom_site_fract_y
_atom_site_fract_z
Si Si1 0.325702 0.571021 0.750000
Si Si2 0.673675 0.222062 0.606367
Si Si3 0.175447 0.527351 0.610780
Si Si4 0.674992 0.312389 0.250000
Si Si5 0.324665 0.924415 0.541252
Si Si6 0.173127 0.824610 0.970995
O O1 0.500000 0.564244 0.750000
O O2 0.257139 0.547148 0.679508
O O3 0.295173 0.629254 0.750000
O O4 0.500000 0.212473 0.611705
O O5 0.753306 0.210621 0.679830
O O6 0.743108 0.189062 0.543810
O O7 0.694592 0.278411 0.581514
O O8 0.209530 0.558846 0.539831
O O9 0.211048 0.470939 0.591009
O O10 0.000000 0.530298 0.621521
O O11 0.500000 0.305170 0.250000
O O12 0.500000 0.916410 0.545160
O O13 0.238638 0.875060 0.558251
O O14 0.000000 0.829237 0.985002
#
# Coordination Sequence:
#
# PCOD9472364 Si02
#       6
#     8  16  16   8  16  16
#     4  11  23  35  50  77 108 135 166 209 260 307
#     4  10  21  36  54  77 106 140 176 212 255 310
#     4   9  19  35  54  77 104 135 173 212 251 306
#     4  11  23  37  54  79 108 135 170 217 264 309
#     4   9  18  34  56  79 102 133 174 215 256 304
#     4  10  20  34  54  80 107 136 173 216 259 304
#
# _framework density 17.140847999999998
#
# number of rings (size 3 to 8) (size 9 to 14) (size 15 to 20)
#    0.000    2.200    0.000    4.200    0.000    8.800 
#    0.000    3.000    0.000    0.000    0.000    0.000 
#    0.000    0.000    0.000    0.000    0.000    0.000 
#
# Total GULP energy -223345.104986 kJ/mol
# GULP energy per Si atom -5583.627625 kJ/mol
# Density = 1.710183 g / cm^3
# Si number density = 17.140848 Si / 1000 Ang^3
#
#
#
# Elastic Constant Matrix: (Units=GPa)
#
#
# Indices 1 2 3 4 5 6 
#
# 1 85.0389 72.3046 72.6936 0.0000 0.0000 0.0000
# 2 72.3046 102.8449 48.4246 0.0000 0.0000 0.0000
# 3 72.6936 48.4246 124.2985 0.0000 0.0000 0.0000
# 4 0.0000 0.0000 0.0000 9.0631 0.0000 0.0000
# 5 0.0000 0.0000 0.0000 0.0000 26.3208 0.0000
# 6 0.0000 0.0000 0.0000 0.0000 0.0000 33.1642
#
#
#
# Elastic Compliance Matrix: (Units=1/GPa)
#
#
# Indices 1 2 3 4 5 6 
#
# 1 0.051312 -0.026875 -0.019539 0.000000 0.000000 0.000000
# 2 -0.026875 0.025983 0.005595 0.000000 0.000000 0.000000
# 3 -0.019539 0.005595 0.017293 0.000000 0.000000 0.000000
# 4 0.000000 0.000000 0.000000 0.110338 0.000000 0.000000
# 5 0.000000 0.000000 0.000000 0.000000 0.037993 0.000000
# 6 0.000000 0.000000 0.000000 0.000000 0.000000 0.030153
#
#
# Mechanical properties :
#
#
# Convention : Reuss Voigt Hill
#
# Bulk Modulus (GPa) = 77.22211 77.66978 77.44594
# Shear Modulus (GPa) = 13.92655 21.62692 17.77674
#
# Velocity S-wave (km/s) = 2.85349 3.55592 3.22389
# Velocity P-wave (km/s) = 7.48371 7.89116 7.69013
#
# Compressibility (1/GPa) = 0.01294966
#
# Stress axis : x y z
#
# Youngs Moduli (GPa) = 19.48857 38.48614 57.82819
#
# Poissons Ratio (x) = 1.03431 1.12990
# Poissons Ratio (y) = 0.52375 -0.32352
# Poissons Ratio (z) = 0.38079 -0.21531
#
# Static dielectric constant tensor:
#      x y z
#    x 1.566400 0.000000 0.000000 
#    y 0.000000 1.575670 0.000000 
#    z 0.000000 0.000000 1.546440 
# 
# From -- ./inp_files/40563.got.cif
#   From: 2010.05.17/outbox.cif.g08.bks.cpg/sg63_21_cif.got.tgz:40563.got - 2010.06.03 15:47:04.
