data_PCOD9472375
_publ_section_title
;
Structure prediction by ZEFSAII (Michael W. Deem and Ramdas Pophale) SiO2 
 PCOD9472375
Probable space group: C M C M
;
_chemical_formula_sum "Si O2"
_cell_formula_units_Z 96
_cell_length_a 8.865833
_cell_length_b 27.684759
_cell_length_c 23.073423
_cell_angle_alpha 90.000000
_cell_angle_beta 90.000000
_cell_angle_gamma 90.000000
_cell_volume 5663.335910
_symmetry_space_group_name_H-M "C M C M"
_symmetry_group_IT_number 63
_symmetry_cell_setting 'orthorhombic'
loop_
_space_group_symop_operation_xyz
x,y,z
-x,-y,1/2+z
x,-y,-z
-x,y,1/2-z
-x,-y,-z
x,y,1/2-z
-x,y,z
x,-y,1/2+z
1/2+x,1/2+y,z
1/2-x,1/2-y,1/2+z
1/2+x,1/2-y,-z
1/2-x,1/2+y,1/2-z
1/2-x,1/2-y,-z
1/2+x,1/2+y,1/2-z
1/2-x,1/2+y,z
1/2+x,1/2-y,1/2+z
loop_
_atom_site_type_symbol
_atom_site_label
_atom_site_fract_x
_atom_site_fract_y
_atom_site_fract_z
Si Si1 0.680272 0.445804 0.518933
Si Si2 0.825837 0.701786 0.434855
Si Si3 0.818769 0.358560 0.452114
Si Si4 0.178850 0.735707 0.250000
Si Si5 0.321740 0.217671 0.637730
Si Si6 0.825010 0.399310 0.868232
Si Si7 0.820399 0.127963 0.250000
O O1 0.719936 0.500000 0.500000
O O2 0.500000 0.441929 0.523862
O O3 0.738668 0.407542 0.471219
O O4 0.753455 0.431061 0.580422
O O5 0.783727 0.680126 0.497086
O O6 0.715680 0.741985 0.410509
O O7 0.820788 0.655756 0.392041
O O8 0.000000 0.719248 0.436419
O O9 0.779620 0.333559 0.391287
O O10 0.000000 0.365748 0.454209
O O11 0.230974 0.765554 0.306188
O O12 0.255068 0.682725 0.250000
O O13 0.000000 0.728658 0.250000
O O14 0.500000 0.217504 0.650194
O O15 0.738253 0.398699 0.807648
O O16 0.000000 0.412329 0.860022
O O17 0.000000 0.130740 0.250000
#
# Coordination Sequence:
#
# PCOD9472375 Si02
#       7
#    16  16  16   8  16  16   8
#     4  10  21  37  58  84 110 138 178 227 278 328
#     4   9  17  30  48  73 106 140 172 211 258 314
#     4   9  20  35  52  76 105 137 175 219 269 323
#     4  12  24  36  50  71 106 153 190 220 261 313
#     4  11  21  33  50  74 104 141 183 222 260 309
#     4  10  20  34  54  80 111 145 181 220 268 325
#     4  12  22  34  54  79 110 147 184 222 265 313
#
# _framework density 16.951141
#
# number of rings (size 3 to 8) (size 9 to 14) (size 15 to 20)
#    0.000    1.833    1.667    4.500    0.000    5.333 
#    0.000    0.000    0.000    1.000    0.000    4.667 
#    0.000    0.000    0.000    0.000    0.000    0.000 
#
# Total GULP energy -267935.338455 kJ/mol
# GULP energy per Si atom -5581.986218 kJ/mol
# Density = 1.691256 g / cm^3
# Si number density = 16.951141 Si / 1000 Ang^3
#
#
#
# Elastic Constant Matrix: (Units=GPa)
#
#
# Indices 1 2 3 4 5 6 
#
# 1 93.2329 55.8839 55.1586 0.0000 0.0000 0.0000
# 2 55.8839 95.7066 67.8423 0.0000 0.0000 0.0000
# 3 55.1586 67.8423 77.5338 0.0000 0.0000 0.0000
# 4 0.0000 0.0000 0.0000 10.2918 0.0000 0.0000
# 5 0.0000 0.0000 0.0000 0.0000 27.7039 0.0000
# 6 0.0000 0.0000 0.0000 0.0000 0.0000 19.8413
#
#
#
# Elastic Compliance Matrix: (Units=1/GPa)
#
#
# Indices 1 2 3 4 5 6 
#
# 1 0.019086 -0.004002 -0.010077 0.000000 0.000000 0.000000
# 2 -0.004002 0.028354 -0.021963 0.000000 0.000000 0.000000
# 3 -0.010077 -0.021963 0.039284 0.000000 0.000000 0.000000
# 4 0.000000 0.000000 0.000000 0.097165 0.000000 0.000000
# 5 0.000000 0.000000 0.000000 0.000000 0.036096 0.000000
# 6 0.000000 0.000000 0.000000 0.000000 0.000000 0.050400
#
#
# Mechanical properties :
#
#
# Convention : Reuss Voigt Hill
#
# Bulk Modulus (GPa) = 68.29936 69.36031 68.82983
# Shear Modulus (GPa) = 14.39488 17.40664 15.90076
#
# Velocity S-wave (km/s) = 2.91726 3.20796 3.06606
# Velocity P-wave (km/s) = 7.19212 7.39783 7.29570
#
# Compressibility (1/GPa) = 0.01464143
#
# Stress axis : x y z
#
# Youngs Moduli (GPa) = 52.39477 35.26901 25.45596
#
# Poissons Ratio (x) = 0.14113 0.25651
# Poissons Ratio (y) = 0.20966 0.55908
# Poissons Ratio (z) = 0.52796 0.77460
#
# Static dielectric constant tensor:
#      x y z
#    x 1.568080 0.000000 0.000000 
#    y 0.000000 1.555670 0.000000 
#    z 0.000000 0.000000 1.593920 
# 
# From -- ./inp_files/59998.got.cif
#   From: 2010.05.17/outbox.cif.g08.bks.cpg/sg63_30_cif.got.tgz:59998.got - 2010.06.03 15:47:04.
