data_PCOD9472668
_publ_section_title
;
Structure prediction by ZEFSAII (Michael W. Deem and Ramdas Pophale) SiO2 
 PCOD9472668
Probable space group: C M C M
;
_chemical_formula_sum "Si O2"
_cell_formula_units_Z 112
_cell_length_a 13.102439
_cell_length_b 24.535928
_cell_length_c 15.868695
_cell_angle_alpha 90.000000
_cell_angle_beta 90.000000
_cell_angle_gamma 90.000000
_cell_volume 5101.476002
_symmetry_space_group_name_H-M "C M C M"
_symmetry_group_IT_number 63
_symmetry_cell_setting 'orthorhombic'
loop_
_space_group_symop_operation_xyz
x,y,z
-x,-y,1/2+z
x,-y,-z
-x,y,1/2-z
-x,-y,-z
x,y,1/2-z
-x,y,z
x,-y,1/2+z
1/2+x,1/2+y,z
1/2-x,1/2-y,1/2+z
1/2+x,1/2-y,-z
1/2-x,1/2+y,1/2-z
1/2-x,1/2-y,-z
1/2+x,1/2+y,1/2-z
1/2-x,1/2+y,z
1/2+x,1/2-y,1/2+z
loop_
_atom_site_type_symbol
_atom_site_label
_atom_site_fract_x
_atom_site_fract_y
_atom_site_fract_z
Si Si1 0.829880 0.328137 0.597310
Si Si2 0.387812 0.711581 0.651496
Si Si3 0.612768 0.564830 0.500000
Si Si4 0.170120 0.671862 0.902690
Si Si5 0.265294 0.937249 0.653332
Si Si6 0.387812 0.711582 0.348504
Si Si7 0.734706 0.937249 0.346668
O O1 0.882377 0.277044 0.641928
O O2 0.860352 0.329813 0.500000
O O3 0.843234 0.387526 0.638295
O O4 0.709355 0.312227 0.603556
O O5 0.375110 0.697764 0.750000
O O6 0.500000 0.693419 0.623361
O O7 0.290645 0.687772 0.603556
O O8 0.601063 0.500000 0.500000
O O9 0.500000 0.589321 0.500000
O O10 0.678073 0.574634 0.415752
O O11 0.678073 0.574634 0.584248
O O12 0.117623 0.722956 0.858071
O O13 0.156765 0.612474 0.861706
O O14 0.228697 0.934259 0.750000
O O15 0.301151 1.000000 0.639534
O O16 0.375110 0.697764 0.250000
O O17 0.500000 0.693420 0.376639
O O18 0.771302 0.934259 0.250000
#
# Coordination Sequence:
#
# PCOD9472668 Si02
#       7
#    16  16  16  16  16  16  16
#     4  11  21  35  57  82 113 147 185 233 278 334
#     4  10  21  37  57  81 110 145 187 232 279 335
#     4   9  18  32  48  71 103 139 183 227 269 322
#     4  11  21  35  57  82 113 147 185 233 278 334
#     4  10  20  35  55  78 108 147 187 227 275 331
#     4  10  21  37  57  81 110 145 187 232 279 335
#     4  10  20  35  55  78 108 147 187 227 275 331
#
# _framework density 21.954429999999999
#
# number of rings (size 3 to 8) (size 9 to 14) (size 15 to 20)
#    0.000    1.857    1.429    5.143    0.000    4.000 
#    0.000    2.857    0.000    0.857    0.000    6.000 
#    0.000    0.000    0.000    0.000    0.000    0.000 
#
# Total GULP energy -312507.075212 kJ/mol
# GULP energy per Si atom -5580.483486 kJ/mol
# Density = 2.190446 g / cm^3
# Si number density = 21.954430 Si / 1000 Ang^3
#
#
#
# Elastic Constant Matrix: (Units=GPa)
#
#
# Indices 1 2 3 4 5 6 
#
# 1 35.0307 -5.1884 -8.3567 0.0000 0.0000 0.0000
# 2 -5.1884 146.3606 5.5284 0.0000 0.0000 0.0000
# 3 -8.3567 5.5284 97.9123 0.0000 0.0000 0.0000
# 4 0.0000 0.0000 0.0000 18.4660 0.0000 0.0000
# 5 0.0000 0.0000 0.0000 0.0000 4.5654 0.0000
# 6 0.0000 0.0000 0.0000 0.0000 0.0000 5.0265
#
#
#
# Elastic Compliance Matrix: (Units=1/GPa)
#
#
# Indices 1 2 3 4 5 6 
#
# 1 0.029270 0.000945 0.002445 0.000000 0.000000 0.000000
# 2 0.000945 0.006878 -0.000308 0.000000 0.000000 0.000000
# 3 0.002445 -0.000308 0.010439 0.000000 0.000000 0.000000
# 4 0.000000 0.000000 0.000000 0.054153 0.000000 0.000000
# 5 0.000000 0.000000 0.000000 0.000000 0.219041 0.000000
# 6 0.000000 0.000000 0.000000 0.000000 0.000000 0.198945
#
#
# Mechanical properties :
#
#
# Convention : Reuss Voigt Hill
#
# Bulk Modulus (GPa) = 18.95694 29.25225 24.10460
# Shear Modulus (GPa) = 9.43139 24.76627 17.09883
#
# Velocity S-wave (km/s) = 2.07490 3.36233 2.79379
# Velocity P-wave (km/s) = 3.79390 5.33167 4.62711
#
# Compressibility (1/GPa) = 0.05275112
#
# Stress axis : x y z
#
# Youngs Moduli (GPa) = 34.16515 145.40022 95.79232
#
# Poissons Ratio (x) = -0.13744 -0.23419
# Poissons Ratio (y) = -0.03229 0.02947
# Poissons Ratio (z) = -0.08353 0.04473
#
# Static dielectric constant tensor:
#      x y z
#    x 1.828410 0.000000 0.000000 
#    y 0.000000 1.844630 0.000000 
#    z 0.000000 0.000000 1.951810 
# 
# From -- ./inp_files/32575.got.cif
#   From: 2010.05.17/outbox.cif.g08.bks.cpg/sg63_17_cif.got.tgz:32575.got - 2010.06.03 15:47:04.
