data_PCOD9472823
_publ_section_title
;
Structure prediction by ZEFSAII (Michael W. Deem and Ramdas Pophale) SiO2 
 PCOD9472823
Probable space group: C M C M
;
_chemical_formula_sum "Si O2"
_cell_formula_units_Z 96
_cell_length_a 8.586258
_cell_length_b 21.007183
_cell_length_c 25.529765
_cell_angle_alpha 90.000000
_cell_angle_beta 90.000000
_cell_angle_gamma 90.000000
_cell_volume 4604.882679
_symmetry_space_group_name_H-M "C M C M"
_symmetry_group_IT_number 63
_symmetry_cell_setting 'orthorhombic'
loop_
_space_group_symop_operation_xyz
x,y,z
-x,-y,1/2+z
x,-y,-z
-x,y,1/2-z
-x,-y,-z
x,y,1/2-z
-x,y,z
x,-y,1/2+z
1/2+x,1/2+y,z
1/2-x,1/2-y,1/2+z
1/2+x,1/2-y,-z
1/2-x,1/2+y,1/2-z
1/2-x,1/2-y,-z
1/2+x,1/2+y,1/2-z
1/2-x,1/2+y,z
1/2+x,1/2-y,1/2+z
loop_
_atom_site_type_symbol
_atom_site_label
_atom_site_fract_x
_atom_site_fract_y
_atom_site_fract_z
Si Si1 0.822527 0.221194 0.551403
Si Si2 0.812865 0.857927 0.307893
Si Si3 0.688170 0.536074 0.609016
Si Si4 0.178782 0.084889 0.998085
Si Si5 0.180052 0.228822 0.345925
Si Si6 0.315332 0.901102 0.886746
O O1 0.750000 0.250000 0.500000
O O2 0.830333 0.147162 0.538830
O O3 0.707524 0.240288 0.597093
O O4 0.000000 0.243295 0.563043
O O5 0.772719 0.882866 0.250000
O O6 0.756499 0.905909 0.353700
O O7 0.755599 0.785012 0.311737
O O8 0.000000 0.855821 0.312940
O O9 0.500000 0.538400 0.607728
O O10 0.740761 0.537295 0.547366
O O11 0.742753 0.468262 0.631018
O O12 0.000000 0.069329 0.013405
O O13 0.266049 0.103640 0.051480
O O14 0.254995 0.159077 0.353193
O O15 0.000000 0.221724 0.332668
O O16 0.500000 0.903422 0.883777
#
# Coordination Sequence:
#
# PCOD9472823 Si02
#       6
#    16  16  16  16  16  16
#     4  11  20  33  55  86 122 162 204 246 298 355
#     4  10  22  44  72  96 118 150 197 254 313 372
#     4  10  21  40  62  88 124 164 202 244 305 371
#     4  10  20  35  57  85 123 166 205 244 296 363
#     4  12  24  39  61  88 123 162 204 253 303 358
#     4  12  25  38  57  88 127 167 209 252 301 357
#
# _framework density 20.847436999999999
#
# number of rings (size 3 to 8) (size 9 to 14) (size 15 to 20)
#    0.000    1.167    3.333    4.000    0.000    4.333 
#    0.000    0.833    0.000    3.000    0.000    0.000 
#    0.000    0.000    0.000    0.000    0.000    0.000 
#
# Total GULP energy -267785.443826 kJ/mol
# GULP energy per Si atom -5578.863413 kJ/mol
# Density = 2.079999 g / cm^3
# Si number density = 20.847437 Si / 1000 Ang^3
#
#
#
# Elastic Constant Matrix: (Units=GPa)
#
#
# Indices 1 2 3 4 5 6 
#
# 1 37.3571 20.0929 17.3605 0.0000 0.0000 0.0000
# 2 20.0929 129.5718 28.9546 0.0000 0.0000 0.0000
# 3 17.3605 28.9546 92.1717 0.0000 0.0000 0.0000
# 4 0.0000 0.0000 0.0000 25.9501 0.0000 0.0000
# 5 0.0000 0.0000 0.0000 0.0000 14.6732 0.0000
# 6 0.0000 0.0000 0.0000 0.0000 0.0000 31.3769
#
#
#
# Elastic Compliance Matrix: (Units=1/GPa)
#
#
# Indices 1 2 3 4 5 6 
#
# 1 0.030952 -0.003761 -0.004648 0.000000 0.000000 0.000000
# 2 -0.003761 0.008757 -0.002043 0.000000 0.000000 0.000000
# 3 -0.004648 -0.002043 0.012366 0.000000 0.000000 0.000000
# 4 0.000000 0.000000 0.000000 0.038536 0.000000 0.000000
# 5 0.000000 0.000000 0.000000 0.000000 0.068152 0.000000
# 6 0.000000 0.000000 0.000000 0.000000 0.000000 0.031871
#
#
# Mechanical properties :
#
#
# Convention : Reuss Voigt Hill
#
# Bulk Modulus (GPa) = 32.08032 43.54631 37.81331
# Shear Modulus (GPa) = 22.52985 27.24620 24.88802
#
# Velocity S-wave (km/s) = 3.29097 3.61907 3.45891
# Velocity P-wave (km/s) = 5.46463 6.19653 5.84205
#
# Compressibility (1/GPa) = 0.03117176
#
# Stress axis : x y z
#
# Youngs Moduli (GPa) = 32.30836 114.18894 80.86370
#
# Poissons Ratio (x) = 0.42947 0.37588
# Poissons Ratio (y) = 0.12151 0.16518
# Poissons Ratio (z) = 0.15018 0.23325
#
# Static dielectric constant tensor:
#      x y z
#    x 1.712840 0.000000 0.000000 
#    y 0.000000 1.866400 0.000000 
#    z 0.000000 0.000000 1.743650 
# 
# From -- ./inp_files/66952.got.cif
#   From: 2010.05.17/outbox.cif.g08.bks.cpg/sg63_34_cif.got.tgz:66952.got - 2010.06.03 15:47:04.
