data_PCOD9472909
_publ_section_title
;
Structure prediction by ZEFSAII (Michael W. Deem and Ramdas Pophale) SiO2 
 PCOD9472909
Probable space group: C M C M
;
_chemical_formula_sum "Si O2"
_cell_formula_units_Z 96
_cell_length_a 11.664186
_cell_length_b 18.376491
_cell_length_c 23.434121
_cell_angle_alpha 90.000000
_cell_angle_beta 90.000000
_cell_angle_gamma 90.000000
_cell_volume 5023.029059
_symmetry_space_group_name_H-M "C M C M"
_symmetry_group_IT_number 63
_symmetry_cell_setting 'orthorhombic'
loop_
_space_group_symop_operation_xyz
x,y,z
-x,-y,1/2+z
x,-y,-z
-x,y,1/2-z
-x,-y,-z
x,y,1/2-z
-x,y,z
x,-y,1/2+z
1/2+x,1/2+y,z
1/2-x,1/2-y,1/2+z
1/2+x,1/2-y,-z
1/2-x,1/2+y,1/2-z
1/2-x,1/2-y,-z
1/2+x,1/2+y,1/2-z
1/2-x,1/2+y,z
1/2+x,1/2-y,1/2+z
loop_
_atom_site_type_symbol
_atom_site_label
_atom_site_fract_x
_atom_site_fract_y
_atom_site_fract_z
Si Si1 0.773282 0.842477 0.114041
Si Si2 0.633822 0.812908 0.595960
Si Si3 0.872139 0.564317 0.817990
Si Si4 0.248735 0.415551 0.818926
Si Si5 0.865287 0.585225 0.986288
Si Si6 0.000000 0.105140 0.818321
Si Si7 0.000000 0.070308 0.183040
O O1 0.791904 0.760136 0.094801
O O2 0.673779 0.859354 0.159576
O O3 0.726732 0.889546 0.060752
O O4 0.888586 0.867347 0.147189
O O5 0.500000 0.792741 0.596237
O O6 0.665312 0.858085 0.652372
O O7 0.653601 0.866125 0.542561
O O8 0.872349 0.565327 0.750000
O O9 0.791209 0.497049 0.835204
O O10 0.000000 0.548483 0.838599
O O11 0.245717 0.411488 0.750000
O O12 0.378554 0.403137 0.840357
O O13 0.000000 0.596776 0.968960
O O14 0.852728 0.500000 0.000000
O O15 0.000000 0.125587 0.750000
O O16 0.000000 0.017418 0.819473
O O17 0.000000 0.089875 0.250000
#
# Coordination Sequence:
#
# PCOD9472909 Si02
#       7
#    16  16  16  16  16   8   8
#     4  12  22  40  62  89 125 165 202 253 317 382
#     4  11  24  41  60  90 125 161 208 262 318 380
#     4  10  20  35  59  89 119 156 209 260 306 372
#     4  10  20  37  61  89 124 165 211 263 315 374
#     4  10  23  44  69  91 117 159 210 269 320 369
#     4  11  22  38  64  94 129 166 205 250 311 380
#     4   9  18  36  59  85 121 163 203 250 302 362
#
# _framework density 19.111974
#
# number of rings (size 3 to 8) (size 9 to 14) (size 15 to 20)
#    0.000    1.500    2.500    3.000    0.000    3.667 
#    3.000    1.250    0.000    0.000    0.000    0.000 
#    0.000    0.000    0.000    0.000    0.000    0.000 
#
# Total GULP energy -267758.400513 kJ/mol
# GULP energy per Si atom -5578.300011 kJ/mol
# Density = 1.906847 g / cm^3
# Si number density = 19.111974 Si / 1000 Ang^3
#
#
#
# Elastic Constant Matrix: (Units=GPa)
#
#
# Indices 1 2 3 4 5 6 
#
# 1 89.9873 32.6171 42.4524 0.0000 0.0000 0.0000
# 2 32.6171 97.0937 39.5536 0.0000 0.0000 0.0000
# 3 42.4524 39.5536 73.0095 0.0000 0.0000 0.0000
# 4 0.0000 0.0000 0.0000 21.8984 0.0000 0.0000
# 5 0.0000 0.0000 0.0000 0.0000 30.7889 0.0000
# 6 0.0000 0.0000 0.0000 0.0000 0.0000 14.7264
#
#
#
# Elastic Compliance Matrix: (Units=1/GPa)
#
#
# Indices 1 2 3 4 5 6 
#
# 1 0.015605 -0.001984 -0.007999 0.000000 0.000000 0.000000
# 2 -0.001984 0.013468 -0.006143 0.000000 0.000000 0.000000
# 3 -0.007999 -0.006143 0.021676 0.000000 0.000000 0.000000
# 4 0.000000 0.000000 0.000000 0.045665 0.000000 0.000000
# 5 0.000000 0.000000 0.000000 0.000000 0.032479 0.000000
# 6 0.000000 0.000000 0.000000 0.000000 0.000000 0.067905
#
#
# Mechanical properties :
#
#
# Convention : Reuss Voigt Hill
#
# Bulk Modulus (GPa) = 54.06072 54.37075 54.21573
# Shear Modulus (GPa) = 21.25688 23.18058 22.21873
#
# Velocity S-wave (km/s) = 3.33863 3.48642 3.41333
# Velocity P-wave (km/s) = 6.57340 6.68709 6.63049
#
# Compressibility (1/GPa) = 0.01849772
#
# Stress axis : x y z
#
# Youngs Moduli (GPa) = 64.08011 74.24861 46.13341
#
# Poissons Ratio (x) = 0.14729 0.36904
# Poissons Ratio (y) = 0.12711 0.28340
# Poissons Ratio (z) = 0.51260 0.45612
#
# Static dielectric constant tensor:
#      x y z
#    x 1.685500 0.000000 0.000000 
#    y 0.000000 1.634000 0.000000 
#    z 0.000000 0.000000 1.684710 
# 
# From -- ./inp_files/61510.got.cif
#   From: 2010.05.17/outbox.cif.g08.bks.cpg/sg63_31_cif.got.tgz:61510.got - 2010.06.03 15:47:04.
