data_PCOD9472230
_publ_section_title
;
Structure prediction by ZEFSAII (Michael W. Deem and Ramdas Pophale) SiO2 
 PCOD9472230
Probable space group: C M C M
;
_chemical_formula_sum "Si O2"
_cell_formula_units_Z 104
_cell_length_a 21.797317
_cell_length_b 27.113370
_cell_length_c 8.947596
_cell_angle_alpha 90.000000
_cell_angle_beta 90.000000
_cell_angle_gamma 90.000000
_cell_volume 5288.017790
_symmetry_space_group_name_H-M "C M C M"
_symmetry_group_IT_number 63
_symmetry_cell_setting 'orthorhombic'
loop_
_space_group_symop_operation_xyz
x,y,z
-x,-y,1/2+z
x,-y,-z
-x,y,1/2-z
-x,-y,-z
x,y,1/2-z
-x,y,z
x,-y,1/2+z
1/2+x,1/2+y,z
1/2-x,1/2-y,1/2+z
1/2+x,1/2-y,-z
1/2-x,1/2+y,1/2-z
1/2-x,1/2-y,-z
1/2+x,1/2+y,1/2-z
1/2-x,1/2+y,z
1/2+x,1/2-y,1/2+z
loop_
_atom_site_type_symbol
_atom_site_label
_atom_site_fract_x
_atom_site_fract_y
_atom_site_fract_z
Si Si1 0.000000 0.447090 0.928327
Si Si2 0.927863 0.266425 0.569421
Si Si3 0.570649 0.448411 0.429619
Si Si4 0.321343 0.617171 0.574393
Si Si5 0.306561 0.719289 0.071739
Si Si6 0.112922 0.378105 0.928717
Si Si7 0.792474 0.552422 0.576837
O O1 0.058927 0.415547 0.970226
O O2 0.000000 0.452118 0.750000
O O3 0.000000 0.500000 0.000000
O O4 0.924362 0.260048 0.750000
O O5 0.873440 0.235305 0.492847
O O6 0.909146 0.323116 0.534491
O O7 0.000000 0.257672 0.527941
O O8 0.591581 0.500000 0.500000
O O9 0.574225 0.452648 0.250000
O O10 0.500000 0.441084 0.473089
O O11 0.612046 0.402095 0.472537
O O12 0.321644 0.632245 0.750000
O O13 0.298910 0.662474 0.476087
O O14 0.277810 0.569413 0.563274
O O15 0.305196 0.725515 0.250000
O O16 0.250000 0.750000 0.000000
O O17 0.122289 0.379407 0.750000
O O18 0.171163 0.401277 0.008688
O O19 0.804752 0.500000 0.500000
O O20 0.808728 0.547475 0.750000
#
# Coordination Sequence:
#
# PCOD9472230 Si02
#       7
#     8  16  16  16  16  16  16
#     4  10  20  34  52  78 110 144 186 232 277 332
#     4  10  21  41  68  94 123 163 206 254 314 373
#     4   9  18  34  58  87 119 156 195 236 288 352
#     4  10  22  40  60  85 118 154 197 248 302 363
#     4  12  26  43  64  91 123 160 206 260 316 373
#     4  10  20  37  59  83 114 151 195 240 289 349
#     4  11  23  37  56  84 118 156 198 245 298 355
#
# _framework density 19.667104999999999
#
# number of rings (size 3 to 8) (size 9 to 14) (size 15 to 20)
#    0.000    1.692    0.769    3.692    0.000    7.692 
#    0.000    1.538    0.000    0.000    0.000    0.000 
#    0.000    0.000    0.000    0.000    0.000    0.000 
#
# Total GULP energy -290316.010704 kJ/mol
# GULP energy per Si atom -5583.000206 kJ/mol
# Density = 1.962234 g / cm^3
# Si number density = 19.667105 Si / 1000 Ang^3
#
#
#
# Elastic Constant Matrix: (Units=GPa)
#
#
# Indices 1 2 3 4 5 6 
#
# 1 97.9578 29.1664 42.9280 0.0000 0.0000 0.0000
# 2 29.1664 63.1053 30.9275 0.0000 0.0000 0.0000
# 3 42.9280 30.9275 48.3727 0.0000 0.0000 0.0000
# 4 0.0000 0.0000 0.0000 30.7701 0.0000 0.0000
# 5 0.0000 0.0000 0.0000 0.0000 26.5835 0.0000
# 6 0.0000 0.0000 0.0000 0.0000 0.0000 54.8467
#
#
#
# Elastic Compliance Matrix: (Units=1/GPa)
#
#
# Indices 1 2 3 4 5 6 
#
# 1 0.016724 -0.000664 -0.014417 0.000000 0.000000 0.000000
# 2 -0.000664 0.023104 -0.014183 0.000000 0.000000 0.000000
# 3 -0.014417 -0.014183 0.042535 0.000000 0.000000 0.000000
# 4 0.000000 0.000000 0.000000 0.032499 0.000000 0.000000
# 5 0.000000 0.000000 0.000000 0.000000 0.037617 0.000000
# 6 0.000000 0.000000 0.000000 0.000000 0.000000 0.018233
#
#
# Mechanical properties :
#
#
# Convention : Reuss Voigt Hill
#
# Bulk Modulus (GPa) = 41.95374 46.16443 44.05908
# Shear Modulus (GPa) = 21.08050 29.53433 25.30741
#
# Velocity S-wave (km/s) = 3.27749 3.87940 3.59108
# Velocity P-wave (km/s) = 5.97502 6.60229 6.29647
#
# Compressibility (1/GPa) = 0.02383578
#
# Stress axis : x y z
#
# Youngs Moduli (GPa) = 59.79334 43.28214 23.50989
#
# Poissons Ratio (x) = 0.02873 0.33895
# Poissons Ratio (y) = 0.03969 0.33343
# Poissons Ratio (z) = 0.86206 0.61386
#
# Static dielectric constant tensor:
#      x y z
#    x 1.737480 0.000000 0.000000 
#    y 0.000000 1.683260 0.000000 
#    z 0.000000 0.000000 1.656140 
# 
# From -- ./inp_files/8755.got.cif
#   From: 2010.05.17/outbox.cif.g08.bks.cpg/sg63_5_cif.got.tgz:8755.got - 2010.06.03 15:47:04.
