data_PCOD9472254
_publ_section_title
;
Structure prediction by ZEFSAII (Michael W. Deem and Ramdas Pophale) SiO2 
 PCOD9472254
Probable space group: C M C M
;
_chemical_formula_sum "Si O2"
_cell_formula_units_Z 80
_cell_length_a 7.493376
_cell_length_b 26.489707
_cell_length_c 18.972169
_cell_angle_alpha 90.000000
_cell_angle_beta 90.000000
_cell_angle_gamma 90.000000
_cell_volume 3765.924980
_symmetry_space_group_name_H-M "C M C M"
_symmetry_group_IT_number 63
_symmetry_cell_setting 'orthorhombic'
loop_
_space_group_symop_operation_xyz
x,y,z
-x,-y,1/2+z
x,-y,-z
-x,y,1/2-z
-x,-y,-z
x,y,1/2-z
-x,y,z
x,-y,1/2+z
1/2+x,1/2+y,z
1/2-x,1/2-y,1/2+z
1/2+x,1/2-y,-z
1/2-x,1/2+y,1/2-z
1/2-x,1/2-y,-z
1/2+x,1/2+y,1/2-z
1/2-x,1/2+y,z
1/2+x,1/2-y,1/2+z
loop_
_atom_site_type_symbol
_atom_site_label
_atom_site_fract_x
_atom_site_fract_y
_atom_site_fract_z
Si Si1 0.781180 0.599088 0.330811
Si Si2 0.215003 0.903704 0.330460
Si Si3 0.213147 0.304618 0.916258
Si Si4 0.712760 0.003654 0.079481
Si Si5 0.214462 0.808758 0.079854
O O1 0.725907 0.593974 0.250000
O O2 0.720370 0.651571 0.365301
O O3 0.719292 0.551931 0.377518
O O4 0.000000 0.599078 0.331511
O O5 0.280081 0.907847 0.250000
O O6 0.258018 0.952827 0.376419
O O7 0.281217 0.853365 0.370132
O O8 0.000000 0.900352 0.327618
O O9 0.282878 0.247810 0.904245
O O10 0.000000 0.302211 0.906810
O O11 0.246257 0.318812 0.997722
O O12 0.500000 0.010899 0.073488
O O13 0.784624 0.000000 0.000000
O O14 0.000000 0.807428 0.086929
#
# Coordination Sequence:
#
# PCOD9472254 Si02
#       5
#    16  16  16  16  16
#     4   9  17  29  47  72  98 122 154 198 242 282
#     4  10  21  35  50  72 103 135 166 201 244 296
#     4   9  17  31  52  74  95 124 162 200 239 286
#     4  10  20  34  53  75  98 127 165 207 248 291
#     4   9  18  32  50  72  98 127 159 198 241 284
#
# _framework density 21.243120000000001
#
# number of rings (size 3 to 8) (size 9 to 14) (size 15 to 20)
#    0.000    2.600    0.000    1.800    0.000    4.800 
#    0.000    5.000    0.000    1.800    0.000    5.600 
#    0.000    0.000    0.000    0.000    0.000    0.000 
#
# Total GULP energy -223414.532332 kJ/mol
# GULP energy per Si atom -5585.363308 kJ/mol
# Density = 2.119477 g / cm^3
# Si number density = 21.243120 Si / 1000 Ang^3
#
#
#
# Elastic Constant Matrix: (Units=GPa)
#
#
# Indices 1 2 3 4 5 6 
#
# 1 57.4919 -2.7016 -3.7609 0.0000 0.0000 0.0000
# 2 -2.7016 158.2351 123.2376 0.0000 0.0000 0.0000
# 3 -3.7609 123.2376 178.8786 0.0000 0.0000 0.0000
# 4 0.0000 0.0000 0.0000 -535.1430 0.0000 0.0000
# 5 0.0000 0.0000 0.0000 0.0000 14.6230 0.0000
# 6 0.0000 0.0000 0.0000 0.0000 0.0000 14.9442
#
#
#
# Elastic Compliance Matrix: (Units=1/GPa)
#
#
# Indices 1 2 3 4 5 6 
#
# 1 0.017418 0.000026 0.000348 0.000000 0.000000 0.000000
# 2 0.000026 0.013637 -0.009394 0.000000 0.000000 0.000000
# 3 0.000348 -0.009394 0.012070 0.000000 0.000000 0.000000
# 4 0.000000 0.000000 0.000000 -0.001869 0.000000 0.000000
# 5 0.000000 0.000000 0.000000 0.000000 0.068385 0.000000
# 6 0.000000 0.000000 0.000000 0.000000 0.000000 0.066915
#
#
# Mechanical properties :
#
#
# Convention : Reuss Voigt Hill
#
# Bulk Modulus (GPa) = 39.86549 69.79509 54.83029
# Shear Modulus (GPa) = 24.63559 -82.59312 -28.97876
#
# Velocity S-wave (km/s) = 3.40913 -6.24214 -3.69744
# Velocity P-wave (km/s) = 5.85690 4.36185 2.76383
#
# Compressibility (1/GPa) = 0.02508435
#
# Stress axis : x y z
#
# Youngs Moduli (GPa) = 57.41271 73.33091 82.85015
#
# Poissons Ratio (x) = -0.00193 -0.02884
# Poissons Ratio (y) = -0.00151 0.77833
# Poissons Ratio (z) = -0.01999 0.68891
#
# Static dielectric constant tensor:
#      x y z
#    x 1.837210 0.000000 0.000000 
#    y 0.000000 1.743690 0.000000 
#    z 0.000000 0.000000 1.720880 
# 
# From -- ./inp_files/30038.got.cif
#   From: 2010.05.17/outbox.cif.g08.bks.cpg/sg63_16_cif.got.tgz:30038.got - 2010.06.03 15:47:04.
