data_PCOD9472074
_publ_section_title
;
Structure prediction by ZEFSAII (Michael W. Deem and Ramdas Pophale) SiO2 
 PCOD9472074
Probable space group: C M C M
;
_chemical_formula_sum "Si O2"
_cell_formula_units_Z 104
_cell_length_a 23.606978
_cell_length_b 29.250037
_cell_length_c 8.472547
_cell_angle_alpha 90.000000
_cell_angle_beta 90.000000
_cell_angle_gamma 90.000000
_cell_volume 5850.335896
_symmetry_space_group_name_H-M "C M C M"
_symmetry_group_IT_number 63
_symmetry_cell_setting 'orthorhombic'
loop_
_space_group_symop_operation_xyz
x,y,z
-x,-y,1/2+z
x,-y,-z
-x,y,1/2-z
-x,-y,-z
x,y,1/2-z
-x,y,z
x,-y,1/2+z
1/2+x,1/2+y,z
1/2-x,1/2-y,1/2+z
1/2+x,1/2-y,-z
1/2-x,1/2+y,1/2-z
1/2-x,1/2-y,-z
1/2+x,1/2+y,1/2-z
1/2-x,1/2+y,z
1/2+x,1/2-y,1/2+z
loop_
_atom_site_type_symbol
_atom_site_label
_atom_site_fract_x
_atom_site_fract_y
_atom_site_fract_z
Si Si1 0.386580 0.604210 0.060650
Si Si2 0.693337 0.796794 0.059382
Si Si3 0.500000 0.553323 0.561344
Si Si4 0.177550 0.196311 0.059484
Si Si5 0.438884 0.948576 0.938197
Si Si6 0.777764 0.948822 0.440448
Si Si7 0.666698 0.106178 0.939450
O O1 0.392366 0.605914 0.250000
O O2 0.363784 0.654931 0.006057
O O3 0.444448 0.582195 0.993383
O O4 0.335526 0.570664 0.012129
O O5 0.697098 0.795316 0.250000
O O6 0.665097 0.748865 0.009882
O O7 0.660427 0.841679 0.007626
O O8 0.757242 0.806109 0.998326
O O9 0.500000 0.500000 0.500000
O O10 0.500000 0.550619 0.750000
O O11 0.177647 0.193948 0.250000
O O12 0.436335 0.949186 0.750000
O O13 0.500000 0.928941 0.987398
O O14 0.386045 0.922234 0.004517
O O15 0.436474 0.000000 0.000000
O O16 0.781445 0.948272 0.250000
O O17 0.725560 0.916760 0.492540
O O18 0.767587 0.000000 0.500000
O O19 0.668763 0.105762 0.750000
#
# Coordination Sequence:
#
# PCOD9472074 Si02
#       7
#    16  16   8  16  16  16  16
#     4  11  22  38  59  84 112 146 186 230 279 334
#     4   9  17  32  53  82 115 143 177 217 264 320
#     4  12  26  44  64  84 110 148 192 240 291 344
#     4   9  18  32  55  83 111 143 177 217 266 320
#     4  10  21  36  54  75 102 139 181 223 266 318
#     4  11  22  35  51  78 112 146 179 222 272 326
#     4  10  20  33  53  80 110 143 178 221 268 318
#
# _framework density 17.776757
#
# number of rings (size 3 to 8) (size 9 to 14) (size 15 to 20)
#    0.000    1.846    1.538    3.000    0.000    4.615 
#    0.000    0.000    1.692    0.000    0.000    0.000 
#    0.000    0.000    0.000    0.000    0.000    0.000 
#
# Total GULP energy -289845.202782 kJ/mol
# GULP energy per Si atom -5573.946207 kJ/mol
# Density = 1.773630 g / cm^3
# Si number density = 17.776757 Si / 1000 Ang^3
#
#
#
# Elastic Constant Matrix: (Units=GPa)
#
#
# Indices 1 2 3 4 5 6 
#
# 1 88.7252 51.0585 16.5068 0.0000 0.0000 0.0000
# 2 51.0585 139.9700 25.6084 0.0000 0.0000 0.0000
# 3 16.5068 25.6084 23.5920 0.0000 0.0000 0.0000
# 4 0.0000 0.0000 0.0000 12.1972 0.0000 0.0000
# 5 0.0000 0.0000 0.0000 0.0000 40.0187 0.0000
# 6 0.0000 0.0000 0.0000 0.0000 0.0000 19.1976
#
#
#
# Elastic Compliance Matrix: (Units=1/GPa)
#
#
# Indices 1 2 3 4 5 6 
#
# 1 0.014840 -0.004384 -0.005624 0.000000 0.000000 0.000000
# 2 -0.004384 0.010210 -0.008015 0.000000 0.000000 0.000000
# 3 -0.005624 -0.008015 0.055023 0.000000 0.000000 0.000000
# 4 0.000000 0.000000 0.000000 0.081986 0.000000 0.000000
# 5 0.000000 0.000000 0.000000 0.000000 0.024988 0.000000
# 6 0.000000 0.000000 0.000000 0.000000 0.000000 0.052090
#
#
# Mechanical properties :
#
#
# Convention : Reuss Voigt Hill
#
# Bulk Modulus (GPa) = 22.71412 48.73717 35.72565
# Shear Modulus (GPa) = 17.24973 24.89028 21.07000
#
# Velocity S-wave (km/s) = 3.11843 3.74593 3.44649
# Velocity P-wave (km/s) = 5.07654 6.79596 5.99818
#
# Compressibility (1/GPa) = 0.04402548
#
# Stress axis : x y z
#
# Youngs Moduli (GPa) = 67.38445 97.94135 18.17434
#
# Poissons Ratio (x) = 0.42942 0.10222
# Poissons Ratio (y) = 0.29544 0.14567
# Poissons Ratio (z) = 0.37898 0.78502
#
# Static dielectric constant tensor:
#      x y z
#    x 1.584640 0.000000 0.000000 
#    y 0.000000 1.654650 0.000000 
#    z 0.000000 0.000000 1.584720 
# 
# From -- ./inp_files/10819.got.cif
#   From: 2010.05.17/outbox.cif.g08.bks.cpg/sg63_6_cif.got.tgz:10819.got - 2010.06.03 15:47:04.
