data_PCOD9472804
_publ_section_title
;
Structure prediction by ZEFSAII (Michael W. Deem and Ramdas Pophale) SiO2 
 PCOD9472804
Probable space group: C M C M
;
_chemical_formula_sum "Si O2"
_cell_formula_units_Z 80
_cell_length_a 9.388040
_cell_length_b 14.064569
_cell_length_c 30.163718
_cell_angle_alpha 90.000000
_cell_angle_beta 90.000000
_cell_angle_gamma 90.000000
_cell_volume 3982.779208
_symmetry_space_group_name_H-M "C M C M"
_symmetry_group_IT_number 63
_symmetry_cell_setting 'orthorhombic'
loop_
_space_group_symop_operation_xyz
x,y,z
-x,-y,1/2+z
x,-y,-z
-x,y,1/2-z
-x,-y,-z
x,y,1/2-z
-x,y,z
x,-y,1/2+z
1/2+x,1/2+y,z
1/2-x,1/2-y,1/2+z
1/2+x,1/2-y,-z
1/2-x,1/2+y,1/2-z
1/2-x,1/2-y,-z
1/2+x,1/2+y,1/2-z
1/2-x,1/2+y,z
1/2+x,1/2-y,1/2+z
loop_
_atom_site_type_symbol
_atom_site_label
_atom_site_fract_x
_atom_site_fract_y
_atom_site_fract_z
Si Si1 0.833404 0.098660 0.624776
Si Si2 0.337969 0.647521 0.048865
Si Si3 0.337755 0.824813 0.633131
Si Si4 0.163235 0.378245 0.036630
Si Si5 0.831722 0.517555 0.300893
O O1 0.823486 0.211747 0.634374
O O2 0.753475 0.083452 0.578044
O O3 0.000000 0.073771 0.621439
O O4 0.756472 0.045717 0.664931
O O5 0.500000 0.613765 0.045422
O O6 0.270847 0.634004 0.097147
O O7 0.339233 0.762636 0.042135
O O8 0.239768 0.605733 0.010221
O O9 0.500000 0.845888 0.618037
O O10 0.317571 0.875529 0.680113
O O11 0.000000 0.411127 0.037709
O O12 0.786282 0.509058 0.250000
O O13 0.000000 0.492952 0.303519
#
# Coordination Sequence:
#
# PCOD9472804 Si02
#       5
#    16  16  16  16  16
#     4  10  20  35  57  84 112 142 180 226 272 318
#     4   9  16  27  48  79 112 144 180 222 265 311
#     4   9  19  36  57  80 109 146 183 219 267 327
#     4   9  16  28  49  77 111 149 183 215 260 320
#     4  10  22  40  59  79 106 141 181 225 274 329
#
# _framework density 20.086476000000001
#
# number of rings (size 3 to 8) (size 9 to 14) (size 15 to 20)
#    0.000    2.600    0.000    1.800    0.000    7.600 
#    0.000    3.000    0.000    6.000    0.000    0.000 
#    0.000    0.000    0.000    0.000    0.000    0.000 
#
# Total GULP energy -223531.091978 kJ/mol
# GULP energy per Si atom -5588.277299 kJ/mol
# Density = 2.004076 g / cm^3
# Si number density = 20.086476 Si / 1000 Ang^3
#
#
#
# Elastic Constant Matrix: (Units=GPa)
#
#
# Indices 1 2 3 4 5 6 
#
# 1 111.1841 19.4824 73.5277 0.0000 0.0000 0.0000
# 2 19.4824 46.4146 22.1460 0.0000 0.0000 0.0000
# 3 73.5277 22.1460 155.9421 0.0000 0.0000 0.0000
# 4 0.0000 0.0000 0.0000 30.1559 0.0000 0.0000
# 5 0.0000 0.0000 0.0000 0.0000 33.7165 0.0000
# 6 0.0000 0.0000 0.0000 0.0000 0.0000 18.7167
#
#
#
# Elastic Compliance Matrix: (Units=1/GPa)
#
#
# Indices 1 2 3 4 5 6 
#
# 1 0.013400 -0.002800 -0.005921 0.000000 0.000000 0.000000
# 2 -0.002800 0.023696 -0.002045 0.000000 0.000000 0.000000
# 3 -0.005921 -0.002045 0.009495 0.000000 0.000000 0.000000
# 4 0.000000 0.000000 0.000000 0.033161 0.000000 0.000000
# 5 0.000000 0.000000 0.000000 0.000000 0.029659 0.000000
# 6 0.000000 0.000000 0.000000 0.000000 0.000000 0.053428
#
#
# Mechanical properties :
#
#
# Convention : Reuss Voigt Hill
#
# Bulk Modulus (GPa) = 39.90449 60.42811 50.16630
# Shear Modulus (GPa) = 25.94398 29.74348 27.84373
#
# Velocity S-wave (km/s) = 3.59780 3.85225 3.72720
# Velocity P-wave (km/s) = 6.09659 7.06652 6.59940
#
# Compressibility (1/GPa) = 0.02505984
#
# Stress axis : x y z
#
# Youngs Moduli (GPa) = 74.62647 42.20142 105.32220
#
# Poissons Ratio (x) = 0.11815 0.62357
# Poissons Ratio (y) = 0.20893 0.21539
# Poissons Ratio (z) = 0.44184 0.08630
#
# Static dielectric constant tensor:
#      x y z
#    x 1.686010 0.000000 0.000000 
#    y 0.000000 1.757630 0.000000 
#    z 0.000000 0.000000 1.650910 
# 
# From -- ./inp_files/71592.got.cif
#   From: 2010.05.17/outbox.cif.g08.bks.cpg/sg63_36_cif.got.tgz:71592.got - 2010.06.03 15:47:04.
