data_PCOD9472186
_publ_section_title
;
Structure prediction by ZEFSAII (Michael W. Deem and Ramdas Pophale) SiO2 
 PCOD9472186
Probable space group: C M C M
;
_chemical_formula_sum "Si O2"
_cell_formula_units_Z 80
_cell_length_a 14.067874
_cell_length_b 23.516819
_cell_length_c 10.605189
_cell_angle_alpha 90.000000
_cell_angle_beta 90.000000
_cell_angle_gamma 90.000000
_cell_volume 3508.532139
_symmetry_space_group_name_H-M "C M C M"
_symmetry_group_IT_number 63
_symmetry_cell_setting 'orthorhombic'
loop_
_space_group_symop_operation_xyz
x,y,z
-x,-y,1/2+z
x,-y,-z
-x,y,1/2-z
-x,-y,-z
x,y,1/2-z
-x,y,z
x,-y,1/2+z
1/2+x,1/2+y,z
1/2-x,1/2-y,1/2+z
1/2+x,1/2-y,-z
1/2-x,1/2+y,1/2-z
1/2-x,1/2-y,-z
1/2+x,1/2+y,1/2-z
1/2-x,1/2+y,z
1/2+x,1/2-y,1/2+z
loop_
_atom_site_type_symbol
_atom_site_label
_atom_site_fract_x
_atom_site_fract_y
_atom_site_fract_z
Si Si1 0.614775 0.656566 0.391715
Si Si2 0.852163 0.540286 0.605303
Si Si3 0.384934 0.127519 0.393378
Si Si4 0.347975 0.527146 0.384197
Si Si5 0.115702 0.760014 0.112301
O O1 0.633654 0.677858 0.250000
O O2 0.500000 0.648362 0.402337
O O3 0.661585 0.594549 0.403917
O O4 0.646295 0.700320 0.498088
O O5 0.901915 0.500000 0.500000
O O6 0.888574 0.546142 0.750000
O O7 0.850007 0.597454 0.521910
O O8 0.750273 0.508815 0.620793
O O9 0.357045 0.105750 0.250000
O O10 0.500000 0.123633 0.395357
O O11 0.358285 0.193860 0.398113
O O12 0.400806 0.500000 0.500000
O O13 0.394962 0.520195 0.250000
O O14 0.147116 0.781380 0.250000
O O15 0.000000 0.760898 0.111179
#
# Coordination Sequence:
#
# PCOD9472186 Si02
#       5
#    16  16  16  16  16
#     4   9  17  30  50  77 108 139 171 210 256 306
#     4  10  20  34  52  72  99 137 178 219 260 305
#     4   9  18  33  53  78 108 138 169 210 259 310
#     4   9  19  34  50  71 101 137 176 217 261 305
#     4   8  15  29  49  75 107 138 166 202 253 311
#
# _framework density 22.801559000000001
#
# number of rings (size 3 to 8) (size 9 to 14) (size 15 to 20)
#    0.000    3.000    0.000    1.800    0.000    3.600 
#    0.000    2.000    0.000    4.800    0.000    2.800 
#    0.000    0.000    0.000    0.000    0.000    2.000 
#
# Total GULP energy -222935.591501 kJ/mol
# GULP energy per Si atom -5573.389788 kJ/mol
# Density = 2.274966 g / cm^3
# Si number density = 22.801559 Si / 1000 Ang^3
#
#
#
# Elastic Constant Matrix: (Units=GPa)
#
#
# Indices 1 2 3 4 5 6 
#
# 1 100.1219 18.7777 30.1564 0.0000 0.0000 0.0000
# 2 18.7777 114.1322 124.9420 0.0000 0.0000 0.0000
# 3 30.1564 124.9420 296.5390 0.0000 0.0000 0.0000
# 4 0.0000 0.0000 0.0000 43.6755 0.0000 0.0000
# 5 0.0000 0.0000 0.0000 0.0000 10.8104 0.0000
# 6 0.0000 0.0000 0.0000 0.0000 0.0000 23.1553
#
#
#
# Elastic Compliance Matrix: (Units=1/GPa)
#
#
# Indices 1 2 3 4 5 6 
#
# 1 0.010367 -0.001024 -0.000623 0.000000 0.000000 0.000000
# 2 -0.001024 0.016364 -0.006791 0.000000 0.000000 0.000000
# 3 -0.000623 -0.006791 0.006297 0.000000 0.000000 0.000000
# 4 0.000000 0.000000 0.000000 0.022896 0.000000 0.000000
# 5 0.000000 0.000000 0.000000 0.000000 0.092504 0.000000
# 6 0.000000 0.000000 0.000000 0.000000 0.000000 0.043187
#
#
# Mechanical properties :
#
#
# Convention : Reuss Voigt Hill
#
# Bulk Modulus (GPa) = 61.90603 95.39394 78.64999
# Shear Modulus (GPa) = 23.37826 37.98936 30.68381
#
# Velocity S-wave (km/s) = 3.20549 4.08620 3.67234
# Velocity P-wave (km/s) = 6.39602 8.01187 7.24911
#
# Compressibility (1/GPa) = 0.01615351
#
# Stress axis : x y z
#
# Youngs Moduli (GPa) = 96.45556 61.10997 158.81345
#
# Poissons Ratio (x) = 0.06256 0.09894
# Poissons Ratio (y) = 0.09874 1.07844
# Poissons Ratio (z) = 0.06009 0.41497
#
# Static dielectric constant tensor:
#      x y z
#    x 1.967480 0.000000 0.000000 
#    y 0.000000 1.846430 0.000000 
#    z 0.000000 0.000000 1.903440 
# 
# From -- ./inp_files/19406.got.cif
#   From: 2010.05.17/outbox.cif.g08.bks.cpg/sg63_10_cif.got.tgz:19406.got - 2010.06.03 15:47:04.
