data_PCOD9472960
_publ_section_title
;
Structure prediction by ZEFSAII (Michael W. Deem and Ramdas Pophale) SiO2 
 PCOD9472960
Probable space group: C M C M
;
_chemical_formula_sum "Si O2"
_cell_formula_units_Z 64
_cell_length_a 12.486683
_cell_length_b 17.852765
_cell_length_c 15.477434
_cell_angle_alpha 90.000000
_cell_angle_beta 90.000000
_cell_angle_gamma 90.000000
_cell_volume 3450.257713
_symmetry_space_group_name_H-M "C M C M"
_symmetry_group_IT_number 63
_symmetry_cell_setting 'orthorhombic'
loop_
_space_group_symop_operation_xyz
x,y,z
-x,-y,1/2+z
x,-y,-z
-x,y,1/2-z
-x,-y,-z
x,y,1/2-z
-x,y,z
x,-y,1/2+z
1/2+x,1/2+y,z
1/2-x,1/2-y,1/2+z
1/2+x,1/2-y,-z
1/2-x,1/2+y,1/2-z
1/2-x,1/2-y,-z
1/2+x,1/2+y,1/2-z
1/2-x,1/2+y,z
1/2+x,1/2-y,1/2+z
loop_
_atom_site_type_symbol
_atom_site_label
_atom_site_fract_x
_atom_site_fract_y
_atom_site_fract_z
Si Si1 0.000000 0.300525 0.850793
Si Si2 0.216669 0.218207 0.593611
Si Si3 0.876246 0.467043 0.250000
Si Si4 0.218140 0.558817 0.924120
Si Si5 0.500000 0.910999 0.498505
Si Si6 0.875934 0.285230 0.250000
O O1 0.893791 0.255297 0.876484
O O2 0.000000 0.374651 0.908859
O O3 0.000000 0.316785 0.750000
O O4 0.250000 0.250000 0.500000
O O5 0.202065 0.127598 0.590423
O O6 0.307597 0.236726 0.665320
O O7 0.813043 0.486141 0.337447
O O8 0.877971 0.376115 0.250000
O O9 0.000000 0.491848 0.250000
O O10 0.243716 0.500000 0.000000
O O11 0.109584 0.605071 0.949499
O O12 0.500000 0.000000 0.500000
O O13 0.000000 0.259857 0.250000
#
# Coordination Sequence:
#
# PCOD9472960 Si02
#       6
#     8  16   8  16   8   8
#     4  12  24  42  62  94 132 160 207 263 309 360
#     4  11  22  37  61  89 121 165 203 253 311 368
#     4   9  16  28  52  77 113 155 190 245 309 369
#     4  10  20  36  53  85 119 156 207 252 309 378
#     4  10  20  37  56  87 128 153 192 251 322 373
#     4   9  20  35  56  85 121 158 201 243 309 375
#
# _framework density 18.549337999999999
#
# number of rings (size 3 to 8) (size 9 to 14) (size 15 to 20)
#    0.000    1.750    5.000    0.000    3.500    0.000 
#    9.000    1.875    0.000    0.000    0.000    0.000 
#    0.000    0.000    0.000    0.000    0.000    0.000 
#
# Total GULP energy -178488.418573 kJ/mol
# GULP energy per Si atom -5577.763080 kJ/mol
# Density = 1.850712 g / cm^3
# Si number density = 18.549338 Si / 1000 Ang^3
#
#
#
# Elastic Constant Matrix: (Units=GPa)
#
#
# Indices 1 2 3 4 5 6 
#
# 1 98.0128 33.1622 53.3582 0.0000 0.0000 0.0000
# 2 33.1622 69.8192 47.2825 0.0000 0.0000 0.0000
# 3 53.3582 47.2825 195.7334 0.0000 0.0000 0.0000
# 4 0.0000 0.0000 0.0000 34.1845 0.0000 0.0000
# 5 0.0000 0.0000 0.0000 0.0000 28.2460 0.0000
# 6 0.0000 0.0000 0.0000 0.0000 0.0000 10.6438
#
#
#
# Elastic Compliance Matrix: (Units=1/GPa)
#
#
# Indices 1 2 3 4 5 6 
#
# 1 0.013084 -0.004542 -0.002470 0.000000 0.000000 0.000000
# 2 -0.004542 0.018701 -0.003279 0.000000 0.000000 0.000000
# 3 -0.002470 -0.003279 0.006574 0.000000 0.000000 0.000000
# 4 0.000000 0.000000 0.000000 0.029253 0.000000 0.000000
# 5 0.000000 0.000000 0.000000 0.000000 0.035403 0.000000
# 6 0.000000 0.000000 0.000000 0.000000 0.000000 0.093951
#
#
# Mechanical properties :
#
#
# Convention : Reuss Voigt Hill
#
# Bulk Modulus (GPa) = 56.25145 70.13011 63.19078
# Shear Modulus (GPa) = 22.37391 29.93236 26.15313
#
# Velocity S-wave (km/s) = 3.47678 4.02140 3.75897
# Velocity P-wave (km/s) = 6.81971 7.71049 7.27874
#
# Compressibility (1/GPa) = 0.01777732
#
# Stress axis : x y z
#
# Youngs Moduli (GPa) = 76.42933 53.47349 152.10582
#
# Poissons Ratio (x) = 0.24288 0.37563
# Poissons Ratio (y) = 0.34715 0.49880
# Poissons Ratio (z) = 0.18875 0.17535
#
# Static dielectric constant tensor:
#      x y z
#    x 1.698590 0.000000 0.000000 
#    y 0.000000 1.667830 0.000000 
#    z 0.000000 0.000000 1.693280 
# 
# From -- ./inp_files/29211.got.cif
#   From: 2010.05.17/outbox.cif.g08.bks.cpg/sg63_15_cif.got.tgz:29211.got - 2010.06.03 15:47:04.
