data_PCOD9472423
_publ_section_title
;
Structure prediction by ZEFSAII (Michael W. Deem and Ramdas Pophale) SiO2 
 PCOD9472423
Probable space group: C M C M
;
_chemical_formula_sum "Si O2"
_cell_formula_units_Z 80
_cell_length_a 28.654527
_cell_length_b 7.913299
_cell_length_c 14.834833
_cell_angle_alpha 90.000000
_cell_angle_beta 90.000000
_cell_angle_gamma 90.000000
_cell_volume 3363.825677
_symmetry_space_group_name_H-M "C M C M"
_symmetry_group_IT_number 63
_symmetry_cell_setting 'orthorhombic'
loop_
_space_group_symop_operation_xyz
x,y,z
-x,-y,1/2+z
x,-y,-z
-x,y,1/2-z
-x,-y,-z
x,y,1/2-z
-x,y,z
x,-y,1/2+z
1/2+x,1/2+y,z
1/2-x,1/2-y,1/2+z
1/2+x,1/2-y,-z
1/2-x,1/2+y,1/2-z
1/2-x,1/2-y,-z
1/2+x,1/2+y,1/2-z
1/2-x,1/2+y,z
1/2+x,1/2-y,1/2+z
loop_
_atom_site_type_symbol
_atom_site_label
_atom_site_fract_x
_atom_site_fract_y
_atom_site_fract_z
Si Si1 0.814611 0.539382 0.354058
Si Si2 0.586585 0.144810 0.403054
Si Si3 0.117593 0.008097 0.393320
Si Si4 0.447567 0.195731 0.891784
Si Si5 0.719878 0.576927 0.647202
O O1 0.825070 0.487152 0.250000
O O2 0.862740 0.553797 0.406651
O O3 0.771262 0.436361 0.395002
O O4 0.794963 0.729521 0.352959
O O5 0.597852 0.327137 0.358899
O O6 0.563402 0.179167 0.500439
O O7 0.557058 0.996310 0.357074
O O8 0.089931 0.169025 0.356714
O O9 0.109112 0.000000 0.500000
O O10 0.173580 0.020609 0.384005
O O11 0.500000 0.258588 0.878440
O O12 0.727301 0.519026 0.750000
#
# Coordination Sequence:
#
# PCOD9472423 Si02
#       5
#    16  16  16  16  16
#     4   9  18  32  51  74 101 138 173 203 253 308
#     4   9  18  33  50  75 104 129 168 214 253 302
#     4   9  19  34  50  77 105 132 173 215 257 302
#     4  10  20  34  55  76  98 135 174 210 263 307
#     4   9  18  33  51  74 104 140 173 205 253 312
#
# _framework density 23.782444000000002
#
# number of rings (size 3 to 8) (size 9 to 14) (size 15 to 20)
#    0.000    2.800    0.000    1.200    2.800    4.400 
#    3.600    3.000    0.000    4.200    0.000   14.000 
#    0.000    0.000    0.000    0.000    0.000    0.000 
#
# Total GULP energy -223022.408297 kJ/mol
# GULP energy per Si atom -5575.560207 kJ/mol
# Density = 2.372831 g / cm^3
# Si number density = 23.782444 Si / 1000 Ang^3
#
#
#
# Elastic Constant Matrix: (Units=GPa)
#
#
# Indices 1 2 3 4 5 6 
#
# 1 94.6985 11.1200 -6.0476 0.0000 0.0000 0.0000
# 2 11.1200 64.3569 -1.3278 0.0000 0.0000 0.0000
# 3 -6.0476 -1.3278 65.0735 0.0000 0.0000 0.0000
# 4 0.0000 0.0000 0.0000 3.3907 0.0000 0.0000
# 5 0.0000 0.0000 0.0000 0.0000 24.6905 0.0000
# 6 0.0000 0.0000 0.0000 0.0000 0.0000 41.1655
#
#
#
# Elastic Compliance Matrix: (Units=1/GPa)
#
#
# Indices 1 2 3 4 5 6 
#
# 1 0.010839 -0.001853 0.000970 0.000000 0.000000 0.000000
# 2 -0.001853 0.015862 0.000151 0.000000 0.000000 0.000000
# 3 0.000970 0.000151 0.015460 0.000000 0.000000 0.000000
# 4 0.000000 0.000000 0.000000 0.294925 0.000000 0.000000
# 5 0.000000 0.000000 0.000000 0.000000 0.040501 0.000000
# 6 0.000000 0.000000 0.000000 0.000000 0.000000 0.024292
#
#
# Mechanical properties :
#
#
# Convention : Reuss Voigt Hill
#
# Bulk Modulus (GPa) = 24.57149 25.73536 25.15342
# Shear Modulus (GPa) = 11.99300 28.54163 20.26731
#
# Velocity S-wave (km/s) = 2.24805 3.46802 2.92241
# Velocity P-wave (km/s) = 4.13431 5.18468 4.68900
#
# Compressibility (1/GPa) = 0.04069758
#
# Stress axis : x y z
#
# Youngs Moduli (GPa) = 92.25662 63.04521 64.68128
#
# Poissons Ratio (x) = 0.11682 -0.06271
# Poissons Ratio (y) = 0.17094 -0.00980
# Poissons Ratio (z) = -0.08945 -0.00955
#
# Static dielectric constant tensor:
#      x y z
#    x 1.940240 0.000000 0.000000 
#    y 0.000000 1.947780 0.000000 
#    z 0.000000 0.000000 1.972560 
# 
# From -- ./inp_files/48740.got.cif
#   From: 2010.05.17/outbox.cif.g08.bks.cpg/sg63_25_cif.got.tgz:48740.got - 2010.06.03 15:47:04.
