data_PCOD9472378
_publ_section_title
;
Structure prediction by ZEFSAII (Michael W. Deem and Ramdas Pophale) SiO2 
 PCOD9472378
Probable space group: C M C M
;
_chemical_formula_sum "Si O2"
_cell_formula_units_Z 80
_cell_length_a 16.371700
_cell_length_b 29.702677
_cell_length_c 8.819135
_cell_angle_alpha 90.000000
_cell_angle_beta 90.000000
_cell_angle_gamma 90.000000
_cell_volume 4288.598221
_symmetry_space_group_name_H-M "C M C M"
_symmetry_group_IT_number 63
_symmetry_cell_setting 'orthorhombic'
loop_
_space_group_symop_operation_xyz
x,y,z
-x,-y,1/2+z
x,-y,-z
-x,y,1/2-z
-x,-y,-z
x,y,1/2-z
-x,y,z
x,-y,1/2+z
1/2+x,1/2+y,z
1/2-x,1/2-y,1/2+z
1/2+x,1/2-y,-z
1/2-x,1/2+y,1/2-z
1/2-x,1/2-y,-z
1/2+x,1/2+y,1/2-z
1/2-x,1/2+y,z
1/2+x,1/2-y,1/2+z
loop_
_atom_site_type_symbol
_atom_site_label
_atom_site_fract_x
_atom_site_fract_y
_atom_site_fract_z
Si Si1 0.262796 0.889592 0.930111
Si Si2 0.296570 0.793253 0.428643
Si Si3 0.404636 0.281054 0.915868
Si Si4 0.592613 0.949866 0.067817
Si Si5 0.404669 0.627693 0.928821
O O1 0.263789 0.893803 0.750000
O O2 0.285118 0.838841 0.981681
O O3 0.332818 0.920838 0.002286
O O4 0.169843 0.898055 0.989763
O O5 0.278269 0.799842 0.250000
O O6 0.250000 0.750000 0.500000
O O7 0.385866 0.771077 0.442929
O O8 0.366969 0.293020 0.750000
O O9 0.500000 0.285595 0.902552
O O10 0.384142 0.319516 0.037065
O O11 0.599050 0.951317 0.250000
O O12 0.500000 0.932934 0.030713
O O13 0.598265 0.000000 0.000000
O O14 0.400897 0.619715 0.750000
O O15 0.500000 0.619257 0.977334
#
# Coordination Sequence:
#
# PCOD9472378 Si02
#       5
#    16  16  16  16  16
#     4  12  24  37  58  87 120 161 203 246 298 361
#     4  11  21  33  50  75 111 153 196 246 300 352
#     4   9  18  32  49  69  98 141 191 240 292 350
#     4  10  22  43  70  97 125 156 194 246 307 369
#     4  10  20  34  54  80 111 150 198 248 294 345
#
# _framework density 18.654114
#
# number of rings (size 3 to 8) (size 9 to 14) (size 15 to 20)
#    0.000    1.600    2.000    3.600    0.000    4.000 
#    0.000    2.000    0.000    0.600    0.000    0.000 
#    0.000    0.000    0.000    0.000    0.000    0.000 
#
# Total GULP energy -222738.407645 kJ/mol
# GULP energy per Si atom -5568.460191 kJ/mol
# Density = 1.861166 g / cm^3
# Si number density = 18.654114 Si / 1000 Ang^3
#
#
#
# Elastic Constant Matrix: (Units=GPa)
#
#
# Indices 1 2 3 4 5 6 
#
# 1 146.5712 63.2857 72.7431 0.0000 0.0000 0.0000
# 2 63.2857 63.2932 34.1202 0.0000 0.0000 0.0000
# 3 72.7431 34.1202 111.8809 0.0000 0.0000 0.0000
# 4 0.0000 0.0000 0.0000 29.9405 0.0000 0.0000
# 5 0.0000 0.0000 0.0000 0.0000 27.2275 0.0000
# 6 0.0000 0.0000 0.0000 0.0000 0.0000 32.7499
#
#
#
# Elastic Compliance Matrix: (Units=1/GPa)
#
#
# Indices 1 2 3 4 5 6 
#
# 1 0.014852 -0.011542 -0.006136 0.000000 0.000000 0.000000
# 2 -0.011542 0.027878 -0.000998 0.000000 0.000000 0.000000
# 3 -0.006136 -0.000998 0.013232 0.000000 0.000000 0.000000
# 4 0.000000 0.000000 0.000000 0.033400 0.000000 0.000000
# 5 0.000000 0.000000 0.000000 0.000000 0.036728 0.000000
# 6 0.000000 0.000000 0.000000 0.000000 0.000000 0.030534
#
#
# Mechanical properties :
#
#
# Convention : Reuss Voigt Hill
#
# Bulk Modulus (GPa) = 53.73481 73.56034 63.64757
# Shear Modulus (GPa) = 24.97785 28.09000 26.53392
#
# Velocity S-wave (km/s) = 3.66320 3.88472 3.77559
# Velocity P-wave (km/s) = 6.83816 7.72275 7.29388
#
# Compressibility (1/GPa) = 0.01860991
#
# Stress axis : x y z
#
# Youngs Moduli (GPa) = 67.33320 35.87101 75.57420
#
# Poissons Ratio (x) = 0.41402 0.46375
# Poissons Ratio (y) = 0.77714 0.07539
# Poissons Ratio (z) = 0.41318 0.03578
#
# Static dielectric constant tensor:
#      x y z
#    x 1.878300 0.000000 0.000000 
#    y 0.000000 1.637040 0.000000 
#    z 0.000000 0.000000 1.708690 
# 
# From -- ./inp_files/6451.got.cif
#   From: 2010.05.17/outbox.cif.g08.bks.cpg/sg63_4_cif.got.tgz:6451.got - 2010.06.03 15:47:04.
