data_PCOD9472701
_publ_section_title
;
Structure prediction by ZEFSAII (Michael W. Deem and Ramdas Pophale) SiO2 
 PCOD9472701
Probable space group: C M C M
;
_chemical_formula_sum "Si O2"
_cell_formula_units_Z 104
_cell_length_a 26.387925
_cell_length_b 21.070128
_cell_length_c 8.103323
_cell_angle_alpha 90.000000
_cell_angle_beta 90.000000
_cell_angle_gamma 90.000000
_cell_volume 4505.422933
_symmetry_space_group_name_H-M "C M C M"
_symmetry_group_IT_number 63
_symmetry_cell_setting 'orthorhombic'
loop_
_space_group_symop_operation_xyz
x,y,z
-x,-y,1/2+z
x,-y,-z
-x,y,1/2-z
-x,-y,-z
x,y,1/2-z
-x,y,z
x,-y,1/2+z
1/2+x,1/2+y,z
1/2-x,1/2-y,1/2+z
1/2+x,1/2-y,-z
1/2-x,1/2+y,1/2-z
1/2-x,1/2-y,-z
1/2+x,1/2+y,1/2-z
1/2-x,1/2+y,z
1/2+x,1/2-y,1/2+z
loop_
_atom_site_type_symbol
_atom_site_label
_atom_site_fract_x
_atom_site_fract_y
_atom_site_fract_z
Si Si1 0.608475 0.926694 0.551195
Si Si2 0.443795 0.290233 0.449851
Si Si3 0.314479 0.601953 0.443098
Si Si4 0.787624 0.370350 0.058210
Si Si5 0.835361 0.753910 0.552154
Si Si6 0.500000 0.074148 0.051332
Si Si7 0.080239 0.068020 0.938635
O O1 0.614163 0.920290 0.750000
O O2 0.656917 0.899422 0.461156
O O3 0.553969 0.897909 0.499013
O O4 0.606188 0.000000 0.500000
O O5 0.442441 0.291084 0.250000
O O6 0.500000 0.268293 0.500097
O O7 0.394570 0.250669 0.503632
O O8 0.436521 0.363709 0.512430
O O9 0.326998 0.595714 0.250000
O O10 0.255665 0.588046 0.471968
O O11 0.318269 0.675780 0.495999
O O12 0.358595 0.567775 0.542750
O O13 0.773323 0.366452 0.250000
O O14 0.798410 0.300286 0.983679
O O15 0.832749 0.749345 0.750000
O O16 0.500000 0.075774 0.250000
O O17 0.500000 0.000000 0.000000
O O18 0.065319 0.071753 0.750000
O O19 0.061354 0.000000 0.000000
#
# Coordination Sequence:
#
# PCOD9472701 Si02
#       7
#    16  16  16  16  16   8  16
#     4  10  20  36  56  79 106 138 174 216 263 314
#     4   9  19  36  57  81 111 147 185 228 276 323
#     4  10  20  36  57  79 105 141 181 223 271 321
#     4  11  22  36  54  81 111 140 177 221 269 323
#     4   9  20  37  56  79 108 141 180 223 270 323
#     4   8  16  32  54  74  96 128 166 204 247 298
#     4  10  20  35  55  81 113 147 185 227 273 326
#
# _framework density 23.083293000000001
#
# number of rings (size 3 to 8) (size 9 to 14) (size 15 to 20)
#    0.000    2.308    0.000    2.308    0.000    4.308 
#    1.385    3.077    0.000    0.000    0.000    0.000 
#    0.000    0.000    0.000    0.000    0.000    0.000 
#
# Total GULP energy -290218.367803 kJ/mol
# GULP energy per Si atom -5581.122458 kJ/mol
# Density = 2.303075 g / cm^3
# Si number density = 23.083293 Si / 1000 Ang^3
#
#
#
# Elastic Constant Matrix: (Units=GPa)
#
#
# Indices 1 2 3 4 5 6 
#
# 1 126.4377 -3.4285 -5.2352 0.0000 0.0000 0.0000
# 2 -3.4285 32.2303 -5.7600 0.0000 0.0000 0.0000
# 3 -5.2352 -5.7600 30.6297 0.0000 0.0000 0.0000
# 4 0.0000 0.0000 0.0000 16.7353 0.0000 0.0000
# 5 0.0000 0.0000 0.0000 0.0000 12.1857 0.0000
# 6 0.0000 0.0000 0.0000 0.0000 0.0000 19.6471
#
#
#
# Elastic Compliance Matrix: (Units=1/GPa)
#
#
# Indices 1 2 3 4 5 6 
#
# 1 0.008005 0.001134 0.001582 0.000000 0.000000 0.000000
# 2 0.001134 0.032266 0.006262 0.000000 0.000000 0.000000
# 3 0.001582 0.006262 0.034096 0.000000 0.000000 0.000000
# 4 0.000000 0.000000 0.000000 0.059754 0.000000 0.000000
# 5 0.000000 0.000000 0.000000 0.000000 0.082064 0.000000
# 6 0.000000 0.000000 0.000000 0.000000 0.000000 0.050898
#
#
# Mechanical properties :
#
#
# Convention : Reuss Voigt Hill
#
# Bulk Modulus (GPa) = 10.83160 17.82780 14.32970
# Shear Modulus (GPa) = 17.86336 23.29504 20.57920
#
# Velocity S-wave (km/s) = 2.78486 3.18019 2.98907
# Velocity P-wave (km/s) = 3.87855 4.60705 4.25841
#
# Compressibility (1/GPa) = 0.09232250
#
# Stress axis : x y z
#
# Youngs Moduli (GPa) = 124.91764 30.99195 29.32900
#
# Poissons Ratio (x) = -0.03515 -0.04639
# Poissons Ratio (y) = -0.14168 -0.18365
# Poissons Ratio (z) = -0.19756 -0.19406
#
# Static dielectric constant tensor:
#      x y z
#    x 1.923550 0.000000 0.000000 
#    y 0.000000 1.943670 0.000000 
#    z 0.000000 0.000000 1.829910 
# 
# From -- ./inp_files/12544.got.cif
#   From: 2010.05.17/outbox.cif.g08.bks.cpg/sg63_7_cif.got.tgz:12544.got - 2010.06.03 15:47:04.
