data_PCOD9472893
_publ_section_title
;
Structure prediction by ZEFSAII (Michael W. Deem and Ramdas Pophale) SiO2 
 PCOD9472893
Probable space group: C M C M
;
_chemical_formula_sum "Si O2"
_cell_formula_units_Z 88
_cell_length_a 18.281207
_cell_length_b 21.108286
_cell_length_c 12.511168
_cell_angle_alpha 90.000000
_cell_angle_beta 90.000000
_cell_angle_gamma 90.000000
_cell_volume 4827.871385
_symmetry_space_group_name_H-M "C M C M"
_symmetry_group_IT_number 63
_symmetry_cell_setting 'orthorhombic'
loop_
_space_group_symop_operation_xyz
x,y,z
-x,-y,1/2+z
x,-y,-z
-x,y,1/2-z
-x,-y,-z
x,y,1/2-z
-x,y,z
x,-y,1/2+z
1/2+x,1/2+y,z
1/2-x,1/2-y,1/2+z
1/2+x,1/2-y,-z
1/2-x,1/2+y,1/2-z
1/2-x,1/2-y,-z
1/2+x,1/2+y,1/2-z
1/2-x,1/2+y,z
1/2+x,1/2-y,1/2+z
loop_
_atom_site_type_symbol
_atom_site_label
_atom_site_fract_x
_atom_site_fract_y
_atom_site_fract_z
Si Si1 0.773552 0.925846 0.479952
Si Si2 0.869674 0.740495 0.474032
Si Si3 0.236713 0.182949 0.130992
Si Si4 0.000000 0.527839 0.875444
Si Si5 0.919081 0.131276 0.877721
Si Si6 0.127822 0.370336 0.372078
O O1 0.768385 0.888910 0.592033
O O2 0.851352 0.907584 0.427212
O O3 0.707559 0.894672 0.410922
O O4 0.764762 0.000000 0.500000
O O5 0.814225 0.776698 0.553343
O O6 0.818980 0.707756 0.384870
O O7 0.915692 0.796741 0.422504
O O8 0.900600 0.684016 0.547041
O O9 0.211530 0.191222 0.250000
O O10 0.071958 0.571512 0.874117
O O11 0.000000 0.497038 0.750000
O O12 0.000000 0.500000 0.000000
O O13 0.910588 0.132833 0.750000
O O14 0.000000 0.105065 0.903208
O O15 0.132854 0.346728 0.250000
#
# Coordination Sequence:
#
# PCOD9472893 Si02
#       6
#    16  16  16   8  16  16
#     4  10  21  36  55  79 107 144 187 232 275 328
#     4   9  18  31  52  78 107 137 173 223 275 333
#     4   9  17  30  50  77 105 134 172 221 275 327
#     4  10  22  40  58  82 118 154 191 234 287 346
#     4  10  21  36  55  79 109 147 185 231 283 333
#     4  10  20  35  59  85 110 146 185 229 282 343
#
# _framework density 18.227495000000001
#
# number of rings (size 3 to 8) (size 9 to 14) (size 15 to 20)
#    0.000    2.364    0.000    3.273    1.273    1.818 
#    0.000    6.364    0.000    4.909    0.000    0.000 
#    0.000    0.000    0.000    0.000    0.000    0.000 
#
# Total GULP energy -244941.332139 kJ/mol
# GULP energy per Si atom -5566.848458 kJ/mol
# Density = 1.818601 g / cm^3
# Si number density = 18.227495 Si / 1000 Ang^3
#
#
#
# Elastic Constant Matrix: (Units=GPa)
#
#
# Indices 1 2 3 4 5 6 
#
# 1 69.5744 -3.9283 0.6513 0.0000 0.0000 0.0000
# 2 -3.9283 68.3446 12.8377 0.0000 0.0000 0.0000
# 3 0.6513 12.8377 58.7223 0.0000 0.0000 0.0000
# 4 0.0000 0.0000 0.0000 15.3563 0.0000 0.0000
# 5 0.0000 0.0000 0.0000 0.0000 16.0681 0.0000
# 6 0.0000 0.0000 0.0000 0.0000 0.0000 15.9184
#
#
#
# Elastic Compliance Matrix: (Units=1/GPa)
#
#
# Indices 1 2 3 4 5 6 
#
# 1 0.014427 0.000896 -0.000356 0.000000 0.000000 0.000000
# 2 0.000896 0.015314 -0.003358 0.000000 0.000000 0.000000
# 3 -0.000356 -0.003358 0.017767 0.000000 0.000000 0.000000
# 4 0.000000 0.000000 0.000000 0.065120 0.000000 0.000000
# 5 0.000000 0.000000 0.000000 0.000000 0.062235 0.000000
# 6 0.000000 0.000000 0.000000 0.000000 0.000000 0.062820
#
#
# Mechanical properties :
#
#
# Convention : Reuss Voigt Hill
#
# Bulk Modulus (GPa) = 23.88173 23.97363 23.92768
# Shear Modulus (GPa) = 19.43434 21.94061 20.68747
#
# Velocity S-wave (km/s) = 3.26883 3.47322 3.37257
# Velocity P-wave (km/s) = 5.23235 5.40974 5.32178
#
# Compressibility (1/GPa) = 0.04187302
#
# Stress axis : x y z
#
# Youngs Moduli (GPa) = 69.31436 65.29982 56.28305
#
# Poissons Ratio (x) = -0.05852 0.02003
# Poissons Ratio (y) = -0.06211 0.18899
# Poissons Ratio (z) = 0.02467 0.21927
#
# Static dielectric constant tensor:
#      x y z
#    x 1.635060 0.000000 0.000000 
#    y 0.000000 1.648330 0.000000 
#    z 0.000000 0.000000 1.638010 
# 
# From -- ./inp_files/21117.got.cif
#   From: 2010.05.17/outbox.cif.g08.bks.cpg/sg63_11_cif.got.tgz:21117.got - 2010.06.03 15:47:04.
