data_PCOD9472881
_publ_section_title
;
Structure prediction by ZEFSAII (Michael W. Deem and Ramdas Pophale) SiO2 
 PCOD9472881
Probable space group: C M C M
;
_chemical_formula_sum "Si O2"
_cell_formula_units_Z 112
_cell_length_a 14.749753
_cell_length_b 23.790132
_cell_length_c 14.660026
_cell_angle_alpha 90.000000
_cell_angle_beta 90.000000
_cell_angle_gamma 90.000000
_cell_volume 5144.182172
_symmetry_space_group_name_H-M "C M C M"
_symmetry_group_IT_number 63
_symmetry_cell_setting 'orthorhombic'
loop_
_space_group_symop_operation_xyz
x,y,z
-x,-y,1/2+z
x,-y,-z
-x,y,1/2-z
-x,-y,-z
x,y,1/2-z
-x,y,z
x,-y,1/2+z
1/2+x,1/2+y,z
1/2-x,1/2-y,1/2+z
1/2+x,1/2-y,-z
1/2-x,1/2+y,1/2-z
1/2-x,1/2-y,-z
1/2+x,1/2+y,1/2-z
1/2-x,1/2+y,z
1/2+x,1/2-y,1/2+z
loop_
_atom_site_type_symbol
_atom_site_label
_atom_site_fract_x
_atom_site_fract_y
_atom_site_fract_z
Si Si1 0.099901 0.471166 0.400815
Si Si2 0.598005 0.159526 0.550041
Si Si3 0.851729 0.100646 0.148517
Si Si4 0.228926 0.210935 0.855670
Si Si5 0.397280 0.376216 0.451537
Si Si6 0.802870 0.025229 0.649185
Si Si7 0.162917 0.661341 0.149722
O O1 0.101988 0.500000 0.500000
O O2 0.103705 0.403657 0.411098
O O3 0.195215 0.486647 0.355403
O O4 0.000000 0.485430 0.360813
O O5 0.500000 0.183763 0.574863
O O6 0.680725 0.195237 0.589210
O O7 0.604899 0.154065 0.440764
O O8 0.885488 0.115877 0.250000
O O9 0.746323 0.118257 0.145587
O O10 0.855232 0.033369 0.138151
O O11 0.895566 0.128950 0.060786
O O12 0.238904 0.193236 0.750000
O O13 0.147520 0.177191 0.903324
O O14 0.206858 0.276654 0.856513
O O15 0.500000 0.385611 0.420528
O O16 0.334363 0.429201 0.424107
O O17 0.823481 0.048227 0.750000
O O18 0.118956 0.656206 0.250000
#
# Coordination Sequence:
#
# PCOD9472881 Si02
#       7
#    16  16  16  16  16  16  16
#     4  10  20  35  58  88 124 164 203 245 299 367
#     4  11  22  37  63  94 125 162 205 252 309 373
#     4  10  22  41  66  93 123 163 208 258 320 378
#     4  11  24  43  64  89 127 167 210 263 313 372
#     4  12  25  41  65  92 124 167 213 266 324 375
#     4  11  22  38  62  91 129 167 207 257 306 371
#     4  10  21  41  66  90 125 168 209 257 311 369
#
# _framework density 21.772169000000002
#
# number of rings (size 3 to 8) (size 9 to 14) (size 15 to 20)
#    0.000    1.286    2.857    3.000    0.000    4.000 
#    0.000    4.286    0.000    7.714    0.000    0.000 
#    0.000    0.000    0.000    0.000    0.000    0.000 
#
# Total GULP energy -312984.883697 kJ/mol
# GULP energy per Si atom -5589.015780 kJ/mol
# Density = 2.172261 g / cm^3
# Si number density = 21.772169 Si / 1000 Ang^3
#
#
#
# Elastic Constant Matrix: (Units=GPa)
#
#
# Indices 1 2 3 4 5 6 
#
# 1 97.3796 -6.7498 14.2625 0.0000 0.0000 0.0000
# 2 -6.7498 54.1543 1.2788 0.0000 0.0000 0.0000
# 3 14.2625 1.2788 113.0226 0.0000 0.0000 0.0000
# 4 0.0000 0.0000 0.0000 15.1121 0.0000 0.0000
# 5 0.0000 0.0000 0.0000 0.0000 20.9203 0.0000
# 6 0.0000 0.0000 0.0000 0.0000 0.0000 83.0860
#
#
#
# Elastic Compliance Matrix: (Units=1/GPa)
#
#
# Indices 1 2 3 4 5 6 
#
# 1 0.010560 0.001348 -0.001348 0.000000 0.000000 0.000000
# 2 0.001348 0.018643 -0.000381 0.000000 0.000000 0.000000
# 3 -0.001348 -0.000381 0.009022 0.000000 0.000000 0.000000
# 4 0.000000 0.000000 0.000000 0.066172 0.000000 0.000000
# 5 0.000000 0.000000 0.000000 0.000000 0.047801 0.000000
# 6 0.000000 0.000000 0.000000 0.000000 0.000000 0.012036
#
#
# Mechanical properties :
#
#
# Convention : Reuss Voigt Hill
#
# Bulk Modulus (GPa) = 26.69286 31.34882 29.02084
# Shear Modulus (GPa) = 28.17173 40.87466 34.52320
#
# Velocity S-wave (km/s) = 3.60103 4.33758 3.98635
# Velocity P-wave (km/s) = 5.43844 6.28617 5.87761
#
# Compressibility (1/GPa) = 0.03746321
#
# Stress axis : x y z
#
# Youngs Moduli (GPa) = 94.69749 53.64012 110.83795
#
# Poissons Ratio (x) = -0.07231 0.14939
# Poissons Ratio (y) = -0.12765 0.04223
# Poissons Ratio (z) = 0.12764 0.02044
#
# Static dielectric constant tensor:
#      x y z
#    x 1.803500 0.000000 0.000000 
#    y 0.000000 1.753260 0.000000 
#    z 0.000000 0.000000 1.840590 
# 
# From -- ./inp_files/32293.got.cif
#   From: 2010.05.17/outbox.cif.g08.bks.cpg/sg63_17_cif.got.tgz:32293.got - 2010.06.03 15:47:04.
