data_PCOD9472562
_publ_section_title
;
Structure prediction by ZEFSAII (Michael W. Deem and Ramdas Pophale) SiO2 
 PCOD9472562
Probable space group: C M C M
;
_chemical_formula_sum "Si O2"
_cell_formula_units_Z 100
_cell_length_a 7.777419
_cell_length_b 29.708938
_cell_length_c 19.890143
_cell_angle_alpha 90.000000
_cell_angle_beta 90.000000
_cell_angle_gamma 90.000000
_cell_volume 4595.793744
_symmetry_space_group_name_H-M "C M C M"
_symmetry_group_IT_number 63
_symmetry_cell_setting 'orthorhombic'
loop_
_space_group_symop_operation_xyz
x,y,z
-x,-y,1/2+z
x,-y,-z
-x,y,1/2-z
-x,-y,-z
x,y,1/2-z
-x,y,z
x,-y,1/2+z
1/2+x,1/2+y,z
1/2-x,1/2-y,1/2+z
1/2+x,1/2-y,-z
1/2-x,1/2+y,1/2-z
1/2-x,1/2-y,-z
1/2+x,1/2+y,1/2-z
1/2-x,1/2+y,z
1/2+x,1/2-y,1/2+z
loop_
_atom_site_type_symbol
_atom_site_label
_atom_site_fract_x
_atom_site_fract_y
_atom_site_fract_z
Si Si1 0.202585 0.206545 0.410223
Si Si2 0.308191 0.492866 0.351006
Si Si3 0.294332 0.306346 0.437248
Si Si4 0.701560 0.125681 0.175059
Si Si5 0.791145 0.562786 0.053643
Si Si6 0.000000 0.484519 0.750000
Si Si7 0.796014 0.404231 0.407566
O O1 0.231664 0.259842 0.404983
O O2 0.270414 0.193069 0.484871
O O3 0.284835 0.176443 0.352291
O O4 0.000000 0.197333 0.408507
O O5 0.500000 0.504381 0.328477
O O6 0.276618 0.514235 0.424630
O O7 0.288668 0.439075 0.356382
O O8 0.152870 0.512227 0.307329
O O9 0.500000 0.304618 0.440108
O O10 0.238970 0.351502 0.399879
O O11 0.775803 0.120209 0.250000
O O12 0.500000 0.113681 0.180839
O O13 0.770892 0.095112 0.114600
O O14 0.000000 0.562167 0.051872
O O15 0.734226 0.582662 0.982627
O O16 0.000000 0.412118 0.403596
#
# Coordination Sequence:
#
# PCOD9472562 Si02
#       7
#    16  16  16  16  16   4  16
#     4  10  20  35  55  85 121 158 202 262 316 378
#     4  12  26  43  70  95 127 174 218 271 331 390
#     4  10  20  34  59  88 120 155 206 260 319 386
#     4  10  21  36  59  86 123 169 210 254 317 387
#     4  10  21  38  63  95 133 171 211 265 325 390
#     4  12  26  52  66  90 132 168 228 276 316 398
#     4  11  21  39  65  97 132 168 210 270 334 385
#
# _framework density 21.759029000000002
#
# number of rings (size 3 to 8) (size 9 to 14) (size 15 to 20)
#    0.000    1.440    3.200    2.160    1.120    5.440 
#    0.000    0.000    1.760    0.000    0.000    0.000 
#    0.000    0.000    0.000    0.000    0.000    0.000 
#
# Total GULP energy -279003.857658 kJ/mol
# GULP energy per Si atom -5580.077153 kJ/mol
# Density = 2.170950 g / cm^3
# Si number density = 21.759029 Si / 1000 Ang^3
#
#
#
# Elastic Constant Matrix: (Units=GPa)
#
#
# Indices 1 2 3 4 5 6 
#
# 1 100.1507 -6.7572 17.0861 0.0000 0.0000 0.0000
# 2 -6.7572 95.3437 0.3889 0.0000 0.0000 0.0000
# 3 17.0861 0.3889 47.6343 0.0000 0.0000 0.0000
# 4 0.0000 0.0000 0.0000 -36.7325 0.0000 0.0000
# 5 0.0000 0.0000 0.0000 0.0000 0.6462 0.0000
# 6 0.0000 0.0000 0.0000 0.0000 0.0000 27.6610
#
#
#
# Elastic Compliance Matrix: (Units=1/GPa)
#
#
# Indices 1 2 3 4 5 6 
#
# 1 0.010693 0.000773 -0.003842 0.000000 0.000000 0.000000
# 2 0.000773 0.010545 -0.000364 0.000000 0.000000 0.000000
# 3 -0.003842 -0.000364 0.022374 0.000000 0.000000 0.000000
# 4 0.000000 0.000000 0.000000 -0.027224 0.000000 0.000000
# 5 0.000000 0.000000 0.000000 0.000000 1.547502 0.000000
# 6 0.000000 0.000000 0.000000 0.000000 0.000000 0.036152
#
#
# Mechanical properties :
#
#
# Convention : Reuss Voigt Hill
#
# Bulk Modulus (GPa) = 27.21236 29.39603 28.30419
# Shear Modulus (GPa) = 3.08803 13.80902 8.44853
#
# Velocity S-wave (km/s) = 1.19259 2.52193 1.97261
# Velocity P-wave (km/s) = 3.79865 4.69247 4.26902
#
# Compressibility (1/GPa) = 0.03674801
#
# Stress axis : x y z
#
# Youngs Moduli (GPa) = 93.52312 94.83467 44.69432
#
# Poissons Ratio (x) = -0.07335 0.17170
# Poissons Ratio (y) = -0.07234 0.01625
# Poissons Ratio (z) = 0.35928 0.03447
#
# Static dielectric constant tensor:
#      x y z
#    x 1.791090 0.000000 0.000000 
#    y 0.000000 1.831610 0.000000 
#    z 0.000000 0.000000 1.783250 
# 
# From -- ./inp_files/51468.got.cif
#   From: 2010.05.17/outbox.cif.g08.bks.cpg/sg63_26_cif.got.tgz:51468.got - 2010.06.03 15:47:04.
