data_PCOD9472919
_publ_section_title
;
Structure prediction by ZEFSAII (Michael W. Deem and Ramdas Pophale) SiO2 
 PCOD9472919
Probable space group: C M C M
;
_chemical_formula_sum "Si O2"
_cell_formula_units_Z 96
_cell_length_a 8.833821
_cell_length_b 20.785499
_cell_length_c 28.591721
_cell_angle_alpha 90.000000
_cell_angle_beta 90.000000
_cell_angle_gamma 90.000000
_cell_volume 5249.879647
_symmetry_space_group_name_H-M "C M C M"
_symmetry_group_IT_number 63
_symmetry_cell_setting 'orthorhombic'
loop_
_space_group_symop_operation_xyz
x,y,z
-x,-y,1/2+z
x,-y,-z
-x,y,1/2-z
-x,-y,-z
x,y,1/2-z
-x,y,z
x,-y,1/2+z
1/2+x,1/2+y,z
1/2-x,1/2-y,1/2+z
1/2+x,1/2-y,-z
1/2-x,1/2+y,1/2-z
1/2-x,1/2-y,-z
1/2+x,1/2+y,1/2-z
1/2-x,1/2+y,z
1/2+x,1/2-y,1/2+z
loop_
_atom_site_type_symbol
_atom_site_label
_atom_site_fract_x
_atom_site_fract_y
_atom_site_fract_z
Si Si1 0.180666 0.122039 0.394001
Si Si2 0.681471 0.998448 0.054976
Si Si3 0.180169 0.742917 0.051287
Si Si4 0.180103 0.676703 0.304142
Si Si5 0.680498 0.180860 0.696086
Si Si6 0.179597 0.876258 0.106650
O O1 0.241834 0.184091 0.421977
O O2 0.242185 0.130269 0.341360
O O3 0.000000 0.121359 0.394428
O O4 0.245486 0.058893 0.418755
O O5 0.500000 0.001871 0.058708
O O6 0.741261 0.933484 0.078710
O O7 0.721799 0.000000 0.000000
O O8 0.204570 0.809041 0.079464
O O9 0.000000 0.731303 0.048488
O O10 0.250000 0.750000 0.000000
O O11 0.206021 0.658521 0.250000
O O12 0.247333 0.748369 0.310624
O O13 0.000000 0.679112 0.312597
O O14 0.709569 0.161936 0.750000
O O15 0.500000 0.185296 0.689301
O O16 0.752152 0.133605 0.658186
O O17 0.000000 0.887726 0.109123
#
# Coordination Sequence:
#
# PCOD9472919 Si02
#       6
#    16  16  16  16  16  16
#     4  12  24  39  62  90 123 160 202 251 304 365
#     4  11  25  44  65  87 119 162 206 252 306 367
#     4  11  23  38  59  88 121 156 200 253 305 358
#     4  10  20  36  60  90 124 160 200 249 304 360
#     4  10  20  35  59  91 124 159 201 248 301 360
#     4  11  23  39  61  89 122 160 202 249 303 361
#
# _framework density 18.286134000000001
#
# number of rings (size 3 to 8) (size 9 to 14) (size 15 to 20)
#    0.000    1.167    1.667    5.000    0.000    8.000 
#    0.000    0.833    0.000    5.000    0.000    0.000 
#    0.000    0.000    0.000    0.000    0.000    0.000 
#
# Total GULP energy -268453.890608 kJ/mol
# GULP energy per Si atom -5592.789388 kJ/mol
# Density = 1.824451 g / cm^3
# Si number density = 18.286134 Si / 1000 Ang^3
#
#
#
# Elastic Constant Matrix: (Units=GPa)
#
#
# Indices 1 2 3 4 5 6 
#
# 1 122.1756 70.7949 89.0955 0.0000 0.0000 0.0000
# 2 70.7949 85.0030 61.7884 0.0000 0.0000 0.0000
# 3 89.0955 61.7884 151.8858 0.0000 0.0000 0.0000
# 4 0.0000 0.0000 0.0000 31.4948 0.0000 0.0000
# 5 0.0000 0.0000 0.0000 0.0000 31.8292 0.0000
# 6 0.0000 0.0000 0.0000 0.0000 0.0000 33.8077
#
#
#
# Elastic Compliance Matrix: (Units=1/GPa)
#
#
# Indices 1 2 3 4 5 6 
#
# 1 0.020011 -0.011548 -0.007040 0.000000 0.000000 0.000000
# 2 -0.011548 0.023368 -0.002732 0.000000 0.000000 0.000000
# 3 -0.007040 -0.002732 0.011825 0.000000 0.000000 0.000000
# 4 0.000000 0.000000 0.000000 0.031751 0.000000 0.000000
# 5 0.000000 0.000000 0.000000 0.000000 0.031418 0.000000
# 6 0.000000 0.000000 0.000000 0.000000 0.000000 0.029579
#
#
# Mechanical properties :
#
#
# Convention : Reuss Voigt Hill
#
# Bulk Modulus (GPa) = 79.60143 89.15801 84.37972
# Shear Modulus (GPa) = 25.66979 28.58538 27.12759
#
# Velocity S-wave (km/s) = 3.75078 3.95806 3.85581
# Velocity P-wave (km/s) = 7.89831 8.35172 8.12818
#
# Compressibility (1/GPa) = 0.01256259
#
# Stress axis : x y z
#
# Youngs Moduli (GPa) = 49.97331 42.79272 84.56578
#
# Poissons Ratio (x) = 0.49419 0.59536
# Poissons Ratio (y) = 0.57711 0.23105
# Poissons Ratio (z) = 0.35182 0.11692
#
# Static dielectric constant tensor:
#      x y z
#    x 1.607880 0.000000 0.000000 
#    y 0.000000 1.588880 0.000000 
#    z 0.000000 0.000000 1.630950 
# 
# From -- ./inp_files/67016.got.cif
#   From: 2010.05.17/outbox.cif.g08.bks.cpg/sg63_34_cif.got.tgz:67016.got - 2010.06.03 15:47:04.
