data_PCOD9472904
_publ_section_title
;
Structure prediction by ZEFSAII (Michael W. Deem and Ramdas Pophale) SiO2 
 PCOD9472904
Probable space group: C M C M
;
_chemical_formula_sum "Si O2"
_cell_formula_units_Z 48
_cell_length_a 8.879801
_cell_length_b 38.787594
_cell_length_c 7.737126
_cell_angle_alpha 90.000000
_cell_angle_beta 90.000000
_cell_angle_gamma 90.000000
_cell_volume 2664.868257
_symmetry_space_group_name_H-M "C M C M"
_symmetry_group_IT_number 63
_symmetry_cell_setting 'orthorhombic'
loop_
_space_group_symop_operation_xyz
x,y,z
-x,-y,1/2+z
x,-y,-z
-x,y,1/2-z
-x,-y,-z
x,y,1/2-z
-x,y,z
x,-y,1/2+z
1/2+x,1/2+y,z
1/2-x,1/2-y,1/2+z
1/2+x,1/2-y,-z
1/2-x,1/2+y,1/2-z
1/2-x,1/2-y,-z
1/2+x,1/2+y,1/2-z
1/2-x,1/2+y,z
1/2+x,1/2-y,1/2+z
loop_
_atom_site_type_symbol
_atom_site_label
_atom_site_fract_x
_atom_site_fract_y
_atom_site_fract_z
Si Si1 0.819038 0.039508 0.049331
Si Si2 0.182008 0.161313 0.750000
Si Si3 0.681341 0.713335 0.052973
Si Si4 0.179236 0.585564 0.750000
O O1 0.780867 0.045578 0.250000
O O2 0.000000 0.043222 0.030090
O O3 0.739378 0.065144 0.917662
O O4 0.782012 0.000000 0.000000
O O5 0.225665 0.183882 0.582545
O O6 0.255984 0.124083 0.750000
O O7 0.000000 0.157539 0.750000
O O8 0.724409 0.705134 0.250000
O O9 0.500000 0.716290 0.045010
O O10 0.750000 0.750000 0.000000
O O11 0.000000 0.586052 0.750000
#
# Coordination Sequence:
#
# PCOD9472904 Si02
#       4
#    16   8  16   8
#     4  10  20  39  67  92 116 155 207 250 291 357
#     4  10  22  40  58  82 119 160 203 244 288 351
#     4  10  20  35  59  88 115 148 194 243 292 347
#     4  12  26  40  58  90 131 162 193 250 312 357
#
# _framework density 18.012146000000001
#
# number of rings (size 3 to 8) (size 9 to 14) (size 15 to 20)
#    0.000    1.667    3.333    1.500    0.000    4.000 
#    0.000    3.333    0.000    0.000    0.000    0.000 
#    0.000    0.000    0.000    0.000    0.000    0.000 
#
# Total GULP energy -134084.255176 kJ/mol
# GULP energy per Si atom -5586.843966 kJ/mol
# Density = 1.797115 g / cm^3
# Si number density = 18.012146 Si / 1000 Ang^3
#
#
#
# Elastic Constant Matrix: (Units=GPa)
#
#
# Indices 1 2 3 4 5 6 
#
# 1 38.7888 67.7948 67.3665 0.0000 0.0000 0.0000
# 2 67.7948 194.4646 126.4388 0.0000 0.0000 0.0000
# 3 67.3665 126.4388 212.3546 0.0000 0.0000 0.0000
# 4 0.0000 0.0000 0.0000 30.4336 0.0000 0.0000
# 5 0.0000 0.0000 0.0000 0.0000 20.9133 0.0000
# 6 0.0000 0.0000 0.0000 0.0000 0.0000 28.4535
#
#
#
# Elastic Compliance Matrix: (Units=1/GPa)
#
#
# Indices 1 2 3 4 5 6 
#
# 1 0.091015 -0.021141 -0.016285 0.000000 0.000000 0.000000
# 2 -0.021141 0.013301 -0.001213 0.000000 0.000000 0.000000
# 3 -0.016285 -0.001213 0.010598 0.000000 0.000000 0.000000
# 4 0.000000 0.000000 0.000000 0.032858 0.000000 0.000000
# 5 0.000000 0.000000 0.000000 0.000000 0.047817 0.000000
# 6 0.000000 0.000000 0.000000 0.000000 0.000000 0.035145
#
#
# Mechanical properties :
#
#
# Convention : Reuss Voigt Hill
#
# Bulk Modulus (GPa) = 26.57136 107.64536 67.10836
# Shear Modulus (GPa) = 15.59780 28.22728 21.91254
#
# Velocity S-wave (km/s) = 2.94591 3.96299 3.49168
# Velocity P-wave (km/s) = 5.13373 8.99070 7.32079
#
# Compressibility (1/GPa) = 0.03763451
#
# Stress axis : x y z
#
# Youngs Moduli (GPa) = 10.98722 75.18033 94.36036
#
# Poissons Ratio (x) = 1.58941 1.53669
# Poissons Ratio (y) = 0.23228 0.11446
# Poissons Ratio (z) = 0.17893 0.09120
#
# Static dielectric constant tensor:
#      x y z
#    x 1.605450 0.000000 0.000000 
#    y 0.000000 1.569370 0.000000 
#    z 0.000000 0.000000 1.622130 
# 
# From -- ./inp_files/1966.got.cif
#   From: 2010.05.17/outbox.cif.g08.bks.cpg/sg63_1_cif.got.tgz:1966.got - 2010.06.03 15:47:04.
