data_PCOD9472709
_publ_section_title
;
Structure prediction by ZEFSAII (Michael W. Deem and Ramdas Pophale) SiO2 
 PCOD9472709
Probable space group: C M C M
;
_chemical_formula_sum "Si O2"
_cell_formula_units_Z 80
_cell_length_a 30.239512
_cell_length_b 15.023545
_cell_length_c 8.820836
_cell_angle_alpha 90.000000
_cell_angle_beta 90.000000
_cell_angle_gamma 90.000000
_cell_volume 4007.346982
_symmetry_space_group_name_H-M "C M C M"
_symmetry_group_IT_number 63
_symmetry_cell_setting 'orthorhombic'
loop_
_space_group_symop_operation_xyz
x,y,z
-x,-y,1/2+z
x,-y,-z
-x,y,1/2-z
-x,-y,-z
x,y,1/2-z
-x,y,z
x,-y,1/2+z
1/2+x,1/2+y,z
1/2-x,1/2-y,1/2+z
1/2+x,1/2-y,-z
1/2-x,1/2+y,1/2-z
1/2-x,1/2-y,-z
1/2+x,1/2+y,1/2-z
1/2-x,1/2+y,z
1/2+x,1/2-y,1/2+z
loop_
_atom_site_type_symbol
_atom_site_label
_atom_site_fract_x
_atom_site_fract_y
_atom_site_fract_z
Si Si1 0.317265 0.902518 0.932268
Si Si2 0.221968 0.902572 0.067161
Si Si3 0.360883 0.279574 0.431488
Si Si4 0.052347 0.586690 0.419409
Si Si5 0.450853 0.277823 0.569790
O O1 0.315302 0.908494 0.750000
O O2 0.350704 0.823210 0.975240
O O3 0.268927 0.875694 0.995452
O O4 0.326798 0.000000 0.000000
O O5 0.226097 0.906477 0.250000
O O6 0.182135 0.836730 0.026805
O O7 0.212262 0.000000 0.000000
O O8 0.364932 0.282017 0.250000
O O9 0.406184 0.317627 0.500489
O O10 0.071703 0.500000 0.500000
O O11 0.070882 0.600905 0.250000
O O12 0.053312 0.674845 0.519474
O O13 0.000000 0.569073 0.400363
O O14 0.449919 0.285489 0.750000
O O15 0.500000 0.308215 0.516508
#
# Coordination Sequence:
#
# PCOD9472709 Si02
#       5
#    16  16  16  16  16
#     4  10  20  35  55  82 115 148 181 217 262 318
#     4  10  20  36  58  84 112 142 178 221 273 329
#     4  10  22  37  55  80 110 146 185 224 270 325
#     4   9  16  27  44  64  89 124 166 212 260 310
#     4  10  21  35  51  73 101 136 180 228 276 323
#
# _framework density 19.963331
#
# number of rings (size 3 to 8) (size 9 to 14) (size 15 to 20)
#    0.000    2.200    0.000    4.200    0.000    7.600 
#    0.000    2.000    0.000    0.600    0.000    0.000 
#    0.000    0.000    0.000    0.000    0.000    0.000 
#
# Total GULP energy -223227.721462 kJ/mol
# GULP energy per Si atom -5580.693037 kJ/mol
# Density = 1.991789 g / cm^3
# Si number density = 19.963331 Si / 1000 Ang^3
#
#
#
# Elastic Constant Matrix: (Units=GPa)
#
#
# Indices 1 2 3 4 5 6 
#
# 1 179.7517 36.6347 43.6361 0.0000 0.0000 0.0000
# 2 36.6347 27.0317 14.0661 0.0000 0.0000 0.0000
# 3 43.6361 14.0661 47.0026 0.0000 0.0000 0.0000
# 4 0.0000 0.0000 0.0000 21.2157 0.0000 0.0000
# 5 0.0000 0.0000 0.0000 0.0000 27.7010 0.0000
# 6 0.0000 0.0000 0.0000 0.0000 0.0000 -18.0429
#
#
#
# Elastic Compliance Matrix: (Units=1/GPa)
#
#
# Indices 1 2 3 4 5 6 
#
# 1 0.008704 -0.008992 -0.005390 0.000000 0.000000 0.000000
# 2 -0.008992 0.053106 -0.007545 0.000000 0.000000 0.000000
# 3 -0.005390 -0.007545 0.028537 0.000000 0.000000 0.000000
# 4 0.000000 0.000000 0.000000 0.047135 0.000000 0.000000
# 5 0.000000 0.000000 0.000000 0.000000 0.036100 0.000000
# 6 0.000000 0.000000 0.000000 0.000000 0.000000 -0.055423
#
#
# Mechanical properties :
#
#
# Convention : Reuss Voigt Hill
#
# Bulk Modulus (GPa) = 21.50807 49.16218 35.33512
# Shear Modulus (GPa) = 28.16750 16.80469 22.48610
#
# Velocity S-wave (km/s) = 3.76035 2.90449 3.35978
# Velocity P-wave (km/s) = 5.44526 5.99398 5.72619
#
# Compressibility (1/GPa) = 0.04649418
#
# Stress axis : x y z
#
# Youngs Moduli (GPa) = 114.88615 18.83036 35.04199
#
# Poissons Ratio (x) = 0.16932 0.18887
# Poissons Ratio (y) = 1.03303 0.26438
# Poissons Ratio (z) = 0.61923 0.14207
#
# Static dielectric constant tensor:
#      x y z
#    x 1.778190 0.000000 0.000000 
#    y 0.000000 1.692640 0.000000 
#    z 0.000000 0.000000 1.678900 
# 
# From -- ./inp_files/12037.got.cif
#   From: 2010.05.17/outbox.cif.g08.bks.cpg/sg63_7_cif.got.tgz:12037.got - 2010.06.03 15:47:04.
