data_PCOD9472537
_publ_section_title
;
Structure prediction by ZEFSAII (Michael W. Deem and Ramdas Pophale) SiO2 
 PCOD9472537
Probable space group: C M C M
;
_chemical_formula_sum "Si O2"
_cell_formula_units_Z 96
_cell_length_a 23.513957
_cell_length_b 13.999303
_cell_length_c 14.768208
_cell_angle_alpha 90.000000
_cell_angle_beta 90.000000
_cell_angle_gamma 90.000000
_cell_volume 4861.384071
_symmetry_space_group_name_H-M "C M C M"
_symmetry_group_IT_number 63
_symmetry_cell_setting 'orthorhombic'
loop_
_space_group_symop_operation_xyz
x,y,z
-x,-y,1/2+z
x,-y,-z
-x,y,1/2-z
-x,-y,-z
x,y,1/2-z
-x,y,z
x,-y,1/2+z
1/2+x,1/2+y,z
1/2-x,1/2-y,1/2+z
1/2+x,1/2-y,-z
1/2-x,1/2+y,1/2-z
1/2-x,1/2-y,-z
1/2+x,1/2+y,1/2-z
1/2-x,1/2+y,z
1/2+x,1/2-y,1/2+z
loop_
_atom_site_type_symbol
_atom_site_label
_atom_site_fract_x
_atom_site_fract_y
_atom_site_fract_z
Si Si1 0.303253 0.876908 0.143549
Si Si2 0.500000 0.236886 0.645725
Si Si3 0.795157 0.113921 0.988955
Si Si4 0.500000 0.989948 0.392010
Si Si5 0.105472 0.254411 0.469797
Si Si6 0.787997 0.396994 0.849471
Si Si7 0.583207 0.153638 0.348825
O O1 0.308118 0.850618 0.250000
O O2 0.352656 0.830313 0.081637
O O3 0.304661 0.991961 0.136471
O O4 0.241098 0.857968 0.099905
O O5 0.500000 0.259412 0.750000
O O6 0.500000 0.120669 0.634100
O O7 0.557145 0.274943 0.600132
O O8 0.853140 0.170715 0.997925
O O9 0.753655 0.137620 0.073057
O O10 0.804034 0.000000 0.000000
O O11 0.500000 0.000000 0.500000
O O12 0.554480 0.049020 0.355836
O O13 0.071227 0.295240 0.556494
O O14 0.761356 0.387551 0.750000
O O15 0.848648 0.347178 0.850203
O O16 0.565871 0.193038 0.250000
#
# Coordination Sequence:
#
# PCOD9472537 Si02
#       7
#    16   8  16   8  16  16  16
#     4  10  20  34  57  87 121 154 194 239 295 353
#     4  12  26  41  61  89 124 156 195 238 288 349
#     4  10  22  40  60  83 117 154 199 247 301 348
#     4  12  22  39  61  86 124 161 190 232 287 355
#     4  12  23  39  59  88 116 159 198 249 291 347
#     4   9  19  34  54  83 119 158 191 234 289 349
#     4  11  22  35  56  85 120 159 196 233 283 347
#
# _framework density 19.747461999999999
#
# number of rings (size 3 to 8) (size 9 to 14) (size 15 to 20)
#    0.000    1.333    3.333    2.750    0.000    3.333 
#    0.000    0.417    0.000    0.000    0.000    0.000 
#    0.000    0.000    0.000    0.000    0.000    0.000 
#
# Total GULP energy -268012.399666 kJ/mol
# GULP energy per Si atom -5583.591660 kJ/mol
# Density = 1.970252 g / cm^3
# Si number density = 19.747462 Si / 1000 Ang^3
#
#
#
# Elastic Constant Matrix: (Units=GPa)
#
#
# Indices 1 2 3 4 5 6 
#
# 1 97.4120 9.9518 28.8323 0.0000 0.0000 0.0000
# 2 9.9518 40.3747 11.3239 0.0000 0.0000 0.0000
# 3 28.8323 11.3239 141.3213 0.0000 0.0000 0.0000
# 4 0.0000 0.0000 0.0000 8.0488 0.0000 0.0000
# 5 0.0000 0.0000 0.0000 0.0000 12.6517 0.0000
# 6 0.0000 0.0000 0.0000 0.0000 0.0000 26.6494
#
#
#
# Elastic Compliance Matrix: (Units=1/GPa)
#
#
# Indices 1 2 3 4 5 6 
#
# 1 0.011105 -0.002150 -0.002093 0.000000 0.000000 0.000000
# 2 -0.002150 0.025754 -0.001625 0.000000 0.000000 0.000000
# 3 -0.002093 -0.001625 0.007633 0.000000 0.000000 0.000000
# 4 0.000000 0.000000 0.000000 0.124242 0.000000 0.000000
# 5 0.000000 0.000000 0.000000 0.000000 0.079041 0.000000
# 6 0.000000 0.000000 0.000000 0.000000 0.000000 0.037524
#
#
# Mechanical properties :
#
#
# Convention : Reuss Voigt Hill
#
# Bulk Modulus (GPa) = 30.52949 42.14713 36.33831
# Shear Modulus (GPa) = 16.23618 24.73665 20.48641
#
# Velocity S-wave (km/s) = 2.87050 3.54312 3.22439
# Velocity P-wave (km/s) = 5.14586 6.17476 5.68364
#
# Compressibility (1/GPa) = 0.03275522
#
# Stress axis : x y z
#
# Youngs Moduli (GPa) = 90.05017 38.82938 131.00391
#
# Poissons Ratio (x) = 0.08349 0.27424
# Poissons Ratio (y) = 0.19362 0.21288
# Poissons Ratio (z) = 0.18851 0.06310
#
# Static dielectric constant tensor:
#      x y z
#    x 1.685910 0.000000 0.000000 
#    y 0.000000 1.701520 0.000000 
#    z 0.000000 0.000000 1.754900 
# 
# From -- ./inp_files/36827.got.cif
#   From: 2010.05.17/outbox.cif.g08.bks.cpg/sg63_19_cif.got.tgz:36827.got - 2010.06.03 15:47:04.
