data_PCOD9472109
_publ_section_title
;
Structure prediction by ZEFSAII (Michael W. Deem and Ramdas Pophale) SiO2 
 PCOD9472109
Probable space group: C M C M
;
_chemical_formula_sum "Si O2"
_cell_formula_units_Z 68
_cell_length_a 7.292456
_cell_length_b 24.776690
_cell_length_c 14.912748
_cell_angle_alpha 90.000000
_cell_angle_beta 90.000000
_cell_angle_gamma 90.000000
_cell_volume 2694.478878
_symmetry_space_group_name_H-M "C M C M"
_symmetry_group_IT_number 63
_symmetry_cell_setting 'orthorhombic'
loop_
_space_group_symop_operation_xyz
x,y,z
-x,-y,1/2+z
x,-y,-z
-x,y,1/2-z
-x,-y,-z
x,y,1/2-z
-x,y,z
x,-y,1/2+z
1/2+x,1/2+y,z
1/2-x,1/2-y,1/2+z
1/2+x,1/2-y,-z
1/2-x,1/2+y,1/2-z
1/2-x,1/2-y,-z
1/2+x,1/2+y,1/2-z
1/2-x,1/2+y,z
1/2+x,1/2-y,1/2+z
loop_
_atom_site_type_symbol
_atom_site_label
_atom_site_fract_x
_atom_site_fract_y
_atom_site_fract_z
Si Si1 0.724026 0.151258 0.349252
Si Si2 0.779693 0.776581 0.150216
Si Si3 0.788308 0.620323 0.538401
Si Si4 0.784071 0.487436 0.394127
Si Si5 0.000000 0.027878 0.250000
O O1 0.789570 0.134291 0.250000
O O2 0.500000 0.148941 0.347609
O O3 0.775265 0.214388 0.361566
O O4 0.790226 0.121623 0.438293
O O5 0.720246 0.793452 0.250000
O O6 0.717940 0.819731 0.078001
O O7 0.000000 0.776761 0.148168
O O8 0.720514 0.575678 0.608057
O O9 0.000000 0.604938 0.526541
O O10 0.763082 0.500000 0.500000
O O11 0.659860 0.521068 0.328304
O O12 0.000000 0.493889 0.371110
#
# Coordination Sequence:
#
# PCOD9472109 Si02
#       5
#    16  16  16  16   4
#     4   8  15  31  51  76 109 152 202 248 300 367
#     4   9  18  30  50  78 111 150 197 246 298 364
#     4  10  20  33  55  82 114 153 196 251 313 374
#     4  10  24  45  67 100 134 166 214 268 323 394
#     4  12  24  44  76  96 128 172 212 264 340 380
#
# _framework density 25.236791
#
# number of rings (size 3 to 8) (size 9 to 14) (size 15 to 20)
#    0.000    2.588    0.000    2.824    3.294    0.471 
#    2.118    0.000    0.000    2.118    0.000    0.000 
#    0.000    0.000    0.000    0.000    0.000    0.000 
#
# Total GULP energy -189676.401210 kJ/mol
# GULP energy per Si atom -5578.717683 kJ/mol
# Density = 2.517935 g / cm^3
# Si number density = 25.236791 Si / 1000 Ang^3
#
#
#
# Elastic Constant Matrix: (Units=GPa)
#
#
# Indices 1 2 3 4 5 6 
#
# 1 138.1415 0.5250 33.0555 0.0000 0.0000 0.0000
# 2 0.5250 91.0912 48.5511 0.0000 0.0000 0.0000
# 3 33.0555 48.5511 152.3405 0.0000 0.0000 0.0000
# 4 0.0000 0.0000 0.0000 26.3647 0.0000 0.0000
# 5 0.0000 0.0000 0.0000 0.0000 -21.3181 0.0000
# 6 0.0000 0.0000 0.0000 0.0000 0.0000 -7.5625
#
#
#
# Elastic Compliance Matrix: (Units=1/GPa)
#
#
# Indices 1 2 3 4 5 6 
#
# 1 0.007713 0.001021 -0.001999 0.000000 0.000000 0.000000
# 2 0.001021 0.013360 -0.004479 0.000000 0.000000 0.000000
# 3 -0.001999 -0.004479 0.008426 0.000000 0.000000 0.000000
# 4 0.000000 0.000000 0.000000 0.037929 0.000000 0.000000
# 5 0.000000 0.000000 0.000000 0.000000 -0.046908 0.000000
# 6 0.000000 0.000000 0.000000 0.000000 0.000000 -0.132232
#
#
# Mechanical properties :
#
#
# Convention : Reuss Voigt Hill
#
# Bulk Modulus (GPa) = 53.80993 60.64848 57.22921
# Shear Modulus (GPa) = -52.85235 19.45960 -16.69638
#
# Velocity S-wave (km/s) = -4.58127 2.77985 -2.57493
# Velocity P-wave (km/s) = 2.57211 5.86407 3.72636
#
# Compressibility (1/GPa) = 0.01858393
#
# Stress axis : x y z
#
# Youngs Moduli (GPa) = 129.64392 74.85287 118.68650
#
# Poissons Ratio (x) = -0.07643 0.23727
# Poissons Ratio (y) = -0.13237 0.53163
# Poissons Ratio (z) = 0.25917 0.33528
#
# Static dielectric constant tensor:
#      x y z
#    x 1.990400 0.000000 0.000000 
#    y 0.000000 2.073380 0.000000 
#    z 0.000000 0.000000 1.941590 
# 
# From -- ./inp_files/27767.got.cif
#   From: 2010.05.17/outbox.cif.g08.bks.cpg/sg63_14_cif.got.tgz:27767.got - 2010.06.03 15:47:04.
