data_PCOD9472062
_publ_section_title
;
Structure prediction by ZEFSAII (Michael W. Deem and Ramdas Pophale) SiO2 
 PCOD9472062
Probable space group: C M C M
;
_chemical_formula_sum "Si O2"
_cell_formula_units_Z 80
_cell_length_a 13.476642
_cell_length_b 9.680132
_cell_length_c 23.649158
_cell_angle_alpha 90.000000
_cell_angle_beta 90.000000
_cell_angle_gamma 90.000000
_cell_volume 3085.166834
_symmetry_space_group_name_H-M "C M C M"
_symmetry_group_IT_number 63
_symmetry_cell_setting 'orthorhombic'
loop_
_space_group_symop_operation_xyz
x,y,z
-x,-y,1/2+z
x,-y,-z
-x,y,1/2-z
-x,-y,-z
x,y,1/2-z
-x,y,z
x,-y,1/2+z
1/2+x,1/2+y,z
1/2-x,1/2-y,1/2+z
1/2+x,1/2-y,-z
1/2-x,1/2+y,1/2-z
1/2-x,1/2-y,-z
1/2+x,1/2+y,1/2-z
1/2-x,1/2+y,z
1/2+x,1/2-y,1/2+z
loop_
_atom_site_type_symbol
_atom_site_label
_atom_site_fract_x
_atom_site_fract_y
_atom_site_fract_z
Si Si1 0.111314 0.679487 0.964911
Si Si2 0.609358 0.398230 0.638850
Si Si3 0.113132 0.449620 0.818604
Si Si4 0.331328 0.601008 0.549027
Si Si5 0.757945 0.794671 0.313333
O O1 0.114318 0.793315 0.914662
O O2 0.211710 0.595390 0.953987
O O3 0.000000 0.620973 0.963654
O O4 0.131473 0.752484 0.025655
O O5 0.500000 0.406693 0.661547
O O6 0.636189 0.542898 0.609333
O O7 0.678533 0.331504 0.685233
O O8 0.110832 0.443403 0.750000
O O9 0.153424 0.300632 0.839720
O O10 0.188157 0.576002 0.832172
O O11 0.000000 0.477416 0.837892
O O12 0.371330 0.500000 0.500000
O O13 0.790790 0.832197 0.250000
#
# Coordination Sequence:
#
# PCOD9472062 Si02
#       5
#    16  16  16  16  16
#     4   9  18  33  54  76 103 141 180 224 283 347
#     4  10  20  33  53  78 106 144 187 233 287 346
#     4   9  19  38  61  84 115 156 199 248 302 350
#     4   9  18  33  52  77 107 137 176 229 284 343
#     4  10  21  37  60  88 119 157 201 246 292 351
#
# _framework density 25.930526
#
# number of rings (size 3 to 8) (size 9 to 14) (size 15 to 20)
#    0.000    2.600    0.000    1.200    2.800    4.000 
#    0.000    2.000    0.000   10.800    0.000    0.000 
#    0.000    0.000    0.000    0.000    0.000    0.000 
#
# Total GULP energy -223026.362306 kJ/mol
# GULP energy per Si atom -5575.659058 kJ/mol
# Density = 2.587151 g / cm^3
# Si number density = 25.930526 Si / 1000 Ang^3
#
#
#
# Elastic Constant Matrix: (Units=GPa)
#
#
# Indices 1 2 3 4 5 6 
#
# 1 90.4628 7.7517 -0.0924 0.0000 0.0000 0.0000
# 2 7.7517 131.3526 28.1535 0.0000 0.0000 0.0000
# 3 -0.0924 28.1535 54.9740 0.0000 0.0000 0.0000
# 4 0.0000 0.0000 0.0000 21.1460 0.0000 0.0000
# 5 0.0000 0.0000 0.0000 0.0000 12.2266 0.0000
# 6 0.0000 0.0000 0.0000 0.0000 0.0000 26.2974
#
#
#
# Elastic Compliance Matrix: (Units=1/GPa)
#
#
# Indices 1 2 3 4 5 6 
#
# 1 0.011118 -0.000742 0.000398 0.000000 0.000000 0.000000
# 2 -0.000742 0.008601 -0.004406 0.000000 0.000000 0.000000
# 3 0.000398 -0.004406 0.020448 0.000000 0.000000 0.000000
# 4 0.000000 0.000000 0.000000 0.047290 0.000000 0.000000
# 5 0.000000 0.000000 0.000000 0.000000 0.081789 0.000000
# 6 0.000000 0.000000 0.000000 0.000000 0.000000 0.038027
#
#
# Mechanical properties :
#
#
# Convention : Reuss Voigt Hill
#
# Bulk Modulus (GPa) = 32.60670 38.71278 35.65974
# Shear Modulus (GPa) = 22.02699 27.99911 25.01305
#
# Velocity S-wave (km/s) = 2.91771 3.28956 3.10920
# Velocity P-wave (km/s) = 4.89415 5.42126 5.16443
#
# Compressibility (1/GPa) = 0.03066855
#
# Stress axis : x y z
#
# Youngs Moduli (GPa) = 89.94251 116.26218 48.90559
#
# Poissons Ratio (x) = 0.08621 -0.01949
# Poissons Ratio (y) = 0.06670 0.21548
# Poissons Ratio (z) = -0.03584 0.51227
#
# Static dielectric constant tensor:
#      x y z
#    x 2.015160 0.000000 0.000000 
#    y 0.000000 2.120280 0.000000 
#    z 0.000000 0.000000 2.020570 
# 
# From -- ./inp_files/72497.got.cif
#   From: 2010.05.17/outbox.cif.g08.bks.cpg/sg63_37_cif.got.tgz:72497.got - 2010.06.03 15:47:04.
