data_PCOD9472883
_publ_section_title
;
Structure prediction by ZEFSAII (Michael W. Deem and Ramdas Pophale) SiO2 
 PCOD9472883
Probable space group: C M C M
;
_chemical_formula_sum "Si O2"
_cell_formula_units_Z 96
_cell_length_a 11.628950
_cell_length_b 25.561532
_cell_length_c 17.415981
_cell_angle_alpha 90.000000
_cell_angle_beta 90.000000
_cell_angle_gamma 90.000000
_cell_volume 5176.966142
_symmetry_space_group_name_H-M "C M C M"
_symmetry_group_IT_number 63
_symmetry_cell_setting 'orthorhombic'
loop_
_space_group_symop_operation_xyz
x,y,z
-x,-y,1/2+z
x,-y,-z
-x,y,1/2-z
-x,-y,-z
x,y,1/2-z
-x,y,z
x,-y,1/2+z
1/2+x,1/2+y,z
1/2-x,1/2-y,1/2+z
1/2+x,1/2-y,-z
1/2-x,1/2+y,1/2-z
1/2-x,1/2-y,-z
1/2+x,1/2+y,1/2-z
1/2-x,1/2+y,z
1/2+x,1/2-y,1/2+z
loop_
_atom_site_type_symbol
_atom_site_label
_atom_site_fract_x
_atom_site_fract_y
_atom_site_fract_z
Si Si1 0.500000 0.179789 0.342801
Si Si2 0.770561 0.617826 0.341397
Si Si3 0.500000 0.702241 0.659050
Si Si4 0.362876 0.293407 0.584375
Si Si5 0.235234 0.186239 0.915182
Si Si6 0.636182 0.015303 0.089254
Si Si7 0.862335 0.595212 0.837123
O O1 0.500000 0.182412 0.250000
O O2 0.385080 0.150011 0.364875
O O3 0.500000 0.238433 0.373686
O O4 0.774022 0.608126 0.250000
O O5 0.667580 0.657134 0.362127
O O6 0.783612 0.563407 0.386120
O O7 0.500000 0.704563 0.750000
O O8 0.382395 0.677654 0.630964
O O9 0.500000 0.286171 0.577193
O O10 0.301703 0.239275 0.610426
O O11 0.304300 0.306824 0.502727
O O12 0.313405 0.136566 0.897445
O O13 0.500000 0.028386 0.103466
O O14 0.665382 0.963968 0.138657
O O15 0.646769 0.000000 0.000000
O O16 0.822732 0.606597 0.750000
O O17 0.000000 0.599210 0.838116
#
# Coordination Sequence:
#
# PCOD9472883 Si02
#       7
#     8  16   8  16  16  16  16
#     4   9  18  32  53  87 117 145 190 241 291 336
#     4  11  21  36  60  86 117 154 193 244 295 349
#     4  11  20  36  60  87 113 153 203 241 282 340
#     4  11  24  39  58  86 119 156 197 239 296 349
#     4  11  22  39  59  84 120 157 194 240 289 352
#     4  10  20  35  58  89 119 151 192 241 295 350
#     4  10  21  37  58  87 120 153 189 236 293 350
#
# _framework density 18.543679999999998
#
# number of rings (size 3 to 8) (size 9 to 14) (size 15 to 20)
#    0.000    1.500    3.333    2.500    0.000    1.667 
#    1.500    0.000    1.833    1.500    0.000    0.000 
#    0.000    0.000    0.000    0.000    0.000    0.000 
#
# Total GULP energy -267969.724350 kJ/mol
# GULP energy per Si atom -5582.702591 kJ/mol
# Density = 1.850147 g / cm^3
# Si number density = 18.543680 Si / 1000 Ang^3
#
#
#
# Elastic Constant Matrix: (Units=GPa)
#
#
# Indices 1 2 3 4 5 6 
#
# 1 63.6934 25.9430 12.2280 0.0000 0.0000 0.0000
# 2 25.9430 71.2889 0.4829 0.0000 0.0000 0.0000
# 3 12.2280 0.4829 38.1118 0.0000 0.0000 0.0000
# 4 0.0000 0.0000 0.0000 27.2515 0.0000 0.0000
# 5 0.0000 0.0000 0.0000 0.0000 24.4629 0.0000
# 6 0.0000 0.0000 0.0000 0.0000 0.0000 20.3782
#
#
#
# Elastic Compliance Matrix: (Units=1/GPa)
#
#
# Indices 1 2 3 4 5 6 
#
# 1 0.019825 -0.007172 -0.006270 0.000000 0.000000 0.000000
# 2 -0.007172 0.016623 0.002091 0.000000 0.000000 0.000000
# 3 -0.006270 0.002091 0.028224 0.000000 0.000000 0.000000
# 4 0.000000 0.000000 0.000000 0.036695 0.000000 0.000000
# 5 0.000000 0.000000 0.000000 0.000000 0.040878 0.000000
# 6 0.000000 0.000000 0.000000 0.000000 0.000000 0.049072
#
#
# Mechanical properties :
#
#
# Convention : Reuss Voigt Hill
#
# Bulk Modulus (GPa) = 23.82702 27.82241 25.82472
# Shear Modulus (GPa) = 21.92877 23.38119 22.65498
#
# Velocity S-wave (km/s) = 3.44255 3.55473 3.49909
# Velocity P-wave (km/s) = 5.35524 5.64663 5.50286
#
# Compressibility (1/GPa) = 0.04196915
#
# Stress axis : x y z
#
# Youngs Moduli (GPa) = 50.44070 60.15642 35.43110
#
# Poissons Ratio (x) = 0.43145 0.22215
# Poissons Ratio (y) = 0.36177 -0.07407
# Poissons Ratio (z) = 0.31626 -0.12576
#
# Static dielectric constant tensor:
#      x y z
#    x 1.627380 0.000000 0.000000 
#    y 0.000000 1.628140 0.000000 
#    z 0.000000 0.000000 1.655220 
# 
# From -- ./inp_files/42552.got.cif
#   From: 2010.05.17/outbox.cif.g08.bks.cpg/sg63_22_cif.got.tgz:42552.got - 2010.06.03 15:47:04.
