data_PCOD9472399
_publ_section_title
;
Structure prediction by ZEFSAII (Michael W. Deem and Ramdas Pophale) SiO2 
 PCOD9472399
Probable space group: C M C M
;
_chemical_formula_sum "Si O2"
_cell_formula_units_Z 88
_cell_length_a 28.548481
_cell_length_b 19.429916
_cell_length_c 8.758438
_cell_angle_alpha 90.000000
_cell_angle_beta 90.000000
_cell_angle_gamma 90.000000
_cell_volume 4858.258156
_symmetry_space_group_name_H-M "C M C M"
_symmetry_group_IT_number 63
_symmetry_cell_setting 'orthorhombic'
loop_
_space_group_symop_operation_xyz
x,y,z
-x,-y,1/2+z
x,-y,-z
-x,y,1/2-z
-x,-y,-z
x,y,1/2-z
-x,y,z
x,-y,1/2+z
1/2+x,1/2+y,z
1/2-x,1/2-y,1/2+z
1/2+x,1/2-y,-z
1/2-x,1/2+y,1/2-z
1/2-x,1/2-y,-z
1/2+x,1/2+y,1/2-z
1/2-x,1/2+y,z
1/2+x,1/2-y,1/2+z
loop_
_atom_site_type_symbol
_atom_site_label
_atom_site_fract_x
_atom_site_fract_y
_atom_site_fract_z
Si Si1 0.945697 0.198261 0.065832
Si Si2 0.500000 0.923983 0.933649
Si Si3 0.781884 0.077154 0.567365
Si Si4 0.591842 0.162096 0.433216
Si Si5 0.822451 0.422610 0.066988
Si Si6 0.622248 0.423445 0.567468
O O1 0.944552 0.204818 0.250000
O O2 0.920211 0.126895 0.026085
O O3 0.000000 0.200069 0.016804
O O4 0.917704 0.261586 0.993784
O O5 0.500000 0.927771 0.750000
O O6 0.453505 0.882937 0.980704
O O7 0.500000 0.000000 0.000000
O O8 0.786949 0.074876 0.750000
O O9 0.730073 0.104879 0.530834
O O10 0.828789 0.107940 0.494887
O O11 0.780934 0.000000 0.500000
O O12 0.594397 0.162317 0.250000
O O13 0.637792 0.126319 0.500462
O O14 0.826513 0.427185 0.250000
O O15 0.827298 0.500000 0.000000
O O16 0.616383 0.500000 0.500000
O O17 0.625330 0.428847 0.750000
#
# Coordination Sequence:
#
# PCOD9472399 Si02
#       6
#    16   8  16  16  16  16
#     4  10  22  40  59  79 108 147 184 224 278 332
#     4  10  22  36  52  78 107 138 181 226 267 314
#     4   9  17  31  53  80 111 144 179 222 273 324
#     4  11  22  37  55  79 110 145 187 229 274 327
#     4  10  20  34  54  82 113 147 187 228 272 323
#     4  10  20  35  58  86 112 140 180 224 272 332
#
# _framework density 18.113486999999999
#
# number of rings (size 3 to 8) (size 9 to 14) (size 15 to 20)
#    0.000    2.000    0.909    3.818    0.000    6.909 
#    0.000    0.909    0.000    0.000    0.000    0.000 
#    0.000    0.000    0.000    0.000    0.000    0.000 
#
# Total GULP energy -245520.502896 kJ/mol
# GULP energy per Si atom -5580.011429 kJ/mol
# Density = 1.807226 g / cm^3
# Si number density = 18.113487 Si / 1000 Ang^3
#
#
#
# Elastic Constant Matrix: (Units=GPa)
#
#
# Indices 1 2 3 4 5 6 
#
# 1 120.2739 58.7324 39.6159 0.0000 0.0000 0.0000
# 2 58.7324 95.8562 33.7423 0.0000 0.0000 0.0000
# 3 39.6159 33.7423 46.2552 0.0000 0.0000 0.0000
# 4 0.0000 0.0000 0.0000 23.2777 0.0000 0.0000
# 5 0.0000 0.0000 0.0000 0.0000 2.1992 0.0000
# 6 0.0000 0.0000 0.0000 0.0000 0.0000 -16.3057
#
#
#
# Elastic Compliance Matrix: (Units=1/GPa)
#
#
# Indices 1 2 3 4 5 6 
#
# 1 0.013541 -0.005670 -0.007461 0.000000 0.000000 0.000000
# 2 -0.005670 0.016411 -0.007115 0.000000 0.000000 0.000000
# 3 -0.007461 -0.007115 0.033199 0.000000 0.000000 0.000000
# 4 0.000000 0.000000 0.000000 0.042960 0.000000 0.000000
# 5 0.000000 0.000000 0.000000 0.000000 0.454704 0.000000
# 6 0.000000 0.000000 0.000000 0.000000 0.000000 -0.061328
#
#
# Mechanical properties :
#
#
# Convention : Reuss Voigt Hill
#
# Bulk Modulus (GPa) = 44.13298 58.50739 51.32019
# Shear Modulus (GPa) = 9.13188 10.52055 9.82622
#
# Velocity S-wave (km/s) = 2.24776 2.41262 2.33165
# Velocity P-wave (km/s) = 5.58159 6.33495 5.97016
#
# Compressibility (1/GPa) = 0.02265879
#
# Stress axis : x y z
#
# Youngs Moduli (GPa) = 73.85127 60.93392 30.12098
#
# Poissons Ratio (x) = 0.34552 0.22472
# Poissons Ratio (y) = 0.41876 0.21432
# Poissons Ratio (z) = 0.55098 0.43356
#
# Static dielectric constant tensor:
#      x y z
#    x 1.650160 0.000000 0.000000 
#    y 0.000000 1.579610 0.000000 
#    z 0.000000 0.000000 1.609130 
# 
# From -- ./inp_files/10209.got.cif
#   From: 2010.05.17/outbox.cif.g08.bks.cpg/sg63_6_cif.got.tgz:10209.got - 2010.06.03 15:47:04.
