data_PCOD9472360
_publ_section_title
;
Structure prediction by ZEFSAII (Michael W. Deem and Ramdas Pophale) SiO2 
 PCOD9472360
Probable space group: C M C M
;
_chemical_formula_sum "Si O2"
_cell_formula_units_Z 96
_cell_length_a 24.551996
_cell_length_b 23.826821
_cell_length_c 9.083884
_cell_angle_alpha 90.000000
_cell_angle_beta 90.000000
_cell_angle_gamma 90.000000
_cell_volume 5314.035931
_symmetry_space_group_name_H-M "C M C M"
_symmetry_group_IT_number 63
_symmetry_cell_setting 'orthorhombic'
loop_
_space_group_symop_operation_xyz
x,y,z
-x,-y,1/2+z
x,-y,-z
-x,y,1/2-z
-x,-y,-z
x,y,1/2-z
-x,y,z
x,-y,1/2+z
1/2+x,1/2+y,z
1/2-x,1/2-y,1/2+z
1/2+x,1/2-y,-z
1/2-x,1/2+y,1/2-z
1/2-x,1/2-y,-z
1/2+x,1/2+y,1/2-z
1/2-x,1/2+y,z
1/2+x,1/2-y,1/2+z
loop_
_atom_site_type_symbol
_atom_site_label
_atom_site_fract_x
_atom_site_fract_y
_atom_site_fract_z
Si Si1 0.336109 0.846552 0.425233
Si Si2 0.778399 0.442338 0.920650
Si Si3 0.728924 0.673487 0.419506
Si Si4 0.882141 0.174126 0.575465
Si Si5 0.561898 0.789076 0.575132
Si Si6 0.064183 0.057450 0.573279
O O1 0.334205 0.847065 0.250000
O O2 0.325792 0.908736 0.492549
O O3 0.283624 0.812523 0.489468
O O4 0.391924 0.821662 0.486154
O O5 0.792696 0.451568 0.750000
O O6 0.731046 0.395205 0.923850
O O7 0.764729 0.500000 0.000000
O O8 0.734494 0.691070 0.250000
O O9 0.672477 0.690349 0.490513
O O10 0.869943 0.171200 0.750000
O O11 0.926437 0.222880 0.554553
O O12 0.904603 0.113706 0.527611
O O13 0.568718 0.800516 0.750000
O O14 0.500000 0.802735 0.533259
O O15 0.068415 0.052737 0.750000
O O16 0.000000 0.063707 0.536829
O O17 0.084204 0.000000 0.500000
#
# Coordination Sequence:
#
# PCOD9472360 Si02
#       6
#    16  16  16  16  16  16
#     4  10  20  36  57  82 112 146 184 227 276 332
#     4   9  18  33  55  82 112 146 182 219 268 326
#     4   9  20  35  52  78 110 143 178 220 271 327
#     4  10  20  34  54  79 107 143 187 230 277 330
#     4  10  21  38  59  81 108 144 186 233 281 333
#     4   9  18  33  51  72 101 139 183 229 276 324
#
# _framework density 18.065366000000001
#
# number of rings (size 3 to 8) (size 9 to 14) (size 15 to 20)
#    1.000    1.500    0.000    2.500    0.000    5.000 
#    0.000    3.333    0.000    3.500    0.000    0.000 
#    0.000    0.000    0.000    0.000    0.000    0.000 
#
# Total GULP energy -267493.903154 kJ/mol
# GULP energy per Si atom -5572.789649 kJ/mol
# Density = 1.802425 g / cm^3
# Si number density = 18.065366 Si / 1000 Ang^3
#
#
#
# Elastic Constant Matrix: (Units=GPa)
#
#
# Indices 1 2 3 4 5 6 
#
# 1 82.3669 -2.2046 37.5651 0.0000 0.0000 0.0000
# 2 -2.2046 36.6582 10.5380 0.0000 0.0000 0.0000
# 3 37.5651 10.5380 73.6861 0.0000 0.0000 0.0000
# 4 0.0000 0.0000 0.0000 19.6130 0.0000 0.0000
# 5 0.0000 0.0000 0.0000 0.0000 25.8288 0.0000
# 6 0.0000 0.0000 0.0000 0.0000 0.0000 21.8056
#
#
#
# Elastic Compliance Matrix: (Units=1/GPa)
#
#
# Indices 1 2 3 4 5 6 
#
# 1 0.016238 0.003500 -0.008779 0.000000 0.000000 0.000000
# 2 0.003500 0.029203 -0.005961 0.000000 0.000000 0.000000
# 3 -0.008779 -0.005961 0.018899 0.000000 0.000000 0.000000
# 4 0.000000 0.000000 0.000000 0.050987 0.000000 0.000000
# 5 0.000000 0.000000 0.000000 0.000000 0.038716 0.000000
# 6 0.000000 0.000000 0.000000 0.000000 0.000000 0.045860
#
#
# Mechanical properties :
#
#
# Convention : Reuss Voigt Hill
#
# Bulk Modulus (GPa) = 23.88833 31.61201 27.75017
# Shear Modulus (GPa) = 21.15634 23.23699 22.19666
#
# Velocity S-wave (km/s) = 3.42585 3.59036 3.50906
# Velocity P-wave (km/s) = 5.37592 5.89272 5.64025
#
# Compressibility (1/GPa) = 0.04186144
#
# Stress axis : x y z
#
# Youngs Moduli (GPa) = 61.58309 34.24303 52.91296
#
# Poissons Ratio (x) = -0.11986 0.46451
# Poissons Ratio (y) = -0.21555 0.31540
# Poissons Ratio (z) = 0.54063 0.20411
#
# Static dielectric constant tensor:
#      x y z
#    x 1.595220 0.000000 0.000000 
#    y 0.000000 1.649810 0.000000 
#    z 0.000000 0.000000 1.608500 
# 
# From -- ./inp_files/12341.got.cif
#   From: 2010.05.17/outbox.cif.g08.bks.cpg/sg63_7_cif.got.tgz:12341.got - 2010.06.03 15:47:04.
