data_PCOD9472339
_publ_section_title
;
Structure prediction by ZEFSAII (Michael W. Deem and Ramdas Pophale) SiO2 
 PCOD9472339
Probable space group: C M C M
;
_chemical_formula_sum "Si O2"
_cell_formula_units_Z 96
_cell_length_a 7.789056
_cell_length_b 24.240735
_cell_length_c 26.210813
_cell_angle_alpha 90.000000
_cell_angle_beta 90.000000
_cell_angle_gamma 90.000000
_cell_volume 4948.927620
_symmetry_space_group_name_H-M "C M C M"
_symmetry_group_IT_number 63
_symmetry_cell_setting 'orthorhombic'
loop_
_space_group_symop_operation_xyz
x,y,z
-x,-y,1/2+z
x,-y,-z
-x,y,1/2-z
-x,-y,-z
x,y,1/2-z
-x,y,z
x,-y,1/2+z
1/2+x,1/2+y,z
1/2-x,1/2-y,1/2+z
1/2+x,1/2-y,-z
1/2-x,1/2+y,1/2-z
1/2-x,1/2-y,-z
1/2+x,1/2+y,1/2-z
1/2-x,1/2+y,z
1/2+x,1/2-y,1/2+z
loop_
_atom_site_type_symbol
_atom_site_label
_atom_site_fract_x
_atom_site_fract_y
_atom_site_fract_z
Si Si1 0.699493 0.561720 0.492922
Si Si2 0.209439 0.565382 0.692456
Si Si3 0.794238 0.751447 0.059861
Si Si4 0.797413 0.372578 0.092532
Si Si5 0.209802 0.561345 0.307902
Si Si6 0.201151 0.635987 0.399022
O O1 0.770721 0.500000 0.500000
O O2 0.500000 0.556504 0.478289
O O3 0.713210 0.594932 0.545631
O O4 0.786255 0.596714 0.448311
O O5 0.266333 0.579629 0.750000
O O6 0.266614 0.604985 0.646936
O O7 0.260754 0.502023 0.681492
O O8 0.000000 0.566484 0.693267
O O9 0.728365 0.807689 0.084624
O O10 0.725585 0.695715 0.086307
O O11 0.000000 0.751774 0.063464
O O12 0.750000 0.750000 0.000000
O O13 0.000000 0.384676 0.089261
O O14 0.260885 0.575131 0.250000
O O15 0.274390 0.603478 0.350513
O O16 0.000000 0.561512 0.309230
O O17 0.000000 0.644880 0.388056
#
# Coordination Sequence:
#
# PCOD9472339 Si02
#       6
#    16  16  16  16  16  16
#     4  11  23  35  50  76 109 139 168 214 272 323
#     4   8  15  29  51  79 107 134 169 215 266 317
#     4  11  22  36  53  75 106 144 183 222 267 316
#     4  11  21  34  55  79 104 139 181 223 265 312
#     4   8  14  28  52  80 106 131 166 218 270 313
#     4  10  20  34  54  78 102 135 179 219 259 315
#
# _framework density 19.398143000000001
#
# number of rings (size 3 to 8) (size 9 to 14) (size 15 to 20)
#    0.000    2.167    1.667    3.500    0.000    3.333 
#    0.000    0.833    0.000    3.500    0.000    7.000 
#    0.000    0.000    0.000    0.000    0.000    0.000 
#
# Total GULP energy -267954.565640 kJ/mol
# GULP energy per Si atom -5582.386784 kJ/mol
# Density = 1.935399 g / cm^3
# Si number density = 19.398143 Si / 1000 Ang^3
#
#
#
# Elastic Constant Matrix: (Units=GPa)
#
#
# Indices 1 2 3 4 5 6 
#
# 1 27.3947 -12.2010 -9.9138 0.0000 0.0000 0.0000
# 2 -12.2010 161.4570 100.9667 0.0000 0.0000 0.0000
# 3 -9.9138 100.9667 160.9672 0.0000 0.0000 0.0000
# 4 0.0000 0.0000 0.0000 25.7136 0.0000 0.0000
# 5 0.0000 0.0000 0.0000 0.0000 -8.1400 0.0000
# 6 0.0000 0.0000 0.0000 0.0000 0.0000 15.5058
#
#
#
# Elastic Compliance Matrix: (Units=1/GPa)
#
#
# Indices 1 2 3 4 5 6 
#
# 1 0.037851 0.002308 0.000884 0.000000 0.000000 0.000000
# 2 0.002308 0.010332 -0.006338 0.000000 0.000000 0.000000
# 3 0.000884 -0.006338 0.010243 0.000000 0.000000 0.000000
# 4 0.000000 0.000000 0.000000 0.038890 0.000000 0.000000
# 5 0.000000 0.000000 0.000000 0.000000 -0.122849 0.000000
# 6 0.000000 0.000000 0.000000 0.000000 0.000000 0.064492
#
#
# Mechanical properties :
#
#
# Convention : Reuss Voigt Hill
#
# Bulk Modulus (GPa) = 19.18232 56.39141 37.78686
# Shear Modulus (GPa) = 79.83486 24.68032 52.25759
#
# Velocity S-wave (km/s) = 6.42225 3.57081 5.19596
# Velocity P-wave (km/s) = 8.05630 6.79224 7.45112
#
# Compressibility (1/GPa) = 0.05213134
#
# Stress axis : x y z
#
# Youngs Moduli (GPa) = 26.41936 96.78936 97.63090
#
# Poissons Ratio (x) = -0.22336 -0.08627
# Poissons Ratio (y) = -0.06097 0.61883
# Poissons Ratio (z) = -0.02335 0.61349
#
# Static dielectric constant tensor:
#      x y z
#    x 1.731270 0.000000 0.000000 
#    y 0.000000 1.661850 0.000000 
#    z 0.000000 0.000000 1.656970 
# 
# From -- ./inp_files/67222.got.cif
#   From: 2010.05.17/outbox.cif.g08.bks.cpg/sg63_34_cif.got.tgz:67222.got - 2010.06.03 15:47:04.
