data_PCOD9472699
_publ_section_title
;
Structure prediction by ZEFSAII (Michael W. Deem and Ramdas Pophale) SiO2 
 PCOD9472699
Probable space group: C M C M
;
_chemical_formula_sum "Si O2"
_cell_formula_units_Z 96
_cell_length_a 24.400888
_cell_length_b 23.580468
_cell_length_c 9.024798
_cell_angle_alpha 90.000000
_cell_angle_beta 90.000000
_cell_angle_gamma 90.000000
_cell_volume 5192.727609
_symmetry_space_group_name_H-M "C M C M"
_symmetry_group_IT_number 63
_symmetry_cell_setting 'orthorhombic'
loop_
_space_group_symop_operation_xyz
x,y,z
-x,-y,1/2+z
x,-y,-z
-x,y,1/2-z
-x,-y,-z
x,y,1/2-z
-x,y,z
x,-y,1/2+z
1/2+x,1/2+y,z
1/2-x,1/2-y,1/2+z
1/2+x,1/2-y,-z
1/2-x,1/2+y,1/2-z
1/2-x,1/2-y,-z
1/2+x,1/2+y,1/2-z
1/2-x,1/2+y,z
1/2+x,1/2-y,1/2+z
loop_
_atom_site_type_symbol
_atom_site_label
_atom_site_fract_x
_atom_site_fract_y
_atom_site_fract_z
Si Si1 0.560648 0.291204 0.425893
Si Si2 0.389825 0.171989 0.424748
Si Si3 0.066406 0.558609 0.577521
Si Si4 0.761736 0.939996 0.577529
Si Si5 0.168694 0.835088 0.920898
Si Si6 0.279018 0.833410 0.074035
O O1 0.565378 0.302503 0.250000
O O2 0.500000 0.308516 0.476299
O O3 0.567921 0.223515 0.444672
O O4 0.611030 0.320359 0.508395
O O5 0.379938 0.164245 0.250000
O O6 0.410977 0.114039 0.496122
O O7 0.333796 0.191258 0.503794
O O8 0.084259 0.500000 0.500000
O O9 0.082627 0.558995 0.750000
O O10 0.000000 0.560338 0.570409
O O11 0.745153 0.944485 0.750000
O O12 0.817588 0.902587 0.574089
O O13 0.721482 0.898881 0.485160
O O14 0.766739 0.000000 0.500000
O O15 0.171362 0.816842 0.750000
O O16 0.221524 0.810786 0.008621
O O17 0.279196 0.830395 0.250000
#
# Coordination Sequence:
#
# PCOD9472699 Si02
#       6
#    16  16  16  16  16  16
#     4  10  22  39  60  84 111 148 191 235 285 338
#     4  11  22  37  56  82 115 148 189 237 283 336
#     4  10  21  37  56  78 106 144 190 238 287 337
#     4   9  18  33  55  84 114 147 185 225 276 335
#     4   9  20  37  57  84 115 148 188 232 282 339
#     4  10  20  35  55  81 112 147 183 226 277 332
#
# _framework density 18.487394999999999
#
# number of rings (size 3 to 8) (size 9 to 14) (size 15 to 20)
#    1.000    1.167    0.000    3.500    0.000    4.667 
#    0.000    3.333    0.000    0.500    0.000    0.000 
#    0.000    0.000    0.000    0.000    0.000    0.000 
#
# Total GULP energy -267711.192181 kJ/mol
# GULP energy per Si atom -5577.316504 kJ/mol
# Density = 1.844532 g / cm^3
# Si number density = 18.487395 Si / 1000 Ang^3
#
#
#
# Elastic Constant Matrix: (Units=GPa)
#
#
# Indices 1 2 3 4 5 6 
#
# 1 81.8642 2.1192 43.3955 0.0000 0.0000 0.0000
# 2 2.1192 41.0093 12.6992 0.0000 0.0000 0.0000
# 3 43.3955 12.6992 114.0725 0.0000 0.0000 0.0000
# 4 0.0000 0.0000 0.0000 23.5007 0.0000 0.0000
# 5 0.0000 0.0000 0.0000 0.0000 28.5948 0.0000
# 6 0.0000 0.0000 0.0000 0.0000 0.0000 23.8336
#
#
#
# Elastic Compliance Matrix: (Units=1/GPa)
#
#
# Indices 1 2 3 4 5 6 
#
# 1 0.015344 0.001051 -0.005954 0.000000 0.000000 0.000000
# 2 0.001051 0.025327 -0.003219 0.000000 0.000000 0.000000
# 3 -0.005954 -0.003219 0.011390 0.000000 0.000000 0.000000
# 4 0.000000 0.000000 0.000000 0.042552 0.000000 0.000000
# 5 0.000000 0.000000 0.000000 0.000000 0.034971 0.000000
# 6 0.000000 0.000000 0.000000 0.000000 0.000000 0.041958
#
#
# Mechanical properties :
#
#
# Convention : Reuss Voigt Hill
#
# Bulk Modulus (GPa) = 27.92040 39.26377 33.59209
# Shear Modulus (GPa) = 25.03419 27.10130 26.06774
#
# Velocity S-wave (km/s) = 3.68383 3.83291 3.75911
# Velocity P-wave (km/s) = 5.76449 6.39316 6.08694
#
# Compressibility (1/GPa) = 0.03581610
#
# Stress axis : x y z
#
# Youngs Moduli (GPa) = 65.16997 39.48305 87.79701
#
# Poissons Ratio (x) = -0.04149 0.52277
# Poissons Ratio (y) = -0.06849 0.28265
# Poissons Ratio (z) = 0.38804 0.12711
#
# Static dielectric constant tensor:
#      x y z
#    x 1.634470 0.000000 0.000000 
#    y 0.000000 1.658450 0.000000 
#    z 0.000000 0.000000 1.617810 
# 
# From -- ./inp_files/12409.got.cif
#   From: 2010.05.17/outbox.cif.g08.bks.cpg/sg63_7_cif.got.tgz:12409.got - 2010.06.03 15:47:04.
