data_PCOD9472284
_publ_section_title
;
Structure prediction by ZEFSAII (Michael W. Deem and Ramdas Pophale) SiO2 
 PCOD9472284
Probable space group: C M C M
;
_chemical_formula_sum "Si O2"
_cell_formula_units_Z 64
_cell_length_a 14.811815
_cell_length_b 30.571860
_cell_length_c 8.714990
_cell_angle_alpha 90.000000
_cell_angle_beta 90.000000
_cell_angle_gamma 90.000000
_cell_volume 3946.363033
_symmetry_space_group_name_H-M "C M C M"
_symmetry_group_IT_number 63
_symmetry_cell_setting 'orthorhombic'
loop_
_space_group_symop_operation_xyz
x,y,z
-x,-y,1/2+z
x,-y,-z
-x,y,1/2-z
-x,-y,-z
x,y,1/2-z
-x,y,z
x,-y,1/2+z
1/2+x,1/2+y,z
1/2-x,1/2-y,1/2+z
1/2+x,1/2-y,-z
1/2-x,1/2+y,1/2-z
1/2-x,1/2-y,-z
1/2+x,1/2+y,1/2-z
1/2-x,1/2+y,z
1/2+x,1/2-y,1/2+z
loop_
_atom_site_type_symbol
_atom_site_label
_atom_site_fract_x
_atom_site_fract_y
_atom_site_fract_z
Si Si1 0.000000 0.172796 0.426760
Si Si2 0.894349 0.951932 0.933732
Si Si3 0.500000 0.222428 0.573695
Si Si4 0.319039 0.634000 0.932691
Si Si5 0.695159 0.208077 0.433258
O O1 0.088181 0.156831 0.513996
O O2 0.000000 0.156220 0.250000
O O3 0.000000 0.224934 0.421770
O O4 0.886853 0.952120 0.750000
O O5 0.000000 0.941637 0.972464
O O6 0.829952 0.915188 0.004858
O O7 0.875855 0.000000 0.000000
O O8 0.500000 0.206585 0.750000
O O9 0.592036 0.209244 0.489620
O O10 0.310730 0.634232 0.750000
O O11 0.241659 0.663732 0.007099
O O12 0.700431 0.210412 0.250000
O O13 0.750000 0.250000 0.500000
#
# Coordination Sequence:
#
# PCOD9472284 Si02
#       5
#     8  16   8  16  16
#     4  11  21  33  52  76 108 145 183 226 269 318
#     4  10  20  34  53  77 110 144 180 223 271 324
#     4  11  23  39  57  78 108 143 184 230 274 320
#     4  12  23  35  54  79 109 146 186 224 270 324
#     4  12  24  38  56  79 108 144 185 227 272 322
#
# _framework density 16.217464
#
# number of rings (size 3 to 8) (size 9 to 14) (size 15 to 20)
#    0.000    0.750    3.750    6.000    0.000    2.000 
#    0.000    0.000    0.000    0.000    0.000    0.875 
#    0.000    0.000    0.000    0.000    0.000    0.000 
#
# Total GULP energy -178883.099065 kJ/mol
# GULP energy per Si atom -5590.096846 kJ/mol
# Density = 1.618055 g / cm^3
# Si number density = 16.217464 Si / 1000 Ang^3
#
#
#
# Elastic Constant Matrix: (Units=GPa)
#
#
# Indices 1 2 3 4 5 6 
#
# 1 119.3214 63.8508 61.8082 0.0000 0.0000 0.0000
# 2 63.8508 126.0236 67.2557 0.0000 0.0000 0.0000
# 3 61.8082 67.2557 165.4092 0.0000 0.0000 0.0000
# 4 0.0000 0.0000 0.0000 30.7728 0.0000 0.0000
# 5 0.0000 0.0000 0.0000 0.0000 18.4478 0.0000
# 6 0.0000 0.0000 0.0000 0.0000 0.0000 52.7772
#
#
#
# Elastic Compliance Matrix: (Units=1/GPa)
#
#
# Indices 1 2 3 4 5 6 
#
# 1 0.012341 -0.004842 -0.002642 0.000000 0.000000 0.000000
# 2 -0.004842 0.012034 -0.003084 0.000000 0.000000 0.000000
# 3 -0.002642 -0.003084 0.008287 0.000000 0.000000 0.000000
# 4 0.000000 0.000000 0.000000 0.032496 0.000000 0.000000
# 5 0.000000 0.000000 0.000000 0.000000 0.054207 0.000000
# 6 0.000000 0.000000 0.000000 0.000000 0.000000 0.018948
#
#
# Mechanical properties :
#
#
# Convention : Reuss Voigt Hill
#
# Bulk Modulus (GPa) = 86.76940 88.50929 87.63934
# Shear Modulus (GPa) = 30.62021 34.92220 32.77120
#
# Velocity S-wave (km/s) = 4.34994 4.64548 4.50014
# Velocity P-wave (km/s) = 8.87971 9.13613 9.00883
#
# Compressibility (1/GPa) = 0.01152480
#
# Stress axis : x y z
#
# Youngs Moduli (GPa) = 81.03272 83.09730 120.67333
#
# Poissons Ratio (x) = 0.40238 0.31887
# Poissons Ratio (y) = 0.39238 0.37212
# Poissons Ratio (z) = 0.21412 0.25624
#
# Static dielectric constant tensor:
#      x y z
#    x 1.519630 0.000000 0.000000 
#    y 0.000000 1.548880 0.000000 
#    z 0.000000 0.000000 1.521020 
# 
# From -- ./inp_files/4520.got.cif
#   From: 2010.05.17/outbox.cif.g08.bks.cpg/sg63_3_cif.got.tgz:4520.got - 2010.06.03 15:47:04.
