data_PCOD9472638
_publ_section_title
;
Structure prediction by ZEFSAII (Michael W. Deem and Ramdas Pophale) SiO2 
 PCOD9472638
Probable space group: C M C M
;
_chemical_formula_sum "Si O2"
_cell_formula_units_Z 116
_cell_length_a 24.547658
_cell_length_b 30.084877
_cell_length_c 7.705269
_cell_angle_alpha 90.000000
_cell_angle_beta 90.000000
_cell_angle_gamma 90.000000
_cell_volume 5690.443418
_symmetry_space_group_name_H-M "C M C M"
_symmetry_group_IT_number 63
_symmetry_cell_setting 'orthorhombic'
loop_
_space_group_symop_operation_xyz
x,y,z
-x,-y,1/2+z
x,-y,-z
-x,y,1/2-z
-x,-y,-z
x,y,1/2-z
-x,y,z
x,-y,1/2+z
1/2+x,1/2+y,z
1/2-x,1/2-y,1/2+z
1/2+x,1/2-y,-z
1/2-x,1/2+y,1/2-z
1/2-x,1/2-y,-z
1/2+x,1/2+y,1/2-z
1/2-x,1/2+y,z
1/2+x,1/2-y,1/2+z
loop_
_atom_site_type_symbol
_atom_site_label
_atom_site_fract_x
_atom_site_fract_y
_atom_site_fract_z
Si Si1 0.361808 0.870159 0.037994
Si Si2 0.561926 0.049701 0.958250
Si Si3 0.650564 0.692037 0.041646
Si Si4 0.409928 0.774895 0.554689
Si Si5 0.149314 0.948300 0.456603
Si Si6 0.561311 0.378822 0.543875
Si Si7 0.000000 0.261863 0.250000
Si Si8 0.761746 0.878537 0.042967
O O1 0.362170 0.868766 0.250000
O O2 0.398438 0.911735 0.980058
O O3 0.299734 0.876329 0.977369
O O4 0.388367 0.824645 0.974397
O O5 0.559378 0.053446 0.750000
O O6 0.500000 0.054578 0.025692
O O7 0.581033 0.000000 0.000000
O O8 0.648582 0.694109 0.250000
O O9 0.600941 0.660108 0.977267
O O10 0.639831 0.740325 0.966423
O O11 0.705521 0.666780 0.991129
O O12 0.431987 0.770759 0.750000
O O13 0.452680 0.763270 0.403576
O O14 0.149484 0.944060 0.250000
O O15 0.093779 0.924722 0.518435
O O16 0.199778 0.918506 0.525987
O O17 0.153119 0.000000 0.500000
O O18 0.557052 0.371250 0.750000
O O19 0.500000 0.378626 0.472529
O O20 0.757953 0.884811 0.250000
#
# Coordination Sequence:
#
# PCOD9472638 Si02
#       8
#    16  16  16  16  16  16   4  16
#     4  10  21  40  63  88 126 165 206 259 318 368
#     4   9  19  35  58  84 117 159 200 250 316 378
#     4  10  20  38  62  87 126 163 202 258 315 365
#     4  12  26  42  67  98 128 172 212 250 310 372
#     4  10  20  35  54  79 113 151 201 252 310 371
#     4   9  19  34  56  81 110 152 197 245 310 372
#     4  12  26  48  64  94 142 164 206 264 306 366
#     4   9  20  38  60  86 116 160 210 261 310 373
#
# _framework density 20.385055000000001
#
# number of rings (size 3 to 8) (size 9 to 14) (size 15 to 20)
#    0.000    2.069    1.379    1.034    1.931    3.862 
#    0.000    0.000    0.000    0.000    0.000    0.000 
#    0.000    0.000    0.000    0.000    0.000    0.000 
#
# Total GULP energy -323342.456852 kJ/mol
# GULP energy per Si atom -5574.869946 kJ/mol
# Density = 2.033866 g / cm^3
# Si number density = 20.385055 Si / 1000 Ang^3
#
#
#
# Elastic Constant Matrix: (Units=GPa)
#
#
# Indices 1 2 3 4 5 6 
#
# 1 82.3738 43.5682 7.6670 0.0000 0.0000 0.0000
# 2 43.5682 127.0461 -8.8043 0.0000 0.0000 0.0000
# 3 7.6670 -8.8043 67.0528 0.0000 0.0000 0.0000
# 4 0.0000 0.0000 0.0000 18.0613 0.0000 0.0000
# 5 0.0000 0.0000 0.0000 0.0000 12.7323 0.0000
# 6 0.0000 0.0000 0.0000 0.0000 0.0000 16.6554
#
#
#
# Elastic Compliance Matrix: (Units=1/GPa)
#
#
# Indices 1 2 3 4 5 6 
#
# 1 0.015217 -0.005388 -0.002447 0.000000 0.000000 0.000000
# 2 -0.005388 0.009851 0.001910 0.000000 0.000000 0.000000
# 3 -0.002447 0.001910 0.015444 0.000000 0.000000 0.000000
# 4 0.000000 0.000000 0.000000 0.055367 0.000000 0.000000
# 5 0.000000 0.000000 0.000000 0.000000 0.078541 0.000000
# 6 0.000000 0.000000 0.000000 0.000000 0.000000 0.060040
#
#
# Mechanical properties :
#
#
# Convention : Reuss Voigt Hill
#
# Bulk Modulus (GPa) = 34.89084 40.14829 37.51956
# Shear Modulus (GPa) = 19.54143 25.09259 22.31701
#
# Velocity S-wave (km/s) = 3.09951 3.51227 3.31233
# Velocity P-wave (km/s) = 5.47379 6.01546 5.75100
#
# Compressibility (1/GPa) = 0.02866082
#
# Stress axis : x y z
#
# Youngs Moduli (GPa) = 65.71412 101.50978 64.74920
#
# Poissons Ratio (x) = 0.54695 0.15847
# Poissons Ratio (y) = 0.35408 -0.12365
# Poissons Ratio (z) = 0.16083 -0.19384
#
# Static dielectric constant tensor:
#      x y z
#    x 1.722750 0.000000 0.000000 
#    y 0.000000 1.791430 0.000000 
#    z 0.000000 0.000000 1.744190 
# 
# From -- ./inp_files/11169.got.cif
#   From: 2010.05.17/outbox.cif.g08.bks.cpg/sg63_6_cif.got.tgz:11169.got - 2010.06.03 15:47:04.
