data_PCOD9472183
_publ_section_title
;
Structure prediction by ZEFSAII (Michael W. Deem and Ramdas Pophale) SiO2 
 PCOD9472183
Probable space group: C M C M
;
_chemical_formula_sum "Si O2"
_cell_formula_units_Z 104
_cell_length_a 28.424753
_cell_length_b 8.670399
_cell_length_c 22.354841
_cell_angle_alpha 90.000000
_cell_angle_beta 90.000000
_cell_angle_gamma 90.000000
_cell_volume 5509.438866
_symmetry_space_group_name_H-M "C M C M"
_symmetry_group_IT_number 63
_symmetry_cell_setting 'orthorhombic'
loop_
_space_group_symop_operation_xyz
x,y,z
-x,-y,1/2+z
x,-y,-z
-x,y,1/2-z
-x,-y,-z
x,y,1/2-z
-x,y,z
x,-y,1/2+z
1/2+x,1/2+y,z
1/2-x,1/2-y,1/2+z
1/2+x,1/2-y,-z
1/2-x,1/2+y,1/2-z
1/2-x,1/2-y,-z
1/2+x,1/2+y,1/2-z
1/2-x,1/2+y,z
1/2+x,1/2-y,1/2+z
loop_
_atom_site_type_symbol
_atom_site_label
_atom_site_fract_x
_atom_site_fract_y
_atom_site_fract_z
Si Si1 0.632305 0.527118 0.818386
Si Si2 0.388644 0.728935 0.096303
Si Si3 0.943441 0.707520 0.180925
Si Si4 0.803076 0.459217 0.070293
Si Si5 0.445304 0.994438 0.431566
Si Si6 0.352751 0.500000 0.000000
Si Si7 0.296215 0.689884 0.906247
O O1 0.645751 0.523787 0.750000
O O2 0.620182 0.358045 0.842260
O O3 0.586702 0.636824 0.825414
O O4 0.674953 0.599497 0.855896
O O5 0.348899 0.858412 0.084447
O O6 0.436757 0.820519 0.089927
O O7 0.383215 0.594410 0.047285
O O8 0.934384 0.649391 0.250000
O O9 0.928403 0.601932 0.123838
O O10 0.000000 0.730476 0.177170
O O11 0.757850 0.360276 0.089849
O O12 0.802244 0.627538 0.100582
O O13 0.800065 0.500000 0.000000
O O14 0.500000 0.033027 0.437613
O O15 0.424988 0.000000 0.500000
O O16 0.320257 0.374282 0.032959
#
# Coordination Sequence:
#
# PCOD9472183 Si02
#       7
#    16  16  16  16  16   8  16
#     4  10  23  41  58  83 118 153 197 245 292 348
#     4  11  23  35  58  84 114 157 194 237 291 343
#     4   9  19  39  65  86 111 156 206 246 289 349
#     4  12  21  36  59  90 117 146 196 240 288 346
#     4  10  22  38  57  90 127 155 190 243 303 357
#     4  10  20  34  51  84 112 146 189 230 284 332
#     4  11  21  36  58  85 116 148 187 240 288 340
#
# _framework density 18.876695999999999
#
# number of rings (size 3 to 8) (size 9 to 14) (size 15 to 20)
#    0.000    1.538    2.308    3.692    4.308    1.231 
#    0.000    4.231    0.000    0.000    0.000    0.000 
#    0.000    0.000    0.000    0.000    0.000    0.000 
#
# Total GULP energy -290013.560615 kJ/mol
# GULP energy per Si atom -5577.183858 kJ/mol
# Density = 1.883373 g / cm^3
# Si number density = 18.876696 Si / 1000 Ang^3
#
#
#
# Elastic Constant Matrix: (Units=GPa)
#
#
# Indices 1 2 3 4 5 6 
#
# 1 28.1554 4.2046 29.8800 0.0000 0.0000 0.0000
# 2 4.2046 87.4742 29.9416 0.0000 0.0000 0.0000
# 3 29.8800 29.9416 103.2161 0.0000 0.0000 0.0000
# 4 0.0000 0.0000 0.0000 23.9518 0.0000 0.0000
# 5 0.0000 0.0000 0.0000 0.0000 14.0515 0.0000
# 6 0.0000 0.0000 0.0000 0.0000 0.0000 18.3961
#
#
#
# Elastic Compliance Matrix: (Units=1/GPa)
#
#
# Indices 1 2 3 4 5 6 
#
# 1 0.051941 0.002942 -0.015890 0.000000 0.000000 0.000000
# 2 0.002942 0.012859 -0.004582 0.000000 0.000000 0.000000
# 3 -0.015890 -0.004582 0.015618 0.000000 0.000000 0.000000
# 4 0.000000 0.000000 0.000000 0.041751 0.000000 0.000000
# 5 0.000000 0.000000 0.000000 0.000000 0.071167 0.000000
# 6 0.000000 0.000000 0.000000 0.000000 0.000000 0.054359
#
#
# Mechanical properties :
#
#
# Convention : Reuss Voigt Hill
#
# Bulk Modulus (GPa) = 22.04666 38.54424 30.29545
# Shear Modulus (GPa) = 16.78570 21.60119 19.19345
#
# Velocity S-wave (km/s) = 2.98523 3.38647 3.19216
# Velocity P-wave (km/s) = 4.85662 5.97948 5.44706
#
# Compressibility (1/GPa) = 0.04535834
#
# Stress axis : x y z
#
# Youngs Moduli (GPa) = 19.25259 77.76731 64.03054
#
# Poissons Ratio (x) = -0.22882 1.01744
# Poissons Ratio (y) = -0.05665 0.29339
# Poissons Ratio (z) = 0.30592 0.35633
#
# Static dielectric constant tensor:
#      x y z
#    x 1.663440 0.000000 0.000000 
#    y 0.000000 1.643720 0.000000 
#    z 0.000000 0.000000 1.688030 
# 
# From -- ./inp_files/58203.got.cif
#   From: 2010.05.17/outbox.cif.g08.bks.cpg/sg63_30_cif.got.tgz:58203.got - 2010.06.03 15:47:04.
