data_PCOD9472669
_publ_section_title
;
Structure prediction by ZEFSAII (Michael W. Deem and Ramdas Pophale) SiO2 
 PCOD9472669
Probable space group: C M C M
;
_chemical_formula_sum "Si O2"
_cell_formula_units_Z 104
_cell_length_a 23.940361
_cell_length_b 21.688430
_cell_length_c 9.930342
_cell_angle_alpha 90.000000
_cell_angle_beta 90.000000
_cell_angle_gamma 90.000000
_cell_volume 5156.119994
_symmetry_space_group_name_H-M "C M C M"
_symmetry_group_IT_number 63
_symmetry_cell_setting 'orthorhombic'
loop_
_space_group_symop_operation_xyz
x,y,z
-x,-y,1/2+z
x,-y,-z
-x,y,1/2-z
-x,-y,-z
x,y,1/2-z
-x,y,z
x,-y,1/2+z
1/2+x,1/2+y,z
1/2-x,1/2-y,1/2+z
1/2+x,1/2-y,-z
1/2-x,1/2+y,1/2-z
1/2-x,1/2-y,-z
1/2+x,1/2+y,1/2-z
1/2-x,1/2+y,z
1/2+x,1/2-y,1/2+z
loop_
_atom_site_type_symbol
_atom_site_label
_atom_site_fract_x
_atom_site_fract_y
_atom_site_fract_z
Si Si1 0.089287 0.053390 0.596943
Si Si2 0.808453 0.500000 0.500000
Si Si3 0.747732 0.809770 0.906034
Si Si4 0.567478 0.802590 0.095804
Si Si5 0.631078 0.882883 0.898294
Si Si6 0.066398 0.193838 0.597805
Si Si7 0.785163 0.088863 0.602707
O O1 0.069136 0.045183 0.750000
O O2 0.074750 0.123149 0.555578
O O3 0.156685 0.052773 0.599428
O O4 0.068590 0.000000 0.500000
O O5 0.846107 0.548124 0.418573
O O6 0.766609 0.457558 0.412967
O O7 0.763916 0.799166 0.750000
O O8 0.685405 0.838646 0.905137
O O9 0.750000 0.750000 0.000000
O O10 0.783580 0.862313 0.981938
O O11 0.586928 0.800342 0.250000
O O12 0.500000 0.802795 0.096756
O O13 0.590437 0.861521 0.016398
O O14 0.587523 0.743354 0.009368
O O15 0.605332 0.875496 0.750000
O O16 0.090141 0.201495 0.750000
O O17 0.000000 0.203855 0.607462
O O18 0.781443 0.120009 0.750000
#
# Coordination Sequence:
#
# PCOD9472669 Si02
#       7
#    16   8  16  16  16  16  16
#     4  10  21  35  54  81 111 150 195 239 285 338
#     4  10  20  38  61  84 111 154 194 236 284 346
#     4  10  22  37  54  81 115 149 188 233 284 340
#     4  10  22  40  62  89 117 147 188 237 291 347
#     4  10  22  38  60  87 115 151 194 236 286 349
#     4   9  19  37  59  82 113 152 191 236 291 346
#     4  10  20  35  55  78 111 150 190 236 282 334
#
# _framework density 20.170204999999999
#
# number of rings (size 3 to 8) (size 9 to 14) (size 15 to 20)
#    0.000    2.154    0.769    1.385    2.154    6.769 
#    0.000    0.385    0.000    0.000    0.000    0.000 
#    0.000    0.000    0.000    0.000    0.000    0.000 
#
# Total GULP energy -290266.295551 kJ/mol
# GULP energy per Si atom -5582.044145 kJ/mol
# Density = 2.012430 g / cm^3
# Si number density = 20.170205 Si / 1000 Ang^3
#
#
#
# Elastic Constant Matrix: (Units=GPa)
#
#
# Indices 1 2 3 4 5 6 
#
# 1 22.3722 15.4128 30.3619 0.0000 0.0000 0.0000
# 2 15.4128 117.4439 73.0051 0.0000 0.0000 0.0000
# 3 30.3619 73.0051 155.6566 0.0000 0.0000 0.0000
# 4 0.0000 0.0000 0.0000 31.1020 0.0000 0.0000
# 5 0.0000 0.0000 0.0000 0.0000 2.6159 0.0000
# 6 0.0000 0.0000 0.0000 0.0000 0.0000 21.2527
#
#
#
# Elastic Compliance Matrix: (Units=1/GPa)
#
#
# Indices 1 2 3 4 5 6 
#
# 1 0.060852 -0.000858 -0.011467 0.000000 0.000000 0.000000
# 2 -0.000858 0.012031 -0.005475 0.000000 0.000000 0.000000
# 3 -0.011467 -0.005475 0.011229 0.000000 0.000000 0.000000
# 4 0.000000 0.000000 0.000000 0.032152 0.000000 0.000000
# 5 0.000000 0.000000 0.000000 0.000000 0.382276 0.000000
# 6 0.000000 0.000000 0.000000 0.000000 0.000000 0.047053
#
#
# Mechanical properties :
#
#
# Convention : Reuss Voigt Hill
#
# Bulk Modulus (GPa) = 20.61378 59.22580 39.91979
# Shear Modulus (GPa) = 8.37011 22.77366 15.57188
#
# Velocity S-wave (km/s) = 2.03930 3.36382 2.78155
# Velocity P-wave (km/s) = 3.97330 6.67186 5.49094
#
# Compressibility (1/GPa) = 0.04851123
#
# Stress axis : x y z
#
# Youngs Moduli (GPa) = 16.43337 83.11993 89.05368
#
# Poissons Ratio (x) = 0.07129 1.02121
# Poissons Ratio (y) = 0.01409 0.48760
# Poissons Ratio (z) = 0.18845 0.45511
#
# Static dielectric constant tensor:
#      x y z
#    x 1.732610 0.000000 0.000000 
#    y 0.000000 1.702320 0.000000 
#    z 0.000000 0.000000 1.725880 
# 
# From -- ./inp_files/12512.got.cif
#   From: 2010.05.17/outbox.cif.g08.bks.cpg/sg63_7_cif.got.tgz:12512.got - 2010.06.03 15:47:04.
