data_PCOD9472005
_publ_section_title
;
Structure prediction by ZEFSAII (Michael W. Deem and Ramdas Pophale) SiO2 
 PCOD9472005
Probable space group: C M C M
;
_chemical_formula_sum "Si O2"
_cell_formula_units_Z 80
_cell_length_a 12.457074
_cell_length_b 20.365868
_cell_length_c 18.894810
_cell_angle_alpha 90.000000
_cell_angle_beta 90.000000
_cell_angle_gamma 90.000000
_cell_volume 4793.596759
_symmetry_space_group_name_H-M "C M C M"
_symmetry_group_IT_number 63
_symmetry_cell_setting 'orthorhombic'
loop_
_space_group_symop_operation_xyz
x,y,z
-x,-y,1/2+z
x,-y,-z
-x,y,1/2-z
-x,-y,-z
x,y,1/2-z
-x,y,z
x,-y,1/2+z
1/2+x,1/2+y,z
1/2-x,1/2-y,1/2+z
1/2+x,1/2-y,-z
1/2-x,1/2+y,1/2-z
1/2-x,1/2-y,-z
1/2+x,1/2+y,1/2-z
1/2-x,1/2+y,z
1/2+x,1/2-y,1/2+z
loop_
_atom_site_type_symbol
_atom_site_label
_atom_site_fract_x
_atom_site_fract_y
_atom_site_fract_z
Si Si1 0.708003 0.169701 0.058384
Si Si2 0.777775 0.448786 0.668316
Si Si3 0.127705 0.068444 0.667211
Si Si4 0.500000 0.999971 0.381811
Si Si5 0.000000 0.608521 0.507145
Si Si6 0.871126 0.189393 0.564888
O O1 0.721533 0.114214 0.117654
O O2 0.607716 0.149391 0.007875
O O3 0.675790 0.240501 0.089450
O O4 0.813078 0.175541 0.009745
O O5 0.758323 0.430833 0.750000
O O6 0.690642 0.502957 0.645365
O O7 0.892913 0.484344 0.661106
O O8 0.152999 0.081018 0.750000
O O9 0.155392 0.130509 0.618633
O O10 0.000000 0.057875 0.661656
O O11 0.500000 0.928641 0.418096
O O12 0.500000 0.052174 0.446649
O O13 0.000000 0.193478 0.558668
#
# Coordination Sequence:
#
# PCOD9472005 Si02
#       6
#    16  16  16   8   8  16
#     4  10  20  33  52  77 103 137 172 215 261 305
#     4  10  20  34  51  76 106 135 175 217 257 309
#     4   9  19  35  54  76 103 136 172 213 259 307
#     4   9  17  28  48  74 101 135 162 202 256 304
#     4   9  16  30  48  72 104 129 166 206 251 304
#     4  10  20  35  53  76 105 135 173 214 258 313
#
# _framework density 16.688929000000002
#
# number of rings (size 3 to 8) (size 9 to 14) (size 15 to 20)
#    0.000    2.400    1.000    1.500    0.000    4.000 
#    0.000    2.000    0.000    0.000    0.000    0.000 
#    0.000    0.000    0.000    0.000    0.000    0.000 
#
# Total GULP energy -222994.584131 kJ/mol
# GULP energy per Si atom -5574.864603 kJ/mol
# Density = 1.665094 g / cm^3
# Si number density = 16.688929 Si / 1000 Ang^3
#
#
#
# Elastic Constant Matrix: (Units=GPa)
#
#
# Indices 1 2 3 4 5 6 
#
# 1 60.4654 54.2074 36.0933 0.0000 0.0000 0.0000
# 2 54.2074 142.7089 69.5627 0.0000 0.0000 0.0000
# 3 36.0933 69.5627 61.5635 0.0000 0.0000 0.0000
# 4 0.0000 0.0000 0.0000 26.5346 0.0000 0.0000
# 5 0.0000 0.0000 0.0000 0.0000 20.8199 0.0000
# 6 0.0000 0.0000 0.0000 0.0000 0.0000 27.8163
#
#
#
# Elastic Compliance Matrix: (Units=1/GPa)
#
#
# Indices 1 2 3 4 5 6 
#
# 1 0.027402 -0.005738 -0.009582 0.000000 0.000000 0.000000
# 2 -0.005738 0.016800 -0.015619 0.000000 0.000000 0.000000
# 3 -0.009582 -0.015619 0.039509 0.000000 0.000000 0.000000
# 4 0.000000 0.000000 0.000000 0.037687 0.000000 0.000000
# 5 0.000000 0.000000 0.000000 0.000000 0.048031 0.000000
# 6 0.000000 0.000000 0.000000 0.000000 0.000000 0.035950
#
#
# Mechanical properties :
#
#
# Convention : Reuss Voigt Hill
#
# Bulk Modulus (GPa) = 45.79955 64.94050 55.37003
# Shear Modulus (GPa) = 18.21260 22.02580 20.11920
#
# Velocity S-wave (km/s) = 3.30706 3.63683 3.47586
# Velocity P-wave (km/s) = 6.48729 7.52543 7.02556
#
# Compressibility (1/GPa) = 0.02183428
#
# Stress axis : x y z
#
# Youngs Moduli (GPa) = 36.49361 59.52256 25.31041
#
# Poissons Ratio (x) = 0.34155 0.24251
# Poissons Ratio (y) = 0.20940 0.39533
# Poissons Ratio (z) = 0.34966 0.92969
#
# Static dielectric constant tensor:
#      x y z
#    x 1.561290 0.000000 0.000000 
#    y 0.000000 1.559630 0.000000 
#    z 0.000000 0.000000 1.544410 
# 
# From -- ./inp_files/52462.got.cif
#   From: 2010.05.17/outbox.cif.g08.bks.cpg/sg63_27_cif.got.tgz:52462.got - 2010.06.03 15:47:04.
