data_PCOD9472912
_publ_section_title
;
Structure prediction by ZEFSAII (Michael W. Deem and Ramdas Pophale) SiO2 
 PCOD9472912
Probable space group: C M C M
;
_chemical_formula_sum "Si O2"
_cell_formula_units_Z 56
_cell_length_a 13.051364
_cell_length_b 8.065554
_cell_length_c 22.013129
_cell_angle_alpha 90.000000
_cell_angle_beta 90.000000
_cell_angle_gamma 90.000000
_cell_volume 2317.244628
_symmetry_space_group_name_H-M "C M C M"
_symmetry_group_IT_number 63
_symmetry_cell_setting 'orthorhombic'
loop_
_space_group_symop_operation_xyz
x,y,z
-x,-y,1/2+z
x,-y,-z
-x,y,1/2-z
-x,-y,-z
x,y,1/2-z
-x,y,z
x,-y,1/2+z
1/2+x,1/2+y,z
1/2-x,1/2-y,1/2+z
1/2+x,1/2-y,-z
1/2-x,1/2+y,1/2-z
1/2-x,1/2-y,-z
1/2+x,1/2+y,1/2-z
1/2-x,1/2+y,z
1/2+x,1/2-y,1/2+z
loop_
_atom_site_type_symbol
_atom_site_label
_atom_site_fract_x
_atom_site_fract_y
_atom_site_fract_z
Si Si1 0.284617 0.500000 0.000000
Si Si2 0.669578 0.600326 0.177483
Si Si3 0.614863 0.805413 0.432760
Si Si4 0.109828 0.726026 0.323041
O O1 0.354596 0.355165 0.973249
O O2 0.205605 0.569588 0.949789
O O3 0.653775 0.624555 0.250000
O O4 0.618950 0.740697 0.136397
O O5 0.790372 0.619404 0.164026
O O6 0.629364 0.418207 0.160514
O O7 0.500000 0.861388 0.447048
O O8 0.103661 0.725073 0.250000
O O9 0.000000 0.670456 0.348263
#
# Coordination Sequence:
#
# PCOD9472912 Si02
#       4
#     8  16  16  16
#     4  10  24  42  60  86 112 150 204 242 276 334
#     4  10  20  35  59  90 119 149 188 233 288 352
#     4  11  22  40  63  85 116 153 191 240 289 336
#     4   9  18  34  53  77 115 154 185 224 275 335
#
# _framework density 24.166633999999998
#
# number of rings (size 3 to 8) (size 9 to 14) (size 15 to 20)
#    0.000    2.000    0.000    3.429    0.000    1.714 
#    0.000   12.857    0.000   17.143    0.000    0.000 
#    0.000    0.000    0.000    0.000    0.000    0.000 
#
# Total GULP energy -156690.751850 kJ/mol
# GULP energy per Si atom -5596.098280 kJ/mol
# Density = 2.411163 g / cm^3
# Si number density = 24.166634 Si / 1000 Ang^3
#
#
#
# Elastic Constant Matrix: (Units=GPa)
#
#
# Indices 1 2 3 4 5 6 
#
# 1 157.9418 9.9837 18.3675 0.0000 0.0000 0.0000
# 2 9.9837 49.3458 34.6678 0.0000 0.0000 0.0000
# 3 18.3675 34.6678 104.0760 0.0000 0.0000 0.0000
# 4 0.0000 0.0000 0.0000 45.0658 0.0000 0.0000
# 5 0.0000 0.0000 0.0000 0.0000 24.6579 0.0000
# 6 0.0000 0.0000 0.0000 0.0000 0.0000 -28.2830
#
#
#
# Elastic Compliance Matrix: (Units=1/GPa)
#
#
# Indices 1 2 3 4 5 6 
#
# 1 0.006481 -0.000663 -0.000923 0.000000 0.000000 0.000000
# 2 -0.000663 0.026524 -0.008718 0.000000 0.000000 0.000000
# 3 -0.000923 -0.008718 0.012675 0.000000 0.000000 0.000000
# 4 0.000000 0.000000 0.000000 0.022190 0.000000 0.000000
# 5 0.000000 0.000000 0.000000 0.000000 0.040555 0.000000
# 6 0.000000 0.000000 0.000000 0.000000 0.000000 -0.035357
#
#
# Mechanical properties :
#
#
# Convention : Reuss Voigt Hill
#
# Bulk Modulus (GPa) = 39.88475 48.60019 44.24247
# Shear Modulus (GPa) = 49.00356 24.84444 36.92400
#
# Velocity S-wave (km/s) = 4.50792 3.20980 3.91307
# Velocity P-wave (km/s) = 6.60568 5.82161 6.22600
#
# Compressibility (1/GPa) = 0.02507224
#
# Stress axis : x y z
#
# Youngs Moduli (GPa) = 154.30493 37.70141 78.89360
#
# Poissons Ratio (x) = 0.02499 0.07282
# Poissons Ratio (y) = 0.10227 0.68781
# Poissons Ratio (z) = 0.14242 0.32869
#
# Static dielectric constant tensor:
#      x y z
#    x 1.914630 0.000000 0.000000 
#    y 0.000000 1.906910 0.000000 
#    z 0.000000 0.000000 1.928920 
# 
# From -- ./inp_files/62291.got.cif
#   From: 2010.05.17/outbox.cif.g08.bks.cpg/sg63_32_cif.got.tgz:62291.got - 2010.06.03 15:47:04.
