data_PCOD9472029
_publ_section_title
;
Structure prediction by ZEFSAII (Michael W. Deem and Ramdas Pophale) SiO2 
 PCOD9472029
Probable space group: C M C M
;
_chemical_formula_sum "Si O2"
_cell_formula_units_Z 96
_cell_length_a 30.717816
_cell_length_b 8.741930
_cell_length_c 17.288180
_cell_angle_alpha 90.000000
_cell_angle_beta 90.000000
_cell_angle_gamma 90.000000
_cell_volume 4642.446792
_symmetry_space_group_name_H-M "C M C M"
_symmetry_group_IT_number 63
_symmetry_cell_setting 'orthorhombic'
loop_
_space_group_symop_operation_xyz
x,y,z
-x,-y,1/2+z
x,-y,-z
-x,y,1/2-z
-x,-y,-z
x,y,1/2-z
-x,y,z
x,-y,1/2+z
1/2+x,1/2+y,z
1/2-x,1/2-y,1/2+z
1/2+x,1/2-y,-z
1/2-x,1/2+y,1/2-z
1/2-x,1/2-y,-z
1/2+x,1/2+y,1/2-z
1/2-x,1/2+y,z
1/2+x,1/2-y,1/2+z
loop_
_atom_site_type_symbol
_atom_site_label
_atom_site_fract_x
_atom_site_fract_y
_atom_site_fract_z
Si Si1 0.116908 0.707330 0.451580
Si Si2 0.643664 0.543309 0.665000
Si Si3 0.885634 0.294886 0.134913
Si Si4 0.551143 0.961309 0.663022
Si Si5 0.262674 0.678063 0.663100
Si Si6 0.308930 0.986339 0.883795
O O1 0.122750 0.864872 0.405578
O O2 0.109752 0.718597 0.542129
O O3 0.079195 0.620007 0.404096
O O4 0.162443 0.614843 0.442765
O O5 0.632715 0.610681 0.750000
O O6 0.629173 0.369131 0.663674
O O7 0.695361 0.568221 0.656737
O O8 0.930565 0.365872 0.163828
O O9 0.848150 0.419013 0.156094
O O10 0.558857 0.897792 0.750000
O O11 0.500000 0.953636 0.647276
O O12 0.244009 0.661724 0.750000
O O13 0.281078 0.850192 0.655740
O O14 0.226792 0.619105 0.602201
#
# Coordination Sequence:
#
# PCOD9472029 Si02
#       6
#    16  16  16  16  16  16
#     4  10  22  40  59  83 116 153 190 229 284 346
#     4  10  21  38  60  85 113 150 193 239 285 331
#     4  11  22  38  59  85 117 151 187 231 288 344
#     4  10  21  38  62  90 116 146 187 233 279 333
#     4  10  20  33  52  79 112 151 196 240 283 332
#     4  10  20  34  52  79 110 149 192 234 275 328
#
# _framework density 20.678751999999999
#
# number of rings (size 3 to 8) (size 9 to 14) (size 15 to 20)
#    0.000    1.833    0.000    5.000    0.000   11.333 
#    0.000   15.833    0.000    5.000    0.000    0.000 
#    0.000    0.000    0.000    0.000    0.000    0.000 
#
# Total GULP energy -267547.324605 kJ/mol
# GULP energy per Si atom -5573.902596 kJ/mol
# Density = 2.063169 g / cm^3
# Si number density = 20.678752 Si / 1000 Ang^3
#
#
#
# Elastic Constant Matrix: (Units=GPa)
#
#
# Indices 1 2 3 4 5 6 
#
# 1 105.4740 36.6803 45.1233 0.0000 0.0000 0.0000
# 2 36.6803 90.1494 19.9590 0.0000 0.0000 0.0000
# 3 45.1233 19.9590 121.4054 0.0000 0.0000 0.0000
# 4 0.0000 0.0000 0.0000 38.3395 0.0000 0.0000
# 5 0.0000 0.0000 0.0000 0.0000 -25.7873 0.0000
# 6 0.0000 0.0000 0.0000 0.0000 0.0000 19.9455
#
#
#
# Elastic Compliance Matrix: (Units=1/GPa)
#
#
# Indices 1 2 3 4 5 6 
#
# 1 0.012683 -0.004272 -0.004012 0.000000 0.000000 0.000000
# 2 -0.004272 0.012951 -0.000541 0.000000 0.000000 0.000000
# 3 -0.004012 -0.000541 0.009817 0.000000 0.000000 0.000000
# 4 0.000000 0.000000 0.000000 0.026083 0.000000 0.000000
# 5 0.000000 0.000000 0.000000 0.000000 -0.038779 0.000000
# 6 0.000000 0.000000 0.000000 0.000000 0.000000 0.050137
#
#
# Mechanical properties :
#
#
# Convention : Reuss Voigt Hill
#
# Bulk Modulus (GPa) = 56.17830 57.83935 57.00882
# Shear Modulus (GPa) = 51.82685 20.85061 36.33873
#
# Velocity S-wave (km/s) = 5.01171 3.17884 4.19656
# Velocity P-wave (km/s) = 7.79204 6.44240 7.14914
#
# Compressibility (1/GPa) = 0.01780047
#
# Stress axis : x y z
#
# Youngs Moduli (GPa) = 78.84570 77.21494 101.86576
#
# Poissons Ratio (x) = 0.32989 0.40864
# Poissons Ratio (y) = 0.33686 0.05513
# Poissons Ratio (z) = 0.31630 0.04179
#
# Static dielectric constant tensor:
#      x y z
#    x 1.706900 0.000000 0.000000 
#    y 0.000000 1.768810 0.000000 
#    z 0.000000 0.000000 1.828060 
# 
# From -- ./inp_files/58054.got.cif
#   From: 2010.05.17/outbox.cif.g08.bks.cpg/sg63_30_cif.got.tgz:58054.got - 2010.06.03 15:47:04.
