data_PCOD9472146
_publ_section_title
;
Structure prediction by ZEFSAII (Michael W. Deem and Ramdas Pophale) SiO2 
 PCOD9472146
Probable space group: C M C M
;
_chemical_formula_sum "Si O2"
_cell_formula_units_Z 120
_cell_length_a 28.491266
_cell_length_b 28.090127
_cell_length_c 9.075721
_cell_angle_alpha 90.000000
_cell_angle_beta 90.000000
_cell_angle_gamma 90.000000
_cell_volume 7263.510802
_symmetry_space_group_name_H-M "C M C M"
_symmetry_group_IT_number 63
_symmetry_cell_setting 'orthorhombic'
loop_
_space_group_symop_operation_xyz
x,y,z
-x,-y,1/2+z
x,-y,-z
-x,y,1/2-z
-x,-y,-z
x,y,1/2-z
-x,y,z
x,-y,1/2+z
1/2+x,1/2+y,z
1/2-x,1/2-y,1/2+z
1/2+x,1/2-y,-z
1/2-x,1/2+y,1/2-z
1/2-x,1/2-y,-z
1/2+x,1/2+y,1/2-z
1/2-x,1/2+y,z
1/2+x,1/2-y,1/2+z
loop_
_atom_site_type_symbol
_atom_site_label
_atom_site_fract_x
_atom_site_fract_y
_atom_site_fract_z
Si Si1 0.333671 0.949821 0.925805
Si Si2 0.000000 0.551060 0.573781
Si Si3 0.055144 0.279648 0.426470
Si Si4 0.782998 0.710449 0.925684
Si Si5 0.861691 0.764196 0.073928
Si Si6 0.799607 0.143412 0.574892
Si Si7 0.222192 0.950758 0.575450
Si Si8 0.909334 0.614389 0.572988
O O1 0.340370 0.952477 0.750000
O O2 0.278065 0.944496 0.955801
O O3 0.364002 0.906996 0.993063
O O4 0.348617 0.000000 0.000000
O O5 0.000000 0.500000 0.500000
O O6 0.046545 0.580648 0.535147
O O7 0.000000 0.545696 0.750000
O O8 0.060629 0.273767 0.250000
O O9 0.086286 0.241120 0.511548
O O10 0.074861 0.332144 0.464622
O O11 0.000000 0.277432 0.460548
O O12 0.786581 0.717245 0.750000
O O13 0.753526 0.662710 0.951627
O O14 0.750000 0.750000 0.000000
O O15 0.832384 0.720807 0.000674
O O16 0.859839 0.760053 0.250000
O O17 0.835247 0.813685 0.034049
O O18 0.804337 0.135760 0.750000
O O19 0.804770 0.094693 0.488317
O O20 0.216627 0.953930 0.750000
O O21 0.207595 0.000000 0.500000
O O22 0.901772 0.612794 0.750000
#
# Coordination Sequence:
#
# PCOD9472146 Si02
#       8
#    16   8  16  16  16  16  16  16
#     4  10  21  35  49  70  95 125 165 209 253 301
#     4  10  20  34  50  68  88 114 156 210 265 316
#     4  10  21  38  56  74  99 133 172 214 267 324
#     4   9  17  30  48  73 102 134 168 207 253 298
#     4  10  21  35  52  76 104 134 171 215 260 310
#     4   9  19  34  51  73 103 136 169 207 251 300
#     4  10  21  35  52  74 103 136 169 206 247 297
#     4  10  20  35  52  68  91 124 162 209 263 315
#
# _framework density 16.520935999999999
#
# number of rings (size 3 to 8) (size 9 to 14) (size 15 to 20)
#    0.000    2.267    0.667    2.800    1.867    7.200 
#    0.000    0.000    0.000    0.000    0.000    0.000 
#    0.000    0.533    0.000    1.733    0.000    2.533 
#
# Total GULP energy -334744.300332 kJ/mol
# GULP energy per Si atom -5579.071672 kJ/mol
# Density = 1.648333 g / cm^3
# Si number density = 16.520936 Si / 1000 Ang^3
#
#
#
# Elastic Constant Matrix: (Units=GPa)
#
#
# Indices 1 2 3 4 5 6 
#
# 1 71.4727 49.9079 33.0739 0.0000 0.0000 0.0000
# 2 49.9079 110.0456 54.7697 0.0000 0.0000 0.0000
# 3 33.0739 54.7697 35.8355 0.0000 0.0000 0.0000
# 4 0.0000 0.0000 0.0000 24.4986 0.0000 0.0000
# 5 0.0000 0.0000 0.0000 0.0000 24.2630 0.0000
# 6 0.0000 0.0000 0.0000 0.0000 0.0000 23.2722
#
#
#
# Elastic Compliance Matrix: (Units=1/GPa)
#
#
# Indices 1 2 3 4 5 6 
#
# 1 0.024431 0.000595 -0.023457 0.000000 0.000000 0.000000
# 2 0.000595 0.037983 -0.058600 0.000000 0.000000 0.000000
# 3 -0.023457 -0.058600 0.139117 0.000000 0.000000 0.000000
# 4 0.000000 0.000000 0.000000 0.040819 0.000000 0.000000
# 5 0.000000 0.000000 0.000000 0.000000 0.041215 0.000000
# 6 0.000000 0.000000 0.000000 0.000000 0.000000 0.042970
#
#
# Mechanical properties :
#
#
# Convention : Reuss Voigt Hill
#
# Bulk Modulus (GPa) = 25.90308 54.76186 40.33247
# Shear Modulus (GPa) = 9.95366 19.71358 14.83362
#
# Velocity S-wave (km/s) = 2.45723 3.45809 2.99970
# Velocity P-wave (km/s) = 4.87479 7.01166 6.03850
#
# Compressibility (1/GPa) = 0.03860544
#
# Stress axis : x y z
#
# Youngs Moduli (GPa) = 40.93192 26.32766 7.18819
#
# Poissons Ratio (x) = -0.01566 0.16861
# Poissons Ratio (y) = -0.02434 0.42123
# Poissons Ratio (z) = 0.96014 1.54281
#
# Static dielectric constant tensor:
#      x y z
#    x 1.556210 0.000000 0.000000 
#    y 0.000000 1.554010 0.000000 
#    z 0.000000 0.000000 1.544970 
# 
# From -- ./inp_files/13152.got.cif
#   From: 2010.05.17/outbox.cif.g08.bks.cpg/sg63_7_cif.got.tgz:13152.got - 2010.06.03 15:47:04.
