data_PCOD9472107
_publ_section_title
;
Structure prediction by ZEFSAII (Michael W. Deem and Ramdas Pophale) SiO2 
 PCOD9472107
Probable space group: C M C M
;
_chemical_formula_sum "Si O2"
_cell_formula_units_Z 112
_cell_length_a 21.815404
_cell_length_b 14.828173
_cell_length_c 15.860515
_cell_angle_alpha 90.000000
_cell_angle_beta 90.000000
_cell_angle_gamma 90.000000
_cell_volume 5130.600385
_symmetry_space_group_name_H-M "C M C M"
_symmetry_group_IT_number 63
_symmetry_cell_setting 'orthorhombic'
loop_
_space_group_symop_operation_xyz
x,y,z
-x,-y,1/2+z
x,-y,-z
-x,y,1/2-z
-x,-y,-z
x,y,1/2-z
-x,y,z
x,-y,1/2+z
1/2+x,1/2+y,z
1/2-x,1/2-y,1/2+z
1/2+x,1/2-y,-z
1/2-x,1/2+y,1/2-z
1/2-x,1/2-y,-z
1/2+x,1/2+y,1/2-z
1/2-x,1/2+y,z
1/2+x,1/2-y,1/2+z
loop_
_atom_site_type_symbol
_atom_site_label
_atom_site_fract_x
_atom_site_fract_y
_atom_site_fract_z
Si Si1 0.636182 0.112791 0.107531
Si Si2 0.249288 0.994307 0.344418
Si Si3 0.339720 0.342979 0.850207
Si Si4 0.073729 0.208429 0.840658
Si Si5 0.568817 0.942418 0.149798
Si Si6 0.926690 0.895609 0.991989
Si Si7 0.317211 0.160495 0.923477
O O1 0.691801 0.060449 0.151617
O O2 0.606682 0.195706 0.155667
O O3 0.585407 0.034011 0.099982
O O4 0.661605 0.150106 0.019312
O O5 0.243859 0.956934 0.250000
O O6 0.193892 0.061371 0.361791
O O7 0.263821 0.912042 0.406233
O O8 0.349194 0.329241 0.750000
O O9 0.399121 0.349701 0.909106
O O10 0.301685 0.259635 0.889963
O O11 0.086736 0.163790 0.750000
O O12 0.000000 0.220825 0.846074
O O13 0.093793 0.152947 0.922159
O O14 0.570931 0.962421 0.250000
O O15 0.500000 0.910908 0.129345
O O16 0.622738 0.872316 0.128977
O O17 0.000000 0.890410 0.988041
O O18 0.909516 0.000000 0.000000
#
# Coordination Sequence:
#
# PCOD9472107 Si02
#       7
#    16  16  16  16  16  16  16
#     4  11  20  35  59  88 124 167 208 265 316 377
#     4  10  22  40  61  88 127 170 216 266 321 386
#     4  11  24  44  68  95 129 170 216 269 327 390
#     4  10  20  37  63  94 129 169 215 266 320 380
#     4  10  20  33  54  87 127 170 211 253 311 385
#     4  10  23  44  67  94 130 168 215 272 323 381
#     4  11  22  39  62  91 128 169 211 267 323 383
#
# _framework density 21.829802999999998
#
# number of rings (size 3 to 8) (size 9 to 14) (size 15 to 20)
#    0.000    1.571    1.429    5.571    0.000    6.000 
#    2.571    1.429    0.000    0.000    0.000    0.000 
#    0.000    0.000    0.000    0.000    0.000    0.000 
#
# Total GULP energy -312987.289828 kJ/mol
# GULP energy per Si atom -5589.058747 kJ/mol
# Density = 2.178012 g / cm^3
# Si number density = 21.829803 Si / 1000 Ang^3
#
#
#
# Elastic Constant Matrix: (Units=GPa)
#
#
# Indices 1 2 3 4 5 6 
#
# 1 22.1582 -1.7053 22.3438 0.0000 0.0000 0.0000
# 2 -1.7053 73.9481 33.3836 0.0000 0.0000 0.0000
# 3 22.3438 33.3836 130.5798 0.0000 0.0000 0.0000
# 4 0.0000 0.0000 0.0000 1.5284 0.0000 0.0000
# 5 0.0000 0.0000 0.0000 0.0000 19.6977 0.0000
# 6 0.0000 0.0000 0.0000 0.0000 0.0000 21.4588
#
#
#
# Elastic Compliance Matrix: (Units=1/GPa)
#
#
# Indices 1 2 3 4 5 6 
#
# 1 0.057163 0.006482 -0.011438 0.000000 0.000000 0.000000
# 2 0.006482 0.016022 -0.005205 0.000000 0.000000 0.000000
# 3 -0.011438 -0.005205 0.010946 0.000000 0.000000 0.000000
# 4 0.000000 0.000000 0.000000 0.654262 0.000000 0.000000
# 5 0.000000 0.000000 0.000000 0.000000 0.050767 0.000000
# 6 0.000000 0.000000 0.000000 0.000000 0.000000 0.046601
#
#
# Mechanical properties :
#
#
# Convention : Reuss Voigt Hill
#
# Bulk Modulus (GPa) = 15.67196 37.19225 26.43211
# Shear Modulus (GPa) = 5.69895 20.04792 12.87343
#
# Velocity S-wave (km/s) = 1.61750 3.03376 2.43105
# Velocity P-wave (km/s) = 3.26851 5.41719 4.47376
#
# Compressibility (1/GPa) = 0.06380821
#
# Stress axis : x y z
#
# Youngs Moduli (GPa) = 17.49378 62.41245 91.35584
#
# Poissons Ratio (x) = -0.40456 1.04497
# Poissons Ratio (y) = -0.11340 0.47554
# Poissons Ratio (z) = 0.20010 0.32488
#
# Static dielectric constant tensor:
#      x y z
#    x 1.814000 0.000000 0.000000 
#    y 0.000000 1.789270 0.000000 
#    z 0.000000 0.000000 1.785250 
# 
# From -- ./inp_files/36861.got.cif
#   From: 2010.05.17/outbox.cif.g08.bks.cpg/sg63_19_cif.got.tgz:36861.got - 2010.06.03 15:47:04.
