data_PCOD9472208
_publ_section_title
;
Structure prediction by ZEFSAII (Michael W. Deem and Ramdas Pophale) SiO2 
 PCOD9472208
Probable space group: C M C M
;
_chemical_formula_sum "Si O2"
_cell_formula_units_Z 96
_cell_length_a 22.991404
_cell_length_b 13.025320
_cell_length_c 18.606151
_cell_angle_alpha 90.000000
_cell_angle_beta 90.000000
_cell_angle_gamma 90.000000
_cell_volume 5571.991377
_symmetry_space_group_name_H-M "C M C M"
_symmetry_group_IT_number 63
_symmetry_cell_setting 'orthorhombic'
loop_
_space_group_symop_operation_xyz
x,y,z
-x,-y,1/2+z
x,-y,-z
-x,y,1/2-z
-x,-y,-z
x,y,1/2-z
-x,y,z
x,-y,1/2+z
1/2+x,1/2+y,z
1/2-x,1/2-y,1/2+z
1/2+x,1/2-y,-z
1/2-x,1/2+y,1/2-z
1/2-x,1/2-y,-z
1/2+x,1/2+y,1/2-z
1/2-x,1/2+y,z
1/2+x,1/2-y,1/2+z
loop_
_atom_site_type_symbol
_atom_site_label
_atom_site_fract_x
_atom_site_fract_y
_atom_site_fract_z
Si Si1 0.248799 0.701096 0.578792
Si Si2 0.933224 0.588715 0.337405
Si Si3 0.649751 0.531858 0.580462
Si Si4 0.832311 0.564938 0.666596
Si Si5 0.070013 0.819026 0.166633
Si Si6 0.731394 0.606456 0.331333
O O1 0.250000 0.750000 0.500000
O O2 0.298057 0.614743 0.578580
O O3 0.189629 0.648736 0.609247
O O4 0.259362 0.792859 0.634369
O O5 0.932969 0.592617 0.250000
O O6 0.889461 0.497774 0.356979
O O7 0.914426 0.703740 0.360265
O O8 0.000000 0.571178 0.360076
O O9 0.633856 0.500000 0.500000
O O10 0.598646 0.590115 0.621886
O O11 0.677279 0.435040 0.622322
O O12 0.839324 0.602467 0.750000
O O13 0.780490 0.481340 0.669252
O O14 0.088946 0.827707 0.250000
O O15 0.000000 0.823965 0.165093
O O16 0.712993 0.626151 0.250000
#
# Coordination Sequence:
#
# PCOD9472208 Si02
#       6
#    16  16  16  16  16  16
#     4  11  21  34  50  72 107 142 175 213 262 317
#     4   8  14  28  51  79 106 130 166 217 265 308
#     4  11  21  34  52  76 107 139 177 219 271 322
#     4   9  18  30  50  78 103 134 173 213 262 313
#     4   9  18  33  55  81 105 134 177 224 267 315
#     4  10  20  34  52  75 103 135 174 219 264 319
#
# _framework density 17.229028
#
# number of rings (size 3 to 8) (size 9 to 14) (size 15 to 20)
#    0.000    2.333    1.667    3.000    0.000    3.667 
#    0.000    0.000    0.000    2.000    0.000    5.833 
#    0.000    0.000    0.000    0.000    0.000    0.000 
#
# Total GULP energy -267470.118029 kJ/mol
# GULP energy per Si atom -5572.294126 kJ/mol
# Density = 1.718981 g / cm^3
# Si number density = 17.229028 Si / 1000 Ang^3
#
#
#
# Elastic Constant Matrix: (Units=GPa)
#
#
# Indices 1 2 3 4 5 6 
#
# 1 52.9909 20.8944 27.0248 0.0000 0.0000 0.0000
# 2 20.8944 63.4629 42.1157 0.0000 0.0000 0.0000
# 3 27.0248 42.1157 99.4501 0.0000 0.0000 0.0000
# 4 0.0000 0.0000 0.0000 32.2049 0.0000 0.0000
# 5 0.0000 0.0000 0.0000 0.0000 17.5363 0.0000
# 6 0.0000 0.0000 0.0000 0.0000 0.0000 30.8188
#
#
#
# Elastic Compliance Matrix: (Units=1/GPa)
#
#
# Indices 1 2 3 4 5 6 
#
# 1 0.022889 -0.004740 -0.004212 0.000000 0.000000 0.000000
# 2 -0.004740 0.022898 -0.008409 0.000000 0.000000 0.000000
# 3 -0.004212 -0.008409 0.014761 0.000000 0.000000 0.000000
# 4 0.000000 0.000000 0.000000 0.031051 0.000000 0.000000
# 5 0.000000 0.000000 0.000000 0.000000 0.057025 0.000000
# 6 0.000000 0.000000 0.000000 0.000000 0.000000 0.032448
#
#
# Mechanical properties :
#
#
# Convention : Reuss Voigt Hill
#
# Bulk Modulus (GPa) = 38.72273 43.99709 41.35991
# Shear Modulus (GPa) = 22.28135 24.50327 23.39231
#
# Velocity S-wave (km/s) = 3.60007 3.77531 3.68873
# Velocity P-wave (km/s) = 6.30910 6.67802 6.49618
#
# Compressibility (1/GPa) = 0.02582462
#
# Stress axis : x y z
#
# Youngs Moduli (GPa) = 43.69003 43.67120 67.74599
#
# Poissons Ratio (x) = 0.20702 0.28537
# Poissons Ratio (y) = 0.20711 0.56967
# Poissons Ratio (z) = 0.18404 0.36723
#
# Static dielectric constant tensor:
#      x y z
#    x 1.560140 0.000000 0.000000 
#    y 0.000000 1.598370 0.000000 
#    z 0.000000 0.000000 1.604660 
# 
# From -- ./inp_files/47981.got.cif
#   From: 2010.05.17/outbox.cif.g08.bks.cpg/sg63_24_cif.got.tgz:47981.got - 2010.06.03 15:47:04.
