data_PCOD9472587
_publ_section_title
;
Structure prediction by ZEFSAII (Michael W. Deem and Ramdas Pophale) SiO2 
 PCOD9472587
Probable space group: C M C M
;
_chemical_formula_sum "Si O2"
_cell_formula_units_Z 72
_cell_length_a 16.095892
_cell_length_b 29.386869
_cell_length_c 8.280602
_cell_angle_alpha 90.000000
_cell_angle_beta 90.000000
_cell_angle_gamma 90.000000
_cell_volume 3916.789911
_symmetry_space_group_name_H-M "C M C M"
_symmetry_group_IT_number 63
_symmetry_cell_setting 'orthorhombic'
loop_
_space_group_symop_operation_xyz
x,y,z
-x,-y,1/2+z
x,-y,-z
-x,y,1/2-z
-x,-y,-z
x,y,1/2-z
-x,y,z
x,-y,1/2+z
1/2+x,1/2+y,z
1/2-x,1/2-y,1/2+z
1/2+x,1/2-y,-z
1/2-x,1/2+y,1/2-z
1/2-x,1/2-y,-z
1/2+x,1/2+y,1/2-z
1/2-x,1/2+y,z
1/2+x,1/2-y,1/2+z
loop_
_atom_site_type_symbol
_atom_site_label
_atom_site_fract_x
_atom_site_fract_y
_atom_site_fract_z
Si Si1 0.092925 0.694840 0.946998
Si Si2 0.907011 0.199483 0.055362
Si Si3 0.753300 0.139999 0.557709
Si Si4 0.681380 0.948202 0.942899
Si Si5 0.000000 0.447506 0.944815
O O1 0.092565 0.693293 0.750000
O O2 0.170583 0.665659 0.006822
O O3 0.000000 0.680342 0.000368
O O4 0.105282 0.747739 0.993488
O O5 0.594222 0.301124 0.750000
O O6 0.834642 0.167161 0.994522
O O7 0.000000 0.185864 0.002390
O O8 0.749030 0.140595 0.750000
O O9 0.748391 0.088053 0.500459
O O10 0.679352 0.948783 0.750000
O O11 0.589928 0.930853 0.003714
O O12 0.693697 0.000000 0.000000
O O13 0.000000 0.444506 0.750000
O O14 0.000000 0.500000 0.000000
#
# Coordination Sequence:
#
# PCOD9472587 Si02
#       5
#    16  16  16  16   8
#     4   8  16  31  50  75 107 141 175 210 253 307
#     4   9  18  35  56  74  99 138 179 219 263 308
#     4  11  21  31  51  80 107 138 174 215 261 309
#     4  10  20  35  52  73 103 137 175 215 257 305
#     4   8  16  30  48  68  94 130 168 206 246 292
#
# _framework density 18.382400000000001
#
# number of rings (size 3 to 8) (size 9 to 14) (size 15 to 20)
#    0.000    2.667    0.000    3.333    1.556    1.333 
#    0.000    1.111    0.000    3.333    0.000    0.000 
#    0.000    0.000    0.000    0.000    0.000    0.000 
#
# Total GULP energy -200736.626501 kJ/mol
# GULP energy per Si atom -5576.017403 kJ/mol
# Density = 1.834056 g / cm^3
# Si number density = 18.382400 Si / 1000 Ang^3
#
#
#
# Elastic Constant Matrix: (Units=GPa)
#
#
# Indices 1 2 3 4 5 6 
#
# 1 118.1558 84.2564 18.8294 0.0000 0.0000 0.0000
# 2 84.2564 102.1682 15.0294 0.0000 0.0000 0.0000
# 3 18.8294 15.0294 21.0070 0.0000 0.0000 0.0000
# 4 0.0000 0.0000 0.0000 15.8241 0.0000 0.0000
# 5 0.0000 0.0000 0.0000 0.0000 23.0953 0.0000
# 6 0.0000 0.0000 0.0000 0.0000 0.0000 24.0743
#
#
#
# Elastic Compliance Matrix: (Units=1/GPa)
#
#
# Indices 1 2 3 4 5 6 
#
# 1 0.021520 -0.016664 -0.007367 0.000000 0.000000 0.000000
# 2 -0.016664 0.023842 -0.002121 0.000000 0.000000 0.000000
# 3 -0.007367 -0.002121 0.055725 0.000000 0.000000 0.000000
# 4 0.000000 0.000000 0.000000 0.063195 0.000000 0.000000
# 5 0.000000 0.000000 0.000000 0.000000 0.043299 0.000000
# 6 0.000000 0.000000 0.000000 0.000000 0.000000 0.041538
#
#
# Mechanical properties :
#
#
# Convention : Reuss Voigt Hill
#
# Bulk Modulus (GPa) = 20.49942 53.06238 36.78090
# Shear Modulus (GPa) = 15.73890 20.81314 18.27602
#
# Velocity S-wave (km/s) = 2.92925 3.36852 3.15653
# Velocity P-wave (km/s) = 4.75569 6.63760 5.77383
#
# Compressibility (1/GPa) = 0.04878186
#
# Stress axis : x y z
#
# Youngs Moduli (GPa) = 46.46794 41.94273 17.94535
#
# Poissons Ratio (x) = 0.69892 0.13221
# Poissons Ratio (y) = 0.77432 0.03807
# Poissons Ratio (z) = 0.34235 0.08898
#
# Static dielectric constant tensor:
#      x y z
#    x 1.653250 0.000000 0.000000 
#    y 0.000000 1.613440 0.000000 
#    z 0.000000 0.000000 1.631050 
# 
# From -- ./inp_files/4587.got.cif
#   From: 2010.05.17/outbox.cif.g08.bks.cpg/sg63_3_cif.got.tgz:4587.got - 2010.06.03 15:47:04.
