data_PCOD9472143
_publ_section_title
;
Structure prediction by ZEFSAII (Michael W. Deem and Ramdas Pophale) SiO2 
 PCOD9472143
Probable space group: C M C M
;
_chemical_formula_sum "Si O2"
_cell_formula_units_Z 120
_cell_length_a 26.241044
_cell_length_b 16.591083
_cell_length_c 14.294772
_cell_angle_alpha 90.000000
_cell_angle_beta 90.000000
_cell_angle_gamma 90.000000
_cell_volume 6223.476847
_symmetry_space_group_name_H-M "C M C M"
_symmetry_group_IT_number 63
_symmetry_cell_setting 'orthorhombic'
loop_
_space_group_symop_operation_xyz
x,y,z
-x,-y,1/2+z
x,-y,-z
-x,y,1/2-z
-x,-y,-z
x,y,1/2-z
-x,y,z
x,-y,1/2+z
1/2+x,1/2+y,z
1/2-x,1/2-y,1/2+z
1/2+x,1/2-y,-z
1/2-x,1/2+y,1/2-z
1/2-x,1/2-y,-z
1/2+x,1/2+y,1/2-z
1/2-x,1/2+y,z
1/2+x,1/2-y,1/2+z
loop_
_atom_site_type_symbol
_atom_site_label
_atom_site_fract_x
_atom_site_fract_y
_atom_site_fract_z
Si Si1 0.275705 0.606111 0.854756
Si Si2 0.860564 0.776948 0.136187
Si Si3 0.354162 0.520485 0.393359
Si Si4 0.056544 0.895885 0.139381
Si Si5 0.708608 0.871208 0.637598
Si Si6 0.680340 0.305537 0.860972
Si Si7 0.158896 0.372163 0.136396
Si Si8 0.163919 0.500000 0.500000
O O1 0.271100 0.639566 0.750000
O O2 0.316111 0.664632 0.903384
O O3 0.304172 0.520803 0.848510
O O4 0.218488 0.609875 0.886663
O O5 0.862852 0.785549 0.250000
O O6 0.912799 0.817642 0.101486
O O7 0.839375 0.688320 0.121050
O O8 0.346090 0.500000 0.500000
O O9 0.405405 0.472348 0.367633
O O10 0.353356 0.614995 0.376425
O O11 0.050733 0.883320 0.250000
O O12 0.000000 0.907588 0.098787
O O13 0.711174 0.888963 0.750000
O O14 0.761619 0.827305 0.608974
O O15 0.696954 0.947636 0.573801
O O16 0.685594 0.293459 0.750000
O O17 0.654869 0.221815 0.892803
O O18 0.150222 0.382574 0.250000
O O19 0.133045 0.437301 0.067507
#
# Coordination Sequence:
#
# PCOD9472143 Si02
#       8
#    16  16  16  16  16  16  16   8
#     4   9  16  30  46  61  88 125 165 207 248 291
#     4   8  14  29  51  71  94 126 162 209 261 305
#     4  11  22  30  46  74 104 135 174 210 254 304
#     4   9  18  34  56  78 100 129 166 210 262 317
#     4  10  20  34  49  70 102 140 180 221 264 309
#     4  10  20  35  50  67  99 143 183 220 256 303
#     4  10  21  35  48  65  94 133 178 222 261 304
#     4  12  24  30  46  68  93 132 171 222 262 312
#
# _framework density 19.281825999999999
#
# number of rings (size 3 to 8) (size 9 to 14) (size 15 to 20)
#    0.000    2.267    1.333    3.200    3.733    5.067 
#    0.000    0.000    0.000    0.000    0.000    0.467 
#    0.000    1.067    0.000    8.000    0.000    0.667 
#
# Total GULP energy -334154.741748 kJ/mol
# GULP energy per Si atom -5569.245696 kJ/mol
# Density = 1.923794 g / cm^3
# Si number density = 19.281826 Si / 1000 Ang^3
#
#
#
# Elastic Constant Matrix: (Units=GPa)
#
#
# Indices 1 2 3 4 5 6 
#
# 1 75.0221 29.9677 -0.4782 0.0000 0.0000 0.0000
# 2 29.9677 141.6209 23.6949 0.0000 0.0000 0.0000
# 3 -0.4782 23.6949 61.4304 0.0000 0.0000 0.0000
# 4 0.0000 0.0000 0.0000 27.3185 0.0000 0.0000
# 5 0.0000 0.0000 0.0000 0.0000 5.4214 0.0000
# 6 0.0000 0.0000 0.0000 0.0000 0.0000 1.1310
#
#
#
# Elastic Compliance Matrix: (Units=1/GPa)
#
#
# Indices 1 2 3 4 5 6 
#
# 1 0.014672 -0.003339 0.001402 0.000000 0.000000 0.000000
# 2 -0.003339 0.008308 -0.003231 0.000000 0.000000 0.000000
# 3 0.001402 -0.003231 0.017536 0.000000 0.000000 0.000000
# 4 0.000000 0.000000 0.000000 0.036605 0.000000 0.000000
# 5 0.000000 0.000000 0.000000 0.000000 0.184455 0.000000
# 6 0.000000 0.000000 0.000000 0.000000 0.000000 0.884194
#
#
# Mechanical properties :
#
#
# Convention : Reuss Voigt Hill
#
# Bulk Modulus (GPa) = 33.13376 42.71578 37.92477
# Shear Modulus (GPa) = 4.28755 21.76676 13.02716
#
# Velocity S-wave (km/s) = 1.49280 3.36352 2.60209
# Velocity P-wave (km/s) = 4.49361 6.10621 5.36089
#
# Compressibility (1/GPa) = 0.03018070
#
# Stress axis : x y z
#
# Youngs Moduli (GPa) = 68.15581 120.36221 57.02677
#
# Poissons Ratio (x) = 0.40193 -0.07997
# Poissons Ratio (y) = 0.22760 0.18423
# Poissons Ratio (z) = -0.09557 0.38885
#
# Static dielectric constant tensor:
#      x y z
#    x 1.741760 0.000000 0.000000 
#    y 0.000000 1.781110 0.000000 
#    z 0.000000 0.000000 1.796270 
# 
# From -- ./inp_files/38780.got.cif
#   From: 2010.05.17/outbox.cif.g08.bks.cpg/sg63_20_cif.got.tgz:38780.got - 2010.06.03 15:47:04.
