data_PCOD9472097
_publ_section_title
;
Structure prediction by ZEFSAII (Michael W. Deem and Ramdas Pophale) SiO2 
 PCOD9472097
Probable space group: C M C M
;
_chemical_formula_sum "Si O2"
_cell_formula_units_Z 116
_cell_length_a 7.424432
_cell_length_b 25.910734
_cell_length_c 26.635578
_cell_angle_alpha 90.000000
_cell_angle_beta 90.000000
_cell_angle_gamma 90.000000
_cell_volume 5123.952267
_symmetry_space_group_name_H-M "C M C M"
_symmetry_group_IT_number 63
_symmetry_cell_setting 'orthorhombic'
loop_
_space_group_symop_operation_xyz
x,y,z
-x,-y,1/2+z
x,-y,-z
-x,y,1/2-z
-x,-y,-z
x,y,1/2-z
-x,y,z
x,-y,1/2+z
1/2+x,1/2+y,z
1/2-x,1/2-y,1/2+z
1/2+x,1/2-y,-z
1/2-x,1/2+y,1/2-z
1/2-x,1/2-y,-z
1/2+x,1/2+y,1/2-z
1/2-x,1/2+y,z
1/2+x,1/2-y,1/2+z
loop_
_atom_site_type_symbol
_atom_site_label
_atom_site_fract_x
_atom_site_fract_y
_atom_site_fract_z
Si Si1 0.220186 0.550022 0.693472
Si Si2 0.215750 0.094376 0.058730
Si Si3 0.000000 0.577276 0.250000
Si Si4 0.793757 0.339267 0.151862
Si Si5 0.718329 0.618359 0.326938
Si Si6 0.710422 0.019159 0.586119
Si Si7 0.797660 0.126810 0.956020
Si Si8 0.792953 0.234781 0.191514
O O1 0.280707 0.536954 0.750000
O O2 0.276887 0.608757 0.678587
O O3 0.275513 0.517244 0.644303
O O4 0.000000 0.547645 0.695342
O O5 0.259854 0.113094 0.114291
O O6 0.270700 0.034687 0.058395
O O7 0.000000 0.095888 0.054107
O O8 0.286054 0.126875 0.011453
O O9 0.840990 0.581162 0.293623
O O10 0.793110 0.348017 0.092247
O O11 0.708917 0.284089 0.164342
O O12 0.000000 0.336341 0.170067
O O13 0.500000 0.612259 0.318819
O O14 0.777023 0.676722 0.312511
O O15 0.500000 0.033353 0.587930
O O16 0.804058 0.066126 0.558170
O O17 0.000000 0.147985 0.957820
O O18 0.793608 0.248294 0.250000
O O19 0.000000 0.229675 0.173012
#
# Coordination Sequence:
#
# PCOD9472097 Si02
#       8
#    16  16   4  16  16  16  16  16
#     4   8  14  27  45  72 107 137 169 220 272 331
#     4  10  22  39  57  77 107 149 190 231 285 344
#     4  12  22  40  64  90 114 156 194 240 288 338
#     4   9  17  30  53  82 106 139 188 229 277 334
#     4  10  22  41  61  87 121 151 192 242 286 337
#     4  10  20  33  54  82 107 137 187 240 286 338
#     4  10  20  36  55  77 109 148 185 231 290 344
#     4   9  16  32  58  82 110 151 186 225 280 338
#
# _framework density 22.638774999999999
#
# number of rings (size 3 to 8) (size 9 to 14) (size 15 to 20)
#    0.000    2.483    0.690    2.690    0.966    4.414 
#    2.483    0.690    0.000   13.241    0.000    0.000 
#    0.000    0.000    0.000    0.000    0.000    0.000 
#
# Total GULP energy -323178.943841 kJ/mol
# GULP energy per Si atom -5572.050756 kJ/mol
# Density = 2.258725 g / cm^3
# Si number density = 22.638775 Si / 1000 Ang^3
#
#
#
# Elastic Constant Matrix: (Units=GPa)
#
#
# Indices 1 2 3 4 5 6 
#
# 1 79.4708 2.4145 13.8140 0.0000 0.0000 0.0000
# 2 2.4145 31.8255 2.8598 0.0000 0.0000 0.0000
# 3 13.8140 2.8598 133.7089 0.0000 0.0000 0.0000
# 4 0.0000 0.0000 0.0000 18.5394 0.0000 0.0000
# 5 0.0000 0.0000 0.0000 0.0000 26.3272 0.0000
# 6 0.0000 0.0000 0.0000 0.0000 0.0000 -6.4817
#
#
#
# Elastic Compliance Matrix: (Units=1/GPa)
#
#
# Indices 1 2 3 4 5 6 
#
# 1 0.012837 -0.000856 -0.001308 0.000000 0.000000 0.000000
# 2 -0.000856 0.031539 -0.000586 0.000000 0.000000 0.000000
# 3 -0.001308 -0.000586 0.007627 0.000000 0.000000 0.000000
# 4 0.000000 0.000000 0.000000 0.053939 0.000000 0.000000
# 5 0.000000 0.000000 0.000000 0.000000 0.037983 0.000000
# 6 0.000000 0.000000 0.000000 0.000000 0.000000 -0.154281
#
#
# Mechanical properties :
#
#
# Convention : Reuss Voigt Hill
#
# Bulk Modulus (GPa) = 21.50468 31.46467 26.48468
# Shear Modulus (GPa) = 469.69090 22.73812 246.21451
#
# Velocity S-wave (km/s) = 14.41951 3.17265 10.44002
# Velocity P-wave (km/s) = 16.93368 5.22969 12.53194
#
# Compressibility (1/GPa) = 0.04650150
#
# Stress axis : x y z
#
# Youngs Moduli (GPa) = 77.90227 31.70681 131.12018
#
# Poissons Ratio (x) = 0.02715 0.17149
# Poissons Ratio (y) = 0.06671 0.07685
# Poissons Ratio (z) = 0.10189 0.01858
#
# Static dielectric constant tensor:
#      x y z
#    x 1.898640 0.000000 0.000000 
#    y 0.000000 1.865390 0.000000 
#    z 0.000000 0.000000 1.859470 
# 
# From -- ./inp_files/67689.got.cif
#   From: 2010.05.17/outbox.cif.g08.bks.cpg/sg63_34_cif.got.tgz:67689.got - 2010.06.03 15:47:04.
