data_PCOD9472542
_publ_section_title
;
Structure prediction by ZEFSAII (Michael W. Deem and Ramdas Pophale) SiO2 
 PCOD9472542
Probable space group: C M C M
;
_chemical_formula_sum "Si O2"
_cell_formula_units_Z 64
_cell_length_a 31.211025
_cell_length_b 11.109426
_cell_length_c 10.162343
_cell_angle_alpha 90.000000
_cell_angle_beta 90.000000
_cell_angle_gamma 90.000000
_cell_volume 3523.655982
_symmetry_space_group_name_H-M "C M C M"
_symmetry_group_IT_number 63
_symmetry_cell_setting 'orthorhombic'
loop_
_space_group_symop_operation_xyz
x,y,z
-x,-y,1/2+z
x,-y,-z
-x,y,1/2-z
-x,-y,-z
x,y,1/2-z
-x,y,z
x,-y,1/2+z
1/2+x,1/2+y,z
1/2-x,1/2-y,1/2+z
1/2+x,1/2-y,-z
1/2-x,1/2+y,1/2-z
1/2-x,1/2-y,-z
1/2+x,1/2+y,1/2-z
1/2-x,1/2+y,z
1/2+x,1/2-y,1/2+z
loop_
_atom_site_type_symbol
_atom_site_label
_atom_site_fract_x
_atom_site_fract_y
_atom_site_fract_z
Si Si1 0.500000 0.601230 0.106931
Si Si2 0.286116 0.283518 0.396025
Si Si3 0.155514 0.000000 0.000000
Si Si4 0.094236 0.203122 0.103221
Si Si5 0.866742 0.613302 0.402769
O O1 0.500000 0.541456 0.250000
O O2 0.543961 0.674410 0.097621
O O3 0.500000 0.500000 0.000000
O O4 0.267356 0.295578 0.250000
O O5 0.250000 0.250000 0.500000
O O6 0.313315 0.404179 0.428373
O O7 0.320123 0.174829 0.397212
O O8 0.123518 0.083199 0.086369
O O9 0.103850 0.253553 0.250000
O O10 0.105010 0.288790 0.981125
O O11 0.866170 0.500000 0.500000
O O12 0.879739 0.590446 0.250000
#
# Coordination Sequence:
#
# PCOD9472542 Si02
#       5
#     8  16   8  16  16
#     4  10  20  34  57  90 121 152 189 231 283 341
#     4  10  23  38  56  83 111 147 190 238 288 340
#     4  10  20  37  60  84 114 150 194 235 284 342
#     4  10  20  36  60  88 119 152 188 235 286 339
#     4  10  22  40  60  83 112 150 195 237 287 343
#
# _framework density 18.162953999999999
#
# number of rings (size 3 to 8) (size 9 to 14) (size 15 to 20)
#    0.000    2.000    1.250    1.500    1.750    8.000 
#    0.000    0.625    0.000    0.000    0.000    0.000 
#    0.000    0.000    0.000    0.000    0.000    0.000 
#
# Total GULP energy -178300.539701 kJ/mol
# GULP energy per Si atom -5571.891866 kJ/mol
# Density = 1.812161 g / cm^3
# Si number density = 18.162954 Si / 1000 Ang^3
#
#
#
# Elastic Constant Matrix: (Units=GPa)
#
#
# Indices 1 2 3 4 5 6 
#
# 1 96.3103 30.3287 68.6964 0.0000 0.0000 0.0000
# 2 30.3287 90.7417 64.8834 0.0000 0.0000 0.0000
# 3 68.6964 64.8834 195.1703 0.0000 0.0000 0.0000
# 4 0.0000 0.0000 0.0000 22.9788 0.0000 0.0000
# 5 0.0000 0.0000 0.0000 0.0000 26.4897 0.0000
# 6 0.0000 0.0000 0.0000 0.0000 0.0000 8.8530
#
#
#
# Elastic Compliance Matrix: (Units=1/GPa)
#
#
# Indices 1 2 3 4 5 6 
#
# 1 0.014021 -0.001518 -0.004431 0.000000 0.000000 0.000000
# 2 -0.001518 0.014621 -0.004326 0.000000 0.000000 0.000000
# 3 -0.004431 -0.004326 0.008121 0.000000 0.000000 0.000000
# 4 0.000000 0.000000 0.000000 0.043518 0.000000 0.000000
# 5 0.000000 0.000000 0.000000 0.000000 0.037750 0.000000
# 6 0.000000 0.000000 0.000000 0.000000 0.000000 0.112956
#
#
# Mechanical properties :
#
#
# Convention : Reuss Voigt Hill
#
# Bulk Modulus (GPa) = 61.67633 78.89325 70.28479
# Shear Modulus (GPa) = 19.45946 26.21855 22.83901
#
# Velocity S-wave (km/s) = 3.27675 3.80349 3.54990
# Velocity P-wave (km/s) = 6.95320 7.92587 7.45541
#
# Compressibility (1/GPa) = 0.01621368
#
# Stress axis : x y z
#
# Youngs Moduli (GPa) = 71.31916 68.39359 123.13075
#
# Poissons Ratio (x) = 0.10385 0.54553
# Poissons Ratio (y) = 0.10829 0.53270
# Poissons Ratio (z) = 0.31598 0.29589
#
# Static dielectric constant tensor:
#      x y z
#    x 1.347700 0.000000 0.000000 
#    y 0.000000 1.631260 0.000000 
#    z 0.000000 0.000000 1.639330 
# 
# From -- ./inp_files/13750.got.cif
#   From: 2010.05.17/outbox.cif.g08.bks.cpg/sg63_7_cif.got.tgz:13750.got - 2010.06.03 15:47:04.
