data_PCOD9472416
_publ_section_title
;
Structure prediction by ZEFSAII (Michael W. Deem and Ramdas Pophale) SiO2 
 PCOD9472416
Probable space group: C M C M
;
_chemical_formula_sum "Si O2"
_cell_formula_units_Z 112
_cell_length_a 13.736559
_cell_length_b 29.151568
_cell_length_c 14.327927
_cell_angle_alpha 90.000000
_cell_angle_beta 90.000000
_cell_angle_gamma 90.000000
_cell_volume 5737.507093
_symmetry_space_group_name_H-M "C M C M"
_symmetry_group_IT_number 63
_symmetry_cell_setting 'orthorhombic'
loop_
_space_group_symop_operation_xyz
x,y,z
-x,-y,1/2+z
x,-y,-z
-x,y,1/2-z
-x,-y,-z
x,y,1/2-z
-x,y,z
x,-y,1/2+z
1/2+x,1/2+y,z
1/2-x,1/2-y,1/2+z
1/2+x,1/2-y,-z
1/2-x,1/2+y,1/2-z
1/2-x,1/2-y,-z
1/2+x,1/2+y,1/2-z
1/2-x,1/2+y,z
1/2+x,1/2-y,1/2+z
loop_
_atom_site_type_symbol
_atom_site_label
_atom_site_fract_x
_atom_site_fract_y
_atom_site_fract_z
Si Si1 0.731209 0.886123 0.854948
Si Si2 0.117468 0.717878 0.939344
Si Si3 0.318765 0.879221 0.356999
Si Si4 0.890934 0.850682 0.145307
Si Si5 0.110830 0.446008 0.516821
Si Si6 0.615606 0.796076 0.649212
Si Si7 0.887676 0.818670 0.558620
O O1 0.760491 0.897101 0.750000
O O2 0.641910 0.849897 0.852144
O O3 0.816862 0.858067 0.905455
O O4 0.691373 0.929116 0.910551
O O5 0.160304 0.673212 0.889503
O O6 0.137904 0.768619 0.900598
O O7 0.000000 0.712539 0.938545
O O8 0.150920 0.719108 0.047383
O O9 0.349680 0.884643 0.250000
O O10 0.201363 0.884047 0.362345
O O11 0.370286 0.914855 0.425303
O O12 0.883563 0.829557 0.250000
O O13 0.000000 0.871165 0.140101
O O14 0.884026 0.818104 0.054952
O O15 0.119688 0.500000 0.500000
O O16 0.000000 0.437078 0.549094
O O17 0.654471 0.778755 0.750000
O O18 0.500000 0.788100 0.649924
O O19 0.000000 0.828230 0.583060
#
# Coordination Sequence:
#
# PCOD9472416 Si02
#       7
#    16  16  16  16  16  16  16
#     4  11  22  38  60  86 119 159 200 244 295 355
#     4  10  20  34  54  83 121 162 206 249 290 348
#     4  11  22  38  62  89 121 161 200 242 297 360
#     4   9  18  34  58  87 118 156 203 250 293 341
#     4  11  24  43  67  94 122 151 191 245 304 364
#     4   9  17  30  51  78 110 151 197 244 291 342
#     4  10  21  37  58  85 120 164 209 251 294 345
#
# _framework density 19.520672999999999
#
# number of rings (size 3 to 8) (size 9 to 14) (size 15 to 20)
#    0.000    1.857    2.857    0.857    0.000    6.286 
#    0.000    8.571    0.000    1.714    0.000    2.000 
#    0.000    0.000    0.000    0.000    0.000    0.000 
#
# Total GULP energy -312274.409147 kJ/mol
# GULP energy per Si atom -5576.328735 kJ/mol
# Density = 1.947624 g / cm^3
# Si number density = 19.520673 Si / 1000 Ang^3
#
#
#
# Elastic Constant Matrix: (Units=GPa)
#
#
# Indices 1 2 3 4 5 6 
#
# 1 92.1500 45.5365 22.5764 0.0000 0.0000 0.0000
# 2 45.5365 80.7864 29.2115 0.0000 0.0000 0.0000
# 3 22.5764 29.2115 103.0184 0.0000 0.0000 0.0000
# 4 0.0000 0.0000 0.0000 -0.7293 0.0000 0.0000
# 5 0.0000 0.0000 0.0000 0.0000 21.9462 0.0000
# 6 0.0000 0.0000 0.0000 0.0000 0.0000 14.6520
#
#
#
# Elastic Compliance Matrix: (Units=1/GPa)
#
#
# Indices 1 2 3 4 5 6 
#
# 1 0.015133 -0.008169 -0.001000 0.000000 0.000000 0.000000
# 2 -0.008169 0.018202 -0.003371 0.000000 0.000000 0.000000
# 3 -0.001000 -0.003371 0.010882 0.000000 0.000000 0.000000
# 4 0.000000 0.000000 0.000000 -1.371271 0.000000 0.000000
# 5 0.000000 0.000000 0.000000 0.000000 0.045566 0.000000
# 6 0.000000 0.000000 0.000000 0.000000 0.000000 0.068250
#
#
# Mechanical properties :
#
#
# Convention : Reuss Voigt Hill
#
# Bulk Modulus (GPa) = 52.25347 52.28928 52.27138
# Shear Modulus (GPa) = -4.23091 19.08249 7.42579
#
# Velocity S-wave (km/s) = -1.47381 3.12998 1.95252
# Velocity P-wave (km/s) = 4.89185 6.31721 5.64966
#
# Compressibility (1/GPa) = 0.01913748
#
# Stress axis : x y z
#
# Youngs Moduli (GPa) = 66.07881 54.94039 91.89414
#
# Poissons Ratio (x) = 0.44878 0.09192
# Poissons Ratio (y) = 0.53977 0.30978
# Poissons Ratio (z) = 0.06610 0.18521
#
# Static dielectric constant tensor:
#      x y z
#    x 1.720970 0.000000 0.000000 
#    y 0.000000 1.654840 0.000000 
#    z 0.000000 0.000000 1.732400 
# 
# From -- ./inp_files/32306.got.cif
#   From: 2010.05.17/outbox.cif.g08.bks.cpg/sg63_17_cif.got.tgz:32306.got - 2010.06.03 15:47:04.
