data_PCOD9472249
_publ_section_title
;
Structure prediction by ZEFSAII (Michael W. Deem and Ramdas Pophale) SiO2 
 PCOD9472249
Probable space group: C M C M
;
_chemical_formula_sum "Si O2"
_cell_formula_units_Z 80
_cell_length_a 9.237287
_cell_length_b 26.279975
_cell_length_c 19.260997
_cell_angle_alpha 90.000000
_cell_angle_beta 90.000000
_cell_angle_gamma 90.000000
_cell_volume 4675.716259
_symmetry_space_group_name_H-M "C M C M"
_symmetry_group_IT_number 63
_symmetry_cell_setting 'orthorhombic'
loop_
_space_group_symop_operation_xyz
x,y,z
-x,-y,1/2+z
x,-y,-z
-x,y,1/2-z
-x,-y,-z
x,y,1/2-z
-x,y,z
x,-y,1/2+z
1/2+x,1/2+y,z
1/2-x,1/2-y,1/2+z
1/2+x,1/2-y,-z
1/2-x,1/2+y,1/2-z
1/2-x,1/2-y,-z
1/2+x,1/2+y,1/2-z
1/2-x,1/2+y,z
1/2+x,1/2-y,1/2+z
loop_
_atom_site_type_symbol
_atom_site_label
_atom_site_fract_x
_atom_site_fract_y
_atom_site_fract_z
Si Si1 0.333438 0.494666 0.665506
Si Si2 0.172299 0.690274 0.567478
Si Si3 0.327903 0.307083 0.920739
Si Si4 0.827394 0.402611 0.168550
Si Si5 0.330753 0.107847 0.333595
O O1 0.331872 0.494639 0.750000
O O2 0.500000 0.492160 0.642898
O O3 0.257489 0.547225 0.644404
O O4 0.245077 0.444778 0.643644
O O5 0.263160 0.683758 0.497364
O O6 0.199160 0.747404 0.595183
O O7 0.207128 0.646674 0.622852
O O8 0.000000 0.687178 0.551454
O O9 0.500000 0.315570 0.919918
O O10 0.249390 0.344816 0.868205
O O11 0.794371 0.393719 0.250000
O O12 0.000000 0.412129 0.163585
O O13 0.319681 0.110919 0.250000
O O14 0.500000 0.107409 0.352112
#
# Coordination Sequence:
#
# PCOD9472249 Si02
#       5
#    16  16  16  16  16
#     4   9  17  30  49  74 103 132 162 201 250 298
#     4   9  19  35  53  73 101 137 171 204 248 301
#     4  10  20  34  53  75 101 134 170 210 253 296
#     4   9  17  31  52  76 101 131 167 204 244 295
#     4  10  20  34  53  76 102 133 168 206 249 299
#
# _framework density 17.109679
#
# number of rings (size 3 to 8) (size 9 to 14) (size 15 to 20)
#    0.000    2.600    0.000    1.800    0.000    6.000 
#    0.000    3.000    0.000    8.400    0.000    0.000 
#    0.000    0.000    0.000    0.000    0.000    0.000 
#
# Total GULP energy -223079.022908 kJ/mol
# GULP energy per Si atom -5576.975573 kJ/mol
# Density = 1.707074 g / cm^3
# Si number density = 17.109679 Si / 1000 Ang^3
#
#
#
# Elastic Constant Matrix: (Units=GPa)
#
#
# Indices 1 2 3 4 5 6 
#
# 1 108.1785 98.6985 48.2871 0.0000 0.0000 0.0000
# 2 98.6985 154.1891 58.1811 0.0000 0.0000 0.0000
# 3 48.2871 58.1811 31.9149 0.0000 0.0000 0.0000
# 4 0.0000 0.0000 0.0000 -47.6471 0.0000 0.0000
# 5 0.0000 0.0000 0.0000 0.0000 25.2008 0.0000
# 6 0.0000 0.0000 0.0000 0.0000 0.0000 34.3014
#
#
#
# Elastic Compliance Matrix: (Units=1/GPa)
#
#
# Indices 1 2 3 4 5 6 
#
# 1 0.030530 -0.006770 -0.033851 0.000000 0.000000 0.000000
# 2 -0.006770 0.022280 -0.030375 0.000000 0.000000 0.000000
# 3 -0.033851 -0.030375 0.137924 0.000000 0.000000 0.000000
# 4 0.000000 0.000000 0.000000 -0.020988 0.000000 0.000000
# 5 0.000000 0.000000 0.000000 0.000000 0.039681 0.000000
# 6 0.000000 0.000000 0.000000 0.000000 0.000000 0.029153
#
#
# Mechanical properties :
#
#
# Convention : Reuss Voigt Hill
#
# Bulk Modulus (GPa) = 20.51579 78.29065 49.40322
# Shear Modulus (GPa) = 12.60016 8.31207 10.45611
#
# Velocity S-wave (km/s) = 2.71668 2.20650 2.47477
# Velocity P-wave (km/s) = 4.67517 7.23526 6.09123
#
# Compressibility (1/GPa) = 0.04874294
#
# Stress axis : x y z
#
# Youngs Moduli (GPa) = 32.75434 44.88247 7.25039
#
# Poissons Ratio (x) = 0.30384 0.24543
# Poissons Ratio (y) = 0.22173 0.22023
# Poissons Ratio (z) = 1.10877 1.36330
#
# Static dielectric constant tensor:
#      x y z
#    x 1.572610 0.000000 0.000000 
#    y 0.000000 1.563990 0.000000 
#    z 0.000000 0.000000 1.554520 
# 
# From -- ./inp_files/40445.got.cif
#   From: 2010.05.17/outbox.cif.g08.bks.cpg/sg63_21_cif.got.tgz:40445.got - 2010.06.03 15:47:04.
