data_PCOD9472660
_publ_section_title
;
Structure prediction by ZEFSAII (Michael W. Deem and Ramdas Pophale) SiO2 
 PCOD9472660
Probable space group: C M C M
;
_chemical_formula_sum "Si O2"
_cell_formula_units_Z 80
_cell_length_a 18.861228
_cell_length_b 26.587333
_cell_length_c 7.845778
_cell_angle_alpha 90.000000
_cell_angle_beta 90.000000
_cell_angle_gamma 90.000000
_cell_volume 3934.420329
_symmetry_space_group_name_H-M "C M C M"
_symmetry_group_IT_number 63
_symmetry_cell_setting 'orthorhombic'
loop_
_space_group_symop_operation_xyz
x,y,z
-x,-y,1/2+z
x,-y,-z
-x,y,1/2-z
-x,-y,-z
x,y,1/2-z
-x,y,z
x,-y,1/2+z
1/2+x,1/2+y,z
1/2-x,1/2-y,1/2+z
1/2+x,1/2-y,-z
1/2-x,1/2+y,1/2-z
1/2-x,1/2-y,-z
1/2+x,1/2+y,1/2-z
1/2-x,1/2+y,z
1/2+x,1/2-y,1/2+z
loop_
_atom_site_type_symbol
_atom_site_label
_atom_site_fract_x
_atom_site_fract_y
_atom_site_fract_z
Si Si1 0.832485 0.250648 0.955413
Si Si2 0.332006 0.056137 0.546966
Si Si3 0.419839 0.846591 0.953703
Si Si4 0.418322 0.652270 0.541187
Si Si5 0.670066 0.443799 0.455073
O O1 0.837007 0.250715 0.750000
O O2 0.871702 0.300796 0.020427
O O3 0.873378 0.200691 0.014954
O O4 0.750000 0.250000 0.000000
O O5 0.329137 0.059507 0.750000
O O6 0.382273 0.100324 0.484554
O O7 0.251095 0.062200 0.480464
O O8 0.356225 0.000000 0.500000
O O9 0.424333 0.839885 0.750000
O O10 0.500000 0.845271 0.022047
O O11 0.418204 0.652228 0.750000
O O12 0.500000 0.655168 0.487179
O O13 0.380118 0.601020 0.484061
O O14 0.645723 0.500000 0.500000
O O15 0.672527 0.440591 0.250000
#
# Coordination Sequence:
#
# PCOD9472660 Si02
#       5
#    16  16  16  16  16
#     4  10  20  35  56  79 103 134 173 215 258 307
#     4  10  20  35  55  78 105 138 176 216 258 307
#     4  10  21  36  54  78 107 137 171 214 264 315
#     4   9  17  31  52  76 102 134 171 208 249 302
#     4   9  18  32  51  75 102 133 171 212 252 298
#
# _framework density 20.333364
#
# number of rings (size 3 to 8) (size 9 to 14) (size 15 to 20)
#    0.000    2.400    0.000    2.400    0.000    6.800 
#    0.000    1.000    0.000    3.000    0.000    0.000 
#    0.000    0.000    0.000    0.000    0.000    0.000 
#
# Total GULP energy -223378.264918 kJ/mol
# GULP energy per Si atom -5584.456623 kJ/mol
# Density = 2.028708 g / cm^3
# Si number density = 20.333364 Si / 1000 Ang^3
#
#
#
# Elastic Constant Matrix: (Units=GPa)
#
#
# Indices 1 2 3 4 5 6 
#
# 1 184.4641 149.2950 6.6113 0.0000 0.0000 0.0000
# 2 149.2950 217.5963 3.5038 0.0000 0.0000 0.0000
# 3 6.6113 3.5038 22.8186 0.0000 0.0000 0.0000
# 4 0.0000 0.0000 0.0000 20.8071 0.0000 0.0000
# 5 0.0000 0.0000 0.0000 0.0000 17.7706 0.0000
# 6 0.0000 0.0000 0.0000 0.0000 0.0000 20.7193
#
#
#
# Elastic Compliance Matrix: (Units=1/GPa)
#
#
# Indices 1 2 3 4 5 6 
#
# 1 0.012307 -0.008407 -0.002275 0.000000 0.000000 0.000000
# 2 -0.008407 0.010350 0.000847 0.000000 0.000000 0.000000
# 3 -0.002275 0.000847 0.044353 0.000000 0.000000 0.000000
# 4 0.000000 0.000000 0.000000 0.048060 0.000000 0.000000
# 5 0.000000 0.000000 0.000000 0.000000 0.056273 0.000000
# 6 0.000000 0.000000 0.000000 0.000000 0.000000 0.048264
#
#
# Mechanical properties :
#
#
# Convention : Reuss Voigt Hill
#
# Bulk Modulus (GPa) = 21.12409 82.63325 51.87867
# Shear Modulus (GPa) = 19.60330 29.55733 24.58032
#
# Velocity S-wave (km/s) = 3.10836 3.81680 3.48065
# Velocity P-wave (km/s) = 4.82638 7.75573 6.45931
#
# Compressibility (1/GPa) = 0.04733932
#
# Stress axis : x y z
#
# Youngs Moduli (GPa) = 81.25364 96.61413 22.54636
#
# Poissons Ratio (x) = 0.81228 0.05129
# Poissons Ratio (y) = 0.68313 -0.01909
# Poissons Ratio (z) = 0.18484 -0.08179
#
# Static dielectric constant tensor:
#      x y z
#    x 1.700040 0.000000 0.000000 
#    y 0.000000 1.653530 0.000000 
#    z 0.000000 0.000000 1.757070 
# 
# From -- ./inp_files/6384.got.cif
#   From: 2010.05.17/outbox.cif.g08.bks.cpg/sg63_4_cif.got.tgz:6384.got - 2010.06.03 15:47:04.
