data_PCOD9472926
_publ_section_title
;
Structure prediction by ZEFSAII (Michael W. Deem and Ramdas Pophale) SiO2 
 PCOD9472926
Probable space group: C M C M
;
_chemical_formula_sum "Si O2"
_cell_formula_units_Z 92
_cell_length_a 22.513648
_cell_length_b 11.978270
_cell_length_c 16.536167
_cell_angle_alpha 90.000000
_cell_angle_beta 90.000000
_cell_angle_gamma 90.000000
_cell_volume 4459.383468
_symmetry_space_group_name_H-M "C M C M"
_symmetry_group_IT_number 63
_symmetry_cell_setting 'orthorhombic'
loop_
_space_group_symop_operation_xyz
x,y,z
-x,-y,1/2+z
x,-y,-z
-x,y,1/2-z
-x,-y,-z
x,y,1/2-z
-x,y,z
x,-y,1/2+z
1/2+x,1/2+y,z
1/2-x,1/2-y,1/2+z
1/2+x,1/2-y,-z
1/2-x,1/2+y,1/2-z
1/2-x,1/2-y,-z
1/2+x,1/2+y,1/2-z
1/2-x,1/2+y,z
1/2+x,1/2-y,1/2+z
loop_
_atom_site_type_symbol
_atom_site_label
_atom_site_fract_x
_atom_site_fract_y
_atom_site_fract_z
Si Si1 0.432726 0.557784 0.890612
Si Si2 0.500000 0.071865 0.750000
Si Si3 0.179070 0.078498 0.080167
Si Si4 0.500000 0.112496 0.557205
Si Si5 0.433897 0.738097 0.750000
Si Si6 0.887836 0.249646 0.997033
Si Si7 0.314935 0.064578 0.086590
Si Si8 0.872797 0.537148 0.250000
O O1 0.500000 0.510287 0.892854
O O2 0.377438 0.475747 0.873937
O O3 0.431798 0.655428 0.824925
O O4 0.418089 0.632348 0.969431
O O5 0.500000 0.115924 0.655525
O O6 0.561776 0.009321 0.750000
O O7 0.246189 0.080343 0.111103
O O8 0.160770 0.204711 0.059544
O O9 0.184440 0.000000 0.000000
O O10 0.559552 0.175510 0.530033
O O11 0.500000 0.000000 0.500000
O O12 0.500000 0.791518 0.750000
O O13 0.382652 0.828971 0.750000
O O14 0.851468 0.321192 0.931013
O O15 0.343343 0.005524 0.164713
O O16 0.319126 0.000000 0.000000
#
# Coordination Sequence:
#
# PCOD9472926 Si02
#       8
#    16   4  16   8   8  16  16   8
#     4  10  20  36  63  96 123 158 215 269 319 373
#     4  12  26  42  60  96 128 156 212 264 324 368
#     4   9  22  38  62  90 127 169 210 267 319 378
#     4  12  26  40  65  96 125 171 208 267 319 382
#     4  10  20  35  59  95 126 159 208 276 321 359
#     4  11  20  38  65  90 126 165 212 261 316 385
#     4  11  23  41  62  96 131 173 218 260 318 384
#     4  12  22  39  68  88 128 172 210 267 318 384
#
# _framework density 20.630655000000001
#
# number of rings (size 3 to 8) (size 9 to 14) (size 15 to 20)
#    0.000    1.391    3.043    3.130    1.217    1.739 
#    0.000    1.739    3.826    0.000    0.000    0.000 
#    0.000    0.000    0.000    0.000    0.000    0.000 
#
# Total GULP energy -256071.760605 kJ/mol
# GULP energy per Si atom -5566.777404 kJ/mol
# Density = 2.058370 g / cm^3
# Si number density = 20.630655 Si / 1000 Ang^3
#
#
#
# Elastic Constant Matrix: (Units=GPa)
#
#
# Indices 1 2 3 4 5 6 
#
# 1 181.3085 36.2597 46.8607 0.0000 0.0000 0.0000
# 2 36.2597 47.7381 16.8360 0.0000 0.0000 0.0000
# 3 46.8607 16.8360 69.0519 0.0000 0.0000 0.0000
# 4 0.0000 0.0000 0.0000 -490.3553 0.0000 0.0000
# 5 0.0000 0.0000 0.0000 0.0000 -175.0712 0.0000
# 6 0.0000 0.0000 0.0000 0.0000 0.0000 18.5769
#
#
#
# Elastic Compliance Matrix: (Units=1/GPa)
#
#
# Indices 1 2 3 4 5 6 
#
# 1 0.007387 -0.004204 -0.003988 0.000000 0.000000 0.000000
# 2 -0.004204 0.025311 -0.003318 0.000000 0.000000 0.000000
# 3 -0.003988 -0.003318 0.017997 0.000000 0.000000 0.000000
# 4 0.000000 0.000000 0.000000 -0.002039 0.000000 0.000000
# 5 0.000000 0.000000 0.000000 0.000000 -0.005712 0.000000
# 6 0.000000 0.000000 0.000000 0.000000 0.000000 0.053830
#
#
# Mechanical properties :
#
#
# Convention : Reuss Voigt Hill
#
# Bulk Modulus (GPa) = 36.13411 55.33456 45.73433
# Shear Modulus (GPa) = 38.75360 -116.16044 -38.70342
#
# Velocity S-wave (km/s) = 4.33881 -7.51179 -4.33600
# Velocity P-wave (km/s) = 6.53094 6.95387 1.68866
#
# Compressibility (1/GPa) = 0.02767469
#
# Stress axis : x y z
#
# Youngs Moduli (GPa) = 135.37273 39.50802 55.56421
#
# Poissons Ratio (x) = 0.16611 0.22159
# Poissons Ratio (y) = 0.56916 0.18437
# Poissons Ratio (z) = 0.53986 0.13109
#
# Static dielectric constant tensor:
#      x y z
#    x 1.742040 0.000000 0.000000 
#    y 0.000000 1.748230 0.000000 
#    z 0.000000 0.000000 1.800000 
# 
# From -- ./inp_files/46980.got.cif
#   From: 2010.05.17/outbox.cif.g08.bks.cpg/sg63_24_cif.got.tgz:46980.got - 2010.06.03 15:47:04.
