data_PCOD9472431
_publ_section_title
;
Structure prediction by ZEFSAII (Michael W. Deem and Ramdas Pophale) SiO2 
 PCOD9472431
Probable space group: C M C M
;
_chemical_formula_sum "Si O2"
_cell_formula_units_Z 64
_cell_length_a 8.051918
_cell_length_b 39.210858
_cell_length_c 10.643106
_cell_angle_alpha 90.000000
_cell_angle_beta 90.000000
_cell_angle_gamma 90.000000
_cell_volume 3360.269240
_symmetry_space_group_name_H-M "C M C M"
_symmetry_group_IT_number 63
_symmetry_cell_setting 'orthorhombic'
loop_
_space_group_symop_operation_xyz
x,y,z
-x,-y,1/2+z
x,-y,-z
-x,y,1/2-z
-x,-y,-z
x,y,1/2-z
-x,y,z
x,-y,1/2+z
1/2+x,1/2+y,z
1/2-x,1/2-y,1/2+z
1/2+x,1/2-y,-z
1/2-x,1/2+y,1/2-z
1/2-x,1/2-y,-z
1/2+x,1/2+y,1/2-z
1/2-x,1/2+y,z
1/2+x,1/2-y,1/2+z
loop_
_atom_site_type_symbol
_atom_site_label
_atom_site_fract_x
_atom_site_fract_y
_atom_site_fract_z
Si Si1 0.200558 0.787887 0.750000
Si Si2 0.801474 0.397580 0.893331
Si Si3 0.199769 0.172578 0.497424
Si Si4 0.798980 0.209067 0.750000
Si Si5 0.699504 0.525719 0.393188
O O1 0.262304 0.807033 0.625071
O O2 0.248903 0.748465 0.750000
O O3 0.000000 0.789966 0.750000
O O4 0.741642 0.390445 0.750000
O O5 0.738854 0.435179 0.927189
O O6 0.000000 0.398301 0.891769
O O7 0.744120 0.366932 0.981197
O O8 0.261530 0.189994 0.624777
O O9 0.000000 0.175175 0.497645
O O10 0.000000 0.207674 0.750000
O O11 0.763408 0.500000 0.500000
O O12 0.762513 0.519722 0.250000
O O13 0.500000 0.522036 0.388506
#
# Coordination Sequence:
#
# PCOD9472431 Si02
#       5
#     8  16  16   8  16
#     4  10  20  34  56  78 101 138 179 216 260 315
#     4  10  20  34  55  81 106 138 179 220 260 305
#     4  10  20  36  55  77 105 139 178 217 260 312
#     4  10  22  36  52  78 109 138 171 218 270 313
#     4   9  18  34  56  80 106 138 175 213 255 307
#
# _framework density 19.046092999999999
#
# number of rings (size 3 to 8) (size 9 to 14) (size 15 to 20)
#    0.000    2.250    1.250    1.500    0.000    3.500 
#    2.250    0.000    0.000    0.000    0.000    0.000 
#    0.000    0.000    0.000    0.000    0.000    0.000 
#
# Total GULP energy -178614.991170 kJ/mol
# GULP energy per Si atom -5581.718474 kJ/mol
# Density = 1.900274 g / cm^3
# Si number density = 19.046093 Si / 1000 Ang^3
#
#
#
# Elastic Constant Matrix: (Units=GPa)
#
#
# Indices 1 2 3 4 5 6 
#
# 1 7.8608 -2.2809 15.8600 0.0000 0.0000 0.0000
# 2 -2.2809 165.8817 111.5959 0.0000 0.0000 0.0000
# 3 15.8600 111.5959 160.5642 0.0000 0.0000 0.0000
# 4 0.0000 0.0000 0.0000 34.6362 0.0000 0.0000
# 5 0.0000 0.0000 0.0000 0.0000 3.6692 0.0000
# 6 0.0000 0.0000 0.0000 0.0000 0.0000 28.5414
#
#
#
# Elastic Compliance Matrix: (Units=1/GPa)
#
#
# Indices 1 2 3 4 5 6 
#
# 1 0.233091 0.035111 -0.047427 0.000000 0.000000 0.000000
# 2 0.035111 0.016611 -0.015013 0.000000 0.000000 0.000000
# 3 -0.047427 -0.015013 0.021347 0.000000 0.000000 0.000000
# 4 0.000000 0.000000 0.000000 0.028871 0.000000 0.000000
# 5 0.000000 0.000000 0.000000 0.000000 0.272541 0.000000
# 6 0.000000 0.000000 0.000000 0.000000 0.000000 0.035037
#
#
# Mechanical properties :
#
#
# Convention : Reuss Voigt Hill
#
# Bulk Modulus (GPa) = 4.62126 64.96185 34.79156
# Shear Modulus (GPa) = 6.80932 27.31147 17.06040
#
# Velocity S-wave (km/s) = 1.89287 3.79088 2.99614
# Velocity P-wave (km/s) = 2.68494 7.30362 5.50235
#
# Compressibility (1/GPa) = 0.21639105
#
# Stress axis : x y z
#
# Youngs Moduli (GPa) = 4.29017 60.19962 46.84403
#
# Poissons Ratio (x) = -2.11368 2.22167
# Poissons Ratio (y) = -0.15063 0.70329
# Poissons Ratio (z) = 0.20347 0.90381
#
# Static dielectric constant tensor:
#      x y z
#    x 1.666970 0.000000 0.000000 
#    y 0.000000 1.619760 0.000000 
#    z 0.000000 0.000000 1.679130 
# 
# From -- ./inp_files/16250.got.cif
#   From: 2010.05.17/outbox.cif.g08.bks.cpg/sg63_9_cif.got.tgz:16250.got - 2010.06.03 15:47:04.
