data_PCOD9472584
_publ_section_title
;
Structure prediction by ZEFSAII (Michael W. Deem and Ramdas Pophale) SiO2 
 PCOD9472584
Probable space group: C M C M
;
_chemical_formula_sum "Si O2"
_cell_formula_units_Z 104
_cell_length_a 22.669085
_cell_length_b 31.002392
_cell_length_c 8.841461
_cell_angle_alpha 90.000000
_cell_angle_beta 90.000000
_cell_angle_gamma 90.000000
_cell_volume 6213.742182
_symmetry_space_group_name_H-M "C M C M"
_symmetry_group_IT_number 63
_symmetry_cell_setting 'orthorhombic'
loop_
_space_group_symop_operation_xyz
x,y,z
-x,-y,1/2+z
x,-y,-z
-x,y,1/2-z
-x,-y,-z
x,y,1/2-z
-x,y,z
x,-y,1/2+z
1/2+x,1/2+y,z
1/2-x,1/2-y,1/2+z
1/2+x,1/2-y,-z
1/2-x,1/2+y,1/2-z
1/2-x,1/2-y,-z
1/2+x,1/2+y,1/2-z
1/2-x,1/2+y,z
1/2+x,1/2-y,1/2+z
loop_
_atom_site_type_symbol
_atom_site_label
_atom_site_fract_x
_atom_site_fract_y
_atom_site_fract_z
Si Si1 0.071494 0.215697 0.574063
Si Si2 0.930935 0.304916 0.068827
Si Si3 0.148678 0.046154 0.068415
Si Si4 0.213411 0.453309 0.568469
Si Si5 0.931464 0.125766 0.432313
Si Si6 0.389776 0.899285 0.067760
Si Si7 0.000000 0.548140 0.067876
O O1 0.086072 0.213842 0.750000
O O2 0.092270 0.260795 0.503642
O O3 0.090750 0.171760 0.493169
O O4 0.000000 0.216419 0.558271
O O5 0.929163 0.300216 0.250000
O O6 0.898126 0.348969 0.027832
O O7 0.000000 0.310426 0.025579
O O8 0.143947 0.043284 0.250000
O O9 0.217587 0.054148 0.032496
O O10 0.107919 0.085556 0.016142
O O11 0.131615 0.000000 0.000000
O O12 0.197366 0.500000 0.500000
O O13 0.206301 0.453900 0.750000
O O14 0.171035 0.418354 0.493820
O O15 0.930109 0.127133 0.250000
O O16 0.000000 0.120143 0.478695
O O17 0.393643 0.903322 0.250000
O O18 0.442742 0.926472 0.992986
O O19 0.000000 0.546582 0.250000
O O20 0.000000 0.500000 0.000000
#
# Coordination Sequence:
#
# PCOD9472584 Si02
#       7
#    16  16  16  16  16  16   8
#     4   9  17  28  45  72 102 130 161 200 242 290
#     4   9  17  31  49  69  96 129 161 198 247 300
#     4   9  19  34  52  74 101 132 168 206 244 293
#     4  10  20  35  52  71  95 129 170 209 249 295
#     4   9  17  31  51  75 103 135 166 197 243 300
#     4  11  21  35  52  73  99 128 167 211 253 301
#     4  12  24  36  50  70 100 134 166 206 259 306
#
# _framework density 16.737096000000001
#
# number of rings (size 3 to 8) (size 9 to 14) (size 15 to 20)
#    0.000    2.308    0.769    2.538    0.000    4.615 
#    0.000    0.000    0.000    0.923    0.000    0.000 
#    0.000    0.000    0.000    0.000    0.000    0.000 
#
# Total GULP energy -290041.384487 kJ/mol
# GULP energy per Si atom -5577.718932 kJ/mol
# Density = 1.669900 g / cm^3
# Si number density = 16.737096 Si / 1000 Ang^3
#
#
#
# Elastic Constant Matrix: (Units=GPa)
#
#
# Indices 1 2 3 4 5 6 
#
# 1 53.3870 76.7609 29.7457 0.0000 0.0000 0.0000
# 2 76.7609 196.4709 59.6629 0.0000 0.0000 0.0000
# 3 29.7457 59.6629 47.9478 0.0000 0.0000 0.0000
# 4 0.0000 0.0000 0.0000 28.6079 0.0000 0.0000
# 5 0.0000 0.0000 0.0000 0.0000 15.0657 0.0000
# 6 0.0000 0.0000 0.0000 0.0000 0.0000 12.6069
#
#
#
# Elastic Compliance Matrix: (Units=1/GPa)
#
#
# Indices 1 2 3 4 5 6 
#
# 1 0.045438 -0.014776 -0.009803 0.000000 0.000000 0.000000
# 2 -0.014776 0.012986 -0.006992 0.000000 0.000000 0.000000
# 3 -0.009803 -0.006992 0.035638 0.000000 0.000000 0.000000
# 4 0.000000 0.000000 0.000000 0.034955 0.000000 0.000000
# 5 0.000000 0.000000 0.000000 0.000000 0.066376 0.000000
# 6 0.000000 0.000000 0.000000 0.000000 0.000000 0.079322
#
#
# Mechanical properties :
#
#
# Convention : Reuss Voigt Hill
#
# Bulk Modulus (GPa) = 32.34112 70.01609 51.17860
# Shear Modulus (GPa) = 14.36106 20.03184 17.19645
#
# Velocity S-wave (km/s) = 2.93241 3.46331 3.20886
# Velocity P-wave (km/s) = 5.55250 7.61028 6.66133
#
# Compressibility (1/GPa) = 0.03092039
#
# Stress axis : x y z
#
# Youngs Moduli (GPa) = 22.00816 77.00572 28.05962
#
# Poissons Ratio (x) = 1.13781 0.27506
# Poissons Ratio (y) = 0.32518 0.19621
# Poissons Ratio (z) = 0.21574 0.53846
#
# Static dielectric constant tensor:
#      x y z
#    x 1.553700 0.000000 0.000000 
#    y 0.000000 1.555800 0.000000 
#    z 0.000000 0.000000 1.559050 
# 
# From -- ./inp_files/9141.got.cif
#   From: 2010.05.17/outbox.cif.g08.bks.cpg/sg63_5_cif.got.tgz:9141.got - 2010.06.03 15:47:04.
