data_PCOD9472640
_publ_section_title
;
Structure prediction by ZEFSAII (Michael W. Deem and Ramdas Pophale) SiO2 
 PCOD9472640
Probable space group: C M C M
;
_chemical_formula_sum "Si O2"
_cell_formula_units_Z 112
_cell_length_a 26.987697
_cell_length_b 14.968371
_cell_length_c 12.497209
_cell_angle_alpha 90.000000
_cell_angle_beta 90.000000
_cell_angle_gamma 90.000000
_cell_volume 5048.395807
_symmetry_space_group_name_H-M "C M C M"
_symmetry_group_IT_number 63
_symmetry_cell_setting 'orthorhombic'
loop_
_space_group_symop_operation_xyz
x,y,z
-x,-y,1/2+z
x,-y,-z
-x,y,1/2-z
-x,-y,-z
x,y,1/2-z
-x,y,z
x,-y,1/2+z
1/2+x,1/2+y,z
1/2-x,1/2-y,1/2+z
1/2+x,1/2-y,-z
1/2-x,1/2+y,1/2-z
1/2-x,1/2-y,-z
1/2+x,1/2+y,1/2-z
1/2-x,1/2+y,z
1/2+x,1/2-y,1/2+z
loop_
_atom_site_type_symbol
_atom_site_label
_atom_site_fract_x
_atom_site_fract_y
_atom_site_fract_z
Si Si1 0.559233 0.867900 0.589841
Si Si2 0.787096 0.448719 0.373709
Si Si3 0.221029 0.648110 0.124120
Si Si4 0.439911 0.066827 0.639717
Si Si5 0.169022 0.032989 0.626493
Si Si6 0.678309 0.747084 0.377458
Si Si7 0.368907 0.719247 0.916978
O O1 0.500000 0.862132 0.602294
O O2 0.573811 0.882429 0.466048
O O3 0.586184 0.779134 0.624625
O O4 0.575735 0.963288 0.636975
O O5 0.804595 0.454926 0.250000
O O6 0.795348 0.550417 0.417727
O O7 0.727325 0.442524 0.374297
O O8 0.807989 0.350525 0.403847
O O9 0.227832 0.634499 0.250000
O O10 0.274660 0.684871 0.089529
O O11 0.179914 0.723534 0.111535
O O12 0.423152 0.109288 0.750000
O O13 0.500000 0.063775 0.637294
O O14 0.162382 0.989421 0.750000
O O15 0.136090 0.121733 0.629315
O O16 0.160883 0.000000 0.500000
O O17 0.671065 0.739652 0.250000
O O18 0.633930 0.715253 0.453355
#
# Coordination Sequence:
#
# PCOD9472640 Si02
#       7
#    16  16  16  16  16  16  16
#     4   9  20  36  54  85 121 155 202 257 308 361
#     4   9  19  34  53  79 118 163 200 247 308 363
#     4  10  20  35  54  79 114 154 197 249 301 360
#     4   8  15  32  56  78 111 159 200 242 303 367
#     4  11  24  42  64  89 120 162 210 258 313 379
#     4  10  21  36  51  79 120 159 204 253 304 366
#     4  12  23  35  59  86 115 156 202 255 308 374
#
# _framework density 22.185265000000001
#
# number of rings (size 3 to 8) (size 9 to 14) (size 15 to 20)
#    0.000    2.143    1.429    2.571    2.000    5.714 
#    0.000    1.429    0.000    0.429    0.000    0.000 
#    0.000    0.000    0.000    0.000    0.000    0.000 
#
# Total GULP energy -312246.840689 kJ/mol
# GULP energy per Si atom -5575.836441 kJ/mol
# Density = 2.213477 g / cm^3
# Si number density = 22.185265 Si / 1000 Ang^3
#
#
#
# Elastic Constant Matrix: (Units=GPa)
#
#
# Indices 1 2 3 4 5 6 
#
# 1 47.7355 12.3274 4.8262 0.0000 0.0000 0.0000
# 2 12.3274 75.9161 38.1794 0.0000 0.0000 0.0000
# 3 4.8262 38.1794 139.8967 0.0000 0.0000 0.0000
# 4 0.0000 0.0000 0.0000 10.1962 0.0000 0.0000
# 5 0.0000 0.0000 0.0000 0.0000 -2.3167 0.0000
# 6 0.0000 0.0000 0.0000 0.0000 0.0000 35.1024
#
#
#
# Elastic Compliance Matrix: (Units=1/GPa)
#
#
# Indices 1 2 3 4 5 6 
#
# 1 0.021873 -0.003677 0.000249 0.000000 0.000000 0.000000
# 2 -0.003677 0.015886 -0.004209 0.000000 0.000000 0.000000
# 3 0.000249 -0.004209 0.008288 0.000000 0.000000 0.000000
# 4 0.000000 0.000000 0.000000 0.098076 0.000000 0.000000
# 5 0.000000 0.000000 0.000000 0.000000 -0.431658 0.000000
# 6 0.000000 0.000000 0.000000 0.000000 0.000000 0.028488
#
#
# Mechanical properties :
#
#
# Convention : Reuss Voigt Hill
#
# Bulk Modulus (GPa) = 32.49502 41.57936 37.03719
# Shear Modulus (GPa) = -21.41188 22.47742 0.53277
#
# Velocity S-wave (km/s) = -3.11004 3.18648 0.49058
# Velocity P-wave (km/s) = 1.33508 5.68514 4.12936
#
# Compressibility (1/GPa) = 0.03077395
#
# Stress axis : x y z
#
# Youngs Moduli (GPa) = 45.71810 62.94813 120.65446
#
# Poissons Ratio (x) = 0.23146 -0.03003
# Poissons Ratio (y) = 0.16810 0.50779
# Poissons Ratio (z) = -0.01138 0.26493
#
# Static dielectric constant tensor:
#      x y z
#    x 1.769270 0.000000 0.000000 
#    y 0.000000 1.837380 0.000000 
#    z 0.000000 0.000000 2.015390 
# 
# From -- ./inp_files/38522.got.cif
#   From: 2010.05.17/outbox.cif.g08.bks.cpg/sg63_20_cif.got.tgz:38522.got - 2010.06.03 15:47:04.
