data_PCOD9472569
_publ_section_title
;
Structure prediction by ZEFSAII (Michael W. Deem and Ramdas Pophale) SiO2 
 PCOD9472569
Probable space group: C M C M
;
_chemical_formula_sum "Si O2"
_cell_formula_units_Z 72
_cell_length_a 20.590450
_cell_length_b 8.595592
_cell_length_c 21.431350
_cell_angle_alpha 90.000000
_cell_angle_beta 90.000000
_cell_angle_gamma 90.000000
_cell_volume 3793.072642
_symmetry_space_group_name_H-M "C M C M"
_symmetry_group_IT_number 63
_symmetry_cell_setting 'orthorhombic'
loop_
_space_group_symop_operation_xyz
x,y,z
-x,-y,1/2+z
x,-y,-z
-x,y,1/2-z
-x,-y,-z
x,y,1/2-z
-x,y,z
x,-y,1/2+z
1/2+x,1/2+y,z
1/2-x,1/2-y,1/2+z
1/2+x,1/2-y,-z
1/2-x,1/2+y,1/2-z
1/2-x,1/2-y,-z
1/2+x,1/2+y,1/2-z
1/2-x,1/2+y,z
1/2+x,1/2-y,1/2+z
loop_
_atom_site_type_symbol
_atom_site_label
_atom_site_fract_x
_atom_site_fract_y
_atom_site_fract_z
Si Si1 0.603144 0.000000 0.000000
Si Si2 0.817453 0.060344 0.119394
Si Si3 0.779052 0.919888 0.750000
Si Si4 0.573995 0.179323 0.874701
Si Si5 0.703242 0.237742 0.058554
Si Si6 0.350514 0.085984 0.750000
O O1 0.646311 0.127574 0.035863
O O2 0.571236 0.915613 0.059911
O O3 0.810714 0.002999 0.189629
O O4 0.878201 0.174920 0.112423
O O5 0.750517 0.156439 0.108632
O O6 0.819032 0.909234 0.076695
O O7 0.805331 0.742180 0.750000
O O8 0.701814 0.947084 0.750000
O O9 0.500000 0.222854 0.858235
O O10 0.606901 0.094425 0.813997
O O11 0.750000 0.250000 0.000000
#
# Coordination Sequence:
#
# PCOD9472569 Si02
#       6
#     8  16   8  16  16   8
#     4  12  23  38  62  90 121 156 214 258 300 354
#     4  11  21  37  60  90 122 151 197 249 314 364
#     4  10  20  34  60  94 114 142 188 256 304 356
#     4  11  24  41  59  85 123 171 208 242 292 368
#     4  12  20  35  61  89 116 150 191 255 318 350
#     4  10  21  40  64  88 123 154 198 250 312 368
#
# _framework density 18.981973
#
# number of rings (size 3 to 8) (size 9 to 14) (size 15 to 20)
#    0.000    0.889    4.444    4.667    0.000    0.000 
#    0.000    3.333    0.000    0.000    0.000    7.778 
#    0.000    0.000    0.000    0.000    0.000    0.000 
#
# Total GULP energy -200742.767027 kJ/mol
# GULP energy per Si atom -5576.187973 kJ/mol
# Density = 1.893877 g / cm^3
# Si number density = 18.981973 Si / 1000 Ang^3
#
#
#
# Elastic Constant Matrix: (Units=GPa)
#
#
# Indices 1 2 3 4 5 6 
#
# 1 123.6574 46.5153 51.3968 0.0000 0.0000 0.0000
# 2 46.5153 69.6934 43.5748 0.0000 0.0000 0.0000
# 3 51.3968 43.5748 131.5554 0.0000 0.0000 0.0000
# 4 0.0000 0.0000 0.0000 30.3250 0.0000 0.0000
# 5 0.0000 0.0000 0.0000 0.0000 15.1581 0.0000
# 6 0.0000 0.0000 0.0000 0.0000 0.0000 -11.4220
#
#
#
# Elastic Compliance Matrix: (Units=1/GPa)
#
#
# Indices 1 2 3 4 5 6 
#
# 1 0.011385 -0.006076 -0.002435 0.000000 0.000000 0.000000
# 2 -0.006076 0.021339 -0.004694 0.000000 0.000000 0.000000
# 3 -0.002435 -0.004694 0.010108 0.000000 0.000000 0.000000
# 4 0.000000 0.000000 0.000000 0.032976 0.000000 0.000000
# 5 0.000000 0.000000 0.000000 0.000000 0.065971 0.000000
# 6 0.000000 0.000000 0.000000 0.000000 0.000000 -0.087551
#
#
# Mechanical properties :
#
#
# Convention : Reuss Voigt Hill
#
# Bulk Modulus (GPa) = 60.90031 67.54225 64.22128
# Shear Modulus (GPa) = 58.06416 19.04018 38.55217
#
# Velocity S-wave (km/s) = 5.53674 3.17056 4.51154
# Velocity P-wave (km/s) = 8.54558 7.00449 7.81312
#
# Compressibility (1/GPa) = 0.01642028
#
# Stress axis : x y z
#
# Youngs Moduli (GPa) = 87.83852 46.86330 98.93466
#
# Poissons Ratio (x) = 0.28473 0.24094
# Poissons Ratio (y) = 0.53368 0.46443
# Poissons Ratio (z) = 0.21392 0.21999
#
# Static dielectric constant tensor:
#      x y z
#    x 1.126050 0.000000 0.000000 
#    y 0.000000 1.422380 0.000000 
#    z 0.000000 0.000000 2.070990 
# 
# From -- ./inp_files/56357.got.cif
#   From: 2010.05.17/outbox.cif.g08.bks.cpg/sg63_29_cif.got.tgz:56357.got - 2010.06.03 15:47:04.
