data_PCOD9472462
_publ_section_title
;
Structure prediction by ZEFSAII (Michael W. Deem and Ramdas Pophale) SiO2 
 PCOD9472462
Probable space group: C M C M
;
_chemical_formula_sum "Si O2"
_cell_formula_units_Z 96
_cell_length_a 21.167473
_cell_length_b 27.446874
_cell_length_c 8.467558
_cell_angle_alpha 90.000000
_cell_angle_beta 90.000000
_cell_angle_gamma 90.000000
_cell_volume 4919.490012
_symmetry_space_group_name_H-M "C M C M"
_symmetry_group_IT_number 63
_symmetry_cell_setting 'orthorhombic'
loop_
_space_group_symop_operation_xyz
x,y,z
-x,-y,1/2+z
x,-y,-z
-x,y,1/2-z
-x,-y,-z
x,y,1/2-z
-x,y,z
x,-y,1/2+z
1/2+x,1/2+y,z
1/2-x,1/2-y,1/2+z
1/2+x,1/2-y,-z
1/2-x,1/2+y,1/2-z
1/2-x,1/2-y,-z
1/2+x,1/2+y,1/2-z
1/2-x,1/2+y,z
1/2+x,1/2-y,1/2+z
loop_
_atom_site_type_symbol
_atom_site_label
_atom_site_fract_x
_atom_site_fract_y
_atom_site_fract_z
Si Si1 0.308279 0.554594 0.940275
Si Si2 0.311534 0.112911 0.568249
Si Si3 0.931311 0.113581 0.057956
Si Si4 0.261481 0.698124 0.072625
Si Si5 0.593249 0.281507 0.571407
Si Si6 0.928021 0.672989 0.438472
O O1 0.306834 0.556744 0.750000
O O2 0.238262 0.572822 0.998180
O O3 0.318193 0.500000 0.000000
O O4 0.368214 0.586844 0.997112
O O5 0.324324 0.101123 0.750000
O O6 0.267203 0.160033 0.547469
O O7 0.377259 0.132474 0.494678
O O8 0.926846 0.115558 0.250000
O O9 0.935781 0.169659 0.998322
O O10 0.000000 0.090115 0.019368
O O11 0.234591 0.691000 0.250000
O O12 0.335901 0.698579 0.084413
O O13 0.250000 0.750000 0.000000
O O14 0.569626 0.273649 0.750000
O O15 0.589374 0.228654 0.490117
O O16 0.928139 0.672264 0.250000
O O17 0.000000 0.663527 0.494973
#
# Coordination Sequence:
#
# PCOD9472462 Si02
#       6
#    16  16  16  16  16  16
#     4  11  25  43  65  89 113 143 189 243 299 354
#     4  11  23  39  60  85 113 151 194 240 293 349
#     4  10  21  38  60  86 119 159 200 240 285 336
#     4  11  20  31  53  83 115 153 195 238 282 335
#     4  10  20  34  55  83 119 162 201 236 278 331
#     4  11  24  38  56  86 122 160 198 238 286 342
#
# _framework density 19.514218
#
# number of rings (size 3 to 8) (size 9 to 14) (size 15 to 20)
#    0.000    1.333    3.333    2.500    0.000    6.000 
#    0.000    0.000    0.000    0.500    0.000    0.000 
#    0.000    0.000    0.000    0.000    0.000    0.000 
#
# Total GULP energy -267236.150659 kJ/mol
# GULP energy per Si atom -5567.419805 kJ/mol
# Density = 1.946980 g / cm^3
# Si number density = 19.514218 Si / 1000 Ang^3
#
#
#
# Elastic Constant Matrix: (Units=GPa)
#
#
# Indices 1 2 3 4 5 6 
#
# 1 154.4320 40.9769 25.3711 0.0000 0.0000 0.0000
# 2 40.9769 83.7122 15.8993 0.0000 0.0000 0.0000
# 3 25.3711 15.8993 37.9808 0.0000 0.0000 0.0000
# 4 0.0000 0.0000 0.0000 9.6525 0.0000 0.0000
# 5 0.0000 0.0000 0.0000 0.0000 7.6706 0.0000
# 6 0.0000 0.0000 0.0000 0.0000 0.0000 10.1317
#
#
#
# Elastic Compliance Matrix: (Units=1/GPa)
#
#
# Indices 1 2 3 4 5 6 
#
# 1 0.007967 -0.003138 -0.004008 0.000000 0.000000 0.000000
# 2 -0.003138 0.014214 -0.003854 0.000000 0.000000 0.000000
# 3 -0.004008 -0.003854 0.030620 0.000000 0.000000 0.000000
# 4 0.000000 0.000000 0.000000 0.103600 0.000000 0.000000
# 5 0.000000 0.000000 0.000000 0.000000 0.130369 0.000000
# 6 0.000000 0.000000 0.000000 0.000000 0.000000 0.098700
#
#
# Mechanical properties :
#
#
# Convention : Reuss Voigt Hill
#
# Bulk Modulus (GPa) = 32.46746 48.95774 40.71260
# Shear Modulus (GPa) = 11.96932 18.41614 15.19273
#
# Velocity S-wave (km/s) = 2.47931 3.07535 2.79327
# Velocity P-wave (km/s) = 4.98697 6.14435 5.59567
#
# Compressibility (1/GPa) = 0.03080007
#
# Stress axis : x y z
#
# Youngs Moduli (GPa) = 125.52542 70.35393 32.65890
#
# Poissons Ratio (x) = 0.22080 0.13089
# Poissons Ratio (y) = 0.39395 0.12586
# Poissons Ratio (z) = 0.50309 0.27112
#
# Static dielectric constant tensor:
#      x y z
#    x 1.769700 0.000000 0.000000 
#    y 0.000000 1.662830 0.000000 
#    z 0.000000 0.000000 1.726180 
# 
# From -- ./inp_files/8661.got.cif
#   From: 2010.05.17/outbox.cif.g08.bks.cpg/sg63_5_cif.got.tgz:8661.got - 2010.06.03 15:47:04.
