data_PCOD9472905
_publ_section_title
;
Structure prediction by ZEFSAII (Michael W. Deem and Ramdas Pophale) SiO2 
 PCOD9472905
Probable space group: C M C M
;
_chemical_formula_sum "Si O2"
_cell_formula_units_Z 96
_cell_length_a 15.067506
_cell_length_b 20.518236
_cell_length_c 15.124846
_cell_angle_alpha 90.000000
_cell_angle_beta 90.000000
_cell_angle_gamma 90.000000
_cell_volume 4675.976881
_symmetry_space_group_name_H-M "C M C M"
_symmetry_group_IT_number 63
_symmetry_cell_setting 'orthorhombic'
loop_
_space_group_symop_operation_xyz
x,y,z
-x,-y,1/2+z
x,-y,-z
-x,y,1/2-z
-x,-y,-z
x,y,1/2-z
-x,y,z
x,-y,1/2+z
1/2+x,1/2+y,z
1/2-x,1/2-y,1/2+z
1/2+x,1/2-y,-z
1/2-x,1/2+y,1/2-z
1/2-x,1/2-y,-z
1/2+x,1/2+y,1/2-z
1/2-x,1/2+y,z
1/2+x,1/2-y,1/2+z
loop_
_atom_site_type_symbol
_atom_site_label
_atom_site_fract_x
_atom_site_fract_y
_atom_site_fract_z
Si Si1 0.256421 0.297405 0.853805
Si Si2 0.288635 0.981080 0.397570
Si Si3 0.099879 0.605620 0.146302
Si Si4 0.901131 0.854996 0.979832
Si Si5 0.404919 0.475634 0.849198
Si Si6 0.782474 0.855754 0.351786
O O1 0.273671 0.314618 0.750000
O O2 0.173434 0.342304 0.886138
O O3 0.337320 0.312288 0.918521
O O4 0.238293 0.220809 0.857161
O O5 0.298772 0.904254 0.378461
O O6 0.283868 0.000000 0.500000
O O7 0.359014 0.032957 0.360903
O O8 0.190693 0.991988 0.357346
O O9 0.092141 0.620596 0.250000
O O10 0.000000 0.609264 0.107683
O O11 0.905143 0.922646 0.926328
O O12 0.000000 0.828086 0.987590
O O13 0.857938 0.866014 0.074901
O O14 0.406239 0.446382 0.750000
O O15 0.500000 0.512561 0.857327
O O16 0.808229 0.868607 0.250000
#
# Coordination Sequence:
#
# PCOD9472905 Si02
#       6
#    16  16  16  16  16  16
#     4  10  21  41  66  92 125 166 213 267 323 382
#     4  12  22  39  62  89 125 166 209 262 317 380
#     4  10  21  39  64  89 116 159 216 268 312 370
#     4  11  22  38  63  93 125 161 208 257 310 378
#     4  10  20  35  59  88 116 152 200 251 302 363
#     4  11  24  40  60  89 131 175 213 259 323 384
#
# _framework density 20.530470000000001
#
# number of rings (size 3 to 8) (size 9 to 14) (size 15 to 20)
#    0.000    1.333    3.333    2.500    0.000    3.333 
#    0.000    2.500    0.000    1.000    0.000    0.000 
#    0.000    0.000    0.000    0.000    0.000    0.000 
#
# Total GULP energy -267711.508203 kJ/mol
# GULP energy per Si atom -5577.323088 kJ/mol
# Density = 2.048374 g / cm^3
# Si number density = 20.530470 Si / 1000 Ang^3
#
#
#
# Elastic Constant Matrix: (Units=GPa)
#
#
# Indices 1 2 3 4 5 6 
#
# 1 75.7469 51.3633 38.7668 0.0000 0.0000 0.0000
# 2 51.3633 99.2721 26.0004 0.0000 0.0000 0.0000
# 3 38.7668 26.0004 119.4947 0.0000 0.0000 0.0000
# 4 0.0000 0.0000 0.0000 31.2478 0.0000 0.0000
# 5 0.0000 0.0000 0.0000 0.0000 18.5372 0.0000
# 6 0.0000 0.0000 0.0000 0.0000 0.0000 7.0193
#
#
#
# Elastic Compliance Matrix: (Units=1/GPa)
#
#
# Indices 1 2 3 4 5 6 
#
# 1 0.022997 -0.010545 -0.005166 0.000000 0.000000 0.000000
# 2 -0.010545 0.015518 0.000045 0.000000 0.000000 0.000000
# 3 -0.005166 0.000045 0.010035 0.000000 0.000000 0.000000
# 4 0.000000 0.000000 0.000000 0.032002 0.000000 0.000000
# 5 0.000000 0.000000 0.000000 0.000000 0.053946 0.000000
# 6 0.000000 0.000000 0.000000 0.000000 0.000000 0.142464
#
#
# Mechanical properties :
#
#
# Convention : Reuss Voigt Hill
#
# Bulk Modulus (GPa) = 58.08652 58.53052 58.30852
# Shear Modulus (GPa) = 15.92187 23.25306 19.58747
#
# Velocity S-wave (km/s) = 2.78784 3.36908 3.09215
# Velocity P-wave (km/s) = 6.22230 6.61100 6.41959
#
# Compressibility (1/GPa) = 0.01721570
#
# Stress axis : x y z
#
# Youngs Moduli (GPa) = 43.48487 64.44225 99.65287
#
# Poissons Ratio (x) = 0.67956 0.51481
# Poissons Ratio (y) = 0.45856 -0.00445
# Poissons Ratio (z) = 0.22465 -0.00288
#
# Static dielectric constant tensor:
#      x y z
#    x 1.770760 0.000000 0.000000 
#    y 0.000000 1.808770 0.000000 
#    z 0.000000 0.000000 1.735760 
# 
# From -- ./inp_files/31909.got.cif
#   From: 2010.05.17/outbox.cif.g08.bks.cpg/sg63_16_cif.got.tgz:31909.got - 2010.06.03 15:47:04.
