data_PCOD9472063
_publ_section_title
;
Structure prediction by ZEFSAII (Michael W. Deem and Ramdas Pophale) SiO2 
 PCOD9472063
Probable space group: C M C M
;
_chemical_formula_sum "Si O2"
_cell_formula_units_Z 96
_cell_length_a 19.533462
_cell_length_b 31.406468
_cell_length_c 7.625096
_cell_angle_alpha 90.000000
_cell_angle_beta 90.000000
_cell_angle_gamma 90.000000
_cell_volume 4677.821394
_symmetry_space_group_name_H-M "C M C M"
_symmetry_group_IT_number 63
_symmetry_cell_setting 'orthorhombic'
loop_
_space_group_symop_operation_xyz
x,y,z
-x,-y,1/2+z
x,-y,-z
-x,y,1/2-z
-x,-y,-z
x,y,1/2-z
-x,y,z
x,-y,1/2+z
1/2+x,1/2+y,z
1/2-x,1/2-y,1/2+z
1/2+x,1/2-y,-z
1/2-x,1/2+y,1/2-z
1/2-x,1/2-y,-z
1/2+x,1/2+y,1/2-z
1/2-x,1/2+y,z
1/2+x,1/2-y,1/2+z
loop_
_atom_site_type_symbol
_atom_site_label
_atom_site_fract_x
_atom_site_fract_y
_atom_site_fract_z
Si Si1 0.182200 0.298530 0.458623
Si Si2 0.921222 0.124115 0.034553
Si Si3 0.323577 0.451670 0.960326
Si Si4 0.167900 0.451708 0.960543
Si Si5 0.422300 0.873280 0.961487
Si Si6 0.834881 0.203351 0.045660
O O1 0.191988 0.295101 0.250000
O O2 0.123646 0.332469 0.495028
O O3 0.164165 0.251261 0.529002
O O4 0.256031 0.311758 0.533672
O O5 0.920010 0.124221 0.250000
O O6 0.875932 0.083976 0.975624
O O7 0.884991 0.167573 0.972484
O O8 0.000000 0.121316 0.980978
O O9 0.320478 0.447543 0.750000
O O10 0.245763 0.445834 0.027798
O O11 0.344937 0.500000 0.000000
O O12 0.170649 0.447645 0.750000
O O13 0.116865 0.415478 0.026708
O O14 0.146327 0.500000 0.000000
O O15 0.425302 0.875993 0.750000
O O16 0.500000 0.870085 0.026925
O O17 0.853297 0.207630 0.250000
#
# Coordination Sequence:
#
# PCOD9472063 Si02
#       6
#    16  16  16  16  16  16
#     4  10  20  33  53  79 103 130 168 215 259 299
#     4   9  17  30  50  74  98 129 168 204 241 291
#     4   9  17  30  49  71  95 125 162 204 245 289
#     4   9  18  33  52  73  97 129 170 212 253 298
#     4  10  21  36  53  74 104 141 173 203 250 312
#     4   9  18  34  55  76 100 132 170 212 255 301
#
# _framework density 20.522373999999999
#
# number of rings (size 3 to 8) (size 9 to 14) (size 15 to 20)
#    0.000    2.667    0.000    1.500    0.000    5.667 
#    0.000    5.833    0.000    1.500    0.000    0.000 
#    0.000    0.000    0.000    0.000    0.000    0.000 
#
# Total GULP energy -267929.902782 kJ/mol
# GULP energy per Si atom -5581.872975 kJ/mol
# Density = 2.047566 g / cm^3
# Si number density = 20.522374 Si / 1000 Ang^3
#
#
#
# Elastic Constant Matrix: (Units=GPa)
#
#
# Indices 1 2 3 4 5 6 
#
# 1 129.1478 108.8705 -8.7846 0.0000 0.0000 0.0000
# 2 108.8705 138.7943 -5.3234 0.0000 0.0000 0.0000
# 3 -8.7846 -5.3234 39.9994 0.0000 0.0000 0.0000
# 4 0.0000 0.0000 0.0000 20.3254 0.0000 0.0000
# 5 0.0000 0.0000 0.0000 0.0000 9.4872 0.0000
# 6 0.0000 0.0000 0.0000 0.0000 0.0000 -21.4622
#
#
#
# Elastic Compliance Matrix: (Units=1/GPa)
#
#
# Indices 1 2 3 4 5 6 
#
# 1 0.023140 -0.018048 0.002680 0.000000 0.000000 0.000000
# 2 -0.018048 0.021319 -0.001126 0.000000 0.000000 0.000000
# 3 0.002680 -0.001126 0.025439 0.000000 0.000000 0.000000
# 4 0.000000 0.000000 0.000000 0.049199 0.000000 0.000000
# 5 0.000000 0.000000 0.000000 0.000000 0.105406 0.000000
# 6 0.000000 0.000000 0.000000 0.000000 0.000000 -0.046594
#
#
# Mechanical properties :
#
#
# Convention : Reuss Voigt Hill
#
# Bulk Modulus (GPa) = 27.09421 55.27407 41.18414
# Shear Modulus (GPa) = 22.40138 15.88201 19.14170
#
# Velocity S-wave (km/s) = 3.30746 2.78490 3.05737
# Velocity P-wave (km/s) = 5.27415 6.11007 5.70743
#
# Compressibility (1/GPa) = 0.03690825
#
# Stress axis : x y z
#
# Youngs Moduli (GPa) = 43.21578 46.90738 39.30967
#
# Poissons Ratio (x) = 0.84659 -0.10535
# Poissons Ratio (y) = 0.77996 0.04428
# Poissons Ratio (z) = -0.11582 0.05284
#
# Static dielectric constant tensor:
#      x y z
#    x 1.700490 0.000000 0.000000 
#    y 0.000000 1.717470 0.000000 
#    z 0.000000 0.000000 1.774960 
# 
# From -- ./inp_files/21333.got.cif
#   From: 2010.05.17/outbox.cif.g08.bks.cpg/sg63_11_cif.got.tgz:21333.got - 2010.06.03 15:47:04.
