data_PCOD9472357
_publ_section_title
;
Structure prediction by ZEFSAII (Michael W. Deem and Ramdas Pophale) SiO2 
 PCOD9472357
Probable space group: C M C M
;
_chemical_formula_sum "Si O2"
_cell_formula_units_Z 80
_cell_length_a 17.665343
_cell_length_b 26.728175
_cell_length_c 8.697880
_cell_angle_alpha 90.000000
_cell_angle_beta 90.000000
_cell_angle_gamma 90.000000
_cell_volume 4106.811714
_symmetry_space_group_name_H-M "C M C M"
_symmetry_group_IT_number 63
_symmetry_cell_setting 'orthorhombic'
loop_
_space_group_symop_operation_xyz
x,y,z
-x,-y,1/2+z
x,-y,-z
-x,y,1/2-z
-x,-y,-z
x,y,1/2-z
-x,y,z
x,-y,1/2+z
1/2+x,1/2+y,z
1/2-x,1/2-y,1/2+z
1/2+x,1/2-y,-z
1/2-x,1/2+y,1/2-z
1/2-x,1/2-y,-z
1/2+x,1/2+y,1/2-z
1/2-x,1/2+y,z
1/2+x,1/2-y,1/2+z
loop_
_atom_site_type_symbol
_atom_site_label
_atom_site_fract_x
_atom_site_fract_y
_atom_site_fract_z
Si Si1 0.707261 0.950554 0.567480
Si Si2 0.622453 0.551282 0.933584
Si Si3 0.625058 0.338311 0.433485
Si Si4 0.206968 0.660271 0.068044
Si Si5 0.415768 0.766232 0.067602
O O1 0.717096 0.956878 0.750000
O O2 0.790034 0.948486 0.488794
O O3 0.673634 0.895537 0.539819
O O4 0.668088 0.000000 0.500000
O O5 0.619026 0.548586 0.750000
O O6 0.594602 0.606601 0.980168
O O7 0.588589 0.500000 0.000000
O O8 0.615898 0.333586 0.250000
O O9 0.714215 0.335898 0.476681
O O10 0.588503 0.291430 0.517107
O O11 0.223746 0.664273 0.250000
O O12 0.148644 0.702433 0.017501
O O13 0.403637 0.769811 0.250000
O O14 0.500000 0.785395 0.030896
#
# Coordination Sequence:
#
# PCOD9472357 Si02
#       5
#    16  16  16  16  16
#     4   9  16  26  44  72 103 133 163 199 245 293
#     4   9  16  26  44  72 103 133 163 199 245 293
#     4  10  20  34  54  79 106 136 170 209 252 300
#     4  10  20  34  54  79 106 136 170 209 252 300
#     4  11  24  39  54  73  99 133 172 215 262 307
#
# _framework density 19.47983
#
# number of rings (size 3 to 8) (size 9 to 14) (size 15 to 20)
#    0.000    2.200    0.000    4.800    0.000    6.400 
#    0.000    0.000    0.000    1.200    0.000    0.000 
#    0.000    0.000    0.000    0.000    0.000    0.000 
#
# Total GULP energy -223128.393560 kJ/mol
# GULP energy per Si atom -5578.209839 kJ/mol
# Density = 1.943549 g / cm^3
# Si number density = 19.479830 Si / 1000 Ang^3
#
#
#
# Elastic Constant Matrix: (Units=GPa)
#
#
# Indices 1 2 3 4 5 6 
#
# 1 36.2958 22.6179 3.0005 0.0000 0.0000 0.0000
# 2 22.6179 119.7042 15.2864 0.0000 0.0000 0.0000
# 3 3.0005 15.2864 34.0712 0.0000 0.0000 0.0000
# 4 0.0000 0.0000 0.0000 34.5029 0.0000 0.0000
# 5 0.0000 0.0000 0.0000 0.0000 6.6726 0.0000
# 6 0.0000 0.0000 0.0000 0.0000 0.0000 -17.2485
#
#
#
# Elastic Compliance Matrix: (Units=1/GPa)
#
#
# Indices 1 2 3 4 5 6 
#
# 1 0.031229 -0.005887 -0.000109 0.000000 0.000000 0.000000
# 2 -0.005887 0.009971 -0.003955 0.000000 0.000000 0.000000
# 3 -0.000109 -0.003955 0.031135 0.000000 0.000000 0.000000
# 4 0.000000 0.000000 0.000000 0.028983 0.000000 0.000000
# 5 0.000000 0.000000 0.000000 0.000000 0.149867 0.000000
# 6 0.000000 0.000000 0.000000 0.000000 0.000000 -0.057976
#
#
# Mechanical properties :
#
#
# Convention : Reuss Voigt Hill
#
# Bulk Modulus (GPa) = 19.07215 30.20896 24.64056
# Shear Modulus (GPa) = 21.68371 14.72983 18.20677
#
# Velocity S-wave (km/s) = 3.33999 2.75282 3.06052
# Velocity P-wave (km/s) = 4.96850 5.06414 5.01655
#
# Compressibility (1/GPa) = 0.05243247
#
# Stress axis : x y z
#
# Youngs Moduli (GPa) = 32.02176 100.28773 32.11870
#
# Poissons Ratio (x) = 0.59036 0.00350
# Poissons Ratio (y) = 0.18850 0.12704
# Poissons Ratio (z) = 0.00349 0.39667
#
# Static dielectric constant tensor:
#      x y z
#    x 1.650160 0.000000 0.000000 
#    y 0.000000 1.760640 0.000000 
#    z 0.000000 0.000000 1.649140 
# 
# From -- ./inp_files/6375.got.cif
#   From: 2010.05.17/outbox.cif.g08.bks.cpg/sg63_4_cif.got.tgz:6375.got - 2010.06.03 15:47:04.
