data_PCOD9472042
_publ_section_title
;
Structure prediction by ZEFSAII (Michael W. Deem and Ramdas Pophale) SiO2 
 PCOD9472042
Probable space group: C M C M
;
_chemical_formula_sum "Si O2"
_cell_formula_units_Z 80
_cell_length_a 9.467668
_cell_length_b 14.784355
_cell_length_c 30.219370
_cell_angle_alpha 90.000000
_cell_angle_beta 90.000000
_cell_angle_gamma 90.000000
_cell_volume 4229.906899
_symmetry_space_group_name_H-M "C M C M"
_symmetry_group_IT_number 63
_symmetry_cell_setting 'orthorhombic'
loop_
_space_group_symop_operation_xyz
x,y,z
-x,-y,1/2+z
x,-y,-z
-x,y,1/2-z
-x,-y,-z
x,y,1/2-z
-x,y,z
x,-y,1/2+z
1/2+x,1/2+y,z
1/2-x,1/2-y,1/2+z
1/2+x,1/2-y,-z
1/2-x,1/2+y,1/2-z
1/2-x,1/2-y,-z
1/2+x,1/2+y,1/2-z
1/2-x,1/2+y,z
1/2+x,1/2-y,1/2+z
loop_
_atom_site_type_symbol
_atom_site_label
_atom_site_fract_x
_atom_site_fract_y
_atom_site_fract_z
Si Si1 0.832374 0.600255 0.698261
Si Si2 0.334652 0.255139 0.871280
Si Si3 0.158778 0.261838 0.543986
Si Si4 0.840082 0.522219 0.450730
Si Si5 0.167019 0.970227 0.635312
O O1 0.800012 0.610294 0.750000
O O2 0.805615 0.692091 0.670753
O O3 0.742435 0.521861 0.675223
O O4 0.000000 0.580156 0.693911
O O5 0.500000 0.245029 0.883326
O O6 0.239626 0.226400 0.912867
O O7 0.311815 0.361562 0.861490
O O8 0.250000 0.250000 0.500000
O O9 0.148861 0.369563 0.550957
O O10 0.000000 0.225079 0.539290
O O11 0.787157 0.500000 0.500000
O O12 0.740339 0.496640 0.410211
O O13 0.000000 0.483918 0.446154
O O14 0.000000 0.987500 0.634516
#
# Coordination Sequence:
#
# PCOD9472042 Si02
#       5
#    16  16  16  16  16
#     4  10  22  40  62  85 110 149 196 235 282 348
#     4   9  20  39  59  80 113 153 191 231 281 342
#     4  10  20  33  52  80 113 148 187 230 280 334
#     4   9  19  35  54  77 108 151 192 225 271 337
#     4  10  21  37  58  86 117 147 184 240 293 334
#
# _framework density 18.912945000000001
#
# number of rings (size 3 to 8) (size 9 to 14) (size 15 to 20)
#    0.000    2.400    0.000    1.200    2.800    4.000 
#    0.000    2.000    0.000    0.000    0.000    0.000 
#    0.000    0.000    0.000    0.000    0.000    0.000 
#
# Total GULP energy -223279.230965 kJ/mol
# GULP energy per Si atom -5581.980774 kJ/mol
# Density = 1.886990 g / cm^3
# Si number density = 18.912945 Si / 1000 Ang^3
#
#
#
# Elastic Constant Matrix: (Units=GPa)
#
#
# Indices 1 2 3 4 5 6 
#
# 1 116.0297 54.1680 115.6167 0.0000 0.0000 0.0000
# 2 54.1680 58.9608 52.0298 0.0000 0.0000 0.0000
# 3 115.6167 52.0298 193.8103 0.0000 0.0000 0.0000
# 4 0.0000 0.0000 0.0000 32.1661 0.0000 0.0000
# 5 0.0000 0.0000 0.0000 0.0000 26.1663 0.0000
# 6 0.0000 0.0000 0.0000 0.0000 0.0000 23.9015
#
#
#
# Elastic Compliance Matrix: (Units=1/GPa)
#
#
# Indices 1 2 3 4 5 6 
#
# 1 0.028434 -0.014617 -0.013038 0.000000 0.000000 0.000000
# 2 -0.014617 0.029740 0.000736 0.000000 0.000000 0.000000
# 3 -0.013038 0.000736 0.012740 0.000000 0.000000 0.000000
# 4 0.000000 0.000000 0.000000 0.031089 0.000000 0.000000
# 5 0.000000 0.000000 0.000000 0.000000 0.038217 0.000000
# 6 0.000000 0.000000 0.000000 0.000000 0.000000 0.041838
#
#
# Mechanical properties :
#
#
# Convention : Reuss Voigt Hill
#
# Bulk Modulus (GPa) = 58.56456 90.26999 74.41728
# Shear Modulus (GPa) = 20.69622 26.24586 23.47104
#
# Velocity S-wave (km/s) = 3.31159 3.72925 3.52661
# Velocity P-wave (km/s) = 6.75683 8.14714 7.48434
#
# Compressibility (1/GPa) = 0.01707517
#
# Stress axis : x y z
#
# Youngs Moduli (GPa) = 35.16856 33.62456 78.49270
#
# Poissons Ratio (x) = 0.49151 1.02341
# Poissons Ratio (y) = 0.51408 -0.05777
# Poissons Ratio (z) = 0.45854 -0.02475
#
# Static dielectric constant tensor:
#      x y z
#    x 1.665660 0.000000 0.000000 
#    y 0.000000 1.669180 0.000000 
#    z 0.000000 0.000000 1.621790 
# 
# From -- ./inp_files/66585.got.cif
#   From: 2010.05.17/outbox.cif.g08.bks.cpg/sg63_34_cif.got.tgz:66585.got - 2010.06.03 15:47:04.
