data_PCOD9472065
_publ_section_title
;
Structure prediction by ZEFSAII (Michael W. Deem and Ramdas Pophale) SiO2 
 PCOD9472065
Probable space group: C M C M
;
_chemical_formula_sum "Si O2"
_cell_formula_units_Z 96
_cell_length_a 22.646308
_cell_length_b 24.454232
_cell_length_c 7.800125
_cell_angle_alpha 90.000000
_cell_angle_beta 90.000000
_cell_angle_gamma 90.000000
_cell_volume 4319.694169
_symmetry_space_group_name_H-M "C M C M"
_symmetry_group_IT_number 63
_symmetry_cell_setting 'orthorhombic'
loop_
_space_group_symop_operation_xyz
x,y,z
-x,-y,1/2+z
x,-y,-z
-x,y,1/2-z
-x,-y,-z
x,y,1/2-z
-x,y,z
x,-y,1/2+z
1/2+x,1/2+y,z
1/2-x,1/2-y,1/2+z
1/2+x,1/2-y,-z
1/2-x,1/2+y,1/2-z
1/2-x,1/2-y,-z
1/2+x,1/2+y,1/2-z
1/2-x,1/2+y,z
1/2+x,1/2-y,1/2+z
loop_
_atom_site_type_symbol
_atom_site_label
_atom_site_fract_x
_atom_site_fract_y
_atom_site_fract_z
Si Si1 0.367873 0.168330 0.544727
Si Si2 0.932268 0.440145 0.043651
Si Si3 0.935028 0.099388 0.542130
Si Si4 0.114114 0.784557 0.456762
Si Si5 0.237659 0.827137 0.053599
Si Si6 0.691129 0.439623 0.553319
O O1 0.362081 0.161873 0.750000
O O2 0.396838 0.112548 0.478787
O O3 0.403643 0.224009 0.511866
O O4 0.301947 0.177606 0.471987
O O5 0.934175 0.436533 0.250000
O O6 0.000000 0.438264 0.979637
O O7 0.907286 0.500000 0.000000
O O8 0.931977 0.096351 0.750000
O O9 0.924867 0.163160 0.492670
O O10 0.879475 0.066618 0.470434
O O11 0.000000 0.081049 0.487255
O O12 0.115807 0.785506 0.250000
O O13 0.180574 0.797412 0.524846
O O14 0.241664 0.807731 0.250000
O O15 0.220504 0.891081 0.053177
O O16 0.709446 0.500000 0.500000
O O17 0.706193 0.429771 0.750000
#
# Coordination Sequence:
#
# PCOD9472065 Si02
#       6
#    16  16  16  16  16  16
#     4  10  20  33  53  79 105 136 173 213 257 308
#     4   9  19  36  54  73 100 132 166 208 257 304
#     4   9  19  37  57  77 106 142 178 219 263 304
#     4   9  18  32  51  76 106 138 171 210 256 305
#     4   9  19  36  53  73 105 140 175 216 260 305
#     4  11  22  36  55  78 105 138 176 218 266 316
#
# _framework density 22.223794999999999
#
# number of rings (size 3 to 8) (size 9 to 14) (size 15 to 20)
#    0.000    2.500    0.000    3.000    0.000    6.000 
#    0.000    1.667    0.000    0.000    0.000    0.000 
#    0.000    0.000    0.000    0.000    0.000    0.000 
#
# Total GULP energy -267965.147716 kJ/mol
# GULP energy per Si atom -5582.607244 kJ/mol
# Density = 2.217321 g / cm^3
# Si number density = 22.223795 Si / 1000 Ang^3
#
#
#
# Elastic Constant Matrix: (Units=GPa)
#
#
# Indices 1 2 3 4 5 6 
#
# 1 15.6414 -10.0084 0.9221 0.0000 0.0000 0.0000
# 2 -10.0084 118.1576 -9.2069 0.0000 0.0000 0.0000
# 3 0.9221 -9.2069 40.8742 0.0000 0.0000 0.0000
# 4 0.0000 0.0000 0.0000 24.9084 0.0000 0.0000
# 5 0.0000 0.0000 0.0000 0.0000 9.0538 0.0000
# 6 0.0000 0.0000 0.0000 0.0000 0.0000 0.3112
#
#
#
# Elastic Compliance Matrix: (Units=1/GPa)
#
#
# Indices 1 2 3 4 5 6 
#
# 1 0.067599 0.005707 -0.000239 0.000000 0.000000 0.000000
# 2 0.005707 0.009096 0.001920 0.000000 0.000000 0.000000
# 3 -0.000239 0.001920 0.024903 0.000000 0.000000 0.000000
# 4 0.000000 0.000000 0.000000 0.040147 0.000000 0.000000
# 5 0.000000 0.000000 0.000000 0.000000 0.110451 0.000000
# 6 0.000000 0.000000 0.000000 0.000000 0.000000 3.213292
#
#
# Mechanical properties :
#
#
# Convention : Reuss Voigt Hill
#
# Bulk Modulus (GPa) = 8.59294 15.34296 11.96795
# Shear Modulus (GPa) = 1.43287 19.71911 10.57599
#
# Velocity S-wave (km/s) = 0.80383 2.98199 2.18385
# Velocity P-wave (km/s) = 2.17634 4.33303 3.42867
#
# Compressibility (1/GPa) = 0.11637466
#
# Stress axis : x y z
#
# Youngs Moduli (GPa) = 14.79311 109.93454 40.15539
#
# Poissons Ratio (x) = -0.62743 0.00961
# Poissons Ratio (y) = -0.08443 -0.07711
# Poissons Ratio (z) = 0.00354 -0.21110
#
# Static dielectric constant tensor:
#      x y z
#    x 1.831660 0.000000 0.000000 
#    y 0.000000 1.810410 0.000000 
#    z 0.000000 0.000000 1.809160 
# 
# From -- ./inp_files/10497.got.cif
#   From: 2010.05.17/outbox.cif.g08.bks.cpg/sg63_6_cif.got.tgz:10497.got - 2010.06.03 15:47:04.
