data_PCOD9472623
_publ_section_title
;
Structure prediction by ZEFSAII (Michael W. Deem and Ramdas Pophale) SiO2 
 PCOD9472623
Probable space group: C M C M
;
_chemical_formula_sum "Si O2"
_cell_formula_units_Z 88
_cell_length_a 20.710669
_cell_length_b 23.566913
_cell_length_c 7.719963
_cell_angle_alpha 90.000000
_cell_angle_beta 90.000000
_cell_angle_gamma 90.000000
_cell_volume 3768.009987
_symmetry_space_group_name_H-M "C M C M"
_symmetry_group_IT_number 63
_symmetry_cell_setting 'orthorhombic'
loop_
_space_group_symop_operation_xyz
x,y,z
-x,-y,1/2+z
x,-y,-z
-x,y,1/2-z
-x,-y,-z
x,y,1/2-z
-x,y,z
x,-y,1/2+z
1/2+x,1/2+y,z
1/2-x,1/2-y,1/2+z
1/2+x,1/2-y,-z
1/2-x,1/2+y,1/2-z
1/2-x,1/2-y,-z
1/2+x,1/2+y,1/2-z
1/2-x,1/2+y,z
1/2+x,1/2-y,1/2+z
loop_
_atom_site_type_symbol
_atom_site_label
_atom_site_fract_x
_atom_site_fract_y
_atom_site_fract_z
Si Si1 0.095221 0.833929 0.949613
Si Si2 0.569038 0.090443 0.044961
Si Si3 0.294770 0.059356 0.042951
Si Si4 0.618302 0.214377 0.539197
Si Si5 0.500000 0.568092 0.041708
Si Si6 0.240488 0.176924 0.552767
O O1 0.074864 0.831956 0.750000
O O2 0.082150 0.771058 0.025381
O O3 0.061025 0.891442 0.017950
O O4 0.173000 0.829863 0.954093
O O5 0.566721 0.079364 0.250000
O O6 0.500000 0.075683 0.967034
O O7 0.631626 0.059081 0.975309
O O8 0.583991 0.157209 0.021062
O O9 0.293713 0.069215 0.250000
O O10 0.264173 0.112249 0.950173
O O11 0.262624 0.000000 0.000000
O O12 0.618583 0.214284 0.750000
O O13 0.695062 0.210374 0.487593
O O14 0.500000 0.566884 0.250000
O O15 0.500000 0.500000 0.000000
O O16 0.227909 0.194121 0.750000
#
# Coordination Sequence:
#
# PCOD9472623 Si02
#       6
#    16  16  16  16   8  16
#     4  10  21  38  60  84 111 147 185 227 283 338
#     4   9  19  34  51  76 112 149 183 225 276 325
#     4  10  20  35  54  76 107 146 188 232 275 324
#     4   9  19  34  56  85 115 145 183 227 277 341
#     4  10  24  44  62  82 112 148 193 240 283 336
#     4  10  20  35  56  86 116 144 182 230 282 339
#
# _framework density 23.354503000000001
#
# number of rings (size 3 to 8) (size 9 to 14) (size 15 to 20)
#    0.000    2.364    0.000    1.636    1.273    4.364 
#    0.000    1.818    0.000    0.000    0.000    0.000 
#    0.000    0.000    0.000    0.000    0.000    0.000 
#
# Total GULP energy -245221.121205 kJ/mol
# GULP energy per Si atom -5573.207300 kJ/mol
# Density = 2.330135 g / cm^3
# Si number density = 23.354503 Si / 1000 Ang^3
#
#
#
# Elastic Constant Matrix: (Units=GPa)
#
#
# Indices 1 2 3 4 5 6 
#
# 1 87.4451 24.1906 4.4684 0.0000 0.0000 0.0000
# 2 24.1906 169.5020 3.4374 0.0000 0.0000 0.0000
# 3 4.4684 3.4374 67.1352 0.0000 0.0000 0.0000
# 4 0.0000 0.0000 0.0000 23.0776 0.0000 0.0000
# 5 0.0000 0.0000 0.0000 0.0000 5.7581 0.0000
# 6 0.0000 0.0000 0.0000 0.0000 0.0000 -1.9836
#
#
#
# Elastic Compliance Matrix: (Units=1/GPa)
#
#
# Indices 1 2 3 4 5 6 
#
# 1 0.011939 -0.001690 -0.000708 0.000000 0.000000 0.000000
# 2 -0.001690 0.006145 -0.000202 0.000000 0.000000 0.000000
# 3 -0.000708 -0.000202 0.014953 0.000000 0.000000 0.000000
# 4 0.000000 0.000000 0.000000 0.043332 0.000000 0.000000
# 5 0.000000 0.000000 0.000000 0.000000 0.173668 0.000000
# 6 0.000000 0.000000 0.000000 0.000000 0.000000 -0.504136
#
#
# Mechanical properties :
#
#
# Convention : Reuss Voigt Hill
#
# Bulk Modulus (GPa) = 35.92314 43.14169 39.53241
# Shear Modulus (GPa) = -20.86637 24.83614 1.98489
#
# Velocity S-wave (km/s) = -2.99233 3.26458 0.92290
# Velocity P-wave (km/s) = 1.86450 5.72037 4.25435
#
# Compressibility (1/GPa) = 0.02783721
#
# Stress axis : x y z
#
# Youngs Moduli (GPa) = 83.75673 162.73754 66.87712
#
# Poissons Ratio (x) = 0.27496 0.04736
# Poissons Ratio (y) = 0.14151 0.01352
# Poissons Ratio (z) = 0.05931 0.03290
#
# Static dielectric constant tensor:
#      x y z
#    x 1.966000 0.000000 0.000000 
#    y 0.000000 1.929650 0.000000 
#    z 0.000000 0.000000 1.829360 
# 
# From -- ./inp_files/8232.got.cif
#   From: 2010.05.17/outbox.cif.g08.bks.cpg/sg63_5_cif.got.tgz:8232.got - 2010.06.03 15:47:04.
