data_PCOD9472299
_publ_section_title
;
Structure prediction by ZEFSAII (Michael W. Deem and Ramdas Pophale) SiO2 
 PCOD9472299
Probable space group: C M C M
;
_chemical_formula_sum "Si O2"
_cell_formula_units_Z 96
_cell_length_a 13.123267
_cell_length_b 17.583210
_cell_length_c 24.170666
_cell_angle_alpha 90.000000
_cell_angle_beta 90.000000
_cell_angle_gamma 90.000000
_cell_volume 5577.360865
_symmetry_space_group_name_H-M "C M C M"
_symmetry_group_IT_number 63
_symmetry_cell_setting 'orthorhombic'
loop_
_space_group_symop_operation_xyz
x,y,z
-x,-y,1/2+z
x,-y,-z
-x,y,1/2-z
-x,-y,-z
x,y,1/2-z
-x,y,z
x,-y,1/2+z
1/2+x,1/2+y,z
1/2-x,1/2-y,1/2+z
1/2+x,1/2-y,-z
1/2-x,1/2+y,1/2-z
1/2-x,1/2-y,-z
1/2+x,1/2+y,1/2-z
1/2-x,1/2+y,z
1/2+x,1/2-y,1/2+z
loop_
_atom_site_type_symbol
_atom_site_label
_atom_site_fract_x
_atom_site_fract_y
_atom_site_fract_z
Si Si1 0.256534 0.882366 0.186548
Si Si2 0.617439 0.412299 0.517987
Si Si3 0.885768 0.232865 0.185552
Si Si4 0.771914 0.347666 0.607544
Si Si5 0.619175 0.036755 0.314130
Si Si6 0.119199 0.811155 0.407821
O O1 0.217441 0.878841 0.250000
O O2 0.344803 0.818850 0.181811
O O3 0.173260 0.857966 0.141606
O O4 0.307768 0.964090 0.177796
O O5 0.627704 0.500000 0.500000
O O6 0.500000 0.402451 0.539116
O O7 0.705581 0.389563 0.560829
O O8 0.628323 0.358968 0.464158
O O9 0.885178 0.211939 0.250000
O O10 0.809745 0.180292 0.152508
O O11 0.000000 0.227642 0.163838
O O12 0.850092 0.401297 0.640398
O O13 0.827582 0.271143 0.586639
O O14 0.633078 0.063392 0.250000
O O15 0.500000 0.015776 0.319615
O O16 0.000000 0.800846 0.395385
#
# Coordination Sequence:
#
# PCOD9472299 Si02
#       6
#    16  16  16  16  16  16
#     4   9  18  33  54  77 102 136 174 209 250 303
#     4  10  21  37  56  75  99 137 180 220 264 312
#     4   9  17  30  49  74 102 131 167 211 253 296
#     4  11  20  33  53  77 105 137 172 213 261 314
#     4  10  20  34  53  78 108 140 172 207 252 307
#     4  10  21  36  54  78 106 135 171 216 266 316
#
# _framework density 17.212440999999998
#
# number of rings (size 3 to 8) (size 9 to 14) (size 15 to 20)
#    0.000    2.167    0.000    3.500    0.000    3.000 
#    0.000    0.833    0.000   14.000    0.000    0.000 
#    0.000    0.000    0.000    0.000    0.000    0.000 
#
# Total GULP energy -267706.596920 kJ/mol
# GULP energy per Si atom -5577.220769 kJ/mol
# Density = 1.717327 g / cm^3
# Si number density = 17.212441 Si / 1000 Ang^3
#
#
#
# Elastic Constant Matrix: (Units=GPa)
#
#
# Indices 1 2 3 4 5 6 
#
# 1 103.8480 37.6030 45.6155 0.0000 0.0000 0.0000
# 2 37.6030 84.8118 47.3778 0.0000 0.0000 0.0000
# 3 45.6155 47.3778 61.5381 0.0000 0.0000 0.0000
# 4 0.0000 0.0000 0.0000 23.3755 0.0000 0.0000
# 5 0.0000 0.0000 0.0000 0.0000 27.6283 0.0000
# 6 0.0000 0.0000 0.0000 0.0000 0.0000 16.4010
#
#
#
# Elastic Compliance Matrix: (Units=1/GPa)
#
#
# Indices 1 2 3 4 5 6 
#
# 1 0.014305 -0.000735 -0.010037 0.000000 0.000000 0.000000
# 2 -0.000735 0.020726 -0.015412 0.000000 0.000000 0.000000
# 3 -0.010037 -0.015412 0.035556 0.000000 0.000000 0.000000
# 4 0.000000 0.000000 0.000000 0.042780 0.000000 0.000000
# 5 0.000000 0.000000 0.000000 0.000000 0.036195 0.000000
# 6 0.000000 0.000000 0.000000 0.000000 0.000000 0.060972
#
#
# Mechanical properties :
#
#
# Convention : Reuss Voigt Hill
#
# Bulk Modulus (GPa) = 54.89180 56.82118 55.85649
# Shear Modulus (GPa) = 18.58904 21.45439 20.02171
#
# Velocity S-wave (km/s) = 3.28987 3.53434 3.41429
# Velocity P-wave (km/s) = 6.81109 7.05257 6.93288
#
# Compressibility (1/GPa) = 0.01821766
#
# Stress axis : x y z
#
# Youngs Moduli (GPa) = 69.90756 48.24780 28.12453
#
# Poissons Ratio (x) = 0.03547 0.28230
# Poissons Ratio (y) = 0.05139 0.43346
# Poissons Ratio (z) = 0.70169 0.74360
#
# Static dielectric constant tensor:
#      x y z
#    x 1.564630 0.000000 0.000000 
#    y 0.000000 1.570480 0.000000 
#    z 0.000000 0.000000 1.572860 
# 
# From -- ./inp_files/61467.got.cif
#   From: 2010.05.17/outbox.cif.g08.bks.cpg/sg63_31_cif.got.tgz:61467.got - 2010.06.03 15:47:04.
