data_PCOD9472002
_publ_section_title
;
Structure prediction by ZEFSAII (Michael W. Deem and Ramdas Pophale) SiO2 
 PCOD9472002
Probable space group: C M C M
;
_chemical_formula_sum "Si O2"
_cell_formula_units_Z 88
_cell_length_a 18.899112
_cell_length_b 30.335352
_cell_length_c 8.656458
_cell_angle_alpha 90.000000
_cell_angle_beta 90.000000
_cell_angle_gamma 90.000000
_cell_volume 4962.844454
_symmetry_space_group_name_H-M "C M C M"
_symmetry_group_IT_number 63
_symmetry_cell_setting 'orthorhombic'
loop_
_space_group_symop_operation_xyz
x,y,z
-x,-y,1/2+z
x,-y,-z
-x,y,1/2-z
-x,-y,-z
x,y,1/2-z
-x,y,z
x,-y,1/2+z
1/2+x,1/2+y,z
1/2-x,1/2-y,1/2+z
1/2+x,1/2-y,-z
1/2-x,1/2+y,1/2-z
1/2-x,1/2-y,-z
1/2+x,1/2+y,1/2-z
1/2-x,1/2+y,z
1/2+x,1/2-y,1/2+z
loop_
_atom_site_type_symbol
_atom_site_label
_atom_site_fract_x
_atom_site_fract_y
_atom_site_fract_z
Si Si1 0.500000 0.549882 0.063662
Si Si2 0.580991 0.853623 0.065898
Si Si3 0.580772 0.242702 0.433386
Si Si4 0.155642 0.049625 0.437046
Si Si5 0.713588 0.706186 0.565689
Si Si6 0.223189 0.616611 0.065554
O O1 0.500000 0.549013 0.250000
O O2 0.422595 0.568177 0.016314
O O3 0.500000 0.500000 0.000000
O O4 0.581653 0.856945 0.250000
O O5 0.500000 0.862410 0.011309
O O6 0.598041 0.802952 0.019343
O O7 0.643315 0.883803 0.998944
O O8 0.587879 0.233278 0.250000
O O9 0.500000 0.253464 0.468336
O O10 0.631618 0.283339 0.467895
O O11 0.157015 0.048303 0.250000
O O12 0.221962 0.079094 0.489118
O O13 0.161330 0.000000 0.500000
O O14 0.724529 0.703010 0.750000
O O15 0.750000 0.750000 0.500000
O O16 0.743084 0.662978 0.485860
O O17 0.219327 0.614852 0.250000
#
# Coordination Sequence:
#
# PCOD9472002 Si02
#       6
#     8  16  16  16  16  16
#     4   8  14  30  54  78 104 134 170 210 252 300
#     4  10  20  33  52  77 101 131 176 221 261 309
#     4   9  18  33  51  69  95 134 176 217 261 305
#     4   9  19  35  57  81 106 136 173 214 259 308
#     4  11  21  33  51  74 104 140 176 218 261 307
#     4  11  22  35  52  78 108 140 175 212 262 319
#
# _framework density 17.731767000000001
#
# number of rings (size 3 to 8) (size 9 to 14) (size 15 to 20)
#    0.000    2.182    1.818    1.636    0.000    3.273 
#    1.636    0.000    0.000    0.545    0.000    0.000 
#    0.000    0.000    0.000    0.000    0.000    0.000 
#
# Total GULP energy -245224.277662 kJ/mol
# GULP energy per Si atom -5573.279038 kJ/mol
# Density = 1.769141 g / cm^3
# Si number density = 17.731767 Si / 1000 Ang^3
#
#
#
# Elastic Constant Matrix: (Units=GPa)
#
#
# Indices 1 2 3 4 5 6 
#
# 1 159.3457 56.6913 34.6658 0.0000 0.0000 0.0000
# 2 56.6913 58.8822 8.0458 0.0000 0.0000 0.0000
# 3 34.6658 8.0458 19.4672 0.0000 0.0000 0.0000
# 4 0.0000 0.0000 0.0000 20.9778 0.0000 0.0000
# 5 0.0000 0.0000 0.0000 0.0000 26.3912 0.0000
# 6 0.0000 0.0000 0.0000 0.0000 0.0000 31.8359
#
#
#
# Elastic Compliance Matrix: (Units=1/GPa)
#
#
# Indices 1 2 3 4 5 6 
#
# 1 0.015311 -0.011675 -0.022440 0.000000 0.000000 0.000000
# 2 -0.011675 0.026902 0.009672 0.000000 0.000000 0.000000
# 3 -0.022440 0.009672 0.087331 0.000000 0.000000 0.000000
# 4 0.000000 0.000000 0.000000 0.047670 0.000000 0.000000
# 5 0.000000 0.000000 0.000000 0.000000 0.037891 0.000000
# 6 0.000000 0.000000 0.000000 0.000000 0.000000 0.031411
#
#
# Mechanical properties :
#
#
# Convention : Reuss Voigt Hill
#
# Bulk Modulus (GPa) = 12.39807 48.50009 30.44908
# Shear Modulus (GPa) = 15.51403 25.06047 20.28725
#
# Velocity S-wave (km/s) = 2.96113 3.76348 3.38615
# Velocity P-wave (km/s) = 4.32415 6.80415 5.70065
#
# Compressibility (1/GPa) = 0.08065770
#
# Stress axis : x y z
#
# Youngs Moduli (GPa) = 65.31130 37.17138 11.45073
#
# Poissons Ratio (x) = 0.43399 0.25695
# Poissons Ratio (y) = 0.76253 -0.11075
# Poissons Ratio (z) = 1.46558 -0.35952
#
# Static dielectric constant tensor:
#      x y z
#    x 1.690110 0.000000 0.000000 
#    y 0.000000 1.575490 0.000000 
#    z 0.000000 0.000000 1.602520 
# 
# From -- ./inp_files/6870.got.cif
#   From: 2010.05.17/outbox.cif.g08.bks.cpg/sg63_4_cif.got.tgz:6870.got - 2010.06.03 15:47:04.
