data_PCOD9472858
_publ_section_title
;
Structure prediction by ZEFSAII (Michael W. Deem and Ramdas Pophale) SiO2 
 PCOD9472858
Probable space group: C M C M
;
_chemical_formula_sum "Si O2"
_cell_formula_units_Z 96
_cell_length_a 15.270385
_cell_length_b 17.162445
_cell_length_c 19.968648
_cell_angle_alpha 90.000000
_cell_angle_beta 90.000000
_cell_angle_gamma 90.000000
_cell_volume 5233.326211
_symmetry_space_group_name_H-M "C M C M"
_symmetry_group_IT_number 63
_symmetry_cell_setting 'orthorhombic'
loop_
_space_group_symop_operation_xyz
x,y,z
-x,-y,1/2+z
x,-y,-z
-x,y,1/2-z
-x,-y,-z
x,y,1/2-z
-x,y,z
x,-y,1/2+z
1/2+x,1/2+y,z
1/2-x,1/2-y,1/2+z
1/2+x,1/2-y,-z
1/2-x,1/2+y,1/2-z
1/2-x,1/2-y,-z
1/2+x,1/2+y,1/2-z
1/2-x,1/2+y,z
1/2+x,1/2-y,1/2+z
loop_
_atom_site_type_symbol
_atom_site_label
_atom_site_fract_x
_atom_site_fract_y
_atom_site_fract_z
Si Si1 0.106164 0.950197 0.897094
Si Si2 0.322495 0.777327 0.947950
Si Si3 0.764157 0.621355 0.174231
Si Si4 0.896468 0.111144 0.543870
Si Si5 0.395158 0.025134 0.674178
Si Si6 0.395452 0.080044 0.532539
O O1 0.168007 0.913215 0.841401
O O2 0.000000 0.944064 0.886747
O O3 0.133432 0.040330 0.908975
O O4 0.130787 0.907309 0.967298
O O5 0.285903 0.813333 0.880007
O O6 0.375168 0.698097 0.934529
O O7 0.250000 0.750000 0.000000
O O8 0.370452 0.846356 0.988136
O O9 0.768740 0.650216 0.250000
O O10 0.836434 0.552360 0.167054
O O11 0.000000 0.101516 0.541903
O O12 0.381023 0.055799 0.750000
O O13 0.500000 0.007268 0.668616
O O14 0.371309 0.080364 0.611349
O O15 0.500000 0.075322 0.530586
O O16 0.359349 0.000000 0.500000
#
# Coordination Sequence:
#
# PCOD9472858 Si02
#       6
#    16  16  16  16  16  16
#     4   9  19  38  62  86 113 150 201 249 293 345
#     4  12  23  34  56  88 121 154 191 244 293 349
#     4  11  23  38  58  85 120 159 195 237 300 360
#     4   9  19  36  61  88 113 147 196 255 301 339
#     4   9  19  36  58  86 118 152 193 243 295 347
#     4  10  20  35  58  85 113 151 196 238 285 352
#
# _framework density 18.343973999999999
#
# number of rings (size 3 to 8) (size 9 to 14) (size 15 to 20)
#    0.000    2.000    3.333    1.500    2.333    1.000 
#    0.000    1.667    0.000    1.000    0.000    0.000 
#    0.000    0.000    0.000    0.000    0.000    0.000 
#
# Total GULP energy -267532.335089 kJ/mol
# GULP energy per Si atom -5573.590314 kJ/mol
# Density = 1.830222 g / cm^3
# Si number density = 18.343974 Si / 1000 Ang^3
#
#
#
# Elastic Constant Matrix: (Units=GPa)
#
#
# Indices 1 2 3 4 5 6 
#
# 1 33.6365 14.2645 29.4122 0.0000 0.0000 0.0000
# 2 14.2645 109.2320 57.2507 0.0000 0.0000 0.0000
# 3 29.4122 57.2507 143.6939 0.0000 0.0000 0.0000
# 4 0.0000 0.0000 0.0000 22.3947 0.0000 0.0000
# 5 0.0000 0.0000 0.0000 0.0000 23.1926 0.0000
# 6 0.0000 0.0000 0.0000 0.0000 0.0000 21.4243
#
#
#
# Elastic Compliance Matrix: (Units=1/GPa)
#
#
# Indices 1 2 3 4 5 6 
#
# 1 0.036309 -0.001070 -0.007006 0.000000 0.000000 0.000000
# 2 -0.001070 0.011603 -0.004404 0.000000 0.000000 0.000000
# 3 -0.007006 -0.004404 0.010148 0.000000 0.000000 0.000000
# 4 0.000000 0.000000 0.000000 0.044653 0.000000 0.000000
# 5 0.000000 0.000000 0.000000 0.000000 0.043117 0.000000
# 6 0.000000 0.000000 0.000000 0.000000 0.000000 0.046676
#
#
# Mechanical properties :
#
#
# Convention : Reuss Voigt Hill
#
# Bulk Modulus (GPa) = 30.21055 54.26858 42.23956
# Shear Modulus (GPa) = 21.88199 25.77799 23.82999
#
# Velocity S-wave (km/s) = 3.45754 3.75274 3.60816
# Velocity P-wave (km/s) = 5.69598 6.95885 6.35884
#
# Compressibility (1/GPa) = 0.03310102
#
# Stress axis : x y z
#
# Youngs Moduli (GPa) = 27.54126 86.18741 98.54363
#
# Poissons Ratio (x) = 0.09219 0.69038
# Poissons Ratio (y) = 0.02946 0.43396
# Poissons Ratio (z) = 0.19295 0.37955
#
# Static dielectric constant tensor:
#      x y z
#    x 1.661210 0.000000 0.000000 
#    y 0.000000 0.382150 0.000000 
#    z 0.000000 0.000000 1.644340 
# 
# From -- ./inp_files/54194.got.cif
#   From: 2010.05.17/outbox.cif.g08.bks.cpg/sg63_28_cif.got.tgz:54194.got - 2010.06.03 15:47:04.
