data_PCOD9472440
_publ_section_title
;
Structure prediction by ZEFSAII (Michael W. Deem and Ramdas Pophale) SiO2 
 PCOD9472440
Probable space group: C M C M
;
_chemical_formula_sum "Si O2"
_cell_formula_units_Z 96
_cell_length_a 23.554635
_cell_length_b 13.117672
_cell_length_c 18.414553
_cell_angle_alpha 90.000000
_cell_angle_beta 90.000000
_cell_angle_gamma 90.000000
_cell_volume 5689.764973
_symmetry_space_group_name_H-M "C M C M"
_symmetry_group_IT_number 63
_symmetry_cell_setting 'orthorhombic'
loop_
_space_group_symop_operation_xyz
x,y,z
-x,-y,1/2+z
x,-y,-z
-x,y,1/2-z
-x,-y,-z
x,y,1/2-z
-x,y,z
x,-y,1/2+z
1/2+x,1/2+y,z
1/2-x,1/2-y,1/2+z
1/2+x,1/2-y,-z
1/2-x,1/2+y,1/2-z
1/2-x,1/2-y,-z
1/2+x,1/2+y,1/2-z
1/2-x,1/2+y,z
1/2+x,1/2-y,1/2+z
loop_
_atom_site_type_symbol
_atom_site_label
_atom_site_fract_x
_atom_site_fract_y
_atom_site_fract_z
Si Si1 0.435280 0.406146 0.164100
Si Si2 0.676646 0.684464 0.898598
Si Si3 0.742789 0.858687 0.667564
Si Si4 0.065814 0.915492 0.560681
Si Si5 0.717523 0.046869 0.919347
Si Si6 0.665345 0.738727 0.437387
O O1 0.426477 0.399535 0.250000
O O2 0.500000 0.372805 0.147192
O O3 0.386946 0.344555 0.122100
O O4 0.430822 0.521946 0.135602
O O5 0.701847 0.761519 0.839848
O O6 0.718723 0.588406 0.904644
O O7 0.681899 0.735533 0.977756
O O8 0.762441 0.872409 0.750000
O O9 0.793587 0.831748 0.611740
O O10 0.709632 0.957182 0.638287
O O11 0.104410 0.815886 0.564029
O O12 0.000000 0.891894 0.544842
O O13 0.084600 0.000000 0.500000
O O14 0.676335 0.145023 0.912632
O O15 0.713624 0.000000 0.000000
#
# Coordination Sequence:
#
# PCOD9472440 Si02
#       6
#    16  16  16  16  16  16
#     4  10  21  35  54  82 112 141 175 221 276 324
#     4  11  20  34  57  79 108 145 179 222 266 327
#     4  11  23  36  53  81 111 143 185 227 270 322
#     4  10  20  34  55  82 110 141 176 216 267 327
#     4  11  20  35  53  77 107 149 179 214 271 325
#     4  11  21  34  58  80 108 143 180 221 270 324
#
# _framework density 16.872402000000001
#
# number of rings (size 3 to 8) (size 9 to 14) (size 15 to 20)
#    0.000    1.333    5.000    2.500    0.000    5.333 
#    0.000    0.000    0.000    1.500    0.000    0.000 
#    0.000    0.000    0.000    0.000    0.000    0.000 
#
# Total GULP energy -267688.261244 kJ/mol
# GULP energy per Si atom -5576.838776 kJ/mol
# Density = 1.683400 g / cm^3
# Si number density = 16.872402 Si / 1000 Ang^3
#
#
#
# Elastic Constant Matrix: (Units=GPa)
#
#
# Indices 1 2 3 4 5 6 
#
# 1 90.0245 39.9387 24.4742 0.0000 0.0000 0.0000
# 2 39.9387 90.2718 23.9444 0.0000 0.0000 0.0000
# 3 24.4742 23.9444 90.4088 0.0000 0.0000 0.0000
# 4 0.0000 0.0000 0.0000 17.6406 0.0000 0.0000
# 5 0.0000 0.0000 0.0000 0.0000 20.1147 0.0000
# 6 0.0000 0.0000 0.0000 0.0000 0.0000 22.8775
#
#
#
# Elastic Compliance Matrix: (Units=1/GPa)
#
#
# Indices 1 2 3 4 5 6 
#
# 1 0.014273 -0.005690 -0.002357 0.000000 0.000000 0.000000
# 2 -0.005690 0.014183 -0.002216 0.000000 0.000000 0.000000
# 3 -0.002357 -0.002216 0.012286 0.000000 0.000000 0.000000
# 4 0.000000 0.000000 0.000000 0.056687 0.000000 0.000000
# 5 0.000000 0.000000 0.000000 0.000000 0.049715 0.000000
# 6 0.000000 0.000000 0.000000 0.000000 0.000000 0.043711
#
#
# Mechanical properties :
#
#
# Convention : Reuss Voigt Hill
#
# Bulk Modulus (GPa) = 49.46476 49.71331 49.58903
# Shear Modulus (GPa) = 22.92331 24.28309 23.60320
#
# Velocity S-wave (km/s) = 3.68996 3.79782 3.74428
# Velocity P-wave (km/s) = 6.89456 6.98280 6.93882
#
# Compressibility (1/GPa) = 0.02021641
#
# Stress axis : x y z
#
# Youngs Moduli (GPa) = 70.06248 70.50860 81.39478
#
# Poissons Ratio (x) = 0.40116 0.19184
# Poissons Ratio (y) = 0.39863 0.18037
# Poissons Ratio (z) = 0.16513 0.15625
#
# Static dielectric constant tensor:
#      x y z
#    x 1.582810 0.000000 0.000000 
#    y 0.000000 1.579090 0.000000 
#    z 0.000000 0.000000 1.593290 
# 
# From -- ./inp_files/47988.got.cif
#   From: 2010.05.17/outbox.cif.g08.bks.cpg/sg63_24_cif.got.tgz:47988.got - 2010.06.03 15:47:04.
