data_PCOD9472391
_publ_section_title
;
Structure prediction by ZEFSAII (Michael W. Deem and Ramdas Pophale) SiO2 
 PCOD9472391
Probable space group: C M C M
;
_chemical_formula_sum "Si O2"
_cell_formula_units_Z 96
_cell_length_a 7.677855
_cell_length_b 30.803638
_cell_length_c 19.933090
_cell_angle_alpha 90.000000
_cell_angle_beta 90.000000
_cell_angle_gamma 90.000000
_cell_volume 4714.292713
_symmetry_space_group_name_H-M "C M C M"
_symmetry_group_IT_number 63
_symmetry_cell_setting 'orthorhombic'
loop_
_space_group_symop_operation_xyz
x,y,z
-x,-y,1/2+z
x,-y,-z
-x,y,1/2-z
-x,-y,-z
x,y,1/2-z
-x,y,z
x,-y,1/2+z
1/2+x,1/2+y,z
1/2-x,1/2-y,1/2+z
1/2+x,1/2-y,-z
1/2-x,1/2+y,1/2-z
1/2-x,1/2-y,-z
1/2+x,1/2+y,1/2-z
1/2-x,1/2+y,z
1/2+x,1/2-y,1/2+z
loop_
_atom_site_type_symbol
_atom_site_label
_atom_site_fract_x
_atom_site_fract_y
_atom_site_fract_z
Si Si1 0.792287 0.859242 0.583300
Si Si2 0.295533 0.387932 0.061574
Si Si3 0.712781 0.719179 0.173316
Si Si4 0.210484 0.318186 0.173796
Si Si5 0.210940 0.557674 0.326183
Si Si6 0.295001 0.986094 0.427723
O O1 0.721816 0.870691 0.509478
O O2 0.723799 0.816091 0.619997
O O3 0.761614 0.899901 0.631938
O O4 0.000000 0.852917 0.576047
O O5 0.500000 0.395354 0.051636
O O6 0.270451 0.352536 0.119238
O O7 0.221303 0.434760 0.080962
O O8 0.765183 0.708399 0.250000
O O9 0.500000 0.718583 0.172936
O O10 0.766374 0.768685 0.158691
O O11 0.267011 0.328614 0.250000
O O12 0.000000 0.318413 0.173615
O O13 0.275934 0.559075 0.250000
O O14 0.274898 0.515660 0.367539
O O15 0.000000 0.556570 0.323095
O O16 0.500000 0.996561 0.430469
O O17 0.219235 0.000000 0.500000
#
# Coordination Sequence:
#
# PCOD9472391 Si02
#       6
#    16  16  16  16  16  16
#     4  10  20  34  54  81 113 146 178 214 265 330
#     4  11  23  35  53  83 115 143 176 223 277 328
#     4   8  15  31  55  79 104 140 185 225 261 312
#     4   9  19  37  59  79 102 140 189 231 266 316
#     4  10  21  36  55  81 108 135 178 232 274 315
#     4  10  20  37  58  76 102 145 188 221 265 322
#
# _framework density 20.363605
#
# number of rings (size 3 to 8) (size 9 to 14) (size 15 to 20)
#    0.000    2.333    1.667    2.000    0.000    4.333 
#    0.000    2.500    0.000    1.000    0.000    0.000 
#    0.000    0.000    0.000    0.000    0.000    0.000 
#
# Total GULP energy -267963.866566 kJ/mol
# GULP energy per Si atom -5582.580553 kJ/mol
# Density = 2.031726 g / cm^3
# Si number density = 20.363605 Si / 1000 Ang^3
#
#
#
# Elastic Constant Matrix: (Units=GPa)
#
#
# Indices 1 2 3 4 5 6 
#
# 1 27.3042 -22.6359 -11.5270 0.0000 0.0000 0.0000
# 2 -22.6359 126.3198 88.1009 0.0000 0.0000 0.0000
# 3 -11.5270 88.1009 150.6886 0.0000 0.0000 0.0000
# 4 0.0000 0.0000 0.0000 43.1963 0.0000 0.0000
# 5 0.0000 0.0000 0.0000 0.0000 9.5022 0.0000
# 6 0.0000 0.0000 0.0000 0.0000 0.0000 -4.5860
#
#
#
# Elastic Compliance Matrix: (Units=1/GPa)
#
#
# Indices 1 2 3 4 5 6 
#
# 1 0.043394 0.009221 -0.002072 0.000000 0.000000 0.000000
# 2 0.009221 0.015326 -0.008255 0.000000 0.000000 0.000000
# 3 -0.002072 -0.008255 0.011304 0.000000 0.000000 0.000000
# 4 0.000000 0.000000 0.000000 0.023150 0.000000 0.000000
# 5 0.000000 0.000000 0.000000 0.000000 0.105239 0.000000
# 6 0.000000 0.000000 0.000000 0.000000 0.000000 -0.218056
#
#
# Mechanical properties :
#
#
# Convention : Reuss Voigt Hill
#
# Bulk Modulus (GPa) = 14.74648 45.79872 30.27260
# Shear Modulus (GPa) = 966.45488 26.31416 496.38452
#
# Velocity S-wave (km/s) = 21.80893 3.59864 15.62977
# Velocity P-wave (km/s) = 25.32647 6.30922 18.45584
#
# Compressibility (1/GPa) = 0.06781278
#
# Stress axis : x y z
#
# Youngs Moduli (GPa) = 23.04456 65.24719 88.46245
#
# Poissons Ratio (x) = -0.60163 0.18325
# Poissons Ratio (y) = -0.21249 0.73028
# Poissons Ratio (z) = 0.04774 0.53863
#
# Static dielectric constant tensor:
#      x y z
#    x 1.757900 0.000000 0.000000 
#    y 0.000000 1.683510 0.000000 
#    z 0.000000 0.000000 1.722930 
# 
# From -- ./inp_files/51320.got.cif
#   From: 2010.05.17/outbox.cif.g08.bks.cpg/sg63_26_cif.got.tgz:51320.got - 2010.06.03 15:47:04.
