data_PCOD9472659
_publ_section_title
;
Structure prediction by ZEFSAII (Michael W. Deem and Ramdas Pophale) SiO2 
 PCOD9472659
Probable space group: C M C M
;
_chemical_formula_sum "Si O2"
_cell_formula_units_Z 96
_cell_length_a 22.090542
_cell_length_b 8.824076
_cell_length_c 23.290035
_cell_angle_alpha 90.000000
_cell_angle_beta 90.000000
_cell_angle_gamma 90.000000
_cell_volume 4539.894417
_symmetry_space_group_name_H-M "C M C M"
_symmetry_group_IT_number 63
_symmetry_cell_setting 'orthorhombic'
loop_
_space_group_symop_operation_xyz
x,y,z
-x,-y,1/2+z
x,-y,-z
-x,y,1/2-z
-x,-y,-z
x,y,1/2-z
-x,y,z
x,-y,1/2+z
1/2+x,1/2+y,z
1/2-x,1/2-y,1/2+z
1/2+x,1/2-y,-z
1/2-x,1/2+y,1/2-z
1/2-x,1/2-y,-z
1/2+x,1/2+y,1/2-z
1/2-x,1/2+y,z
1/2+x,1/2-y,1/2+z
loop_
_atom_site_type_symbol
_atom_site_label
_atom_site_fract_x
_atom_site_fract_y
_atom_site_fract_z
Si Si1 0.185241 0.093578 0.183186
Si Si2 0.067935 0.283952 0.319508
Si Si3 0.936556 0.678130 0.016931
Si Si4 0.066800 0.635698 0.153129
Si Si5 0.190532 0.328726 0.520941
Si Si6 0.692463 0.256300 0.347798
O O1 0.175662 0.052177 0.250000
O O2 0.125351 0.183145 0.162886
O O3 0.245988 0.194467 0.180175
O O4 0.194706 0.937547 0.149510
O O5 0.070416 0.295953 0.250000
O O6 0.073613 0.453956 0.343625
O O7 0.000000 0.227119 0.334522
O O8 0.936263 0.682966 0.086179
O O9 0.872306 0.742917 0.997807
O O10 0.000000 0.744303 0.995208
O O11 0.936647 0.500000 0.000000
O O12 0.127526 0.708684 0.179123
O O13 0.000000 0.672424 0.178293
O O14 0.191578 0.500000 0.500000
O O15 0.250000 0.250000 0.500000
O O16 0.190994 0.317629 0.589367
#
# Coordination Sequence:
#
# PCOD9472659 Si02
#       6
#    16  16  16  16  16  16
#     4  11  23  37  54  76 107 143 179 222 266 313
#     4   9  19  36  56  78 106 141 178 218 267 319
#     4   8  15  29  50  75 100 129 166 206 250 302
#     4   9  18  33  54  79 105 135 174 217 261 315
#     4  10  20  35  55  78 105 137 172 217 268 319
#     4  11  22  36  55  80 108 142 183 223 267 320
#
# _framework density 21.145866000000002
#
# number of rings (size 3 to 8) (size 9 to 14) (size 15 to 20)
#    0.000    2.333    0.000    2.500    0.000    6.000 
#    0.000    0.000    0.000    0.500    0.000    0.000 
#    0.000    0.000    0.000    0.000    0.000    0.000 
#
# Total GULP energy -267647.463759 kJ/mol
# GULP energy per Si atom -5575.988828 kJ/mol
# Density = 2.109774 g / cm^3
# Si number density = 21.145866 Si / 1000 Ang^3
#
#
#
# Elastic Constant Matrix: (Units=GPa)
#
#
# Indices 1 2 3 4 5 6 
#
# 1 248.7521 70.3406 15.1159 0.0000 0.0000 0.0000
# 2 70.3406 69.1661 -6.9619 0.0000 0.0000 0.0000
# 3 15.1159 -6.9619 26.8086 0.0000 0.0000 0.0000
# 4 0.0000 0.0000 0.0000 18.5680 0.0000 0.0000
# 5 0.0000 0.0000 0.0000 0.0000 18.4906 0.0000
# 6 0.0000 0.0000 0.0000 0.0000 0.0000 48.8303
#
#
#
# Elastic Compliance Matrix: (Units=1/GPa)
#
#
# Indices 1 2 3 4 5 6 
#
# 1 0.006315 -0.006963 -0.005369 0.000000 0.000000 0.000000
# 2 -0.006963 0.022523 0.009775 0.000000 0.000000 0.000000
# 3 -0.005369 0.009775 0.042867 0.000000 0.000000 0.000000
# 4 0.000000 0.000000 0.000000 0.053856 0.000000 0.000000
# 5 0.000000 0.000000 0.000000 0.000000 0.054082 0.000000
# 6 0.000000 0.000000 0.000000 0.000000 0.000000 0.020479
#
#
# Mechanical properties :
#
#
# Convention : Reuss Voigt Hill
#
# Bulk Modulus (GPa) = 15.01695 55.74623 35.38159
# Shear Modulus (GPa) = 21.98448 34.92659 28.45553
#
# Velocity S-wave (km/s) = 3.22787 4.06852 3.67233
# Velocity P-wave (km/s) = 4.58358 6.96350 5.89490
#
# Compressibility (1/GPa) = 0.06659144
#
# Stress axis : x y z
#
# Youngs Moduli (GPa) = 158.34689 44.39912 23.32788
#
# Poissons Ratio (x) = 0.30915 0.12525
# Poissons Ratio (y) = 1.10255 -0.22803
# Poissons Ratio (z) = 0.85016 -0.43400
#
# Static dielectric constant tensor:
#      x y z
#    x 1.851880 0.000000 0.000000 
#    y 0.000000 1.720680 0.000000 
#    z 0.000000 0.000000 1.809810 
# 
# From -- ./inp_files/70268.got.cif
#   From: 2010.05.17/outbox.cif.g08.bks.cpg/sg63_36_cif.got.tgz:70268.got - 2010.06.03 15:47:04.
