data_PCOD9472250
_publ_section_title
;
Structure prediction by ZEFSAII (Michael W. Deem and Ramdas Pophale) SiO2 
 PCOD9472250
Probable space group: C M C M
;
_chemical_formula_sum "Si O2"
_cell_formula_units_Z 88
_cell_length_a 31.119555
_cell_length_b 17.872541
_cell_length_c 9.069575
_cell_angle_alpha 90.000000
_cell_angle_beta 90.000000
_cell_angle_gamma 90.000000
_cell_volume 5044.366311
_symmetry_space_group_name_H-M "C M C M"
_symmetry_group_IT_number 63
_symmetry_cell_setting 'orthorhombic'
loop_
_space_group_symop_operation_xyz
x,y,z
-x,-y,1/2+z
x,-y,-z
-x,y,1/2-z
-x,-y,-z
x,y,1/2-z
-x,y,z
x,-y,1/2+z
1/2+x,1/2+y,z
1/2-x,1/2-y,1/2+z
1/2+x,1/2-y,-z
1/2-x,1/2+y,1/2-z
1/2-x,1/2-y,-z
1/2+x,1/2+y,1/2-z
1/2-x,1/2+y,z
1/2+x,1/2-y,1/2+z
loop_
_atom_site_type_symbol
_atom_site_label
_atom_site_fract_x
_atom_site_fract_y
_atom_site_fract_z
Si Si1 0.583973 0.365503 0.579126
Si Si2 0.877958 0.698875 0.578623
Si Si3 0.500000 0.581158 0.925120
Si Si4 0.451000 0.918470 0.071749
Si Si5 0.295507 0.737820 0.576277
Si Si6 0.333168 0.427493 0.424507
O O1 0.577000 0.386765 0.750000
O O2 0.598718 0.279421 0.574561
O O3 0.541746 0.376823 0.484281
O O4 0.621796 0.414032 0.507327
O O5 0.867620 0.682479 0.750000
O O6 0.912694 0.637537 0.525869
O O7 0.833741 0.711204 0.490641
O O8 0.500000 0.574683 0.750000
O O9 0.500000 0.500000 0.000000
O O10 0.449287 0.924172 0.250000
O O11 0.500000 0.892544 0.034558
O O12 0.445357 0.000000 0.000000
O O13 0.292488 0.752040 0.750000
O O14 0.250000 0.750000 0.500000
O O15 0.308282 0.650601 0.555199
O O16 0.312261 0.500000 0.500000
O O17 0.339174 0.439491 0.250000
#
# Coordination Sequence:
#
# PCOD9472250 Si02
#       6
#    16  16   8  16  16  16
#     4  10  20  34  53  75 101 137 176 216 259 308
#     4   9  19  35  57  80 106 141 180 220 267 324
#     4  12  24  36  48  68 101 138 175 216 257 300
#     4   9  18  33  54  80 111 146 184 227 273 326
#     4  10  21  37  58  82 110 139 176 224 273 326
#     4  10  20  35  55  79 106 136 172 215 260 314
#
# _framework density 17.445204
#
# number of rings (size 3 to 8) (size 9 to 14) (size 15 to 20)
#    0.000    2.182    0.000    3.000    1.273    3.636 
#    0.000    0.909    0.000    0.000    0.000    0.000 
#    0.000    0.000    0.000    0.000    0.000    0.000 
#
# Total GULP energy -245471.057845 kJ/mol
# GULP energy per Si atom -5578.887678 kJ/mol
# Density = 1.740550 g / cm^3
# Si number density = 17.445204 Si / 1000 Ang^3
#
#
#
# Elastic Constant Matrix: (Units=GPa)
#
#
# Indices 1 2 3 4 5 6 
#
# 1 145.3639 53.9872 82.9344 0.0000 0.0000 0.0000
# 2 53.9872 73.6243 46.8088 0.0000 0.0000 0.0000
# 3 82.9344 46.8088 117.8543 0.0000 0.0000 0.0000
# 4 0.0000 0.0000 0.0000 29.3698 0.0000 0.0000
# 5 0.0000 0.0000 0.0000 0.0000 28.8288 0.0000
# 6 0.0000 0.0000 0.0000 0.0000 0.0000 10.2381
#
#
#
# Elastic Compliance Matrix: (Units=1/GPa)
#
#
# Indices 1 2 3 4 5 6 
#
# 1 0.012666 -0.004844 -0.006989 0.000000 0.000000 0.000000
# 2 -0.004844 0.020024 -0.004544 0.000000 0.000000 0.000000
# 3 -0.006989 -0.004544 0.015208 0.000000 0.000000 0.000000
# 4 0.000000 0.000000 0.000000 0.034049 0.000000 0.000000
# 5 0.000000 0.000000 0.000000 0.000000 0.034688 0.000000
# 6 0.000000 0.000000 0.000000 0.000000 0.000000 0.097675
#
#
# Mechanical properties :
#
#
# Convention : Reuss Voigt Hill
#
# Bulk Modulus (GPa) = 66.03680 78.25591 72.14635
# Shear Modulus (GPa) = 19.83260 23.89479 21.86370
#
# Velocity S-wave (km/s) = 3.37538 3.70497 3.54401
# Velocity P-wave (km/s) = 7.28882 7.95348 7.62840
#
# Compressibility (1/GPa) = 0.01514307
#
# Stress axis : x y z
#
# Youngs Moduli (GPa) = 78.95284 49.94115 65.75477
#
# Poissons Ratio (x) = 0.24192 0.45956
# Poissons Ratio (y) = 0.38246 0.29879
# Poissons Ratio (z) = 0.55180 0.22694
#
# Static dielectric constant tensor:
#      x y z
#    x 1.586790 0.000000 0.000000 
#    y 0.000000 1.595150 0.000000 
#    z 0.000000 0.000000 1.584530 
# 
# From -- ./inp_files/14147.got.cif
#   From: 2010.05.17/outbox.cif.g08.bks.cpg/sg63_8_cif.got.tgz:14147.got - 2010.06.03 15:47:04.
