data_PCOD9472826
_publ_section_title
;
Structure prediction by ZEFSAII (Michael W. Deem and Ramdas Pophale) SiO2 
 PCOD9472826
Probable space group: C M C M
;
_chemical_formula_sum "Si O2"
_cell_formula_units_Z 80
_cell_length_a 10.977013
_cell_length_b 13.808935
_cell_length_c 23.101226
_cell_angle_alpha 90.000000
_cell_angle_beta 90.000000
_cell_angle_gamma 90.000000
_cell_volume 3501.703681
_symmetry_space_group_name_H-M "C M C M"
_symmetry_group_IT_number 63
_symmetry_cell_setting 'orthorhombic'
loop_
_space_group_symop_operation_xyz
x,y,z
-x,-y,1/2+z
x,-y,-z
-x,y,1/2-z
-x,-y,-z
x,y,1/2-z
-x,y,z
x,-y,1/2+z
1/2+x,1/2+y,z
1/2-x,1/2-y,1/2+z
1/2+x,1/2-y,-z
1/2-x,1/2+y,1/2-z
1/2-x,1/2-y,-z
1/2+x,1/2+y,1/2-z
1/2-x,1/2+y,z
1/2+x,1/2-y,1/2+z
loop_
_atom_site_type_symbol
_atom_site_label
_atom_site_fract_x
_atom_site_fract_y
_atom_site_fract_z
Si Si1 0.798433 0.979686 0.815988
Si Si2 0.363332 0.950806 0.588122
Si Si3 0.637050 0.738885 0.184790
Si Si4 0.773720 0.866325 0.094773
Si Si5 0.868035 0.888152 0.978760
O O1 0.797548 0.013487 0.750000
O O2 0.664946 0.955889 0.842921
O O3 0.864993 0.877276 0.818443
O O4 0.844799 0.058946 0.862302
O O5 0.500000 0.922037 0.574636
O O6 0.252519 0.889672 0.560390
O O7 0.334434 0.062912 0.570677
O O8 0.680007 0.762763 0.250000
O O9 0.500000 0.776605 0.178379
O O10 0.720018 0.786050 0.136306
O O11 0.845813 0.832034 0.038799
O O12 0.000000 0.861008 0.952706
O O13 0.877447 0.000000 0.000000
#
# Coordination Sequence:
#
# PCOD9472826 Si02
#       5
#    16  16  16  16  16
#     4   9  20  35  52  84 121 152 190 241 296 346
#     4   9  19  34  58  87 116 152 195 243 294 348
#     4  10  20  35  57  86 119 156 199 245 292 350
#     4   9  19  34  58  87 115 152 197 241 295 349
#     4   9  18  34  58  84 114 154 194 241 296 353
#
# _framework density 22.846022000000001
#
# number of rings (size 3 to 8) (size 9 to 14) (size 15 to 20)
#    1.200    1.600    0.000    1.200    0.000    6.400 
#    0.000    2.000    0.000    3.000    0.000    0.000 
#    0.000    0.000    0.000    0.000    0.000    0.000 
#
# Total GULP energy -222763.892636 kJ/mol
# GULP energy per Si atom -5569.097316 kJ/mol
# Density = 2.279402 g / cm^3
# Si number density = 22.846022 Si / 1000 Ang^3
#
#
#
# Elastic Constant Matrix: (Units=GPa)
#
#
# Indices 1 2 3 4 5 6 
#
# 1 131.8491 5.8244 34.8425 0.0000 0.0000 0.0000
# 2 5.8244 64.7548 7.6156 0.0000 0.0000 0.0000
# 3 34.8425 7.6156 103.5819 0.0000 0.0000 0.0000
# 4 0.0000 0.0000 0.0000 30.8758 0.0000 0.0000
# 5 0.0000 0.0000 0.0000 0.0000 21.3547 0.0000
# 6 0.0000 0.0000 0.0000 0.0000 0.0000 7.1766
#
#
#
# Elastic Compliance Matrix: (Units=1/GPa)
#
#
# Indices 1 2 3 4 5 6 
#
# 1 0.008336 -0.000424 -0.002773 0.000000 0.000000 0.000000
# 2 -0.000424 0.015599 -0.001004 0.000000 0.000000 0.000000
# 3 -0.002773 -0.001004 0.010661 0.000000 0.000000 0.000000
# 4 0.000000 0.000000 0.000000 0.032388 0.000000 0.000000
# 5 0.000000 0.000000 0.000000 0.000000 0.046828 0.000000
# 6 0.000000 0.000000 0.000000 0.000000 0.000000 0.139341
#
#
# Mechanical properties :
#
#
# Convention : Reuss Voigt Hill
#
# Bulk Modulus (GPa) = 38.17672 44.08342 41.13007
# Shear Modulus (GPa) = 18.49890 28.67497 23.58694
#
# Velocity S-wave (km/s) = 2.84865 3.54664 3.21663
# Velocity P-wave (km/s) = 5.25038 6.00910 5.64251
#
# Compressibility (1/GPa) = 0.02619398
#
# Stress axis : x y z
#
# Youngs Moduli (GPa) = 119.96312 64.10628 93.80200
#
# Poissons Ratio (x) = 0.02716 0.26010
# Poissons Ratio (y) = 0.05083 0.09421
# Poissons Ratio (z) = 0.33264 0.06439
#
# Static dielectric constant tensor:
#      x y z
#    x 1.868980 0.000000 0.000000 
#    y 0.000000 1.899060 0.000000 
#    z 0.000000 0.000000 1.930230 
# 
# From -- ./inp_files/61137.got.cif
#   From: 2010.05.17/outbox.cif.g08.bks.cpg/sg63_31_cif.got.tgz:61137.got - 2010.06.03 15:47:04.
