data_PCOD9472196
_publ_section_title
;
Structure prediction by ZEFSAII (Michael W. Deem and Ramdas Pophale) SiO2 
 PCOD9472196
Probable space group: C M C M
;
_chemical_formula_sum "Si O2"
_cell_formula_units_Z 80
_cell_length_a 7.476443
_cell_length_b 19.113024
_cell_length_c 26.071894
_cell_angle_alpha 90.000000
_cell_angle_beta 90.000000
_cell_angle_gamma 90.000000
_cell_volume 3725.606765
_symmetry_space_group_name_H-M "C M C M"
_symmetry_group_IT_number 63
_symmetry_cell_setting 'orthorhombic'
loop_
_space_group_symop_operation_xyz
x,y,z
-x,-y,1/2+z
x,-y,-z
-x,y,1/2-z
-x,-y,-z
x,y,1/2-z
-x,y,z
x,-y,1/2+z
1/2+x,1/2+y,z
1/2-x,1/2-y,1/2+z
1/2+x,1/2-y,-z
1/2-x,1/2+y,1/2-z
1/2-x,1/2-y,-z
1/2+x,1/2+y,1/2-z
1/2-x,1/2+y,z
1/2+x,1/2-y,1/2+z
loop_
_atom_site_type_symbol
_atom_site_label
_atom_site_fract_x
_atom_site_fract_y
_atom_site_fract_z
Si Si1 0.281616 0.919142 0.057622
Si Si2 0.783919 0.420729 0.941113
Si Si3 0.707924 0.333892 0.658111
Si Si4 0.719400 0.568862 0.250000
Si Si5 0.710778 0.821450 0.351673
Si Si6 0.285700 0.408628 0.250000
O O1 0.500000 0.919362 0.058287
O O2 0.216129 0.864847 0.100009
O O3 0.227225 0.999089 0.069537
O O4 0.227758 0.902826 0.999188
O O5 0.718809 0.368748 0.897594
O O6 0.000000 0.419527 0.940082
O O7 0.500000 0.325450 0.672747
O O8 0.780671 0.387980 0.700121
O O9 0.787374 0.256059 0.656972
O O10 0.500000 0.565600 0.250000
O O11 0.780094 0.488608 0.250000
O O12 0.500000 0.812030 0.362678
O O13 0.727684 0.867423 0.300681
O O14 0.500000 0.409859 0.250000
#
# Coordination Sequence:
#
# PCOD9472196 Si02
#       6
#    16  16  16   8  16   8
#     4   8  16  32  53  75 100 135 175 208 244 293
#     4   9  17  32  53  75 102 134 169 212 252 287
#     4  10  20  34  52  74 101 133 166 202 249 303
#     4   9  19  35  51  69  98 131 160 198 252 303
#     4  10  20  35  54  74 100 135 170 201 242 304
#     4  11  22  35  53  75  98 125 162 210 254 291
#
# _framework density 21.473011
#
# number of rings (size 3 to 8) (size 9 to 14) (size 15 to 20)
#    0.000    2.600    0.000    3.300    0.000    3.200 
#    0.000    4.500    0.000    0.000    0.000    0.000 
#    0.000    0.000    0.000    0.000    0.000    0.000 
#
# Total GULP energy -223401.271675 kJ/mol
# GULP energy per Si atom -5585.031792 kJ/mol
# Density = 2.142414 g / cm^3
# Si number density = 21.473011 Si / 1000 Ang^3
#
#
#
# Elastic Constant Matrix: (Units=GPa)
#
#
# Indices 1 2 3 4 5 6 
#
# 1 55.4908 -5.8580 -18.1306 0.0000 0.0000 0.0000
# 2 -5.8580 206.1441 119.4660 0.0000 0.0000 0.0000
# 3 -18.1306 119.4660 137.1448 0.0000 0.0000 0.0000
# 4 0.0000 0.0000 0.0000********** 0.0000 0.0000
# 5 0.0000 0.0000 0.0000 0.0000 21.7267 0.0000
# 6 0.0000 0.0000 0.0000 0.0000 0.0000 -48.7666
#
#
#
# Elastic Compliance Matrix: (Units=1/GPa)
#
#
# Indices 1 2 3 4 5 6 
#
# 1 0.019184 -0.001867 0.004163 0.000000 0.000000 0.000000
# 2 -0.001867 0.009978 -0.008939 0.000000 0.000000 0.000000
# 3 0.004163 -0.008939 0.015628 0.000000 0.000000 0.000000
# 4 0.000000 0.000000 0.000000 -0.000003 0.000000 0.000000
# 5 0.000000 0.000000 0.000000 0.000000 0.046026 0.000000
# 6 0.000000 0.000000 0.000000 0.000000 0.000000 -0.020506
#
#
# Mechanical properties :
#
#
# Convention : Reuss Voigt Hill
#
# Bulk Modulus (GPa) = 31.74219 65.52608 48.63413
# Shear Modulus (GPa) = 53.13716 -71647.28660 -35797.07472
#
# Velocity S-wave (km/s) = 4.97993 -182.86235 -129.25525
# Velocity P-wave (km/s) = 6.91959 211.07882 149.17505
#
# Compressibility (1/GPa) = 0.03150381
#
# Stress axis : x y z
#
# Youngs Moduli (GPa) = 52.12692 100.21871 63.98614
#
# Poissons Ratio (x) = 0.18713 -0.26635
# Poissons Ratio (y) = 0.09733 0.57196
# Poissons Ratio (z) = -0.21699 0.89583
#
# Static dielectric constant tensor:
#      x y z
#    x 1.811840 0.000000 0.000000 
#    y 0.000000 1.759630 0.000000 
#    z 0.000000 0.000000 1.785300 
# 
# From -- ./inp_files/66671.got.cif
#   From: 2010.05.17/outbox.cif.g08.bks.cpg/sg63_34_cif.got.tgz:66671.got - 2010.06.03 15:47:04.
