data_PCOD9472053
_publ_section_title
;
Structure prediction by ZEFSAII (Michael W. Deem and Ramdas Pophale) SiO2 
 PCOD9472053
Probable space group: C M C M
;
_chemical_formula_sum "Si O2"
_cell_formula_units_Z 96
_cell_length_a 8.761967
_cell_length_b 27.665438
_cell_length_c 19.378065
_cell_angle_alpha 90.000000
_cell_angle_beta 90.000000
_cell_angle_gamma 90.000000
_cell_volume 4697.313779
_symmetry_space_group_name_H-M "C M C M"
_symmetry_group_IT_number 63
_symmetry_cell_setting 'orthorhombic'
loop_
_space_group_symop_operation_xyz
x,y,z
-x,-y,1/2+z
x,-y,-z
-x,y,1/2-z
-x,-y,-z
x,y,1/2-z
-x,y,z
x,-y,1/2+z
1/2+x,1/2+y,z
1/2-x,1/2-y,1/2+z
1/2+x,1/2-y,-z
1/2-x,1/2+y,1/2-z
1/2-x,1/2-y,-z
1/2+x,1/2+y,1/2-z
1/2-x,1/2+y,z
1/2+x,1/2-y,1/2+z
loop_
_atom_site_type_symbol
_atom_site_label
_atom_site_fract_x
_atom_site_fract_y
_atom_site_fract_z
Si Si1 0.318905 0.802873 0.592825
Si Si2 0.681774 0.652095 0.963151
Si Si3 0.317515 0.049642 0.537933
Si Si4 0.317285 0.996563 0.671224
Si Si5 0.323942 0.606615 0.333078
Si Si6 0.186041 0.794598 0.171219
O O1 0.500000 0.799300 0.583434
O O2 0.242033 0.809212 0.518372
O O3 0.275951 0.851385 0.634008
O O4 0.268406 0.756985 0.638226
O O5 0.500000 0.652851 0.964230
O O6 0.739747 0.599092 0.983988
O O7 0.734134 0.666025 0.885783
O O8 0.500000 0.054789 0.528557
O O9 0.271709 0.000000 0.500000
O O10 0.281700 0.038844 0.617995
O O11 0.274460 0.007559 0.750000
O O12 0.500000 0.988515 0.668299
O O13 0.237530 0.946658 0.649750
O O14 0.316788 0.610502 0.250000
O O15 0.500000 0.612024 0.354907
O O16 0.240089 0.800804 0.250000
O O17 0.000000 0.795101 0.173547
#
# Coordination Sequence:
#
# PCOD9472053 Si02
#       6
#    16  16  16  16  16  16
#     4  11  21  36  60  84 112 152 193 231 275 336
#     4  11  23  38  59  86 116 147 184 237 291 337
#     4  10  21  37  56  79 109 147 191 234 276 330
#     4   9  18  33  53  77 108 148 191 233 281 340
#     4  10  20  33  52  83 120 151 186 238 292 338
#     4   9  20  39  61  86 115 149 189 229 275 337
#
# _framework density 20.437211999999999
#
# number of rings (size 3 to 8) (size 9 to 14) (size 15 to 20)
#    0.000    2.000    0.000    3.500    0.000    4.667 
#    0.000    2.500    0.000    5.500    0.000    0.000 
#    0.000    0.000    0.000    0.000    0.000    0.000 
#
# Total GULP energy -268151.027813 kJ/mol
# GULP energy per Si atom -5586.479746 kJ/mol
# Density = 2.039070 g / cm^3
# Si number density = 20.437212 Si / 1000 Ang^3
#
#
#
# Elastic Constant Matrix: (Units=GPa)
#
#
# Indices 1 2 3 4 5 6 
#
# 1 26.1108 18.8363 20.1289 0.0000 0.0000 0.0000
# 2 18.8363 71.1479 31.6831 0.0000 0.0000 0.0000
# 3 20.1289 31.6831 105.9916 0.0000 0.0000 0.0000
# 4 0.0000 0.0000 0.0000 35.0297 0.0000 0.0000
# 5 0.0000 0.0000 0.0000 0.0000 24.7821 0.0000
# 6 0.0000 0.0000 0.0000 0.0000 0.0000 5.9630
#
#
#
# Elastic Compliance Matrix: (Units=1/GPa)
#
#
# Indices 1 2 3 4 5 6 
#
# 1 0.050959 -0.010592 -0.006512 0.000000 0.000000 0.000000
# 2 -0.010592 0.018415 -0.003493 0.000000 0.000000 0.000000
# 3 -0.006512 -0.003493 0.011715 0.000000 0.000000 0.000000
# 4 0.000000 0.000000 0.000000 0.028547 0.000000 0.000000
# 5 0.000000 0.000000 0.000000 0.000000 0.040352 0.000000
# 6 0.000000 0.000000 0.000000 0.000000 0.000000 0.167701
#
#
# Mechanical properties :
#
#
# Convention : Reuss Voigt Hill
#
# Bulk Modulus (GPa) = 25.06479 38.28299 31.67389
# Shear Modulus (GPa) = 13.43435 21.99509 17.71472
#
# Velocity S-wave (km/s) = 2.56666 3.28415 2.94732
# Velocity P-wave (km/s) = 4.59071 5.75791 5.20712
#
# Compressibility (1/GPa) = 0.03989661
#
# Stress axis : x y z
#
# Youngs Moduli (GPa) = 19.62373 54.30393 85.35705
#
# Poissons Ratio (x) = 0.57516 0.55580
# Poissons Ratio (y) = 0.20785 0.29817
# Poissons Ratio (z) = 0.12778 0.18969
#
# Static dielectric constant tensor:
#      x y z
#    x 1.693380 0.000000 0.000000 
#    y 0.000000 1.686450 0.000000 
#    z 0.000000 0.000000 1.779840 
# 
# From -- ./inp_files/51316.got.cif
#   From: 2010.05.17/outbox.cif.g08.bks.cpg/sg63_26_cif.got.tgz:51316.got - 2010.06.03 15:47:04.
