data_PCOD9472637
_publ_section_title
;
Structure prediction by ZEFSAII (Michael W. Deem and Ramdas Pophale) SiO2 
 PCOD9472637
Probable space group: C M C M
;
_chemical_formula_sum "Si O2"
_cell_formula_units_Z 112
_cell_length_a 13.913677
_cell_length_b 31.924859
_cell_length_c 14.300784
_cell_angle_alpha 90.000000
_cell_angle_beta 90.000000
_cell_angle_gamma 90.000000
_cell_volume 6352.296369
_symmetry_space_group_name_H-M "C M C M"
_symmetry_group_IT_number 63
_symmetry_cell_setting 'orthorhombic'
loop_
_space_group_symop_operation_xyz
x,y,z
-x,-y,1/2+z
x,-y,-z
-x,y,1/2-z
-x,-y,-z
x,y,1/2-z
-x,y,z
x,-y,1/2+z
1/2+x,1/2+y,z
1/2-x,1/2-y,1/2+z
1/2+x,1/2-y,-z
1/2-x,1/2+y,1/2-z
1/2-x,1/2-y,-z
1/2+x,1/2+y,1/2-z
1/2-x,1/2+y,z
1/2+x,1/2-y,1/2+z
loop_
_atom_site_type_symbol
_atom_site_label
_atom_site_fract_x
_atom_site_fract_y
_atom_site_fract_z
Si Si1 0.887718 0.338841 0.472089
Si Si2 0.885247 0.200323 0.855780
Si Si3 0.894220 0.105634 0.147364
Si Si4 0.112915 0.243313 0.448187
Si Si5 0.611674 0.546428 0.530468
Si Si6 0.269978 0.385682 0.139432
Si Si7 0.758236 0.679691 0.144543
O O1 0.875739 0.292484 0.427160
O O2 0.825484 0.373169 0.417473
O O3 0.843989 0.330928 0.574526
O O4 0.000000 0.348839 0.474606
O O5 0.854965 0.213233 0.750000
O O6 0.838247 0.155141 0.876409
O O7 0.000000 0.195036 0.853562
O O8 0.866486 0.231561 0.942439
O O9 0.888988 0.085305 0.250000
O O10 0.811942 0.139649 0.141258
O O11 0.000000 0.126217 0.140227
O O12 0.887037 0.073263 0.064355
O O13 0.188349 0.216727 0.389501
O O14 0.000000 0.232702 0.431729
O O15 0.642924 0.500000 0.500000
O O16 0.500000 0.544202 0.563748
O O17 0.677570 0.572755 0.601440
O O18 0.252175 0.388879 0.250000
O O19 0.791468 0.686719 0.250000
#
# Coordination Sequence:
#
# PCOD9472637 Si02
#       7
#    16  16  16  16  16  16  16
#     4  11  24  40  55  76 110 153 201 249 289 322
#     4   9  17  30  53  83 114 149 189 235 285 340
#     4   9  17  31  53  82 114 145 176 213 265 335
#     4  10  20  35  54  79 113 147 188 241 293 345
#     4  10  20  35  59  91 124 148 169 210 274 346
#     4  11  22  37  58  82 112 152 194 232 277 337
#     4  11  21  34  56  81 108 146 190 235 285 339
#
# _framework density 17.631418
#
# number of rings (size 3 to 8) (size 9 to 14) (size 15 to 20)
#    0.000    1.857    2.857    1.286    0.000    6.286 
#    0.000    4.286    0.000    0.429    0.000    0.000 
#    0.000    0.000    0.000    0.000    0.000    0.000 
#
# Total GULP energy -312520.868849 kJ/mol
# GULP energy per Si atom -5580.729801 kJ/mol
# Density = 1.759129 g / cm^3
# Si number density = 17.631418 Si / 1000 Ang^3
#
#
#
# Elastic Constant Matrix: (Units=GPa)
#
#
# Indices 1 2 3 4 5 6 
#
# 1 80.3810 48.6006 45.5490 0.0000 0.0000 0.0000
# 2 48.6006 75.2321 32.4813 0.0000 0.0000 0.0000
# 3 45.5490 32.4813 88.4561 0.0000 0.0000 0.0000
# 4 0.0000 0.0000 0.0000 2.3741 0.0000 0.0000
# 5 0.0000 0.0000 0.0000 0.0000 16.4825 0.0000
# 6 0.0000 0.0000 0.0000 0.0000 0.0000 23.3830
#
#
#
# Elastic Compliance Matrix: (Units=1/GPa)
#
#
# Indices 1 2 3 4 5 6 
#
# 1 0.024464 -0.012318 -0.008074 0.000000 0.000000 0.000000
# 2 -0.012318 0.021999 -0.001735 0.000000 0.000000 0.000000
# 3 -0.008074 -0.001735 0.016100 0.000000 0.000000 0.000000
# 4 0.000000 0.000000 0.000000 0.421215 0.000000 0.000000
# 5 0.000000 0.000000 0.000000 0.000000 0.060670 0.000000
# 6 0.000000 0.000000 0.000000 0.000000 0.000000 0.042766
#
#
# Mechanical properties :
#
#
# Convention : Reuss Voigt Hill
#
# Bulk Modulus (GPa) = 54.62022 55.25901 54.93961
# Shear Modulus (GPa) = 7.84227 16.27714 12.05970
#
# Velocity S-wave (km/s) = 2.11129 3.04170 2.61816
# Velocity P-wave (km/s) = 6.08190 6.61401 6.35353
#
# Compressibility (1/GPa) = 0.01830824
#
# Stress axis : x y z
#
# Youngs Moduli (GPa) = 40.87682 45.45700 62.11266
#
# Poissons Ratio (x) = 0.55993 0.50150
# Poissons Ratio (y) = 0.50352 0.10777
# Poissons Ratio (z) = 0.33004 0.07887
#
# Static dielectric constant tensor:
#      x y z
#    x 1.603400 0.000000 0.000000 
#    y 0.000000 1.582980 0.000000 
#    z 0.000000 0.000000 1.636640 
# 
# From -- ./inp_files/32574.got.cif
#   From: 2010.05.17/outbox.cif.g08.bks.cpg/sg63_17_cif.got.tgz:32574.got - 2010.06.03 15:47:04.
