data_PCOD9472096
_publ_section_title
;
Structure prediction by ZEFSAII (Michael W. Deem and Ramdas Pophale) SiO2 
 PCOD9472096
Probable space group: C M C M
;
_chemical_formula_sum "Si O2"
_cell_formula_units_Z 100
_cell_length_a 14.456893
_cell_length_b 20.012357
_cell_length_c 14.641468
_cell_angle_alpha 90.000000
_cell_angle_beta 90.000000
_cell_angle_gamma 90.000000
_cell_volume 4236.018333
_symmetry_space_group_name_H-M "C M C M"
_symmetry_group_IT_number 63
_symmetry_cell_setting 'orthorhombic'
loop_
_space_group_symop_operation_xyz
x,y,z
-x,-y,1/2+z
x,-y,-z
-x,y,1/2-z
-x,-y,-z
x,y,1/2-z
-x,y,z
x,-y,1/2+z
1/2+x,1/2+y,z
1/2-x,1/2-y,1/2+z
1/2+x,1/2-y,-z
1/2-x,1/2+y,1/2-z
1/2-x,1/2-y,-z
1/2+x,1/2+y,1/2-z
1/2-x,1/2+y,z
1/2+x,1/2-y,1/2+z
loop_
_atom_site_type_symbol
_atom_site_label
_atom_site_fract_x
_atom_site_fract_y
_atom_site_fract_z
Si Si1 0.000000 0.335987 0.750000
Si Si2 0.221750 0.910699 0.646145
Si Si3 0.606539 0.532274 0.638501
Si Si4 0.899981 0.654071 0.618271
Si Si5 0.898915 0.501080 0.389757
Si Si6 0.357106 0.810362 0.915649
Si Si7 0.692419 0.671785 0.854038
O O1 0.919204 0.330517 0.829963
O O2 0.196289 0.893102 0.750000
O O3 0.256187 0.844774 0.595199
O O4 0.145836 0.961117 0.605007
O O5 0.313550 0.957395 0.646433
O O6 0.612091 0.528428 0.750000
O O7 0.500000 0.542416 0.613380
O O8 0.667312 0.597127 0.613246
O O9 0.895313 0.575448 0.641044
O O10 0.897376 0.662057 0.509154
O O11 0.802501 0.682799 0.649726
O O12 0.000000 0.680121 0.649473
O O13 0.894504 0.500000 0.500000
O O14 0.000000 0.528281 0.361937
O O15 0.350116 0.730536 0.913902
O O16 0.655354 0.678155 0.750000
#
# Coordination Sequence:
#
# PCOD9472096 Si02
#       7
#     4  16  16  16  16  16  16
#     4  12  24  40  64  98 124 164 202 266 316 374
#     4  11  21  36  58  89 120 156 203 257 310 371
#     4   9  20  37  60  85 117 159 212 260 306 364
#     4  11  23  39  61  90 126 164 203 254 314 381
#     4  10  20  33  54  81 119 160 189 231 305 374
#     4  12  24  39  63  93 130 158 210 264 315 371
#     4  11  23  41  62  91 121 165 209 260 312 371
#
# _framework density 23.607074999999998
#
# number of rings (size 3 to 8) (size 9 to 14) (size 15 to 20)
#    0.000    1.280    5.600    0.480    2.240    0.640 
#    0.000    2.400    0.000    6.240    0.000    0.000 
#    0.000    0.000    0.000    0.000    0.000    0.000 
#
# Total GULP energy -279175.839638 kJ/mol
# GULP energy per Si atom -5583.516793 kJ/mol
# Density = 2.355334 g / cm^3
# Si number density = 23.607075 Si / 1000 Ang^3
#
#
#
# Elastic Constant Matrix: (Units=GPa)
#
#
# Indices 1 2 3 4 5 6 
#
# 1 100.2026 12.3551 1.8404 0.0000 0.0000 0.0000
# 2 12.3551 81.1324 9.5088 0.0000 0.0000 0.0000
# 3 1.8404 9.5088 104.4372 0.0000 0.0000 0.0000
# 4 0.0000 0.0000 0.0000 6.7007 0.0000 0.0000
# 5 0.0000 0.0000 0.0000 0.0000 14.6550 0.0000
# 6 0.0000 0.0000 0.0000 0.0000 0.0000 16.1602
#
#
#
# Elastic Compliance Matrix: (Units=1/GPa)
#
#
# Indices 1 2 3 4 5 6 
#
# 1 0.010171 -0.001544 -0.000039 0.000000 0.000000 0.000000
# 2 -0.001544 0.012693 -0.001128 0.000000 0.000000 0.000000
# 3 -0.000039 -0.001128 0.009679 0.000000 0.000000 0.000000
# 4 0.000000 0.000000 0.000000 0.149238 0.000000 0.000000
# 5 0.000000 0.000000 0.000000 0.000000 0.068236 0.000000
# 6 0.000000 0.000000 0.000000 0.000000 0.000000 0.061881
#
#
# Mechanical properties :
#
#
# Convention : Reuss Voigt Hill
#
# Bulk Modulus (GPa) = 36.87369 37.02009 36.94689
# Shear Modulus (GPa) = 15.32051 24.97438 20.14745
#
# Velocity S-wave (km/s) = 2.55027 3.25610 2.92456
# Velocity P-wave (km/s) = 4.93209 5.46370 5.20469
#
# Compressibility (1/GPa) = 0.02711961
#
# Stress axis : x y z
#
# Youngs Moduli (GPa) = 98.31967 78.78384 103.32122
#
# Poissons Ratio (x) = 0.12167 0.00399
# Poissons Ratio (y) = 0.15184 0.11659
# Poissons Ratio (z) = 0.00380 0.08890
#
# Static dielectric constant tensor:
#      x y z
#    x 1.886230 0.000000 0.000000 
#    y 0.000000 1.883230 0.000000 
#    z 0.000000 0.000000 2.691360 
# 
# From -- ./inp_files/44431.got.cif
#   From: 2010.05.17/outbox.cif.g08.bks.cpg/sg63_23_cif.got.tgz:44431.got - 2010.06.03 15:47:04.
