data_PCOD9472453
_publ_section_title
;
Structure prediction by ZEFSAII (Michael W. Deem and Ramdas Pophale) SiO2 
 PCOD9472453
Probable space group: C M C M
;
_chemical_formula_sum "Si O2"
_cell_formula_units_Z 88
_cell_length_a 22.226768
_cell_length_b 13.272207
_cell_length_c 17.358984
_cell_angle_alpha 90.000000
_cell_angle_beta 90.000000
_cell_angle_gamma 90.000000
_cell_volume 5120.870177
_symmetry_space_group_name_H-M "C M C M"
_symmetry_group_IT_number 63
_symmetry_cell_setting 'orthorhombic'
loop_
_space_group_symop_operation_xyz
x,y,z
-x,-y,1/2+z
x,-y,-z
-x,y,1/2-z
-x,-y,-z
x,y,1/2-z
-x,y,z
x,-y,1/2+z
1/2+x,1/2+y,z
1/2-x,1/2-y,1/2+z
1/2+x,1/2-y,-z
1/2-x,1/2+y,1/2-z
1/2-x,1/2-y,-z
1/2+x,1/2+y,1/2-z
1/2-x,1/2+y,z
1/2+x,1/2-y,1/2+z
loop_
_atom_site_type_symbol
_atom_site_label
_atom_site_fract_x
_atom_site_fract_y
_atom_site_fract_z
Si Si1 0.567812 0.816101 0.658288
Si Si2 0.135108 0.105586 0.843067
Si Si3 0.266665 0.335798 0.561105
Si Si4 0.276978 0.153763 0.660989
Si Si5 0.348806 0.022437 0.415921
Si Si6 0.641081 0.500000 0.000000
O O1 0.564091 0.820819 0.750000
O O2 0.500000 0.809428 0.626621
O O3 0.605441 0.714679 0.641903
O O4 0.602722 0.914877 0.631021
O O5 0.123770 0.079717 0.750000
O O6 0.207689 0.117234 0.850740
O O7 0.113538 0.036205 0.916181
O O8 0.250000 0.250000 0.500000
O O9 0.282881 0.269537 0.635233
O O10 0.209532 0.405737 0.576422
O O11 0.318420 0.405768 0.527215
O O12 0.289873 0.143584 0.750000
O O13 0.322829 0.081302 0.617105
O O14 0.373752 0.000000 0.500000
#
# Coordination Sequence:
#
# PCOD9472453 Si02
#       6
#    16  16  16  16  16   8
#     4  10  22  40  59  78 107 149 192 234 272 318
#     4  10  20  34  55  83 111 146 190 229 275 336
#     4  12  18  32  48  79 113 150 172 215 283 337
#     4  11  22  32  50  82 115 146 181 224 281 340
#     4  12  20  33  56  81 113 143 180 226 278 343
#     4  12  20  34  57  80 117 150 178 232 290 336
#
# _framework density 17.184578999999999
#
# number of rings (size 3 to 8) (size 9 to 14) (size 15 to 20)
#    0.000    0.909    8.182    0.545    0.000    1.818 
#    0.000    0.455    0.000    0.000    0.000    0.000 
#    0.000    0.000    0.000    0.000    0.000    0.000 
#
# Total GULP energy -245089.996496 kJ/mol
# GULP energy per Si atom -5570.227193 kJ/mol
# Density = 1.714547 g / cm^3
# Si number density = 17.184579 Si / 1000 Ang^3
#
#
#
# Elastic Constant Matrix: (Units=GPa)
#
#
# Indices 1 2 3 4 5 6 
#
# 1 40.2842 5.4409 5.9269 0.0000 0.0000 0.0000
# 2 5.4409 62.1021 12.6667 0.0000 0.0000 0.0000
# 3 5.9269 12.6667 69.1051 0.0000 0.0000 0.0000
# 4 0.0000 0.0000 0.0000 42.1022 0.0000 0.0000
# 5 0.0000 0.0000 0.0000 0.0000 -37.9822 0.0000
# 6 0.0000 0.0000 0.0000 0.0000 0.0000 -13.8083
#
#
#
# Elastic Compliance Matrix: (Units=1/GPa)
#
#
# Indices 1 2 3 4 5 6 
#
# 1 0.025343 -0.001846 -0.001835 0.000000 0.000000 0.000000
# 2 -0.001846 0.016862 -0.002932 0.000000 0.000000 0.000000
# 3 -0.001835 -0.002932 0.015166 0.000000 0.000000 0.000000
# 4 0.000000 0.000000 0.000000 0.023752 0.000000 0.000000
# 5 0.000000 0.000000 0.000000 0.000000 -0.026328 0.000000
# 6 0.000000 0.000000 0.000000 0.000000 0.000000 -0.072420
#
#
# Mechanical properties :
#
#
# Convention : Reuss Voigt Hill
#
# Bulk Modulus (GPa) = 22.65337 24.39560 23.52448
# Shear Modulus (GPa) = 484.66710 7.89280 246.27995
#
# Velocity S-wave (km/s) = 16.81215 2.14544 11.98439
# Velocity P-wave (km/s) = 19.75033 4.51268 14.32550
#
# Compressibility (1/GPa) = 0.04414354
#
# Stress axis : x y z
#
# Youngs Moduli (GPa) = 39.45864 59.30362 65.93856
#
# Poissons Ratio (x) = 0.10948 0.12101
# Poissons Ratio (y) = 0.07284 0.19336
# Poissons Ratio (z) = 0.07241 0.17391
#
# Static dielectric constant tensor:
#      x y z
#    x 1.489400 0.000000 0.000000 
#    y 0.000000 1.600180 0.000000 
#    z 0.000000 0.000000 1.669460 
# 
# From -- ./inp_files/47071.got.cif
#   From: 2010.05.17/outbox.cif.g08.bks.cpg/sg63_24_cif.got.tgz:47071.got - 2010.06.03 15:47:04.
