data_PCOD9472309
_publ_section_title
;
Structure prediction by ZEFSAII (Michael W. Deem and Ramdas Pophale) SiO2 
 PCOD9472309
Probable space group: C M C M
;
_chemical_formula_sum "Si O2"
_cell_formula_units_Z 112
_cell_length_a 10.205465
_cell_length_b 21.055949
_cell_length_c 29.572778
_cell_angle_alpha 90.000000
_cell_angle_beta 90.000000
_cell_angle_gamma 90.000000
_cell_volume 6354.768597
_symmetry_space_group_name_H-M "C M C M"
_symmetry_group_IT_number 63
_symmetry_cell_setting 'orthorhombic'
loop_
_space_group_symop_operation_xyz
x,y,z
-x,-y,1/2+z
x,-y,-z
-x,y,1/2-z
-x,-y,-z
x,y,1/2-z
-x,y,z
x,-y,1/2+z
1/2+x,1/2+y,z
1/2-x,1/2-y,1/2+z
1/2+x,1/2-y,-z
1/2-x,1/2+y,1/2-z
1/2-x,1/2-y,-z
1/2+x,1/2+y,1/2-z
1/2-x,1/2+y,z
1/2+x,1/2-y,1/2+z
loop_
_atom_site_type_symbol
_atom_site_label
_atom_site_fract_x
_atom_site_fract_y
_atom_site_fract_z
Si Si1 0.342630 0.575414 0.299624
Si Si2 0.853239 0.203406 0.698075
Si Si3 0.655607 0.232566 0.879632
Si Si4 0.841536 0.130099 0.105395
Si Si5 0.154652 0.004599 0.053810
Si Si6 0.646967 0.909336 0.101187
Si Si7 0.738188 0.067354 0.800459
O O1 0.294884 0.597331 0.250000
O O2 0.500000 0.580284 0.299466
O O3 0.294701 0.612384 0.343889
O O4 0.305429 0.501275 0.304150
O O5 0.834845 0.223405 0.750000
O O6 0.741671 0.229833 0.665629
O O7 0.837937 0.126645 0.697406
O O8 0.000000 0.220507 0.683312
O O9 0.500000 0.235094 0.868867
O O10 0.693021 0.297250 0.905323
O O11 0.676752 0.165579 0.904500
O O12 0.802004 0.073929 0.071806
O O13 0.000000 0.128031 0.105984
O O14 0.000000 0.995738 0.065363
O O15 0.243966 0.952435 0.078044
O O16 0.167166 0.000000 0.000000
O O17 0.500000 0.922608 0.084424
O O18 0.650615 0.922703 0.155256
O O19 0.676260 0.070751 0.750000
#
# Coordination Sequence:
#
# PCOD9472309 Si02
#       7
#    16  16  16  16  16  16  16
#     4   9  15  23  42  73 102 130 170 216 257 294
#     4   9  17  28  44  69 103 141 179 218 257 297
#     4   9  19  33  50  73 103 140 175 208 253 310
#     4   9  17  32  52  75 104 135 170 215 258 303
#     4  10  21  38  61  84 102 127 170 223 272 315
#     4  10  20  34  53  79 109 141 174 210 256 311
#     4   9  16  27  46  73 105 140 176 212 252 299
#
# _framework density 17.624561
#
# number of rings (size 3 to 8) (size 9 to 14) (size 15 to 20)
#    0.000    2.714    1.429    0.429    0.000    5.429 
#    0.000    5.714    0.000    0.000    0.000    0.000 
#    0.000    0.000    0.000    0.000    0.000    0.000 
#
# Total GULP energy -311755.003784 kJ/mol
# GULP energy per Si atom -5567.053639 kJ/mol
# Density = 1.758445 g / cm^3
# Si number density = 17.624561 Si / 1000 Ang^3
#
#
#
# Elastic Constant Matrix: (Units=GPa)
#
#
# Indices 1 2 3 4 5 6 
#
# 1 60.9342 44.3647 33.3835 0.0000 0.0000 0.0000
# 2 44.3647 120.2908 48.0560 0.0000 0.0000 0.0000
# 3 33.3835 48.0560 57.8558 0.0000 0.0000 0.0000
# 4 0.0000 0.0000 0.0000 8.4234 0.0000 0.0000
# 5 0.0000 0.0000 0.0000 0.0000 10.5074 0.0000
# 6 0.0000 0.0000 0.0000 0.0000 0.0000 17.3445
#
#
#
# Elastic Compliance Matrix: (Units=1/GPa)
#
#
# Indices 1 2 3 4 5 6 
#
# 1 0.026159 -0.005414 -0.010597 0.000000 0.000000 0.000000
# 2 -0.005414 0.013562 -0.008141 0.000000 0.000000 0.000000
# 3 -0.010597 -0.008141 0.030161 0.000000 0.000000 0.000000
# 4 0.000000 0.000000 0.000000 0.118716 0.000000 0.000000
# 5 0.000000 0.000000 0.000000 0.000000 0.095171 0.000000
# 6 0.000000 0.000000 0.000000 0.000000 0.000000 0.057655
#
#
# Mechanical properties :
#
#
# Convention : Reuss Voigt Hill
#
# Bulk Modulus (GPa) = 46.34368 54.52101 50.43235
# Shear Modulus (GPa) = 12.59696 14.80684 13.70190
#
# Velocity S-wave (km/s) = 2.67636 2.90164 2.79127
# Velocity P-wave (km/s) = 5.99188 6.49829 6.25022
#
# Compressibility (1/GPa) = 0.02157791
#
# Stress axis : x y z
#
# Youngs Moduli (GPa) = 38.22826 73.73342 33.15555
#
# Poissons Ratio (x) = 0.39921 0.35134
# Poissons Ratio (y) = 0.20698 0.26992
# Poissons Ratio (z) = 0.40509 0.60027
#
# Static dielectric constant tensor:
#      x y z
#    x 1.585120 0.000000 0.000000 
#    y 0.000000 1.620850 0.000000 
#    z 0.000000 0.000000 1.607530 
# 
# From -- ./inp_files/68593.got.cif
#   From: 2010.05.17/outbox.cif.g08.bks.cpg/sg63_35_cif.got.tgz:68593.got - 2010.06.03 15:47:04.
