data_PCOD9472901
_publ_section_title
;
Structure prediction by ZEFSAII (Michael W. Deem and Ramdas Pophale) SiO2 
 PCOD9472901
Probable space group: C M C M
;
_chemical_formula_sum "Si O2"
_cell_formula_units_Z 96
_cell_length_a 15.707003
_cell_length_b 11.220424
_cell_length_c 24.055455
_cell_angle_alpha 90.000000
_cell_angle_beta 90.000000
_cell_angle_gamma 90.000000
_cell_volume 4239.514949
_symmetry_space_group_name_H-M "C M C M"
_symmetry_group_IT_number 63
_symmetry_cell_setting 'orthorhombic'
loop_
_space_group_symop_operation_xyz
x,y,z
-x,-y,1/2+z
x,-y,-z
-x,y,1/2-z
-x,-y,-z
x,y,1/2-z
-x,y,z
x,-y,1/2+z
1/2+x,1/2+y,z
1/2-x,1/2-y,1/2+z
1/2+x,1/2-y,-z
1/2-x,1/2+y,1/2-z
1/2-x,1/2-y,-z
1/2+x,1/2+y,1/2-z
1/2-x,1/2+y,z
1/2+x,1/2-y,1/2+z
loop_
_atom_site_type_symbol
_atom_site_label
_atom_site_fract_x
_atom_site_fract_y
_atom_site_fract_z
Si Si1 0.097705 0.931053 0.579556
Si Si2 0.897622 0.807807 0.087409
Si Si3 0.624890 0.705039 0.313481
Si Si4 0.673164 0.173138 0.313354
Si Si5 0.104310 0.690924 0.521207
Si Si6 0.098150 0.547140 0.623466
O O1 0.096482 0.898836 0.644773
O O2 0.134848 0.814709 0.549715
O O3 0.000000 0.936151 0.559571
O O4 0.135697 0.061315 0.570752
O O5 0.869309 0.772907 0.148481
O O6 0.000000 0.813540 0.085862
O O7 0.871004 0.707207 0.042757
O O8 0.595712 0.695328 0.250000
O O9 0.726874 0.698261 0.312906
O O10 0.597896 0.829808 0.341419
O O11 0.641719 0.170187 0.250000
O O12 0.652759 0.048910 0.343783
O O13 0.130132 0.584230 0.561942
O O14 0.000000 0.687076 0.523573
O O15 0.000000 0.503520 0.619323
#
# Coordination Sequence:
#
# PCOD9472901 Si02
#       6
#    16  16  16  16  16  16
#     4   9  18  34  59  88 115 145 188 238 287 347
#     4  10  20  35  59  87 118 152 185 232 292 354
#     4  10  22  38  58  81 112 154 198 242 289 341
#     4  11  25  39  55  82 121 159 191 238 297 347
#     4   8  16  34  61  89 112 144 192 240 286 338
#     4  10  21  40  65  87 112 152 203 247 285 346
#
# _framework density 22.644099000000001
#
# number of rings (size 3 to 8) (size 9 to 14) (size 15 to 20)
#    0.000    2.333    0.000    3.000    2.333    6.667 
#    0.000    7.500    7.333    0.000    0.000    0.000 
#    0.000    0.000    0.000    0.000    0.000    0.000 
#
# Total GULP energy -268170.328019 kJ/mol
# GULP energy per Si atom -5586.881834 kJ/mol
# Density = 2.259256 g / cm^3
# Si number density = 22.644099 Si / 1000 Ang^3
#
#
#
# Elastic Constant Matrix: (Units=GPa)
#
#
# Indices 1 2 3 4 5 6 
#
# 1 41.6651 6.2290 8.4167 0.0000 0.0000 0.0000
# 2 6.2290 73.4977 9.8323 0.0000 0.0000 0.0000
# 3 8.4167 9.8323 110.8164 0.0000 0.0000 0.0000
# 4 0.0000 0.0000 0.0000 26.9419 0.0000 0.0000
# 5 0.0000 0.0000 0.0000 0.0000 32.7339 0.0000
# 6 0.0000 0.0000 0.0000 0.0000 0.0000 7.6081
#
#
#
# Elastic Compliance Matrix: (Units=1/GPa)
#
#
# Indices 1 2 3 4 5 6 
#
# 1 0.024623 -0.001859 -0.001705 0.000000 0.000000 0.000000
# 2 -0.001859 0.013910 -0.001093 0.000000 0.000000 0.000000
# 3 -0.001705 -0.001093 0.009250 0.000000 0.000000 0.000000
# 4 0.000000 0.000000 0.000000 0.037117 0.000000 0.000000
# 5 0.000000 0.000000 0.000000 0.000000 0.030549 0.000000
# 6 0.000000 0.000000 0.000000 0.000000 0.000000 0.131439
#
#
# Mechanical properties :
#
#
# Convention : Reuss Voigt Hill
#
# Bulk Modulus (GPa) = 25.99472 30.54837 28.27154
# Shear Modulus (GPa) = 18.58557 26.89018 22.73788
#
# Velocity S-wave (km/s) = 2.86801 3.44977 3.17226
# Velocity P-wave (km/s) = 4.74046 5.42105 5.09214
#
# Compressibility (1/GPa) = 0.03846936
#
# Stress axis : x y z
#
# Youngs Moduli (GPa) = 40.61204 71.89272 108.10312
#
# Poissons Ratio (x) = 0.13363 0.18434
# Poissons Ratio (y) = 0.07549 0.11815
# Poissons Ratio (z) = 0.06925 0.07858
#
# Static dielectric constant tensor:
#      x y z
#    x 1.817010 0.000000 0.000000 
#    y 0.000000 1.837820 0.000000 
#    z 0.000000 0.000000 1.849700 
# 
# From -- ./inp_files/63669.got.cif
#   From: 2010.05.17/outbox.cif.g08.bks.cpg/sg63_32_cif.got.tgz:63669.got - 2010.06.03 15:47:04.
