data_PCOD9472972
_publ_section_title
;
Structure prediction by ZEFSAII (Michael W. Deem and Ramdas Pophale) SiO2 
 PCOD9472972
Probable space group: C M C M
;
_chemical_formula_sum "Si O2"
_cell_formula_units_Z 80
_cell_length_a 7.686915
_cell_length_b 27.772526
_cell_length_c 19.170419
_cell_angle_alpha 90.000000
_cell_angle_beta 90.000000
_cell_angle_gamma 90.000000
_cell_volume 4092.597795
_symmetry_space_group_name_H-M "C M C M"
_symmetry_group_IT_number 63
_symmetry_cell_setting 'orthorhombic'
loop_
_space_group_symop_operation_xyz
x,y,z
-x,-y,1/2+z
x,-y,-z
-x,y,1/2-z
-x,-y,-z
x,y,1/2-z
-x,y,z
x,-y,1/2+z
1/2+x,1/2+y,z
1/2-x,1/2-y,1/2+z
1/2+x,1/2-y,-z
1/2-x,1/2+y,1/2-z
1/2-x,1/2-y,-z
1/2+x,1/2+y,1/2-z
1/2-x,1/2+y,z
1/2+x,1/2-y,1/2+z
loop_
_atom_site_type_symbol
_atom_site_label
_atom_site_fract_x
_atom_site_fract_y
_atom_site_fract_z
Si Si1 0.705565 0.778985 0.105302
Si Si2 0.789705 0.474593 0.107046
Si Si3 0.302839 0.576386 0.750000
Si Si4 0.211162 0.319682 0.957470
Si Si5 0.300484 0.183056 0.750000
Si Si6 0.787826 0.427475 0.962210
O O1 0.500000 0.790373 0.105433
O O2 0.729336 0.722037 0.094662
O O3 0.780182 0.798289 0.177783
O O4 0.774532 0.804052 0.034810
O O5 0.729159 0.454483 0.180613
O O6 0.732400 0.528812 0.087767
O O7 0.000000 0.474376 0.108113
O O8 0.735862 0.441476 0.041265
O O9 0.500000 0.593349 0.750000
O O10 0.194454 0.625390 0.750000
O O11 0.269047 0.373992 0.942519
O O12 0.000000 0.318913 0.957533
O O13 0.500000 0.201462 0.750000
O O14 0.000000 0.427611 0.961833
#
# Coordination Sequence:
#
# PCOD9472972 Si02
#       6
#    16  16   8  16   8  16
#     4   9  18  31  49  73  97 125 162 198 237 288
#     4   9  17  33  55  75  97 128 168 206 240 284
#     4  12  24  34  47  74 107 131 156 195 249 302
#     4   9  16  29  49  73 100 125 155 199 245 284
#     4  10  20  36  55  70  91 127 168 205 239 282
#     4   8  15  30  55  79  94 122 171 213 239 278
#
# _framework density 19.547488000000001
#
# number of rings (size 3 to 8) (size 9 to 14) (size 15 to 20)
#    0.000    2.800    0.000    3.300    0.000    4.000 
#    0.000    9.000    0.000    3.600    0.000    0.000 
#    0.000    0.000    0.000    0.000    0.000    0.000 
#
# Total GULP energy -223095.682085 kJ/mol
# GULP energy per Si atom -5577.392052 kJ/mol
# Density = 1.950300 g / cm^3
# Si number density = 19.547488 Si / 1000 Ang^3
#
#
#
# Elastic Constant Matrix: (Units=GPa)
#
#
# Indices 1 2 3 4 5 6 
#
# 1 33.0416 -15.9167 -1.3428 0.0000 0.0000 0.0000
# 2 -15.9167 120.9761 62.2023 0.0000 0.0000 0.0000
# 3 -1.3428 62.2023 134.0948 0.0000 0.0000 0.0000
# 4 0.0000 0.0000 0.0000 18.0359 0.0000 0.0000
# 5 0.0000 0.0000 0.0000 0.0000 -2.6171 0.0000
# 6 0.0000 0.0000 0.0000 0.0000 0.0000 19.3543
#
#
#
# Elastic Compliance Matrix: (Units=1/GPa)
#
#
# Indices 1 2 3 4 5 6 
#
# 1 0.032799 0.005445 -0.002197 0.000000 0.000000 0.000000
# 2 0.005445 0.011759 -0.005400 0.000000 0.000000 0.000000
# 3 -0.002197 -0.005400 0.009940 0.000000 0.000000 0.000000
# 4 0.000000 0.000000 0.000000 0.055445 0.000000 0.000000
# 5 0.000000 0.000000 0.000000 0.000000 -0.382109 0.000000
# 6 0.000000 0.000000 0.000000 0.000000 0.000000 0.051668
#
#
# Mechanical properties :
#
#
# Convention : Reuss Voigt Hill
#
# Bulk Modulus (GPa) = 19.92302 41.99979 30.96141
# Shear Modulus (GPa) = -25.06746 23.16594 -0.95076
#
# Velocity S-wave (km/s) = -3.58493 3.44628 -0.69817
# Velocity P-wave (km/s) = 2.63085 6.11297 3.90173
#
# Compressibility (1/GPa) = 0.05019318
#
# Stress axis : x y z
#
# Youngs Moduli (GPa) = 30.48914 85.04061 100.60001
#
# Poissons Ratio (x) = -0.46305 0.22106
# Poissons Ratio (y) = -0.16602 0.54325
# Poissons Ratio (z) = 0.06700 0.45923
#
# Static dielectric constant tensor:
#      x y z
#    x 1.754020 0.000000 0.000000 
#    y 0.000000 1.672970 0.000000 
#    z 0.000000 0.000000 1.673010 
# 
# From -- ./inp_files/40566.got.cif
#   From: 2010.05.17/outbox.cif.g08.bks.cpg/sg63_21_cif.got.tgz:40566.got - 2010.06.03 15:47:04.
