data_PCOD9472545
_publ_section_title
;
Structure prediction by ZEFSAII (Michael W. Deem and Ramdas Pophale) SiO2 
 PCOD9472545
Probable space group: C M C M
;
_chemical_formula_sum "Si O2"
_cell_formula_units_Z 80
_cell_length_a 31.191034
_cell_length_b 7.324750
_cell_length_c 17.975522
_cell_angle_alpha 90.000000
_cell_angle_beta 90.000000
_cell_angle_gamma 90.000000
_cell_volume 4106.805070
_symmetry_space_group_name_H-M "C M C M"
_symmetry_group_IT_number 63
_symmetry_cell_setting 'orthorhombic'
loop_
_space_group_symop_operation_xyz
x,y,z
-x,-y,1/2+z
x,-y,-z
-x,y,1/2-z
-x,-y,-z
x,y,1/2-z
-x,y,z
x,-y,1/2+z
1/2+x,1/2+y,z
1/2-x,1/2-y,1/2+z
1/2+x,1/2-y,-z
1/2-x,1/2+y,1/2-z
1/2-x,1/2-y,-z
1/2+x,1/2+y,1/2-z
1/2-x,1/2+y,z
1/2+x,1/2-y,1/2+z
loop_
_atom_site_type_symbol
_atom_site_label
_atom_site_fract_x
_atom_site_fract_y
_atom_site_fract_z
Si Si1 0.201855 0.206857 0.477161
Si Si2 0.373712 0.758719 0.919505
Si Si3 0.047024 0.285643 0.020770
Si Si4 0.588474 0.110545 0.833362
Si Si5 0.163132 0.092705 0.167172
O O1 0.250000 0.250000 0.500000
O O2 0.165541 0.310539 0.524925
O O3 0.195704 0.195025 0.388778
O O4 0.193114 0.000000 0.500000
O O5 0.413622 0.704152 0.973255
O O6 0.356329 0.593299 0.868339
O O7 0.390851 0.928210 0.870287
O O8 0.000000 0.211045 0.002882
O O9 0.047073 0.500000 0.000000
O O10 0.055669 0.297525 0.108699
O O11 0.572090 0.071089 0.750000
O O12 0.625132 0.261964 0.827762
O O13 0.180272 0.056552 0.250000
#
# Coordination Sequence:
#
# PCOD9472545 Si02
#       5
#    16  16  16  16  16
#     4  10  22  36  60  85 111 152 194 239 293 351
#     4  10  20  38  59  81 115 155 199 236 291 351
#     4   9  18  33  57  87 116 152 199 242 286 351
#     4  10  20  34  58  83 113 154 190 239 297 342
#     4  10  21  38  57  84 117 146 192 244 289 344
#
# _framework density 19.479863000000002
#
# number of rings (size 3 to 8) (size 9 to 14) (size 15 to 20)
#    0.000    2.200    2.000    0.600    2.800    0.400 
#    0.000    7.000    0.000    3.000    0.000    0.000 
#    0.000    0.000    0.000    0.000    0.000    0.000 
#
# Total GULP energy -222748.093134 kJ/mol
# GULP energy per Si atom -5568.702328 kJ/mol
# Density = 1.943553 g / cm^3
# Si number density = 19.479863 Si / 1000 Ang^3
#
#
#
# Elastic Constant Matrix: (Units=GPa)
#
#
# Indices 1 2 3 4 5 6 
#
# 1 95.2760 -14.8908 49.2183 0.0000 0.0000 0.0000
# 2 -14.8908 60.6121 14.5003 0.0000 0.0000 0.0000
# 3 49.2183 14.5003 164.5468 0.0000 0.0000 0.0000
# 4 0.0000 0.0000 0.0000 18.7139 0.0000 0.0000
# 5 0.0000 0.0000 0.0000 0.0000 56.0935 0.0000
# 6 0.0000 0.0000 0.0000 0.0000 0.0000 6.1649
#
#
#
# Elastic Compliance Matrix: (Units=1/GPa)
#
#
# Indices 1 2 3 4 5 6 
#
# 1 0.013455 0.004360 -0.004409 0.000000 0.000000 0.000000
# 2 0.004360 0.018267 -0.002914 0.000000 0.000000 0.000000
# 3 -0.004409 -0.002914 0.007653 0.000000 0.000000 0.000000
# 4 0.000000 0.000000 0.000000 0.053436 0.000000 0.000000
# 5 0.000000 0.000000 0.000000 0.000000 0.017827 0.000000
# 6 0.000000 0.000000 0.000000 0.000000 0.000000 0.162210
#
#
# Mechanical properties :
#
#
# Convention : Reuss Voigt Hill
#
# Bulk Modulus (GPa) = 29.89598 46.45449 38.17524
# Shear Modulus (GPa) = 17.24601 34.30160 25.77381
#
# Velocity S-wave (km/s) = 2.97867 4.20083 3.64139
# Velocity P-wave (km/s) = 5.21636 6.88684 6.10897
#
# Compressibility (1/GPa) = 0.03344931
#
# Stress axis : x y z
#
# Youngs Moduli (GPa) = 74.32302 54.74460 130.67114
#
# Poissons Ratio (x) = -0.23870 0.57610
# Poissons Ratio (y) = -0.32406 0.38076
# Poissons Ratio (z) = 0.32767 0.15952
#
# Static dielectric constant tensor:
#      x y z
#    x 1.634620 0.000000 0.000000 
#    y 0.000000 1.711730 0.000000 
#    z 0.000000 0.000000 1.775510 
# 
# From -- ./inp_files/49411.got.cif
#   From: 2010.05.17/outbox.cif.g08.bks.cpg/sg63_25_cif.got.tgz:49411.got - 2010.06.03 15:47:04.
