data_PCOD9472142
_publ_section_title
;
Structure prediction by ZEFSAII (Michael W. Deem and Ramdas Pophale) SiO2 
 PCOD9472142
Probable space group: C M C M
;
_chemical_formula_sum "Si O2"
_cell_formula_units_Z 96
_cell_length_a 9.089628
_cell_length_b 23.929336
_cell_length_c 26.722119
_cell_angle_alpha 90.000000
_cell_angle_beta 90.000000
_cell_angle_gamma 90.000000
_cell_volume 5812.295036
_symmetry_space_group_name_H-M "C M C M"
_symmetry_group_IT_number 63
_symmetry_cell_setting 'orthorhombic'
loop_
_space_group_symop_operation_xyz
x,y,z
-x,-y,1/2+z
x,-y,-z
-x,y,1/2-z
-x,-y,-z
x,y,1/2-z
-x,y,z
x,-y,1/2+z
1/2+x,1/2+y,z
1/2-x,1/2-y,1/2+z
1/2+x,1/2-y,-z
1/2-x,1/2+y,1/2-z
1/2-x,1/2-y,-z
1/2+x,1/2+y,1/2-z
1/2-x,1/2+y,z
1/2+x,1/2-y,1/2+z
loop_
_atom_site_type_symbol
_atom_site_label
_atom_site_fract_x
_atom_site_fract_y
_atom_site_fract_z
Si Si1 0.326038 0.504497 0.121312
Si Si2 0.176113 0.269058 0.947848
Si Si3 0.168622 0.568969 0.959108
Si Si4 0.176763 0.416148 0.191583
Si Si5 0.670446 0.824813 0.111247
Si Si6 0.674840 0.102844 0.072143
O O1 0.500000 0.506107 0.126502
O O2 0.278043 0.469256 0.072118
O O3 0.253444 0.469504 0.166391
O O4 0.259983 0.565932 0.112531
O O5 0.229844 0.226495 0.905141
O O6 0.218063 0.332384 0.933255
O O7 0.000000 0.267337 0.953973
O O8 0.250000 0.250000 0.000000
O O9 0.173692 0.630154 0.933988
O O10 0.000000 0.548145 0.952212
O O11 0.199387 0.575499 0.017384
O O12 0.210600 0.410865 0.250000
O O13 0.217467 0.360941 0.159572
O O14 0.000000 0.422245 0.185456
O O15 0.500000 0.807301 0.117551
O O16 0.500000 0.100469 0.081953
#
# Coordination Sequence:
#
# PCOD9472142 Si02
#       6
#    16  16  16  16  16  16
#     4  11  22  32  47  77 107 130 165 217 267 305
#     4  11  21  33  50  73 104 143 182 215 251 299
#     4   9  17  32  50  68  99 142 178 208 245 301
#     4   9  19  38  62  80  98 132 172 209 258 321
#     4   9  17  32  52  78 105 131 171 216 257 303
#     4  10  20  34  49  67  99 145 184 208 243 304
#
# _framework density 16.516711000000001
#
# number of rings (size 3 to 8) (size 9 to 14) (size 15 to 20)
#    0.000    2.167    1.667    3.500    0.000    7.000 
#    0.000    0.000    0.000    1.000    0.000    4.667 
#    0.000    0.000    0.000    0.000    0.000    0.000 
#
# Total GULP energy -267810.486995 kJ/mol
# GULP energy per Si atom -5579.385146 kJ/mol
# Density = 1.647912 g / cm^3
# Si number density = 16.516711 Si / 1000 Ang^3
#
#
#
# Elastic Constant Matrix: (Units=GPa)
#
#
# Indices 1 2 3 4 5 6 
#
# 1 53.1138 47.2511 40.5611 0.0000 0.0000 0.0000
# 2 47.2511 103.4445 50.1553 0.0000 0.0000 0.0000
# 3 40.5611 50.1553 99.8194 0.0000 0.0000 0.0000
# 4 0.0000 0.0000 0.0000 11.2615 0.0000 0.0000
# 5 0.0000 0.0000 0.0000 0.0000 17.1355 0.0000
# 6 0.0000 0.0000 0.0000 0.0000 0.0000 28.5451
#
#
#
# Elastic Compliance Matrix: (Units=1/GPa)
#
#
# Indices 1 2 3 4 5 6 
#
# 1 0.036491 -0.012532 -0.008531 0.000000 0.000000 0.000000
# 2 -0.012532 0.017084 -0.003492 0.000000 0.000000 0.000000
# 3 -0.008531 -0.003492 0.015239 0.000000 0.000000 0.000000
# 4 0.000000 0.000000 0.000000 0.088798 0.000000 0.000000
# 5 0.000000 0.000000 0.000000 0.000000 0.058359 0.000000
# 6 0.000000 0.000000 0.000000 0.000000 0.000000 0.035032
#
#
# Mechanical properties :
#
#
# Convention : Reuss Voigt Hill
#
# Bulk Modulus (GPa) = 50.74946 59.14584 54.94765
# Shear Modulus (GPa) = 16.30352 19.28243 17.79298
#
# Velocity S-wave (km/s) = 3.14521 3.42050 3.28574
# Velocity P-wave (km/s) = 6.63194 7.17546 6.90905
#
# Compressibility (1/GPa) = 0.01970464
#
# Stress axis : x y z
#
# Youngs Moduli (GPa) = 27.40400 58.53299 65.62013
#
# Poissons Ratio (x) = 0.73353 0.55981
# Poissons Ratio (y) = 0.34342 0.22914
# Poissons Ratio (z) = 0.23379 0.20439
#
# Static dielectric constant tensor:
#      x y z
#    x 1.549480 0.000000 0.000000 
#    y 0.000000 1.574560 0.000000 
#    z 0.000000 0.000000 1.543620 
# 
# From -- ./inp_files/67236.got.cif
#   From: 2010.05.17/outbox.cif.g08.bks.cpg/sg63_34_cif.got.tgz:67236.got - 2010.06.03 15:47:04.
