data_PCOD9472499
_publ_section_title
;
Structure prediction by ZEFSAII (Michael W. Deem and Ramdas Pophale) SiO2 
 PCOD9472499
Probable space group: C M C M
;
_chemical_formula_sum "Si O2"
_cell_formula_units_Z 112
_cell_length_a 26.030962
_cell_length_b 11.523607
_cell_length_c 19.367803
_cell_angle_alpha 90.000000
_cell_angle_beta 90.000000
_cell_angle_gamma 90.000000
_cell_volume 5809.771020
_symmetry_space_group_name_H-M "C M C M"
_symmetry_group_IT_number 63
_symmetry_cell_setting 'orthorhombic'
loop_
_space_group_symop_operation_xyz
x,y,z
-x,-y,1/2+z
x,-y,-z
-x,y,1/2-z
-x,-y,-z
x,y,1/2-z
-x,y,z
x,-y,1/2+z
1/2+x,1/2+y,z
1/2-x,1/2-y,1/2+z
1/2+x,1/2-y,-z
1/2-x,1/2+y,1/2-z
1/2-x,1/2-y,-z
1/2+x,1/2+y,1/2-z
1/2-x,1/2+y,z
1/2+x,1/2-y,1/2+z
loop_
_atom_site_type_symbol
_atom_site_label
_atom_site_fract_x
_atom_site_fract_y
_atom_site_fract_z
Si Si1 0.099905 0.668017 0.614339
Si Si2 0.560140 0.837267 0.537114
Si Si3 0.940460 0.933942 0.068148
Si Si4 0.440118 0.951119 0.824681
Si Si5 0.736503 0.383908 0.669008
Si Si6 0.613739 0.413675 0.669560
Si Si7 0.784339 0.628901 0.665445
O O1 0.088372 0.640232 0.534697
O O2 0.064843 0.587736 0.662504
O O3 0.090595 0.802988 0.629729
O O4 0.158073 0.640597 0.636764
O O5 0.500000 0.871873 0.528589
O O6 0.561270 0.701178 0.552615
O O7 0.582625 0.896254 0.605904
O O8 0.000000 0.967834 0.079582
O O9 0.907465 0.972179 0.133299
O O10 0.921402 0.000000 0.000000
O O11 0.417150 0.920182 0.750000
O O12 0.500000 0.916698 0.823398
O O13 0.750478 0.380504 0.750000
O O14 0.675251 0.404439 0.663715
O O15 0.762222 0.503506 0.642238
O O16 0.744500 0.250021 0.643598
O O17 0.600586 0.407935 0.750000
O O18 0.785814 0.630914 0.750000
#
# Coordination Sequence:
#
# PCOD9472499 Si02
#       7
#    16  16  16  16  16  16  16
#     4  11  19  33  57  85 114 144 185 232 281 335
#     4  10  21  37  57  79 112 157 193 224 276 341
#     4  10  20  36  55  77 108 150 192 225 270 336
#     4  10  21  36  54  80 113 147 187 233 279 329
#     4   8  16  32  53  79 111 147 185 228 284 343
#     4  10  20  34  56  85 113 143 186 237 285 331
#     4   9  17  32  55  82 114 148 186 233 284 341
#
# _framework density 19.277868999999999
#
# number of rings (size 3 to 8) (size 9 to 14) (size 15 to 20)
#    0.000    2.286    1.429    3.000    0.000    2.571 
#    2.571    1.429    0.000    2.571    0.000    0.000 
#    0.000    0.000    0.000    0.000    0.000    0.000 
#
# Total GULP energy -312014.543027 kJ/mol
# GULP energy per Si atom -5571.688268 kJ/mol
# Density = 1.923399 g / cm^3
# Si number density = 19.277869 Si / 1000 Ang^3
#
#
#
# Elastic Constant Matrix: (Units=GPa)
#
#
# Indices 1 2 3 4 5 6 
#
# 1 15.0161 20.1449 22.7476 0.0000 0.0000 0.0000
# 2 20.1449 97.0947 35.5004 0.0000 0.0000 0.0000
# 3 22.7476 35.5004 114.2023 0.0000 0.0000 0.0000
# 4 0.0000 0.0000 0.0000 24.8984 0.0000 0.0000
# 5 0.0000 0.0000 0.0000 0.0000 15.5482 0.0000
# 6 0.0000 0.0000 0.0000 0.0000 0.0000 24.7500
#
#
#
# Elastic Compliance Matrix: (Units=1/GPa)
#
#
# Indices 1 2 3 4 5 6 
#
# 1 0.117661 -0.017874 -0.017880 0.000000 0.000000 0.000000
# 2 -0.017874 0.014335 -0.000896 0.000000 0.000000 0.000000
# 3 -0.017880 -0.000896 0.012596 0.000000 0.000000 0.000000
# 4 0.000000 0.000000 0.000000 0.040163 0.000000 0.000000
# 5 0.000000 0.000000 0.000000 0.000000 0.064316 0.000000
# 6 0.000000 0.000000 0.000000 0.000000 0.000000 0.040404
#
#
# Mechanical properties :
#
#
# Convention : Reuss Voigt Hill
#
# Bulk Modulus (GPa) = 14.02688 42.56653 28.29671
# Shear Modulus (GPa) = 12.93525 22.90067 17.91796
#
# Velocity S-wave (km/s) = 2.59316 3.45037 3.05201
# Velocity P-wave (km/s) = 4.03211 6.16456 5.20863
#
# Compressibility (1/GPa) = 0.07129171
#
# Stress axis : x y z
#
# Youngs Moduli (GPa) = 8.49900 69.75792 79.38795
#
# Poissons Ratio (x) = 1.24688 1.41947
# Poissons Ratio (y) = 0.15191 0.07112
# Poissons Ratio (z) = 0.15196 0.06249
#
# Static dielectric constant tensor:
#      x y z
#    x 1.664830 0.000000 0.000000 
#    y 0.000000 1.717970 0.000000 
#    z 0.000000 0.000000 1.666700 
# 
# From -- ./inp_files/58318.got.cif
#   From: 2010.05.17/outbox.cif.g08.bks.cpg/sg63_30_cif.got.tgz:58318.got - 2010.06.03 15:47:04.
