data_PCOD9472580
_publ_section_title
;
Structure prediction by ZEFSAII (Michael W. Deem and Ramdas Pophale) SiO2 
 PCOD9472580
Probable space group: C M C M
;
_chemical_formula_sum "Si O2"
_cell_formula_units_Z 104
_cell_length_a 24.549654
_cell_length_b 16.795783
_cell_length_c 13.503957
_cell_angle_alpha 90.000000
_cell_angle_beta 90.000000
_cell_angle_gamma 90.000000
_cell_volume 5568.095520
_symmetry_space_group_name_H-M "C M C M"
_symmetry_group_IT_number 63
_symmetry_cell_setting 'orthorhombic'
loop_
_space_group_symop_operation_xyz
x,y,z
-x,-y,1/2+z
x,-y,-z
-x,y,1/2-z
-x,-y,-z
x,y,1/2-z
-x,y,z
x,-y,1/2+z
1/2+x,1/2+y,z
1/2-x,1/2-y,1/2+z
1/2+x,1/2-y,-z
1/2-x,1/2+y,1/2-z
1/2-x,1/2-y,-z
1/2+x,1/2+y,1/2-z
1/2-x,1/2+y,z
1/2+x,1/2-y,1/2+z
loop_
_atom_site_type_symbol
_atom_site_label
_atom_site_fract_x
_atom_site_fract_y
_atom_site_fract_z
Si Si1 0.287127 0.362679 0.864778
Si Si2 0.500000 0.905273 0.000162
Si Si3 0.754728 0.500000 0.000000
Si Si4 0.880726 0.758131 0.558953
Si Si5 0.094885 0.425552 0.861690
Si Si6 0.000000 0.264202 0.368400
Si Si7 0.844365 0.584220 0.867108
Si Si8 0.675806 0.214618 0.363288
O O1 0.278931 0.384135 0.750000
O O2 0.279118 0.438999 0.933466
O O3 0.344759 0.321536 0.881786
O O4 0.239191 0.298130 0.888153
O O5 0.553123 0.884996 0.935883
O O6 0.500000 0.858236 0.102114
O O7 0.500000 0.000000 0.000000
O O8 0.793183 0.446530 0.070680
O O9 0.944611 0.768417 0.581711
O O10 0.863855 0.670435 0.598777
O O11 0.858620 0.761214 0.445696
O O12 0.073050 0.422309 0.750000
O O13 0.109433 0.516724 0.884621
O O14 0.150237 0.374708 0.864053
O O15 0.000000 0.254098 0.250000
O O16 0.833067 0.584536 0.750000
O O17 0.670489 0.244506 0.250000
#
# Coordination Sequence:
#
# PCOD9472580 Si02
#       8
#    16   8   8  16  16   8  16  16
#     4  11  23  40  62  89 121 156 197 244 299 361
#     4  12  23  31  50  73 110 156 208 246 276 324
#     4  12  22  36  58  84 122 150 192 242 302 358
#     4  12  23  42  60  86 119 160 197 249 298 347
#     4  10  20  35  51  75 112 155 200 240 287 339
#     4  12  26  41  56  80 117 160 211 251 287 349
#     4  11  21  34  55  83 117 159 200 239 291 349
#     4  10  20  36  58  86 117 151 192 242 292 355
#
# _framework density 18.677841000000001
#
# number of rings (size 3 to 8) (size 9 to 14) (size 15 to 20)
#    0.000    0.923    4.615    3.462    1.077    1.846 
#    0.000    1.154    0.000    0.462    0.000    0.000 
#    0.000    0.000    0.000    0.000    0.000    0.000 
#
# Total GULP energy -290632.084744 kJ/mol
# GULP energy per Si atom -5589.078553 kJ/mol
# Density = 1.863533 g / cm^3
# Si number density = 18.677841 Si / 1000 Ang^3
#
#
#
# Elastic Constant Matrix: (Units=GPa)
#
#
# Indices 1 2 3 4 5 6 
#
# 1 125.6688 30.3307 40.1351 0.0000 0.0000 0.0000
# 2 30.3307 29.8513 23.3778 0.0000 0.0000 0.0000
# 3 40.1351 23.3778 133.5876 0.0000 0.0000 0.0000
# 4 0.0000 0.0000 0.0000 22.4033 0.0000 0.0000
# 5 0.0000 0.0000 0.0000 0.0000 23.4645 0.0000
# 6 0.0000 0.0000 0.0000 0.0000 0.0000 22.3701
#
#
#
# Elastic Compliance Matrix: (Units=1/GPa)
#
#
# Indices 1 2 3 4 5 6 
#
# 1 0.010808 -0.009779 -0.001536 0.000000 0.000000 0.000000
# 2 -0.009779 0.047667 -0.005404 0.000000 0.000000 0.000000
# 3 -0.001536 -0.005404 0.008893 0.000000 0.000000 0.000000
# 4 0.000000 0.000000 0.000000 0.044636 0.000000 0.000000
# 5 0.000000 0.000000 0.000000 0.000000 0.042618 0.000000
# 6 0.000000 0.000000 0.000000 0.000000 0.000000 0.044703
#
#
# Mechanical properties :
#
#
# Convention : Reuss Voigt Hill
#
# Bulk Modulus (GPa) = 29.47147 52.97722 41.22435
# Shear Modulus (GPa) = 20.48572 26.66516 23.57544
#
# Velocity S-wave (km/s) = 3.31538 3.78251 3.55662
# Velocity P-wave (km/s) = 5.51985 6.89215 6.24382
#
# Compressibility (1/GPa) = 0.03393112
#
# Stress axis : x y z
#
# Youngs Moduli (GPa) = 92.52299 20.97871 112.45002
#
# Poissons Ratio (x) = 0.20515 0.17271
# Poissons Ratio (y) = 0.90477 0.60766
# Poissons Ratio (z) = 0.14211 0.11337
#
# Static dielectric constant tensor:
#      x y z
#    x 1.680760 0.000000 0.000000 
#    y 0.000000 1.632510 0.000000 
#    z 0.000000 0.000000 1.700360 
# 
# From -- ./inp_files/37102.got.cif
#   From: 2010.05.17/outbox.cif.g08.bks.cpg/sg63_19_cif.got.tgz:37102.got - 2010.06.03 15:47:04.
