data_PCOD9472624
_publ_section_title
;
Structure prediction by ZEFSAII (Michael W. Deem and Ramdas Pophale) SiO2 
 PCOD9472624
Probable space group: C M C M
;
_chemical_formula_sum "Si O2"
_cell_formula_units_Z 96
_cell_length_a 7.490441
_cell_length_b 20.694917
_cell_length_c 29.480715
_cell_angle_alpha 90.000000
_cell_angle_beta 90.000000
_cell_angle_gamma 90.000000
_cell_volume 4569.925170
_symmetry_space_group_name_H-M "C M C M"
_symmetry_group_IT_number 63
_symmetry_cell_setting 'orthorhombic'
loop_
_space_group_symop_operation_xyz
x,y,z
-x,-y,1/2+z
x,-y,-z
-x,y,1/2-z
-x,-y,-z
x,y,1/2-z
-x,y,z
x,-y,1/2+z
1/2+x,1/2+y,z
1/2-x,1/2-y,1/2+z
1/2+x,1/2-y,-z
1/2-x,1/2+y,1/2-z
1/2-x,1/2-y,-z
1/2+x,1/2+y,1/2-z
1/2-x,1/2+y,z
1/2+x,1/2-y,1/2+z
loop_
_atom_site_type_symbol
_atom_site_label
_atom_site_fract_x
_atom_site_fract_y
_atom_site_fract_z
Si Si1 0.211726 0.488783 0.801660
Si Si2 0.781870 0.431034 0.519301
Si Si3 0.719309 0.108580 0.379379
Si Si4 0.212259 0.306478 0.464237
Si Si5 0.284442 0.635140 0.698143
Si Si6 0.294784 0.745713 0.867018
O O1 0.284172 0.482772 0.750000
O O2 0.279594 0.438534 0.838982
O O3 0.236626 0.562813 0.817241
O O4 0.000000 0.477499 0.798591
O O5 0.724628 0.500000 0.500000
O O6 0.725486 0.416170 0.570859
O O7 0.724001 0.373247 0.486225
O O8 0.000000 0.430494 0.519544
O O9 0.500000 0.108779 0.380086
O O10 0.781071 0.182146 0.371099
O O11 0.250000 0.250000 0.500000
O O12 0.293026 0.286575 0.416425
O O13 0.000000 0.311269 0.457519
O O14 0.223014 0.641722 0.750000
O O15 0.500000 0.637585 0.697844
O O16 0.214924 0.693433 0.667384
O O17 0.500000 0.755279 0.852435
#
# Coordination Sequence:
#
# PCOD9472624 Si02
#       6
#    16  16  16  16  16  16
#     4   9  18  32  53  79 103 130 170 219 261 301
#     4   9  18  31  49  74 100 132 171 209 249 299
#     4   9  17  31  50  72 102 134 169 213 255 297
#     4  11  21  35  56  78 105 139 173 211 260 312
#     4   9  19  35  54  76 105 140 172 208 261 319
#     4  10  20  35  54  77 105 137 176 218 258 306
#
# _framework density 21.006909
#
# number of rings (size 3 to 8) (size 9 to 14) (size 15 to 20)
#    0.000    2.500    1.667    0.500    2.333    1.333 
#    0.000    4.167    0.000    2.000    0.000    4.667 
#    0.000    0.000    0.000    0.000    0.000    0.000 
#
# Total GULP energy -267987.442529 kJ/mol
# GULP energy per Si atom -5583.071719 kJ/mol
# Density = 2.095910 g / cm^3
# Si number density = 21.006909 Si / 1000 Ang^3
#
#
#
# Elastic Constant Matrix: (Units=GPa)
#
#
# Indices 1 2 3 4 5 6 
#
# 1 59.0928 -1.1270 -3.1762 0.0000 0.0000 0.0000
# 2 -1.1270 239.9647 127.1094 0.0000 0.0000 0.0000
# 3 -3.1762 127.1094 127.8847 0.0000 0.0000 0.0000
# 4 0.0000 0.0000 0.0000 46.7596 0.0000 0.0000
# 5 0.0000 0.0000 0.0000 0.0000 11.4882 0.0000
# 6 0.0000 0.0000 0.0000 0.0000 0.0000 -14.4386
#
#
#
# Elastic Compliance Matrix: (Units=1/GPa)
#
#
# Indices 1 2 3 4 5 6 
#
# 1 0.016956 -0.000303 0.000722 0.000000 0.000000 0.000000
# 2 -0.000303 0.008806 -0.008760 0.000000 0.000000 0.000000
# 3 0.000722 -0.008760 0.016545 0.000000 0.000000 0.000000
# 4 0.000000 0.000000 0.000000 0.021386 0.000000 0.000000
# 5 0.000000 0.000000 0.000000 0.000000 0.087046 0.000000
# 6 0.000000 0.000000 0.000000 0.000000 0.000000 -0.069259
#
#
# Mechanical properties :
#
#
# Convention : Reuss Voigt Hill
#
# Bulk Modulus (GPa) = 39.02533 74.72828 56.87680
# Shear Modulus (GPa) = 46.85890 29.03758 37.94824
#
# Velocity S-wave (km/s) = 4.72809 3.72195 4.25486
# Velocity P-wave (km/s) = 6.95875 7.35669 7.16049
#
# Compressibility (1/GPa) = 0.02562438
#
# Stress axis : x y z
#
# Youngs Moduli (GPa) = 58.97763 113.55613 60.44224
#
# Poissons Ratio (x) = 0.03440 -0.04365
# Poissons Ratio (y) = 0.01787 0.52950
# Poissons Ratio (z) = -0.04259 0.99479
#
# Static dielectric constant tensor:
#      x y z
#    x 1.811350 0.000000 0.000000 
#    y 0.000000 1.724280 0.000000 
#    z 0.000000 0.000000 1.731910 
# 
# From -- ./inp_files/66987.got.cif
#   From: 2010.05.17/outbox.cif.g08.bks.cpg/sg63_34_cif.got.tgz:66987.got - 2010.06.03 15:47:04.
