data_PCOD9472188
_publ_section_title
;
Structure prediction by ZEFSAII (Michael W. Deem and Ramdas Pophale) SiO2 
 PCOD9472188
Probable space group: C M C M
;
_chemical_formula_sum "Si O2"
_cell_formula_units_Z 88
_cell_length_a 22.908093
_cell_length_b 16.666616
_cell_length_c 14.073616
_cell_angle_alpha 90.000000
_cell_angle_beta 90.000000
_cell_angle_gamma 90.000000
_cell_volume 5373.312068
_symmetry_space_group_name_H-M "C M C M"
_symmetry_group_IT_number 63
_symmetry_cell_setting 'orthorhombic'
loop_
_space_group_symop_operation_xyz
x,y,z
-x,-y,1/2+z
x,-y,-z
-x,y,1/2-z
-x,-y,-z
x,y,1/2-z
-x,y,z
x,-y,1/2+z
1/2+x,1/2+y,z
1/2-x,1/2-y,1/2+z
1/2+x,1/2-y,-z
1/2-x,1/2+y,1/2-z
1/2-x,1/2-y,-z
1/2+x,1/2+y,1/2-z
1/2-x,1/2+y,z
1/2+x,1/2-y,1/2+z
loop_
_atom_site_type_symbol
_atom_site_label
_atom_site_fract_x
_atom_site_fract_y
_atom_site_fract_z
Si Si1 0.721410 0.000000 0.000000
Si Si2 0.431102 0.250311 0.637284
Si Si3 0.828548 0.673534 0.972100
Si Si4 0.934324 0.064297 0.365361
Si Si5 0.678447 0.533333 0.637294
Si Si6 0.288120 0.715579 0.637086
O O1 0.683996 0.920422 0.015179
O O2 0.766723 0.008780 0.087294
O O3 0.418103 0.242257 0.750000
O O4 0.500000 0.234813 0.624900
O O5 0.389945 0.194435 0.575100
O O6 0.420694 0.343476 0.609205
O O7 0.778122 0.707679 0.901499
O O8 0.819439 0.718365 0.072379
O O9 0.936127 0.062870 0.250000
O O10 0.000000 0.044095 0.397873
O O11 0.882608 0.005186 0.393864
O O12 0.683479 0.522968 0.750000
O O13 0.683254 0.628229 0.617594
O O14 0.289596 0.730851 0.750000
#
# Coordination Sequence:
#
# PCOD9472188 Si02
#       6
#     8  16  16  16  16  16
#     4  10  22  34  48  74 100 126 172 208 254 304
#     4   9  18  33  54  78 101 128 167 212 255 299
#     4  10  20  34  52  73 100 131 168 218 254 301
#     4   8  15  28  48  73  99 130 164 197 238 289
#     4   9  18  32  48  69 104 134 162 205 246 298
#     4   9  19  33  50  74 102 137 170 200 249 308
#
# _framework density 16.377237000000001
#
# number of rings (size 3 to 8) (size 9 to 14) (size 15 to 20)
#    0.000    2.909    0.000    1.636    7.636    1.455 
#    0.000    1.818    0.000    1.636    0.000    0.000 
#    0.000    0.000    0.000    0.000    0.000    0.000 
#
# Total GULP energy -245303.325999 kJ/mol
# GULP energy per Si atom -5575.075591 kJ/mol
# Density = 1.633996 g / cm^3
# Si number density = 16.377237 Si / 1000 Ang^3
#
#
#
# Elastic Constant Matrix: (Units=GPa)
#
#
# Indices 1 2 3 4 5 6 
#
# 1 81.8389 58.1175 39.2330 0.0000 0.0000 0.0000
# 2 58.1175 56.0961 44.3637 0.0000 0.0000 0.0000
# 3 39.2330 44.3637 77.3199 0.0000 0.0000 0.0000
# 4 0.0000 0.0000 0.0000 24.0689 0.0000 0.0000
# 5 0.0000 0.0000 0.0000 0.0000 -49.5903 0.0000
# 6 0.0000 0.0000 0.0000 0.0000 0.0000 24.5269
#
#
#
# Elastic Compliance Matrix: (Units=1/GPa)
#
#
# Indices 1 2 3 4 5 6 
#
# 1 0.048650 -0.056533 0.007751 0.000000 0.000000 0.000000
# 2 -0.056533 0.098329 -0.027733 0.000000 0.000000 0.000000
# 3 0.007751 -0.027733 0.024912 0.000000 0.000000 0.000000
# 4 0.000000 0.000000 0.000000 0.041547 0.000000 0.000000
# 5 0.000000 0.000000 0.000000 0.000000 -0.020165 0.000000
# 6 0.000000 0.000000 0.000000 0.000000 0.000000 0.040772
#
#
# Mechanical properties :
#
#
# Convention : Reuss Voigt Hill
#
# Bulk Modulus (GPa) = 53.01487 55.40923 54.21205
# Shear Modulus (GPa) = 12.71094 4.70381 8.70738
#
# Velocity S-wave (km/s) = 2.78894 1.69659 2.30831
# Velocity P-wave (km/s) = 6.54311 6.14365 6.34652
#
# Compressibility (1/GPa) = 0.01886263
#
# Stress axis : x y z
#
# Youngs Moduli (GPa) = 20.55501 10.16990 40.14096
#
# Poissons Ratio (x) = 0.57494 -0.31115
# Poissons Ratio (y) = 1.16204 1.11321
# Poissons Ratio (z) = -0.15933 0.28204
#
# Static dielectric constant tensor:
#      x y z
#    x 1.541560 0.000000 0.000000 
#    y 0.000000 1.539990 0.000000 
#    z 0.000000 0.000000 1.573180 
# 
# From -- ./inp_files/36756.got.cif
#   From: 2010.05.17/outbox.cif.g08.bks.cpg/sg63_19_cif.got.tgz:36756.got - 2010.06.03 15:47:04.
