data_PCOD9472851
_publ_section_title
;
Structure prediction by ZEFSAII (Michael W. Deem and Ramdas Pophale) SiO2 
 PCOD9472851
Probable space group: C M C M
;
_chemical_formula_sum "Si O2"
_cell_formula_units_Z 84
_cell_length_a 7.408698
_cell_length_b 24.931737
_cell_length_c 20.814143
_cell_angle_alpha 90.000000
_cell_angle_beta 90.000000
_cell_angle_gamma 90.000000
_cell_volume 3844.615947
_symmetry_space_group_name_H-M "C M C M"
_symmetry_group_IT_number 63
_symmetry_cell_setting 'orthorhombic'
loop_
_space_group_symop_operation_xyz
x,y,z
-x,-y,1/2+z
x,-y,-z
-x,y,1/2-z
-x,-y,-z
x,y,1/2-z
-x,y,z
x,-y,1/2+z
1/2+x,1/2+y,z
1/2-x,1/2-y,1/2+z
1/2+x,1/2-y,-z
1/2-x,1/2+y,1/2-z
1/2-x,1/2-y,-z
1/2+x,1/2+y,1/2-z
1/2-x,1/2+y,z
1/2+x,1/2-y,1/2+z
loop_
_atom_site_type_symbol
_atom_site_label
_atom_site_fract_x
_atom_site_fract_y
_atom_site_fract_z
Si Si1 0.705548 0.581236 0.504884
Si Si2 0.217817 0.055175 0.365219
Si Si3 0.710051 0.826547 0.819697
Si Si4 0.785186 0.302449 0.541320
Si Si5 0.219227 0.063938 0.850012
Si Si6 0.000000 0.394858 0.250000
O O1 0.500000 0.561571 0.507714
O O2 0.784944 0.556686 0.439355
O O3 0.707173 0.644801 0.492006
O O4 0.776269 0.570511 0.575601
O O5 0.281238 0.109144 0.330695
O O6 0.000000 0.059046 0.367565
O O7 0.260302 0.998472 0.333281
O O8 0.790642 0.813565 0.750000
O O9 0.500000 0.811154 0.817131
O O10 0.784970 0.800833 0.885172
O O11 0.750000 0.250000 0.500000
O O12 0.000000 0.311002 0.544836
O O13 0.340220 0.100847 0.805591
O O14 0.000000 0.072185 0.844478
#
# Coordination Sequence:
#
# PCOD9472851 Si02
#       6
#    16  16  16  16  16   4
#     4   9  18  36  59  81 108 144 184 237 289 334
#     4   9  18  32  53  82 113 147 184 226 279 337
#     4   9  19  33  52  79 113 143 177 224 280 343
#     4  10  20  35  58  84 108 140 185 236 288 347
#     4  10  22  38  56  80 115 155 197 239 282 336
#     4  12  26  36  54  78 112 164 204 236 280 330
#
# _framework density 21.848735999999999
#
# number of rings (size 3 to 8) (size 9 to 14) (size 15 to 20)
#    0.000    2.476    0.000    1.429    4.000    3.429 
#    0.000    0.952    2.095    0.000    0.000    0.000 
#    0.000    0.000    0.000    0.000    0.000    0.000 
#
# Total GULP energy -233857.413823 kJ/mol
# GULP energy per Si atom -5568.033662 kJ/mol
# Density = 2.179901 g / cm^3
# Si number density = 21.848736 Si / 1000 Ang^3
#
#
#
# Elastic Constant Matrix: (Units=GPa)
#
#
# Indices 1 2 3 4 5 6 
#
# 1 97.3478 -0.2942 11.3740 0.0000 0.0000 0.0000
# 2 -0.2942 49.2127 41.3350 0.0000 0.0000 0.0000
# 3 11.3740 41.3350 143.1990 0.0000 0.0000 0.0000
# 4 0.0000 0.0000 0.0000 -13.2780 0.0000 0.0000
# 5 0.0000 0.0000 0.0000 0.0000 13.2432 0.0000
# 6 0.0000 0.0000 0.0000 0.0000 0.0000 5.3994
#
#
#
# Elastic Compliance Matrix: (Units=1/GPa)
#
#
# Indices 1 2 3 4 5 6 
#
# 1 0.010406 0.000998 -0.001115 0.000000 0.000000 0.000000
# 2 0.000998 0.026919 -0.007850 0.000000 0.000000 0.000000
# 3 -0.001115 -0.007850 0.009338 0.000000 0.000000 0.000000
# 4 0.000000 0.000000 0.000000 -0.075313 0.000000 0.000000
# 5 0.000000 0.000000 0.000000 0.000000 0.075510 0.000000
# 6 0.000000 0.000000 0.000000 0.000000 0.000000 0.185205
#
#
# Mechanical properties :
#
#
# Convention : Reuss Voigt Hill
#
# Bulk Modulus (GPa) = 32.54076 43.84325 38.19200
# Shear Modulus (GPa) = 19.36185 16.89593 18.12889
#
# Velocity S-wave (km/s) = 2.98010 2.78387 2.88366
# Velocity P-wave (km/s) = 5.17372 5.51756 5.34840
#
# Compressibility (1/GPa) = 0.03073069
#
# Stress axis : x y z
#
# Youngs Moduli (GPa) = 96.10116 37.14851 107.09334
#
# Poissons Ratio (x) = -0.03709 0.11938
# Poissons Ratio (y) = -0.09596 0.84064
# Poissons Ratio (z) = 0.10713 0.29160
#
# Static dielectric constant tensor:
#      x y z
#    x 1.875330 0.000000 0.000000 
#    y 0.000000 1.768510 0.000000 
#    z 0.000000 0.000000 1.973640 
# 
# From -- ./inp_files/51230.got.cif
#   From: 2010.05.17/outbox.cif.g08.bks.cpg/sg63_26_cif.got.tgz:51230.got - 2010.06.03 15:47:04.
