data_PCOD9472898
_publ_section_title
;
Structure prediction by ZEFSAII (Michael W. Deem and Ramdas Pophale) SiO2 
 PCOD9472898
Probable space group: C M C M
;
_chemical_formula_sum "Si O2"
_cell_formula_units_Z 64
_cell_length_a 15.927298
_cell_length_b 12.188537
_cell_length_c 14.599350
_cell_angle_alpha 90.000000
_cell_angle_beta 90.000000
_cell_angle_gamma 90.000000
_cell_volume 2834.178546
_symmetry_space_group_name_H-M "C M C M"
_symmetry_group_IT_number 63
_symmetry_cell_setting 'orthorhombic'
loop_
_space_group_symop_operation_xyz
x,y,z
-x,-y,1/2+z
x,-y,-z
-x,y,1/2-z
-x,-y,-z
x,y,1/2-z
-x,y,z
x,-y,1/2+z
1/2+x,1/2+y,z
1/2-x,1/2-y,1/2+z
1/2+x,1/2-y,-z
1/2-x,1/2+y,1/2-z
1/2-x,1/2-y,-z
1/2+x,1/2+y,1/2-z
1/2-x,1/2+y,z
1/2+x,1/2-y,1/2+z
loop_
_atom_site_type_symbol
_atom_site_label
_atom_site_fract_x
_atom_site_fract_y
_atom_site_fract_z
Si Si1 0.592809 0.468929 0.361180
Si Si2 0.000000 0.550520 0.099561
Si Si3 0.169392 0.190184 0.137806
Si Si4 0.358701 0.771471 0.861118
Si Si5 0.000000 0.695054 0.646921
O O1 0.596425 0.464753 0.250000
O O2 0.500000 0.506861 0.386722
O O3 0.655494 0.563888 0.389672
O O4 0.606893 0.345841 0.393664
O O5 0.080923 0.627827 0.113619
O O6 0.000000 0.436426 0.154575
O O7 0.000000 0.500000 0.000000
O O8 0.170525 0.196841 0.250000
O O9 0.262299 0.222822 0.108139
O O10 0.088582 0.261612 0.106124
O O11 0.359666 0.770258 0.750000
O O12 0.000000 0.742755 0.750000
#
# Coordination Sequence:
#
# PCOD9472898 Si02
#       5
#    16   8  16  16   8
#     4   9  15  28  51  81 114 139 171 224 278 330
#     4  12  26  41  54  76 116 161 197 236 279 332
#     4   9  18  31  56  92 118 138 175 232 292 339
#     4  10  20  35  59  86 110 145 189 233 281 337
#     4  10  20  37  60  87 116 145 180 233 290 342
#
# _framework density 22.581499000000001
#
# number of rings (size 3 to 8) (size 9 to 14) (size 15 to 20)
#    0.000    2.250    2.500    1.125    3.500    0.000 
#    0.000    1.250    0.000    1.500    0.000    0.000 
#    0.000    0.000    0.000    0.000    0.000    0.000 
#
# Total GULP energy -178679.587172 kJ/mol
# GULP energy per Si atom -5583.737099 kJ/mol
# Density = 2.253010 g / cm^3
# Si number density = 22.581499 Si / 1000 Ang^3
#
#
#
# Elastic Constant Matrix: (Units=GPa)
#
#
# Indices 1 2 3 4 5 6 
#
# 1 141.7023 38.6405 4.3209 0.0000 0.0000 0.0000
# 2 38.6405 108.1691 5.3307 0.0000 0.0000 0.0000
# 3 4.3209 5.3307 64.3432 0.0000 0.0000 0.0000
# 4 0.0000 0.0000 0.0000 19.8549 0.0000 0.0000
# 5 0.0000 0.0000 0.0000 0.0000 -12.2731 0.0000
# 6 0.0000 0.0000 0.0000 0.0000 0.0000 -2.9442
#
#
#
# Elastic Compliance Matrix: (Units=1/GPa)
#
#
# Indices 1 2 3 4 5 6 
#
# 1 0.007824 -0.002780 -0.000295 0.000000 0.000000 0.000000
# 2 -0.002780 0.010271 -0.000664 0.000000 0.000000 0.000000
# 3 -0.000295 -0.000664 0.015616 0.000000 0.000000 0.000000
# 4 0.000000 0.000000 0.000000 0.050365 0.000000 0.000000
# 5 0.000000 0.000000 0.000000 0.000000 -0.081479 0.000000
# 6 0.000000 0.000000 0.000000 0.000000 0.000000 -0.339650
#
#
# Mechanical properties :
#
#
# Convention : Reuss Voigt Hill
#
# Bulk Modulus (GPa) = 38.12130 45.64431 41.88281
# Shear Modulus (GPa) = -15.58467 18.65568 1.53550
#
# Velocity S-wave (km/s) = -2.62992 2.87740 0.82551
# Velocity P-wave (km/s) = 2.77422 5.59431 4.41546
#
# Compressibility (1/GPa) = 0.02623205
#
# Stress axis : x y z
#
# Youngs Moduli (GPa) = 127.80792 97.36375 64.03487
#
# Poissons Ratio (x) = 0.27072 0.01889
# Poissons Ratio (y) = 0.35536 0.04253
# Poissons Ratio (z) = 0.03771 0.06467
#
# Static dielectric constant tensor:
#      x y z
#    x 1.813540 0.000000 0.000000 
#    y 0.000000 1.791420 0.000000 
#    z 0.000000 0.000000 1.762330 
# 
# From -- ./inp_files/43470.got.cif
#   From: 2010.05.17/outbox.cif.g08.bks.cpg/sg63_22_cif.got.tgz:43470.got - 2010.06.03 15:47:04.
