data_PCOD9472595
_publ_section_title
;
Structure prediction by ZEFSAII (Michael W. Deem and Ramdas Pophale) SiO2 
 PCOD9472595
Probable space group: C M C M
;
_chemical_formula_sum "Si O2"
_cell_formula_units_Z 68
_cell_length_a 17.694768
_cell_length_b 4.987491
_cell_length_c 32.535657
_cell_angle_alpha 90.000000
_cell_angle_beta 90.000000
_cell_angle_gamma 90.000000
_cell_volume 2871.352944
_symmetry_space_group_name_H-M "C M C M"
_symmetry_group_IT_number 63
_symmetry_cell_setting 'orthorhombic'
loop_
_space_group_symop_operation_xyz
x,y,z
-x,-y,1/2+z
x,-y,-z
-x,y,1/2-z
-x,-y,-z
x,y,1/2-z
-x,y,z
x,-y,1/2+z
1/2+x,1/2+y,z
1/2-x,1/2-y,1/2+z
1/2+x,1/2-y,-z
1/2-x,1/2+y,1/2-z
1/2-x,1/2-y,-z
1/2+x,1/2+y,1/2-z
1/2-x,1/2+y,z
1/2+x,1/2-y,1/2+z
loop_
_atom_site_type_symbol
_atom_site_label
_atom_site_fract_x
_atom_site_fract_y
_atom_site_fract_z
Si Si1 0.408585 0.881490 0.907814
Si Si2 0.300008 0.370809 0.298062
Si Si3 0.000000 0.430709 0.250000
Si Si4 0.416408 0.228593 0.669112
Si Si5 0.092185 0.884567 0.543679
O O1 0.500000 0.869763 0.907409
O O2 0.387735 0.025335 0.865392
O O3 0.385322 0.086011 0.944072
O O4 0.382124 0.587584 0.920392
O O5 0.320650 0.395136 0.250000
O O6 0.270874 0.071815 0.305076
O O7 0.366559 0.510935 0.322975
O O8 0.064599 0.411307 0.213052
O O9 0.500000 0.324631 0.654766
O O10 0.000000 0.884098 0.542619
O O11 0.117402 0.000000 0.500000
#
# Coordination Sequence:
#
# PCOD9472595 Si02
#       5
#    16  16   4  16  16
#     4   9  17  27  45  67  96 129 163 209 244 300
#     4  10  20  35  53  74 101 137 178 220 261 303
#     4   8  16  32  56  74 106 146 178 218 252 314
#     4   9  17  33  55  76 109 138 185 210 263 304
#     4   9  16  27  42  65  96 130 160 195 257 312
#
# _framework density 23.682217000000001
#
# number of rings (size 3 to 8) (size 9 to 14) (size 15 to 20)
#    0.706    2.118    1.176    0.706    0.000    4.706 
#    0.000    3.529    0.000    9.882    0.000    0.000 
#    0.000   18.824    0.000    0.000    0.000    0.000 
#
# Total GULP energy -189399.167535 kJ/mol
# GULP energy per Si atom -5570.563751 kJ/mol
# Density = 2.362832 g / cm^3
# Si number density = 23.682217 Si / 1000 Ang^3
#
#
#
# Elastic Constant Matrix: (Units=GPa)
#
#
# Indices 1 2 3 4 5 6 
#
# 1 30.1915 -2.0710 7.6194 0.0000 0.0000 0.0000
# 2 -2.0710 80.6902 6.4555 0.0000 0.0000 0.0000
# 3 7.6194 6.4555 103.3578 0.0000 0.0000 0.0000
# 4 0.0000 0.0000 0.0000 31.8054 0.0000 0.0000
# 5 0.0000 0.0000 0.0000 0.0000 17.0976 0.0000
# 6 0.0000 0.0000 0.0000 0.0000 0.0000 15.3450
#
#
#
# Elastic Compliance Matrix: (Units=1/GPa)
#
#
# Indices 1 2 3 4 5 6 
#
# 1 0.033842 0.001074 -0.002562 0.000000 0.000000 0.000000
# 2 0.001074 0.012489 -0.000859 0.000000 0.000000 0.000000
# 3 -0.002562 -0.000859 0.009918 0.000000 0.000000 0.000000
# 4 0.000000 0.000000 0.000000 0.031441 0.000000 0.000000
# 5 0.000000 0.000000 0.000000 0.000000 0.058488 0.000000
# 6 0.000000 0.000000 0.000000 0.000000 0.000000 0.065168
#
#
# Mechanical properties :
#
#
# Convention : Reuss Voigt Hill
#
# Bulk Modulus (GPa) = 19.39712 26.47193 22.93453
# Shear Modulus (GPa) = 21.43851 26.33199 23.88525
#
# Velocity S-wave (km/s) = 3.01201 3.33812 3.17925
# Velocity P-wave (km/s) = 4.50607 5.10486 4.81478
#
# Compressibility (1/GPa) = 0.05155404
#
# Stress axis : x y z
#
# Youngs Moduli (GPa) = 29.54906 80.06804 100.83040
#
# Poissons Ratio (x) = -0.08596 0.25831
# Poissons Ratio (y) = -0.03172 0.08663
# Poissons Ratio (z) = 0.07570 0.06879
#
# Static dielectric constant tensor:
#      x y z
#    x 1.957840 0.000000 0.000000 
#    y 0.000000 1.908120 0.000000 
#    z 0.000000 0.000000 1.924150 
# 
# From -- ./inp_files/73995.got.cif
#   From: 2010.05.17/outbox.cif.g08.bks.cpg/sg63_37_cif.got.tgz:73995.got - 2010.06.03 15:47:04.
