data_PCOD9472377
_publ_section_title
;
Structure prediction by ZEFSAII (Michael W. Deem and Ramdas Pophale) SiO2 
 PCOD9472377
Probable space group: C M C M
;
_chemical_formula_sum "Si O2"
_cell_formula_units_Z 80
_cell_length_a 7.577327
_cell_length_b 20.872309
_cell_length_c 23.251069
_cell_angle_alpha 90.000000
_cell_angle_beta 90.000000
_cell_angle_gamma 90.000000
_cell_volume 3677.303289
_symmetry_space_group_name_H-M "C M C M"
_symmetry_group_IT_number 63
_symmetry_cell_setting 'orthorhombic'
loop_
_space_group_symop_operation_xyz
x,y,z
-x,-y,1/2+z
x,-y,-z
-x,y,1/2-z
-x,-y,-z
x,y,1/2-z
-x,y,z
x,-y,1/2+z
1/2+x,1/2+y,z
1/2-x,1/2-y,1/2+z
1/2+x,1/2-y,-z
1/2-x,1/2+y,1/2-z
1/2-x,1/2-y,-z
1/2+x,1/2+y,1/2-z
1/2-x,1/2+y,z
1/2+x,1/2-y,1/2+z
loop_
_atom_site_type_symbol
_atom_site_label
_atom_site_fract_x
_atom_site_fract_y
_atom_site_fract_z
Si Si1 0.704422 0.859250 0.865254
Si Si2 0.713379 0.518930 0.435284
Si Si3 0.283193 0.071218 0.250000
Si Si4 0.292010 0.608170 0.624145
Si Si5 0.210786 0.422619 0.250000
Si Si6 0.787054 0.762701 0.066837
O O1 0.500000 0.845444 0.851878
O O2 0.777857 0.891366 0.807152
O O3 0.781610 0.794729 0.892580
O O4 0.713453 0.914020 0.913711
O O5 0.759209 0.500000 0.500000
O O6 0.500000 0.524312 0.431820
O O7 0.778973 0.460856 0.395307
O O8 0.500000 0.069429 0.250000
O O9 0.224782 0.996836 0.250000
O O10 0.500000 0.605632 0.610623
O O11 0.269995 0.612635 0.692253
O O12 0.219848 0.668780 0.589434
O O13 0.000000 0.424646 0.250000
O O14 0.000000 0.763103 0.072289
O O15 0.750000 0.750000 0.000000
#
# Coordination Sequence:
#
# PCOD9472377 Si02
#       6
#    16  16   8  16   8  16
#     4  10  20  36  58  83 109 144 186 230 280 330
#     4  10  20  34  54  80 111 147 186 229 276 329
#     4   9  18  34  55  81 113 140 178 233 281 325
#     4  10  21  37  57  83 115 151 189 230 283 342
#     4  11  21  36  59  85 115 148 186 239 287 329
#     4  10  22  39  60  84 115 153 190 233 284 338
#
# _framework density 21.755074
#
# number of rings (size 3 to 8) (size 9 to 14) (size 15 to 20)
#    0.000    2.000    2.000    1.500    0.000    4.400 
#    0.000    3.500    0.000    0.000    0.000    0.000 
#    0.000    0.000    0.000    0.000    0.000    0.000 
#
# Total GULP energy -223467.980031 kJ/mol
# GULP energy per Si atom -5586.699501 kJ/mol
# Density = 2.170556 g / cm^3
# Si number density = 21.755074 Si / 1000 Ang^3
#
#
#
# Elastic Constant Matrix: (Units=GPa)
#
#
# Indices 1 2 3 4 5 6 
#
# 1 47.7814 3.2253 -12.9944 0.0000 0.0000 0.0000
# 2 3.2253 83.4957 -10.0672 0.0000 0.0000 0.0000
# 3 -12.9944 -10.0672 63.1391 0.0000 0.0000 0.0000
# 4 0.0000 0.0000 0.0000 42.5616 0.0000 0.0000
# 5 0.0000 0.0000 0.0000 0.0000 11.0740 0.0000
# 6 0.0000 0.0000 0.0000 0.0000 0.0000 8.2118
#
#
#
# Elastic Compliance Matrix: (Units=1/GPa)
#
#
# Indices 1 2 3 4 5 6 
#
# 1 0.022177 -0.000312 0.004514 0.000000 0.000000 0.000000
# 2 -0.000312 0.012216 0.001883 0.000000 0.000000 0.000000
# 3 0.004514 0.001883 0.017067 0.000000 0.000000 0.000000
# 4 0.000000 0.000000 0.000000 0.023495 0.000000 0.000000
# 5 0.000000 0.000000 0.000000 0.000000 0.090302 0.000000
# 6 0.000000 0.000000 0.000000 0.000000 0.000000 0.121776
#
#
# Mechanical properties :
#
#
# Convention : Reuss Voigt Hill
#
# Bulk Modulus (GPa) = 15.71541 17.19374 16.45457
# Shear Modulus (GPa) = 16.88768 26.65297 21.77032
#
# Velocity S-wave (km/s) = 2.78917 3.50399 3.16682
# Velocity P-wave (km/s) = 4.19668 4.92860 4.57729
#
# Compressibility (1/GPa) = 0.06363180
#
# Stress axis : x y z
#
# Youngs Moduli (GPa) = 45.09082 81.86106 58.59106
#
# Poissons Ratio (x) = 0.02557 -0.26451
# Poissons Ratio (y) = 0.01408 -0.11035
# Poissons Ratio (z) = -0.20356 -0.15418
#
# Static dielectric constant tensor:
#      x y z
#    x 1.844390 0.000000 0.000000 
#    y 0.000000 1.778210 0.000000 
#    z 0.000000 0.000000 1.759990 
# 
# From -- ./inp_files/59540.got.cif
#   From: 2010.05.17/outbox.cif.g08.bks.cpg/sg63_30_cif.got.tgz:59540.got - 2010.06.03 15:47:04.
