data_PCOD9472415
_publ_section_title
;
Structure prediction by ZEFSAII (Michael W. Deem and Ramdas Pophale) SiO2 
 PCOD9472415
Probable space group: C M C M
;
_chemical_formula_sum "Si O2"
_cell_formula_units_Z 76
_cell_length_a 18.143426
_cell_length_b 27.451452
_cell_length_c 7.434010
_cell_angle_alpha 90.000000
_cell_angle_beta 90.000000
_cell_angle_gamma 90.000000
_cell_volume 3702.608207
_symmetry_space_group_name_H-M "C M C M"
_symmetry_group_IT_number 63
_symmetry_cell_setting 'orthorhombic'
loop_
_space_group_symop_operation_xyz
x,y,z
-x,-y,1/2+z
x,-y,-z
-x,y,1/2-z
-x,-y,-z
x,y,1/2-z
-x,y,z
x,-y,1/2+z
1/2+x,1/2+y,z
1/2-x,1/2-y,1/2+z
1/2+x,1/2-y,-z
1/2-x,1/2+y,1/2-z
1/2-x,1/2-y,-z
1/2+x,1/2+y,1/2-z
1/2-x,1/2+y,z
1/2+x,1/2-y,1/2+z
loop_
_atom_site_type_symbol
_atom_site_label
_atom_site_fract_x
_atom_site_fract_y
_atom_site_fract_z
Si Si1 0.893088 0.316538 0.043194
Si Si2 0.580661 0.295896 0.968090
Si Si3 0.661436 0.556940 0.465103
Si Si4 0.000000 0.941930 0.964641
Si Si5 0.230710 0.847845 0.532174
Si Si6 0.000000 0.644671 0.250000
O O1 0.915473 0.322902 0.250000
O O2 0.913272 0.261253 0.987519
O O3 0.805377 0.323762 0.033723
O O4 0.935739 0.351296 0.907533
O O5 0.580562 0.299964 0.750000
O O6 0.500000 0.314337 0.028924
O O7 0.655276 0.321821 0.028807
O O8 0.674543 0.500000 0.500000
O O9 0.656977 0.561280 0.250000
O O10 0.580238 0.573013 0.534663
O O11 0.721923 0.595703 0.524750
O O12 0.000000 0.932099 0.750000
O O13 0.000000 0.000000 0.000000
O O14 0.232829 0.845161 0.750000
#
# Coordination Sequence:
#
# PCOD9472415 Si02
#       6
#    16  16  16   8  16   4
#     4  11  22  39  60  87 117 153 194 243 293 348
#     4   9  18  33  54  81 116 156 200 238 283 342
#     4   9  18  31  51  75 110 151 197 238 289 338
#     4   8  14  26  43  68  97 142 189 230 266 323
#     4  10  20  34  54  83 118 154 196 245 294 343
#     4  12  22  40  66  82 118 148 200 236 296 360
#
# _framework density 20.526071000000002
#
# number of rings (size 3 to 8) (size 9 to 14) (size 15 to 20)
#    0.000    2.316    2.105    0.947    1.474    0.842 
#    1.895    0.000    0.000    0.000    2.737    0.737 
#    0.000    0.000    0.000    0.000    0.000    0.000 
#
# Total GULP energy -211560.214919 kJ/mol
# GULP energy per Si atom -5567.374077 kJ/mol
# Density = 2.047935 g / cm^3
# Si number density = 20.526071 Si / 1000 Ang^3
#
#
#
# Elastic Constant Matrix: (Units=GPa)
#
#
# Indices 1 2 3 4 5 6 
#
# 1 165.4389 38.6420 10.3596 0.0000 0.0000 0.0000
# 2 38.6420 46.0932 3.2134 0.0000 0.0000 0.0000
# 3 10.3596 3.2134 86.2980 0.0000 0.0000 0.0000
# 4 0.0000 0.0000 0.0000 5.3776 0.0000 0.0000
# 5 0.0000 0.0000 0.0000 0.0000 0.3700 0.0000
# 6 0.0000 0.0000 0.0000 0.0000 0.0000 40.5031
#
#
#
# Elastic Compliance Matrix: (Units=1/GPa)
#
#
# Indices 1 2 3 4 5 6 
#
# 1 0.007555 -0.006287 -0.000673 0.000000 0.000000 0.000000
# 2 -0.006287 0.026983 -0.000250 0.000000 0.000000 0.000000
# 3 -0.000673 -0.000250 0.011678 0.000000 0.000000 0.000000
# 4 0.000000 0.000000 0.000000 0.185956 0.000000 0.000000
# 5 0.000000 0.000000 0.000000 0.000000 2.703052 0.000000
# 6 0.000000 0.000000 0.000000 0.000000 0.000000 0.024689
#
#
# Mechanical properties :
#
#
# Convention : Reuss Voigt Hill
#
# Bulk Modulus (GPa) = 31.44991 44.69555 38.07273
# Shear Modulus (GPa) = 1.67508 25.62447 13.64977
#
# Velocity S-wave (km/s) = 0.90435 3.53708 2.58155
# Velocity P-wave (km/s) = 4.05532 6.20512 5.24162
#
# Compressibility (1/GPa) = 0.03179659
#
# Stress axis : x y z
#
# Youngs Moduli (GPa) = 132.36083 37.06014 85.63227
#
# Poissons Ratio (x) = 0.23299 0.05762
# Poissons Ratio (y) = 0.83214 0.02141
# Poissons Ratio (z) = 0.08906 0.00927
#
# Static dielectric constant tensor:
#      x y z
#    x 1.733780 0.000000 0.000000 
#    y 0.000000 1.737470 0.000000 
#    z 0.000000 0.000000 1.779810 
# 
# From -- ./inp_files/6497.got.cif
#   From: 2010.05.17/outbox.cif.g08.bks.cpg/sg63_4_cif.got.tgz:6497.got - 2010.06.03 15:47:04.
