data_PCOD9472085
_publ_section_title
;
Structure prediction by ZEFSAII (Michael W. Deem and Ramdas Pophale) SiO2 
 PCOD9472085
Probable space group: C M C M
;
_chemical_formula_sum "Si O2"
_cell_formula_units_Z 96
_cell_length_a 8.558095
_cell_length_b 25.683610
_cell_length_c 24.344776
_cell_angle_alpha 90.000000
_cell_angle_beta 90.000000
_cell_angle_gamma 90.000000
_cell_volume 5351.049305
_symmetry_space_group_name_H-M "C M C M"
_symmetry_group_IT_number 63
_symmetry_cell_setting 'orthorhombic'
loop_
_space_group_symop_operation_xyz
x,y,z
-x,-y,1/2+z
x,-y,-z
-x,y,1/2-z
-x,-y,-z
x,y,1/2-z
-x,y,z
x,-y,1/2+z
1/2+x,1/2+y,z
1/2-x,1/2-y,1/2+z
1/2+x,1/2-y,-z
1/2-x,1/2+y,1/2-z
1/2-x,1/2-y,-z
1/2+x,1/2+y,1/2-z
1/2-x,1/2+y,z
1/2+x,1/2-y,1/2+z
loop_
_atom_site_type_symbol
_atom_site_label
_atom_site_fract_x
_atom_site_fract_y
_atom_site_fract_z
Si Si1 0.187356 0.104225 0.250000
Si Si2 0.187106 0.977643 0.059274
Si Si3 0.187185 0.431975 0.865699
Si Si4 0.311556 0.831043 0.937060
Si Si5 0.688677 0.765704 0.132057
Si Si6 0.689009 0.138824 0.559872
Si Si7 0.690562 0.274461 0.750000
O O1 0.249310 0.077189 0.304837
O O2 0.238723 0.164953 0.250000
O O3 0.000000 0.103532 0.250000
O O4 0.245733 0.918948 0.066220
O O5 0.000000 0.978377 0.059940
O O6 0.250421 0.016085 0.105818
O O7 0.240758 0.000000 0.000000
O O8 0.236169 0.382360 0.902887
O O9 0.000000 0.433243 0.864744
O O10 0.500000 0.827543 0.935422
O O11 0.242208 0.780462 0.908103
O O12 0.263583 0.838535 0.000270
O O13 0.500000 0.765732 0.132842
O O14 0.739861 0.820741 0.106796
O O15 0.743325 0.752920 0.193788
O O16 0.500000 0.135906 0.560184
O O17 0.500000 0.273858 0.750000
#
# Coordination Sequence:
#
# PCOD9472085 Si02
#       7
#     8  16  16  16  16  16   8
#     4  11  21  37  60  85 118 151 190 240 287 335
#     4  11  23  38  59  85 113 150 195 241 291 348
#     4  11  22  37  59  86 117 150 191 238 289 344
#     4  10  20  33  53  83 116 146 183 234 290 342
#     4  10  20  35  56  81 112 149 191 231 285 348
#     4  10  21  37  56  81 114 154 190 234 290 348
#     4   9  18  33  54  81 110 145 184 228 273 331
#
# _framework density 17.940407
#
# number of rings (size 3 to 8) (size 9 to 14) (size 15 to 20)
#    0.000    1.667    3.333    1.750    0.000    2.667 
#    0.000    1.250    0.000    2.000    0.000    0.000 
#    0.000    0.000    0.000    0.000    0.000    0.000 
#
# Total GULP energy -268140.524455 kJ/mol
# GULP energy per Si atom -5586.260926 kJ/mol
# Density = 1.789957 g / cm^3
# Si number density = 17.940407 Si / 1000 Ang^3
#
#
#
# Elastic Constant Matrix: (Units=GPa)
#
#
# Indices 1 2 3 4 5 6 
#
# 1 20.3541 33.2996 33.9761 0.0000 0.0000 0.0000
# 2 33.2996 176.5023 107.5578 0.0000 0.0000 0.0000
# 3 33.9761 107.5578 174.5512 0.0000 0.0000 0.0000
# 4 0.0000 0.0000 0.0000 35.0357 0.0000 0.0000
# 5 0.0000 0.0000 0.0000 0.0000 16.6842 0.0000
# 6 0.0000 0.0000 0.0000 0.0000 0.0000 27.6718
#
#
#
# Elastic Compliance Matrix: (Units=1/GPa)
#
#
# Indices 1 2 3 4 5 6 
#
# 1 0.080946 -0.009079 -0.010161 0.000000 0.000000 0.000000
# 2 -0.009079 0.010091 -0.004451 0.000000 0.000000 0.000000
# 3 -0.010161 -0.004451 0.010449 0.000000 0.000000 0.000000
# 4 0.000000 0.000000 0.000000 0.028542 0.000000 0.000000
# 5 0.000000 0.000000 0.000000 0.000000 0.059937 0.000000
# 6 0.000000 0.000000 0.000000 0.000000 0.000000 0.036138
#
#
# Mechanical properties :
#
#
# Convention : Reuss Voigt Hill
#
# Bulk Modulus (GPa) = 18.48309 80.11939 49.30124
# Shear Modulus (GPa) = 17.15145 28.98327 23.06736
#
# Velocity S-wave (km/s) = 3.09532 4.02373 3.58966
# Velocity P-wave (km/s) = 4.80620 8.14511 6.68739
#
# Compressibility (1/GPa) = 0.05410351
#
# Stress axis : x y z
#
# Youngs Moduli (GPa) = 12.35389 99.10113 95.70039
#
# Poissons Ratio (x) = 0.89978 0.97244
# Poissons Ratio (y) = 0.11217 0.42592
# Poissons Ratio (z) = 0.12553 0.44105
#
# Static dielectric constant tensor:
#      x y z
#    x 1.605090 0.000000 0.000000 
#    y 0.000000 1.581300 0.000000 
#    z 0.000000 0.000000 1.603420 
# 
# From -- ./inp_files/60090.got.cif
#   From: 2010.05.17/outbox.cif.g08.bks.cpg/sg63_31_cif.got.tgz:60090.got - 2010.06.03 15:47:04.
