data_PCOD9472814
_publ_section_title
;
Structure prediction by ZEFSAII (Michael W. Deem and Ramdas Pophale) SiO2 
 PCOD9472814
Probable space group: C M C M
;
_chemical_formula_sum "Si O2"
_cell_formula_units_Z 72
_cell_length_a 17.291233
_cell_length_b 25.234098
_cell_length_c 8.568655
_cell_angle_alpha 90.000000
_cell_angle_beta 90.000000
_cell_angle_gamma 90.000000
_cell_volume 3738.749823
_symmetry_space_group_name_H-M "C M C M"
_symmetry_group_IT_number 63
_symmetry_cell_setting 'orthorhombic'
loop_
_space_group_symop_operation_xyz
x,y,z
-x,-y,1/2+z
x,-y,-z
-x,y,1/2-z
-x,-y,-z
x,y,1/2-z
-x,y,z
x,-y,1/2+z
1/2+x,1/2+y,z
1/2-x,1/2-y,1/2+z
1/2+x,1/2-y,-z
1/2-x,1/2+y,1/2-z
1/2-x,1/2-y,-z
1/2+x,1/2+y,1/2-z
1/2-x,1/2+y,z
1/2+x,1/2-y,1/2+z
loop_
_atom_site_type_symbol
_atom_site_label
_atom_site_fract_x
_atom_site_fract_y
_atom_site_fract_z
Si Si1 0.911315 0.057109 0.561769
Si Si2 0.584832 0.739535 0.437927
Si Si3 0.000000 0.559821 0.064518
Si Si4 0.697341 0.347203 0.061622
Si Si5 0.874921 0.359084 0.438608
O O1 0.910599 0.056141 0.750000
O O2 0.856248 0.104150 0.508671
O O3 0.000000 0.065791 0.510228
O O4 0.886063 0.000000 0.500000
O O5 0.587593 0.736551 0.250000
O O6 0.500000 0.719254 0.490303
O O7 0.655818 0.705897 0.503277
O O8 0.591431 0.801335 0.480583
O O9 0.000000 0.557501 0.250000
O O10 0.000000 0.500000 0.000000
O O11 0.925685 0.593624 0.007631
O O12 0.697676 0.345503 0.250000
O O13 0.785315 0.357069 0.011631
O O14 0.878107 0.363686 0.250000
#
# Coordination Sequence:
#
# PCOD9472814 Si02
#       5
#    16  16   8  16  16
#     4   9  18  33  51  74 107 145 186 231 280 336
#     4  10  20  35  57  84 120 161 195 238 296 355
#     4  12  26  44  68  92 116 156 205 252 305 364
#     4  10  21  35  57  87 117 152 193 244 299 355
#     4  10  21  41  62  84 120 155 191 246 306 356
#
# _framework density 19.257774999999999
#
# number of rings (size 3 to 8) (size 9 to 14) (size 15 to 20)
#    0.000    2.000    1.111    2.333    0.000    4.889 
#    0.000    4.444    0.000    0.000    0.000    0.000 
#    0.000    0.000    0.000    0.000    0.000    0.000 
#
# Total GULP energy -201025.352549 kJ/mol
# GULP energy per Si atom -5584.037571 kJ/mol
# Density = 1.921394 g / cm^3
# Si number density = 19.257775 Si / 1000 Ang^3
#
#
#
# Elastic Constant Matrix: (Units=GPa)
#
#
# Indices 1 2 3 4 5 6 
#
# 1 148.1000 92.4078 35.6482 0.0000 0.0000 0.0000
# 2 92.4078 151.8495 34.5627 0.0000 0.0000 0.0000
# 3 35.6482 34.5627 22.3263 0.0000 0.0000 0.0000
# 4 0.0000 0.0000 0.0000 29.5341 0.0000 0.0000
# 5 0.0000 0.0000 0.0000 0.0000 21.6770 0.0000
# 6 0.0000 0.0000 0.0000 0.0000 0.0000 0.0072
#
#
#
# Elastic Compliance Matrix: (Units=1/GPa)
#
#
# Indices 1 2 3 4 5 6 
#
# 1 0.012971 -0.004909 -0.013111 0.000000 0.000000 0.000000
# 2 -0.004909 0.012027 -0.010779 0.000000 0.000000 0.000000
# 3 -0.013111 -0.010779 0.082411 0.000000 0.000000 0.000000
# 4 0.000000 0.000000 0.000000 0.033859 0.000000 0.000000
# 5 0.000000 0.000000 0.000000 0.000000 0.046132 0.000000
# 6 0.000000 0.000000 0.000000 0.000000 0.000000139.178782
#
#
# Mechanical properties :
#
#
# Convention : Reuss Voigt Hill
#
# Bulk Modulus (GPa) = 20.07629 71.94592 46.01111
# Shear Modulus (GPa) = 0.03586 20.88746 10.46166
#
# Velocity S-wave (km/s) = 0.13660 3.29694 2.33329
# Velocity P-wave (km/s) = 3.23613 7.20650 5.58597
#
# Compressibility (1/GPa) = 0.04980999
#
# Stress axis : x y z
#
# Youngs Moduli (GPa) = 77.09283 83.14934 12.13427
#
# Poissons Ratio (x) = 0.40822 0.15909
# Poissons Ratio (y) = 0.37849 0.13080
# Poissons Ratio (z) = 1.01077 0.89627
#
# Static dielectric constant tensor:
#      x y z
#    x 1.685530 0.000000 0.000000 
#    y 0.000000 1.646990 0.000000 
#    z 0.000000 0.000000 1.657960 
# 
# From -- ./inp_files/6091.got.cif
#   From: 2010.05.17/outbox.cif.g08.bks.cpg/sg63_4_cif.got.tgz:6091.got - 2010.06.03 15:47:04.
