data_PCOD9472006
_publ_section_title
;
Structure prediction by ZEFSAII (Michael W. Deem and Ramdas Pophale) SiO2 
 PCOD9472006
Probable space group: C M C M
;
_chemical_formula_sum "Si O2"
_cell_formula_units_Z 112
_cell_length_a 15.447306
_cell_length_b 27.207427
_cell_length_c 15.354505
_cell_angle_alpha 90.000000
_cell_angle_beta 90.000000
_cell_angle_gamma 90.000000
_cell_volume 6453.213631
_symmetry_space_group_name_H-M "C M C M"
_symmetry_group_IT_number 63
_symmetry_cell_setting 'orthorhombic'
loop_
_space_group_symop_operation_xyz
x,y,z
-x,-y,1/2+z
x,-y,-z
-x,y,1/2-z
-x,-y,-z
x,y,1/2-z
-x,y,z
x,-y,1/2+z
1/2+x,1/2+y,z
1/2-x,1/2-y,1/2+z
1/2+x,1/2-y,-z
1/2-x,1/2+y,1/2-z
1/2-x,1/2-y,-z
1/2+x,1/2+y,1/2-z
1/2-x,1/2+y,z
1/2+x,1/2-y,1/2+z
loop_
_atom_site_type_symbol
_atom_site_label
_atom_site_fract_x
_atom_site_fract_y
_atom_site_fract_z
Si Si1 0.400407 0.058086 0.988812
Si Si2 0.322719 0.692613 0.848826
Si Si3 0.400062 0.551026 0.551018
Si Si4 0.902219 0.841481 0.977912
Si Si5 0.257083 0.702333 0.147990
Si Si6 0.900093 0.371565 0.649724
Si Si7 0.740247 0.913841 0.152610
O O1 0.500000 0.068299 0.963282
O O2 0.333315 0.075951 0.917219
O O3 0.384679 0.085668 0.080055
O O4 0.390589 0.000000 0.000000
O O5 0.358766 0.697993 0.750000
O O6 0.266708 0.740943 0.868237
O O7 0.264044 0.643798 0.848920
O O8 0.389855 0.682550 0.926295
O O9 0.387340 0.500000 0.500000
O O10 0.500000 0.552278 0.582622
O O11 0.389067 0.599712 0.490801
O O12 0.327844 0.557807 0.624656
O O13 0.831124 0.818575 0.914325
O O14 0.000000 0.833229 0.947033
O O15 0.281427 0.697244 0.250000
O O16 0.169171 0.671211 0.134425
O O17 0.890244 0.388403 0.750000
O O18 0.000000 0.354694 0.639687
O O19 0.714000 0.927803 0.250000
#
# Coordination Sequence:
#
# PCOD9472006 Si02
#       7
#    16  16  16  16  16  16  16
#     4  10  21  36  53  74 103 136 168 209 258 303
#     4   9  19  35  53  74 101 133 169 212 258 296
#     4   9  18  34  54  75 103 136 169 210 256 299
#     4  10  20  33  52  77 104 137 172 205 246 299
#     4  10  20  35  54  75 105 138 166 206 255 302
#     4   9  18  33  54  78 100 127 168 214 258 303
#     4  10  20  34  53  76 103 135 172 210 248 300
#
# _framework density 17.355694
#
# number of rings (size 3 to 8) (size 9 to 14) (size 15 to 20)
#    0.000    2.429    0.000    2.571    0.000    2.286 
#    0.000   10.000    0.000    5.143    0.000    0.000 
#    0.000    0.000    0.000    0.000    0.000    0.000 
#
# Total GULP energy -312229.813587 kJ/mol
# GULP energy per Si atom -5575.532385 kJ/mol
# Density = 1.731619 g / cm^3
# Si number density = 17.355694 Si / 1000 Ang^3
#
#
#
# Elastic Constant Matrix: (Units=GPa)
#
#
# Indices 1 2 3 4 5 6 
#
# 1 95.4089 53.2373 76.5577 0.0000 0.0000 0.0000
# 2 53.2373 86.4715 52.8995 0.0000 0.0000 0.0000
# 3 76.5577 52.8995 97.4835 0.0000 0.0000 0.0000
# 4 0.0000 0.0000 0.0000 17.2725 0.0000 0.0000
# 5 0.0000 0.0000 0.0000 0.0000 -2.4062 0.0000
# 6 0.0000 0.0000 0.0000 0.0000 0.0000 12.1698
#
#
#
# Elastic Compliance Matrix: (Units=1/GPa)
#
#
# Indices 1 2 3 4 5 6 
#
# 1 0.030378 -0.006149 -0.020520 0.000000 0.000000 0.000000
# 2 -0.006149 0.018556 -0.005240 0.000000 0.000000 0.000000
# 3 -0.020520 -0.005240 0.029217 0.000000 0.000000 0.000000
# 4 0.000000 0.000000 0.000000 0.057896 0.000000 0.000000
# 5 0.000000 0.000000 0.000000 0.000000 -0.415586 0.000000
# 6 0.000000 0.000000 0.000000 0.000000 0.000000 0.082170
#
#
# Mechanical properties :
#
#
# Convention : Reuss Voigt Hill
#
# Bulk Modulus (GPa) = 69.77450 71.63923 70.70686
# Shear Modulus (GPa) = -38.82873 11.85185 -13.48844
#
# Velocity S-wave (km/s) = -4.73507 2.61603 -2.79081
# Velocity P-wave (km/s) = 3.22419 7.10574 5.51756
#
# Compressibility (1/GPa) = 0.01433188
#
# Stress axis : x y z
#
# Youngs Moduli (GPa) = 32.91811 53.89058 34.22634
#
# Poissons Ratio (x) = 0.33139 0.70234
# Poissons Ratio (y) = 0.20242 0.17935
# Poissons Ratio (z) = 0.67549 0.28240
#
# Static dielectric constant tensor:
#      x y z
#    x 1.575610 0.000000 0.000000 
#    y 0.000000 1.576390 0.000000 
#    z 0.000000 0.000000 1.588020 
# 
# From -- ./inp_files/32501.got.cif
#   From: 2010.05.17/outbox.cif.g08.bks.cpg/sg63_17_cif.got.tgz:32501.got - 2010.06.03 15:47:04.
