data_PCOD9472700
_publ_section_title
;
Structure prediction by ZEFSAII (Michael W. Deem and Ramdas Pophale) SiO2 
 PCOD9472700
Probable space group: C M C M
;
_chemical_formula_sum "Si O2"
_cell_formula_units_Z 116
_cell_length_a 9.700914
_cell_length_b 25.412022
_cell_length_c 27.113268
_cell_angle_alpha 90.000000
_cell_angle_beta 90.000000
_cell_angle_gamma 90.000000
_cell_volume 6683.958489
_symmetry_space_group_name_H-M "C M C M"
_symmetry_group_IT_number 63
_symmetry_cell_setting 'orthorhombic'
loop_
_space_group_symop_operation_xyz
x,y,z
-x,-y,1/2+z
x,-y,-z
-x,y,1/2-z
-x,-y,-z
x,y,1/2-z
-x,y,z
x,-y,1/2+z
1/2+x,1/2+y,z
1/2-x,1/2-y,1/2+z
1/2+x,1/2-y,-z
1/2-x,1/2+y,1/2-z
1/2-x,1/2-y,-z
1/2+x,1/2+y,1/2-z
1/2-x,1/2+y,z
1/2+x,1/2-y,1/2+z
loop_
_atom_site_type_symbol
_atom_site_label
_atom_site_fract_x
_atom_site_fract_y
_atom_site_fract_z
Si Si1 0.337652 0.456794 0.190602
Si Si2 0.160358 0.801805 0.555975
Si Si3 0.240108 0.167699 0.165876
Si Si4 0.664740 0.135345 0.639782
Si Si5 0.847019 0.220146 0.691363
Si Si6 0.000000 0.834790 0.750000
Si Si7 0.346213 0.055580 0.190723
Si Si8 0.162536 0.320420 0.464800
O O1 0.324555 0.449714 0.250000
O O2 0.500000 0.454325 0.178756
O O3 0.248529 0.412469 0.163572
O O4 0.270543 0.513173 0.177857
O O5 0.186258 0.822417 0.610729
O O6 0.193915 0.739303 0.553378
O O7 0.251143 0.829422 0.514043
O O8 0.000000 0.807406 0.543559
O O9 0.331274 0.218403 0.179713
O O10 0.119778 0.165390 0.206565
O O11 0.319002 0.112513 0.168205
O O12 0.500000 0.131627 0.648027
O O13 0.726744 0.187621 0.665202
O O14 0.689921 0.141621 0.581335
O O15 0.835548 0.212347 0.750000
O O16 0.000000 0.201592 0.675776
O O17 0.340967 0.061798 0.250000
O O18 0.500000 0.036145 0.177940
O O19 0.000000 0.322519 0.475824
#
# Coordination Sequence:
#
# PCOD9472700 Si02
#       8
#    16  16  16  16  16   4  16  16
#     4  10  22  38  58  83 114 150 194 239 287 344
#     4  10  20  35  55  81 112 147 193 232 279 338
#     4  12  22  35  57  84 120 154 187 228 286 344
#     4  11  22  37  58  81 111 149 191 237 288 341
#     4  11  23  35  50  78 117 152 187 229 282 343
#     4  12  24  32  58  88 124 158 190 228 288 354
#     4  10  21  37  57  81 114 151 194 236 281 342
#     4   9  20  37  55  78 110 148 193 240 281 333
#
# _framework density 17.354986
#
# number of rings (size 3 to 8) (size 9 to 14) (size 15 to 20)
#    0.000    1.517    3.448    1.655    1.931    6.069 
#    0.000    0.000    0.000    0.828    0.000    4.828 
#    0.000    0.000    0.000    0.000    0.000    0.000 
#
# Total GULP energy -323193.390802 kJ/mol
# GULP energy per Si atom -5572.299841 kJ/mol
# Density = 1.731549 g / cm^3
# Si number density = 17.354986 Si / 1000 Ang^3
#
#
#
# Elastic Constant Matrix: (Units=GPa)
#
#
# Indices 1 2 3 4 5 6 
#
# 1 102.1406 36.4141 60.5753 0.0000 0.0000 0.0000
# 2 36.4141 69.9224 30.3125 0.0000 0.0000 0.0000
# 3 60.5753 30.3125 104.4561 0.0000 0.0000 0.0000
# 4 0.0000 0.0000 0.0000 9.4981 0.0000 0.0000
# 5 0.0000 0.0000 0.0000 0.0000 23.3901 0.0000
# 6 0.0000 0.0000 0.0000 0.0000 0.0000 4.9492
#
#
#
# Elastic Compliance Matrix: (Units=1/GPa)
#
#
# Indices 1 2 3 4 5 6 
#
# 1 0.016338 -0.005034 -0.008013 0.000000 0.000000 0.000000
# 2 -0.005034 0.017911 -0.002278 0.000000 0.000000 0.000000
# 3 -0.008013 -0.002278 0.014882 0.000000 0.000000 0.000000
# 4 0.000000 0.000000 0.000000 0.105284 0.000000 0.000000
# 5 0.000000 0.000000 0.000000 0.000000 0.042753 0.000000
# 6 0.000000 0.000000 0.000000 0.000000 0.000000 0.202053
#
#
# Mechanical properties :
#
#
# Convention : Reuss Voigt Hill
#
# Bulk Modulus (GPa) = 54.11761 59.01367 56.56564
# Shear Modulus (GPa) = 11.46706 17.51531 14.49118
#
# Velocity S-wave (km/s) = 2.57327 3.18030 2.89275
# Velocity P-wave (km/s) = 6.33083 6.89662 6.61977
#
# Compressibility (1/GPa) = 0.01847827
#
# Stress axis : x y z
#
# Youngs Moduli (GPa) = 61.20822 55.83173 67.19701
#
# Poissons Ratio (x) = 0.28108 0.53848
# Poissons Ratio (y) = 0.30814 0.15309
# Poissons Ratio (z) = 0.49049 0.12719
#
# Static dielectric constant tensor:
#      x y z
#    x 1.596810 0.000000 0.000000 
#    y 0.000000 1.594040 0.000000 
#    z 0.000000 0.000000 1.566930 
# 
# From -- ./inp_files/67447.got.cif
#   From: 2010.05.17/outbox.cif.g08.bks.cpg/sg63_34_cif.got.tgz:67447.got - 2010.06.03 15:47:04.
