data_PCOD9472412
_publ_section_title
;
Structure prediction by ZEFSAII (Michael W. Deem and Ramdas Pophale) SiO2 
 PCOD9472412
Probable space group: C M C M
;
_chemical_formula_sum "Si O2"
_cell_formula_units_Z 112
_cell_length_a 13.955817
_cell_length_b 18.469922
_cell_length_c 22.272875
_cell_angle_alpha 90.000000
_cell_angle_beta 90.000000
_cell_angle_gamma 90.000000
_cell_volume 5741.119770
_symmetry_space_group_name_H-M "C M C M"
_symmetry_group_IT_number 63
_symmetry_cell_setting 'orthorhombic'
loop_
_space_group_symop_operation_xyz
x,y,z
-x,-y,1/2+z
x,-y,-z
-x,y,1/2-z
-x,-y,-z
x,y,1/2-z
-x,y,z
x,-y,1/2+z
1/2+x,1/2+y,z
1/2-x,1/2-y,1/2+z
1/2+x,1/2-y,-z
1/2-x,1/2+y,1/2-z
1/2-x,1/2-y,-z
1/2+x,1/2+y,1/2-z
1/2-x,1/2+y,z
1/2+x,1/2-y,1/2+z
loop_
_atom_site_type_symbol
_atom_site_label
_atom_site_fract_x
_atom_site_fract_y
_atom_site_fract_z
Si Si1 0.107457 0.906682 0.177763
Si Si2 0.388061 0.081671 0.979365
Si Si3 0.391315 0.212806 0.427072
Si Si4 0.240446 0.321860 0.103100
Si Si5 0.385726 0.713775 0.320553
Si Si6 0.692456 0.442948 0.677477
Si Si7 0.893286 0.390312 0.678531
O O1 0.110513 0.905351 0.250000
O O2 0.186494 0.854818 0.150994
O O3 0.000000 0.887284 0.158910
O O4 0.134323 0.987714 0.156471
O O5 0.500000 0.081629 0.959272
O O6 0.315893 0.114675 0.930760
O O7 0.381543 0.140057 0.033506
O O8 0.365161 0.000000 0.000000
O O9 0.500000 0.240171 0.436676
O O10 0.309042 0.271332 0.438049
O O11 0.382394 0.183660 0.358648
O O12 0.164494 0.271689 0.137203
O O13 0.358484 0.723213 0.250000
O O14 0.500000 0.718686 0.324218
O O15 0.352024 0.633786 0.340266
O O16 0.687208 0.444777 0.750000
O O17 0.805029 0.441888 0.661616
O O18 0.887751 0.377158 0.750000
O O19 0.000000 0.419204 0.664787
#
# Coordination Sequence:
#
# PCOD9472412 Si02
#       7
#    16  16  16  16  16  16  16
#     4  10  22  38  57  87 125 161 193 229 282 347
#     4  10  24  44  62  81 108 149 198 245 296 350
#     4  10  21  38  60  86 117 148 186 238 293 349
#     4  12  22  36  61  85 114 150 195 242 289 343
#     4  10  20  34  54  83 117 151 189 235 286 338
#     4   9  17  33  54  79 116 158 192 224 272 339
#     4   9  17  30  54  89 121 148 184 230 282 342
#
# _framework density 19.508389999999999
#
# number of rings (size 3 to 8) (size 9 to 14) (size 15 to 20)
#    0.000    2.000    1.429    2.143    2.000    2.286 
#    0.000    2.143    0.000    4.286    0.000    0.000 
#    0.000    0.000    0.000    0.000    0.000    0.000 
#
# Total GULP energy -312549.735770 kJ/mol
# GULP energy per Si atom -5581.245282 kJ/mol
# Density = 1.946399 g / cm^3
# Si number density = 19.508390 Si / 1000 Ang^3
#
#
#
# Elastic Constant Matrix: (Units=GPa)
#
#
# Indices 1 2 3 4 5 6 
#
# 1 113.9929 52.5288 34.3176 0.0000 0.0000 0.0000
# 2 52.5288 98.0723 19.1297 0.0000 0.0000 0.0000
# 3 34.3176 19.1297 27.2935 0.0000 0.0000 0.0000
# 4 0.0000 0.0000 0.0000 23.9712 0.0000 0.0000
# 5 0.0000 0.0000 0.0000 0.0000 22.7770 0.0000
# 6 0.0000 0.0000 0.0000 0.0000 0.0000 30.8898
#
#
#
# Elastic Compliance Matrix: (Units=1/GPa)
#
#
# Indices 1 2 3 4 5 6 
#
# 1 0.016322 -0.005490 -0.016675 0.000000 0.000000 0.000000
# 2 -0.005490 0.013658 -0.002670 0.000000 0.000000 0.000000
# 3 -0.016675 -0.002670 0.059477 0.000000 0.000000 0.000000
# 4 0.000000 0.000000 0.000000 0.041717 0.000000 0.000000
# 5 0.000000 0.000000 0.000000 0.000000 0.043904 0.000000
# 6 0.000000 0.000000 0.000000 0.000000 0.000000 0.032373
#
#
# Mechanical properties :
#
#
# Convention : Reuss Voigt Hill
#
# Bulk Modulus (GPa) = 25.13387 50.14564 37.63976
# Shear Modulus (GPa) = 18.49230 24.41977 21.45604
#
# Velocity S-wave (km/s) = 3.08216 3.54186 3.31998
# Velocity P-wave (km/s) = 5.05746 6.51819 5.83372
#
# Compressibility (1/GPa) = 0.03978695
#
# Stress axis : x y z
#
# Youngs Moduli (GPa) = 61.26586 73.21842 16.81330
#
# Poissons Ratio (x) = 0.40196 0.28037
# Poissons Ratio (y) = 0.33634 0.04489
# Poissons Ratio (z) = 1.02162 0.19549
#
# Static dielectric constant tensor:
#      x y z
#    x 1.690110 0.000000 0.000000 
#    y 0.000000 1.675260 0.000000 
#    z 0.000000 0.000000 1.700950 
# 
# From -- ./inp_files/62963.got.cif
#   From: 2010.05.17/outbox.cif.g08.bks.cpg/sg63_32_cif.got.tgz:62963.got - 2010.06.03 15:47:04.
