data_PCOD9472755
_publ_section_title
;
Structure prediction by ZEFSAII (Michael W. Deem and Ramdas Pophale) SiO2 
 PCOD9472755
Probable space group: C M C M
;
_chemical_formula_sum "Si O2"
_cell_formula_units_Z 96
_cell_length_a 22.507120
_cell_length_b 19.847212
_cell_length_c 11.141517
_cell_angle_alpha 90.000000
_cell_angle_beta 90.000000
_cell_angle_gamma 90.000000
_cell_volume 4976.955554
_symmetry_space_group_name_H-M "C M C M"
_symmetry_group_IT_number 63
_symmetry_cell_setting 'orthorhombic'
loop_
_space_group_symop_operation_xyz
x,y,z
-x,-y,1/2+z
x,-y,-z
-x,y,1/2-z
-x,-y,-z
x,y,1/2-z
-x,y,z
x,-y,1/2+z
1/2+x,1/2+y,z
1/2-x,1/2-y,1/2+z
1/2+x,1/2-y,-z
1/2-x,1/2+y,1/2-z
1/2-x,1/2-y,-z
1/2+x,1/2+y,1/2-z
1/2-x,1/2+y,z
1/2+x,1/2-y,1/2+z
loop_
_atom_site_type_symbol
_atom_site_label
_atom_site_fract_x
_atom_site_fract_y
_atom_site_fract_z
Si Si1 0.934254 0.328985 0.967790
Si Si2 0.653316 0.333830 0.614593
Si Si3 0.683666 0.182388 0.889180
Si Si4 0.569908 0.677819 0.613530
Si Si5 0.387219 0.038705 0.123579
Si Si6 0.244634 0.572586 0.052112
O O1 0.882987 0.333137 0.066637
O O2 0.000000 0.329224 0.020520
O O3 0.926728 0.259155 0.896774
O O4 0.924266 0.392914 0.884136
O O5 0.626366 0.326374 0.750000
O O6 0.688010 0.262985 0.589880
O O7 0.608490 0.345157 0.502331
O O8 0.700585 0.393784 0.618673
O O9 0.691210 0.170585 0.750000
O O10 0.726175 0.130394 0.956685
O O11 0.589108 0.658188 0.750000
O O12 0.500000 0.659456 0.600527
O O13 0.399252 0.002673 0.250000
O O14 0.317394 0.058202 0.119602
O O15 0.399383 0.000000 0.000000
O O16 0.262016 0.500000 0.000000
#
# Coordination Sequence:
#
# PCOD9472755 Si02
#       6
#    16  16  16  16  16  16
#     4   9  18  32  51  74 100 135 178 219 261 315
#     4  10  20  35  56  83 112 141 177 220 268 319
#     4   9  19  34  52  78 111 143 177 223 274 319
#     4   9  18  34  56  81 107 135 170 213 262 318
#     4  10  21  35  50  69  99 138 178 220 265 311
#     4  10  21  35  54  77 106 143 184 222 263 317
#
# _framework density 19.288900000000002
#
# number of rings (size 3 to 8) (size 9 to 14) (size 15 to 20)
#    0.000    2.500    0.000    1.500    0.000    9.333 
#    0.000    7.500    0.000    0.500    0.000    0.000 
#    0.000    0.000    0.000    0.000    0.000    0.000 
#
# Total GULP energy -267297.825859 kJ/mol
# GULP energy per Si atom -5568.704705 kJ/mol
# Density = 1.924500 g / cm^3
# Si number density = 19.288900 Si / 1000 Ang^3
#
#
#
# Elastic Constant Matrix: (Units=GPa)
#
#
# Indices 1 2 3 4 5 6 
#
# 1 49.6265 27.1179 35.1191 0.0000 0.0000 0.0000
# 2 27.1179 65.6040 30.2162 0.0000 0.0000 0.0000
# 3 35.1191 30.2162 122.3059 0.0000 0.0000 0.0000
# 4 0.0000 0.0000 0.0000 21.4815 0.0000 0.0000
# 5 0.0000 0.0000 0.0000 0.0000 -35.2605 0.0000
# 6 0.0000 0.0000 0.0000 0.0000 0.0000 14.9517
#
#
#
# Elastic Compliance Matrix: (Units=1/GPa)
#
#
# Indices 1 2 3 4 5 6 
#
# 1 0.029680 -0.009414 -0.006196 0.000000 0.000000 0.000000
# 2 -0.009414 0.020186 -0.002284 0.000000 0.000000 0.000000
# 3 -0.006196 -0.002284 0.010520 0.000000 0.000000 0.000000
# 4 0.000000 0.000000 0.000000 0.046552 0.000000 0.000000
# 5 0.000000 0.000000 0.000000 0.000000 -0.028360 0.000000
# 6 0.000000 0.000000 0.000000 0.000000 0.000000 0.066882
#
#
# Mechanical properties :
#
#
# Convention : Reuss Voigt Hill
#
# Bulk Modulus (GPa) = 40.65607 46.93808 43.79708
# Shear Modulus (GPa) = 26.39245 9.90675 18.14960
#
# Velocity S-wave (km/s) = 3.70303 2.26873 3.07079
# Velocity P-wave (km/s) = 6.27745 5.59016 5.94375
#
# Compressibility (1/GPa) = 0.02459657
#
# Stress axis : x y z
#
# Youngs Moduli (GPa) = 33.69266 49.53821 95.05948
#
# Poissons Ratio (x) = 0.46638 0.58903
# Poissons Ratio (y) = 0.31720 0.21710
# Poissons Ratio (z) = 0.20878 0.11314
#
# Static dielectric constant tensor:
#      x y z
#    x 1.662250 0.000000 0.000000 
#    y 0.000000 1.687610 0.000000 
#    z 0.000000 0.000000 1.725680 
# 
# From -- ./inp_files/23921.got.cif
#   From: 2010.05.17/outbox.cif.g08.bks.cpg/sg63_12_cif.got.tgz:23921.got - 2010.06.03 15:47:04.
