data_PCOD9472519
_publ_section_title
;
Structure prediction by ZEFSAII (Michael W. Deem and Ramdas Pophale) SiO2 
 PCOD9472519
Probable space group: C M C M
;
_chemical_formula_sum "Si O2"
_cell_formula_units_Z 104
_cell_length_a 20.652102
_cell_length_b 26.828659
_cell_length_c 7.773926
_cell_angle_alpha 90.000000
_cell_angle_beta 90.000000
_cell_angle_gamma 90.000000
_cell_volume 4307.285203
_symmetry_space_group_name_H-M "C M C M"
_symmetry_group_IT_number 63
_symmetry_cell_setting 'orthorhombic'
loop_
_space_group_symop_operation_xyz
x,y,z
-x,-y,1/2+z
x,-y,-z
-x,y,1/2-z
-x,-y,-z
x,y,1/2-z
-x,y,z
x,-y,1/2+z
1/2+x,1/2+y,z
1/2-x,1/2-y,1/2+z
1/2+x,1/2-y,-z
1/2-x,1/2+y,1/2-z
1/2-x,1/2-y,-z
1/2+x,1/2+y,1/2-z
1/2-x,1/2+y,z
1/2+x,1/2-y,1/2+z
loop_
_atom_site_type_symbol
_atom_site_label
_atom_site_fract_x
_atom_site_fract_y
_atom_site_fract_z
Si Si1 0.102494 0.807893 0.041735
Si Si2 0.000000 0.723555 0.492250
Si Si3 0.424848 0.944393 0.954880
Si Si4 0.758641 0.163381 0.961010
Si Si5 0.881865 0.660365 0.951199
Si Si6 0.288165 0.446034 0.055234
Si Si7 0.428802 0.421798 0.954594
O O1 0.097617 0.803877 0.250000
O O2 0.177701 0.806229 0.987399
O O3 0.056594 0.765429 0.970894
O O4 0.077759 0.862684 0.990688
O O5 0.056863 0.682612 0.454180
O O6 0.423767 0.939084 0.750000
O O7 0.500000 0.940249 0.015418
O O8 0.384060 0.899475 0.033604
O O9 0.402405 0.000000 0.000000
O O10 0.759278 0.163037 0.750000
O O11 0.687384 0.180054 0.013320
O O12 0.768111 0.106487 0.028434
O O13 0.891917 0.672848 0.750000
O O14 0.267746 0.440814 0.250000
O O15 0.264272 0.500000 0.000000
O O16 0.366458 0.445822 0.042356
O O17 0.424099 0.430121 0.750000
O O18 0.500000 0.438175 0.014857
#
# Coordination Sequence:
#
# PCOD9472519 Si02
#       7
#    16   8  16  16  16  16  16
#     4  10  21  40  64  88 117 161 207 251 304 366
#     4  12  24  34  63  98 121 156 197 258 305 364
#     4  10  21  38  62  91 126 166 207 251 303 364
#     4   8  19  40  63  86 120 163 206 251 303 364
#     4  11  23  41  63  93 129 163 203 253 306 361
#     4  10  20  36  59  86 119 160 205 251 301 358
#     4  10  20  34  56  87 122 157 199 251 305 364
#
# _framework density 24.145140000000001
#
# number of rings (size 3 to 8) (size 9 to 14) (size 15 to 20)
#    0.000    2.000    1.538    2.769    0.000    5.538 
#    0.000    5.385    0.000    0.000    0.000    0.000 
#    0.000    0.000    0.000    0.000    0.000    0.000 
#
# Total GULP energy -289695.397829 kJ/mol
# GULP energy per Si atom -5571.065343 kJ/mol
# Density = 2.409018 g / cm^3
# Si number density = 24.145140 Si / 1000 Ang^3
#
#
#
# Elastic Constant Matrix: (Units=GPa)
#
#
# Indices 1 2 3 4 5 6 
#
# 1 207.1199 41.0756 6.8379 0.0000 0.0000 0.0000
# 2 41.0756 116.2663 -3.2714 0.0000 0.0000 0.0000
# 3 6.8379 -3.2714 54.1401 0.0000 0.0000 0.0000
# 4 0.0000 0.0000 0.0000 -40.0706 0.0000 0.0000
# 5 0.0000 0.0000 0.0000 0.0000 2.9796 0.0000
# 6 0.0000 0.0000 0.0000 0.0000 0.0000 -2.2368
#
#
#
# Elastic Compliance Matrix: (Units=1/GPa)
#
#
# Indices 1 2 3 4 5 6 
#
# 1 0.005224 -0.001867 -0.000773 0.000000 0.000000 0.000000
# 2 -0.001867 0.009283 0.000797 0.000000 0.000000 0.000000
# 3 -0.000773 0.000797 0.018616 0.000000 0.000000 0.000000
# 4 0.000000 0.000000 0.000000 -0.024956 0.000000 0.000000
# 5 0.000000 0.000000 0.000000 0.000000 0.335620 0.000000
# 6 0.000000 0.000000 0.000000 0.000000 0.000000 -0.447066
#
#
# Mechanical properties :
#
#
# Convention : Reuss Voigt Hill
#
# Bulk Modulus (GPa) = 33.97080 51.86781 42.91931
# Shear Modulus (GPa) = -55.69132 14.32671 -20.68230
#
# Velocity S-wave (km/s) = -4.80784 2.43854 -2.92992
# Velocity P-wave (km/s) = 4.08906 5.42742 2.52354
#
# Compressibility (1/GPa) = 0.02943705
#
# Stress axis : x y z
#
# Youngs Moduli (GPa) = 191.42615 107.72307 53.71628
#
# Poissons Ratio (x) = 0.20115 0.04150
# Poissons Ratio (y) = 0.35745 -0.04280
# Poissons Ratio (z) = 0.14790 -0.08583
#
# Static dielectric constant tensor:
#      x y z
#    x 1.928320 0.000000 0.000000 
#    y 0.000000 1.915060 0.000000 
#    z 0.000000 0.000000 1.915690 
# 
# From -- ./inp_files/8799.got.cif
#   From: 2010.05.17/outbox.cif.g08.bks.cpg/sg63_5_cif.got.tgz:8799.got - 2010.06.03 15:47:04.
