data_PCOD9472272
_publ_section_title
;
Structure prediction by ZEFSAII (Michael W. Deem and Ramdas Pophale) SiO2 
 PCOD9472272
Probable space group: C M C M
;
_chemical_formula_sum "Si O2"
_cell_formula_units_Z 80
_cell_length_a 8.665046
_cell_length_b 19.254387
_cell_length_c 26.588806
_cell_angle_alpha 90.000000
_cell_angle_beta 90.000000
_cell_angle_gamma 90.000000
_cell_volume 4436.080356
_symmetry_space_group_name_H-M "C M C M"
_symmetry_group_IT_number 63
_symmetry_cell_setting 'orthorhombic'
loop_
_space_group_symop_operation_xyz
x,y,z
-x,-y,1/2+z
x,-y,-z
-x,y,1/2-z
-x,-y,-z
x,y,1/2-z
-x,y,z
x,-y,1/2+z
1/2+x,1/2+y,z
1/2-x,1/2-y,1/2+z
1/2+x,1/2-y,-z
1/2-x,1/2+y,1/2-z
1/2-x,1/2-y,-z
1/2+x,1/2+y,1/2-z
1/2-x,1/2+y,z
1/2+x,1/2-y,1/2+z
loop_
_atom_site_type_symbol
_atom_site_label
_atom_site_fract_x
_atom_site_fract_y
_atom_site_fract_z
Si Si1 0.314007 0.545373 0.344786
Si Si2 0.313005 0.453297 0.250000
Si Si3 0.684529 0.793253 0.953732
Si Si4 0.185952 0.454970 0.547424
Si Si5 0.813171 0.297859 0.250000
Si Si6 0.313630 0.706428 0.345562
O O1 0.500000 0.544879 0.345760
O O2 0.263041 0.496147 0.299395
O O3 0.252455 0.522005 0.398976
O O4 0.265827 0.625943 0.336912
O O5 0.500000 0.451383 0.250000
O O6 0.250370 0.375511 0.250000
O O7 0.500000 0.788762 0.953342
O O8 0.729162 0.874303 0.959611
O O9 0.748786 0.770498 0.899465
O O10 0.750000 0.750000 0.000000
O O11 0.238884 0.500000 0.500000
O O12 0.000000 0.458980 0.549875
O O13 0.764497 0.255209 0.299644
O O14 0.000000 0.300062 0.250000
O O15 0.500000 0.707388 0.347772
#
# Coordination Sequence:
#
# PCOD9472272 Si02
#       6
#    16   8  16  16   8  16
#     4   9  18  34  55  75  98 132 171 208 247 295
#     4  10  21  35  51  77 109 134 162 208 260 302
#     4  10  20  34  53  77 104 135 170 209 254 302
#     4   9  19  35  53  74 101 132 167 208 251 295
#     4  10  21  35  53  77 103 134 170 208 254 304
#     4   9  18  35  56  75  98 133 176 214 249 297
#
# _framework density 18.033939
#
# number of rings (size 3 to 8) (size 9 to 14) (size 15 to 20)
#    0.000    2.600    0.000    1.200    0.000    6.800 
#    0.000    6.000    0.000    6.000    0.000    0.000 
#    0.000    0.000    0.000    0.000    0.000    0.000 
#
# Total GULP energy -223173.913346 kJ/mol
# GULP energy per Si atom -5579.347834 kJ/mol
# Density = 1.799289 g / cm^3
# Si number density = 18.033939 Si / 1000 Ang^3
#
#
#
# Elastic Constant Matrix: (Units=GPa)
#
#
# Indices 1 2 3 4 5 6 
#
# 1 7.4790 23.5581 36.4241 0.0000 0.0000 0.0000
# 2 23.5581 98.1381 118.3789 0.0000 0.0000 0.0000
# 3 36.4241 118.3789 226.0281 0.0000 0.0000 0.0000
# 4 0.0000 0.0000 0.0000 39.5713 0.0000 0.0000
# 5 0.0000 0.0000 0.0000 0.0000 30.5946 0.0000
# 6 0.0000 0.0000 0.0000 0.0000 0.0000 26.5278
#
#
#
# Elastic Compliance Matrix: (Units=1/GPa)
#
#
# Indices 1 2 3 4 5 6 
#
# 1 0.949186 -0.117708 -0.091312 0.000000 0.000000 0.000000
# 2 -0.117708 0.042268 -0.003169 0.000000 0.000000 0.000000
# 3 -0.091312 -0.003169 0.020799 0.000000 0.000000 0.000000
# 4 0.000000 0.000000 0.000000 0.025271 0.000000 0.000000
# 5 0.000000 0.000000 0.000000 0.000000 0.032686 0.000000
# 6 0.000000 0.000000 0.000000 0.000000 0.000000 0.037696
#
#
# Mechanical properties :
#
#
# Convention : Reuss Voigt Hill
#
# Bulk Modulus (GPa) = 1.70104 76.48527 39.09316
# Shear Modulus (GPa) = 2.89312 29.55767 16.22539
#
# Velocity S-wave (km/s) = 1.26797 4.05285 3.00278
# Velocity P-wave (km/s) = 1.75754 8.02526 5.80920
#
# Compressibility (1/GPa) = 0.58787463
#
# Stress axis : x y z
#
# Youngs Moduli (GPa) = 1.05353 23.65852 48.08031
#
# Poissons Ratio (x) = 2.78481 4.39029
# Poissons Ratio (y) = 0.12401 0.15235
# Poissons Ratio (z) = 0.09620 0.07497
#
# Static dielectric constant tensor:
#      x y z
#    x 1.615050 0.000000 0.000000 
#    y 0.000000 1.605160 0.000000 
#    z 0.000000 0.000000 1.596530 
# 
# From -- ./inp_files/66807.got.cif
#   From: 2010.05.17/outbox.cif.g08.bks.cpg/sg63_34_cif.got.tgz:66807.got - 2010.06.03 15:47:04.
