data_PCOD9472390
_publ_section_title
;
Structure prediction by ZEFSAII (Michael W. Deem and Ramdas Pophale) SiO2 
 PCOD9472390
Probable space group: C M C M
;
_chemical_formula_sum "Si O2"
_cell_formula_units_Z 80
_cell_length_a 7.671106
_cell_length_b 23.981343
_cell_length_c 20.913187
_cell_angle_alpha 90.000000
_cell_angle_beta 90.000000
_cell_angle_gamma 90.000000
_cell_volume 3847.261491
_symmetry_space_group_name_H-M "C M C M"
_symmetry_group_IT_number 63
_symmetry_cell_setting 'orthorhombic'
loop_
_space_group_symop_operation_xyz
x,y,z
-x,-y,1/2+z
x,-y,-z
-x,y,1/2-z
-x,-y,-z
x,y,1/2-z
-x,y,z
x,-y,1/2+z
1/2+x,1/2+y,z
1/2-x,1/2-y,1/2+z
1/2+x,1/2-y,-z
1/2-x,1/2+y,1/2-z
1/2-x,1/2-y,-z
1/2+x,1/2+y,1/2-z
1/2-x,1/2+y,z
1/2+x,1/2-y,1/2+z
loop_
_atom_site_type_symbol
_atom_site_label
_atom_site_fract_x
_atom_site_fract_y
_atom_site_fract_z
Si Si1 0.295521 0.868905 0.872069
Si Si2 0.706332 0.066966 0.750000
Si Si3 0.288348 0.563899 0.498454
Si Si4 0.714727 0.938661 0.750000
Si Si5 0.708879 0.367263 0.121017
Si Si6 0.210418 0.747994 0.424105
O O1 0.500000 0.860412 0.857994
O O2 0.276925 0.905574 0.935519
O O3 0.225895 0.904256 0.812363
O O4 0.221245 0.808156 0.890313
O O5 0.500000 0.061463 0.750000
O O6 0.754504 0.102029 0.687219
O O7 0.775865 0.003179 0.750000
O O8 0.232805 0.500000 0.500000
O O9 0.500000 0.565325 0.497097
O O10 0.227028 0.595854 0.561629
O O11 0.500000 0.940253 0.750000
O O12 0.500000 0.364329 0.115285
O O13 0.773957 0.304218 0.110644
O O14 0.250000 0.750000 0.500000
O O15 0.000000 0.746589 0.419812
#
# Coordination Sequence:
#
# PCOD9472390 Si02
#       6
#    16   8  16   8  16  16
#     4  10  20  35  58  83 108 146 188 230 279 331
#     4  11  23  38  57  81 111 147 186 235 280 326
#     4  10  20  34  54  81 112 147 187 230 278 332
#     4   9  20  38  55  79 115 145 182 233 282 332
#     4  10  21  37  56  80 113 150 184 226 281 339
#     4  10  20  35  58  85 112 146 185 231 282 331
#
# _framework density 20.794011000000001
#
# number of rings (size 3 to 8) (size 9 to 14) (size 15 to 20)
#    0.000    2.000    2.000    1.500    0.000    2.800 
#    0.000    4.500    0.000    0.000    0.000    0.000 
#    0.000    0.000    0.000    0.000    0.000    0.000 
#
# Total GULP energy -223399.116384 kJ/mol
# GULP energy per Si atom -5584.977910 kJ/mol
# Density = 2.074668 g / cm^3
# Si number density = 20.794011 Si / 1000 Ang^3
#
#
#
# Elastic Constant Matrix: (Units=GPa)
#
#
# Indices 1 2 3 4 5 6 
#
# 1 33.8307 7.8320 -7.6195 0.0000 0.0000 0.0000
# 2 7.8320 248.4615 123.0696 0.0000 0.0000 0.0000
# 3 -7.6195 123.0696 197.0627 0.0000 0.0000 0.0000
# 4 0.0000 0.0000 0.0000 47.1791 0.0000 0.0000
# 5 0.0000 0.0000 0.0000 0.0000 27.4364 0.0000
# 6 0.0000 0.0000 0.0000 0.0000 0.0000 -10.6454
#
#
#
# Elastic Compliance Matrix: (Units=1/GPa)
#
#
# Indices 1 2 3 4 5 6 
#
# 1 0.030663 -0.002250 0.002591 0.000000 0.000000 0.000000
# 2 -0.002250 0.005993 -0.003829 0.000000 0.000000 0.000000
# 3 0.002591 -0.003829 0.007566 0.000000 0.000000 0.000000
# 4 0.000000 0.000000 0.000000 0.021196 0.000000 0.000000
# 5 0.000000 0.000000 0.000000 0.000000 0.036448 0.000000
# 6 0.000000 0.000000 0.000000 0.000000 0.000000 -0.093937
#
#
# Mechanical properties :
#
#
# Convention : Reuss Voigt Hill
#
# Bulk Modulus (GPa) = 26.84930 80.65769 53.75349
# Shear Modulus (GPa) = 183.01233 36.53221 109.77227
#
# Velocity S-wave (km/s) = 9.39165 4.19604 7.27358
# Velocity P-wave (km/s) = 11.42559 7.89613 9.82072
#
# Compressibility (1/GPa) = 0.03724492
#
# Stress axis : x y z
#
# Youngs Moduli (GPa) = 32.61227 166.87512 132.16584
#
# Poissons Ratio (x) = 0.37543 -0.34240
# Poissons Ratio (y) = 0.07337 0.50612
# Poissons Ratio (z) = -0.08449 0.63904
#
# Static dielectric constant tensor:
#      x y z
#    x 1.798460 0.000000 0.000000 
#    y 0.000000 1.755150 0.000000 
#    z 0.000000 0.000000 1.622250 
# 
# From -- ./inp_files/50906.got.cif
#   From: 2010.05.17/outbox.cif.g08.bks.cpg/sg63_26_cif.got.tgz:50906.got - 2010.06.03 15:47:04.
