data_PCOD9472866
_publ_section_title
;
Structure prediction by ZEFSAII (Michael W. Deem and Ramdas Pophale) SiO2 
 PCOD9472866
Probable space group: C M C M
;
_chemical_formula_sum "Si O2"
_cell_formula_units_Z 88
_cell_length_a 15.848967
_cell_length_b 11.635368
_cell_length_c 21.549511
_cell_angle_alpha 90.000000
_cell_angle_beta 90.000000
_cell_angle_gamma 90.000000
_cell_volume 3973.914367
_symmetry_space_group_name_H-M "C M C M"
_symmetry_group_IT_number 63
_symmetry_cell_setting 'orthorhombic'
loop_
_space_group_symop_operation_xyz
x,y,z
-x,-y,1/2+z
x,-y,-z
-x,y,1/2-z
-x,-y,-z
x,y,1/2-z
-x,y,z
x,-y,1/2+z
1/2+x,1/2+y,z
1/2-x,1/2-y,1/2+z
1/2+x,1/2-y,-z
1/2-x,1/2+y,1/2-z
1/2-x,1/2-y,-z
1/2+x,1/2+y,1/2-z
1/2-x,1/2+y,z
1/2+x,1/2-y,1/2+z
loop_
_atom_site_type_symbol
_atom_site_label
_atom_site_fract_x
_atom_site_fract_y
_atom_site_fract_z
Si Si1 0.500000 0.634531 0.987041
Si Si2 0.636359 0.430100 0.681391
Si Si3 0.150418 0.160468 0.605657
Si Si4 0.333579 0.890576 0.821594
Si Si5 0.000000 0.654134 0.559782
Si Si6 0.000000 0.738634 0.679739
Si Si7 0.678988 0.061179 0.561333
O O1 0.416698 0.671115 0.949280
O O2 0.500000 0.500000 0.000000
O O3 0.500000 0.709982 0.048450
O O4 0.611554 0.471972 0.750000
O O5 0.629236 0.536944 0.635850
O O6 0.732320 0.390009 0.682991
O O7 0.580200 0.319608 0.668861
O O8 0.138844 0.265628 0.653373
O O9 0.248378 0.149931 0.583785
O O10 0.363846 0.915544 0.750000
O O11 0.344032 0.980376 0.879234
O O12 0.910395 0.609455 0.537081
O O13 0.000000 0.634669 0.633133
O O14 0.000000 0.699417 0.750000
O O15 0.717016 0.000000 0.500000
#
# Coordination Sequence:
#
# PCOD9472866 Si02
#       7
#     8  16  16  16   8   8  16
#     4  12  26  41  63  93 124 158 208 265 317 372
#     4   9  18  34  57  87 122 157 198 252 310 369
#     4  11  22  39  64  90 122 162 205 256 317 371
#     4  10  22  40  63  93 127 165 211 261 313 373
#     4  12  25  42  62  87 123 161 203 253 308 364
#     4  10  20  35  58  86 115 153 202 252 307 372
#     4  11  25  43  65  91 126 169 212 254 309 381
#
# _framework density 22.144411999999999
#
# number of rings (size 3 to 8) (size 9 to 14) (size 15 to 20)
#    0.000    1.455    0.000    5.182    0.000    8.000 
#    0.000    2.273    0.000    0.000    0.000    0.000 
#    0.000    0.000    0.000    0.000    0.000    0.000 
#
# Total GULP energy -245472.260220 kJ/mol
# GULP energy per Si atom -5578.915005 kJ/mol
# Density = 2.209401 g / cm^3
# Si number density = 22.144412 Si / 1000 Ang^3
#
#
#
# Elastic Constant Matrix: (Units=GPa)
#
#
# Indices 1 2 3 4 5 6 
#
# 1 64.6409 11.0883 13.6940 0.0000 0.0000 0.0000
# 2 11.0883 43.7770 29.8208 0.0000 0.0000 0.0000
# 3 13.6940 29.8208 122.2570 0.0000 0.0000 0.0000
# 4 0.0000 0.0000 0.0000 37.0510 0.0000 0.0000
# 5 0.0000 0.0000 0.0000 0.0000 148.9493 0.0000
# 6 0.0000 0.0000 0.0000 0.0000 0.0000 -448.3554
#
#
#
# Elastic Compliance Matrix: (Units=1/GPa)
#
#
# Indices 1 2 3 4 5 6 
#
# 1 0.016270 -0.003453 -0.000980 0.000000 0.000000 0.000000
# 2 -0.003453 0.028128 -0.006474 0.000000 0.000000 0.000000
# 3 -0.000980 -0.006474 0.009868 0.000000 0.000000 0.000000
# 4 0.000000 0.000000 0.000000 0.026990 0.000000 0.000000
# 5 0.000000 0.000000 0.000000 0.000000 0.006714 0.000000
# 6 0.000000 0.000000 0.000000 0.000000 0.000000 -0.002230
#
#
# Mechanical properties :
#
#
# Convention : Reuss Voigt Hill
#
# Bulk Modulus (GPa) = 30.81545 37.76453 34.28999
# Shear Modulus (GPa) = 42.23975 -40.73289 0.75343
#
# Velocity S-wave (km/s) = 4.37219 -4.29350 0.58393
# Velocity P-wave (km/s) = 6.27965 2.73644 3.99662
#
# Compressibility (1/GPa) = 0.03245125
#
# Stress axis : x y z
#
# Youngs Moduli (GPa) = 61.46244 35.55184 101.33326
#
# Poissons Ratio (x) = 0.12278 0.09931
# Poissons Ratio (y) = 0.21226 0.65604
# Poissons Ratio (z) = 0.06024 0.23017
#
# Static dielectric constant tensor:
#      x y z
#    x 1.759640 0.000000 0.000000 
#    y 0.000000 1.793330 0.000000 
#    z 0.000000 0.000000 1.841610 
# 
# From -- ./inp_files/55452.got.cif
#   From: 2010.05.17/outbox.cif.g08.bks.cpg/sg63_28_cif.got.tgz:55452.got - 2010.06.03 15:47:04.
