data_PCOD9472948
_publ_section_title
;
Structure prediction by ZEFSAII (Michael W. Deem and Ramdas Pophale) SiO2 
 PCOD9472948
Probable space group: C M C M
;
_chemical_formula_sum "Si O2"
_cell_formula_units_Z 116
_cell_length_a 29.095401
_cell_length_b 11.958603
_cell_length_c 15.817566
_cell_angle_alpha 90.000000
_cell_angle_beta 90.000000
_cell_angle_gamma 90.000000
_cell_volume 5503.569445
_symmetry_space_group_name_H-M "C M C M"
_symmetry_group_IT_number 63
_symmetry_cell_setting 'orthorhombic'
loop_
_space_group_symop_operation_xyz
x,y,z
-x,-y,1/2+z
x,-y,-z
-x,y,1/2-z
-x,-y,-z
x,y,1/2-z
-x,y,z
x,-y,1/2+z
1/2+x,1/2+y,z
1/2-x,1/2-y,1/2+z
1/2+x,1/2-y,-z
1/2-x,1/2+y,1/2-z
1/2-x,1/2-y,-z
1/2+x,1/2+y,1/2-z
1/2-x,1/2+y,z
1/2+x,1/2-y,1/2+z
loop_
_atom_site_type_symbol
_atom_site_label
_atom_site_fract_x
_atom_site_fract_y
_atom_site_fract_z
Si Si1 0.000000 0.000000 0.000000
Si Si2 0.070153 0.177607 0.979948
Si Si3 0.689285 0.806213 0.349176
Si Si4 0.347177 0.036100 0.097418
Si Si5 0.550881 0.074436 0.414935
Si Si6 0.713374 0.242714 0.149917
Si Si7 0.605376 0.346883 0.651629
Si Si8 0.840727 0.941800 0.083280
O O1 0.960809 0.075136 0.951709
O O2 0.065739 0.171351 0.082367
O O3 0.056178 0.296535 0.943690
O O4 0.121114 0.143350 0.953206
O O5 0.693312 0.784015 0.250000
O O6 0.734851 0.749504 0.386576
O O7 0.642127 0.747905 0.374671
O O8 0.682629 0.937584 0.361366
O O9 0.400272 0.045059 0.129789
O O10 0.319461 0.151119 0.107505
O O11 0.350718 0.000000 0.000000
O O12 0.500000 0.060245 0.373725
O O13 0.549696 0.000000 0.500000
O O14 0.713408 0.216863 0.250000
O O15 0.693763 0.367454 0.136576
O O16 0.592536 0.336621 0.750000
O O17 0.632265 0.463340 0.635761
O O18 0.819422 0.000000 0.000000
#
# Coordination Sequence:
#
# PCOD9472948 Si02
#       8
#     4  16  16  16  16  16  16  16
#     4  12  20  36  64  84 120 160 194 258 312 376
#     4  11  20  38  60  89 119 155 199 250 314 365
#     4  10  24  41  61  87 124 166 204 250 315 378
#     4  11  23  40  63  93 125 160 210 267 310 368
#     4  10  20  35  62  91 118 157 207 252 305 372
#     4  11  24  41  62  89 123 170 208 250 318 385
#     4  10  20  37  58  83 118 158 201 247 302 367
#     4  10  21  37  60  87 119 158 201 251 306 368
#
# _framework density 21.077231000000001
#
# number of rings (size 3 to 8) (size 9 to 14) (size 15 to 20)
#    0.000    1.517    4.138    2.483    3.862    1.103 
#    0.000    0.345    0.000    1.655    0.000    0.000 
#    0.000    0.000    0.000    0.000    0.000    0.000 
#
# Total GULP energy -322927.110104 kJ/mol
# GULP energy per Si atom -5567.708795 kJ/mol
# Density = 2.102926 g / cm^3
# Si number density = 21.077231 Si / 1000 Ang^3
#
#
#
# Elastic Constant Matrix: (Units=GPa)
#
#
# Indices 1 2 3 4 5 6 
#
# 1 80.3186 11.8499 5.1731 0.0000 0.0000 0.0000
# 2 11.8499 89.7882 -15.2166 0.0000 0.0000 0.0000
# 3 5.1731 -15.2166 28.2353 0.0000 0.0000 0.0000
# 4 0.0000 0.0000 0.0000 24.4999 0.0000 0.0000
# 5 0.0000 0.0000 0.0000 0.0000 59.5643 0.0000
# 6 0.0000 0.0000 0.0000 0.0000 0.0000 37.3204
#
#
#
# Elastic Compliance Matrix: (Units=1/GPa)
#
#
# Indices 1 2 3 4 5 6 
#
# 1 0.013030 -0.002338 -0.003647 0.000000 0.000000 0.000000
# 2 -0.002338 0.012676 0.007260 0.000000 0.000000 0.000000
# 3 -0.003647 0.007260 0.039997 0.000000 0.000000 0.000000
# 4 0.000000 0.000000 0.000000 0.040816 0.000000 0.000000
# 5 0.000000 0.000000 0.000000 0.000000 0.016789 0.000000
# 6 0.000000 0.000000 0.000000 0.000000 0.000000 0.026795
#
#
# Mechanical properties :
#
#
# Convention : Reuss Voigt Hill
#
# Bulk Modulus (GPa) = 14.65133 22.43944 18.54538
# Shear Modulus (GPa) = 29.35907 37.37931 33.36919
#
# Velocity S-wave (km/s) = 3.73624 4.21580 3.98324
# Velocity P-wave (km/s) = 5.05757 5.86231 5.47475
#
# Compressibility (1/GPa) = 0.06825321
#
# Stress axis : x y z
#
# Youngs Moduli (GPa) = 76.74461 78.88819 25.00174
#
# Poissons Ratio (x) = 0.18442 0.09119
# Poissons Ratio (y) = 0.17941 -0.18151
# Poissons Ratio (z) = 0.27990 -0.57271
#
# Static dielectric constant tensor:
#      x y z
#    x 1.272210 0.000000 0.000000 
#    y 0.000000 1.826160 0.000000 
#    z 0.000000 0.000000 1.784870 
# 
# From -- ./inp_files/49108.got.cif
#   From: 2010.05.17/outbox.cif.g08.bks.cpg/sg63_25_cif.got.tgz:49108.got - 2010.06.03 15:47:04.
