data_PCOD9472149
_publ_section_title
;
Structure prediction by ZEFSAII (Michael W. Deem and Ramdas Pophale) SiO2 
 PCOD9472149
Probable space group: C M C M
;
_chemical_formula_sum "Si O2"
_cell_formula_units_Z 104
_cell_length_a 21.730535
_cell_length_b 28.788519
_cell_length_c 8.668772
_cell_angle_alpha 90.000000
_cell_angle_beta 90.000000
_cell_angle_gamma 90.000000
_cell_volume 5423.096380
_symmetry_space_group_name_H-M "C M C M"
_symmetry_group_IT_number 63
_symmetry_cell_setting 'orthorhombic'
loop_
_space_group_symop_operation_xyz
x,y,z
-x,-y,1/2+z
x,-y,-z
-x,y,1/2-z
-x,-y,-z
x,y,1/2-z
-x,y,z
x,-y,1/2+z
1/2+x,1/2+y,z
1/2-x,1/2-y,1/2+z
1/2+x,1/2-y,-z
1/2-x,1/2+y,1/2-z
1/2-x,1/2-y,-z
1/2+x,1/2+y,1/2-z
1/2-x,1/2+y,z
1/2+x,1/2-y,1/2+z
loop_
_atom_site_type_symbol
_atom_site_label
_atom_site_fract_x
_atom_site_fract_y
_atom_site_fract_z
Si Si1 0.000000 0.447895 0.066269
Si Si2 0.739905 0.134211 0.064319
Si Si3 0.328261 0.449951 0.933973
Si Si4 0.839712 0.803088 0.435110
Si Si5 0.401503 0.122902 0.436595
Si Si6 0.567169 0.227337 0.437724
Si Si7 0.570322 0.610968 0.564635
O O1 0.000000 0.450057 0.250000
O O2 0.000000 0.500000 0.000000
O O3 0.059105 0.418464 0.008662
O O4 0.740407 0.136702 0.250000
O O5 0.780254 0.089753 0.014456
O O6 0.669874 0.125879 0.016237
O O7 0.775146 0.179910 0.004070
O O8 0.327495 0.451530 0.750000
O O9 0.312800 0.500000 0.000000
O O10 0.394497 0.432492 0.991887
O O11 0.832885 0.800920 0.250000
O O12 0.873405 0.756274 0.490626
O O13 0.889420 0.843516 0.472780
O O14 0.404678 0.118357 0.250000
O O15 0.428670 0.173319 0.478239
O O16 0.568252 0.230097 0.250000
O O17 0.500000 0.246072 0.486771
O O18 0.571047 0.606443 0.750000
O O19 0.500000 0.615371 0.513792
#
# Coordination Sequence:
#
# PCOD9472149 Si02
#       7
#     8  16  16  16  16  16  16
#     4  12  26  44  66  92 120 148 186 236 291 350
#     4   9  20  36  54  78 111 147 184 227 279 337
#     4  10  20  34  50  70  97 131 173 222 273 328
#     4   9  17  30  51  80 111 147 191 230 268 319
#     4  10  20  39  63  86 114 150 187 227 279 338
#     4   9  16  29  55  85 112 149 193 232 274 330
#     4   9  17  30  48  71 101 136 177 224 265 311
#
# _framework density 19.177236000000001
#
# number of rings (size 3 to 8) (size 9 to 14) (size 15 to 20)
#    0.000    2.462    0.769    1.615    0.000    4.923 
#    0.000    2.308    0.000    0.923    0.000    0.000 
#    0.000    0.000    0.000    0.000    0.000    0.000 
#
# Total GULP energy -290066.814501 kJ/mol
# GULP energy per Si atom -5578.207971 kJ/mol
# Density = 1.913359 g / cm^3
# Si number density = 19.177236 Si / 1000 Ang^3
#
#
#
# Elastic Constant Matrix: (Units=GPa)
#
#
# Indices 1 2 3 4 5 6 
#
# 1 155.4192 58.0976 31.1360 0.0000 0.0000 0.0000
# 2 58.0976 116.9904 31.1550 0.0000 0.0000 0.0000
# 3 31.1360 31.1550 14.7214 0.0000 0.0000 0.0000
# 4 0.0000 0.0000 0.0000 18.0655 0.0000 0.0000
# 5 0.0000 0.0000 0.0000 0.0000 23.6040 0.0000
# 6 0.0000 0.0000 0.0000 0.0000 0.0000 12.4347
#
#
#
# Elastic Compliance Matrix: (Units=1/GPa)
#
#
# Indices 1 2 3 4 5 6 
#
# 1 0.011315 0.001728 -0.027588 0.000000 0.000000 0.000000
# 2 0.001728 0.019850 -0.045662 0.000000 0.000000 0.000000
# 3 -0.027588 -0.045662 0.222912 0.000000 0.000000 0.000000
# 4 0.000000 0.000000 0.000000 0.055354 0.000000 0.000000
# 5 0.000000 0.000000 0.000000 0.000000 0.042366 0.000000
# 6 0.000000 0.000000 0.000000 0.000000 0.000000 0.080420
#
#
# Mechanical properties :
#
#
# Convention : Reuss Voigt Hill
#
# Bulk Modulus (GPa) = 9.00643 58.65646 33.83145
# Shear Modulus (GPa) = 8.16630 21.93700 15.05165
#
# Velocity S-wave (km/s) = 2.06581 3.38584 2.80459
# Velocity P-wave (km/s) = 3.22439 6.77777 5.30730
#
# Compressibility (1/GPa) = 0.11103178
#
# Stress axis : x y z
#
# Youngs Moduli (GPa) = 88.37588 50.37871 4.48608
#
# Poissons Ratio (x) = -0.08704 0.12376
# Poissons Ratio (y) = -0.15268 0.20484
# Poissons Ratio (z) = 2.43813 2.30038
#
# Static dielectric constant tensor:
#      x y z
#    x 1.689340 0.000000 0.000000 
#    y 0.000000 1.667830 0.000000 
#    z 0.000000 0.000000 1.652880 
# 
# From -- ./inp_files/8819.got.cif
#   From: 2010.05.17/outbox.cif.g08.bks.cpg/sg63_5_cif.got.tgz:8819.got - 2010.06.03 15:47:04.
