data_PCOD9472976
_publ_section_title
;
Structure prediction by ZEFSAII (Michael W. Deem and Ramdas Pophale) SiO2 
 PCOD9472976
Probable space group: C M C M
;
_chemical_formula_sum "Si O2"
_cell_formula_units_Z 80
_cell_length_a 27.791468
_cell_length_b 18.335677
_cell_length_c 8.660869
_cell_angle_alpha 90.000000
_cell_angle_beta 90.000000
_cell_angle_gamma 90.000000
_cell_volume 4413.365617
_symmetry_space_group_name_H-M "C M C M"
_symmetry_group_IT_number 63
_symmetry_cell_setting 'orthorhombic'
loop_
_space_group_symop_operation_xyz
x,y,z
-x,-y,1/2+z
x,-y,-z
-x,y,1/2-z
-x,-y,-z
x,y,1/2-z
-x,y,z
x,-y,1/2+z
1/2+x,1/2+y,z
1/2-x,1/2-y,1/2+z
1/2+x,1/2-y,-z
1/2-x,1/2+y,1/2-z
1/2-x,1/2-y,-z
1/2+x,1/2+y,1/2-z
1/2-x,1/2+y,z
1/2+x,1/2-y,1/2+z
loop_
_atom_site_type_symbol
_atom_site_label
_atom_site_fract_x
_atom_site_fract_y
_atom_site_fract_z
Si Si1 0.810988 0.131655 0.564718
Si Si2 0.846611 0.716073 0.566123
Si Si3 0.583866 0.576105 0.934288
Si Si4 0.553519 0.263701 0.436597
Si Si5 0.710122 0.920767 0.565974
O O1 0.805184 0.129753 0.750000
O O2 0.819713 0.214763 0.511106
O O3 0.860018 0.088860 0.523566
O O4 0.764634 0.097974 0.484582
O O5 0.841896 0.721163 0.750000
O O6 0.902289 0.723001 0.515952
O O7 0.823198 0.642112 0.505011
O O8 0.580805 0.572296 0.750000
O O9 0.557776 0.650775 0.981822
O O10 0.565883 0.500000 0.000000
O O11 0.560044 0.260433 0.250000
O O12 0.500000 0.236937 0.473692
O O13 0.706518 0.920478 0.750000
O O14 0.697525 0.000000 0.500000
#
# Coordination Sequence:
#
# PCOD9472976 Si02
#       5
#    16  16  16  16  16
#     4  10  20  36  55  78 110 149 188 222 262 313
#     4  11  22  37  57  82 110 141 180 225 270 319
#     4   9  18  30  47  73 107 144 179 217 260 308
#     4   9  19  37  57  76 102 139 181 225 275 328
#     4  12  24  38  56  81 112 145 180 219 267 320
#
# _framework density 18.126757000000001
#
# number of rings (size 3 to 8) (size 9 to 14) (size 15 to 20)
#    0.000    1.800    0.000    6.600    0.000    6.400 
#    0.000    0.000    0.000    0.600    0.000    0.000 
#    0.000    0.000    0.000    0.000    0.000    0.000 
#
# Total GULP energy -223509.717181 kJ/mol
# GULP energy per Si atom -5587.742930 kJ/mol
# Density = 1.808550 g / cm^3
# Si number density = 18.126757 Si / 1000 Ang^3
#
#
#
# Elastic Constant Matrix: (Units=GPa)
#
#
# Indices 1 2 3 4 5 6 
#
# 1 47.3959 1.6163 5.9271 0.0000 0.0000 0.0000
# 2 1.6163 60.1722 -2.9834 0.0000 0.0000 0.0000
# 3 5.9271 -2.9834 42.9319 0.0000 0.0000 0.0000
# 4 0.0000 0.0000 0.0000 31.2759 0.0000 0.0000
# 5 0.0000 0.0000 0.0000 0.0000 23.7104 0.0000
# 6 0.0000 0.0000 0.0000 0.0000 0.0000 -0.3598
#
#
#
# Elastic Compliance Matrix: (Units=1/GPa)
#
#
# Indices 1 2 3 4 5 6 
#
# 1 0.021501 -0.000727 -0.003019 0.000000 0.000000 0.000000
# 2 -0.000727 0.016701 0.001261 0.000000 0.000000 0.000000
# 3 -0.003019 0.001261 0.023797 0.000000 0.000000 0.000000
# 4 0.000000 0.000000 0.000000 0.031973 0.000000 0.000000
# 5 0.000000 0.000000 0.000000 0.000000 0.042176 0.000000
# 6 0.000000 0.000000 0.000000 0.000000 0.000000 -2.779149
#
#
# Mechanical properties :
#
#
# Convention : Reuss Voigt Hill
#
# Bulk Modulus (GPa) = 17.53495 17.73556 17.63526
# Shear Modulus (GPa) = -1.90911 20.65464 9.37276
#
# Velocity S-wave (km/s) = -1.02737 3.37924 2.27638
# Velocity P-wave (km/s) = 2.87875 5.00311 4.08157
#
# Compressibility (1/GPa) = 0.05702895
#
# Stress axis : x y z
#
# Youngs Moduli (GPa) = 46.50904 59.87659 42.02186
#
# Poissons Ratio (x) = 0.04354 0.12686
# Poissons Ratio (y) = 0.03382 -0.05299
# Poissons Ratio (z) = 0.14041 -0.07550
#
# Static dielectric constant tensor:
#      x y z
#    x 1.625700 0.000000 0.000000 
#    y 0.000000 1.602490 0.000000 
#    z 0.000000 0.000000 1.605960 
# 
# From -- ./inp_files/11988.got.cif
#   From: 2010.05.17/outbox.cif.g08.bks.cpg/sg63_6_cif.got.tgz:11988.got - 2010.06.03 15:47:04.
