data_PCOD9472179
_publ_section_title
;
Structure prediction by ZEFSAII (Michael W. Deem and Ramdas Pophale) SiO2 
 PCOD9472179
Probable space group: C M C M
;
_chemical_formula_sum "Si O2"
_cell_formula_units_Z 88
_cell_length_a 17.629412
_cell_length_b 9.147314
_cell_length_c 27.780729
_cell_angle_alpha 90.000000
_cell_angle_beta 90.000000
_cell_angle_gamma 90.000000
_cell_volume 4479.969453
_symmetry_space_group_name_H-M "C M C M"
_symmetry_group_IT_number 63
_symmetry_cell_setting 'orthorhombic'
loop_
_space_group_symop_operation_xyz
x,y,z
-x,-y,1/2+z
x,-y,-z
-x,y,1/2-z
-x,-y,-z
x,y,1/2-z
-x,y,z
x,-y,1/2+z
1/2+x,1/2+y,z
1/2-x,1/2-y,1/2+z
1/2+x,1/2-y,-z
1/2-x,1/2+y,1/2-z
1/2-x,1/2-y,-z
1/2+x,1/2+y,1/2-z
1/2-x,1/2+y,z
1/2+x,1/2-y,1/2+z
loop_
_atom_site_type_symbol
_atom_site_label
_atom_site_fract_x
_atom_site_fract_y
_atom_site_fract_z
Si Si1 0.416520 0.519398 0.750000
Si Si2 0.908205 0.450337 0.250000
Si Si3 0.583221 0.591818 0.142536
Si Si4 0.719577 0.881217 0.966428
Si Si5 0.806042 0.279366 0.750000
Si Si6 0.314184 0.610522 0.594021
Si Si7 0.196686 0.303830 0.330559
O O1 0.500000 0.594855 0.750000
O O2 0.415053 0.430237 0.700401
O O3 0.342778 0.619388 0.750000
O O4 0.877939 0.615648 0.250000
O O5 0.864456 0.382827 0.203751
O O6 0.000000 0.432189 0.250000
O O7 0.500000 0.640439 0.128490
O O8 0.606933 0.443565 0.116234
O O9 0.647886 0.708607 0.132621
O O10 0.682211 0.777569 0.925384
O O11 0.783467 0.989419 0.943923
O O12 0.750000 0.750000 0.000000
O O13 0.674833 0.000000 0.000000
O O14 0.751371 0.291173 0.704074
O O15 0.253326 0.601906 0.637441
#
# Coordination Sequence:
#
# PCOD9472179 Si02
#       7
#     8   8  16  16   8  16  16
#     4  10  20  34  51  77 122 165 197 235 282 330
#     4  11  24  37  50  76 123 168 194 234 293 333
#     4  11  22  36  55  85 121 161 198 238 283 339
#     4   9  20  37  62  95 118 140 183 246 304 359
#     4  11  21  33  52  79 115 153 205 249 280 319
#     4  11  19  36  64  94 114 150 198 244 287 349
#     4  11  22  34  58  82 114 154 207 244 278 327
#
# _framework density 19.642990999999999
#
# number of rings (size 3 to 8) (size 9 to 14) (size 15 to 20)
#    0.000    1.455    3.636    3.000    2.545    0.727 
#    0.000    0.000    0.000    5.455    0.000    0.000 
#    0.000    0.000    0.000    0.000    0.000    0.000 
#
# Total GULP energy -244974.825904 kJ/mol
# GULP energy per Si atom -5567.609680 kJ/mol
# Density = 1.959828 g / cm^3
# Si number density = 19.642991 Si / 1000 Ang^3
#
#
#
# Elastic Constant Matrix: (Units=GPa)
#
#
# Indices 1 2 3 4 5 6 
#
# 1 82.6395 5.3396 5.4907 0.0000 0.0000 0.0000
# 2 5.3396 75.9056 17.8573 0.0000 0.0000 0.0000
# 3 5.4907 17.8573 61.7651 0.0000 0.0000 0.0000
# 4 0.0000 0.0000 0.0000 32.5910 0.0000 0.0000
# 5 0.0000 0.0000 0.0000 0.0000 -22.5862 0.0000
# 6 0.0000 0.0000 0.0000 0.0000 0.0000 25.9970
#
#
#
# Elastic Compliance Matrix: (Units=1/GPa)
#
#
# Indices 1 2 3 4 5 6 
#
# 1 0.012202 -0.000647 -0.000898 0.000000 0.000000 0.000000
# 2 -0.000647 0.014170 -0.004039 0.000000 0.000000 0.000000
# 3 -0.000898 -0.004039 0.017438 0.000000 0.000000 0.000000
# 4 0.000000 0.000000 0.000000 0.030683 0.000000 0.000000
# 5 0.000000 0.000000 0.000000 0.000000 -0.044275 0.000000
# 6 0.000000 0.000000 0.000000 0.000000 0.000000 0.038466
#
#
# Mechanical properties :
#
#
# Convention : Reuss Voigt Hill
#
# Bulk Modulus (GPa) = 30.63529 30.85394 30.74461
# Shear Modulus (GPa) = 55.10644 19.97521 37.54082
#
# Velocity S-wave (km/s) = 5.30235 3.19237 4.37642
# Velocity P-wave (km/s) = 7.28810 5.41569 6.42052
#
# Compressibility (1/GPa) = 0.03264209
#
# Stress axis : x y z
#
# Youngs Moduli (GPa) = 81.95236 70.57138 57.34604
#
# Poissons Ratio (x) = 0.04567 0.05147
# Poissons Ratio (y) = 0.05304 0.23164
# Poissons Ratio (z) = 0.07356 0.28506
#
# Static dielectric constant tensor:
#      x y z
#    x 1.667220 0.000000 0.000000 
#    y 0.000000 1.770920 0.000000 
#    z 0.000000 0.000000 1.777890 
# 
# From -- ./inp_files/73845.got.cif
#   From: 2010.05.17/outbox.cif.g08.bks.cpg/sg63_37_cif.got.tgz:73845.got - 2010.06.03 15:47:04.
