data_PCOD9472942
_publ_section_title
;
Structure prediction by ZEFSAII (Michael W. Deem and Ramdas Pophale) SiO2 
 PCOD9472942
Probable space group: C M C M
;
_chemical_formula_sum "Si O2"
_cell_formula_units_Z 96
_cell_length_a 20.386243
_cell_length_b 14.567879
_cell_length_c 17.731918
_cell_angle_alpha 90.000000
_cell_angle_beta 90.000000
_cell_angle_gamma 90.000000
_cell_volume 5266.101632
_symmetry_space_group_name_H-M "C M C M"
_symmetry_group_IT_number 63
_symmetry_cell_setting 'orthorhombic'
loop_
_space_group_symop_operation_xyz
x,y,z
-x,-y,1/2+z
x,-y,-z
-x,y,1/2-z
-x,-y,-z
x,y,1/2-z
-x,y,z
x,-y,1/2+z
1/2+x,1/2+y,z
1/2-x,1/2-y,1/2+z
1/2+x,1/2-y,-z
1/2-x,1/2+y,1/2-z
1/2-x,1/2-y,-z
1/2+x,1/2+y,1/2-z
1/2-x,1/2+y,z
1/2+x,1/2-y,1/2+z
loop_
_atom_site_type_symbol
_atom_site_label
_atom_site_fract_x
_atom_site_fract_y
_atom_site_fract_z
Si Si1 0.195953 0.419297 0.660574
Si Si2 0.689792 0.256837 0.058413
Si Si3 0.922555 0.909781 0.838207
Si Si4 0.576155 0.949109 0.338591
Si Si5 0.185266 0.969050 0.087271
Si Si6 0.077530 0.729992 0.938918
O O1 0.205361 0.411535 0.750000
O O2 0.198402 0.320977 0.620963
O O3 0.126298 0.468887 0.646166
O O4 0.251968 0.483810 0.625546
O O5 0.688318 0.359498 0.090620
O O6 0.750000 0.250000 0.000000
O O7 0.623792 0.237678 0.010996
O O8 0.908014 0.895406 0.750000
O O9 0.908787 0.817390 0.885298
O O10 0.000000 0.929547 0.845544
O O11 0.878488 0.990256 0.871795
O O12 0.583168 0.922879 0.250000
O O13 0.500000 0.975170 0.350286
O O14 0.590907 0.862412 0.391605
O O15 0.183493 0.000000 0.000000
O O16 0.000000 0.731185 0.957582
#
# Coordination Sequence:
#
# PCOD9472942 Si02
#       6
#    16  16  16  16  16  16
#     4  11  25  42  62  87 120 159 200 249 304 362
#     4  12  24  40  61  88 119 154 198 251 303 356
#     4  10  21  38  61  91 125 159 200 248 295 350
#     4   9  19  37  61  89 122 161 201 243 295 356
#     4  12  23  40  64  88 119 158 202 251 298 361
#     4  10  20  35  61  93 122 156 199 248 298 351
#
# _framework density 18.229803
#
# number of rings (size 3 to 8) (size 9 to 14) (size 15 to 20)
#    0.000    1.333    3.333    2.000    0.000    5.000 
#    0.000    4.167    0.000    2.000    0.000    0.000 
#    0.000    0.000    0.000    0.000    0.000    0.000 
#
# Total GULP energy -268305.158048 kJ/mol
# GULP energy per Si atom -5589.690793 kJ/mol
# Density = 1.818831 g / cm^3
# Si number density = 18.229803 Si / 1000 Ang^3
#
#
#
# Elastic Constant Matrix: (Units=GPa)
#
#
# Indices 1 2 3 4 5 6 
#
# 1 50.0296 39.2457 45.6285 0.0000 0.0000 0.0000
# 2 39.2457 118.5177 47.0630 0.0000 0.0000 0.0000
# 3 45.6285 47.0630 85.2863 0.0000 0.0000 0.0000
# 4 0.0000 0.0000 0.0000 4.6222 0.0000 0.0000
# 5 0.0000 0.0000 0.0000 0.0000 34.8967 0.0000
# 6 0.0000 0.0000 0.0000 0.0000 0.0000 28.7044
#
#
#
# Elastic Compliance Matrix: (Units=1/GPa)
#
#
# Indices 1 2 3 4 5 6 
#
# 1 0.042589 -0.006473 -0.019213 0.000000 0.000000 0.000000
# 2 -0.006473 0.011789 -0.003042 0.000000 0.000000 0.000000
# 3 -0.019213 -0.003042 0.023683 0.000000 0.000000 0.000000
# 4 0.000000 0.000000 0.000000 0.216349 0.000000 0.000000
# 5 0.000000 0.000000 0.000000 0.000000 0.028656 0.000000
# 6 0.000000 0.000000 0.000000 0.000000 0.000000 0.034838
#
#
# Mechanical properties :
#
#
# Convention : Reuss Voigt Hill
#
# Bulk Modulus (GPa) = 48.53467 57.52310 53.02888
# Shear Modulus (GPa) = 11.84187 21.77108 16.80647
#
# Velocity S-wave (km/s) = 2.55147 3.45955 3.03961
# Velocity P-wave (km/s) = 5.94656 6.89789 6.43982
#
# Compressibility (1/GPa) = 0.02060383
#
# Stress axis : x y z
#
# Youngs Moduli (GPa) = 23.48011 84.82320 42.22413
#
# Poissons Ratio (x) = 0.54909 0.81126
# Poissons Ratio (y) = 0.15200 0.12846
# Poissons Ratio (z) = 0.45113 0.25806
#
# Static dielectric constant tensor:
#      x y z
#    x 1.624940 0.000000 0.000000 
#    y 0.000000 1.592780 0.000000 
#    z 0.000000 0.000000 1.601410 
# 
# From -- ./inp_files/35322.got.cif
#   From: 2010.05.17/outbox.cif.g08.bks.cpg/sg63_18_cif.got.tgz:35322.got - 2010.06.03 15:47:04.
