data_PCOD9472463
_publ_section_title
;
Structure prediction by ZEFSAII (Michael W. Deem and Ramdas Pophale) SiO2 
 PCOD9472463
Probable space group: C M C M
;
_chemical_formula_sum "Si O2"
_cell_formula_units_Z 64
_cell_length_a 21.020484
_cell_length_b 20.033774
_cell_length_c 8.766269
_cell_angle_alpha 90.000000
_cell_angle_beta 90.000000
_cell_angle_gamma 90.000000
_cell_volume 3691.647921
_symmetry_space_group_name_H-M "C M C M"
_symmetry_group_IT_number 63
_symmetry_cell_setting 'orthorhombic'
loop_
_space_group_symop_operation_xyz
x,y,z
-x,-y,1/2+z
x,-y,-z
-x,y,1/2-z
-x,-y,-z
x,y,1/2-z
-x,y,z
x,-y,1/2+z
1/2+x,1/2+y,z
1/2-x,1/2-y,1/2+z
1/2+x,1/2-y,-z
1/2-x,1/2+y,1/2-z
1/2-x,1/2-y,-z
1/2+x,1/2+y,1/2-z
1/2-x,1/2+y,z
1/2+x,1/2-y,1/2+z
loop_
_atom_site_type_symbol
_atom_site_label
_atom_site_fract_x
_atom_site_fract_y
_atom_site_fract_z
Si Si1 0.811607 0.787077 0.932050
Si Si2 0.571835 0.793418 0.931552
Si Si3 0.380933 0.070429 0.567760
Si Si4 0.761055 0.931004 0.567621
O O1 0.812066 0.777372 0.750000
O O2 0.802792 0.865697 0.963592
O O3 0.750000 0.750000 0.000000
O O4 0.874647 0.755314 0.002559
O O5 0.580856 0.800056 0.750000
O O6 0.500000 0.769810 0.961132
O O7 0.581420 0.865926 0.006641
O O8 0.381672 0.068049 0.750000
O O9 0.308274 0.078658 0.508489
O O10 0.404265 0.000000 0.500000
O O11 0.752364 0.937019 0.750000
O O12 0.787338 0.000000 0.500000
#
# Coordination Sequence:
#
# PCOD9472463 Si02
#       4
#    16  16  16  16
#     4  11  22  36  59  86 114 148 188 234 281 335
#     4  11  24  40  57  80 113 151 192 237 284 337
#     4  11  21  34  55  80 112 151 189 231 277 334
#     4  10  20  34  55  84 115 145 183 230 280 333
#
# _framework density 17.336431000000001
#
# number of rings (size 3 to 8) (size 9 to 14) (size 15 to 20)
#    0.000    1.250    2.500    6.000    0.000    5.500 
#    0.000    0.000    0.000    0.750    0.000    0.000 
#    0.000    0.000    0.000    0.000    0.000    0.000 
#
# Total GULP energy -178847.870165 kJ/mol
# GULP energy per Si atom -5588.995943 kJ/mol
# Density = 1.729697 g / cm^3
# Si number density = 17.336431 Si / 1000 Ang^3
#
#
#
# Elastic Constant Matrix: (Units=GPa)
#
#
# Indices 1 2 3 4 5 6 
#
# 1 104.6277 71.4891 64.9975 0.0000 0.0000 0.0000
# 2 71.4891 127.8161 74.3752 0.0000 0.0000 0.0000
# 3 64.9975 74.3752 117.2128 0.0000 0.0000 0.0000
# 4 0.0000 0.0000 0.0000 33.9920 0.0000 0.0000
# 5 0.0000 0.0000 0.0000 0.0000 24.0366 0.0000
# 6 0.0000 0.0000 0.0000 0.0000 0.0000 22.1035
#
#
#
# Elastic Compliance Matrix: (Units=1/GPa)
#
#
# Indices 1 2 3 4 5 6 
#
# 1 0.017471 -0.006554 -0.005529 0.000000 0.000000 0.000000
# 2 -0.006554 0.014862 -0.005796 0.000000 0.000000 0.000000
# 3 -0.005529 -0.005796 0.015275 0.000000 0.000000 0.000000
# 4 0.000000 0.000000 0.000000 0.029419 0.000000 0.000000
# 5 0.000000 0.000000 0.000000 0.000000 0.041603 0.000000
# 6 0.000000 0.000000 0.000000 0.000000 0.000000 0.045242
#
#
# Mechanical properties :
#
#
# Convention : Reuss Voigt Hill
#
# Bulk Modulus (GPa) = 84.39175 85.70889 85.05032
# Shear Modulus (GPa) = 24.56023 25.27942 24.91982
#
# Velocity S-wave (km/s) = 3.76797 3.82274 3.79545
# Velocity P-wave (km/s) = 8.22889 8.30845 8.26877
#
# Compressibility (1/GPa) = 0.01184950
#
# Stress axis : x y z
#
# Youngs Moduli (GPa) = 57.23793 67.28403 65.46504
#
# Poissons Ratio (x) = 0.44100 0.36196
# Poissons Ratio (y) = 0.37516 0.37944
# Poissons Ratio (z) = 0.31648 0.38998
#
# Static dielectric constant tensor:
#      x y z
#    x 1.569830 0.000000 0.000000 
#    y 0.000000 1.597610 0.000000 
#    z 0.000000 0.000000 1.579660 
# 
# From -- ./inp_files/5708.got.cif
#   From: 2010.05.17/outbox.cif.g08.bks.cpg/sg63_3_cif.got.tgz:5708.got - 2010.06.03 15:47:04.
