data_PCOD9472513
_publ_section_title
;
Structure prediction by ZEFSAII (Michael W. Deem and Ramdas Pophale) SiO2 
 PCOD9472513
Probable space group: C M C M
;
_chemical_formula_sum "Si O2"
_cell_formula_units_Z 120
_cell_length_a 20.954552
_cell_length_b 12.000764
_cell_length_c 26.741045
_cell_angle_alpha 90.000000
_cell_angle_beta 90.000000
_cell_angle_gamma 90.000000
_cell_volume 6724.587521
_symmetry_space_group_name_H-M "C M C M"
_symmetry_group_IT_number 63
_symmetry_cell_setting 'orthorhombic'
loop_
_space_group_symop_operation_xyz
x,y,z
-x,-y,1/2+z
x,-y,-z
-x,y,1/2-z
-x,-y,-z
x,y,1/2-z
-x,y,z
x,-y,1/2+z
1/2+x,1/2+y,z
1/2-x,1/2-y,1/2+z
1/2+x,1/2-y,-z
1/2-x,1/2+y,1/2-z
1/2-x,1/2-y,-z
1/2+x,1/2+y,1/2-z
1/2-x,1/2+y,z
1/2+x,1/2-y,1/2+z
loop_
_atom_site_type_symbol
_atom_site_label
_atom_site_fract_x
_atom_site_fract_y
_atom_site_fract_z
Si Si1 0.261922 0.308692 0.553331
Si Si2 0.344419 0.733735 0.867667
Si Si3 0.426194 0.574350 0.568832
Si Si4 0.820181 0.000000 0.500000
Si Si5 0.206883 0.024724 0.808384
Si Si6 0.574939 0.175357 0.806837
Si Si7 0.626992 0.359107 0.621076
Si Si8 0.645305 0.955608 0.808121
O O1 0.250000 0.250000 0.500000
O O2 0.204266 0.276215 0.589503
O O3 0.274766 0.438559 0.539443
O O4 0.327632 0.287981 0.583810
O O5 0.403665 0.665387 0.890817
O O6 0.307484 0.645719 0.832031
O O7 0.365176 0.842571 0.837810
O O8 0.500000 0.587804 0.553504
O O9 0.370625 0.582379 0.526750
O O10 0.415199 0.449698 0.591052
O O11 0.187212 0.021737 0.750000
O O12 0.170610 0.934824 0.842501
O O13 0.280894 0.992211 0.810976
O O14 0.600198 0.196284 0.750000
O O15 0.500000 0.160001 0.803379
O O16 0.589319 0.276398 0.843470
O O17 0.605771 0.061615 0.826236
O O18 0.629042 0.937271 0.750000
#
# Coordination Sequence:
#
# PCOD9472513 Si02
#       8
#    16  16  16   8  16  16  16  16
#     4  11  21  35  56  84 112 142 186 233 297 334
#     4  11  21  36  56  83 116 148 182 231 281 342
#     4  10  21  36  56  81 109 147 187 226 278 331
#     4  10  21  36  56  80 107 138 184 242 276 330
#     4  10  20  34  56  87 118 144 179 231 290 344
#     4  10  21  37  57  82 115 155 195 230 275 340
#     4  10  20  35  59  85 115 145 188 240 287 332
#     4  10  21  34  54  82 113 151 186 225 275 335
#
# _framework density 17.844961000000001
#
# number of rings (size 3 to 8) (size 9 to 14) (size 15 to 20)
#    0.000    1.733    2.667    2.200    0.000    1.600 
#    0.000    0.000    0.000    7.600    0.000    1.400 
#    0.000    0.000    0.000    0.000    0.000    0.000 
#
# Total GULP energy -334476.897485 kJ/mol
# GULP energy per Si atom -5574.614958 kJ/mol
# Density = 1.780434 g / cm^3
# Si number density = 17.844961 Si / 1000 Ang^3
#
#
#
# Elastic Constant Matrix: (Units=GPa)
#
#
# Indices 1 2 3 4 5 6 
#
# 1 55.1372 23.9061 9.5552 0.0000 0.0000 0.0000
# 2 23.9061 70.6140 17.6229 0.0000 0.0000 0.0000
# 3 9.5552 17.6229 62.3676 0.0000 0.0000 0.0000
# 4 0.0000 0.0000 0.0000 51.9265 0.0000 0.0000
# 5 0.0000 0.0000 0.0000 0.0000 37.2884 0.0000
# 6 0.0000 0.0000 0.0000 0.0000 0.0000 11.3081
#
#
#
# Elastic Compliance Matrix: (Units=1/GPa)
#
#
# Indices 1 2 3 4 5 6 
#
# 1 0.021358 -0.006901 -0.001322 0.000000 0.000000 0.000000
# 2 -0.006901 0.017465 -0.003878 0.000000 0.000000 0.000000
# 3 -0.001322 -0.003878 0.017332 0.000000 0.000000 0.000000
# 4 0.000000 0.000000 0.000000 0.019258 0.000000 0.000000
# 5 0.000000 0.000000 0.000000 0.000000 0.026818 0.000000
# 6 0.000000 0.000000 0.000000 0.000000 0.000000 0.088432
#
#
# Mechanical properties :
#
#
# Convention : Reuss Voigt Hill
#
# Bulk Modulus (GPa) = 31.29508 32.25412 31.77460
# Shear Modulus (GPa) = 22.17138 29.24024 25.70581
#
# Velocity S-wave (km/s) = 3.52866 4.05232 3.79952
# Velocity P-wave (km/s) = 5.84612 6.32526 6.09041
#
# Compressibility (1/GPa) = 0.03195391
#
# Stress axis : x y z
#
# Youngs Moduli (GPa) = 46.82166 57.25591 57.69568
#
# Poissons Ratio (x) = 0.39510 0.07629
# Poissons Ratio (y) = 0.32309 0.22374
# Poissons Ratio (z) = 0.06191 0.22203
#
# Static dielectric constant tensor:
#      x y z
#    x 1.592040 0.000000 0.000000 
#    y 0.000000 1.608550 0.000000 
#    z 0.000000 0.000000 1.657190 
# 
# From -- ./inp_files/70510.got.cif
#   From: 2010.05.17/outbox.cif.g08.bks.cpg/sg63_36_cif.got.tgz:70510.got - 2010.06.03 15:47:04.
