data_PCOD9472920
_publ_section_title
;
Structure prediction by ZEFSAII (Michael W. Deem and Ramdas Pophale) SiO2 
 PCOD9472920
Probable space group: C M C M
;
_chemical_formula_sum "Si O2"
_cell_formula_units_Z 112
_cell_length_a 14.910927
_cell_length_b 24.364574
_cell_length_c 14.646544
_cell_angle_alpha 90.000000
_cell_angle_beta 90.000000
_cell_angle_gamma 90.000000
_cell_volume 5321.065771
_symmetry_space_group_name_H-M "C M C M"
_symmetry_group_IT_number 63
_symmetry_cell_setting 'orthorhombic'
loop_
_space_group_symop_operation_xyz
x,y,z
-x,-y,1/2+z
x,-y,-z
-x,y,1/2-z
-x,-y,-z
x,y,1/2-z
-x,y,z
x,-y,1/2+z
1/2+x,1/2+y,z
1/2-x,1/2-y,1/2+z
1/2+x,1/2-y,-z
1/2-x,1/2+y,1/2-z
1/2-x,1/2-y,-z
1/2+x,1/2+y,1/2-z
1/2-x,1/2+y,z
1/2+x,1/2-y,1/2+z
loop_
_atom_site_type_symbol
_atom_site_label
_atom_site_fract_x
_atom_site_fract_y
_atom_site_fract_z
Si Si1 0.330279 0.664464 0.849934
Si Si2 0.896479 0.375766 0.558454
Si Si3 0.647684 0.099263 0.850460
Si Si4 0.597995 0.452633 0.646799
Si Si5 0.597954 0.661187 0.454281
Si Si6 0.267971 0.210781 0.356018
Si Si7 0.707478 0.015231 0.105378
O O1 0.373464 0.659465 0.750000
O O2 0.250273 0.620460 0.856098
O O3 0.284855 0.724455 0.856000
O O4 0.392347 0.660125 0.937195
O O5 0.892858 0.381699 0.447571
O O6 0.847743 0.320685 0.591780
O O7 0.840060 0.425472 0.605245
O O8 0.000000 0.377919 0.586330
O O9 0.613165 0.117988 0.750000
O O10 0.649444 0.033206 0.851168
O O11 0.594995 0.430671 0.750000
O O12 0.500000 0.480002 0.630067
O O13 0.606612 0.401271 0.579896
O O14 0.690415 0.485384 0.640314
O O15 0.500000 0.682007 0.426964
O O16 0.677278 0.695270 0.408395
O O17 0.263859 0.192553 0.250000
O O18 0.713834 0.000000 0.000000
#
# Coordination Sequence:
#
# PCOD9472920 Si02
#       7
#    16  16  16  16  16  16  16
#     4  10  22  42  64  89 125 169 212 252 306 372
#     4  11  24  41  64  92 123 162 215 272 323 373
#     4  10  21  39  64  90 124 169 209 252 314 380
#     4  10  20  35  59  91 124 159 201 252 308 366
#     4  11  21  36  63  95 124 158 200 248 313 374
#     4  11  23  42  66  90 125 164 208 266 317 369
#     4  10  20  37  61  89 126 165 207 258 310 370
#
# _framework density 21.048414999999999
#
# number of rings (size 3 to 8) (size 9 to 14) (size 15 to 20)
#    0.000    1.571    2.857    2.143    0.000    5.714 
#    0.000    2.143    0.000    3.429    0.000    0.000 
#    0.000    0.000    0.000    0.000    0.000    0.000 
#
# Total GULP energy -312602.393425 kJ/mol
# GULP energy per Si atom -5582.185597 kJ/mol
# Density = 2.100051 g / cm^3
# Si number density = 21.048415 Si / 1000 Ang^3
#
#
#
# Elastic Constant Matrix: (Units=GPa)
#
#
# Indices 1 2 3 4 5 6 
#
# 1 105.7591 2.7491 18.9850 0.0000 0.0000 0.0000
# 2 2.7491 43.3291 11.7524 0.0000 0.0000 0.0000
# 3 18.9850 11.7524 113.1427 0.0000 0.0000 0.0000
# 4 0.0000 0.0000 0.0000 -70.4813 0.0000 0.0000
# 5 0.0000 0.0000 0.0000 0.0000 26.2126 0.0000
# 6 0.0000 0.0000 0.0000 0.0000 0.0000 -16.4561
#
#
#
# Elastic Compliance Matrix: (Units=1/GPa)
#
#
# Indices 1 2 3 4 5 6 
#
# 1 0.009750 -0.000180 -0.001617 0.000000 0.000000 0.000000
# 2 -0.000180 0.023752 -0.002437 0.000000 0.000000 0.000000
# 3 -0.001617 -0.002437 0.009363 0.000000 0.000000 0.000000
# 4 0.000000 0.000000 0.000000 -0.014188 0.000000 0.000000
# 5 0.000000 0.000000 0.000000 0.000000 0.038150 0.000000
# 6 0.000000 0.000000 0.000000 0.000000 0.000000 -0.060768
#
#
# Mechanical properties :
#
#
# Convention : Reuss Voigt Hill
#
# Bulk Modulus (GPa) = 29.07281 36.57822 32.82551
# Shear Modulus (GPa) = 192.36103 3.10466 97.73284
#
# Velocity S-wave (km/s) = 9.57017 1.21582 6.82152
# Velocity P-wave (km/s) = 11.66019 4.40305 8.81325
#
# Compressibility (1/GPa) = 0.03439640
#
# Stress axis : x y z
#
# Youngs Moduli (GPa) = 102.55909 42.10245 106.80420
#
# Poissons Ratio (x) = 0.00758 0.17275
# Poissons Ratio (y) = 0.01845 0.26028
# Poissons Ratio (z) = 0.16588 0.10260
#
# Static dielectric constant tensor:
#      x y z
#    x 1.749390 0.000000 0.000000 
#    y 0.000000 1.738070 0.000000 
#    z 0.000000 0.000000 1.789850 
# 
# From -- ./inp_files/32359.got.cif
#   From: 2010.05.17/outbox.cif.g08.bks.cpg/sg63_17_cif.got.tgz:32359.got - 2010.06.03 15:47:04.
