data_PCOD9472813
_publ_section_title
;
Structure prediction by ZEFSAII (Michael W. Deem and Ramdas Pophale) SiO2 
 PCOD9472813
Probable space group: C M C M
;
_chemical_formula_sum "Si O2"
_cell_formula_units_Z 72
_cell_length_a 29.326502
_cell_length_b 14.118699
_cell_length_c 8.808655
_cell_angle_alpha 90.000000
_cell_angle_beta 90.000000
_cell_angle_gamma 90.000000
_cell_volume 3647.241700
_symmetry_space_group_name_H-M "C M C M"
_symmetry_group_IT_number 63
_symmetry_cell_setting 'orthorhombic'
loop_
_space_group_symop_operation_xyz
x,y,z
-x,-y,1/2+z
x,-y,-z
-x,y,1/2-z
-x,-y,-z
x,y,1/2-z
-x,y,z
x,-y,1/2+z
1/2+x,1/2+y,z
1/2-x,1/2-y,1/2+z
1/2+x,1/2-y,-z
1/2-x,1/2+y,1/2-z
1/2-x,1/2-y,-z
1/2+x,1/2+y,1/2-z
1/2-x,1/2+y,z
1/2+x,1/2-y,1/2+z
loop_
_atom_site_type_symbol
_atom_site_label
_atom_site_fract_x
_atom_site_fract_y
_atom_site_fract_z
Si Si1 0.818774 0.791779 0.430360
Si Si2 0.054707 0.601890 0.429079
Si Si3 0.086739 0.208645 0.070152
Si Si4 0.000000 0.103811 0.930972
Si Si5 0.776163 0.396025 0.431171
O O1 0.825881 0.785595 0.250000
O O2 0.864498 0.826203 0.511396
O O3 0.805884 0.687747 0.494157
O O4 0.775950 0.861101 0.458783
O O5 0.064814 0.500000 0.500000
O O6 0.065193 0.604962 0.250000
O O7 0.081110 0.682615 0.518696
O O8 0.000000 0.618008 0.445458
O O9 0.083033 0.199533 0.250000
O O10 0.045051 0.155841 0.990227
O O11 0.000000 0.102639 0.750000
O O12 0.000000 0.000000 0.000000
O O13 0.784008 0.500000 0.500000
O O14 0.783882 0.397474 0.250000
#
# Coordination Sequence:
#
# PCOD9472813 Si02
#       5
#    16  16  16   8  16
#     4  10  22  40  62  90 124 161 204 252 303 362
#     4  10  20  35  57  84 117 156 198 247 299 358
#     4  12  24  40  63  91 125 163 206 255 306 363
#     4  12  26  46  67  90 121 162 210 258 308 358
#     4  10  21  39  64  92 123 159 199 249 306 367
#
# _framework density 19.740943999999999
#
# number of rings (size 3 to 8) (size 9 to 14) (size 15 to 20)
#    0.000    1.333    1.111    5.000    0.000    5.333 
#    0.000    6.667    0.000    0.000    0.000    0.000 
#    0.000    0.000    0.000    0.000    0.000    0.000 
#
# Total GULP energy -201388.676635 kJ/mol
# GULP energy per Si atom -5594.129907 kJ/mol
# Density = 1.969601 g / cm^3
# Si number density = 19.740944 Si / 1000 Ang^3
#
#
#
# Elastic Constant Matrix: (Units=GPa)
#
#
# Indices 1 2 3 4 5 6 
#
# 1 92.7066 10.4517 58.2299 0.0000 0.0000 0.0000
# 2 10.4517 55.1341 19.1667 0.0000 0.0000 0.0000
# 3 58.2299 19.1667 140.4239 0.0000 0.0000 0.0000
# 4 0.0000 0.0000 0.0000 34.2472 0.0000 0.0000
# 5 0.0000 0.0000 0.0000 0.0000 32.7965 0.0000
# 6 0.0000 0.0000 0.0000 0.0000 0.0000 -26.1476
#
#
#
# Elastic Compliance Matrix: (Units=1/GPa)
#
#
# Indices 1 2 3 4 5 6 
#
# 1 0.014611 -0.000697 -0.005964 0.000000 0.000000 0.000000
# 2 -0.000697 0.019074 -0.002315 0.000000 0.000000 0.000000
# 3 -0.005964 -0.002315 0.009910 0.000000 0.000000 0.000000
# 4 0.000000 0.000000 0.000000 0.029199 0.000000 0.000000
# 5 0.000000 0.000000 0.000000 0.000000 0.030491 0.000000
# 6 0.000000 0.000000 0.000000 0.000000 0.000000 -0.038244
#
#
# Mechanical properties :
#
#
# Convention : Reuss Voigt Hill
#
# Bulk Modulus (GPa) = 38.99288 51.55126 45.27207
# Shear Modulus (GPa) = 54.62076 21.54030 38.08053
#
# Velocity S-wave (km/s) = 5.26582 3.30684 4.39682
# Velocity P-wave (km/s) = 7.53438 6.38364 6.98276
#
# Compressibility (1/GPa) = 0.02564571
#
# Stress axis : x y z
#
# Youngs Moduli (GPa) = 68.44088 52.42658 100.90584
#
# Poissons Ratio (x) = 0.03652 0.60178
# Poissons Ratio (y) = 0.04768 0.23356
# Poissons Ratio (z) = 0.40817 0.12135
#
# Static dielectric constant tensor:
#      x y z
#    x 1.721650 0.000000 0.000000 
#    y 0.000000 1.643090 0.000000 
#    z 0.000000 0.000000 1.648630 
# 
# From -- ./inp_files/11703.got.cif
#   From: 2010.05.17/outbox.cif.g08.bks.cpg/sg63_6_cif.got.tgz:11703.got - 2010.06.03 15:47:04.
