data_PCOD9472104
_publ_section_title
;
Structure prediction by ZEFSAII (Michael W. Deem and Ramdas Pophale) SiO2 
 PCOD9472104
Probable space group: C M C M
;
_chemical_formula_sum "Si O2"
_cell_formula_units_Z 96
_cell_length_a 9.132627
_cell_length_b 20.967396
_cell_length_c 28.766721
_cell_angle_alpha 90.000000
_cell_angle_beta 90.000000
_cell_angle_gamma 90.000000
_cell_volume 5508.464807
_symmetry_space_group_name_H-M "C M C M"
_symmetry_group_IT_number 63
_symmetry_cell_setting 'orthorhombic'
loop_
_space_group_symop_operation_xyz
x,y,z
-x,-y,1/2+z
x,-y,-z
-x,y,1/2-z
-x,-y,-z
x,y,1/2-z
-x,y,z
x,-y,1/2+z
1/2+x,1/2+y,z
1/2-x,1/2-y,1/2+z
1/2+x,1/2-y,-z
1/2-x,1/2+y,1/2-z
1/2-x,1/2-y,-z
1/2+x,1/2+y,1/2-z
1/2-x,1/2+y,z
1/2+x,1/2-y,1/2+z
loop_
_atom_site_type_symbol
_atom_site_label
_atom_site_fract_x
_atom_site_fract_y
_atom_site_fract_z
Si Si1 0.825054 0.507686 0.896349
Si Si2 0.175108 0.125881 0.945915
Si Si3 0.324569 0.755770 0.892000
Si Si4 0.174755 0.196882 0.303018
Si Si5 0.674150 0.059705 0.197144
Si Si6 0.675239 0.121208 0.453926
O O1 0.739345 0.567379 0.916523
O O2 0.787303 0.489756 0.843234
O O3 0.793867 0.444517 0.926905
O O4 0.000000 0.519510 0.899130
O O5 0.212439 0.192490 0.920738
O O6 0.000000 0.121260 0.948867
O O7 0.243368 0.123867 0.997200
O O8 0.500000 0.757533 0.884966
O O9 0.245341 0.759756 0.842594
O O10 0.284415 0.818528 0.921829
O O11 0.210446 0.216604 0.250000
O O12 0.239963 0.125759 0.309264
O O13 0.000000 0.195141 0.307781
O O14 0.699305 0.037149 0.250000
O O15 0.500000 0.073493 0.192032
O O16 0.500000 0.124017 0.461793
#
# Coordination Sequence:
#
# PCOD9472104 Si02
#       6
#    16  16  16  16  16  16
#     4  10  20  36  57  81 110 146 184 222 267 323
#     4  11  24  37  53  80 113 146 181 227 278 323
#     4  10  21  39  58  79 109 147 187 222 267 327
#     4  10  20  33  54  86 115 138 173 225 277 319
#     4   9  17  33  58  83 107 141 183 222 265 321
#     4  10  20  37  59  80 104 143 191 229 266 320
#
# _framework density 17.427724000000001
#
# number of rings (size 3 to 8) (size 9 to 14) (size 15 to 20)
#    0.000    2.000    1.667    2.000    0.000    6.333 
#    0.000    0.833    0.000    3.000    0.000    0.000 
#    0.000    0.000    0.000    0.000    0.000    0.000 
#
# Total GULP energy -268000.252133 kJ/mol
# GULP energy per Si atom -5583.338586 kJ/mol
# Density = 1.738806 g / cm^3
# Si number density = 17.427724 Si / 1000 Ang^3
#
#
#
# Elastic Constant Matrix: (Units=GPa)
#
#
# Indices 1 2 3 4 5 6 
#
# 1 25.4073 29.3789 43.7439 0.0000 0.0000 0.0000
# 2 29.3789 81.7369 38.5067 0.0000 0.0000 0.0000
# 3 43.7439 38.5067 130.1345 0.0000 0.0000 0.0000
# 4 0.0000 0.0000 0.0000 -16.4071 0.0000 0.0000
# 5 0.0000 0.0000 0.0000 0.0000 25.7377 0.0000
# 6 0.0000 0.0000 0.0000 0.0000 0.0000 18.5563
#
#
#
# Elastic Compliance Matrix: (Units=1/GPa)
#
#
# Indices 1 2 3 4 5 6 
#
# 1 0.145706 -0.034043 -0.038905 0.000000 0.000000 0.000000
# 2 -0.034043 0.022170 0.004883 0.000000 0.000000 0.000000
# 3 -0.038905 0.004883 0.019317 0.000000 0.000000 0.000000
# 4 0.000000 0.000000 0.000000 -0.060949 0.000000 0.000000
# 5 0.000000 0.000000 0.000000 0.000000 0.038853 0.000000
# 6 0.000000 0.000000 0.000000 0.000000 0.000000 0.053890
#
#
# Mechanical properties :
#
#
# Convention : Reuss Voigt Hill
#
# Bulk Modulus (GPa) = 19.58338 51.17085 35.37712
# Shear Modulus (GPa) = 13.43586 13.95399 13.69492
#
# Velocity S-wave (km/s) = 2.77961 2.83269 2.80628
# Velocity P-wave (km/s) = 4.64359 6.33438 5.55371
#
# Compressibility (1/GPa) = 0.05106371
#
# Stress axis : x y z
#
# Youngs Moduli (GPa) = 6.86313 45.10592 51.76780
#
# Poissons Ratio (x) = 1.53555 2.01402
# Poissons Ratio (y) = 0.23364 -0.25280
# Poissons Ratio (z) = 0.26701 -0.22027
#
# Static dielectric constant tensor:
#      x y z
#    x 1.579430 0.000000 0.000000 
#    y 0.000000 1.562420 0.000000 
#    z 0.000000 0.000000 1.591560 
# 
# From -- ./inp_files/66905.got.cif
#   From: 2010.05.17/outbox.cif.g08.bks.cpg/sg63_34_cif.got.tgz:66905.got - 2010.06.03 15:47:04.
