data_PCOD9472575
_publ_section_title
;
Structure prediction by ZEFSAII (Michael W. Deem and Ramdas Pophale) SiO2 
 PCOD9472575
Probable space group: C M C M
;
_chemical_formula_sum "Si O2"
_cell_formula_units_Z 76
_cell_length_a 11.612835
_cell_length_b 14.622911
_cell_length_c 23.244255
_cell_angle_alpha 90.000000
_cell_angle_beta 90.000000
_cell_angle_gamma 90.000000
_cell_volume 3947.187196
_symmetry_space_group_name_H-M "C M C M"
_symmetry_group_IT_number 63
_symmetry_cell_setting 'orthorhombic'
loop_
_space_group_symop_operation_xyz
x,y,z
-x,-y,1/2+z
x,-y,-z
-x,y,1/2-z
-x,-y,-z
x,y,1/2-z
-x,y,z
x,-y,1/2+z
1/2+x,1/2+y,z
1/2-x,1/2-y,1/2+z
1/2+x,1/2-y,-z
1/2-x,1/2+y,1/2-z
1/2-x,1/2-y,-z
1/2+x,1/2+y,1/2-z
1/2-x,1/2+y,z
1/2+x,1/2-y,1/2+z
loop_
_atom_site_type_symbol
_atom_site_label
_atom_site_fract_x
_atom_site_fract_y
_atom_site_fract_z
Si Si1 0.749255 0.490615 0.366366
Si Si2 0.500000 0.729176 0.644504
Si Si3 0.136229 0.657544 0.552952
Si Si4 0.000000 0.976017 0.317899
Si Si5 0.370081 0.039950 0.750000
Si Si6 0.203887 0.315987 0.920879
Si Si7 0.500000 0.136972 0.250000
O O1 0.788865 0.421690 0.416554
O O2 0.615291 0.504182 0.351414
O O3 0.803244 0.444515 0.308803
O O4 0.793248 0.591498 0.383670
O O5 0.500000 0.633333 0.676176
O O6 0.389065 0.746522 0.605544
O O7 0.500000 0.804346 0.693633
O O8 0.164320 0.657710 0.485109
O O9 0.178951 0.757004 0.575392
O O10 0.000000 0.643103 0.562756
O O11 0.000000 0.002304 0.250000
O O12 0.500000 0.080267 0.750000
O O13 0.392183 0.930927 0.750000
#
# Coordination Sequence:
#
# PCOD9472575 Si02
#       7
#    16   8  16   8   8  16   4
#     4  12  24  42  65  93 127 169 214 263 324 381
#     4  12  20  42  65  92 127 171 220 259 312 383
#     4  11  25  42  64  95 130 169 213 265 320 384
#     4  12  26  42  64  94 134 169 215 271 326 381
#     4  10  20  36  62  96 121 156 211 271 303 376
#     4  11  24  42  64  94 129 166 212 266 318 383
#     4  10  20  34  66  96 116 168 216 262 306 364
#
# _framework density 19.254218000000002
#
# number of rings (size 3 to 8) (size 9 to 14) (size 15 to 20)
#    0.316    0.421    6.842    1.263    2.947    0.842 
#    0.000    2.105    0.000    0.000    0.000    0.000 
#    0.000    0.000    0.000    0.000    0.000    0.000 
#
# Total GULP energy -211974.208167 kJ/mol
# GULP energy per Si atom -5578.268636 kJ/mol
# Density = 1.921039 g / cm^3
# Si number density = 19.254218 Si / 1000 Ang^3
#
#
#
# Elastic Constant Matrix: (Units=GPa)
#
#
# Indices 1 2 3 4 5 6 
#
# 1 116.0289 0.8046 25.5598 0.0000 0.0000 0.0000
# 2 0.8046 45.5033 -3.6097 0.0000 0.0000 0.0000
# 3 25.5598 -3.6097 76.2743 0.0000 0.0000 0.0000
# 4 0.0000 0.0000 0.0000 15.8094 0.0000 0.0000
# 5 0.0000 0.0000 0.0000 0.0000 23.1512 0.0000
# 6 0.0000 0.0000 0.0000 0.0000 0.0000 14.3944
#
#
#
# Elastic Compliance Matrix: (Units=1/GPa)
#
#
# Indices 1 2 3 4 5 6 
#
# 1 0.009313 -0.000414 -0.003140 0.000000 0.000000 0.000000
# 2 -0.000414 0.022078 0.001184 0.000000 0.000000 0.000000
# 3 -0.003140 0.001184 0.014219 0.000000 0.000000 0.000000
# 4 0.000000 0.000000 0.000000 0.063254 0.000000 0.000000
# 5 0.000000 0.000000 0.000000 0.000000 0.043194 0.000000
# 6 0.000000 0.000000 0.000000 0.000000 0.000000 0.069471
#
#
# Mechanical properties :
#
#
# Convention : Reuss Voigt Hill
#
# Bulk Modulus (GPa) = 24.46888 31.47956 27.97422
# Shear Modulus (GPa) = 20.84257 25.00777 22.92517
#
# Velocity S-wave (km/s) = 3.29370 3.60783 3.45433
# Velocity P-wave (km/s) = 5.21541 5.80863 5.51999
#
# Compressibility (1/GPa) = 0.04086823
#
# Stress axis : x y z
#
# Youngs Moduli (GPa) = 107.37418 45.29474 70.32858
#
# Poissons Ratio (x) = 0.01874 0.22087
# Poissons Ratio (y) = 0.04443 -0.08323
# Poissons Ratio (z) = 0.33721 -0.05361
#
# Static dielectric constant tensor:
#      x y z
#    x 1.705890 0.000000 0.000000 
#    y 0.000000 1.647230 0.000000 
#    z 0.000000 0.000000 1.674020 
# 
# From -- ./inp_files/61204.got.cif
#   From: 2010.05.17/outbox.cif.g08.bks.cpg/sg63_31_cif.got.tgz:61204.got - 2010.06.03 15:47:04.
