data_PCOD9472174
_publ_section_title
;
Structure prediction by ZEFSAII (Michael W. Deem and Ramdas Pophale) SiO2 
 PCOD9472174
Probable space group: C M C M
;
_chemical_formula_sum "Si O2"
_cell_formula_units_Z 80
_cell_length_a 25.361637
_cell_length_b 10.117311
_cell_length_c 14.794752
_cell_angle_alpha 90.000000
_cell_angle_beta 90.000000
_cell_angle_gamma 90.000000
_cell_volume 3796.208629
_symmetry_space_group_name_H-M "C M C M"
_symmetry_group_IT_number 63
_symmetry_cell_setting 'orthorhombic'
loop_
_space_group_symop_operation_xyz
x,y,z
-x,-y,1/2+z
x,-y,-z
-x,y,1/2-z
-x,-y,-z
x,y,1/2-z
-x,y,z
x,-y,1/2+z
1/2+x,1/2+y,z
1/2-x,1/2-y,1/2+z
1/2+x,1/2-y,-z
1/2-x,1/2+y,1/2-z
1/2-x,1/2-y,-z
1/2+x,1/2+y,1/2-z
1/2-x,1/2+y,z
1/2+x,1/2-y,1/2+z
loop_
_atom_site_type_symbol
_atom_site_label
_atom_site_fract_x
_atom_site_fract_y
_atom_site_fract_z
Si Si1 0.326556 0.401843 0.143816
Si Si2 0.291327 0.874361 0.097149
Si Si3 0.061507 0.418489 0.360006
Si Si4 0.648827 0.883132 0.595272
Si Si5 0.629838 0.670976 0.147432
O O1 0.314638 0.426583 0.250000
O O2 0.270914 0.385090 0.093179
O O3 0.355082 0.261297 0.136197
O O4 0.359856 0.526362 0.107979
O O5 0.313655 0.745592 0.146401
O O6 0.313850 0.007487 0.142997
O O7 0.320481 0.866416 0.000049
O O8 0.067527 0.426825 0.250000
O O9 0.093214 0.541142 0.402615
O O10 0.089307 0.280619 0.390317
O O11 0.000000 0.419589 0.381206
O O12 0.611859 0.649214 0.250000
#
# Coordination Sequence:
#
# PCOD9472174 Si02
#       5
#    16  16  16  16  16
#     4  11  21  33  53  80 113 148 183 227 270 319
#     4  10  20  34  51  76 108 151 184 213 267 329
#     4   9  18  37  62  81 104 142 185 230 281 333
#     4  10  21  35  52  81 111 142 185 229 269 317
#     4   9  19  34  52  78 108 142 183 222 269 327
#
# _framework density 21.073657999999998
#
# number of rings (size 3 to 8) (size 9 to 14) (size 15 to 20)
#    0.000    2.200    0.000    3.000    0.000    6.400 
#    0.000   12.000    0.000    3.600    0.000   14.000 
#    0.000    0.000    0.000    0.000    0.000    0.000 
#
# Total GULP energy -223062.499464 kJ/mol
# GULP energy per Si atom -5576.562487 kJ/mol
# Density = 2.102569 g / cm^3
# Si number density = 21.073658 Si / 1000 Ang^3
#
#
#
# Elastic Constant Matrix: (Units=GPa)
#
#
# Indices 1 2 3 4 5 6 
#
# 1 150.7045 77.5213 21.0955 0.0000 0.0000 0.0000
# 2 77.5213 200.2192 15.7472 0.0000 0.0000 0.0000
# 3 21.0955 15.7472 75.2062 0.0000 0.0000 0.0000
# 4 0.0000 0.0000 0.0000 49.5622 0.0000 0.0000
# 5 0.0000 0.0000 0.0000 0.0000 -9.1303 0.0000
# 6 0.0000 0.0000 0.0000 0.0000 0.0000 -2.3165
#
#
#
# Elastic Compliance Matrix: (Units=1/GPa)
#
#
# Indices 1 2 3 4 5 6 
#
# 1 0.008500 -0.003155 -0.001724 0.000000 0.000000 0.000000
# 2 -0.003155 0.006250 -0.000423 0.000000 0.000000 0.000000
# 3 -0.001724 -0.000423 0.013869 0.000000 0.000000 0.000000
# 4 0.000000 0.000000 0.000000 0.020177 0.000000 0.000000
# 5 0.000000 0.000000 0.000000 0.000000 -0.109526 0.000000
# 6 0.000000 0.000000 0.000000 0.000000 0.000000 -0.431690
#
#
# Mechanical properties :
#
#
# Convention : Reuss Voigt Hill
#
# Bulk Modulus (GPa) = 55.51402 72.76197 64.13800
# Shear Modulus (GPa) = -10.50837 28.40748 8.94956
#
# Velocity S-wave (km/s) = -2.23547 3.67551 2.06301
# Velocity P-wave (km/s) = 4.44263 7.25361 6.01464
#
# Compressibility (1/GPa) = 0.01801347
#
# Stress axis : x y z
#
# Youngs Moduli (GPa) = 117.64839 160.01107 72.10378
#
# Poissons Ratio (x) = 0.50491 0.12427
# Poissons Ratio (y) = 0.37123 0.03053
# Poissons Ratio (z) = 0.20277 0.06776
#
# Static dielectric constant tensor:
#      x y z
#    x 1.720600 0.000000 0.000000 
#    y 0.000000 1.821220 0.000000 
#    z 0.000000 0.000000 1.891090 
# 
# From -- ./inp_files/49416.got.cif
#   From: 2010.05.17/outbox.cif.g08.bks.cpg/sg63_25_cif.got.tgz:49416.got - 2010.06.03 15:47:04.
