data_PCOD9472801
_publ_section_title
;
Structure prediction by ZEFSAII (Michael W. Deem and Ramdas Pophale) SiO2 
 PCOD9472801
Probable space group: C M C M
;
_chemical_formula_sum "Si O2"
_cell_formula_units_Z 112
_cell_length_a 23.202833
_cell_length_b 11.353614
_cell_length_c 21.747170
_cell_angle_alpha 90.000000
_cell_angle_beta 90.000000
_cell_angle_gamma 90.000000
_cell_volume 5728.987685
_symmetry_space_group_name_H-M "C M C M"
_symmetry_group_IT_number 63
_symmetry_cell_setting 'orthorhombic'
loop_
_space_group_symop_operation_xyz
x,y,z
-x,-y,1/2+z
x,-y,-z
-x,y,1/2-z
-x,-y,-z
x,y,1/2-z
-x,y,z
x,-y,1/2+z
1/2+x,1/2+y,z
1/2-x,1/2-y,1/2+z
1/2+x,1/2-y,-z
1/2-x,1/2+y,1/2-z
1/2-x,1/2-y,-z
1/2+x,1/2+y,1/2-z
1/2-x,1/2+y,z
1/2+x,1/2-y,1/2+z
loop_
_atom_site_type_symbol
_atom_site_label
_atom_site_fract_x
_atom_site_fract_y
_atom_site_fract_z
Si Si1 0.435608 0.990610 0.926562
Si Si2 0.869106 0.258906 0.933983
Si Si3 0.935282 0.835450 0.182268
Si Si4 0.747505 0.221302 0.888045
Si Si5 0.236544 0.969465 0.679967
Si Si6 0.615198 0.759575 0.425889
Si Si7 0.898587 0.090880 0.183510
O O1 0.500000 0.961651 0.902756
O O2 0.413592 0.117520 0.906756
O O3 0.386646 0.892958 0.917618
O O4 0.440664 0.000000 0.000000
O O5 0.897207 0.192407 0.876664
O O6 0.801640 0.228901 0.933953
O O7 0.894894 0.233953 0.001788
O O8 0.912563 0.796807 0.250000
O O9 0.000000 0.788186 0.175187
O O10 0.937202 0.976079 0.184324
O O11 0.755615 0.342146 0.847849
O O12 0.684210 0.230975 0.917227
O O13 0.749635 0.093275 0.854251
O O14 0.257688 0.978832 0.750000
O O15 0.167183 0.956472 0.680923
O O16 0.592318 0.665471 0.377400
O O17 0.904740 0.154048 0.250000
#
# Coordination Sequence:
#
# PCOD9472801 Si02
#       7
#    16  16  16  16  16  16  16
#     4   9  19  37  59  83 116 156 201 252 304 359
#     4  11  21  37  59  85 118 157 200 246 306 369
#     4  10  21  38  60  85 114 151 197 249 304 361
#     4  11  21  36  56  88 124 164 201 255 318 371
#     4  10  20  35  57  83 117 160 209 251 303 375
#     4  10  22  37  57  88 117 157 201 248 302 368
#     4   9  19  38  57  80 115 153 194 244 305 366
#
# _framework density 19.549702
#
# number of rings (size 3 to 8) (size 9 to 14) (size 15 to 20)
#    0.000    2.000    1.429    2.143    0.000    2.857 
#    0.000    2.857    0.000    0.857    0.000    0.000 
#    0.000    0.000    0.000    0.000    0.000    0.000 
#
# Total GULP energy -311804.246380 kJ/mol
# GULP energy per Si atom -5567.932971 kJ/mol
# Density = 1.950521 g / cm^3
# Si number density = 19.549702 Si / 1000 Ang^3
#
#
#
# Elastic Constant Matrix: (Units=GPa)
#
#
# Indices 1 2 3 4 5 6 
#
# 1 29.9515 0.3444 1.9006 0.0000 0.0000 0.0000
# 2 0.3444 100.7775 51.8959 0.0000 0.0000 0.0000
# 3 1.9006 51.8959 112.1019 0.0000 0.0000 0.0000
# 4 0.0000 0.0000 0.0000 9.8905 0.0000 0.0000
# 5 0.0000 0.0000 0.0000 0.0000 -9.3288 0.0000
# 6 0.0000 0.0000 0.0000 0.0000 0.0000 90.9385
#
#
#
# Elastic Compliance Matrix: (Units=1/GPa)
#
#
# Indices 1 2 3 4 5 6 
#
# 1 0.033427 0.000233 -0.000675 0.000000 0.000000 0.000000
# 2 0.000233 0.013030 -0.006036 0.000000 0.000000 0.000000
# 3 -0.000675 -0.006036 0.011726 0.000000 0.000000 0.000000
# 4 0.000000 0.000000 0.000000 0.101107 0.000000 0.000000
# 5 0.000000 0.000000 0.000000 0.000000 -0.107195 0.000000
# 6 0.000000 0.000000 0.000000 0.000000 0.000000 0.010996
#
#
# Mechanical properties :
#
#
# Convention : Reuss Voigt Hill
#
# Bulk Modulus (GPa) = 22.10985 39.01253 30.56119
# Shear Modulus (GPa) = 54.86992 30.87937 42.87465
#
# Velocity S-wave (km/s) = 5.30357 3.97864 4.68815
# Velocity P-wave (km/s) = 6.98841 6.41132 6.70608
#
# Compressibility (1/GPa) = 0.04522872
#
# Stress axis : x y z
#
# Youngs Moduli (GPa) = 29.91558 76.74345 85.27862
#
# Poissons Ratio (x) = -0.01790 0.05754
# Poissons Ratio (y) = -0.00698 0.51476
# Poissons Ratio (z) = 0.02018 0.46324
#
# Static dielectric constant tensor:
#      x y z
#    x 1.718990 0.000000 0.000000 
#    y 0.000000 1.705110 0.000000 
#    z 0.000000 0.000000 1.697630 
# 
# From -- ./inp_files/57622.got.cif
#   From: 2010.05.17/outbox.cif.g08.bks.cpg/sg63_29_cif.got.tgz:57622.got - 2010.06.03 15:47:04.
