data_PCOD9472037
_publ_section_title
;
Structure prediction by ZEFSAII (Michael W. Deem and Ramdas Pophale) SiO2 
 PCOD9472037
Probable space group: C M C M
;
_chemical_formula_sum "Si O2"
_cell_formula_units_Z 96
_cell_length_a 7.582941
_cell_length_b 20.283473
_cell_length_c 24.462296
_cell_angle_alpha 90.000000
_cell_angle_beta 90.000000
_cell_angle_gamma 90.000000
_cell_volume 3762.506095
_symmetry_space_group_name_H-M "C M C M"
_symmetry_group_IT_number 63
_symmetry_cell_setting 'orthorhombic'
loop_
_space_group_symop_operation_xyz
x,y,z
-x,-y,1/2+z
x,-y,-z
-x,y,1/2-z
-x,-y,-z
x,y,1/2-z
-x,y,z
x,-y,1/2+z
1/2+x,1/2+y,z
1/2-x,1/2-y,1/2+z
1/2+x,1/2-y,-z
1/2-x,1/2+y,1/2-z
1/2-x,1/2-y,-z
1/2+x,1/2+y,1/2-z
1/2-x,1/2+y,z
1/2+x,1/2-y,1/2+z
loop_
_atom_site_type_symbol
_atom_site_label
_atom_site_fract_x
_atom_site_fract_y
_atom_site_fract_z
Si Si1 0.796936 0.904720 0.691470
Si Si2 0.297046 0.231684 0.573085
Si Si3 0.788580 0.455272 0.157977
Si Si4 0.709362 0.694330 0.690215
Si Si5 0.789048 0.411591 0.043202
Si Si6 0.212841 0.125440 0.429180
O O1 0.717226 0.883443 0.750000
O O2 0.717960 0.887795 0.631946
O O3 0.000000 0.882129 0.691182
O O4 0.794130 0.984119 0.689357
O O5 0.500000 0.231044 0.555332
O O6 0.293696 0.230850 0.639043
O O7 0.215163 0.162124 0.555739
O O8 0.219377 0.301238 0.555119
O O9 0.744274 0.383590 0.181765
O O10 0.726120 0.454862 0.094390
O O11 0.000000 0.463093 0.160364
O O12 0.774645 0.714142 0.750000
O O13 0.500000 0.705208 0.687647
O O14 0.000000 0.409945 0.050161
O O15 0.756934 0.423097 0.979289
O O16 0.000000 0.126768 0.426154
#
# Coordination Sequence:
#
# PCOD9472037 Si02
#       6
#    16  16  16  16  16  16
#     4  10  22  39  56  77 108 144 181 222 267 314
#     4   9  19  35  54  79 110 145 183 220 265 320
#     4  10  21  37  57  81 107 138 179 223 270 324
#     4  10  20  33  52  80 110 140 178 226 276 321
#     4   9  19  35  55  81 110 137 172 223 275 319
#     4  10  21  36  56  81 108 143 184 220 260 317
#
# _framework density 25.514908999999999
#
# number of rings (size 3 to 8) (size 9 to 14) (size 15 to 20)
#    0.000    2.333    0.000    3.000    0.000    9.667 
#    0.000    5.000    0.000    0.000    0.000    0.000 
#    0.000    0.000    0.000    0.000    0.000    0.000 
#
# Total GULP energy -268261.227534 kJ/mol
# GULP energy per Si atom -5588.775574 kJ/mol
# Density = 2.545684 g / cm^3
# Si number density = 25.514909 Si / 1000 Ang^3
#
#
#
# Elastic Constant Matrix: (Units=GPa)
#
#
# Indices 1 2 3 4 5 6 
#
# 1 79.9703 -6.1766 8.4930 0.0000 0.0000 0.0000
# 2 -6.1766 44.3784 11.5845 0.0000 0.0000 0.0000
# 3 8.4930 11.5845 206.3731 0.0000 0.0000 0.0000
# 4 0.0000 0.0000 0.0000 18.3953 0.0000 0.0000
# 5 0.0000 0.0000 0.0000 0.0000 23.3867 0.0000
# 6 0.0000 0.0000 0.0000 0.0000 0.0000 3.8054
#
#
#
# Elastic Compliance Matrix: (Units=1/GPa)
#
#
# Indices 1 2 3 4 5 6 
#
# 1 0.012721 0.001936 -0.000632 0.000000 0.000000 0.000000
# 2 0.001936 0.023163 -0.001380 0.000000 0.000000 0.000000
# 3 -0.000632 -0.001380 0.004949 0.000000 0.000000 0.000000
# 4 0.000000 0.000000 0.000000 0.054362 0.000000 0.000000
# 5 0.000000 0.000000 0.000000 0.000000 0.042759 0.000000
# 6 0.000000 0.000000 0.000000 0.000000 0.000000 0.262787
#
#
# Mechanical properties :
#
#
# Convention : Reuss Voigt Hill
#
# Bulk Modulus (GPa) = 24.58182 39.83594 32.20888
# Shear Modulus (GPa) = 12.06406 30.23887 21.15146
#
# Velocity S-wave (km/s) = 2.17681 3.44633 2.88233
# Velocity P-wave (km/s) = 3.99665 5.61097 4.87115
#
# Compressibility (1/GPa) = 0.04068046
#
# Stress axis : x y z
#
# Youngs Moduli (GPa) = 78.60846 43.17211 202.05825
#
# Poissons Ratio (x) = -0.08356 0.12774
# Poissons Ratio (y) = -0.15215 0.27882
# Poissons Ratio (z) = 0.04969 0.05957
#
# Static dielectric constant tensor:
#      x y z
#    x 1.926610 0.000000 0.000000 
#    y 0.000000 2.004790 0.000000 
#    z 0.000000 0.000000 2.067540 
# 
# From -- ./inp_files/59865.got.cif
#   From: 2010.05.17/outbox.cif.g08.bks.cpg/sg63_30_cif.got.tgz:59865.got - 2010.06.03 15:47:04.
