data_PCOD9472170
_publ_section_title
;
Structure prediction by ZEFSAII (Michael W. Deem and Ramdas Pophale) SiO2 
 PCOD9472170
Probable space group: C M C M
;
_chemical_formula_sum "Si O2"
_cell_formula_units_Z 72
_cell_length_a 33.123140
_cell_length_b 13.588314
_cell_length_c 8.958653
_cell_angle_alpha 90.000000
_cell_angle_beta 90.000000
_cell_angle_gamma 90.000000
_cell_volume 4032.178870
_symmetry_space_group_name_H-M "C M C M"
_symmetry_group_IT_number 63
_symmetry_cell_setting 'orthorhombic'
loop_
_space_group_symop_operation_xyz
x,y,z
-x,-y,1/2+z
x,-y,-z
-x,y,1/2-z
-x,-y,-z
x,y,1/2-z
-x,y,z
x,-y,1/2+z
1/2+x,1/2+y,z
1/2-x,1/2-y,1/2+z
1/2+x,1/2-y,-z
1/2-x,1/2+y,1/2-z
1/2-x,1/2-y,-z
1/2+x,1/2+y,1/2-z
1/2-x,1/2+y,z
1/2+x,1/2-y,1/2+z
loop_
_atom_site_type_symbol
_atom_site_label
_atom_site_fract_x
_atom_site_fract_y
_atom_site_fract_z
Si Si1 0.847798 0.592107 0.918938
Si Si2 0.584036 0.211697 0.428652
Si Si3 0.368595 0.393588 0.568622
Si Si4 0.290571 0.280999 0.918069
Si Si5 0.500000 0.109379 0.070369
O O1 0.860276 0.568429 0.750000
O O2 0.817489 0.682768 0.912667
O O3 0.828124 0.500000 0.000000
O O4 0.885589 0.626844 0.016457
O O5 0.586346 0.224639 0.250000
O O6 0.600292 0.310900 0.508180
O O7 0.539565 0.173267 0.469461
O O8 0.377561 0.500000 0.500000
O O9 0.369620 0.393764 0.750000
O O10 0.322968 0.360329 0.520925
O O11 0.279895 0.311961 0.750000
O O12 0.250000 0.250000 0.000000
O O13 0.500000 0.097025 0.250000
O O14 0.500000 0.000000 0.000000
#
# Coordination Sequence:
#
# PCOD9472170 Si02
#       5
#    16  16  16  16   8
#     4  10  20  34  51  75 104 137 174 213 258 313
#     4  10  20  36  56  80 109 141 176 219 265 317
#     4  10  21  38  58  81 107 142 184 226 270 320
#     4   9  20  35  51  74 105 136 174 220 265 313
#     4  10  22  36  55  84 115 144 177 216 266 322
#
# _framework density 17.856352000000001
#
# number of rings (size 3 to 8) (size 9 to 14) (size 15 to 20)
#    0.000    2.222    0.000    4.000    0.000    9.778 
#    0.000    5.000    0.000    0.000    0.000    0.000 
#    0.000    0.000    0.000    0.000    0.000    0.000 
#
# Total GULP energy -200641.068954 kJ/mol
# GULP energy per Si atom -5573.363026 kJ/mol
# Density = 1.781571 g / cm^3
# Si number density = 17.856352 Si / 1000 Ang^3
#
#
#
# Elastic Constant Matrix: (Units=GPa)
#
#
# Indices 1 2 3 4 5 6 
#
# 1 116.0788 21.2890 42.6192 0.0000 0.0000 0.0000
# 2 21.2890 92.2309 34.4056 0.0000 0.0000 0.0000
# 3 42.6192 34.4056 68.8809 0.0000 0.0000 0.0000
# 4 0.0000 0.0000 0.0000 32.6417 0.0000 0.0000
# 5 0.0000 0.0000 0.0000 0.0000 23.5162 0.0000
# 6 0.0000 0.0000 0.0000 0.0000 0.0000 10.2475
#
#
#
# Elastic Compliance Matrix: (Units=1/GPa)
#
#
# Indices 1 2 3 4 5 6 
#
# 1 0.011147 0.000000 -0.006897 0.000000 0.000000 0.000000
# 2 0.000000 0.013325 -0.006656 0.000000 0.000000 0.000000
# 3 -0.006897 -0.006656 0.022110 0.000000 0.000000 0.000000
# 4 0.000000 0.000000 0.000000 0.030636 0.000000 0.000000
# 5 0.000000 0.000000 0.000000 0.000000 0.042524 0.000000
# 6 0.000000 0.000000 0.000000 0.000000 0.000000 0.097585
#
#
# Mechanical properties :
#
#
# Convention : Reuss Voigt Hill
#
# Bulk Modulus (GPa) = 51.34476 52.64646 51.99561
# Shear Modulus (GPa) = 19.92630 25.20619 22.56625
#
# Velocity S-wave (km/s) = 3.34417 3.76122 3.55881
# Velocity P-wave (km/s) = 6.61272 6.95770 6.78740
#
# Compressibility (1/GPa) = 0.01947618
#
# Stress axis : x y z
#
# Youngs Moduli (GPa) = 89.70868 75.04550 45.22871
#
# Poissons Ratio (x) = 0.00001 0.31195
# Poissons Ratio (y) = 0.00001 0.30103
# Poissons Ratio (z) = 0.61873 0.49949
#
# Static dielectric constant tensor:
#      x y z
#    x 1.612910 0.000000 0.000000 
#    y 0.000000 1.604030 0.000000 
#    z 0.000000 0.000000 1.633360 
# 
# From -- ./inp_files/13915.got.cif
#   From: 2010.05.17/outbox.cif.g08.bks.cpg/sg63_7_cif.got.tgz:13915.got - 2010.06.03 15:47:04.
