data_PCOD9472962
_publ_section_title
;
Structure prediction by ZEFSAII (Michael W. Deem and Ramdas Pophale) SiO2 
 PCOD9472962
Probable space group: C M C M
;
_chemical_formula_sum "Si O2"
_cell_formula_units_Z 88
_cell_length_a 14.782764
_cell_length_b 31.229965
_cell_length_c 9.781432
_cell_angle_alpha 90.000000
_cell_angle_beta 90.000000
_cell_angle_gamma 90.000000
_cell_volume 4515.746783
_symmetry_space_group_name_H-M "C M C M"
_symmetry_group_IT_number 63
_symmetry_cell_setting 'orthorhombic'
loop_
_space_group_symop_operation_xyz
x,y,z
-x,-y,1/2+z
x,-y,-z
-x,y,1/2-z
-x,-y,-z
x,y,1/2-z
-x,y,z
x,-y,1/2+z
1/2+x,1/2+y,z
1/2-x,1/2-y,1/2+z
1/2+x,1/2-y,-z
1/2-x,1/2+y,1/2-z
1/2-x,1/2-y,-z
1/2+x,1/2+y,1/2-z
1/2-x,1/2+y,z
1/2+x,1/2-y,1/2+z
loop_
_atom_site_type_symbol
_atom_site_label
_atom_site_fract_x
_atom_site_fract_y
_atom_site_fract_z
Si Si1 0.500000 0.955822 0.416902
Si Si2 0.355451 0.385522 0.410662
Si Si3 0.361569 0.210333 0.908234
Si Si4 0.639381 0.116412 0.587746
Si Si5 0.859069 0.211477 0.593944
Si Si6 0.894695 0.964063 0.597181
O O1 0.500000 0.962634 0.250000
O O2 0.584952 0.925352 0.456720
O O3 0.500000 0.000000 0.500000
O O4 0.375902 0.394635 0.250000
O O5 0.246784 0.387819 0.427949
O O6 0.386273 0.337068 0.440668
O O7 0.392964 0.419943 0.514859
O O8 0.389442 0.214224 0.750000
O O9 0.388388 0.163543 0.965629
O O10 0.251244 0.210688 0.908747
O O11 0.390968 0.251039 0.995338
O O12 0.621910 0.119517 0.750000
O O13 0.885869 0.220095 0.750000
O O14 0.855156 0.961478 0.750000
O O15 0.000000 0.975983 0.613687
O O16 0.850768 0.000000 0.500000
#
# Coordination Sequence:
#
# PCOD9472962 Si02
#       6
#     8  16  16  16  16  16
#     4  10  20  36  54  70  96 132 170 214 265 304
#     4   9  17  31  51  75 102 131 166 203 244 295
#     4   8  13  24  43  66  92 124 162 197 233 284
#     4   8  16  31  51  73  97 130 169 209 249 295
#     4   8  14  24  41  68  98 125 154 193 240 285
#     4  10  21  36  53  73  97 126 161 199 243 295
#
# _framework density 19.487365
#
# number of rings (size 3 to 8) (size 9 to 14) (size 15 to 20)
#    0.000    3.273    0.000    2.727    0.000    2.545 
#    0.000    6.364    2.000    0.000    0.000    0.000 
#    0.000    0.000    0.000    0.000    0.000    0.000 
#
# Total GULP energy -245120.872588 kJ/mol
# GULP energy per Si atom -5570.928922 kJ/mol
# Density = 1.944301 g / cm^3
# Si number density = 19.487365 Si / 1000 Ang^3
#
#
#
# Elastic Constant Matrix: (Units=GPa)
#
#
# Indices 1 2 3 4 5 6 
#
# 1 47.2257 19.2931 12.0931 0.0000 0.0000 0.0000
# 2 19.2931 171.8469 97.4235 0.0000 0.0000 0.0000
# 3 12.0931 97.4235 103.9334 0.0000 0.0000 0.0000
# 4 0.0000 0.0000 0.0000 36.1726 0.0000 0.0000
# 5 0.0000 0.0000 0.0000 0.0000 8.9164 0.0000
# 6 0.0000 0.0000 0.0000 0.0000 0.0000 28.3317
#
#
#
# Elastic Compliance Matrix: (Units=1/GPa)
#
#
# Indices 1 2 3 4 5 6 
#
# 1 0.022206 -0.002194 -0.000527 0.000000 0.000000 0.000000
# 2 -0.002194 0.012635 -0.011589 0.000000 0.000000 0.000000
# 3 -0.000527 -0.011589 0.020546 0.000000 0.000000 0.000000
# 4 0.000000 0.000000 0.000000 0.027645 0.000000 0.000000
# 5 0.000000 0.000000 0.000000 0.000000 0.112153 0.000000
# 6 0.000000 0.000000 0.000000 0.000000 0.000000 0.035296
#
#
# Mechanical properties :
#
#
# Convention : Reuss Voigt Hill
#
# Bulk Modulus (GPa) = 37.35869 64.51394 50.93631
# Shear Modulus (GPa) = 18.65505 27.63055 23.14280
#
# Velocity S-wave (km/s) = 3.09737 3.76955 3.44987
# Velocity P-wave (km/s) = 5.65720 7.21965 6.48565
#
# Compressibility (1/GPa) = 0.02676753
#
# Stress axis : x y z
#
# Youngs Moduli (GPa) = 45.03230 79.14357 48.67240
#
# Poissons Ratio (x) = 0.17367 0.02564
# Poissons Ratio (y) = 0.09882 0.56404
# Poissons Ratio (z) = 0.02372 0.91716
#
# Static dielectric constant tensor:
#      x y z
#    x 1.606680 0.000000 0.000000 
#    y 0.000000 1.691420 0.000000 
#    z 0.000000 0.000000 1.669430 
# 
# From -- ./inp_files/6837.got.cif
#   From: 2010.05.17/outbox.cif.g08.bks.cpg/sg63_4_cif.got.tgz:6837.got - 2010.06.03 15:47:04.
