data_PCOD9472285
_publ_section_title
;
Structure prediction by ZEFSAII (Michael W. Deem and Ramdas Pophale) SiO2 
 PCOD9472285
Probable space group: C M C M
;
_chemical_formula_sum "Si O2"
_cell_formula_units_Z 116
_cell_length_a 7.913768
_cell_length_b 34.214203
_cell_length_c 24.042819
_cell_angle_alpha 90.000000
_cell_angle_beta 90.000000
_cell_angle_gamma 90.000000
_cell_volume 6509.912169
_symmetry_space_group_name_H-M "C M C M"
_symmetry_group_IT_number 63
_symmetry_cell_setting 'orthorhombic'
loop_
_space_group_symop_operation_xyz
x,y,z
-x,-y,1/2+z
x,-y,-z
-x,y,1/2-z
-x,-y,-z
x,y,1/2-z
-x,y,z
x,-y,1/2+z
1/2+x,1/2+y,z
1/2-x,1/2-y,1/2+z
1/2+x,1/2-y,-z
1/2-x,1/2+y,1/2-z
1/2-x,1/2-y,-z
1/2+x,1/2+y,1/2-z
1/2-x,1/2+y,z
1/2+x,1/2-y,1/2+z
loop_
_atom_site_type_symbol
_atom_site_label
_atom_site_fract_x
_atom_site_fract_y
_atom_site_fract_z
Si Si1 0.802810 0.386357 0.507658
Si Si2 0.500000 0.005413 0.750000
Si Si3 0.696590 0.729453 0.911937
Si Si4 0.700902 0.822443 0.187416
Si Si5 0.793393 0.398713 0.380237
Si Si6 0.200219 0.030342 0.453908
Si Si7 0.696053 0.515846 0.660511
Si Si8 0.802780 0.803170 0.970872
O O1 0.740980 0.391730 0.444134
O O2 0.779034 0.427153 0.538830
O O3 0.717097 0.349205 0.536116
O O4 0.000000 0.376798 0.504387
O O5 0.348072 0.006875 0.702366
O O6 0.500000 0.719749 0.909183
O O7 0.771554 0.713129 0.855132
O O8 0.719219 0.775152 0.925363
O O9 0.767431 0.708039 0.967551
O O10 0.769338 0.817228 0.250000
O O11 0.500000 0.827395 0.192175
O O12 0.762442 0.862038 0.157316
O O13 0.718903 0.439046 0.357999
O O14 0.000000 0.401415 0.378712
O O15 0.000000 0.035224 0.464707
O O16 0.267986 0.000000 0.500000
O O17 0.219884 0.011030 0.393944
O O18 0.500000 0.510507 0.679768
O O19 0.000000 0.792776 0.970657
#
# Coordination Sequence:
#
# PCOD9472285 Si02
#       8
#    16   4  16  16  16  16  16  16
#     4  11  21  32  56  87 119 152 190 230 297 363
#     4  12  26  44  62  78 120 156 214 258 296 346
#     4  10  20  34  53  77 110 144 186 234 284 337
#     4  10  21  35  54  78 112 156 195 230 279 336
#     4  10  20  34  53  82 122 159 192 241 284 347
#     4  10  21  37  57  86 121 152 191 243 299 360
#     4  11  24  40  62  87 115 160 205 248 302 360
#     4  10  20  34  54  79 110 145 182 235 289 340
#
# _framework density 17.818981999999998
#
# number of rings (size 3 to 8) (size 9 to 14) (size 15 to 20)
#    0.000    1.655    3.448    1.448    1.931    2.759 
#    0.000    0.000    0.000    0.000    1.793    0.000 
#    0.000    0.000    0.000    0.000    0.000    0.000 
#
# Total GULP energy -323138.229036 kJ/mol
# GULP energy per Si atom -5571.348776 kJ/mol
# Density = 1.777842 g / cm^3
# Si number density = 17.818982 Si / 1000 Ang^3
#
#
#
# Elastic Constant Matrix: (Units=GPa)
#
#
# Indices 1 2 3 4 5 6 
#
# 1 63.5665 13.0551 31.6920 0.0000 0.0000 0.0000
# 2 13.0551 96.6298 49.7560 0.0000 0.0000 0.0000
# 3 31.6920 49.7560 104.6217 0.0000 0.0000 0.0000
# 4 0.0000 0.0000 0.0000 2.7230 0.0000 0.0000
# 5 0.0000 0.0000 0.0000 0.0000 25.1187 0.0000
# 6 0.0000 0.0000 0.0000 0.0000 0.0000 21.7697
#
#
#
# Elastic Compliance Matrix: (Units=1/GPa)
#
#
# Indices 1 2 3 4 5 6 
#
# 1 0.018549 0.000513 -0.005863 0.000000 0.000000 0.000000
# 2 0.000513 0.013719 -0.006680 0.000000 0.000000 0.000000
# 3 -0.005863 -0.006680 0.014511 0.000000 0.000000 0.000000
# 4 0.000000 0.000000 0.000000 0.367245 0.000000 0.000000
# 5 0.000000 0.000000 0.000000 0.000000 0.039811 0.000000
# 6 0.000000 0.000000 0.000000 0.000000 0.000000 0.045935
#
#
# Mechanical properties :
#
#
# Convention : Reuss Voigt Hill
#
# Bulk Modulus (GPa) = 44.01498 50.42491 47.21994
# Shear Modulus (GPa) = 9.40905 21.27661 15.34283
#
# Velocity S-wave (km/s) = 2.30039 3.45924 2.93753
# Velocity P-wave (km/s) = 5.64008 6.65695 6.16950
#
# Compressibility (1/GPa) = 0.02271954
#
# Stress axis : x y z
#
# Youngs Moduli (GPa) = 53.91058 72.89143 68.91325
#
# Poissons Ratio (x) = -0.03738 0.40402
# Poissons Ratio (y) = -0.02764 0.46033
# Poissons Ratio (z) = 0.31607 0.48690
#
# Static dielectric constant tensor:
#      x y z
#    x 1.633760 0.000000 0.000000 
#    y 0.000000 1.593900 0.000000 
#    z 0.000000 0.000000 1.598600 
# 
# From -- ./inp_files/60603.got.cif
#   From: 2010.05.17/outbox.cif.g08.bks.cpg/sg63_31_cif.got.tgz:60603.got - 2010.06.03 15:47:04.
