data_PCOD9472772
_publ_section_title
;
Structure prediction by ZEFSAII (Michael W. Deem and Ramdas Pophale) SiO2 
 PCOD9472772
Probable space group: C M C M
;
_chemical_formula_sum "Si O2"
_cell_formula_units_Z 104
_cell_length_a 25.856653
_cell_length_b 9.946797
_cell_length_c 21.305047
_cell_angle_alpha 90.000000
_cell_angle_beta 90.000000
_cell_angle_gamma 90.000000
_cell_volume 5479.463754
_symmetry_space_group_name_H-M "C M C M"
_symmetry_group_IT_number 63
_symmetry_cell_setting 'orthorhombic'
loop_
_space_group_symop_operation_xyz
x,y,z
-x,-y,1/2+z
x,-y,-z
-x,y,1/2-z
-x,-y,-z
x,y,1/2-z
-x,y,z
x,-y,1/2+z
1/2+x,1/2+y,z
1/2-x,1/2-y,1/2+z
1/2+x,1/2-y,-z
1/2-x,1/2+y,1/2-z
1/2-x,1/2-y,-z
1/2+x,1/2+y,1/2-z
1/2-x,1/2+y,z
1/2+x,1/2-y,1/2+z
loop_
_atom_site_type_symbol
_atom_site_label
_atom_site_fract_x
_atom_site_fract_y
_atom_site_fract_z
Si Si1 0.213687 0.060356 0.823446
Si Si2 0.000000 0.449664 0.609220
Si Si3 0.500000 0.679074 0.676341
Si Si4 0.500000 0.238051 0.675731
Si Si5 0.405823 0.687397 0.401965
Si Si6 0.094789 0.363519 0.979043
Si Si7 0.304342 0.251572 0.824792
Si Si8 0.107968 0.112961 0.605921
O O1 0.211995 0.091245 0.750000
O O2 0.262830 0.142766 0.847621
O O3 0.158281 0.101143 0.850595
O O4 0.219692 0.900590 0.830789
O O5 0.000000 0.339191 0.664271
O O6 0.000000 0.593385 0.641830
O O7 0.048657 0.420956 0.564078
O O8 0.500000 0.644313 0.750000
O O9 0.553190 0.632722 0.642189
O O10 0.500000 0.225118 0.750000
O O11 0.449970 0.314982 0.650522
O O12 0.422415 0.783812 0.458598
O O13 0.355215 0.745974 0.367594
O O14 0.396242 0.535200 0.424894
O O15 0.118047 0.241795 0.938150
O O16 0.124491 0.500000 0.000000
O O17 0.316693 0.231391 0.750000
#
# Coordination Sequence:
#
# PCOD9472772 Si02
#       8
#    16   8   8   8  16  16  16  16
#     4   9  18  36  59  83 117 154 194 241 293 349
#     4  10  21  39  54  81 118 158 193 236 280 343
#     4  10  20  35  56  84 120 152 187 233 290 350
#     4  12  23  37  60  89 123 154 187 236 298 354
#     4  11  22  37  58  87 118 149 192 241 292 350
#     4  11  21  38  60  78 114 158 199 236 281 337
#     4   9  19  36  57  84 115 150 191 242 294 348
#     4  10  22  36  58  88 118 153 196 241 291 343
#
# _framework density 18.979960999999999
#
# number of rings (size 3 to 8) (size 9 to 14) (size 15 to 20)
#    0.000    1.846    1.538    2.769    0.000    3.692 
#    0.000    3.846    0.000    0.000    0.000    0.000 
#    0.000    0.000    0.000    0.000    0.000    0.000 
#
# Total GULP energy -289832.695077 kJ/mol
# GULP energy per Si atom -5573.705675 kJ/mol
# Density = 1.893676 g / cm^3
# Si number density = 18.979961 Si / 1000 Ang^3
#
#
#
# Elastic Constant Matrix: (Units=GPa)
#
#
# Indices 1 2 3 4 5 6 
#
# 1 64.6599 5.9234 11.8228 0.0000 0.0000 0.0000
# 2 5.9234 84.7379 24.0157 0.0000 0.0000 0.0000
# 3 11.8228 24.0157 72.5007 0.0000 0.0000 0.0000
# 4 0.0000 0.0000 0.0000 22.5709 0.0000 0.0000
# 5 0.0000 0.0000 0.0000 0.0000 6.7928 0.0000
# 6 0.0000 0.0000 0.0000 0.0000 0.0000 24.0344
#
#
#
# Elastic Compliance Matrix: (Units=1/GPa)
#
#
# Indices 1 2 3 4 5 6 
#
# 1 0.015954 -0.000417 -0.002464 0.000000 0.000000 0.000000
# 2 -0.000417 0.013035 -0.004250 0.000000 0.000000 0.000000
# 3 -0.002464 -0.004250 0.015602 0.000000 0.000000 0.000000
# 4 0.000000 0.000000 0.000000 0.044305 0.000000 0.000000
# 5 0.000000 0.000000 0.000000 0.000000 0.147214 0.000000
# 6 0.000000 0.000000 0.000000 0.000000 0.000000 0.041607
#
#
# Mechanical properties :
#
#
# Convention : Reuss Voigt Hill
#
# Bulk Modulus (GPa) = 32.96989 33.93582 33.45285
# Shear Modulus (GPa) = 16.55150 22.68874 19.62012
#
# Velocity S-wave (km/s) = 2.95625 3.46121 3.21865
# Velocity P-wave (km/s) = 5.39084 5.82168 5.61040
#
# Compressibility (1/GPa) = 0.03033071
#
# Stress axis : x y z
#
# Youngs Moduli (GPa) = 62.67950 76.71850 64.09274
#
# Poissons Ratio (x) = 0.03200 0.15789
# Poissons Ratio (y) = 0.02614 0.27237
# Poissons Ratio (z) = 0.15441 0.32603
#
# Static dielectric constant tensor:
#      x y z
#    x 1.633690 0.000000 0.000000 
#    y 0.000000 1.687480 0.000000 
#    z 0.000000 0.000000 1.660240 
# 
# From -- ./inp_files/58226.got.cif
#   From: 2010.05.17/outbox.cif.g08.bks.cpg/sg63_30_cif.got.tgz:58226.got - 2010.06.03 15:47:04.
