data_PCOD9473374
_publ_section_title
;
Structure prediction by ZEFSAII (Michael W. Deem and Ramdas Pophale) SiO2 
 PCOD9473374
Probable space group: C M C M
;
_chemical_formula_sum "Si O2"
_cell_formula_units_Z 84
_cell_length_a 10.415163
_cell_length_b 26.079095
_cell_length_c 15.552876
_cell_angle_alpha 90.000000
_cell_angle_beta 90.000000
_cell_angle_gamma 90.000000
_cell_volume 4224.441467
_symmetry_space_group_name_H-M "C M C M"
_symmetry_group_IT_number 63
_symmetry_cell_setting 'orthorhombic'
loop_
_space_group_symop_operation_xyz
x,y,z
-x,-y,1/2+z
x,-y,-z
-x,y,1/2-z
-x,-y,-z
x,y,1/2-z
-x,y,z
x,-y,1/2+z
1/2+x,1/2+y,z
1/2-x,1/2-y,1/2+z
1/2+x,1/2-y,-z
1/2-x,1/2+y,1/2-z
1/2-x,1/2-y,-z
1/2+x,1/2+y,1/2-z
1/2-x,1/2+y,z
1/2+x,1/2-y,1/2+z
loop_
_atom_site_type_symbol
_atom_site_label
_atom_site_fract_x
_atom_site_fract_y
_atom_site_fract_z
Si Si1 0.500000 0.852424 0.250000
Si Si2 0.150480 0.744204 0.148844
Si Si3 0.147584 0.365722 0.905187
Si Si4 0.713197 0.155665 0.598704
Si Si5 0.357937 0.441500 0.145909
Si Si6 0.648009 0.977070 0.646068
O O1 0.388429 0.851933 0.174665
O O2 0.155093 0.756665 0.250000
O O3 0.201677 0.686426 0.135468
O O4 0.232878 0.786724 0.100567
O O5 0.000000 0.745342 0.121767
O O6 0.200642 0.421248 0.880329
O O7 0.000000 0.368350 0.874254
O O8 0.154032 0.357702 0.006791
O O9 0.828013 0.115772 0.615635
O O10 0.355146 0.441952 0.250000
O O11 0.500000 0.458244 0.118533
O O12 0.243067 0.478403 0.115504
O O13 0.644055 0.979150 0.750000
O O14 0.500000 0.984050 0.615775
#
# Coordination Sequence:
#
# PCOD9473374 Si02
#       6
#     4  16  16  16  16  16
#     4  12  24  36  58  82 118 156 186 242 276 336
#     4  10  20  37  61  83 111 148 188 231 286 344
#     4  10  21  36  57  86 114 146 189 239 280 335
#     4  12  22  37  57  84 117 147 194 232 289 329
#     4  10  21  37  60  84 115 152 192 232 282 343
#     4   9  19  36  61  86 112 147 191 234 285 336
#
# _framework density 19.884285999999999
#
# number of rings (size 3 to 8) (size 9 to 14) (size 15 to 20)
#    0.000    1.714    2.857    1.714    1.333    4.571 
#    0.000    4.762    2.095    0.000    0.000    0.000 
#    0.000    0.000    0.000    0.000    0.000    0.000 
#
# Total GULP energy -233921.708066 kJ/mol
# GULP energy per Si atom -5569.564478 kJ/mol
# Density = 1.983903 g / cm^3
# Si number density = 19.884286 Si / 1000 Ang^3
#
#
#
# Elastic Constant Matrix: (Units=GPa)
#
#
# Indices 1 2 3 4 5 6 
#
# 1 74.5977 34.2433 2.9605 0.0000 0.0000 0.0000
# 2 34.2433 104.2696 -6.7046 0.0000 0.0000 0.0000
# 3 2.9605 -6.7046 28.7539 0.0000 0.0000 0.0000
# 4 0.0000 0.0000 0.0000 42.8971 0.0000 0.0000
# 5 0.0000 0.0000 0.0000 0.0000 15.1876 0.0000
# 6 0.0000 0.0000 0.0000 0.0000 0.0000 -0.6188
#
#
#
# Elastic Compliance Matrix: (Units=1/GPa)
#
#
# Indices 1 2 3 4 5 6 
#
# 1 0.016023 -0.005450 -0.002920 0.000000 0.000000 0.000000
# 2 -0.005450 0.011590 0.003264 0.000000 0.000000 0.000000
# 3 -0.002920 0.003264 0.035840 0.000000 0.000000 0.000000
# 4 0.000000 0.000000 0.000000 0.023312 0.000000 0.000000
# 5 0.000000 0.000000 0.000000 0.000000 0.065843 0.000000
# 6 0.000000 0.000000 0.000000 0.000000 0.000000 -1.616093
#
#
# Mechanical properties :
#
#
# Convention : Reuss Voigt Hill
#
# Bulk Modulus (GPa) = 18.78320 29.84663 24.31491
# Shear Modulus (GPa) = -3.48304 23.30133 9.90914
#
# Velocity S-wave (km/s) = -1.32494 3.42694 2.23478
# Velocity P-wave (km/s) = 2.66948 5.54087 4.34899
#
# Compressibility (1/GPa) = 0.05323908
#
# Stress axis : x y z
#
# Youngs Moduli (GPa) = 62.41092 86.28003 27.90217
#
# Poissons Ratio (x) = 0.47021 0.08149
# Poissons Ratio (y) = 0.34013 -0.09106
# Poissons Ratio (z) = 0.18227 -0.28158
#
# Static dielectric constant tensor:
#      x y z
#    x 1.699270 0.000000 0.000000 
#    y 0.000000 1.722070 0.000000 
#    z 0.000000 0.000000 1.686370 
# 
# From -- ./inp_files/29872.got.cif
#   From: 2010.05.17/outbox.cif.g08.bks.cpg/sg63_15_cif.got.tgz:29872.got - 2010.06.03 15:47:04.
