data_PCOD9473097
_publ_section_title
;
Structure prediction by ZEFSAII (Michael W. Deem and Ramdas Pophale) SiO2 
 PCOD9473097
Probable space group: C M C M
;
_chemical_formula_sum "Si O2"
_cell_formula_units_Z 96
_cell_length_a 18.711038
_cell_length_b 24.379510
_cell_length_c 12.709227
_cell_angle_alpha 90.000000
_cell_angle_beta 90.000000
_cell_angle_gamma 90.000000
_cell_volume 5797.516456
_symmetry_space_group_name_H-M "C M C M"
_symmetry_group_IT_number 63
_symmetry_cell_setting 'orthorhombic'
loop_
_space_group_symop_operation_xyz
x,y,z
-x,-y,1/2+z
x,-y,-z
-x,y,1/2-z
-x,-y,-z
x,y,1/2-z
-x,y,z
x,-y,1/2+z
1/2+x,1/2+y,z
1/2-x,1/2-y,1/2+z
1/2+x,1/2-y,-z
1/2-x,1/2+y,1/2-z
1/2-x,1/2-y,-z
1/2+x,1/2+y,1/2-z
1/2-x,1/2+y,z
1/2+x,1/2-y,1/2+z
loop_
_atom_site_type_symbol
_atom_site_label
_atom_site_fract_x
_atom_site_fract_y
_atom_site_fract_z
Si Si1 0.846432 0.204062 0.565001
Si Si2 0.343741 0.579676 0.868589
Si Si3 0.000000 0.376885 0.622569
Si Si4 0.749557 0.805576 0.870490
Si Si5 0.655461 0.087979 0.376494
Si Si6 0.243239 0.500000 0.000000
Si Si7 0.000000 0.752658 0.377181
Si Si8 0.000000 0.970560 0.120617
O O1 0.834842 0.144224 0.613377
O O2 0.816894 0.201032 0.446410
O O3 0.799536 0.251537 0.619633
O O4 0.928628 0.220358 0.577659
O O5 0.323005 0.565590 0.750000
O O6 0.294572 0.543829 0.944081
O O7 0.426840 0.563602 0.882379
O O8 0.926014 0.403742 0.585549
O O9 0.000000 0.380337 0.750000
O O10 0.000000 0.312155 0.598290
O O11 0.770697 0.813843 0.750000
O O12 0.701500 0.857711 0.904426
O O13 0.654341 0.085579 0.250000
O O14 0.693424 0.034685 0.422072
O O15 0.000000 0.758805 0.250000
O O16 0.000000 0.993386 0.250000
O O17 0.000000 0.000000 0.000000
#
# Coordination Sequence:
#
# PCOD9473097 Si02
#       8
#    16  16   8  16  16   8   8   8
#     4  11  21  35  57  87 113 142 183 235 289 339
#     4  11  22  36  55  81 113 148 190 236 284 338
#     4   9  18  34  57  84 108 137 181 234 281 325
#     4  10  20  36  58  83 113 147 183 232 288 342
#     4  10  20  37  58  81 111 146 186 232 279 334
#     4  12  22  36  54  80 112 154 192 224 276 338
#     4  11  19  32  58  87 113 142 184 232 283 334
#     4  10  21  39  58  80 115 156 200 244 288 338
#
# _framework density 16.558814000000002
#
# number of rings (size 3 to 8) (size 9 to 14) (size 15 to 20)
#    0.000    1.500    4.167    2.500    0.000    1.000 
#    0.000    1.250    0.000    0.000    0.000    0.000 
#    0.000    0.000    0.000    0.000    0.000    0.000 
#
# Total GULP energy -267468.363865 kJ/mol
# GULP energy per Si atom -5572.257581 kJ/mol
# Density = 1.652113 g / cm^3
# Si number density = 16.558814 Si / 1000 Ang^3
#
#
#
# Elastic Constant Matrix: (Units=GPa)
#
#
# Indices 1 2 3 4 5 6 
#
# 1 129.1975 42.7953 38.8621 0.0000 0.0000 0.0000
# 2 42.7953 88.9448 9.4552 0.0000 0.0000 0.0000
# 3 38.8621 9.4552 53.0980 0.0000 0.0000 0.0000
# 4 0.0000 0.0000 0.0000 22.9340 0.0000 0.0000
# 5 0.0000 0.0000 0.0000 0.0000 15.2093 0.0000
# 6 0.0000 0.0000 0.0000 0.0000 0.0000 28.2822
#
#
#
# Elastic Compliance Matrix: (Units=1/GPa)
#
#
# Indices 1 2 3 4 5 6 
#
# 1 0.011627 -0.004780 -0.007659 0.000000 0.000000 0.000000
# 2 -0.004780 0.013425 0.001108 0.000000 0.000000 0.000000
# 3 -0.007659 0.001108 0.024241 0.000000 0.000000 0.000000
# 4 0.000000 0.000000 0.000000 0.043603 0.000000 0.000000
# 5 0.000000 0.000000 0.000000 0.000000 0.065749 0.000000
# 6 0.000000 0.000000 0.000000 0.000000 0.000000 0.035358
#
#
# Mechanical properties :
#
#
# Convention : Reuss Voigt Hill
#
# Bulk Modulus (GPa) = 37.54925 50.38503 43.96714
# Shear Modulus (GPa) = 22.16874 25.29363 23.73119
#
# Velocity S-wave (km/s) = 3.66291 3.91257 3.78980
# Velocity P-wave (km/s) = 6.37297 7.13477 6.76460
#
# Compressibility (1/GPa) = 0.02663169
#
# Stress axis : x y z
#
# Youngs Moduli (GPa) = 86.00554 74.48730 41.25221
#
# Poissons Ratio (x) = 0.35606 0.31594
# Poissons Ratio (y) = 0.41112 -0.04571
# Poissons Ratio (z) = 0.65868 -0.08253
#
# Static dielectric constant tensor:
#      x y z
#    x 1.538690 0.000000 0.000000 
#    y 0.000000 1.543980 0.000000 
#    z 0.000000 0.000000 1.579270 
# 
# From -- ./inp_files/21397.got.cif
#   From: 2010.05.17/outbox.cif.g08.bks.cpg/sg63_11_cif.got.tgz:21397.got - 2010.06.03 15:47:04.
