data_PCOD9473422
_publ_section_title
;
Structure prediction by ZEFSAII (Michael W. Deem and Ramdas Pophale) SiO2 
 PCOD9473422
Probable space group: C M C M
;
_chemical_formula_sum "Si O2"
_cell_formula_units_Z 80
_cell_length_a 27.366203
_cell_length_b 16.324606
_cell_length_c 10.225712
_cell_angle_alpha 90.000000
_cell_angle_beta 90.000000
_cell_angle_gamma 90.000000
_cell_volume 4568.259956
_symmetry_space_group_name_H-M "C M C M"
_symmetry_group_IT_number 63
_symmetry_cell_setting 'orthorhombic'
loop_
_space_group_symop_operation_xyz
x,y,z
-x,-y,1/2+z
x,-y,-z
-x,y,1/2-z
-x,-y,-z
x,y,1/2-z
-x,y,z
x,-y,1/2+z
1/2+x,1/2+y,z
1/2-x,1/2-y,1/2+z
1/2+x,1/2-y,-z
1/2-x,1/2+y,1/2-z
1/2-x,1/2-y,-z
1/2+x,1/2+y,1/2-z
1/2-x,1/2+y,z
1/2+x,1/2-y,1/2+z
loop_
_atom_site_type_symbol
_atom_site_label
_atom_site_fract_x
_atom_site_fract_y
_atom_site_fract_z
Si Si1 0.151936 0.890365 0.750000
Si Si2 0.500000 0.319182 0.097329
Si Si3 0.892635 0.630690 0.090041
Si Si4 0.000000 0.379355 0.898810
Si Si5 0.649334 0.423685 0.250000
Si Si6 0.607267 0.678721 0.512705
Si Si7 0.246677 0.992289 0.750000
Si Si8 0.815791 0.500000 0.000000
O O1 0.132854 0.843190 0.623123
O O2 0.210313 0.912393 0.750000
O O3 0.130012 0.982843 0.750000
O O4 0.500000 0.347715 0.250000
O O5 0.500000 0.219986 0.105715
O O6 0.450479 0.342109 0.022680
O O7 0.889815 0.624555 0.250000
O O8 0.946776 0.600207 0.045659
O O9 0.887861 0.725799 0.050817
O O10 0.851373 0.577398 0.020609
O O11 0.000000 0.410477 0.750000
O O12 0.632303 0.375690 0.376406
O O13 0.707497 0.434598 0.250000
O O14 0.280672 0.999268 0.875266
#
# Coordination Sequence:
#
# PCOD9473422 Si02
#       8
#     8   8  16   8   8  16   8   8
#     4  10  24  38  60  87 119 161 201 246 315 360
#     4   9  16  31  59  88 124 157 197 237 300 353
#     4  10  20  37  63  91 124 155 203 237 294 370
#     4   7  14  31  56  87 120 160 178 230 294 354
#     4  10  20  40  66  75 115 169 199 242 301 374
#     4  11  19  39  63  90 119 161 199 244 292 366
#     4  10  24  42  60  80 120 162 184 260 328 338
#     4  12  22  41  62  86 118 153 200 258 300 346
#
# _framework density 17.512138
#
# number of rings (size 3 to 8) (size 9 to 14) (size 15 to 20)
#    0.600    1.400    3.000    3.000    0.000    1.600 
#    0.000    9.000    0.000    1.200    0.000    0.000 
#    0.000    0.000    0.000    0.000    0.000    0.000 
#
# Total GULP energy -222739.944848 kJ/mol
# GULP energy per Si atom -5568.498621 kJ/mol
# Density = 1.747228 g / cm^3
# Si number density = 17.512138 Si / 1000 Ang^3
#
#
#
# Elastic Constant Matrix: (Units=GPa)
#
#
# Indices 1 2 3 4 5 6 
#
# 1 173.1985 44.6088 66.2623 0.0000 0.0000 0.0000
# 2 44.6088 64.7499 21.3785 0.0000 0.0000 0.0000
# 3 66.2623 21.3785 117.4541 0.0000 0.0000 0.0000
# 4 0.0000 0.0000 0.0000 118.5830 0.0000 0.0000
# 5 0.0000 0.0000 0.0000 0.0000 13.1163 0.0000
# 6 0.0000 0.0000 0.0000 0.0000 0.0000 42.6150
#
#
#
# Elastic Compliance Matrix: (Units=1/GPa)
#
#
# Indices 1 2 3 4 5 6 
#
# 1 0.008445 -0.004517 -0.003942 0.000000 0.000000 0.000000
# 2 -0.004517 0.018847 -0.000882 0.000000 0.000000 0.000000
# 3 -0.003942 -0.000882 0.010899 0.000000 0.000000 0.000000
# 4 0.000000 0.000000 0.000000 0.008433 0.000000 0.000000
# 5 0.000000 0.000000 0.000000 0.000000 0.076241 0.000000
# 6 0.000000 0.000000 0.000000 0.000000 0.000000 0.023466
#
#
# Mechanical properties :
#
#
# Convention : Reuss Voigt Hill
#
# Bulk Modulus (GPa) = 51.26025 68.87796 60.06910
# Shear Modulus (GPa) = 29.15169 49.73972 39.44571
#
# Velocity S-wave (km/s) = 4.08445 5.33523 4.75118
# Velocity P-wave (km/s) = 7.18181 8.79601 8.02958
#
# Compressibility (1/GPa) = 0.01950829
#
# Stress axis : x y z
#
# Youngs Moduli (GPa) = 118.40919 53.05862 91.75430
#
# Poissons Ratio (x) = 0.23965 0.36173
# Poissons Ratio (y) = 0.53481 0.08096
# Poissons Ratio (z) = 0.46681 0.04682
#
# Static dielectric constant tensor:
#      x y z
#    x 1.628350 0.000000 0.000000 
#    y 0.000000 1.589150 0.000000 
#    z 0.000000 0.000000 1.524480 
# 
# From -- ./inp_files/12170.got.cif
#   From: 2010.05.17/outbox.cif.g08.bks.cpg/sg63_7_cif.got.tgz:12170.got - 2010.06.03 15:47:04.
