data_PCOD9473898
_publ_section_title
;
Structure prediction by ZEFSAII (Michael W. Deem and Ramdas Pophale) SiO2 
 PCOD9473898
Probable space group: C M C M
;
_chemical_formula_sum "Si O2"
_cell_formula_units_Z 88
_cell_length_a 14.487682
_cell_length_b 31.016885
_cell_length_c 9.583902
_cell_angle_alpha 90.000000
_cell_angle_beta 90.000000
_cell_angle_gamma 90.000000
_cell_volume 4306.648717
_symmetry_space_group_name_H-M "C M C M"
_symmetry_group_IT_number 63
_symmetry_cell_setting 'orthorhombic'
loop_
_space_group_symop_operation_xyz
x,y,z
-x,-y,1/2+z
x,-y,-z
-x,y,1/2-z
-x,-y,-z
x,y,1/2-z
-x,y,z
x,-y,1/2+z
1/2+x,1/2+y,z
1/2-x,1/2-y,1/2+z
1/2+x,1/2-y,-z
1/2-x,1/2+y,1/2-z
1/2-x,1/2-y,-z
1/2+x,1/2+y,1/2-z
1/2-x,1/2+y,z
1/2+x,1/2-y,1/2+z
loop_
_atom_site_type_symbol
_atom_site_label
_atom_site_fract_x
_atom_site_fract_y
_atom_site_fract_z
Si Si1 0.500000 0.046879 0.077863
Si Si2 0.355786 0.384739 0.412487
Si Si3 0.363966 0.207674 0.910358
Si Si4 0.633491 0.109887 0.585273
Si Si5 0.860381 0.211583 0.589686
Si Si6 0.893151 0.964363 0.597085
O O1 0.500000 0.043942 0.250000
O O2 0.413942 0.075083 0.015619
O O3 0.500000 0.000000 0.000000
O O4 0.381518 0.391714 0.250000
O O5 0.244690 0.389970 0.420529
O O6 0.386548 0.336701 0.453818
O O7 0.393868 0.419951 0.515721
O O8 0.391339 0.213099 0.750000
O O9 0.392426 0.159392 0.953629
O O10 0.251818 0.209684 0.914192
O O11 0.394146 0.248245 0.000855
O O12 0.609095 0.102902 0.750000
O O13 0.887214 0.217443 0.750000
O O14 0.850443 0.961303 0.750000
O O15 0.000000 0.977435 0.615012
O O16 0.846066 0.000000 0.500000
#
# Coordination Sequence:
#
# PCOD9473898 Si02
#       6
#     8  16  16  16  16  16
#     4  12  26  42  60  80 104 140 184 232 287 336
#     4   9  18  33  55  82 110 142 178 219 267 319
#     4   8  14  26  47  74 103 136 170 206 253 308
#     4   9  19  37  58  80 108 141 179 222 271 324
#     4   8  14  25  44  74 108 137 168 207 252 304
#     4  10  21  36  54  76 103 137 175 216 263 317
#
# _framework density 20.433520999999999
#
# number of rings (size 3 to 8) (size 9 to 14) (size 15 to 20)
#    0.000    2.909    0.000    3.545    0.000    4.000 
#    0.000    3.636    2.000    0.000    0.000    0.000 
#    0.000    0.000    0.000    0.000    0.000    0.000 
#
# Total GULP energy -245287.610988 kJ/mol
# GULP energy per Si atom -5574.718432 kJ/mol
# Density = 2.038701 g / cm^3
# Si number density = 20.433521 Si / 1000 Ang^3
#
#
#
# Elastic Constant Matrix: (Units=GPa)
#
#
# Indices 1 2 3 4 5 6 
#
# 1 71.7906 8.5155 14.6701 0.0000 0.0000 0.0000
# 2 8.5155 189.9577 122.0381 0.0000 0.0000 0.0000
# 3 14.6701 122.0381 133.5447 0.0000 0.0000 0.0000
# 4 0.0000 0.0000 0.0000 34.5442 0.0000 0.0000
# 5 0.0000 0.0000 0.0000 0.0000 9.8366 0.0000
# 6 0.0000 0.0000 0.0000 0.0000 0.0000 30.0624
#
#
#
# Elastic Compliance Matrix: (Units=1/GPa)
#
#
# Indices 1 2 3 4 5 6 
#
# 1 0.014311 0.000892 -0.002388 0.000000 0.000000 0.000000
# 2 0.000892 0.012805 -0.011800 0.000000 0.000000 0.000000
# 3 -0.002388 -0.011800 0.018533 0.000000 0.000000 0.000000
# 4 0.000000 0.000000 0.000000 0.028948 0.000000 0.000000
# 5 0.000000 0.000000 0.000000 0.000000 0.101662 0.000000
# 6 0.000000 0.000000 0.000000 0.000000 0.000000 0.033264
#
#
# Mechanical properties :
#
#
# Convention : Reuss Voigt Hill
#
# Bulk Modulus (GPa) = 52.46601 76.19338 64.32970
# Shear Modulus (GPa) = 20.62132 31.55992 26.09062
#
# Velocity S-wave (km/s) = 3.18022 3.93430 3.57719
# Velocity P-wave (km/s) = 6.26237 7.61627 6.97226
#
# Compressibility (1/GPa) = 0.01905996
#
# Stress axis : x y z
#
# Youngs Moduli (GPa) = 69.87412 78.09405 53.95641
#
# Poissons Ratio (x) = -0.06969 0.12883
# Poissons Ratio (y) = -0.06235 0.63667
# Poissons Ratio (z) = 0.16683 0.92149
#
# Static dielectric constant tensor:
#      x y z
#    x 1.853110 0.000000 0.000000 
#    y 0.000000 1.720140 0.000000 
#    z 0.000000 0.000000 1.723910 
# 
# From -- ./inp_files/6835.got.cif
#   From: 2010.05.17/outbox.cif.g08.bks.cpg/sg63_4_cif.got.tgz:6835.got - 2010.06.03 15:47:04.
