data_PCOD9473357
_publ_section_title
;
Structure prediction by ZEFSAII (Michael W. Deem and Ramdas Pophale) SiO2 
 PCOD9473357
Probable space group: C M C M
;
_chemical_formula_sum "Si O2"
_cell_formula_units_Z 68
_cell_length_a 23.739629
_cell_length_b 16.678984
_cell_length_c 7.489358
_cell_angle_alpha 90.000000
_cell_angle_beta 90.000000
_cell_angle_gamma 90.000000
_cell_volume 2965.432961
_symmetry_space_group_name_H-M "C M C M"
_symmetry_group_IT_number 63
_symmetry_cell_setting 'orthorhombic'
loop_
_space_group_symop_operation_xyz
x,y,z
-x,-y,1/2+z
x,-y,-z
-x,y,1/2-z
-x,-y,-z
x,y,1/2-z
-x,y,z
x,-y,1/2+z
1/2+x,1/2+y,z
1/2-x,1/2-y,1/2+z
1/2+x,1/2-y,-z
1/2-x,1/2+y,1/2-z
1/2-x,1/2-y,-z
1/2+x,1/2+y,1/2-z
1/2-x,1/2+y,z
1/2+x,1/2-y,1/2+z
loop_
_atom_site_type_symbol
_atom_site_label
_atom_site_fract_x
_atom_site_fract_y
_atom_site_fract_z
Si Si1 0.000000 0.931879 0.750000
Si Si2 0.939200 0.680675 0.033940
Si Si3 0.327476 0.905246 0.535931
Si Si4 0.580364 0.366333 0.046811
Si Si5 0.795113 0.904951 0.962251
O O1 0.049308 0.921816 0.594332
O O2 0.938829 0.672262 0.250000
O O3 0.883062 0.638162 0.965058
O O4 0.936336 0.775339 0.998783
O O5 0.000000 0.649590 0.969883
O O6 0.326547 0.894404 0.750000
O O7 0.266111 0.876111 0.469993
O O8 0.331580 0.000000 0.500000
O O9 0.562716 0.384583 0.250000
O O10 0.647902 0.369875 0.040416
O O11 0.797358 0.892469 0.750000
O O12 0.796523 0.000000 0.000000
#
# Coordination Sequence:
#
# PCOD9473357 Si02
#       5
#     4  16  16  16  16
#     4  12  22  40  62  90 120 156 196 246 284 366
#     4   9  18  35  58  81 118 160 194 242 300 349
#     4   9  19  36  56  84 117 155 199 245 297 350
#     4  11  22  39  64  87 120 158 196 241 300 348
#     4  10  20  37  60  84 117 155 198 249 295 349
#
# _framework density 22.930886000000001
#
# number of rings (size 3 to 8) (size 9 to 14) (size 15 to 20)
#    0.000    2.118    2.353    1.059    0.000    2.353 
#    2.118    0.588    0.000    0.000    0.000    0.000 
#    0.000    0.000    0.000    0.000    0.000    0.000 
#
# Total GULP energy -189533.370361 kJ/mol
# GULP energy per Si atom -5574.510893 kJ/mol
# Density = 2.287869 g / cm^3
# Si number density = 22.930886 Si / 1000 Ang^3
#
#
#
# Elastic Constant Matrix: (Units=GPa)
#
#
# Indices 1 2 3 4 5 6 
#
# 1 270.2149 51.2331 33.5277 0.0000 0.0000 0.0000
# 2 51.2331 28.7351 15.5837 0.0000 0.0000 0.0000
# 3 33.5277 15.5837 115.0383 0.0000 0.0000 0.0000
# 4 0.0000 0.0000 0.0000 7.8787 0.0000 0.0000
# 5 0.0000 0.0000 0.0000 0.0000 47.4757 0.0000
# 6 0.0000 0.0000 0.0000 0.0000 0.0000 36.9668
#
#
#
# Elastic Compliance Matrix: (Units=1/GPa)
#
#
# Indices 1 2 3 4 5 6 
#
# 1 0.005600 -0.009821 -0.000302 0.000000 0.000000 0.000000
# 2 -0.009821 0.054784 -0.004559 0.000000 0.000000 0.000000
# 3 -0.000302 -0.004559 0.009398 0.000000 0.000000 0.000000
# 4 0.000000 0.000000 0.000000 0.126925 0.000000 0.000000
# 5 0.000000 0.000000 0.000000 0.000000 0.021063 0.000000
# 6 0.000000 0.000000 0.000000 0.000000 0.000000 0.027051
#
#
# Mechanical properties :
#
#
# Convention : Reuss Voigt Hill
#
# Bulk Modulus (GPa) = 24.74113 68.29746 46.51930
# Shear Modulus (GPa) = 17.38165 39.37382 28.37774
#
# Velocity S-wave (km/s) = 2.75617 4.14824 3.52168
# Velocity P-wave (km/s) = 4.57619 7.26585 6.07182
#
# Compressibility (1/GPa) = 0.04041852
#
# Stress axis : x y z
#
# Youngs Moduli (GPa) = 178.55997 18.25346 106.40250
#
# Poissons Ratio (x) = 0.17928 0.03211
# Poissons Ratio (y) = 1.75372 0.48508
# Poissons Ratio (z) = 0.05388 0.08322
#
# Static dielectric constant tensor:
#      x y z
#    x 1.890160 0.000000 0.000000 
#    y 0.000000 1.830380 0.000000 
#    z 0.000000 0.000000 1.839430 
# 
# From -- ./inp_files/5899.got.cif
#   From: 2010.05.17/outbox.cif.g08.bks.cpg/sg63_3_cif.got.tgz:5899.got - 2010.06.03 15:47:04.
