data_PCOD9473820
_publ_section_title
;
Structure prediction by ZEFSAII (Michael W. Deem and Ramdas Pophale) SiO2 
 PCOD9473820
Probable space group: C M C M
;
_chemical_formula_sum "Si O2"
_cell_formula_units_Z 112
_cell_length_a 14.163674
_cell_length_b 16.721910
_cell_length_c 26.303557
_cell_angle_alpha 90.000000
_cell_angle_beta 90.000000
_cell_angle_gamma 90.000000
_cell_volume 6229.831287
_symmetry_space_group_name_H-M "C M C M"
_symmetry_group_IT_number 63
_symmetry_cell_setting 'orthorhombic'
loop_
_space_group_symop_operation_xyz
x,y,z
-x,-y,1/2+z
x,-y,-z
-x,y,1/2-z
-x,-y,-z
x,y,1/2-z
-x,y,z
x,-y,1/2+z
1/2+x,1/2+y,z
1/2-x,1/2-y,1/2+z
1/2+x,1/2-y,-z
1/2-x,1/2+y,1/2-z
1/2-x,1/2-y,-z
1/2+x,1/2+y,1/2-z
1/2-x,1/2+y,z
1/2+x,1/2-y,1/2+z
loop_
_atom_site_type_symbol
_atom_site_label
_atom_site_fract_x
_atom_site_fract_y
_atom_site_fract_z
Si Si1 0.723987 0.311163 0.410050
Si Si2 0.387110 0.953458 0.692565
Si Si3 0.268365 0.591824 0.013656
Si Si4 0.110755 0.185954 0.411275
Si Si5 0.112276 0.649364 0.091652
Si Si6 0.224027 0.620301 0.693150
Si Si7 0.112248 0.787501 0.803225
O O1 0.716925 0.360059 0.461659
O O2 0.824757 0.264937 0.416583
O O3 0.647363 0.240751 0.405197
O O4 0.719436 0.364470 0.359015
O O5 0.366727 0.921646 0.750000
O O6 0.500000 0.967469 0.690370
O O7 0.364678 0.895644 0.645033
O O8 0.334686 0.038530 0.687704
O O9 0.351989 0.619867 0.050686
O O10 0.173109 0.613058 0.045130
O O11 0.268926 0.500000 0.000000
O O12 0.132552 0.161784 0.353047
O O13 0.000000 0.201937 0.417394
O O14 0.000000 0.643722 0.083349
O O15 0.269757 0.618115 0.750000
O O16 0.158448 0.699911 0.693994
O O17 0.141950 0.825547 0.750000
O O18 0.000000 0.775787 0.802921
#
# Coordination Sequence:
#
# PCOD9473820 Si02
#       7
#    16  16  16  16  16  16  16
#     4  10  21  35  53  76 102 133 171 216 258 307
#     4   9  17  30  51  80 110 138 170 210 255 304
#     4  11  23  37  52  73 103 134 172 220 263 309
#     4   9  18  33  53  76 102 133 167 205 254 309
#     4  10  21  37  55  75 103 139 176 215 261 310
#     4   9  16  28  48  74 104 134 164 201 250 303
#     4   8  13  23  43  72 102 129 158 196 243 295
#
# _framework density 17.978014999999999
#
# number of rings (size 3 to 8) (size 9 to 14) (size 15 to 20)
#    0.000    2.571    0.000    3.000    0.000    5.714 
#    0.000    2.143    0.000    0.857    0.000    0.000 
#    0.000    9.143    0.000    0.000    0.000    0.000 
#
# Total GULP energy -311777.952882 kJ/mol
# GULP energy per Si atom -5567.463444 kJ/mol
# Density = 1.793710 g / cm^3
# Si number density = 17.978015 Si / 1000 Ang^3
#
#
#
# Elastic Constant Matrix: (Units=GPa)
#
#
# Indices 1 2 3 4 5 6 
#
# 1 48.4272 15.5604 22.9019 0.0000 0.0000 0.0000
# 2 15.5604 66.8398 71.9915 0.0000 0.0000 0.0000
# 3 22.9019 71.9915 184.6688 0.0000 0.0000 0.0000
# 4 0.0000 0.0000 0.0000 31.6805 0.0000 0.0000
# 5 0.0000 0.0000 0.0000 0.0000 16.0163 0.0000
# 6 0.0000 0.0000 0.0000 0.0000 0.0000 7.3219
#
#
#
# Elastic Compliance Matrix: (Units=1/GPa)
#
#
# Indices 1 2 3 4 5 6 
#
# 1 0.022496 -0.003848 -0.001290 0.000000 0.000000 0.000000
# 2 -0.003848 0.026448 -0.009833 0.000000 0.000000 0.000000
# 3 -0.001290 -0.009833 0.009409 0.000000 0.000000 0.000000
# 4 0.000000 0.000000 0.000000 0.031565 0.000000 0.000000
# 5 0.000000 0.000000 0.000000 0.000000 0.062437 0.000000
# 6 0.000000 0.000000 0.000000 0.000000 0.000000 0.136577
#
#
# Mechanical properties :
#
#
# Convention : Reuss Voigt Hill
#
# Bulk Modulus (GPa) = 35.19822 57.87148 46.53485
# Shear Modulus (GPa) = 15.22796 23.63587 19.43192
#
# Velocity S-wave (km/s) = 2.91354 3.62983 3.29123
# Velocity P-wave (km/s) = 5.56231 7.05886 6.35479
#
# Compressibility (1/GPa) = 0.02841052
#
# Stress axis : x y z
#
# Youngs Moduli (GPa) = 44.45261 37.80961 106.28647
#
# Poissons Ratio (x) = 0.14549 0.13709
# Poissons Ratio (y) = 0.17105 1.04516
# Poissons Ratio (z) = 0.05733 0.37180
#
# Static dielectric constant tensor:
#      x y z
#    x 1.619890 0.000000 0.000000 
#    y 0.000000 1.579190 0.000000 
#    z 0.000000 0.000000 1.681520 
# 
# From -- ./inp_files/69422.got.cif
#   From: 2010.05.17/outbox.cif.g08.bks.cpg/sg63_35_cif.got.tgz:69422.got - 2010.06.03 15:47:04.
