data_PCOD9473515
_publ_section_title
;
Structure prediction by ZEFSAII (Michael W. Deem and Ramdas Pophale) SiO2 
 PCOD9473515
Probable space group: C M C M
;
_chemical_formula_sum "Si O2"
_cell_formula_units_Z 48
_cell_length_a 13.302116
_cell_length_b 12.604005
_cell_length_c 16.023737
_cell_angle_alpha 90.000000
_cell_angle_beta 90.000000
_cell_angle_gamma 90.000000
_cell_volume 2686.538729
_symmetry_space_group_name_H-M "C M C M"
_symmetry_group_IT_number 63
_symmetry_cell_setting 'orthorhombic'
loop_
_space_group_symop_operation_xyz
x,y,z
-x,-y,1/2+z
x,-y,-z
-x,y,1/2-z
-x,-y,-z
x,y,1/2-z
-x,y,z
x,-y,1/2+z
1/2+x,1/2+y,z
1/2-x,1/2-y,1/2+z
1/2+x,1/2-y,-z
1/2-x,1/2+y,1/2-z
1/2-x,1/2-y,-z
1/2+x,1/2+y,1/2-z
1/2-x,1/2+y,z
1/2+x,1/2-y,1/2+z
loop_
_atom_site_type_symbol
_atom_site_label
_atom_site_fract_x
_atom_site_fract_y
_atom_site_fract_z
Si Si1 0.000000 0.328543 0.487135
Si Si2 0.673496 0.486174 0.651408
Si Si3 0.000000 0.096946 0.569750
Si Si4 0.170719 0.500000 0.500000
Si Si5 0.500000 0.683876 0.347164
O O1 0.097931 0.398231 0.504364
O O2 0.000000 0.295806 0.390943
O O3 0.000000 0.212817 0.529815
O O4 0.700488 0.487090 0.750000
O O5 0.596988 0.580572 0.627597
O O6 0.761229 0.494905 0.583380
O O7 0.601569 0.383597 0.634339
O O8 0.000000 0.000000 0.500000
O O9 0.500000 0.697240 0.250000
#
# Coordination Sequence:
#
# PCOD9473515 Si02
#       5
#     8  16   8   8   8
#     4  11  23  38  57  81 119 160 189 231 286 339
#     4  10  20  38  62  89 115 145 192 241 287 337
#     4  11  18  38  65  86 107 146 190 242 281 330
#     4  11  24  39  54  84 124 157 186 227 288 350
#     4   9  18  35  60  87 112 145 193 243 282 332
#
# _framework density 17.866855000000001
#
# number of rings (size 3 to 8) (size 9 to 14) (size 15 to 20)
#    0.000    1.667    5.000    1.500    0.000    6.667 
#    0.000    9.167    0.000    0.000    0.000    0.000 
#    0.000    0.000    0.000    0.000    0.000    0.000 
#
# Total GULP energy -133651.634408 kJ/mol
# GULP energy per Si atom -5568.818100 kJ/mol
# Density = 1.782619 g / cm^3
# Si number density = 17.866855 Si / 1000 Ang^3
#
#
#
# Elastic Constant Matrix: (Units=GPa)
#
#
# Indices 1 2 3 4 5 6 
#
# 1 140.3154 55.0421 83.9705 0.0000 0.0000 0.0000
# 2 55.0421 104.8957 45.0349 0.0000 0.0000 0.0000
# 3 83.9705 45.0349 124.1787 0.0000 0.0000 0.0000
# 4 0.0000 0.0000 0.0000 21.5559 0.0000 0.0000
# 5 0.0000 0.0000 0.0000 0.0000 8.0325 0.0000
# 6 0.0000 0.0000 0.0000 0.0000 0.0000 -7.7590
#
#
#
# Elastic Compliance Matrix: (Units=1/GPa)
#
#
# Indices 1 2 3 4 5 6 
#
# 1 0.013037 -0.003620 -0.007503 0.000000 0.000000 0.000000
# 2 -0.003620 0.012296 -0.002012 0.000000 0.000000 0.000000
# 3 -0.007503 -0.002012 0.013856 0.000000 0.000000 0.000000
# 4 0.000000 0.000000 0.000000 0.046391 0.000000 0.000000
# 5 0.000000 0.000000 0.000000 0.000000 0.124494 0.000000
# 6 0.000000 0.000000 0.000000 0.000000 0.000000 -0.128883
#
#
# Mechanical properties :
#
#
# Convention : Reuss Voigt Hill
#
# Bulk Modulus (GPa) = 77.39607 81.94275 79.66941
# Shear Modulus (GPa) = 44.73619 16.72203 30.72911
#
# Velocity S-wave (km/s) = 5.00929 3.06261 4.15166
# Velocity P-wave (km/s) = 8.76753 7.64648 8.22613
#
# Compressibility (1/GPa) = 0.01292055
#
# Stress axis : x y z
#
# Youngs Moduli (GPa) = 76.70681 81.32511 72.17106
#
# Poissons Ratio (x) = 0.29436 0.54148
# Poissons Ratio (y) = 0.27765 0.14520
# Poissons Ratio (z) = 0.57552 0.16361
#
# Static dielectric constant tensor:
#      x y z
#    x 1.626780 0.000000 0.000000 
#    y 0.000000 1.626490 0.000000 
#    z 0.000000 0.000000 1.671730 
# 
# From -- ./inp_files/30785.got.cif
#   From: 2010.05.17/outbox.cif.g08.bks.cpg/sg63_16_cif.got.tgz:30785.got - 2010.06.03 15:47:04.
