data_PCOD9473525
_publ_section_title
;
Structure prediction by ZEFSAII (Michael W. Deem and Ramdas Pophale) SiO2 
 PCOD9473525
Probable space group: C M C M
;
_chemical_formula_sum "Si O2"
_cell_formula_units_Z 84
_cell_length_a 24.554083
_cell_length_b 5.856131
_cell_length_c 23.700885
_cell_angle_alpha 90.000000
_cell_angle_beta 90.000000
_cell_angle_gamma 90.000000
_cell_volume 3407.995917
_symmetry_space_group_name_H-M "C M C M"
_symmetry_group_IT_number 63
_symmetry_cell_setting 'orthorhombic'
loop_
_space_group_symop_operation_xyz
x,y,z
-x,-y,1/2+z
x,-y,-z
-x,y,1/2-z
-x,-y,-z
x,y,1/2-z
-x,y,z
x,-y,1/2+z
1/2+x,1/2+y,z
1/2-x,1/2-y,1/2+z
1/2+x,1/2-y,-z
1/2-x,1/2+y,1/2-z
1/2-x,1/2-y,-z
1/2+x,1/2+y,1/2-z
1/2-x,1/2+y,z
1/2+x,1/2-y,1/2+z
loop_
_atom_site_type_symbol
_atom_site_label
_atom_site_fract_x
_atom_site_fract_y
_atom_site_fract_z
Si Si1 0.412146 0.808191 0.431398
Si Si2 0.064958 0.085827 0.187461
Si Si3 0.619554 0.210198 0.378584
Si Si4 0.806511 0.917224 0.941943
Si Si5 0.232600 0.389889 0.834898
Si Si6 0.500000 0.500000 0.500000
O O1 0.415705 0.734925 0.365325
O O2 0.350226 0.781652 0.452284
O O3 0.452836 0.653999 0.466548
O O4 0.419578 0.078137 0.422547
O O5 0.085981 0.144185 0.250000
O O6 0.083920 0.835036 0.168592
O O7 0.000000 0.098584 0.188622
O O8 0.653539 0.391810 0.415378
O O9 0.668409 0.082059 0.345682
O O10 0.762761 0.862469 0.895098
O O11 0.781477 0.000000 0.000000
O O12 0.244201 0.131817 0.810543
#
# Coordination Sequence:
#
# PCOD9473525 Si02
#       6
#    16  16  16  16  16   4
#     4  11  22  43  61  96 133 181 222 286 348 426
#     4  10  23  44  69  97 128 169 229 297 353 413
#     4  10  23  39  65  95 130 174 230 280 347 414
#     4  10  21  39  59  93 137 177 227 277 335 415
#     4  10  20  38  62  95 135 183 228 289 342 414
#     4  12  24  40  64  92 150 176 224 280 354 424
#
# _framework density 24.647917
#
# number of rings (size 3 to 8) (size 9 to 14) (size 15 to 20)
#    0.000    1.714    3.810    0.000    1.333    4.571 
#    0.000    5.714    0.000   10.286    0.000    0.000 
#    0.000    0.000    0.000    0.000    0.000    0.000 
#
# Total GULP energy -233952.441886 kJ/mol
# GULP energy per Si atom -5570.296235 kJ/mol
# Density = 2.459182 g / cm^3
# Si number density = 24.647917 Si / 1000 Ang^3
#
#
#
# Elastic Constant Matrix: (Units=GPa)
#
#
# Indices 1 2 3 4 5 6 
#
# 1 65.1262 15.3818 11.7181 0.0000 0.0000 0.0000
# 2 15.3818 99.1711 19.2427 0.0000 0.0000 0.0000
# 3 11.7181 19.2427 124.1704 0.0000 0.0000 0.0000
# 4 0.0000 0.0000 0.0000 -392.8580 0.0000 0.0000
# 5 0.0000 0.0000 0.0000 0.0000 285.8799 0.0000
# 6 0.0000 0.0000 0.0000 0.0000 0.0000 13.1060
#
#
#
# Elastic Compliance Matrix: (Units=1/GPa)
#
#
# Indices 1 2 3 4 5 6 
#
# 1 0.016101 -0.002271 -0.001168 0.000000 0.000000 0.000000
# 2 -0.002271 0.010716 -0.001446 0.000000 0.000000 0.000000
# 3 -0.001168 -0.001446 0.008388 0.000000 0.000000 0.000000
# 4 0.000000 0.000000 0.000000 -0.002545 0.000000 0.000000
# 5 0.000000 0.000000 0.000000 0.000000 0.003498 0.000000
# 6 0.000000 0.000000 0.000000 0.000000 0.000000 0.076301
#
#
# Mechanical properties :
#
#
# Convention : Reuss Voigt Hill
#
# Bulk Modulus (GPa) = 39.31464 42.35032 40.83248
# Shear Modulus (GPa) = 38.25338 -2.63276 17.81031
#
# Velocity S-wave (km/s) = 3.94381 -1.03463 2.69102
# Velocity P-wave (km/s) = 6.05997 3.97393 5.12423
#
# Compressibility (1/GPa) = 0.02543582
#
# Stress axis : x y z
#
# Youngs Moduli (GPa) = 62.10710 93.31448 119.22092
#
# Poissons Ratio (x) = 0.21190 0.13920
# Poissons Ratio (y) = 0.14103 0.17244
# Poissons Ratio (z) = 0.07252 0.13497
#
# Static dielectric constant tensor:
#      x y z
#    x 1.912460 0.000000 0.000000 
#    y 0.000000 2.205610 0.000000 
#    z 0.000000 0.000000 1.950620 
# 
# From -- ./inp_files/65719.got.cif
#   From: 2010.05.17/outbox.cif.g08.bks.cpg/sg63_33_cif.got.tgz:65719.got - 2010.06.03 15:47:04.
