data_PCOD9473058
_publ_section_title
;
Structure prediction by ZEFSAII (Michael W. Deem and Ramdas Pophale) SiO2 
 PCOD9473058
Probable space group: C M C M
;
_chemical_formula_sum "Si O2"
_cell_formula_units_Z 96
_cell_length_a 16.722450
_cell_length_b 11.194582
_cell_length_c 26.363302
_cell_angle_alpha 90.000000
_cell_angle_beta 90.000000
_cell_angle_gamma 90.000000
_cell_volume 4935.232221
_symmetry_space_group_name_H-M "C M C M"
_symmetry_group_IT_number 63
_symmetry_cell_setting 'orthorhombic'
loop_
_space_group_symop_operation_xyz
x,y,z
-x,-y,1/2+z
x,-y,-z
-x,y,1/2-z
-x,-y,-z
x,y,1/2-z
-x,y,z
x,-y,1/2+z
1/2+x,1/2+y,z
1/2-x,1/2-y,1/2+z
1/2+x,1/2-y,-z
1/2-x,1/2+y,1/2-z
1/2-x,1/2-y,-z
1/2+x,1/2+y,1/2-z
1/2-x,1/2+y,z
1/2+x,1/2-y,1/2+z
loop_
_atom_site_type_symbol
_atom_site_label
_atom_site_fract_x
_atom_site_fract_y
_atom_site_fract_z
Si Si1 0.242436 0.780371 0.441309
Si Si2 0.648771 0.518386 0.883949
Si Si3 0.089513 0.233862 0.396056
Si Si4 0.088940 0.793384 0.192828
Si Si5 0.805587 0.600410 0.144569
Si Si6 0.906402 0.395615 0.307588
O O1 0.250000 0.750000 0.500000
O O2 0.192741 0.898453 0.425769
O O3 0.333947 0.792457 0.422546
O O4 0.202266 0.670944 0.409186
O O5 0.599370 0.407225 0.904967
O O6 0.597594 0.603575 0.848344
O O7 0.718637 0.457781 0.850090
O O8 0.099276 0.269485 0.336756
O O9 0.000000 0.272932 0.411262
O O10 0.094975 0.838959 0.250000
O O11 0.160750 0.701495 0.182136
O O12 0.000000 0.737088 0.187502
O O13 0.865113 0.491568 0.155670
O O14 0.873808 0.396628 0.250000
O O15 0.000000 0.424469 0.304406
#
# Coordination Sequence:
#
# PCOD9473058 Si02
#       6
#    16  16  16  16  16  16
#     4  10  22  42  64  85 118 157 199 259 323 361
#     4  10  21  39  57  86 115 156 196 249 300 353
#     4  10  21  39  61  88 121 157 203 248 295 367
#     4  10  21  36  55  82 117 156 194 238 292 350
#     4  10  20  36  57  85 115 151 200 242 298 358
#     4  10  20  36  59  88 126 166 200 243 303 365
#
# _framework density 19.451974
#
# number of rings (size 3 to 8) (size 9 to 14) (size 15 to 20)
#    0.000    2.000    1.667    1.500    0.000    6.000 
#    0.000   10.000    0.000    2.000    0.000    0.000 
#    0.000    0.000    0.000    0.000    0.000    0.000 
#
# Total GULP energy -267279.286953 kJ/mol
# GULP energy per Si atom -5568.318478 kJ/mol
# Density = 1.940770 g / cm^3
# Si number density = 19.451974 Si / 1000 Ang^3
#
#
#
# Elastic Constant Matrix: (Units=GPa)
#
#
# Indices 1 2 3 4 5 6 
#
# 1 70.4542 5.7458 38.9161 0.0000 0.0000 0.0000
# 2 5.7458 68.5254 17.6125 0.0000 0.0000 0.0000
# 3 38.9161 17.6125 96.4499 0.0000 0.0000 0.0000
# 4 0.0000 0.0000 0.0000 6.3155 0.0000 0.0000
# 5 0.0000 0.0000 0.0000 0.0000 18.4077 0.0000
# 6 0.0000 0.0000 0.0000 0.0000 0.0000 26.2889
#
#
#
# Elastic Compliance Matrix: (Units=1/GPa)
#
#
# Indices 1 2 3 4 5 6 
#
# 1 0.018274 0.000381 -0.007443 0.000000 0.000000 0.000000
# 2 0.000381 0.015320 -0.002951 0.000000 0.000000 0.000000
# 3 -0.007443 -0.002951 0.013910 0.000000 0.000000 0.000000
# 4 0.000000 0.000000 0.000000 0.158341 0.000000 0.000000
# 5 0.000000 0.000000 0.000000 0.000000 0.054325 0.000000
# 6 0.000000 0.000000 0.000000 0.000000 0.000000 0.038039
#
#
# Mechanical properties :
#
#
# Convention : Reuss Voigt Hill
#
# Bulk Modulus (GPa) = 36.39387 39.99759 38.19573
# Shear Modulus (GPa) = 15.27216 21.74609 18.50912
#
# Velocity S-wave (km/s) = 2.80504 3.34718 3.08803
# Velocity P-wave (km/s) = 5.40752 5.96197 5.69150
#
# Compressibility (1/GPa) = 0.02747715
#
# Stress axis : x y z
#
# Youngs Moduli (GPa) = 54.72377 65.27547 71.89096
#
# Poissons Ratio (x) = -0.02485 0.53506
# Poissons Ratio (y) = -0.02083 0.21216
# Poissons Ratio (z) = 0.40729 0.19263
#
# Static dielectric constant tensor:
#      x y z
#    x 1.739150 0.000000 0.000000 
#    y 0.000000 1.727920 0.000000 
#    z 0.000000 0.000000 1.671740 
# 
# From -- ./inp_files/63699.got.cif
#   From: 2010.05.17/outbox.cif.g08.bks.cpg/sg63_32_cif.got.tgz:63699.got - 2010.06.03 15:47:04.
