data_PCOD9473509
_publ_section_title
;
Structure prediction by ZEFSAII (Michael W. Deem and Ramdas Pophale) SiO2 
 PCOD9473509
Probable space group: C M C M
;
_chemical_formula_sum "Si O2"
_cell_formula_units_Z 96
_cell_length_a 7.604287
_cell_length_b 20.145886
_cell_length_c 28.878491
_cell_angle_alpha 90.000000
_cell_angle_beta 90.000000
_cell_angle_gamma 90.000000
_cell_volume 4424.043288
_symmetry_space_group_name_H-M "C M C M"
_symmetry_group_IT_number 63
_symmetry_cell_setting 'orthorhombic'
loop_
_space_group_symop_operation_xyz
x,y,z
-x,-y,1/2+z
x,-y,-z
-x,y,1/2-z
-x,-y,-z
x,y,1/2-z
-x,y,z
x,-y,1/2+z
1/2+x,1/2+y,z
1/2-x,1/2-y,1/2+z
1/2+x,1/2-y,-z
1/2-x,1/2+y,1/2-z
1/2-x,1/2-y,-z
1/2+x,1/2+y,1/2-z
1/2-x,1/2+y,z
1/2+x,1/2-y,1/2+z
loop_
_atom_site_type_symbol
_atom_site_label
_atom_site_fract_x
_atom_site_fract_y
_atom_site_fract_z
Si Si1 0.705633 0.132823 0.302186
Si Si2 0.294487 0.239175 0.857095
Si Si3 0.202770 0.517025 0.136478
Si Si4 0.284658 0.048519 0.541741
Si Si5 0.288709 0.798392 0.457396
Si Si6 0.211636 0.893906 0.303220
O O1 0.780276 0.130192 0.250000
O O2 0.500000 0.114428 0.298093
O O3 0.713122 0.205674 0.323962
O O4 0.784620 0.081721 0.339563
O O5 0.500000 0.255822 0.860095
O O6 0.221695 0.232936 0.909163
O O7 0.272720 0.167786 0.833673
O O8 0.277740 0.484457 0.089842
O O9 0.210693 0.460402 0.175275
O O10 0.000000 0.533233 0.124518
O O11 0.500000 0.050560 0.542465
O O12 0.226092 0.125267 0.536925
O O13 0.232903 0.000000 0.500000
O O14 0.500000 0.802696 0.452943
O O15 0.250000 0.750000 0.500000
O O16 0.263840 0.884994 0.250000
O O17 0.000000 0.897997 0.305349
#
# Coordination Sequence:
#
# PCOD9473509 Si02
#       6
#    16  16  16  16  16  16
#     4  10  22  38  58  88 121 156 201 246 292 350
#     4  11  23  40  60  85 119 157 198 243 292 350
#     4  10  20  38  62  87 118 154 194 242 293 350
#     4   9  18  35  60  88 115 146 190 239 288 346
#     4  10  22  39  60  88 118 148 191 240 289 354
#     4  11  23  38  59  87 118 153 195 244 296 351
#
# _framework density 21.699605999999999
#
# number of rings (size 3 to 8) (size 9 to 14) (size 15 to 20)
#    0.000    1.833    1.667    2.000    2.333    6.333 
#    0.000    0.000    0.000    1.000    0.000    0.000 
#    0.000    0.000    0.000    0.000    0.000    0.000 
#
# Total GULP energy -268131.083193 kJ/mol
# GULP energy per Si atom -5586.064233 kJ/mol
# Density = 2.165022 g / cm^3
# Si number density = 21.699606 Si / 1000 Ang^3
#
#
#
# Elastic Constant Matrix: (Units=GPa)
#
#
# Indices 1 2 3 4 5 6 
#
# 1 48.2667 -3.2294 5.7666 0.0000 0.0000 0.0000
# 2 -3.2294 79.8463 10.1748 0.0000 0.0000 0.0000
# 3 5.7666 10.1748 125.2156 0.0000 0.0000 0.0000
# 4 0.0000 0.0000 0.0000 34.4669 0.0000 0.0000
# 5 0.0000 0.0000 0.0000 0.0000 17.0485 0.0000
# 6 0.0000 0.0000 0.0000 0.0000 0.0000 -65.1867
#
#
#
# Elastic Compliance Matrix: (Units=1/GPa)
#
#
# Indices 1 2 3 4 5 6 
#
# 1 0.020908 0.000978 -0.001042 0.000000 0.000000 0.000000
# 2 0.000978 0.012701 -0.001077 0.000000 0.000000 0.000000
# 3 -0.001042 -0.001077 0.008122 0.000000 0.000000 0.000000
# 4 0.000000 0.000000 0.000000 0.029013 0.000000 0.000000
# 5 0.000000 0.000000 0.000000 0.000000 0.058656 0.000000
# 6 0.000000 0.000000 0.000000 0.000000 0.000000 -0.015341
#
#
# Mechanical properties :
#
#
# Convention : Reuss Voigt Hill
#
# Bulk Modulus (GPa) = 25.34933 30.97250 28.16091
# Shear Modulus (GPa) = 38.61254 13.30683 25.95968
#
# Velocity S-wave (km/s) = 4.22288 2.47903 3.46254
# Velocity P-wave (km/s) = 5.95687 4.74325 5.38436
#
# Compressibility (1/GPa) = 0.03944878
#
# Stress axis : x y z
#
# Youngs Moduli (GPa) = 47.82807 78.73459 123.12607
#
# Poissons Ratio (x) = -0.07704 0.12835
# Poissons Ratio (y) = -0.04680 0.13262
# Poissons Ratio (z) = 0.04986 0.08481
#
# Static dielectric constant tensor:
#      x y z
#    x 1.806980 0.000000 0.000000 
#    y 0.000000 1.732100 0.000000 
#    z 0.000000 0.000000 1.826890 
# 
# From -- ./inp_files/66912.got.cif
#   From: 2010.05.17/outbox.cif.g08.bks.cpg/sg63_34_cif.got.tgz:66912.got - 2010.06.03 15:47:04.
