data_PCOD9473305
_publ_section_title
;
Structure prediction by ZEFSAII (Michael W. Deem and Ramdas Pophale) SiO2 
 PCOD9473305
Probable space group: C M C M
;
_chemical_formula_sum "Si O2"
_cell_formula_units_Z 64
_cell_length_a 13.570377
_cell_length_b 14.592088
_cell_length_c 14.357137
_cell_angle_alpha 90.000000
_cell_angle_beta 90.000000
_cell_angle_gamma 90.000000
_cell_volume 2843.002212
_symmetry_space_group_name_H-M "C M C M"
_symmetry_group_IT_number 63
_symmetry_cell_setting 'orthorhombic'
loop_
_space_group_symop_operation_xyz
x,y,z
-x,-y,1/2+z
x,-y,-z
-x,y,1/2-z
-x,-y,-z
x,y,1/2-z
-x,y,z
x,-y,1/2+z
1/2+x,1/2+y,z
1/2-x,1/2-y,1/2+z
1/2+x,1/2-y,-z
1/2-x,1/2+y,1/2-z
1/2-x,1/2-y,-z
1/2+x,1/2+y,1/2-z
1/2-x,1/2+y,z
1/2+x,1/2-y,1/2+z
loop_
_atom_site_type_symbol
_atom_site_label
_atom_site_fract_x
_atom_site_fract_y
_atom_site_fract_z
Si Si1 0.884727 0.221642 0.350999
Si Si2 0.607502 0.506070 0.111415
Si Si3 0.823607 0.496137 0.855485
Si Si4 0.112789 0.643098 0.000035
O O1 0.840302 0.247320 0.250000
O O2 0.887303 0.112336 0.359158
O O3 0.846472 0.268994 0.444691
O O4 0.000000 0.250542 0.348512
O O5 0.500000 0.469449 0.141576
O O6 0.711150 0.466807 0.144924
O O7 0.609425 0.500000 0.000000
O O8 0.858078 0.486491 0.750000
O O9 0.884527 0.566237 0.918484
O O10 0.828898 0.400794 0.913348
O O11 0.000000 0.658805 0.030771
#
# Coordination Sequence:
#
# PCOD9473305 Si02
#       4
#    16  16  16  16
#     4   9  18  34  58  84 110 147 191 230 272 329
#     4  10  20  37  58  80 109 144 184 232 282 330
#     4  11  21  35  55  84 115 148 186 227 283 337
#     4  10  21  37  56  83 114 148 190 233 274 325
#
# _framework density 22.511413999999998
#
# number of rings (size 3 to 8) (size 9 to 14) (size 15 to 20)
#    0.000    2.000    2.500    3.000    0.000    5.500 
#    0.000    0.000    0.000    1.500    0.000   14.000 
#    0.000    0.000    0.000    0.000    0.000    0.000 
#
# Total GULP energy -178453.011535 kJ/mol
# GULP energy per Si atom -5576.656610 kJ/mol
# Density = 2.246018 g / cm^3
# Si number density = 22.511414 Si / 1000 Ang^3
#
#
#
# Elastic Constant Matrix: (Units=GPa)
#
#
# Indices 1 2 3 4 5 6 
#
# 1 95.8111 -6.4724 12.6740 0.0000 0.0000 0.0000
# 2 -6.4724 15.3482 -2.9615 0.0000 0.0000 0.0000
# 3 12.6740 -2.9615 151.6760 0.0000 0.0000 0.0000
# 4 0.0000 0.0000 0.0000 19.0171 0.0000 0.0000
# 5 0.0000 0.0000 0.0000 0.0000 19.7730 0.0000
# 6 0.0000 0.0000 0.0000 0.0000 0.0000 13.0228
#
#
#
# Elastic Compliance Matrix: (Units=1/GPa)
#
#
# Indices 1 2 3 4 5 6 
#
# 1 0.010844 0.004415 -0.000820 0.000000 0.000000 0.000000
# 2 0.004415 0.067198 0.000943 0.000000 0.000000 0.000000
# 3 -0.000820 0.000943 0.006680 0.000000 0.000000 0.000000
# 4 0.000000 0.000000 0.000000 0.052584 0.000000 0.000000
# 5 0.000000 0.000000 0.000000 0.000000 0.050574 0.000000
# 6 0.000000 0.000000 0.000000 0.000000 0.000000 0.076789
#
#
# Mechanical properties :
#
#
# Convention : Reuss Voigt Hill
#
# Bulk Modulus (GPa) = 10.66125 29.92393 20.29259
# Shear Modulus (GPa) = 17.43020 27.66892 22.54956
#
# Velocity S-wave (km/s) = 2.78561 3.50966 3.16839
# Velocity P-wave (km/s) = 3.88489 5.45393 4.73485
#
# Compressibility (1/GPa) = 0.09379767
#
# Stress axis : x y z
#
# Youngs Moduli (GPa) = 92.21774 14.88142 149.70219
#
# Poissons Ratio (x) = -0.06570 0.12274
# Poissons Ratio (y) = -0.40712 -0.14119
# Poissons Ratio (z) = 0.07561 -0.01404
#
# Static dielectric constant tensor:
#      x y z
#    x 1.884030 0.000000 0.000000 
#    y 0.000000 1.880540 0.000000 
#    z 0.000000 0.000000 1.859910 
# 
# From -- ./inp_files/31089.got.cif
#   From: 2010.05.17/outbox.cif.g08.bks.cpg/sg63_16_cif.got.tgz:31089.got - 2010.06.03 15:47:04.
