data_PCOD9473534
_publ_section_title
;
Structure prediction by ZEFSAII (Michael W. Deem and Ramdas Pophale) SiO2 
 PCOD9473534
Probable space group: C M C M
;
_chemical_formula_sum "Si O2"
_cell_formula_units_Z 80
_cell_length_a 18.716859
_cell_length_b 9.948719
_cell_length_c 21.979266
_cell_angle_alpha 90.000000
_cell_angle_beta 90.000000
_cell_angle_gamma 90.000000
_cell_volume 4092.732104
_symmetry_space_group_name_H-M "C M C M"
_symmetry_group_IT_number 63
_symmetry_cell_setting 'orthorhombic'
loop_
_space_group_symop_operation_xyz
x,y,z
-x,-y,1/2+z
x,-y,-z
-x,y,1/2-z
-x,-y,-z
x,y,1/2-z
-x,y,z
x,-y,1/2+z
1/2+x,1/2+y,z
1/2-x,1/2-y,1/2+z
1/2+x,1/2-y,-z
1/2-x,1/2+y,1/2-z
1/2-x,1/2-y,-z
1/2+x,1/2+y,1/2-z
1/2-x,1/2+y,z
1/2+x,1/2-y,1/2+z
loop_
_atom_site_type_symbol
_atom_site_label
_atom_site_fract_x
_atom_site_fract_y
_atom_site_fract_z
Si Si1 0.083401 0.601970 0.445146
Si Si2 0.289974 0.288113 0.439334
Si Si3 0.420032 0.653076 0.178377
Si Si4 0.225912 0.953009 0.867634
Si Si5 0.371868 0.962431 0.318883
O O1 0.106271 0.500000 0.500000
O O2 0.129277 0.737588 0.447277
O O3 0.097171 0.538990 0.378046
O O4 0.000000 0.626330 0.453431
O O5 0.250000 0.250000 0.500000
O O6 0.277959 0.441666 0.422699
O O7 0.255650 0.191691 0.387847
O O8 0.424777 0.626821 0.250000
O O9 0.500000 0.634036 0.151971
O O10 0.354747 0.564287 0.154594
O O11 0.396000 0.808512 0.172161
O O12 0.286256 0.014449 0.823231
O O13 0.395022 0.002768 0.250000
#
# Coordination Sequence:
#
# PCOD9473534 Si02
#       5
#    16  16  16  16  16
#     4  10  22  39  61  89 124 162 205 258 316 372
#     4  11  22  39  61  87 119 161 207 255 308 368
#     4  10  21  37  59  90 127 162 200 253 316 374
#     4  11  21  38  61  89 120 157 209 256 300 374
#     4  10  20  38  63  90 122 163 210 254 307 379
#
# _framework density 19.546845000000001
#
# number of rings (size 3 to 8) (size 9 to 14) (size 15 to 20)
#    0.000    1.600    2.000    4.200    0.000    2.000 
#    0.000    1.000    0.000    2.400    0.000    0.000 
#    0.000    0.000    0.000    0.000    0.000    0.000 
#
# Total GULP energy -223057.619741 kJ/mol
# GULP energy per Si atom -5576.440494 kJ/mol
# Density = 1.950236 g / cm^3
# Si number density = 19.546845 Si / 1000 Ang^3
#
#
#
# Elastic Constant Matrix: (Units=GPa)
#
#
# Indices 1 2 3 4 5 6 
#
# 1 136.2818 11.1867 8.1731 0.0000 0.0000 0.0000
# 2 11.1867 27.0511 -1.0863 0.0000 0.0000 0.0000
# 3 8.1731 -1.0863 62.7961 0.0000 0.0000 0.0000
# 4 0.0000 0.0000 0.0000 27.5798 0.0000 0.0000
# 5 0.0000 0.0000 0.0000 0.0000 26.6188 0.0000
# 6 0.0000 0.0000 0.0000 0.0000 0.0000 20.7546
#
#
#
# Elastic Compliance Matrix: (Units=1/GPa)
#
#
# Indices 1 2 3 4 5 6 
#
# 1 0.007665 -0.003212 -0.001053 0.000000 0.000000 0.000000
# 2 -0.003212 0.038339 0.001081 0.000000 0.000000 0.000000
# 3 -0.001053 0.001081 0.016080 0.000000 0.000000 0.000000
# 4 0.000000 0.000000 0.000000 0.036258 0.000000 0.000000
# 5 0.000000 0.000000 0.000000 0.000000 0.037567 0.000000
# 6 0.000000 0.000000 0.000000 0.000000 0.000000 0.048182
#
#
# Mechanical properties :
#
#
# Convention : Reuss Voigt Hill
#
# Bulk Modulus (GPa) = 17.94814 29.18622 23.56718
# Shear Modulus (GPa) = 23.91988 28.84767 26.38378
#
# Velocity S-wave (km/s) = 3.50197 3.84581 3.67791
# Velocity P-wave (km/s) = 5.05507 5.88933 5.48808
#
# Compressibility (1/GPa) = 0.05571607
#
# Stress axis : x y z
#
# Youngs Moduli (GPa) = 130.47088 26.08329 62.18779
#
# Poissons Ratio (x) = 0.08378 0.06549
# Poissons Ratio (y) = 0.41906 -0.06724
# Poissons Ratio (z) = 0.13740 -0.02820
#
# Static dielectric constant tensor:
#      x y z
#    x 1.676120 0.000000 0.000000 
#    y 0.000000 1.665520 0.000000 
#    z 0.000000 0.000000 1.713070 
# 
# From -- ./inp_files/69752.got.cif
#   From: 2010.05.17/outbox.cif.g08.bks.cpg/sg63_35_cif.got.tgz:69752.got - 2010.06.03 15:47:04.
