data_PCOD9473181
_publ_section_title
;
Structure prediction by ZEFSAII (Michael W. Deem and Ramdas Pophale) SiO2 
 PCOD9473181
Probable space group: C M C M
;
_chemical_formula_sum "Si O2"
_cell_formula_units_Z 100
_cell_length_a 8.427367
_cell_length_b 19.948641
_cell_length_c 25.427982
_cell_angle_alpha 90.000000
_cell_angle_beta 90.000000
_cell_angle_gamma 90.000000
_cell_volume 4274.812959
_symmetry_space_group_name_H-M "C M C M"
_symmetry_group_IT_number 63
_symmetry_cell_setting 'orthorhombic'
loop_
_space_group_symop_operation_xyz
x,y,z
-x,-y,1/2+z
x,-y,-z
-x,y,1/2-z
-x,-y,-z
x,y,1/2-z
-x,y,z
x,-y,1/2+z
1/2+x,1/2+y,z
1/2-x,1/2-y,1/2+z
1/2+x,1/2-y,-z
1/2-x,1/2+y,1/2-z
1/2-x,1/2-y,-z
1/2+x,1/2+y,1/2-z
1/2-x,1/2+y,z
1/2+x,1/2-y,1/2+z
loop_
_atom_site_type_symbol
_atom_site_label
_atom_site_fract_x
_atom_site_fract_y
_atom_site_fract_z
Si Si1 0.688109 0.415738 0.050068
Si Si2 0.308069 0.804107 0.191096
Si Si3 0.500000 0.651417 0.250000
Si Si4 0.828413 0.089788 0.342471
Si Si5 0.814096 0.456219 0.158826
Si Si6 0.684565 0.124320 0.448177
Si Si7 0.689720 0.265809 0.419296
O O1 0.500000 0.421633 0.058980
O O2 0.777825 0.454800 0.096137
O O3 0.741705 0.338130 0.059930
O O4 0.727882 0.424273 0.988885
O O5 0.257454 0.785771 0.250000
O O6 0.500000 0.796346 0.189615
O O7 0.271081 0.883005 0.181213
O O8 0.235575 0.765399 0.142043
O O9 0.364054 0.641979 0.296459
O O10 0.702711 0.105711 0.387089
O O11 0.000000 0.083223 0.370703
O O12 0.784592 0.017772 0.318300
O O13 0.000000 0.465899 0.168225
O O14 0.500000 0.124225 0.462902
O O15 0.754498 0.200212 0.448313
O O16 0.500000 0.263102 0.423804
#
# Coordination Sequence:
#
# PCOD9473181 Si02
#       7
#    16  16   4  16  16  16  16
#     4  10  20  36  59  89 119 155 187 230 289 346
#     4   9  19  34  54  82 112 146 187 236 291 342
#     4   8  24  44  62  78 116 148 202 240 286 336
#     4  10  22  41  60  84 109 151 194 234 284 340
#     4  10  20  36  59  88 120 147 187 239 290 348
#     4  11  22  38  59  84 117 153 193 239 284 339
#     4   9  20  37  55  82 115 150 194 236 284 344
#
# _framework density 23.392835999999999
#
# number of rings (size 3 to 8) (size 9 to 14) (size 15 to 20)
#    0.480    1.760    0.000    2.400    1.120    3.520 
#    1.440    4.400    0.000    0.000    0.000    0.000 
#    0.000    0.000    0.000    0.000    0.000    0.000 
#
# Total GULP energy -278765.641729 kJ/mol
# GULP energy per Si atom -5575.312835 kJ/mol
# Density = 2.333959 g / cm^3
# Si number density = 23.392836 Si / 1000 Ang^3
#
#
#
# Elastic Constant Matrix: (Units=GPa)
#
#
# Indices 1 2 3 4 5 6 
#
# 1 25.0871 -3.6059 -11.4216 0.0000 0.0000 0.0000
# 2 -3.6059 58.6370 0.7919 0.0000 0.0000 0.0000
# 3 -11.4216 0.7919 107.3440 0.0000 0.0000 0.0000
# 4 0.0000 0.0000 0.0000 18.2862 0.0000 0.0000
# 5 0.0000 0.0000 0.0000 0.0000 32.1554 0.0000
# 6 0.0000 0.0000 0.0000 0.0000 0.0000 18.3072
#
#
#
# Elastic Compliance Matrix: (Units=1/GPa)
#
#
# Indices 1 2 3 4 5 6 
#
# 1 0.042265 0.002539 0.004478 0.000000 0.000000 0.000000
# 2 0.002539 0.017208 0.000143 0.000000 0.000000 0.000000
# 3 0.004478 0.000143 0.009791 0.000000 0.000000 0.000000
# 4 0.000000 0.000000 0.000000 0.054686 0.000000 0.000000
# 5 0.000000 0.000000 0.000000 0.000000 0.031099 0.000000
# 6 0.000000 0.000000 0.000000 0.000000 0.000000 0.054623
#
#
# Mechanical properties :
#
#
# Convention : Reuss Voigt Hill
#
# Bulk Modulus (GPa) = 11.96389 18.06632 15.01510
# Shear Modulus (GPa) = 22.40001 27.43667 24.91834
#
# Velocity S-wave (km/s) = 3.09780 3.42843 3.26730
# Velocity P-wave (km/s) = 4.23327 4.83859 4.54602
#
# Compressibility (1/GPa) = 0.08358484
#
# Stress axis : x y z
#
# Youngs Moduli (GPa) = 23.66025 58.11160 102.13161
#
# Poissons Ratio (x) = -0.14752 -0.45738
# Poissons Ratio (y) = -0.06006 -0.01462
# Poissons Ratio (z) = -0.10596 -0.00832
#
# Static dielectric constant tensor:
#      x y z
#    x 1.800770 0.000000 0.000000 
#    y 0.000000 1.997120 0.000000 
#    z 0.000000 0.000000 1.915080 
# 
# From -- ./inp_files/67054.got.cif
#   From: 2010.05.17/outbox.cif.g08.bks.cpg/sg63_34_cif.got.tgz:67054.got - 2010.06.03 15:47:04.
