data_PCOD9473244
_publ_section_title
;
Structure prediction by ZEFSAII (Michael W. Deem and Ramdas Pophale) SiO2 
 PCOD9473244
Probable space group: C M C M
;
_chemical_formula_sum "Si O2"
_cell_formula_units_Z 96
_cell_length_a 21.953444
_cell_length_b 13.489460
_cell_length_c 14.712303
_cell_angle_alpha 90.000000
_cell_angle_beta 90.000000
_cell_angle_gamma 90.000000
_cell_volume 4356.902951
_symmetry_space_group_name_H-M "C M C M"
_symmetry_group_IT_number 63
_symmetry_cell_setting 'orthorhombic'
loop_
_space_group_symop_operation_xyz
x,y,z
-x,-y,1/2+z
x,-y,-z
-x,y,1/2-z
-x,-y,-z
x,y,1/2-z
-x,y,z
x,-y,1/2+z
1/2+x,1/2+y,z
1/2-x,1/2-y,1/2+z
1/2+x,1/2-y,-z
1/2-x,1/2+y,1/2-z
1/2-x,1/2-y,-z
1/2+x,1/2+y,1/2-z
1/2-x,1/2+y,z
1/2+x,1/2-y,1/2+z
loop_
_atom_site_type_symbol
_atom_site_label
_atom_site_fract_x
_atom_site_fract_y
_atom_site_fract_z
Si Si1 0.929711 0.742434 0.033029
Si Si2 0.743034 0.053975 0.593465
Si Si3 0.881032 0.928249 0.146428
Si Si4 0.600751 0.649936 0.355973
Si Si5 0.348113 0.889640 0.851770
Si Si6 0.771618 0.757618 0.647994
O O1 0.900394 0.838378 0.082682
O O2 0.894102 0.646119 0.070318
O O3 0.000000 0.734108 0.058638
O O4 0.925622 0.771017 0.926538
O O5 0.807617 0.059473 0.644500
O O6 0.723993 0.167511 0.579126
O O7 0.756466 0.000000 0.500000
O O8 0.686912 0.993762 0.636199
O O9 0.899133 0.906152 0.250000
O O10 0.910079 0.034658 0.120289
O O11 0.583614 0.664906 0.250000
O O12 0.673606 0.666295 0.362956
O O13 0.375281 0.884336 0.750000
O O14 0.292320 0.811794 0.855317
O O15 0.778430 0.713904 0.750000
#
# Coordination Sequence:
#
# PCOD9473244 Si02
#       6
#    16  16  16  16  16  16
#     4  12  26  42  62  91 129 175 218 253 304 380
#     4  12  22  34  61  95 130 165 205 263 324 378
#     4  11  22  37  59  91 128 168 210 257 316 375
#     4  10  22  40  62  90 125 163 209 268 323 373
#     4  11  23  39  63  94 130 169 209 260 318 377
#     4  10  20  36  61  92 125 159 203 261 325 377
#
# _framework density 22.033999999999999
#
# number of rings (size 3 to 8) (size 9 to 14) (size 15 to 20)
#    0.000    1.000    3.333    4.500    0.000    4.333 
#    0.000    1.667    0.000    4.500    0.000    4.667 
#    0.000    0.000    0.000    0.000    0.000    0.000 
#
# Total GULP energy -268413.963487 kJ/mol
# GULP energy per Si atom -5591.957573 kJ/mol
# Density = 2.198385 g / cm^3
# Si number density = 22.034000 Si / 1000 Ang^3
#
#
#
# Elastic Constant Matrix: (Units=GPa)
#
#
# Indices 1 2 3 4 5 6 
#
# 1 82.6938 9.0136 7.8521 0.0000 0.0000 0.0000
# 2 9.0136 70.9769 1.4034 0.0000 0.0000 0.0000
# 3 7.8521 1.4034 72.1370 0.0000 0.0000 0.0000
# 4 0.0000 0.0000 0.0000 28.1689 0.0000 0.0000
# 5 0.0000 0.0000 0.0000 0.0000 3.2958 0.0000
# 6 0.0000 0.0000 0.0000 0.0000 0.0000 8.3261
#
#
#
# Elastic Compliance Matrix: (Units=1/GPa)
#
#
# Indices 1 2 3 4 5 6 
#
# 1 0.012387 -0.001547 -0.001318 0.000000 0.000000 0.000000
# 2 -0.001547 0.014288 -0.000110 0.000000 0.000000 0.000000
# 3 -0.001318 -0.000110 0.014008 0.000000 0.000000 0.000000
# 4 0.000000 0.000000 0.000000 0.035500 0.000000 0.000000
# 5 0.000000 0.000000 0.000000 0.000000 0.303420 0.000000
# 6 0.000000 0.000000 0.000000 0.000000 0.000000 0.120104
#
#
# Mechanical properties :
#
#
# Convention : Reuss Voigt Hill
#
# Bulk Modulus (GPa) = 28.79105 29.14954 28.97030
# Shear Modulus (GPa) = 9.66681 21.79406 15.73044
#
# Velocity S-wave (km/s) = 2.09684 3.14842 2.67482
# Velocity P-wave (km/s) = 4.35400 5.14537 4.76614
#
# Compressibility (1/GPa) = 0.03473301
#
# Stress axis : x y z
#
# Youngs Moduli (GPa) = 80.73246 69.99018 71.38713
#
# Poissons Ratio (x) = 0.10827 0.09410
# Poissons Ratio (y) = 0.12489 0.00782
# Poissons Ratio (z) = 0.10642 0.00767
#
# Static dielectric constant tensor:
#      x y z
#    x 1.791280 0.000000 0.000000 
#    y 0.000000 1.824850 0.000000 
#    z 0.000000 0.000000 1.866520 
# 
# From -- ./inp_files/35370.got.cif
#   From: 2010.05.17/outbox.cif.g08.bks.cpg/sg63_18_cif.got.tgz:35370.got - 2010.06.03 15:47:04.
