data_PCOD9473235
_publ_section_title
;
Structure prediction by ZEFSAII (Michael W. Deem and Ramdas Pophale) SiO2 
 PCOD9473235
Probable space group: C M C M
;
_chemical_formula_sum "Si O2"
_cell_formula_units_Z 96
_cell_length_a 27.473818
_cell_length_b 9.747721
_cell_length_c 14.623003
_cell_angle_alpha 90.000000
_cell_angle_beta 90.000000
_cell_angle_gamma 90.000000
_cell_volume 3916.144212
_symmetry_space_group_name_H-M "C M C M"
_symmetry_group_IT_number 63
_symmetry_cell_setting 'orthorhombic'
loop_
_space_group_symop_operation_xyz
x,y,z
-x,-y,1/2+z
x,-y,-z
-x,y,1/2-z
-x,-y,-z
x,y,1/2-z
-x,y,z
x,-y,1/2+z
1/2+x,1/2+y,z
1/2-x,1/2-y,1/2+z
1/2+x,1/2-y,-z
1/2-x,1/2+y,1/2-z
1/2-x,1/2-y,-z
1/2+x,1/2+y,1/2-z
1/2-x,1/2+y,z
1/2+x,1/2-y,1/2+z
loop_
_atom_site_type_symbol
_atom_site_label
_atom_site_fract_x
_atom_site_fract_y
_atom_site_fract_z
Si Si1 0.135122 0.151218 0.648453
Si Si2 0.447051 0.138747 0.120148
Si Si3 0.421949 0.844376 0.092428
Si Si4 0.946428 0.959491 0.642604
Si Si5 0.810917 0.378005 0.361245
Si Si6 0.225266 0.319130 0.638437
O O1 0.149486 0.098518 0.750000
O O2 0.098379 0.278903 0.657511
O O3 0.183249 0.214435 0.605006
O O4 0.100143 0.039116 0.602630
O O5 0.500000 0.191371 0.147549
O O6 0.442762 0.978628 0.141145
O O7 0.441411 0.153270 0.010856
O O8 0.437494 0.701589 0.135139
O O9 0.363804 0.861808 0.095056
O O10 0.947098 0.997310 0.750000
O O11 0.000000 0.992942 0.604751
O O12 0.816646 0.378312 0.250000
O O13 0.786553 0.524281 0.387656
O O14 0.776307 0.250281 0.386106
O O15 0.222696 0.318327 0.750000
#
# Coordination Sequence:
#
# PCOD9473235 Si02
#       6
#    16  16  16  16  16  16
#     4  10  21  39  61  87 120 153 197 250 301 361
#     4  11  23  40  62  84 117 163 203 247 300 355
#     4  11  22  38  58  84 120 158 200 243 295 354
#     4  10  21  36  57  87 119 152 195 247 297 348
#     4  10  20  36  61  89 118 154 196 248 301 356
#     4   9  19  35  58  88 117 150 194 242 300 356
#
# _framework density 24.513908000000001
#
# number of rings (size 3 to 8) (size 9 to 14) (size 15 to 20)
#    0.000    1.833    1.667    3.000    2.333    2.333 
#    0.000    2.500    0.000    0.000    0.000    0.000 
#    0.000    0.000    0.000    0.000    0.000    0.000 
#
# Total GULP energy -268545.383099 kJ/mol
# GULP energy per Si atom -5594.695481 kJ/mol
# Density = 2.445811 g / cm^3
# Si number density = 24.513908 Si / 1000 Ang^3
#
#
#
# Elastic Constant Matrix: (Units=GPa)
#
#
# Indices 1 2 3 4 5 6 
#
# 1 131.7382 -0.1599 20.7904 0.0000 0.0000 0.0000
# 2 -0.1599 81.3910 14.4213 0.0000 0.0000 0.0000
# 3 20.7904 14.4213 82.2278 0.0000 0.0000 0.0000
# 4 0.0000 0.0000 0.0000 17.3704 0.0000 0.0000
# 5 0.0000 0.0000 0.0000 0.0000 15.1762 0.0000
# 6 0.0000 0.0000 0.0000 0.0000 0.0000 44.4790
#
#
#
# Elastic Compliance Matrix: (Units=1/GPa)
#
#
# Indices 1 2 3 4 5 6 
#
# 1 0.007918 0.000382 -0.002069 0.000000 0.000000 0.000000
# 2 0.000382 0.012699 -0.002324 0.000000 0.000000 0.000000
# 3 -0.002069 -0.002324 0.013092 0.000000 0.000000 0.000000
# 4 0.000000 0.000000 0.000000 0.057569 0.000000 0.000000
# 5 0.000000 0.000000 0.000000 0.000000 0.065893 0.000000
# 6 0.000000 0.000000 0.000000 0.000000 0.000000 0.022483
#
#
# Mechanical properties :
#
#
# Convention : Reuss Voigt Hill
#
# Bulk Modulus (GPa) = 38.92947 40.60673 39.76810
# Shear Modulus (GPa) = 25.47941 32.75879 29.11910
#
# Velocity S-wave (km/s) = 3.22745 3.65956 3.45027
# Velocity P-wave (km/s) = 5.45927 5.87003 5.66837
#
# Compressibility (1/GPa) = 0.02568748
#
# Stress axis : x y z
#
# Youngs Moduli (GPa) = 126.29786 78.74723 76.38252
#
# Poissons Ratio (x) = -0.03009 0.15803
# Poissons Ratio (y) = -0.04826 0.17750
# Poissons Ratio (z) = 0.26130 0.18299
#
# Static dielectric constant tensor:
#      x y z
#    x 1.894710 0.000000 0.000000 
#    y 0.000000 1.921760 0.000000 
#    z 0.000000 0.000000 1.981660 
# 
# From -- ./inp_files/58118.got.cif
#   From: 2010.05.17/outbox.cif.g08.bks.cpg/sg63_30_cif.got.tgz:58118.got - 2010.06.03 15:47:04.
