data_PCOD9473689
_publ_section_title
;
Structure prediction by ZEFSAII (Michael W. Deem and Ramdas Pophale) SiO2 
 PCOD9473689
Probable space group: C M C M
;
_chemical_formula_sum "Si O2"
_cell_formula_units_Z 68
_cell_length_a 22.897689
_cell_length_b 14.002038
_cell_length_c 11.470008
_cell_angle_alpha 90.000000
_cell_angle_beta 90.000000
_cell_angle_gamma 90.000000
_cell_volume 3677.448718
_symmetry_space_group_name_H-M "C M C M"
_symmetry_group_IT_number 63
_symmetry_cell_setting 'orthorhombic'
loop_
_space_group_symop_operation_xyz
x,y,z
-x,-y,1/2+z
x,-y,-z
-x,y,1/2-z
-x,-y,-z
x,y,1/2-z
-x,y,z
x,-y,1/2+z
1/2+x,1/2+y,z
1/2-x,1/2-y,1/2+z
1/2+x,1/2-y,-z
1/2-x,1/2+y,1/2-z
1/2-x,1/2-y,-z
1/2+x,1/2+y,1/2-z
1/2-x,1/2+y,z
1/2+x,1/2-y,1/2+z
loop_
_atom_site_type_symbol
_atom_site_label
_atom_site_fract_x
_atom_site_fract_y
_atom_site_fract_z
Si Si1 0.221582 0.569932 0.114573
Si Si2 0.153207 0.107686 0.456037
Si Si3 0.434657 0.377396 0.750000
Si Si4 0.000000 0.307090 0.250000
Si Si5 0.613591 0.215826 0.385298
Si Si6 0.500000 0.885650 0.997261
O O1 0.222713 0.528827 0.250000
O O2 0.282663 0.626898 0.097649
O O3 0.167044 0.641218 0.109455
O O4 0.216098 0.500000 0.000000
O O5 0.102584 0.099916 0.361518
O O6 0.133382 0.188542 0.546896
O O7 0.159110 0.000000 0.500000
O O8 0.500000 0.419533 0.750000
O O9 0.445116 0.263855 0.750000
O O10 0.000000 0.363448 0.366870
O O11 0.601736 0.238467 0.250000
O O12 0.556900 0.163952 0.440056
O O13 0.500000 0.000000 0.000000
#
# Coordination Sequence:
#
# PCOD9473689 Si02
#       6
#    16  16   8   4  16   8
#     4  10  22  42  66  95 129 167 215 264 322 383
#     4  11  23  40  65  91 124 169 210 260 313 378
#     4  10  20  42  60  88 126 163 213 253 303 372
#     4  10  22  44  66  86 124 168 208 252 310 378
#     4  11  24  43  61  94 130 166 210 265 320 380
#     4  12  25  44  67  94 127 166 209 259 318 380
#
# _framework density 18.49108
#
# number of rings (size 3 to 8) (size 9 to 14) (size 15 to 20)
#    0.353    0.941    3.529    1.765    3.294    1.412 
#    4.235    0.000    0.000    0.000    0.000    0.000 
#    0.000    0.000    0.000    0.000    0.000    0.000 
#
# Total GULP energy -189379.754539 kJ/mol
# GULP energy per Si atom -5569.992781 kJ/mol
# Density = 1.844899 g / cm^3
# Si number density = 18.491080 Si / 1000 Ang^3
#
#
#
# Elastic Constant Matrix: (Units=GPa)
#
#
# Indices 1 2 3 4 5 6 
#
# 1 159.5969 41.8134 62.9216 0.0000 0.0000 0.0000
# 2 41.8134 80.7368 43.3632 0.0000 0.0000 0.0000
# 3 62.9216 43.3632 153.5289 0.0000 0.0000 0.0000
# 4 0.0000 0.0000 0.0000 23.9745 0.0000 0.0000
# 5 0.0000 0.0000 0.0000 0.0000 48.7413 0.0000
# 6 0.0000 0.0000 0.0000 0.0000 0.0000 25.8789
#
#
#
# Elastic Compliance Matrix: (Units=1/GPa)
#
#
# Indices 1 2 3 4 5 6 
#
# 1 0.007976 -0.002800 -0.002478 0.000000 0.000000 0.000000
# 2 -0.002800 0.015584 -0.003254 0.000000 0.000000 0.000000
# 3 -0.002478 -0.003254 0.008448 0.000000 0.000000 0.000000
# 4 0.000000 0.000000 0.000000 0.041711 0.000000 0.000000
# 5 0.000000 0.000000 0.000000 0.000000 0.020516 0.000000
# 6 0.000000 0.000000 0.000000 0.000000 0.000000 0.038642
#
#
# Mechanical properties :
#
#
# Convention : Reuss Voigt Hill
#
# Bulk Modulus (GPa) = 66.91646 76.67322 71.79484
# Shear Modulus (GPa) = 32.27413 36.10322 34.18868
#
# Velocity S-wave (km/s) = 4.18232 4.42347 4.30458
# Velocity P-wave (km/s) = 7.71942 8.22462 7.97602
#
# Compressibility (1/GPa) = 0.01494401
#
# Stress axis : x y z
#
# Youngs Moduli (GPa) = 125.37004 64.16960 118.36910
#
# Poissons Ratio (x) = 0.17967 0.29334
# Poissons Ratio (y) = 0.35103 0.38517
# Poissons Ratio (z) = 0.31069 0.20881
#
# Static dielectric constant tensor:
#      x y z
#    x 2.225210 0.000000 0.000000 
#    y 0.000000 1.546700 0.000000 
#    z 0.000000 0.000000 1.636630 
# 
# From -- ./inp_files/22351.got.cif
#   From: 2010.05.17/outbox.cif.g08.bks.cpg/sg63_12_cif.got.tgz:22351.got - 2010.06.03 15:47:04.
