data_PCOD9473904
_publ_section_title
;
Structure prediction by ZEFSAII (Michael W. Deem and Ramdas Pophale) SiO2 
 PCOD9473904
Probable space group: C M C M
;
_chemical_formula_sum "Si O2"
_cell_formula_units_Z 116
_cell_length_a 7.836017
_cell_length_b 34.412912
_cell_length_c 23.898601
_cell_angle_alpha 90.000000
_cell_angle_beta 90.000000
_cell_angle_gamma 90.000000
_cell_volume 6444.500652
_symmetry_space_group_name_H-M "C M C M"
_symmetry_group_IT_number 63
_symmetry_cell_setting 'orthorhombic'
loop_
_space_group_symop_operation_xyz
x,y,z
-x,-y,1/2+z
x,-y,-z
-x,y,1/2-z
-x,-y,-z
x,y,1/2-z
-x,y,z
x,-y,1/2+z
1/2+x,1/2+y,z
1/2-x,1/2-y,1/2+z
1/2+x,1/2-y,-z
1/2-x,1/2+y,1/2-z
1/2-x,1/2-y,-z
1/2+x,1/2+y,1/2-z
1/2-x,1/2+y,z
1/2+x,1/2-y,1/2+z
loop_
_atom_site_type_symbol
_atom_site_label
_atom_site_fract_x
_atom_site_fract_y
_atom_site_fract_z
Si Si1 0.198501 0.475531 0.052978
Si Si2 0.702323 0.099468 0.382268
Si Si3 0.294484 0.307378 0.470853
Si Si4 0.704789 0.268747 0.586818
Si Si5 0.206891 0.176509 0.314154
Si Si6 0.689740 0.483800 0.661901
Si Si7 0.000000 0.493442 0.750000
Si Si8 0.702617 0.607411 0.511574
O O1 0.294549 0.488200 0.108363
O O2 0.000000 0.486408 0.060457
O O3 0.264961 0.500000 0.000000
O O4 0.212781 0.430404 0.037924
O O5 0.500000 0.092795 0.384475
O O6 0.739816 0.135729 0.341808
O O7 0.788820 0.060493 0.359641
O O8 0.765569 0.108345 0.444895
O O9 0.500000 0.308464 0.474211
O O10 0.230519 0.290968 0.530931
O O11 0.247211 0.276229 0.423665
O O12 0.235014 0.351468 0.463897
O O13 0.500000 0.272317 0.586706
O O14 0.766433 0.289635 0.643212
O O15 0.266514 0.180206 0.250000
O O16 0.000000 0.177353 0.313156
O O17 0.500000 0.488052 0.686094
O O18 0.848110 0.492130 0.702021
O O19 0.500000 0.604134 0.520786
#
# Coordination Sequence:
#
# PCOD9473904 Si02
#       8
#    16  16  16  16  16  16   4  16
#     4  11  22  38  59  91 126 155 196 251 308 373
#     4  12  23  36  52  82 122 157 196 242 287 360
#     4   9  18  32  51  78 109 140 182 236 286 349
#     4   9  17  32  51  75 108 140 184 232 286 347
#     4  10  21  36  54  77 108 152 196 236 283 347
#     4  12  25  43  65  88 122 165 204 257 310 358
#     4  12  26  48  62  90 116 160 226 258 292 370
#     4  11  21  35  57  85 116 152 196 237 304 375
#
# _framework density 17.999842999999998
#
# number of rings (size 3 to 8) (size 9 to 14) (size 15 to 20)
#    0.000    1.379    4.138    2.276    0.966    2.483 
#    0.000    0.000    0.000    0.000    1.793    0.000 
#    0.000    0.000    0.000    0.000    0.000    0.000 
#
# Total GULP energy -323374.716578 kJ/mol
# GULP energy per Si atom -5575.426148 kJ/mol
# Density = 1.795887 g / cm^3
# Si number density = 17.999843 Si / 1000 Ang^3
#
#
#
# Elastic Constant Matrix: (Units=GPa)
#
#
# Indices 1 2 3 4 5 6 
#
# 1 69.1121 6.9673 7.0678 0.0000 0.0000 0.0000
# 2 6.9673 125.3991 65.9039 0.0000 0.0000 0.0000
# 3 7.0678 65.9039 94.8378 0.0000 0.0000 0.0000
# 4 0.0000 0.0000 0.0000 -10.6515 0.0000 0.0000
# 5 0.0000 0.0000 0.0000 0.0000 39.5618 0.0000
# 6 0.0000 0.0000 0.0000 0.0000 0.0000 24.3540
#
#
#
# Elastic Compliance Matrix: (Units=1/GPa)
#
#
# Indices 1 2 3 4 5 6 
#
# 1 0.014592 -0.000377 -0.000826 0.000000 0.000000 0.000000
# 2 -0.000377 0.012572 -0.008709 0.000000 0.000000 0.000000
# 3 -0.000826 -0.008709 0.016658 0.000000 0.000000 0.000000
# 4 0.000000 0.000000 0.000000 -0.093883 0.000000 0.000000
# 5 0.000000 0.000000 0.000000 0.000000 0.025277 0.000000
# 6 0.000000 0.000000 0.000000 0.000000 0.000000 0.041061
#
#
# Mechanical properties :
#
#
# Convention : Reuss Voigt Hill
#
# Bulk Modulus (GPa) = 41.66747 49.91410 45.79078
# Shear Modulus (GPa) = 113.38356 24.61351 68.99854
#
# Velocity S-wave (km/s) = 7.94532 3.70189 6.19807
# Velocity P-wave (km/s) = 10.36195 6.78693 8.75878
#
# Compressibility (1/GPa) = 0.02399954
#
# Stress axis : x y z
#
# Youngs Moduli (GPa) = 68.53233 79.54010 60.03301
#
# Poissons Ratio (x) = 0.02997 0.04956
# Poissons Ratio (y) = 0.02583 0.52280
# Poissons Ratio (z) = 0.05658 0.69268
#
# Static dielectric constant tensor:
#      x y z
#    x 1.651930 0.000000 0.000000 
#    y 0.000000 1.610280 0.000000 
#    z 0.000000 0.000000 1.598190 
# 
# From -- ./inp_files/60633.got.cif
#   From: 2010.05.17/outbox.cif.g08.bks.cpg/sg63_31_cif.got.tgz:60633.got - 2010.06.03 15:47:04.
