data_PCOD9473905
_publ_section_title
;
Structure prediction by ZEFSAII (Michael W. Deem and Ramdas Pophale) SiO2 
 PCOD9473905
Probable space group: C M C M
;
_chemical_formula_sum "Si O2"
_cell_formula_units_Z 112
_cell_length_a 11.604032
_cell_length_b 29.548725
_cell_length_c 18.603408
_cell_angle_alpha 90.000000
_cell_angle_beta 90.000000
_cell_angle_gamma 90.000000
_cell_volume 6378.817468
_symmetry_space_group_name_H-M "C M C M"
_symmetry_group_IT_number 63
_symmetry_cell_setting 'orthorhombic'
loop_
_space_group_symop_operation_xyz
x,y,z
-x,-y,1/2+z
x,-y,-z
-x,y,1/2-z
-x,-y,-z
x,y,1/2-z
-x,y,z
x,-y,1/2+z
1/2+x,1/2+y,z
1/2-x,1/2-y,1/2+z
1/2+x,1/2-y,-z
1/2-x,1/2+y,1/2-z
1/2-x,1/2-y,-z
1/2+x,1/2+y,1/2-z
1/2-x,1/2+y,z
1/2+x,1/2-y,1/2+z
loop_
_atom_site_type_symbol
_atom_site_label
_atom_site_fract_x
_atom_site_fract_y
_atom_site_fract_z
Si Si1 0.860264 0.965941 0.666787
Si Si2 0.763810 0.293946 0.668355
Si Si3 0.626811 0.747305 0.956367
Si Si4 0.360211 0.626008 0.089932
Si Si5 0.135647 0.698058 0.828910
Si Si6 0.861692 0.933404 0.168040
Si Si7 0.795478 0.849621 0.430527
O O1 0.825459 0.958996 0.750000
O O2 0.826659 0.923717 0.617951
O O3 0.000000 0.965954 0.666214
O O4 0.821890 0.016339 0.644184
O O5 0.806069 0.299107 0.750000
O O6 0.859110 0.283230 0.607958
O O7 0.686530 0.336329 0.644805
O O8 0.686386 0.248482 0.665188
O O9 0.500000 0.753395 0.992608
O O10 0.628248 0.696129 0.925339
O O11 0.750000 0.750000 0.000000
O O12 0.500000 0.628796 0.083413
O O13 0.303083 0.636739 0.013363
O O14 0.175482 0.680411 0.750000
O O15 0.177817 0.667670 0.894721
O O16 0.000000 0.700530 0.828479
O O17 0.820788 0.925985 0.250000
O O18 0.832392 0.892480 0.116090
O O19 0.000000 0.935622 0.170858
#
# Coordination Sequence:
#
# PCOD9473905 Si02
#       7
#    16  16  16  16  16  16  16
#     4   8  16  30  48  71 101 139 180 221 267 322
#     4  10  21  36  54  78 105 142 188 230 272 318
#     4  11  23  39  57  80 115 154 191 230 277 333
#     4  11  20  31  48  76 111 146 183 222 270 333
#     4   9  19  35  53  74 102 138 183 231 274 322
#     4   9  17  31  50  73 104 139 173 215 270 329
#     4  11  21  32  50  79 107 139 177 219 276 332
#
# _framework density 17.558112999999999
#
# number of rings (size 3 to 8) (size 9 to 14) (size 15 to 20)
#    0.000    2.143    1.429    3.429    0.000    5.143 
#    0.000    2.143    0.000    0.000    0.000    3.000 
#    0.000    2.286    0.000    0.000    0.000    0.000 
#
# Total GULP energy -311833.689358 kJ/mol
# GULP energy per Si atom -5568.458739 kJ/mol
# Density = 1.751815 g / cm^3
# Si number density = 17.558113 Si / 1000 Ang^3
#
#
#
# Elastic Constant Matrix: (Units=GPa)
#
#
# Indices 1 2 3 4 5 6 
#
# 1 64.0830 14.6130 18.5612 0.0000 0.0000 0.0000
# 2 14.6130 111.5660 39.3877 0.0000 0.0000 0.0000
# 3 18.5612 39.3877 77.8991 0.0000 0.0000 0.0000
# 4 0.0000 0.0000 0.0000 34.5600 0.0000 0.0000
# 5 0.0000 0.0000 0.0000 0.0000 19.4947 0.0000
# 6 0.0000 0.0000 0.0000 0.0000 0.0000 18.1256
#
#
#
# Elastic Compliance Matrix: (Units=1/GPa)
#
#
# Indices 1 2 3 4 5 6 
#
# 1 0.016846 -0.000961 -0.003528 0.000000 0.000000 0.000000
# 2 -0.000961 0.010966 -0.005316 0.000000 0.000000 0.000000
# 3 -0.003528 -0.005316 0.016365 0.000000 0.000000 0.000000
# 4 0.000000 0.000000 0.000000 0.028935 0.000000 0.000000
# 5 0.000000 0.000000 0.000000 0.000000 0.051296 0.000000
# 6 0.000000 0.000000 0.000000 0.000000 0.000000 0.055171
#
#
# Mechanical properties :
#
#
# Convention : Reuss Voigt Hill
#
# Bulk Modulus (GPa) = 40.70351 44.29687 42.50019
# Shear Modulus (GPa) = 24.11065 26.50181 25.30623
#
# Velocity S-wave (km/s) = 3.70968 3.88928 3.80054
# Velocity P-wave (km/s) = 6.44837 6.74182 6.59673
#
# Compressibility (1/GPa) = 0.02456791
#
# Stress axis : x y z
#
# Youngs Moduli (GPa) = 59.36220 91.19250 61.10432
#
# Poissons Ratio (x) = 0.08763 0.21558
# Poissons Ratio (y) = 0.05704 0.32481
# Poissons Ratio (z) = 0.20943 0.48475
#
# Static dielectric constant tensor:
#      x y z
#    x 1.597710 0.000000 0.000000 
#    y 0.000000 1.607220 0.000000 
#    z 0.000000 0.000000 1.662050 
# 
# From -- ./inp_files/53327.got.cif
#   From: 2010.05.17/outbox.cif.g08.bks.cpg/sg63_27_cif.got.tgz:53327.got - 2010.06.03 15:47:04.
