data_PCOD9473362
_publ_section_title
;
Structure prediction by ZEFSAII (Michael W. Deem and Ramdas Pophale) SiO2 
 PCOD9473362
Probable space group: C M C M
;
_chemical_formula_sum "Si O2"
_cell_formula_units_Z 80
_cell_length_a 12.556762
_cell_length_b 17.786385
_cell_length_c 19.909344
_cell_angle_alpha 90.000000
_cell_angle_beta 90.000000
_cell_angle_gamma 90.000000
_cell_volume 4446.541009
_symmetry_space_group_name_H-M "C M C M"
_symmetry_group_IT_number 63
_symmetry_cell_setting 'orthorhombic'
loop_
_space_group_symop_operation_xyz
x,y,z
-x,-y,1/2+z
x,-y,-z
-x,y,1/2-z
-x,-y,-z
x,y,1/2-z
-x,y,z
x,-y,1/2+z
1/2+x,1/2+y,z
1/2-x,1/2-y,1/2+z
1/2+x,1/2-y,-z
1/2-x,1/2+y,1/2-z
1/2-x,1/2-y,-z
1/2+x,1/2+y,1/2-z
1/2-x,1/2+y,z
1/2+x,1/2-y,1/2+z
loop_
_atom_site_type_symbol
_atom_site_label
_atom_site_fract_x
_atom_site_fract_y
_atom_site_fract_z
Si Si1 0.878934 0.020302 0.425929
Si Si2 0.500000 0.184497 0.331094
Si Si3 0.383881 0.691919 0.043691
Si Si4 0.000000 0.506844 0.168644
Si Si5 0.725014 0.934015 0.169918
Si Si6 0.688590 0.716597 0.604268
O O1 0.883423 0.109751 0.424454
O O2 0.000000 0.990182 0.421566
O O3 0.836125 0.000000 0.500000
O O4 0.806958 0.988380 0.367614
O O5 0.500000 0.186636 0.250000
O O6 0.603498 0.229543 0.358672
O O7 0.500000 0.095595 0.352307
O O8 0.500000 0.727581 0.054476
O O9 0.288839 0.737154 0.076749
O O10 0.366101 0.684753 0.963581
O O11 0.893494 0.461256 0.148425
O O12 0.000000 0.508694 0.250000
O O13 0.731019 0.940774 0.250000
O O14 0.763347 0.850981 0.148262
#
# Coordination Sequence:
#
# PCOD9473362 Si02
#       6
#    16   8  16   8  16  16
#     4  10  20  37  60  86 121 158 195 246 304 362
#     4  11  22  40  63  90 125 163 210 265 315 371
#     4  10  21  39  60  85 125 161 198 249 309 373
#     4   9  22  42  60  82 124 168 203 252 315 369
#     4  11  23  40  63  90 122 162 209 258 308 369
#     4  11  22  36  61  92 122 157 208 254 309 367
#
# _framework density 17.991512
#
# number of rings (size 3 to 8) (size 9 to 14) (size 15 to 20)
#    0.000    1.600    3.000    1.800    2.800    0.400 
#    0.000    1.500    0.000    2.400    0.000    0.000 
#    0.000    0.000    0.000    0.000    0.000    0.000 
#
# Total GULP energy -223103.743475 kJ/mol
# GULP energy per Si atom -5577.593587 kJ/mol
# Density = 1.795056 g / cm^3
# Si number density = 17.991512 Si / 1000 Ang^3
#
#
#
# Elastic Constant Matrix: (Units=GPa)
#
#
# Indices 1 2 3 4 5 6 
#
# 1 145.2240 59.6133 59.8474 0.0000 0.0000 0.0000
# 2 59.6133 81.1981 31.2671 0.0000 0.0000 0.0000
# 3 59.8474 31.2671 88.3315 0.0000 0.0000 0.0000
# 4 0.0000 0.0000 0.0000 23.1440 0.0000 0.0000
# 5 0.0000 0.0000 0.0000 0.0000 27.5695 0.0000
# 6 0.0000 0.0000 0.0000 0.0000 0.0000 28.9885
#
#
#
# Elastic Compliance Matrix: (Units=1/GPa)
#
#
# Indices 1 2 3 4 5 6 
#
# 1 0.011959 -0.006553 -0.005783 0.000000 0.000000 0.000000
# 2 -0.006553 0.017850 -0.001878 0.000000 0.000000 0.000000
# 3 -0.005783 -0.001878 0.015904 0.000000 0.000000 0.000000
# 4 0.000000 0.000000 0.000000 0.043208 0.000000 0.000000
# 5 0.000000 0.000000 0.000000 0.000000 0.036272 0.000000
# 6 0.000000 0.000000 0.000000 0.000000 0.000000 0.034496
#
#
# Mechanical properties :
#
#
# Convention : Reuss Voigt Hill
#
# Bulk Modulus (GPa) = 57.85723 68.46770 63.16247
# Shear Modulus (GPa) = 25.78911 26.87545 26.33228
#
# Velocity S-wave (km/s) = 3.79014 3.86914 3.82985
# Velocity P-wave (km/s) = 7.16808 7.62224 7.39865
#
# Compressibility (1/GPa) = 0.01728392
#
# Stress axis : x y z
#
# Youngs Moduli (GPa) = 83.61786 56.02223 62.87676
#
# Poissons Ratio (x) = 0.36712 0.36362
# Poissons Ratio (y) = 0.54796 0.11811
# Poissons Ratio (z) = 0.48357 0.10524
#
# Static dielectric constant tensor:
#      x y z
#    x 1.631600 0.000000 0.000000 
#    y 0.000000 1.622500 0.000000 
#    z 0.000000 0.000000 1.589590 
# 
# From -- ./inp_files/42168.got.cif
#   From: 2010.05.17/outbox.cif.g08.bks.cpg/sg63_22_cif.got.tgz:42168.got - 2010.06.03 15:47:04.
