data_PCOD9473121
_publ_section_title
;
Structure prediction by ZEFSAII (Michael W. Deem and Ramdas Pophale) SiO2 
 PCOD9473121
Probable space group: C M C M
;
_chemical_formula_sum "Si O2"
_cell_formula_units_Z 112
_cell_length_a 16.397313
_cell_length_b 31.694522
_cell_length_c 10.884999
_cell_angle_alpha 90.000000
_cell_angle_beta 90.000000
_cell_angle_gamma 90.000000
_cell_volume 5656.988379
_symmetry_space_group_name_H-M "C M C M"
_symmetry_group_IT_number 63
_symmetry_cell_setting 'orthorhombic'
loop_
_space_group_symop_operation_xyz
x,y,z
-x,-y,1/2+z
x,-y,-z
-x,y,1/2-z
-x,-y,-z
x,y,1/2-z
-x,y,z
x,-y,1/2+z
1/2+x,1/2+y,z
1/2-x,1/2-y,1/2+z
1/2+x,1/2-y,-z
1/2-x,1/2+y,1/2-z
1/2-x,1/2-y,-z
1/2+x,1/2+y,1/2-z
1/2-x,1/2+y,z
1/2+x,1/2-y,1/2+z
loop_
_atom_site_type_symbol
_atom_site_label
_atom_site_fract_x
_atom_site_fract_y
_atom_site_fract_z
Si Si1 0.596477 0.676977 0.613915
Si Si2 0.590381 0.450241 0.470619
Si Si3 0.808645 0.739036 0.112499
Si Si4 0.839775 0.877479 0.612790
Si Si5 0.742140 0.029787 0.617771
Si Si6 0.151327 0.640586 0.113622
Si Si7 0.590269 0.092816 0.614754
O O1 0.624661 0.661903 0.750000
O O2 0.500000 0.671672 0.607781
O O3 0.620336 0.726168 0.607165
O O4 0.635144 0.652711 0.499298
O O5 0.586052 0.500000 0.500000
O O6 0.500000 0.437810 0.424049
O O7 0.613678 0.421353 0.587047
O O8 0.671288 0.445674 0.388314
O O9 0.770573 0.743163 0.250000
O O10 0.837067 0.690869 0.102670
O O11 0.750000 0.750000 0.000000
O O12 0.860211 0.861689 0.750000
O O13 0.741710 0.880317 0.607776
O O14 0.739624 0.007058 0.750000
O O15 0.664148 0.059859 0.610525
O O16 0.739984 0.000000 0.500000
O O17 0.117614 0.631451 0.250000
O O18 0.101035 0.623522 0.999676
O O19 0.595856 0.113810 0.750000
O O20 0.500000 0.072906 0.607711
#
# Coordination Sequence:
#
# PCOD9473121 Si02
#       7
#    16  16  16  16  16  16  16
#     4  10  22  38  57  85 121 161 203 247 300 364
#     4  10  22  39  59  86 120 161 200 241 300 363
#     4  10  20  36  58  85 117 157 200 246 298 359
#     4  11  22  39  64  92 122 158 203 255 308 361
#     4  10  22  40  62  89 121 157 198 250 302 359
#     4  10  21  37  61  92 122 156 202 252 305 363
#     4  10  22  41  63  88 120 159 202 247 303 366
#
# _framework density 19.798521000000001
#
# number of rings (size 3 to 8) (size 9 to 14) (size 15 to 20)
#    0.000    1.857    2.857    0.429    0.000    7.143 
#    0.000    4.286    0.000    0.000    0.000    0.000 
#    0.000    0.000    0.000    0.000    0.000    0.000 
#
# Total GULP energy -312160.945931 kJ/mol
# GULP energy per Si atom -5574.302606 kJ/mol
# Density = 1.975346 g / cm^3
# Si number density = 19.798521 Si / 1000 Ang^3
#
#
#
# Elastic Constant Matrix: (Units=GPa)
#
#
# Indices 1 2 3 4 5 6 
#
# 1 108.7710 26.8185 55.7690 0.0000 0.0000 0.0000
# 2 26.8185 59.8070 38.4015 0.0000 0.0000 0.0000
# 3 55.7690 38.4015 183.9062 0.0000 0.0000 0.0000
# 4 0.0000 0.0000 0.0000 30.7024 0.0000 0.0000
# 5 0.0000 0.0000 0.0000 0.0000 18.6088 0.0000
# 6 0.0000 0.0000 0.0000 0.0000 0.0000 11.7248
#
#
#
# Elastic Compliance Matrix: (Units=1/GPa)
#
#
# Indices 1 2 3 4 5 6 
#
# 1 0.011440 -0.003352 -0.002769 0.000000 0.000000 0.000000
# 2 -0.003352 0.020291 -0.003221 0.000000 0.000000 0.000000
# 3 -0.002769 -0.003221 0.006950 0.000000 0.000000 0.000000
# 4 0.000000 0.000000 0.000000 0.032571 0.000000 0.000000
# 5 0.000000 0.000000 0.000000 0.000000 0.053738 0.000000
# 6 0.000000 0.000000 0.000000 0.000000 0.000000 0.085290
#
#
# Mechanical properties :
#
#
# Convention : Reuss Voigt Hill
#
# Bulk Modulus (GPa) = 50.00540 66.05136 58.02838
# Shear Modulus (GPa) = 21.21984 27.64020 24.43002
#
# Velocity S-wave (km/s) = 3.27737 3.74046 3.51655
# Velocity P-wave (km/s) = 6.29552 7.21727 6.77209
#
# Compressibility (1/GPa) = 0.01999784
#
# Stress axis : x y z
#
# Youngs Moduli (GPa) = 87.41358 49.28198 143.88869
#
# Poissons Ratio (x) = 0.16518 0.39846
# Poissons Ratio (y) = 0.29299 0.46341
# Poissons Ratio (z) = 0.24207 0.15872
#
# Static dielectric constant tensor:
#      x y z
#    x 1.706090 0.000000 0.000000 
#    y 0.000000 1.707310 0.000000 
#    z 0.000000 0.000000 1.728110 
# 
# From -- ./inp_files/20075.got.cif
#   From: 2010.05.17/outbox.cif.g08.bks.cpg/sg63_11_cif.got.tgz:20075.got - 2010.06.03 15:47:04.
