data_PCOD9473413
_publ_section_title
;
Structure prediction by ZEFSAII (Michael W. Deem and Ramdas Pophale) SiO2 
 PCOD9473413
Probable space group: C M C M
;
_chemical_formula_sum "Si O2"
_cell_formula_units_Z 84
_cell_length_a 7.297664
_cell_length_b 19.312587
_cell_length_c 23.215236
_cell_angle_alpha 90.000000
_cell_angle_beta 90.000000
_cell_angle_gamma 90.000000
_cell_volume 3271.880397
_symmetry_space_group_name_H-M "C M C M"
_symmetry_group_IT_number 63
_symmetry_cell_setting 'orthorhombic'
loop_
_space_group_symop_operation_xyz
x,y,z
-x,-y,1/2+z
x,-y,-z
-x,y,1/2-z
-x,-y,-z
x,y,1/2-z
-x,y,z
x,-y,1/2+z
1/2+x,1/2+y,z
1/2-x,1/2-y,1/2+z
1/2+x,1/2-y,-z
1/2-x,1/2+y,1/2-z
1/2-x,1/2-y,-z
1/2+x,1/2+y,1/2-z
1/2-x,1/2+y,z
1/2+x,1/2-y,1/2+z
loop_
_atom_site_type_symbol
_atom_site_label
_atom_site_fract_x
_atom_site_fract_y
_atom_site_fract_z
Si Si1 0.289951 0.675740 0.428035
Si Si2 0.792238 0.427978 0.341692
Si Si3 0.776151 0.418099 0.684313
Si Si4 0.000000 0.722284 0.250000
Si Si5 0.723424 0.223439 0.839856
Si Si6 0.722376 0.424919 0.024806
O O1 0.500000 0.687521 0.443685
O O2 0.285763 0.624642 0.371946
O O3 0.224636 0.749601 0.403799
O O4 0.208441 0.634414 0.481488
O O5 0.714081 0.502102 0.325095
O O6 0.715625 0.353940 0.323142
O O7 0.792219 0.421090 0.410587
O O8 0.000000 0.429386 0.319878
O O9 0.720551 0.400055 0.750000
O O10 0.000000 0.415845 0.684090
O O11 0.160419 0.727904 0.299093
O O12 0.500000 0.228314 0.834096
O O13 0.500000 0.422733 0.026982
O O14 0.773005 0.500000 0.000000
#
# Coordination Sequence:
#
# PCOD9473413 Si02
#       6
#    16  16  16   4  16  16
#     4  10  22  41  61  89 126 168 208 267 333 374
#     4  10  22  41  62  91 127 168 211 267 330 379
#     4  10  22  37  59  87 122 161 211 264 319 391
#     4  12  26  44  72  98 124 184 214 258 334 386
#     4  10  25  45  65  96 135 168 217 269 322 391
#     4  10  20  37  62  91 127 166 213 270 318 386
#
# _framework density 25.673310000000001
#
# number of rings (size 3 to 8) (size 9 to 14) (size 15 to 20)
#    0.000    1.905    1.905    0.286    5.333    2.286 
#    0.000    0.000    0.000    0.000    0.000    0.000 
#    0.000    0.000    0.000    0.000    0.000    0.000 
#
# Total GULP energy -234262.979904 kJ/mol
# GULP energy per Si atom -5577.689998 kJ/mol
# Density = 2.561488 g / cm^3
# Si number density = 25.673310 Si / 1000 Ang^3
#
#
#
# Elastic Constant Matrix: (Units=GPa)
#
#
# Indices 1 2 3 4 5 6 
#
# 1 118.1742 -6.6379 -7.0090 0.0000 0.0000 0.0000
# 2 -6.6379 111.4161 5.6029 0.0000 0.0000 0.0000
# 3 -7.0090 5.6029 113.7115 0.0000 0.0000 0.0000
# 4 0.0000 0.0000 0.0000 5.0805 0.0000 0.0000
# 5 0.0000 0.0000 0.0000 0.0000 25.8202 0.0000
# 6 0.0000 0.0000 0.0000 0.0000 0.0000 2.2247
#
#
#
# Elastic Compliance Matrix: (Units=1/GPa)
#
#
# Indices 1 2 3 4 5 6 
#
# 1 0.008519 0.000482 0.000501 0.000000 0.000000 0.000000
# 2 0.000482 0.009025 -0.000415 0.000000 0.000000 0.000000
# 3 0.000501 -0.000415 0.008846 0.000000 0.000000 0.000000
# 4 0.000000 0.000000 0.000000 0.196831 0.000000 0.000000
# 5 0.000000 0.000000 0.000000 0.000000 0.038729 0.000000
# 6 0.000000 0.000000 0.000000 0.000000 0.000000 0.449506
#
#
# Mechanical properties :
#
#
# Convention : Reuss Voigt Hill
#
# Bulk Modulus (GPa) = 36.32822 36.35708 36.34265
# Shear Modulus (GPa) = 6.94933 30.04812 18.49872
#
# Velocity S-wave (km/s) = 1.64703 3.42483 2.68721
# Velocity P-wave (km/s) = 4.21875 5.46181 4.88002
#
# Compressibility (1/GPa) = 0.02752681
#
# Stress axis : x y z
#
# Youngs Moduli (GPa) = 117.38591 110.80369 113.05139
#
# Poissons Ratio (x) = -0.05344 -0.05668
# Poissons Ratio (y) = -0.05662 0.04691
# Poissons Ratio (z) = -0.05885 0.04598
#
# Static dielectric constant tensor:
#      x y z
#    x 1.965050 0.000000 0.000000 
#    y 0.000000 2.144050 0.000000 
#    z 0.000000 0.000000 2.034160 
# 
# From -- ./inp_files/59502.got.cif
#   From: 2010.05.17/outbox.cif.g08.bks.cpg/sg63_30_cif.got.tgz:59502.got - 2010.06.03 15:47:04.
