data_PCOD9473282
_publ_section_title
;
Structure prediction by ZEFSAII (Michael W. Deem and Ramdas Pophale) SiO2 
 PCOD9473282
Probable space group: C M C M
;
_chemical_formula_sum "Si O2"
_cell_formula_units_Z 76
_cell_length_a 10.372517
_cell_length_b 14.862098
_cell_length_c 27.704476
_cell_angle_alpha 90.000000
_cell_angle_beta 90.000000
_cell_angle_gamma 90.000000
_cell_volume 4270.848996
_symmetry_space_group_name_H-M "C M C M"
_symmetry_group_IT_number 63
_symmetry_cell_setting 'orthorhombic'
loop_
_space_group_symop_operation_xyz
x,y,z
-x,-y,1/2+z
x,-y,-z
-x,y,1/2-z
-x,-y,-z
x,y,1/2-z
-x,y,z
x,-y,1/2+z
1/2+x,1/2+y,z
1/2-x,1/2-y,1/2+z
1/2+x,1/2-y,-z
1/2-x,1/2+y,1/2-z
1/2-x,1/2-y,-z
1/2+x,1/2+y,1/2-z
1/2-x,1/2+y,z
1/2+x,1/2-y,1/2+z
loop_
_atom_site_type_symbol
_atom_site_label
_atom_site_fract_x
_atom_site_fract_y
_atom_site_fract_z
Si Si1 0.500000 0.806337 0.055607
Si Si2 0.500000 0.915888 0.250000
Si Si3 0.847199 0.131042 0.194261
Si Si4 0.000000 0.495585 0.910865
Si Si5 0.000000 0.294275 0.944465
Si Si6 0.788991 0.451690 0.333949
Si Si7 0.756365 0.768554 0.383234
O O1 0.500000 0.915190 0.056602
O O2 0.373584 0.776192 0.084929
O O3 0.500000 0.771838 0.001043
O O4 0.387343 0.920272 0.292311
O O5 0.818921 0.154755 0.250000
O O6 0.769438 0.194265 0.157840
O O7 0.000000 0.143811 0.186634
O O8 0.806394 0.028032 0.185473
O O9 0.000000 0.402072 0.938282
O O10 0.123759 0.503423 0.875902
O O11 0.125321 0.256866 0.917213
O O12 0.723551 0.364141 0.356945
#
# Coordination Sequence:
#
# PCOD9473282 Si02
#       7
#     8   4  16   8   8  16  16
#     4  10  22  43  63  87 120 165 205 251 317 369
#     4  10  20  36  68  82 116 166 210 240 300 358
#     4  11  23  38  61  86 122 165 199 238 302 370
#     4   9  19  37  63  86 115 154 201 256 296 352
#     4  12  22  39  65  92 120 155 207 268 305 352
#     4  10  21  38  59  87 124 156 197 248 300 355
#     4  11  24  40  62  92 123 159 203 252 304 366
#
# _framework density 17.795057
#
# number of rings (size 3 to 8) (size 9 to 14) (size 15 to 20)
#    0.000    1.474    4.211    1.579    2.947    0.000 
#    0.000    0.000    0.000    1.263    0.000    0.000 
#    0.000    0.000    0.000    0.000    0.000    0.000 
#
# Total GULP energy -211663.104509 kJ/mol
# GULP energy per Si atom -5570.081698 kJ/mol
# Density = 1.775455 g / cm^3
# Si number density = 17.795057 Si / 1000 Ang^3
#
#
#
# Elastic Constant Matrix: (Units=GPa)
#
#
# Indices 1 2 3 4 5 6 
#
# 1 64.0258 28.1088 27.4796 0.0000 0.0000 0.0000
# 2 28.1088 78.3180 38.8865 0.0000 0.0000 0.0000
# 3 27.4796 38.8865 110.4862 0.0000 0.0000 0.0000
# 4 0.0000 0.0000 0.0000 11.5443 0.0000 0.0000
# 5 0.0000 0.0000 0.0000 0.0000 24.0150 0.0000
# 6 0.0000 0.0000 0.0000 0.0000 0.0000 20.9694
#
#
#
# Elastic Compliance Matrix: (Units=1/GPa)
#
#
# Indices 1 2 3 4 5 6 
#
# 1 0.019256 -0.005493 -0.002856 0.000000 0.000000 0.000000
# 2 -0.005493 0.017039 -0.004631 0.000000 0.000000 0.000000
# 3 -0.002856 -0.004631 0.011391 0.000000 0.000000 0.000000
# 4 0.000000 0.000000 0.000000 0.086623 0.000000 0.000000
# 5 0.000000 0.000000 0.000000 0.000000 0.041641 0.000000
# 6 0.000000 0.000000 0.000000 0.000000 0.000000 0.047689
#
#
# Mechanical properties :
#
#
# Convention : Reuss Voigt Hill
#
# Bulk Modulus (GPa) = 46.02652 49.08664 47.55658
# Shear Modulus (GPa) = 19.46733 21.86275 20.66504
#
# Velocity S-wave (km/s) = 3.31112 3.50892 3.41145
# Velocity P-wave (km/s) = 6.36702 6.63785 6.50384
#
# Compressibility (1/GPa) = 0.02172660
#
# Stress axis : x y z
#
# Youngs Moduli (GPa) = 51.93177 58.68797 87.78777
#
# Poissons Ratio (x) = 0.32238 0.25072
# Poissons Ratio (y) = 0.28526 0.40654
# Poissons Ratio (z) = 0.14831 0.27178
#
# Static dielectric constant tensor:
#      x y z
#    x 1.574660 0.000000 0.000000 
#    y 0.000000 1.612340 0.000000 
#    z 0.000000 0.000000 1.592260 
# 
# From -- ./inp_files/68149.got.cif
#   From: 2010.05.17/outbox.cif.g08.bks.cpg/sg63_35_cif.got.tgz:68149.got - 2010.06.03 15:47:04.
