data_PCOD9473474
_publ_section_title
;
Structure prediction by ZEFSAII (Michael W. Deem and Ramdas Pophale) SiO2 
 PCOD9473474
Probable space group: C M C M
;
_chemical_formula_sum "Si O2"
_cell_formula_units_Z 80
_cell_length_a 18.308663
_cell_length_b 9.892430
_cell_length_c 23.576402
_cell_angle_alpha 90.000000
_cell_angle_beta 90.000000
_cell_angle_gamma 90.000000
_cell_volume 4270.091141
_symmetry_space_group_name_H-M "C M C M"
_symmetry_group_IT_number 63
_symmetry_cell_setting 'orthorhombic'
loop_
_space_group_symop_operation_xyz
x,y,z
-x,-y,1/2+z
x,-y,-z
-x,y,1/2-z
-x,-y,-z
x,y,1/2-z
-x,y,z
x,-y,1/2+z
1/2+x,1/2+y,z
1/2-x,1/2-y,1/2+z
1/2+x,1/2-y,-z
1/2-x,1/2+y,1/2-z
1/2-x,1/2-y,-z
1/2+x,1/2+y,1/2-z
1/2-x,1/2+y,z
1/2+x,1/2-y,1/2+z
loop_
_atom_site_type_symbol
_atom_site_label
_atom_site_fract_x
_atom_site_fract_y
_atom_site_fract_z
Si Si1 0.368639 0.890149 0.927529
Si Si2 0.584791 0.196953 0.544228
Si Si3 0.714943 0.307072 0.887932
Si Si4 0.779885 0.929756 0.185053
Si Si5 0.583842 0.238849 0.187441
O O1 0.282940 0.852009 0.927535
O O2 0.396938 0.856815 0.864784
O O3 0.388506 0.044795 0.940479
O O4 0.406002 0.799277 0.976125
O O5 0.500000 0.214768 0.559324
O O6 0.640633 0.294429 0.576796
O O7 0.732872 0.165201 0.856858
O O8 0.714565 0.420659 0.839424
O O9 0.753027 0.927790 0.250000
O O10 0.859878 0.862021 0.184310
O O11 0.594145 0.174851 0.250000
O O12 0.500000 0.281809 0.183079
#
# Coordination Sequence:
#
# PCOD9473474 Si02
#       5
#    16  16  16  16  16
#     4  10  20  38  60  83 119 161 201 240 293 360
#     4  11  22  37  60  89 122 159 198 247 303 351
#     4  11  21  39  59  90 118 154 206 246 290 359
#     4  10  21  37  60  85 117 159 198 244 297 356
#     4   9  18  34  57  84 113 150 196 244 299 357
#
# _framework density 18.734963
#
# number of rings (size 3 to 8) (size 9 to 14) (size 15 to 20)
#    0.000    1.800    2.000    3.600    0.000    1.600 
#    0.000    0.000    0.000    9.000    0.000    0.000 
#    0.000    0.000    0.000    0.000    0.000    0.000 
#
# Total GULP energy -223156.022289 kJ/mol
# GULP energy per Si atom -5578.900557 kJ/mol
# Density = 1.869232 g / cm^3
# Si number density = 18.734963 Si / 1000 Ang^3
#
#
#
# Elastic Constant Matrix: (Units=GPa)
#
#
# Indices 1 2 3 4 5 6 
#
# 1 138.5138 10.9714 48.0317 0.0000 0.0000 0.0000
# 2 10.9714 39.7459 23.9329 0.0000 0.0000 0.0000
# 3 48.0317 23.9329 93.1901 0.0000 0.0000 0.0000
# 4 0.0000 0.0000 0.0000 -43.9643 0.0000 0.0000
# 5 0.0000 0.0000 0.0000 0.0000 28.0777 0.0000
# 6 0.0000 0.0000 0.0000 0.0000 0.0000 7.6043
#
#
#
# Elastic Compliance Matrix: (Units=1/GPa)
#
#
# Indices 1 2 3 4 5 6 
#
# 1 0.008795 0.000357 -0.004625 0.000000 0.000000 0.000000
# 2 0.000357 0.029777 -0.007831 0.000000 0.000000 0.000000
# 3 -0.004625 -0.007831 0.015126 0.000000 0.000000 0.000000
# 4 0.000000 0.000000 0.000000 -0.022746 0.000000 0.000000
# 5 0.000000 0.000000 0.000000 0.000000 0.035615 0.000000
# 6 0.000000 0.000000 0.000000 0.000000 0.000000 0.131505
#
#
# Mechanical properties :
#
#
# Convention : Reuss Voigt Hill
#
# Bulk Modulus (GPa) = 33.89890 48.59131 41.24511
# Shear Modulus (GPa) = 21.54214 10.91112 16.22663
#
# Velocity S-wave (km/s) = 3.39460 2.41590 2.94618
# Velocity P-wave (km/s) = 5.78771 5.81159 5.79966
#
# Compressibility (1/GPa) = 0.02949948
#
# Stress axis : x y z
#
# Youngs Moduli (GPa) = 113.70206 33.58315 66.11296
#
# Poissons Ratio (x) = -0.01199 0.30576
# Poissons Ratio (y) = -0.04060 0.51775
# Poissons Ratio (z) = 0.52584 0.26300
#
# Static dielectric constant tensor:
#      x y z
#    x 1.654240 0.000000 0.000000 
#    y 0.000000 1.633010 0.000000 
#    z 0.000000 0.000000 1.688440 
# 
# From -- ./inp_files/69734.got.cif
#   From: 2010.05.17/outbox.cif.g08.bks.cpg/sg63_35_cif.got.tgz:69734.got - 2010.06.03 15:47:04.
