data_PCOD9473441
_publ_section_title
;
Structure prediction by ZEFSAII (Michael W. Deem and Ramdas Pophale) SiO2 
 PCOD9473441
Probable space group: C M C M
;
_chemical_formula_sum "Si O2"
_cell_formula_units_Z 64
_cell_length_a 9.555013
_cell_length_b 23.736050
_cell_length_c 15.034096
_cell_angle_alpha 90.000000
_cell_angle_beta 90.000000
_cell_angle_gamma 90.000000
_cell_volume 3409.706908
_symmetry_space_group_name_H-M "C M C M"
_symmetry_group_IT_number 63
_symmetry_cell_setting 'orthorhombic'
loop_
_space_group_symop_operation_xyz
x,y,z
-x,-y,1/2+z
x,-y,-z
-x,y,1/2-z
-x,-y,-z
x,y,1/2-z
-x,y,z
x,-y,1/2+z
1/2+x,1/2+y,z
1/2-x,1/2-y,1/2+z
1/2+x,1/2-y,-z
1/2-x,1/2+y,1/2-z
1/2-x,1/2-y,-z
1/2+x,1/2+y,1/2-z
1/2-x,1/2+y,z
1/2+x,1/2-y,1/2+z
loop_
_atom_site_type_symbol
_atom_site_label
_atom_site_fract_x
_atom_site_fract_y
_atom_site_fract_z
Si Si1 0.500000 0.252298 0.250000
Si Si2 0.500000 0.070847 0.250000
Si Si3 0.791342 0.928804 0.356029
Si Si4 0.751043 0.337345 0.750000
Si Si5 0.000000 0.027692 0.356611
Si Si6 0.500000 0.335818 0.416545
Si Si7 0.500000 0.653471 0.389160
Si Si8 0.000000 0.476116 0.401440
O O1 0.639788 0.214073 0.250000
O O2 0.500000 0.290134 0.338690
O O3 0.642480 0.108719 0.250000
O O4 0.500000 0.029050 0.334072
O O5 0.806852 0.920677 0.250000
O O6 0.867471 0.876959 0.402214
O O7 0.633773 0.937899 0.382889
O O8 0.869248 0.987711 0.376625
O O9 0.641805 0.336309 0.832556
O O10 0.000000 0.086141 0.407120
O O11 0.000000 0.040911 0.250000
O O12 0.500000 0.314510 0.517432
O O13 0.000000 0.500000 0.500000
#
# Coordination Sequence:
#
# PCOD9473441 Si02
#       8
#     4   4  16   8   8   8   8   8
#     4  11  24  50  64  84 114 162 196 269 318 356
#     4  11  22  42  58  86 130 178 194 249 294 360
#     4  10  20  38  56  90 123 176 199 234 285 367
#     4  10  24  42  68  86 118 154 212 254 318 348
#     4   9  17  32  61  84 125 156 200 228 286 354
#     4  11  24  40  68  86 124 156 207 246 305 360
#     4  11  22  39  65 100 114 150 198 259 297 373
#     4  12  25  33  56  90 137 162 203 242 297 346
#
# _framework density 18.769942
#
# number of rings (size 3 to 8) (size 9 to 14) (size 15 to 20)
#    0.000    1.500    3.750    2.250    7.000    2.000 
#    0.000    2.500    0.000    0.000    0.000    0.000 
#    0.000    0.000    0.000    0.000    0.000    0.000 
#
# Total GULP energy -178744.952690 kJ/mol
# GULP energy per Si atom -5585.779772 kJ/mol
# Density = 1.872722 g / cm^3
# Si number density = 18.769942 Si / 1000 Ang^3
#
#
#
# Elastic Constant Matrix: (Units=GPa)
#
#
# Indices 1 2 3 4 5 6 
#
# 1 177.5478 52.6841 48.5932 0.0000 0.0000 0.0000
# 2 52.6841 80.5779 42.4729 0.0000 0.0000 0.0000
# 3 48.5932 42.4729 136.0188 0.0000 0.0000 0.0000
# 4 0.0000 0.0000 0.0000 10.2181 0.0000 0.0000
# 5 0.0000 0.0000 0.0000 0.0000 9.4556 0.0000
# 6 0.0000 0.0000 0.0000 0.0000 0.0000 5.4793
#
#
#
# Elastic Compliance Matrix: (Units=1/GPa)
#
#
# Indices 1 2 3 4 5 6 
#
# 1 0.007179 -0.004001 -0.001316 0.000000 0.000000 0.000000
# 2 -0.004001 0.017085 -0.003906 0.000000 0.000000 0.000000
# 3 -0.001316 -0.003906 0.009042 0.000000 0.000000 0.000000
# 4 0.000000 0.000000 0.000000 0.097866 0.000000 0.000000
# 5 0.000000 0.000000 0.000000 0.000000 0.105757 0.000000
# 6 0.000000 0.000000 0.000000 0.000000 0.000000 0.182506
#
#
# Mechanical properties :
#
#
# Convention : Reuss Voigt Hill
#
# Bulk Modulus (GPa) = 67.28610 75.73830 71.51220
# Shear Modulus (GPa) = 11.29096 21.72355 16.50725
#
# Velocity S-wave (km/s) = 2.45530 3.40569 2.96877
# Velocity P-wave (km/s) = 6.63051 7.47686 7.06636
#
# Compressibility (1/GPa) = 0.01486191
#
# Stress axis : x y z
#
# Youngs Moduli (GPa) = 139.28558 58.53168 110.60105
#
# Poissons Ratio (x) = 0.23417 0.14551
# Poissons Ratio (y) = 0.55724 0.43196
# Poissons Ratio (z) = 0.18325 0.22860
#
# Static dielectric constant tensor:
#      x y z
#    x 1.663610 0.000000 0.000000 
#    y 0.000000 1.609070 0.000000 
#    z 0.000000 0.000000 1.697130 
# 
# From -- ./inp_files/27856.got.cif
#   From: 2010.05.17/outbox.cif.g08.bks.cpg/sg63_14_cif.got.tgz:27856.got - 2010.06.03 15:47:04.
