data_PCOD9473194
_publ_section_title
;
Structure prediction by ZEFSAII (Michael W. Deem and Ramdas Pophale) SiO2 
 PCOD9473194
Probable space group: C M C M
;
_chemical_formula_sum "Si O2"
_cell_formula_units_Z 64
_cell_length_a 14.501783
_cell_length_b 14.768536
_cell_length_c 15.576895
_cell_angle_alpha 90.000000
_cell_angle_beta 90.000000
_cell_angle_gamma 90.000000
_cell_volume 3336.105227
_symmetry_space_group_name_H-M "C M C M"
_symmetry_group_IT_number 63
_symmetry_cell_setting 'orthorhombic'
loop_
_space_group_symop_operation_xyz
x,y,z
-x,-y,1/2+z
x,-y,-z
-x,y,1/2-z
-x,-y,-z
x,y,1/2-z
-x,y,z
x,-y,1/2+z
1/2+x,1/2+y,z
1/2-x,1/2-y,1/2+z
1/2+x,1/2-y,-z
1/2-x,1/2+y,1/2-z
1/2-x,1/2-y,-z
1/2+x,1/2+y,1/2-z
1/2-x,1/2+y,z
1/2+x,1/2-y,1/2+z
loop_
_atom_site_type_symbol
_atom_site_label
_atom_site_fract_x
_atom_site_fract_y
_atom_site_fract_z
Si Si1 0.290129 0.097887 0.348727
Si Si2 0.110496 0.593635 0.847857
Si Si3 0.105565 0.089032 0.442017
Si Si4 0.608975 0.785120 0.989067
O O1 0.306713 0.121972 0.250000
O O2 0.182218 0.088327 0.368910
O O3 0.333420 0.170287 0.413373
O O4 0.338732 0.000974 0.365404
O O5 0.132954 0.622628 0.750000
O O6 0.000000 0.578790 0.851479
O O7 0.133779 0.666211 0.920836
O O8 0.122310 0.178380 0.499255
O O9 0.000000 0.094519 0.410147
O O10 0.115094 0.000000 0.500000
O O11 0.500000 0.801809 0.973903
#
# Coordination Sequence:
#
# PCOD9473194 Si02
#       4
#    16  16  16  16
#     4  11  22  35  56  85 116 147 179 222 276 336
#     4   9  18  33  56  87 116 140 173 224 287 345
#     4  10  22  40  58  76 105 149 197 237 270 311
#     4  10  20  36  60  85 111 144 181 227 280 332
#
# _framework density 19.184047
#
# number of rings (size 3 to 8) (size 9 to 14) (size 15 to 20)
#    0.000    2.000    0.000    3.750    0.000    5.000 
#    0.000    6.250    0.000    4.500    0.000    0.000 
#    0.000    0.000    0.000    0.000    0.000    0.000 
#
# Total GULP energy -178808.107938 kJ/mol
# GULP energy per Si atom -5587.753373 kJ/mol
# Density = 1.914038 g / cm^3
# Si number density = 19.184047 Si / 1000 Ang^3
#
#
#
# Elastic Constant Matrix: (Units=GPa)
#
#
# Indices 1 2 3 4 5 6 
#
# 1 71.0659 53.3516 54.5446 0.0000 0.0000 0.0000
# 2 53.3516 131.4767 82.4778 0.0000 0.0000 0.0000
# 3 54.5446 82.4778 94.1660 0.0000 0.0000 0.0000
# 4 0.0000 0.0000 0.0000 4.4449 0.0000 0.0000
# 5 0.0000 0.0000 0.0000 0.0000 28.7876 0.0000
# 6 0.0000 0.0000 0.0000 0.0000 0.0000 -16.1294
#
#
#
# Elastic Compliance Matrix: (Units=1/GPa)
#
#
# Indices 1 2 3 4 5 6 
#
# 1 0.025676 -0.002417 -0.012755 0.000000 0.000000 0.000000
# 2 -0.002417 0.017109 -0.013585 0.000000 0.000000 0.000000
# 3 -0.012755 -0.013585 0.029907 0.000000 0.000000 0.000000
# 4 0.000000 0.000000 0.000000 0.224976 0.000000 0.000000
# 5 0.000000 0.000000 0.000000 0.000000 0.034737 0.000000
# 6 0.000000 0.000000 0.000000 0.000000 0.000000 -0.061999
#
#
# Mechanical properties :
#
#
# Convention : Reuss Voigt Hill
#
# Bulk Modulus (GPa) = 65.89196 75.27295 70.58246
# Shear Modulus (GPa) = 15.01587 10.50962 12.76274
#
# Velocity S-wave (km/s) = 2.80076 2.34312 2.58210
# Velocity P-wave (km/s) = 6.69932 6.82955 6.76475
#
# Compressibility (1/GPa) = 0.01517636
#
# Stress axis : x y z
#
# Youngs Moduli (GPa) = 38.94637 58.44835 33.43713
#
# Poissons Ratio (x) = 0.14130 0.42650
# Poissons Ratio (y) = 0.09415 0.45425
# Poissons Ratio (z) = 0.49677 0.79403
#
# Static dielectric constant tensor:
#      x y z
#    x 1.687890 0.000000 0.000000 
#    y 0.000000 1.646430 0.000000 
#    z 0.000000 0.000000 1.632060 
# 
# From -- ./inp_files/31087.got.cif
#   From: 2010.05.17/outbox.cif.g08.bks.cpg/sg63_16_cif.got.tgz:31087.got - 2010.06.03 15:47:04.
