data_PCOD9473277
_publ_section_title
;
Structure prediction by ZEFSAII (Michael W. Deem and Ramdas Pophale) SiO2 
 PCOD9473277
Probable space group: C M C M
;
_chemical_formula_sum "Si O2"
_cell_formula_units_Z 68
_cell_length_a 7.493622
_cell_length_b 33.633543
_cell_length_c 14.467450
_cell_angle_alpha 90.000000
_cell_angle_beta 90.000000
_cell_angle_gamma 90.000000
_cell_volume 3646.333531
_symmetry_space_group_name_H-M "C M C M"
_symmetry_group_IT_number 63
_symmetry_cell_setting 'orthorhombic'
loop_
_space_group_symop_operation_xyz
x,y,z
-x,-y,1/2+z
x,-y,-z
-x,y,1/2-z
-x,-y,-z
x,y,1/2-z
-x,y,z
x,-y,1/2+z
1/2+x,1/2+y,z
1/2-x,1/2-y,1/2+z
1/2+x,1/2-y,-z
1/2-x,1/2+y,1/2-z
1/2-x,1/2-y,-z
1/2+x,1/2+y,1/2-z
1/2-x,1/2+y,z
1/2+x,1/2-y,1/2+z
loop_
_atom_site_type_symbol
_atom_site_label
_atom_site_fract_x
_atom_site_fract_y
_atom_site_fract_z
Si Si1 0.000000 0.511812 0.750000
Si Si2 0.289176 0.313743 0.973300
Si Si3 0.290592 0.443311 0.750000
Si Si4 0.500000 0.043357 0.547588
Si Si5 0.215644 0.739313 0.855039
Si Si6 0.213840 0.903796 0.947374
O O1 0.169499 0.482281 0.750000
O O2 0.000000 0.537229 0.656986
O O3 0.500000 0.316004 0.954731
O O4 0.263637 0.296383 0.075945
O O5 0.223254 0.358385 0.960555
O O6 0.217461 0.279977 0.903558
O O7 0.500000 0.453796 0.750000
O O8 0.254836 0.417990 0.657765
O O9 0.672665 0.067405 0.512554
O O10 0.500000 0.000000 0.500000
O O11 0.278369 0.735004 0.750000
O O12 0.000000 0.741070 0.853180
O O13 0.000000 0.906323 0.965073
#
# Coordination Sequence:
#
# PCOD9473277 Si02
#       6
#     4  16   8   8  16  16
#     4  12  24  44  60  92 118 158 198 246 304 360
#     4   9  19  35  54  79 115 146 188 239 287 341
#     4  10  20  36  64  92 117 147 197 249 300 356
#     4  12  24  42  66  86 126 156 196 250 300 362
#     4   9  18  33  55  80 109 151 191 231 286 345
#     4  10  22  39  62  91 118 156 197 248 299 352
#
# _framework density 18.648869999999999
#
# number of rings (size 3 to 8) (size 9 to 14) (size 15 to 20)
#    0.000    2.118    2.353    0.000    3.294    1.882 
#    2.118    0.000    0.000    0.000    0.000    0.000 
#    0.000    0.000    0.000    0.000    0.000    0.000 
#
# Total GULP energy -189790.987081 kJ/mol
# GULP energy per Si atom -5582.087855 kJ/mol
# Density = 1.860642 g / cm^3
# Si number density = 18.648870 Si / 1000 Ang^3
#
#
#
# Elastic Constant Matrix: (Units=GPa)
#
#
# Indices 1 2 3 4 5 6 
#
# 1 69.0083 49.6493 35.3159 0.0000 0.0000 0.0000
# 2 49.6493 145.3282 85.8009 0.0000 0.0000 0.0000
# 3 35.3159 85.8009 164.0887 0.0000 0.0000 0.0000
# 4 0.0000 0.0000 0.0000 10.9645 0.0000 0.0000
# 5 0.0000 0.0000 0.0000 0.0000 24.9315 0.0000
# 6 0.0000 0.0000 0.0000 0.0000 0.0000 65.8978
#
#
#
# Elastic Compliance Matrix: (Units=1/GPa)
#
#
# Indices 1 2 3 4 5 6 
#
# 1 0.019332 -0.006000 -0.001023 0.000000 0.000000 0.000000
# 2 -0.006000 0.011816 -0.004887 0.000000 0.000000 0.000000
# 3 -0.001023 -0.004887 0.008870 0.000000 0.000000 0.000000
# 4 0.000000 0.000000 0.000000 0.091204 0.000000 0.000000
# 5 0.000000 0.000000 0.000000 0.000000 0.040110 0.000000
# 6 0.000000 0.000000 0.000000 0.000000 0.000000 0.015175
#
#
# Mechanical properties :
#
#
# Convention : Reuss Voigt Hill
#
# Bulk Modulus (GPa) = 61.74161 79.99530 70.86845
# Shear Modulus (GPa) = 23.17748 34.20269 28.69008
#
# Velocity S-wave (km/s) = 3.52921 4.28721 3.92654
# Velocity P-wave (km/s) = 7.05595 8.21557 7.65774
#
# Compressibility (1/GPa) = 0.01619653
#
# Stress axis : x y z
#
# Youngs Moduli (GPa) = 51.72861 84.62877 112.73995
#
# Poissons Ratio (x) = 0.50780 0.11534
# Poissons Ratio (y) = 0.31039 0.55099
# Poissons Ratio (z) = 0.05292 0.41360
#
# Static dielectric constant tensor:
#      x y z
#    x 1.672740 0.000000 0.000000 
#    y 0.000000 1.622160 0.000000 
#    z 0.000000 0.000000 1.618590 
# 
# From -- ./inp_files/27794.got.cif
#   From: 2010.05.17/outbox.cif.g08.bks.cpg/sg63_14_cif.got.tgz:27794.got - 2010.06.03 15:47:04.
