data_PCOD9473076
_publ_section_title
;
Structure prediction by ZEFSAII (Michael W. Deem and Ramdas Pophale) SiO2 
 PCOD9473076
Probable space group: C M C M
;
_chemical_formula_sum "Si O2"
_cell_formula_units_Z 96
_cell_length_a 28.553386
_cell_length_b 10.144367
_cell_length_c 15.632636
_cell_angle_alpha 90.000000
_cell_angle_beta 90.000000
_cell_angle_gamma 90.000000
_cell_volume 4528.087230
_symmetry_space_group_name_H-M "C M C M"
_symmetry_group_IT_number 63
_symmetry_cell_setting 'orthorhombic'
loop_
_space_group_symop_operation_xyz
x,y,z
-x,-y,1/2+z
x,-y,-z
-x,y,1/2-z
-x,-y,-z
x,y,1/2-z
-x,y,z
x,-y,1/2+z
1/2+x,1/2+y,z
1/2-x,1/2-y,1/2+z
1/2+x,1/2-y,-z
1/2-x,1/2+y,1/2-z
1/2-x,1/2-y,-z
1/2+x,1/2+y,1/2-z
1/2-x,1/2+y,z
1/2+x,1/2-y,1/2+z
loop_
_atom_site_type_symbol
_atom_site_label
_atom_site_fract_x
_atom_site_fract_y
_atom_site_fract_z
Si Si1 0.946838 0.360339 0.452698
Si Si2 0.298019 0.269395 0.885684
Si Si3 0.354338 0.521828 0.895640
Si Si4 0.139395 0.538832 0.654634
Si Si5 0.550894 0.611494 0.927472
Si Si6 0.692865 0.790024 0.911757
O O1 0.949677 0.500000 0.500000
O O2 0.903891 0.381884 0.387906
O O3 0.936151 0.244823 0.521052
O O4 0.000000 0.331872 0.418495
O O5 0.331890 0.389309 0.861144
O O6 0.316491 0.137436 0.842661
O O7 0.244553 0.314102 0.874312
O O8 0.302851 0.233610 0.986588
O O9 0.407068 0.558513 0.870264
O O10 0.324547 0.650920 0.875609
O O11 0.354069 0.500000 0.000000
O O12 0.125712 0.498485 0.750000
O O13 0.157191 0.409227 0.605026
O O14 0.500000 0.630764 0.886517
O O15 0.546283 0.500000 0.000000
#
# Coordination Sequence:
#
# PCOD9473076 Si02
#       6
#    16  16  16  16  16  16
#     4  10  20  36  59  82 105 139 186 235 275 318
#     4  10  20  36  58  81 105 140 187 234 274 319
#     4   9  16  29  52  78 103 129 171 233 281 313
#     4  12  24  36  53  80 118 154 180 218 275 342
#     4   9  16  27  48  78 105 127 160 216 276 319
#     4  10  20  36  58  80 104 139 188 236 273 316
#
# _framework density 21.201006
#
# number of rings (size 3 to 8) (size 9 to 14) (size 15 to 20)
#    0.000    2.000    0.000    6.500    0.000    3.667 
#    0.000    0.833    0.000    0.000    0.000    0.000 
#    0.000   29.333    0.000    0.000    0.000    0.000 
#
# Total GULP energy -267820.241969 kJ/mol
# GULP energy per Si atom -5579.588374 kJ/mol
# Density = 2.115275 g / cm^3
# Si number density = 21.201006 Si / 1000 Ang^3
#
#
#
# Elastic Constant Matrix: (Units=GPa)
#
#
# Indices 1 2 3 4 5 6 
#
# 1 152.2334 42.7547 28.9807 0.0000 0.0000 0.0000
# 2 42.7547 136.1067 2.9878 0.0000 0.0000 0.0000
# 3 28.9807 2.9878 20.2139 0.0000 0.0000 0.0000
# 4 0.0000 0.0000 0.0000 -9.6028 0.0000 0.0000
# 5 0.0000 0.0000 0.0000 0.0000 1.7728 0.0000
# 6 0.0000 0.0000 0.0000 0.0000 0.0000 39.9451
#
#
#
# Elastic Compliance Matrix: (Units=1/GPa)
#
#
# Indices 1 2 3 4 5 6 
#
# 1 0.010023 -0.002842 -0.013949 0.000000 0.000000 0.000000
# 2 -0.002842 0.008177 0.002866 0.000000 0.000000 0.000000
# 3 -0.013949 0.002866 0.069046 0.000000 0.000000 0.000000
# 4 0.000000 0.000000 0.000000 -0.104136 0.000000 0.000000
# 5 0.000000 0.000000 0.000000 0.000000 0.564084 0.000000
# 6 0.000000 0.000000 0.000000 0.000000 0.000000 0.025034
#
#
# Mechanical properties :
#
#
# Convention : Reuss Voigt Hill
#
# Bulk Modulus (GPa) = 16.83633 50.88894 33.86263
# Shear Modulus (GPa) = 8.06611 22.01173 15.03892
#
# Velocity S-wave (km/s) = 1.95265 3.22567 2.66625
# Velocity P-wave (km/s) = 3.61142 6.15861 5.04830
#
# Compressibility (1/GPa) = 0.05939537
#
# Stress axis : x y z
#
# Youngs Moduli (GPa) = 99.77421 122.29336 14.48302
#
# Poissons Ratio (x) = 0.34758 0.20203
# Poissons Ratio (y) = 0.28357 -0.04151
# Poissons Ratio (z) = 1.39179 -0.35052
#
# Static dielectric constant tensor:
#      x y z
#    x 1.844860 0.000000 0.000000 
#    y 0.000000 1.725910 0.000000 
#    z 0.000000 0.000000 1.796760 
# 
# From -- ./inp_files/65343.got.cif
#   From: 2010.05.17/outbox.cif.g08.bks.cpg/sg63_33_cif.got.tgz:65343.got - 2010.06.03 15:47:04.
