data_PCOD9473670
_publ_section_title
;
Structure prediction by ZEFSAII (Michael W. Deem and Ramdas Pophale) SiO2 
 PCOD9473670
Probable space group: C M C M
;
_chemical_formula_sum "Si O2"
_cell_formula_units_Z 88
_cell_length_a 28.889385
_cell_length_b 9.507940
_cell_length_c 17.019979
_cell_angle_alpha 90.000000
_cell_angle_beta 90.000000
_cell_angle_gamma 90.000000
_cell_volume 4675.022969
_symmetry_space_group_name_H-M "C M C M"
_symmetry_group_IT_number 63
_symmetry_cell_setting 'orthorhombic'
loop_
_space_group_symop_operation_xyz
x,y,z
-x,-y,1/2+z
x,-y,-z
-x,y,1/2-z
-x,-y,-z
x,y,1/2-z
-x,y,z
x,-y,1/2+z
1/2+x,1/2+y,z
1/2-x,1/2-y,1/2+z
1/2+x,1/2-y,-z
1/2-x,1/2+y,1/2-z
1/2-x,1/2-y,-z
1/2+x,1/2+y,1/2-z
1/2-x,1/2+y,z
1/2+x,1/2-y,1/2+z
loop_
_atom_site_type_symbol
_atom_site_label
_atom_site_fract_x
_atom_site_fract_y
_atom_site_fract_z
Si Si1 0.170900 0.438793 0.342535
Si Si2 0.000000 0.689248 0.878770
Si Si3 0.926290 0.817666 0.250000
Si Si4 0.596980 0.844836 0.460772
Si Si5 0.500000 0.937959 0.750000
Si Si6 0.000000 0.066352 0.250000
Si Si7 0.237023 0.125093 0.940713
Si Si8 0.643411 0.257959 0.386318
O O1 0.172927 0.412157 0.250000
O O2 0.131165 0.350184 0.386317
O O3 0.219373 0.408467 0.385435
O O4 0.157055 0.600604 0.358683
O O5 0.045870 0.690549 0.931783
O O6 0.000000 0.545829 0.824553
O O7 0.000000 0.826362 0.823282
O O8 0.956746 0.671882 0.250000
O O9 0.893578 0.816055 0.174402
O O10 0.957416 0.957063 0.250000
O O11 0.619728 0.749653 0.528071
O O12 0.595743 0.000000 0.500000
O O13 0.191396 0.159687 0.891733
O O14 0.250000 0.250000 0.000000
O O15 0.227300 0.000000 0.000000
#
# Coordination Sequence:
#
# PCOD9473670 Si02
#       8
#    16   8   8  16   4   4  16  16
#     4  11  22  38  66  99 135 168 220 274 324 383
#     4  11  23  39  69 101 131 164 222 271 335 382
#     4  11  24  46  66  92 134 176 226 261 334 394
#     4  10  21  38  64 102 132 170 218 275 321 388
#     4  10  20  40  70  94 124 178 210 272 318 380
#     4  10  28  46  60  98 146 170 200 294 342 392
#     4  12  23  44  64  93 133 176 217 269 328 382
#     4  11  23  41  68  93 129 177 220 269 321 394
#
# _framework density 18.823436999999998
#
# number of rings (size 3 to 8) (size 9 to 14) (size 15 to 20)
#    0.000    1.091    4.545    3.000    3.818    2.909 
#    0.000    0.909    0.000    0.000    0.000    0.000 
#    0.000    0.000    0.000    0.000    0.000    0.000 
#
# Total GULP energy -245832.442493 kJ/mol
# GULP energy per Si atom -5587.100966 kJ/mol
# Density = 1.878059 g / cm^3
# Si number density = 18.823437 Si / 1000 Ang^3
#
#
#
# Elastic Constant Matrix: (Units=GPa)
#
#
# Indices 1 2 3 4 5 6 
#
# 1 152.1081 13.4342 50.9747 0.0000 0.0000 0.0000
# 2 13.4342 57.6827 9.9983 0.0000 0.0000 0.0000
# 3 50.9747 9.9983 114.2616 0.0000 0.0000 0.0000
# 4 0.0000 0.0000 0.0000 12.4819 0.0000 0.0000
# 5 0.0000 0.0000 0.0000 0.0000 73.9646 0.0000
# 6 0.0000 0.0000 0.0000 0.0000 0.0000 33.8846
#
#
#
# Elastic Compliance Matrix: (Units=1/GPa)
#
#
# Indices 1 2 3 4 5 6 
#
# 1 0.007816 -0.001235 -0.003379 0.000000 0.000000 0.000000
# 2 -0.001235 0.017798 -0.001007 0.000000 0.000000 0.000000
# 3 -0.003379 -0.001007 0.010347 0.000000 0.000000 0.000000
# 4 0.000000 0.000000 0.000000 0.080116 0.000000 0.000000
# 5 0.000000 0.000000 0.000000 0.000000 0.013520 0.000000
# 6 0.000000 0.000000 0.000000 0.000000 0.000000 0.029512
#
#
# Mechanical properties :
#
#
# Convention : Reuss Voigt Hill
#
# Bulk Modulus (GPa) = 40.45104 52.54075 46.49590
# Shear Modulus (GPa) = 27.99723 40.70923 34.35323
#
# Velocity S-wave (km/s) = 3.86082 4.65552 4.27667
# Velocity P-wave (km/s) = 6.43513 7.54132 7.01008
#
# Compressibility (1/GPa) = 0.02472124
#
# Stress axis : x y z
#
# Youngs Moduli (GPa) = 127.94958 56.18538 96.64413
#
# Poissons Ratio (x) = 0.06937 0.32653
# Poissons Ratio (y) = 0.15797 0.09728
# Poissons Ratio (z) = 0.43230 0.05656
#
# Static dielectric constant tensor:
#      x y z
#    x 1.629590 0.000000 0.000000 
#    y 0.000000 1.636870 0.000000 
#    z 0.000000 0.000000 1.629520 
# 
# From -- ./inp_files/49536.got.cif
#   From: 2010.05.17/outbox.cif.g08.bks.cpg/sg63_25_cif.got.tgz:49536.got - 2010.06.03 15:47:04.
