data_PCOD9473827
_publ_section_title
;
Structure prediction by ZEFSAII (Michael W. Deem and Ramdas Pophale) SiO2 
 PCOD9473827
Probable space group: C M C M
;
_chemical_formula_sum "Si O2"
_cell_formula_units_Z 88
_cell_length_a 14.032617
_cell_length_b 13.458892
_cell_length_c 26.038148
_cell_angle_alpha 90.000000
_cell_angle_beta 90.000000
_cell_angle_gamma 90.000000
_cell_volume 4917.655158
_symmetry_space_group_name_H-M "C M C M"
_symmetry_group_IT_number 63
_symmetry_cell_setting 'orthorhombic'
loop_
_space_group_symop_operation_xyz
x,y,z
-x,-y,1/2+z
x,-y,-z
-x,y,1/2-z
-x,-y,-z
x,y,1/2-z
-x,y,z
x,-y,1/2+z
1/2+x,1/2+y,z
1/2-x,1/2-y,1/2+z
1/2+x,1/2-y,-z
1/2-x,1/2+y,1/2-z
1/2-x,1/2-y,-z
1/2+x,1/2+y,1/2-z
1/2-x,1/2+y,z
1/2+x,1/2-y,1/2+z
loop_
_atom_site_type_symbol
_atom_site_label
_atom_site_fract_x
_atom_site_fract_y
_atom_site_fract_z
Si Si1 0.301803 0.183212 0.379878
Si Si2 0.000000 0.006236 0.561217
Si Si3 0.000000 0.758105 0.422714
Si Si4 0.500000 0.884961 0.476934
Si Si5 0.833299 0.362852 0.107861
Si Si6 0.295821 0.476609 0.559740
Si Si7 0.610769 0.022560 0.190237
O O1 0.403183 0.231674 0.392816
O O2 0.214429 0.259608 0.375219
O O3 0.273781 0.113279 0.427831
O O4 0.321295 0.108110 0.332877
O O5 0.000000 0.123696 0.570613
O O6 0.000000 0.000000 0.500000
O O7 0.097518 0.956635 0.579388
O O8 0.000000 0.692945 0.475599
O O9 0.590593 0.865096 0.439134
O O10 0.500000 0.000000 0.500000
O O11 0.744668 0.427409 0.087691
O O12 0.875971 0.424797 0.155350
O O13 0.297869 0.500000 0.500000
O O14 0.629963 0.004170 0.250000
O O15 0.500000 0.054002 0.184847
#
# Coordination Sequence:
#
# PCOD9473827 Si02
#       7
#    16   8   8   8  16  16  16
#     4  11  23  37  60  88 113 151 199 240 291 344
#     4  10  22  36  50  78 119 160 196 228 272 329
#     4  12  22  38  58  83 119 163 199 231 275 339
#     4  12  24  36  56  87 129 161 200 241 279 334
#     4  11  22  37  58  90 113 153 198 241 288 343
#     4  10  21  35  53  80 121 158 192 233 276 336
#     4  10  21  42  65  84 111 146 189 247 308 357
#
# _framework density 17.894708000000001
#
# number of rings (size 3 to 8) (size 9 to 14) (size 15 to 20)
#    0.000    1.273    3.636    3.818    5.091    2.182 
#    0.000    0.000    0.000    0.000    0.000    3.818 
#    0.000    0.000    0.000    0.000    0.000    0.000 
#
# Total GULP energy -245334.092754 kJ/mol
# GULP energy per Si atom -5575.774835 kJ/mol
# Density = 1.785398 g / cm^3
# Si number density = 17.894708 Si / 1000 Ang^3
#
#
#
# Elastic Constant Matrix: (Units=GPa)
#
#
# Indices 1 2 3 4 5 6 
#
# 1 81.5761 5.5588 18.1824 0.0000 0.0000 0.0000
# 2 5.5588 69.3800 22.7840 0.0000 0.0000 0.0000
# 3 18.1824 22.7840 86.3345 0.0000 0.0000 0.0000
# 4 0.0000 0.0000 0.0000 13.8248 0.0000 0.0000
# 5 0.0000 0.0000 0.0000 0.0000 19.0945 0.0000
# 6 0.0000 0.0000 0.0000 0.0000 0.0000 19.8150
#
#
#
# Elastic Compliance Matrix: (Units=1/GPa)
#
#
# Indices 1 2 3 4 5 6 
#
# 1 0.012864 -0.000154 -0.002668 0.000000 0.000000 0.000000
# 2 -0.000154 0.015783 -0.004133 0.000000 0.000000 0.000000
# 3 -0.002668 -0.004133 0.013235 0.000000 0.000000 0.000000
# 4 0.000000 0.000000 0.000000 0.072334 0.000000 0.000000
# 5 0.000000 0.000000 0.000000 0.000000 0.052371 0.000000
# 6 0.000000 0.000000 0.000000 0.000000 0.000000 0.050467
#
#
# Mechanical properties :
#
#
# Convention : Reuss Voigt Hill
#
# Bulk Modulus (GPa) = 35.75103 36.70456 36.22780
# Shear Modulus (GPa) = 20.80832 23.26455 22.03644
#
# Velocity S-wave (km/s) = 3.41371 3.60957 3.51301
# Velocity P-wave (km/s) = 5.96321 6.15857 6.06168
#
# Compressibility (1/GPa) = 0.02797122
#
# Stress axis : x y z
#
# Youngs Moduli (GPa) = 77.73771 63.35979 75.55464
#
# Poissons Ratio (x) = 0.00978 0.20161
# Poissons Ratio (y) = 0.01200 0.31224
# Poissons Ratio (z) = 0.20744 0.26184
#
# Static dielectric constant tensor:
#      x y z
#    x 1.650750 0.000000 0.000000 
#    y 0.000000 1.659220 0.000000 
#    z 0.000000 0.000000 1.588530 
# 
# From -- ./inp_files/62740.got.cif
#   From: 2010.05.17/outbox.cif.g08.bks.cpg/sg63_32_cif.got.tgz:62740.got - 2010.06.03 15:47:04.
