data_PCOD9473459
_publ_section_title
;
Structure prediction by ZEFSAII (Michael W. Deem and Ramdas Pophale) SiO2 
 PCOD9473459
Probable space group: C M C M
;
_chemical_formula_sum "Si O2"
_cell_formula_units_Z 116
_cell_length_a 7.234623
_cell_length_b 29.418893
_cell_length_c 21.978542
_cell_angle_alpha 90.000000
_cell_angle_beta 90.000000
_cell_angle_gamma 90.000000
_cell_volume 4677.794194
_symmetry_space_group_name_H-M "C M C M"
_symmetry_group_IT_number 63
_symmetry_cell_setting 'orthorhombic'
loop_
_space_group_symop_operation_xyz
x,y,z
-x,-y,1/2+z
x,-y,-z
-x,y,1/2-z
-x,-y,-z
x,y,1/2-z
-x,y,z
x,-y,1/2+z
1/2+x,1/2+y,z
1/2-x,1/2-y,1/2+z
1/2+x,1/2-y,-z
1/2-x,1/2+y,1/2-z
1/2-x,1/2-y,-z
1/2+x,1/2+y,1/2-z
1/2-x,1/2+y,z
1/2+x,1/2-y,1/2+z
loop_
_atom_site_type_symbol
_atom_site_label
_atom_site_fract_x
_atom_site_fract_y
_atom_site_fract_z
Si Si1 0.223648 0.636800 0.684266
Si Si2 0.206370 0.051435 0.131756
Si Si3 0.000000 0.755341 0.250000
Si Si4 0.777924 0.311972 0.059226
Si Si5 0.723793 0.641079 0.316770
Si Si6 0.713644 0.052601 0.615820
Si Si7 0.724789 0.100567 0.006473
Si Si8 0.774286 0.233631 0.136910
O O1 0.296564 0.651734 0.750000
O O2 0.273763 0.663876 0.623621
O O3 0.282121 0.584839 0.669977
O O4 0.000000 0.640195 0.687775
O O5 0.295692 0.090578 0.172442
O O6 0.000000 0.044338 0.155052
O O7 0.280059 0.000884 0.125608
O O8 0.204515 0.076599 0.066764
O O9 0.837603 0.752382 0.304881
O O10 0.714183 0.347682 0.008196
O O11 0.724123 0.260305 0.074741
O O12 0.000000 0.312197 0.054248
O O13 0.780646 0.657292 0.250000
O O14 0.500000 0.638363 0.317973
O O15 0.773849 0.680126 0.364097
O O16 0.500000 0.065325 0.611734
O O17 0.786919 0.069668 0.550952
O O18 0.500000 0.099739 0.010882
O O19 0.000000 0.238046 0.145843
#
# Coordination Sequence:
#
# PCOD9473459 Si02
#       8
#    16  16   4  16  16  16  16  16
#     4   8  14  25  47  77 104 130 175 221 261 319
#     4  11  22  34  53  78 102 135 181 223 274 331
#     4  12  22  32  56  94 116 140 198 232 262 334
#     4   8  16  31  56  80 102 143 183 215 267 332
#     4   9  19  38  58  75 102 144 181 218 269 330
#     4   9  18  33  51  74 103 137 176 223 268 319
#     4   9  18  36  56  78 105 136 181 225 268 328
#     4  10  20  38  59  81 116 154 184 227 279 325
#
# _framework density 24.798013000000001
#
# number of rings (size 3 to 8) (size 9 to 14) (size 15 to 20)
#    0.000    2.759    0.690    2.690    0.966    2.759 
#    3.724    0.690    1.517    0.000    0.000    0.000 
#    0.000    0.000    0.000    0.000    0.000    0.000 
#
# Total GULP energy -323098.183327 kJ/mol
# GULP energy per Si atom -5570.658333 kJ/mol
# Density = 2.474157 g / cm^3
# Si number density = 24.798013 Si / 1000 Ang^3
#
#
#
# Elastic Constant Matrix: (Units=GPa)
#
#
# Indices 1 2 3 4 5 6 
#
# 1 129.2412 -14.0743 -13.5176 0.0000 0.0000 0.0000
# 2 -14.0743 96.5981 7.4739 0.0000 0.0000 0.0000
# 3 -13.5176 7.4739 47.1576 0.0000 0.0000 0.0000
# 4 0.0000 0.0000 0.0000 27.5653 0.0000 0.0000
# 5 0.0000 0.0000 0.0000 0.0000 -0.5915 0.0000
# 6 0.0000 0.0000 0.0000 0.0000 0.0000 -25.5447
#
#
#
# Elastic Compliance Matrix: (Units=1/GPa)
#
#
# Indices 1 2 3 4 5 6 
#
# 1 0.008073 0.001010 0.002154 0.000000 0.000000 0.000000
# 2 0.001010 0.010607 -0.001392 0.000000 0.000000 0.000000
# 3 0.002154 -0.001392 0.022043 0.000000 0.000000 0.000000
# 4 0.000000 0.000000 0.000000 0.036277 0.000000 0.000000
# 5 0.000000 0.000000 0.000000 0.000000 -1.690610 0.000000
# 6 0.000000 0.000000 0.000000 0.000000 0.000000 -0.039147
#
#
# Mechanical properties :
#
#
# Convention : Reuss Voigt Hill
#
# Bulk Modulus (GPa) = 22.59025 25.86230 24.22627
# Shear Modulus (GPa) = -3.04591 19.82683 8.39046
#
# Velocity S-wave (km/s) = -1.10948 2.83067 1.84143
# Velocity P-wave (km/s) = 2.73646 4.59733 3.78309
#
# Compressibility (1/GPa) = 0.04426689
#
# Stress axis : x y z
#
# Youngs Moduli (GPa) = 123.87420 94.27793 45.36489
#
# Poissons Ratio (x) = -0.09518 -0.09772
# Poissons Ratio (y) = -0.12506 0.06313
# Poissons Ratio (z) = -0.26683 0.13120
#
# Static dielectric constant tensor:
#      x y z
#    x 2.529590 0.000000 0.000000 
#    y 0.000000 2.009070 0.000000 
#    z 0.000000 0.000000 1.946080 
# 
# From -- ./inp_files/67690.got.cif
#   From: 2010.05.17/outbox.cif.g08.bks.cpg/sg63_34_cif.got.tgz:67690.got - 2010.06.03 15:47:04.
