data_PCOD9473801
_publ_section_title
;
Structure prediction by ZEFSAII (Michael W. Deem and Ramdas Pophale) SiO2 
 PCOD9473801
Probable space group: C M C M
;
_chemical_formula_sum "Si O2"
_cell_formula_units_Z 116
_cell_length_a 18.007346
_cell_length_b 28.593570
_cell_length_c 13.991733
_cell_angle_alpha 90.000000
_cell_angle_beta 90.000000
_cell_angle_gamma 90.000000
_cell_volume 7204.263686
_symmetry_space_group_name_H-M "C M C M"
_symmetry_group_IT_number 63
_symmetry_cell_setting 'orthorhombic'
loop_
_space_group_symop_operation_xyz
x,y,z
-x,-y,1/2+z
x,-y,-z
-x,y,1/2-z
-x,-y,-z
x,y,1/2-z
-x,y,z
x,-y,1/2+z
1/2+x,1/2+y,z
1/2-x,1/2-y,1/2+z
1/2+x,1/2-y,-z
1/2-x,1/2+y,1/2-z
1/2-x,1/2-y,-z
1/2+x,1/2+y,1/2-z
1/2-x,1/2+y,z
1/2+x,1/2-y,1/2+z
loop_
_atom_site_type_symbol
_atom_site_label
_atom_site_fract_x
_atom_site_fract_y
_atom_site_fract_z
Si Si1 0.410699 0.684818 0.637571
Si Si2 0.084514 0.044186 0.138624
Si Si3 0.333454 0.612058 0.496453
Si Si4 0.862718 0.479317 0.895867
Si Si5 0.304999 0.874762 0.865295
Si Si6 0.289452 0.533526 0.857440
Si Si7 0.500000 0.010306 0.250000
Si Si8 0.416135 0.792335 0.634397
O O1 0.391085 0.677541 0.750000
O O2 0.500000 0.678442 0.630772
O O3 0.368847 0.650541 0.565789
O O4 0.395027 0.739007 0.611264
O O5 0.092222 0.059051 0.250000
O O6 0.104695 0.085383 0.066226
O O7 0.000000 0.027966 0.124601
O O8 0.143936 0.003012 0.123904
O O9 0.271970 0.629667 0.421705
O O10 0.294229 0.573611 0.564131
O O11 0.842782 0.424258 0.891757
O O12 0.787764 0.505746 0.861899
O O13 0.934033 0.488227 0.831596
O O14 0.877011 0.500000 0.000000
O O15 0.294408 0.874390 0.750000
O O16 0.358851 0.832218 0.894187
O O17 0.299585 0.552368 0.750000
O O18 0.419314 0.793917 0.750000
O O19 0.500000 0.801539 0.599192
#
# Coordination Sequence:
#
# PCOD9473801 Si02
#       8
#    16  16  16  16  16  16   4  16
#     4   9  19  37  56  80 108 135 175 228 274 324
#     4  10  21  35  51  75 107 145 190 228 266 316
#     4  12  21  32  54  80 107 148 175 221 268 332
#     4  12  22  39  55  82 111 144 188 224 277 320
#     4  11  21  34  56  80 109 143 180 222 274 325
#     4  11  21  37  54  71 110 151 181 223 270 318
#     4  12  26  36  60  78 114 144 182 248 264 326
#     4   8  17  34  57  78 104 136 172 226 283 323
#
# _framework density 16.101576000000001
#
# number of rings (size 3 to 8) (size 9 to 14) (size 15 to 20)
#    0.000    1.517    4.138    2.690    0.966    2.207 
#    0.000    1.379    0.000    0.000    0.000    0.000 
#    0.000    3.586    0.000    0.000    0.000    0.000 
#
# Total GULP energy -323063.269455 kJ/mol
# GULP energy per Si atom -5570.056370 kJ/mol
# Density = 1.606493 g / cm^3
# Si number density = 16.101576 Si / 1000 Ang^3
#
#
#
# Elastic Constant Matrix: (Units=GPa)
#
#
# Indices 1 2 3 4 5 6 
#
# 1 123.4520 56.1811 49.9059 0.0000 0.0000 0.0000
# 2 56.1811 92.0854 48.6312 0.0000 0.0000 0.0000
# 3 49.9059 48.6312 100.0356 0.0000 0.0000 0.0000
# 4 0.0000 0.0000 0.0000 12.1409 0.0000 0.0000
# 5 0.0000 0.0000 0.0000 0.0000 40.4252 0.0000
# 6 0.0000 0.0000 0.0000 0.0000 0.0000 20.6352
#
#
#
# Elastic Compliance Matrix: (Units=1/GPa)
#
#
# Indices 1 2 3 4 5 6 
#
# 1 0.011952 -0.005574 -0.003253 0.000000 0.000000 0.000000
# 2 -0.005574 0.017210 -0.005586 0.000000 0.000000 0.000000
# 3 -0.003253 -0.005586 0.014335 0.000000 0.000000 0.000000
# 4 0.000000 0.000000 0.000000 0.082366 0.000000 0.000000
# 5 0.000000 0.000000 0.000000 0.000000 0.024737 0.000000
# 6 0.000000 0.000000 0.000000 0.000000 0.000000 0.048461
#
#
# Mechanical properties :
#
#
# Convention : Reuss Voigt Hill
#
# Bulk Modulus (GPa) = 68.15930 69.44550 68.80240
# Shear Modulus (GPa) = 21.47986 25.36392 23.42189
#
# Velocity S-wave (km/s) = 3.65639 3.97324 3.81810
# Velocity P-wave (km/s) = 7.76198 8.01699 7.89051
#
# Compressibility (1/GPa) = 0.01467151
#
# Stress axis : x y z
#
# Youngs Moduli (GPa) = 83.66853 58.10566 69.76095
#
# Poissons Ratio (x) = 0.32388 0.22692
# Poissons Ratio (y) = 0.46637 0.38966
# Poissons Ratio (z) = 0.27216 0.32456
#
# Static dielectric constant tensor:
#      x y z
#    x 1.533970 0.000000 0.000000 
#    y 0.000000 1.529040 0.000000 
#    z 0.000000 0.000000 1.576660 
# 
# From -- ./inp_files/34511.got.cif
#   From: 2010.05.17/outbox.cif.g08.bks.cpg/sg63_18_cif.got.tgz:34511.got - 2010.06.03 15:47:04.
