data_PCOD9473729
_publ_section_title
;
Structure prediction by ZEFSAII (Michael W. Deem and Ramdas Pophale) SiO2 
 PCOD9473729
Probable space group: C M C M
;
_chemical_formula_sum "Si O2"
_cell_formula_units_Z 116
_cell_length_a 17.516358
_cell_length_b 15.782463
_cell_length_c 20.247634
_cell_angle_alpha 90.000000
_cell_angle_beta 90.000000
_cell_angle_gamma 90.000000
_cell_volume 5597.484175
_symmetry_space_group_name_H-M "C M C M"
_symmetry_group_IT_number 63
_symmetry_cell_setting 'orthorhombic'
loop_
_space_group_symop_operation_xyz
x,y,z
-x,-y,1/2+z
x,-y,-z
-x,y,1/2-z
-x,-y,-z
x,y,1/2-z
-x,y,z
x,-y,1/2+z
1/2+x,1/2+y,z
1/2-x,1/2-y,1/2+z
1/2+x,1/2-y,-z
1/2-x,1/2+y,1/2-z
1/2-x,1/2-y,-z
1/2+x,1/2+y,1/2-z
1/2-x,1/2+y,z
1/2+x,1/2-y,1/2+z
loop_
_atom_site_type_symbol
_atom_site_label
_atom_site_fract_x
_atom_site_fract_y
_atom_site_fract_z
Si Si1 0.622776 0.571253 0.849854
Si Si2 0.086612 0.533773 0.925095
Si Si3 0.181047 0.314216 0.447653
Si Si4 0.500000 0.363036 0.250000
Si Si5 0.216918 0.479688 0.675017
Si Si6 0.416119 0.610197 0.377731
Si Si7 0.787385 0.208628 0.176530
Si Si8 0.165754 0.863249 0.489749
O O1 0.569398 0.631783 0.806628
O O2 0.710871 0.544319 0.833139
O O3 0.583239 0.479486 0.841968
O O4 0.624474 0.604593 0.924733
O O5 0.107995 0.633008 0.927246
O O6 0.150689 0.495397 0.877368
O O7 0.000000 0.518638 0.902478
O O8 0.092637 0.500000 0.000000
O O9 0.223630 0.272840 0.383905
O O10 0.159347 0.237348 0.495761
O O11 0.243458 0.375171 0.481247
O O12 0.188989 0.490522 0.750000
O O13 0.245055 0.381913 0.668412
O O14 0.500000 0.636880 0.397477
O O15 0.375124 0.679692 0.333070
O O16 0.366475 0.596080 0.443837
O O17 0.772026 0.241886 0.250000
#
# Coordination Sequence:
#
# PCOD9473729 Si02
#       8
#    16  16  16   4  16  16  16  16
#     4  11  21  36  58  89 132 171 205 249 308 386
#     4  11  26  44  67  95 126 169 222 287 335 379
#     4  10  22  41  64  93 122 157 217 274 327 385
#     4  12  24  36  54  96 142 172 212 246 310 388
#     4  10  21  40  67  94 125 168 215 257 319 394
#     4  10  21  33  56  89 127 162 203 243 303 376
#     4   9  21  38  63  94 126 164 205 253 319 392
#     4  10  22  36  58  90 117 168 208 264 318 379
#
# _framework density 20.723596000000001
#
# number of rings (size 3 to 8) (size 9 to 14) (size 15 to 20)
#    0.000    1.793    2.759    0.414    9.655    3.862 
#    1.241    0.000    0.000    0.000    0.000    0.000 
#    0.000    0.000    0.000    0.000    0.000    0.000 
#
# Total GULP energy -323000.246531 kJ/mol
# GULP energy per Si atom -5568.969768 kJ/mol
# Density = 2.067643 g / cm^3
# Si number density = 20.723596 Si / 1000 Ang^3
#
#
#
# Elastic Constant Matrix: (Units=GPa)
#
#
# Indices 1 2 3 4 5 6 
#
# 1 121.3451 14.0087 48.2579 0.0000 0.0000 0.0000
# 2 14.0087 39.1577 7.8326 0.0000 0.0000 0.0000
# 3 48.2579 7.8326 97.1234 0.0000 0.0000 0.0000
# 4 0.0000 0.0000 0.0000 14.1556 0.0000 0.0000
# 5 0.0000 0.0000 0.0000 0.0000 47.1423 0.0000
# 6 0.0000 0.0000 0.0000 0.0000 0.0000 10.7646
#
#
#
# Elastic Compliance Matrix: (Units=1/GPa)
#
#
# Indices 1 2 3 4 5 6 
#
# 1 0.010559 -0.002773 -0.005023 0.000000 0.000000 0.000000
# 2 -0.002773 0.026685 -0.000774 0.000000 0.000000 0.000000
# 3 -0.005023 -0.000774 0.012854 0.000000 0.000000 0.000000
# 4 0.000000 0.000000 0.000000 0.070644 0.000000 0.000000
# 5 0.000000 0.000000 0.000000 0.000000 0.021212 0.000000
# 6 0.000000 0.000000 0.000000 0.000000 0.000000 0.092897
#
#
# Mechanical properties :
#
#
# Convention : Reuss Voigt Hill
#
# Bulk Modulus (GPa) = 30.34159 44.20276 37.27218
# Shear Modulus (GPa) = 19.01318 26.91429 22.96374
#
# Velocity S-wave (km/s) = 3.03225 3.60770 3.33242
# Velocity P-wave (km/s) = 5.18963 6.22334 5.72984
#
# Compressibility (1/GPa) = 0.03295806
#
# Stress axis : x y z
#
# Youngs Moduli (GPa) = 94.71038 37.47480 77.79545
#
# Poissons Ratio (x) = 0.10391 0.39074
# Poissons Ratio (y) = 0.26260 0.06024
# Poissons Ratio (z) = 0.47569 0.02902
#
# Static dielectric constant tensor:
#      x y z
#    x 1.757680 0.000000 0.000000 
#    y 0.000000 1.775370 0.000000 
#    z 0.000000 0.000000 1.766900 
# 
# From -- ./inp_files/45936.got.cif
#   From: 2010.05.17/outbox.cif.g08.bks.cpg/sg63_23_cif.got.tgz:45936.got - 2010.06.03 15:47:04.
