data_PCOD9473643
_publ_section_title
;
Structure prediction by ZEFSAII (Michael W. Deem and Ramdas Pophale) SiO2 
 PCOD9473643
Probable space group: C M C M
;
_chemical_formula_sum "Si O2"
_cell_formula_units_Z 64
_cell_length_a 22.854234
_cell_length_b 8.763195
_cell_length_c 16.175665
_cell_angle_alpha 90.000000
_cell_angle_beta 90.000000
_cell_angle_gamma 90.000000
_cell_volume 3239.599249
_symmetry_space_group_name_H-M "C M C M"
_symmetry_group_IT_number 63
_symmetry_cell_setting 'orthorhombic'
loop_
_space_group_symop_operation_xyz
x,y,z
-x,-y,1/2+z
x,-y,-z
-x,y,1/2-z
-x,-y,-z
x,y,1/2-z
-x,y,z
x,-y,1/2+z
1/2+x,1/2+y,z
1/2-x,1/2-y,1/2+z
1/2+x,1/2-y,-z
1/2-x,1/2+y,1/2-z
1/2-x,1/2-y,-z
1/2+x,1/2+y,1/2-z
1/2-x,1/2+y,z
1/2+x,1/2-y,1/2+z
loop_
_atom_site_type_symbol
_atom_site_label
_atom_site_fract_x
_atom_site_fract_y
_atom_site_fract_z
Si Si1 0.621951 0.000000 0.500000
Si Si2 0.106466 0.000000 0.000000
Si Si3 0.662167 0.720272 0.750000
Si Si4 0.197539 0.754544 0.569423
Si Si5 0.772314 0.110484 0.250000
Si Si6 0.564618 0.748119 0.887633
O O1 0.664786 0.906923 0.438766
O O2 0.581751 0.883844 0.550425
O O3 0.150206 0.121037 0.041111
O O4 0.066543 0.909553 0.063046
O O5 0.702605 0.870071 0.750000
O O6 0.699219 0.559789 0.750000
O O7 0.618911 0.729403 0.826745
O O8 0.250000 0.750000 0.500000
O O9 0.212731 0.801972 0.663464
O O10 0.500000 0.773434 0.851839
#
# Coordination Sequence:
#
# PCOD9473643 Si02
#       6
#     8   8   8  16   8  16
#     4  10  24  40  66 100 130 175 229 270 352 408
#     4  10  20  40  62  96 126 171 231 268 338 404
#     4  12  27  42  67 101 130 181 222 283 349 405
#     4  11  23  39  64  96 141 177 221 279 342 418
#     4  12  26  42  67  97 141 177 226 283 349 413
#     4  11  23  44  67  94 133 177 230 280 334 404
#
# _framework density 19.75553
#
# number of rings (size 3 to 8) (size 9 to 14) (size 15 to 20)
#    0.000    1.000    2.500    4.875    7.000    0.000 
#    0.000    0.000    0.000    0.000    0.000    0.000 
#    0.000    0.000    0.000    0.000    0.000    0.000 
#
# Total GULP energy -178503.549134 kJ/mol
# GULP energy per Si atom -5578.235910 kJ/mol
# Density = 1.971057 g / cm^3
# Si number density = 19.755530 Si / 1000 Ang^3
#
#
#
# Elastic Constant Matrix: (Units=GPa)
#
#
# Indices 1 2 3 4 5 6 
#
# 1 145.0297 47.7272 44.3628 0.0000 0.0000 0.0000
# 2 47.7272 94.3526 29.7112 0.0000 0.0000 0.0000
# 3 44.3628 29.7112 99.9480 0.0000 0.0000 0.0000
# 4 0.0000 0.0000 0.0000 26.1265 0.0000 0.0000
# 5 0.0000 0.0000 0.0000 0.0000 -29.2709 0.0000
# 6 0.0000 0.0000 0.0000 0.0000 0.0000 11.8378
#
#
#
# Elastic Compliance Matrix: (Units=1/GPa)
#
#
# Indices 1 2 3 4 5 6 
#
# 1 0.008978 -0.003626 -0.002907 0.000000 0.000000 0.000000
# 2 -0.003626 0.013157 -0.002302 0.000000 0.000000 0.000000
# 3 -0.002907 -0.002302 0.011980 0.000000 0.000000 0.000000
# 4 0.000000 0.000000 0.000000 0.038275 0.000000 0.000000
# 5 0.000000 0.000000 0.000000 0.000000 -0.034164 0.000000
# 6 0.000000 0.000000 0.000000 0.000000 0.000000 0.084475
#
#
# Mechanical properties :
#
#
# Convention : Reuss Voigt Hill
#
# Bulk Modulus (GPa) = 60.80714 64.77030 62.78872
# Shear Modulus (GPa) = 34.28116 16.24061 25.26089
#
# Velocity S-wave (km/s) = 4.17018 2.87030 3.57973
# Velocity P-wave (km/s) = 7.35077 6.62132 6.99556
#
# Compressibility (1/GPa) = 0.01644544
#
# Stress axis : x y z
#
# Youngs Moduli (GPa) = 111.38923 76.00242 83.47412
#
# Poissons Ratio (x) = 0.27557 0.24265
# Poissons Ratio (y) = 0.40387 0.19215
# Poissons Ratio (z) = 0.32380 0.17495
#
# Static dielectric constant tensor:
#      x y z
#    x 1.688450 0.000000 0.000000 
#    y 0.000000 1.711300 0.000000 
#    z 0.000000 0.000000 1.842400 
# 
# From -- ./inp_files/36252.got.cif
#   From: 2010.05.17/outbox.cif.g08.bks.cpg/sg63_19_cif.got.tgz:36252.got - 2010.06.03 15:47:04.
