data_PCOD9473298
_publ_section_title
;
Structure prediction by ZEFSAII (Michael W. Deem and Ramdas Pophale) SiO2 
 PCOD9473298
Probable space group: C M C M
;
_chemical_formula_sum "Si O2"
_cell_formula_units_Z 112
_cell_length_a 13.916364
_cell_length_b 30.089759
_cell_length_c 13.788281
_cell_angle_alpha 90.000000
_cell_angle_beta 90.000000
_cell_angle_gamma 90.000000
_cell_volume 5773.705323
_symmetry_space_group_name_H-M "C M C M"
_symmetry_group_IT_number 63
_symmetry_cell_setting 'orthorhombic'
loop_
_space_group_symop_operation_xyz
x,y,z
-x,-y,1/2+z
x,-y,-z
-x,y,1/2-z
-x,-y,-z
x,y,1/2-z
-x,y,z
x,-y,1/2+z
1/2+x,1/2+y,z
1/2-x,1/2-y,1/2+z
1/2+x,1/2-y,-z
1/2-x,1/2+y,1/2-z
1/2-x,1/2-y,-z
1/2+x,1/2+y,1/2-z
1/2-x,1/2+y,z
1/2+x,1/2-y,1/2+z
loop_
_atom_site_type_symbol
_atom_site_label
_atom_site_fract_x
_atom_site_fract_y
_atom_site_fract_z
Si Si1 0.280434 0.683372 0.359951
Si Si2 0.607585 0.245553 0.134794
Si Si3 0.211191 0.582571 0.358850
Si Si4 0.107793 0.020965 0.367762
Si Si5 0.610706 0.660063 0.954601
Si Si6 0.801388 0.927312 0.364970
Si Si7 0.606729 0.050583 0.963301
O O1 0.309022 0.696953 0.250000
O O2 0.196303 0.715532 0.399300
O O3 0.238548 0.633824 0.352882
O O4 0.363721 0.678171 0.438619
O O5 0.604141 0.238050 0.250000
O O6 0.500000 0.234999 0.095660
O O7 0.625925 0.297309 0.114021
O O8 0.184801 0.566899 0.250000
O O9 0.304918 0.554213 0.392360
O O10 0.129683 0.577339 0.438571
O O11 0.105284 0.021871 0.250000
O O12 0.000000 0.032973 0.401132
O O13 0.136121 0.970597 0.395461
O O14 0.500000 0.646687 0.949202
O O15 0.671399 0.617531 0.921428
O O16 0.816315 0.920694 0.250000
O O17 0.691292 0.939546 0.388183
O O18 0.500000 0.059377 0.925974
O O19 0.612795 0.000000 0.000000
#
# Coordination Sequence:
#
# PCOD9473298 Si02
#       7
#    16  16  16  16  16  16  16
#     4  10  21  37  58  84 117 154 193 236 290 350
#     4   9  19  37  61  88 116 148 192 245 295 344
#     4  10  20  37  57  82 114 149 192 237 283 338
#     4   9  18  33  55  82 114 152 191 233 280 334
#     4  11  22  37  60  90 121 155 195 239 292 350
#     4  11  22  39  60  85 118 154 198 243 291 349
#     4  11  23  39  58  82 113 152 198 244 296 348
#
# _framework density 19.398288999999998
#
# number of rings (size 3 to 8) (size 9 to 14) (size 15 to 20)
#    0.000    1.857    2.857    1.286    0.000    3.429 
#    0.000    5.000    0.000    0.000    0.000    2.000 
#    0.000    0.000    0.000    0.000    0.000    0.000 
#
# Total GULP energy -312511.962923 kJ/mol
# GULP energy per Si atom -5580.570766 kJ/mol
# Density = 1.935414 g / cm^3
# Si number density = 19.398289 Si / 1000 Ang^3
#
#
#
# Elastic Constant Matrix: (Units=GPa)
#
#
# Indices 1 2 3 4 5 6 
#
# 1 89.0940 42.7675 -0.6722 0.0000 0.0000 0.0000
# 2 42.7675 68.7270 -0.0910 0.0000 0.0000 0.0000
# 3 -0.6722 -0.0910 33.2584 0.0000 0.0000 0.0000
# 4 0.0000 0.0000 0.0000 17.0445 0.0000 0.0000
# 5 0.0000 0.0000 0.0000 0.0000 21.8639 0.0000
# 6 0.0000 0.0000 0.0000 0.0000 0.0000 29.5387
#
#
#
# Elastic Compliance Matrix: (Units=1/GPa)
#
#
# Indices 1 2 3 4 5 6 
#
# 1 0.016008 -0.009961 0.000296 0.000000 0.000000 0.000000
# 2 -0.009961 0.020749 -0.000145 0.000000 0.000000 0.000000
# 3 0.000296 -0.000145 0.030073 0.000000 0.000000 0.000000
# 4 0.000000 0.000000 0.000000 0.058670 0.000000 0.000000
# 5 0.000000 0.000000 0.000000 0.000000 0.045737 0.000000
# 6 0.000000 0.000000 0.000000 0.000000 0.000000 0.033854
#
#
# Mechanical properties :
#
#
# Convention : Reuss Voigt Hill
#
# Bulk Modulus (GPa) = 21.18144 30.56534 25.87339
# Shear Modulus (GPa) = 20.79461 23.62775 22.21118
#
# Velocity S-wave (km/s) = 3.27767 3.49382 3.38747
# Velocity P-wave (km/s) = 5.02663 5.66274 5.35414
#
# Compressibility (1/GPa) = 0.04721114
#
# Stress axis : x y z
#
# Youngs Moduli (GPa) = 62.46915 48.19578 33.25226
#
# Poissons Ratio (x) = 0.48008 -0.00985
# Poissons Ratio (y) = 0.62226 0.00481
# Poissons Ratio (z) = -0.01851 0.00697
#
# Static dielectric constant tensor:
#      x y z
#    x 1.685500 0.000000 0.000000 
#    y 0.000000 1.657620 0.000000 
#    z 0.000000 0.000000 1.742560 
# 
# From -- ./inp_files/30435.got.cif
#   From: 2010.05.17/outbox.cif.g08.bks.cpg/sg63_16_cif.got.tgz:30435.got - 2010.06.03 15:47:04.
