data_PCOD9473892
_publ_section_title
;
Structure prediction by ZEFSAII (Michael W. Deem and Ramdas Pophale) SiO2 
 PCOD9473892
Probable space group: C M C M
;
_chemical_formula_sum "Si O2"
_cell_formula_units_Z 88
_cell_length_a 22.879943
_cell_length_b 13.227919
_cell_length_c 15.369307
_cell_angle_alpha 90.000000
_cell_angle_beta 90.000000
_cell_angle_gamma 90.000000
_cell_volume 4651.582744
_symmetry_space_group_name_H-M "C M C M"
_symmetry_group_IT_number 63
_symmetry_cell_setting 'orthorhombic'
loop_
_space_group_symop_operation_xyz
x,y,z
-x,-y,1/2+z
x,-y,-z
-x,y,1/2-z
-x,-y,-z
x,y,1/2-z
-x,y,z
x,-y,1/2+z
1/2+x,1/2+y,z
1/2-x,1/2-y,1/2+z
1/2+x,1/2-y,-z
1/2-x,1/2+y,1/2-z
1/2-x,1/2-y,-z
1/2+x,1/2+y,1/2-z
1/2-x,1/2+y,z
1/2+x,1/2-y,1/2+z
loop_
_atom_site_type_symbol
_atom_site_label
_atom_site_fract_x
_atom_site_fract_y
_atom_site_fract_z
Si Si1 0.068725 0.454826 0.596232
Si Si2 0.723473 0.444679 0.750000
Si Si3 0.846771 0.258831 0.250000
Si Si4 0.651756 0.981483 0.250000
Si Si5 0.141169 0.023154 0.602637
Si Si6 0.433763 0.715237 0.912539
Si Si7 0.065898 0.171304 0.117627
O O1 0.079586 0.500000 0.500000
O O2 0.110918 0.504034 0.666494
O O3 0.078013 0.333571 0.601808
O O4 0.000000 0.473853 0.615519
O O5 0.699697 0.330512 0.750000
O O6 0.792881 0.445682 0.750000
O O7 0.695462 0.498449 0.664960
O O8 0.821503 0.369560 0.250000
O O9 0.889378 0.242042 0.331882
O O10 0.114210 0.134215 0.618164
O O11 0.153903 0.000000 0.500000
O O12 0.090689 0.942026 0.626964
O O13 0.500000 0.692917 0.879948
O O14 0.434763 0.698566 0.016430
O O15 0.000000 0.179775 0.150122
#
# Coordination Sequence:
#
# PCOD9473892 Si02
#       7
#    16   8   8   8  16  16  16
#     4  10  22  39  58  84 114 141 177 224 272 327
#     4  10  24  40  55  79 109 142 187 231 264 311
#     4  10  21  36  53  77 106 142 187 229 268 313
#     4  12  25  40  60  80 105 144 186 224 268 322
#     4   9  18  34  55  81 113 146 182 224 269 318
#     4   9  17  31  54  82 113 147 178 217 275 331
#     4   9  16  29  53  84 114 143 177 221 272 324
#
# _framework density 18.918292000000001
#
# number of rings (size 3 to 8) (size 9 to 14) (size 15 to 20)
#    0.000    2.364    0.000    2.182    0.000    8.000 
#    0.000    2.273    0.000    8.727    0.000    0.000 
#    0.000    0.000    0.000    0.000    0.000    0.000 
#
# Total GULP energy -245489.898679 kJ/mol
# GULP energy per Si atom -5579.315879 kJ/mol
# Density = 1.887523 g / cm^3
# Si number density = 18.918292 Si / 1000 Ang^3
#
#
#
# Elastic Constant Matrix: (Units=GPa)
#
#
# Indices 1 2 3 4 5 6 
#
# 1 87.9111 33.9115 45.6132 0.0000 0.0000 0.0000
# 2 33.9115 83.7629 20.0940 0.0000 0.0000 0.0000
# 3 45.6132 20.0940 60.9226 0.0000 0.0000 0.0000
# 4 0.0000 0.0000 0.0000 14.7092 0.0000 0.0000
# 5 0.0000 0.0000 0.0000 0.0000 27.2984 0.0000
# 6 0.0000 0.0000 0.0000 0.0000 0.0000 14.0384
#
#
#
# Elastic Compliance Matrix: (Units=1/GPa)
#
#
# Indices 1 2 3 4 5 6 
#
# 1 0.020348 -0.004977 -0.013593 0.000000 0.000000 0.000000
# 2 -0.004977 0.014182 -0.000951 0.000000 0.000000 0.000000
# 3 -0.013593 -0.000951 0.026905 0.000000 0.000000 0.000000
# 4 0.000000 0.000000 0.000000 0.067985 0.000000 0.000000
# 5 0.000000 0.000000 0.000000 0.000000 0.036632 0.000000
# 6 0.000000 0.000000 0.000000 0.000000 0.000000 0.071233
#
#
# Mechanical properties :
#
#
# Convention : Reuss Voigt Hill
#
# Bulk Modulus (GPa) = 44.65834 47.98156 46.31995
# Shear Modulus (GPa) = 17.61860 20.07440 18.84650
#
# Velocity S-wave (km/s) = 3.05503 3.26100 3.15970
# Velocity P-wave (km/s) = 6.00845 6.29257 6.15215
#
# Compressibility (1/GPa) = 0.02239223
#
# Stress axis : x y z
#
# Youngs Moduli (GPa) = 49.14533 70.51401 37.16756
#
# Poissons Ratio (x) = 0.35095 0.50522
# Poissons Ratio (y) = 0.24460 0.03535
# Poissons Ratio (z) = 0.66803 0.06707
#
# Static dielectric constant tensor:
#      x y z
#    x 1.614430 0.000000 0.000000 
#    y 0.000000 1.667630 0.000000 
#    z 0.000000 0.000000 1.664450 
# 
# From -- ./inp_files/36645.got.cif
#   From: 2010.05.17/outbox.cif.g08.bks.cpg/sg63_19_cif.got.tgz:36645.got - 2010.06.03 15:47:04.
