data_PCOD9473074
_publ_section_title
;
Structure prediction by ZEFSAII (Michael W. Deem and Ramdas Pophale) SiO2 
 PCOD9473074
Probable space group: C M C M
;
_chemical_formula_sum "Si O2"
_cell_formula_units_Z 80
_cell_length_a 8.126903
_cell_length_b 26.308772
_cell_length_c 18.861313
_cell_angle_alpha 90.000000
_cell_angle_beta 90.000000
_cell_angle_gamma 90.000000
_cell_volume 4032.715417
_symmetry_space_group_name_H-M "C M C M"
_symmetry_group_IT_number 63
_symmetry_cell_setting 'orthorhombic'
loop_
_space_group_symop_operation_xyz
x,y,z
-x,-y,1/2+z
x,-y,-z
-x,y,1/2-z
-x,-y,-z
x,y,1/2-z
-x,y,z
x,-y,1/2+z
1/2+x,1/2+y,z
1/2-x,1/2-y,1/2+z
1/2+x,1/2-y,-z
1/2-x,1/2+y,1/2-z
1/2-x,1/2-y,-z
1/2+x,1/2+y,1/2-z
1/2-x,1/2+y,z
1/2+x,1/2-y,1/2+z
loop_
_atom_site_type_symbol
_atom_site_label
_atom_site_fract_x
_atom_site_fract_y
_atom_site_fract_z
Si Si1 0.196883 0.750252 0.830115
Si Si2 0.305028 0.151567 0.086485
Si Si3 0.196350 0.946916 0.831694
Si Si4 0.698769 0.939976 0.331594
Si Si5 0.701742 0.155869 0.575429
O O1 0.262701 0.746483 0.750000
O O2 0.230967 0.804868 0.863937
O O3 0.258146 0.705434 0.881398
O O4 0.000000 0.743900 0.826003
O O5 0.500000 0.159610 0.085101
O O6 0.269294 0.096382 0.118717
O O7 0.242376 0.156135 0.005876
O O8 0.254723 0.940293 0.750000
O O9 0.000000 0.941770 0.831958
O O10 0.242335 0.004134 0.853498
O O11 0.752766 0.931133 0.250000
O O12 0.500000 0.940179 0.331606
O O13 0.753803 0.894825 0.382849
O O14 0.500000 0.155890 0.574785
#
# Coordination Sequence:
#
# PCOD9473074 Si02
#       5
#    16  16  16  16  16
#     4  10  20  36  58  80 104 137 176 216 259 310
#     4  11  22  35  53  78 109 141 174 215 260 309
#     4  10  21  37  55  76 105 140 177 217 261 309
#     4   9  17  33  58  82 103 133 176 220 258 304
#     4   9  19  35  55  80 108 138 172 212 262 315
#
# _framework density 19.83775
#
# number of rings (size 3 to 8) (size 9 to 14) (size 15 to 20)
#    0.000    2.200    0.000    3.000    0.000    7.200 
#    0.000    8.000    0.000    2.400    0.000    0.000 
#    0.000    0.000    0.000    0.000    0.000    0.000 
#
# Total GULP energy -223418.422781 kJ/mol
# GULP energy per Si atom -5585.460570 kJ/mol
# Density = 1.979260 g / cm^3
# Si number density = 19.837750 Si / 1000 Ang^3
#
#
#
# Elastic Constant Matrix: (Units=GPa)
#
#
# Indices 1 2 3 4 5 6 
#
# 1 7.0357 -10.4745 2.0252 0.0000 0.0000 0.0000
# 2 -10.4745 60.8105 22.3829 0.0000 0.0000 0.0000
# 3 2.0252 22.3829 72.8098 0.0000 0.0000 0.0000
# 4 0.0000 0.0000 0.0000 -183.5312 0.0000 0.0000
# 5 0.0000 0.0000 0.0000 0.0000 17.4798 0.0000
# 6 0.0000 0.0000 0.0000 0.0000 0.0000 27.0704
#
#
#
# Elastic Compliance Matrix: (Units=1/GPa)
#
#
# Indices 1 2 3 4 5 6 
#
# 1 0.212949 0.043818 -0.019394 0.000000 0.000000 0.000000
# 2 0.043818 0.027559 -0.009691 0.000000 0.000000 0.000000
# 3 -0.019394 -0.009691 0.017253 0.000000 0.000000 0.000000
# 4 0.000000 0.000000 0.000000 -0.005449 0.000000 0.000000
# 5 0.000000 0.000000 0.000000 0.000000 0.057209 0.000000
# 6 0.000000 0.000000 0.000000 0.000000 0.000000 0.036941
#
#
# Mechanical properties :
#
#
# Convention : Reuss Voigt Hill
#
# Bulk Modulus (GPa) = 3.48155 18.72479 11.10317
# Shear Modulus (GPa) = 12.11425 -19.34803 -3.61689
#
# Velocity S-wave (km/s) = 2.47385 -3.12639 -1.35174
# Velocity P-wave (km/s) = 3.14940 1.89023 1.78126
#
# Compressibility (1/GPa) = 0.28722876
#
# Stress axis : x y z
#
# Youngs Moduli (GPa) = 4.69596 36.28554 57.96101
#
# Poissons Ratio (x) = -1.58998 1.12407
# Poissons Ratio (y) = -0.20577 0.56170
# Poissons Ratio (z) = 0.09107 0.35164
#
# Static dielectric constant tensor:
#      x y z
#    x 1.710190 0.000000 0.000000 
#    y 0.000000 1.654470 0.000000 
#    z 0.000000 0.000000 1.693480 
# 
# From -- ./inp_files/40464.got.cif
#   From: 2010.05.17/outbox.cif.g08.bks.cpg/sg63_21_cif.got.tgz:40464.got - 2010.06.03 15:47:04.
