data_PCOD9473168
_publ_section_title
;
Structure prediction by ZEFSAII (Michael W. Deem and Ramdas Pophale) SiO2 
 PCOD9473168
Probable space group: C M C M
;
_chemical_formula_sum "Si O2"
_cell_formula_units_Z 96
_cell_length_a 8.772430
_cell_length_b 20.832177
_cell_length_c 28.965557
_cell_angle_alpha 90.000000
_cell_angle_beta 90.000000
_cell_angle_gamma 90.000000
_cell_volume 5293.421203
_symmetry_space_group_name_H-M "C M C M"
_symmetry_group_IT_number 63
_symmetry_cell_setting 'orthorhombic'
loop_
_space_group_symop_operation_xyz
x,y,z
-x,-y,1/2+z
x,-y,-z
-x,y,1/2-z
-x,-y,-z
x,y,1/2-z
-x,y,z
x,-y,1/2+z
1/2+x,1/2+y,z
1/2-x,1/2-y,1/2+z
1/2+x,1/2-y,-z
1/2-x,1/2+y,1/2-z
1/2-x,1/2-y,-z
1/2+x,1/2+y,1/2-z
1/2-x,1/2+y,z
1/2+x,1/2-y,1/2+z
loop_
_atom_site_type_symbol
_atom_site_label
_atom_site_fract_x
_atom_site_fract_y
_atom_site_fract_z
Si Si1 0.682437 0.006895 0.053660
Si Si2 0.816504 0.326737 0.697083
Si Si3 0.816933 0.115900 0.895773
Si Si4 0.681360 0.369925 0.604760
Si Si5 0.685411 0.676849 0.801502
Si Si6 0.818105 0.248865 0.551067
O O1 0.500000 0.012771 0.055061
O O2 0.755194 0.069261 0.077071
O O3 0.735469 0.944258 0.081441
O O4 0.729261 0.000000 0.000000
O O5 0.779241 0.344320 0.750000
O O6 0.738465 0.368205 0.657594
O O7 0.772471 0.251542 0.690738
O O8 0.000000 0.330227 0.691899
O O9 0.765280 0.132356 0.843642
O O10 0.788384 0.180251 0.925302
O O11 0.000000 0.104866 0.895518
O O12 0.500000 0.369799 0.603127
O O13 0.745854 0.305780 0.580843
O O14 0.735911 0.657999 0.750000
O O15 0.500000 0.676263 0.801698
O O16 0.750000 0.250000 0.500000
O O17 0.000000 0.258113 0.549593
#
# Coordination Sequence:
#
# PCOD9473168 Si02
#       6
#    16  16  16  16  16  16
#     4  11  25  43  61  80 110 155 203 250 299 352
#     4   9  17  34  61  89 119 156 195 238 291 348
#     4  10  20  36  59  86 115 148 189 237 290 352
#     4  12  24  38  59  87 120 157 198 244 295 353
#     4   8  14  29  56  87 116 148 184 225 282 346
#     4  11  22  37  58  86 118 151 194 245 296 350
#
# _framework density 18.135718000000001
#
# number of rings (size 3 to 8) (size 9 to 14) (size 15 to 20)
#    0.000    1.833    1.667    4.500    0.000    5.667 
#    0.000    0.833    0.000    3.500    0.000    0.000 
#    0.000    0.000    0.000    0.000    0.000    0.000 
#
# Total GULP energy -268093.831277 kJ/mol
# GULP energy per Si atom -5585.288152 kJ/mol
# Density = 1.809444 g / cm^3
# Si number density = 18.135718 Si / 1000 Ang^3
#
#
#
# Elastic Constant Matrix: (Units=GPa)
#
#
# Indices 1 2 3 4 5 6 
#
# 1 37.0927 27.1944 20.5111 0.0000 0.0000 0.0000
# 2 27.1944 69.0169 28.8374 0.0000 0.0000 0.0000
# 3 20.5111 28.8374 117.6716 0.0000 0.0000 0.0000
# 4 0.0000 0.0000 0.0000 32.1522 0.0000 0.0000
# 5 0.0000 0.0000 0.0000 0.0000 21.6934 0.0000
# 6 0.0000 0.0000 0.0000 0.0000 0.0000 27.2359
#
#
#
# Elastic Compliance Matrix: (Units=1/GPa)
#
#
# Indices 1 2 3 4 5 6 
#
# 1 0.039085 -0.013986 -0.003385 0.000000 0.000000 0.000000
# 2 -0.013986 0.021147 -0.002744 0.000000 0.000000 0.000000
# 3 -0.003385 -0.002744 0.009761 0.000000 0.000000 0.000000
# 4 0.000000 0.000000 0.000000 0.031102 0.000000 0.000000
# 5 0.000000 0.000000 0.000000 0.000000 0.046097 0.000000
# 6 0.000000 0.000000 0.000000 0.000000 0.000000 0.036716
#
#
# Mechanical properties :
#
#
# Convention : Reuss Voigt Hill
#
# Bulk Modulus (GPa) = 33.60086 41.87411 37.73749
# Shear Modulus (GPa) = 21.36198 26.03217 23.69708
#
# Velocity S-wave (km/s) = 3.43577 3.79279 3.61869
# Velocity P-wave (km/s) = 5.85722 6.50536 6.18978
#
# Compressibility (1/GPa) = 0.02976115
#
# Stress axis : x y z
#
# Youngs Moduli (GPa) = 25.58507 47.28843 102.44950
#
# Poissons Ratio (x) = 0.66138 0.34683
# Poissons Ratio (y) = 0.35783 0.28117
# Poissons Ratio (z) = 0.08661 0.12978
#
# Static dielectric constant tensor:
#      x y z
#    x 1.604020 0.000000 0.000000 
#    y 0.000000 1.590310 0.000000 
#    z 0.000000 0.000000 1.638780 
# 
# From -- ./inp_files/67008.got.cif
#   From: 2010.05.17/outbox.cif.g08.bks.cpg/sg63_34_cif.got.tgz:67008.got - 2010.06.03 15:47:04.
