data_PCOD9473307
_publ_section_title
;
Structure prediction by ZEFSAII (Michael W. Deem and Ramdas Pophale) SiO2 
 PCOD9473307
Probable space group: C M C M
;
_chemical_formula_sum "Si O2"
_cell_formula_units_Z 112
_cell_length_a 16.845873
_cell_length_b 12.595317
_cell_length_c 29.432781
_cell_angle_alpha 90.000000
_cell_angle_beta 90.000000
_cell_angle_gamma 90.000000
_cell_volume 6245.021294
_symmetry_space_group_name_H-M "C M C M"
_symmetry_group_IT_number 63
_symmetry_cell_setting 'orthorhombic'
loop_
_space_group_symop_operation_xyz
x,y,z
-x,-y,1/2+z
x,-y,-z
-x,y,1/2-z
-x,-y,-z
x,y,1/2-z
-x,y,z
x,-y,1/2+z
1/2+x,1/2+y,z
1/2-x,1/2-y,1/2+z
1/2+x,1/2-y,-z
1/2-x,1/2+y,1/2-z
1/2-x,1/2-y,-z
1/2+x,1/2+y,1/2-z
1/2-x,1/2+y,z
1/2+x,1/2-y,1/2+z
loop_
_atom_site_type_symbol
_atom_site_label
_atom_site_fract_x
_atom_site_fract_y
_atom_site_fract_z
Si Si1 0.595347 0.681779 0.936694
Si Si2 0.328697 0.474295 0.891918
Si Si3 0.404470 0.794605 0.698743
Si Si4 0.095033 0.044681 0.697326
Si Si5 0.648293 0.901488 0.608334
Si Si6 0.908364 0.565739 0.541949
Si Si7 0.406025 0.699357 0.043822
O O1 0.500000 0.679516 0.925999
O O2 0.641151 0.585932 0.912577
O O3 0.630881 0.794200 0.920351
O O4 0.604097 0.670585 0.990886
O O5 0.358800 0.476951 0.839944
O O6 0.235799 0.450225 0.894821
O O7 0.368057 0.383142 0.922152
O O8 0.379380 0.822384 0.750000
O O9 0.500000 0.801430 0.696710
O O10 0.385228 0.670021 0.690938
O O11 0.369884 0.868282 0.659757
O O12 0.111907 0.018098 0.750000
O O13 0.000000 0.034114 0.690399
O O14 0.594192 0.992091 0.585884
O O15 0.871299 0.500000 0.500000
O O16 0.872553 0.681423 0.549663
O O17 0.000000 0.586779 0.528388
O O18 0.500000 0.699033 0.053298
#
# Coordination Sequence:
#
# PCOD9473307 Si02
#       7
#    16  16  16  16  16  16  16
#     4  11  22  42  64  83 114 164 212 247 286 344
#     4  12  25  35  57  90 127 152 190 247 314 354
#     4   9  18  36  64  91 111 146 204 253 287 345
#     4   9  18  36  63  88 111 148 200 247 289 349
#     4  12  24  35  59  87 124 155 191 244 309 353
#     4  10  20  37  58  81 111 156 203 240 284 350
#     4  10  22  39  60  83 115 160 210 247 285 351
#
# _framework density 17.934287000000001
#
# number of rings (size 3 to 8) (size 9 to 14) (size 15 to 20)
#    0.000    1.571    2.857    3.857    2.000    3.429 
#    0.000    0.000    0.000    0.857    0.000    4.000 
#    0.000    0.000    0.000    0.000    0.000    0.000 
#
# Total GULP energy -312543.208545 kJ/mol
# GULP energy per Si atom -5581.128724 kJ/mol
# Density = 1.789347 g / cm^3
# Si number density = 17.934287 Si / 1000 Ang^3
#
#
#
# Elastic Constant Matrix: (Units=GPa)
#
#
# Indices 1 2 3 4 5 6 
#
# 1 59.8541 28.5803 28.1989 0.0000 0.0000 0.0000
# 2 28.5803 83.5918 39.5133 0.0000 0.0000 0.0000
# 3 28.1989 39.5133 88.6203 0.0000 0.0000 0.0000
# 4 0.0000 0.0000 0.0000 34.1113 0.0000 0.0000
# 5 0.0000 0.0000 0.0000 0.0000 -33.4499 0.0000
# 6 0.0000 0.0000 0.0000 0.0000 0.0000 30.2875
#
#
#
# Elastic Compliance Matrix: (Units=1/GPa)
#
#
# Indices 1 2 3 4 5 6 
#
# 1 0.021278 -0.005163 -0.004469 0.000000 0.000000 0.000000
# 2 -0.005163 0.016410 -0.005674 0.000000 0.000000 0.000000
# 3 -0.004469 -0.005674 0.015236 0.000000 0.000000 0.000000
# 4 0.000000 0.000000 0.000000 0.029316 0.000000 0.000000
# 5 0.000000 0.000000 0.000000 0.000000 -0.029895 0.000000
# 6 0.000000 0.000000 0.000000 0.000000 0.000000 0.033017
#
#
# Mechanical properties :
#
#
# Convention : Reuss Voigt Hill
#
# Bulk Modulus (GPa) = 44.81681 47.18347 46.00014
# Shear Modulus (GPa) = 40.51551 15.24136 27.87843
#
# Velocity S-wave (km/s) = 4.75816 2.91837 3.94696
# Velocity P-wave (km/s) = 7.43173 6.14183 6.81735
#
# Compressibility (1/GPa) = 0.02231306
#
# Stress axis : x y z
#
# Youngs Moduli (GPa) = 46.99742 60.93807 65.63424
#
# Poissons Ratio (x) = 0.31460 0.29330
# Poissons Ratio (y) = 0.24263 0.37241
# Poissons Ratio (z) = 0.21002 0.34577
#
# Static dielectric constant tensor:
#      x y z
#    x 1.622160 0.000000 0.000000 
#    y 0.000000 1.620240 0.000000 
#    z 0.000000 0.000000 1.623340 
# 
# From -- ./inp_files/73404.got.cif
#   From: 2010.05.17/outbox.cif.g08.bks.cpg/sg63_37_cif.got.tgz:73404.got - 2010.06.03 15:47:04.
