data_PCOD9473989
_publ_section_title
;
Structure prediction by ZEFSAII (Michael W. Deem and Ramdas Pophale) SiO2 
 PCOD9473989
Probable space group: C M C M
;
_chemical_formula_sum "Si O2"
_cell_formula_units_Z 72
_cell_length_a 9.885120
_cell_length_b 15.295020
_cell_length_c 23.873728
_cell_angle_alpha 90.000000
_cell_angle_beta 90.000000
_cell_angle_gamma 90.000000
_cell_volume 3609.543138
_symmetry_space_group_name_H-M "C M C M"
_symmetry_group_IT_number 63
_symmetry_cell_setting 'orthorhombic'
loop_
_space_group_symop_operation_xyz
x,y,z
-x,-y,1/2+z
x,-y,-z
-x,y,1/2-z
-x,-y,-z
x,y,1/2-z
-x,y,z
x,-y,1/2+z
1/2+x,1/2+y,z
1/2-x,1/2-y,1/2+z
1/2+x,1/2-y,-z
1/2-x,1/2+y,1/2-z
1/2-x,1/2-y,-z
1/2+x,1/2+y,1/2-z
1/2-x,1/2+y,z
1/2+x,1/2-y,1/2+z
loop_
_atom_site_type_symbol
_atom_site_label
_atom_site_fract_x
_atom_site_fract_y
_atom_site_fract_z
Si Si1 0.797859 0.565659 0.907429
Si Si2 0.000000 0.988707 0.067196
Si Si3 0.500000 0.822123 0.022444
Si Si4 0.000000 0.817596 0.885819
Si Si5 0.000000 0.408254 0.908439
Si Si6 0.796219 0.297289 0.183720
Si Si7 0.500000 0.771854 0.814224
O O1 0.638964 0.558777 0.916724
O O2 0.870707 0.472091 0.912805
O O3 0.831152 0.613073 0.848556
O O4 0.869720 0.626300 0.953721
O O5 0.000000 0.080515 0.101136
O O6 0.000000 0.000000 0.000000
O O7 0.500000 0.729702 0.053385
O O8 0.500000 0.834637 0.956537
O O9 0.874287 0.779777 0.849611
O O10 0.000000 0.357537 0.851143
O O11 0.828175 0.297699 0.250000
O O12 0.636647 0.281997 0.176351
O O13 0.500000 0.798812 0.750000
#
# Coordination Sequence:
#
# PCOD9473989 Si02
#       7
#    16   8   8   8   8  16   8
#     4  10  21  36  58  83 113 146 186 231 281 336
#     4  12  23  37  55  88 124 149 182 239 296 341
#     4   9  20  39  58  80 109 152 190 224 272 338
#     4  10  22  38  60  85 112 151 195 230 279 342
#     4  11  20  37  58  80 110 146 187 231 274 331
#     4  10  21  40  60  81 111 150 191 234 281 338
#     4  10  22  37  55  79 110 144 183 228 277 330
#
# _framework density 19.947123000000001
#
# number of rings (size 3 to 8) (size 9 to 14) (size 15 to 20)
#    0.000    1.778    0.000    5.667    0.000    2.667 
#    0.000    7.778    0.000    0.000    0.000    0.000 
#    0.000    0.000    0.000    0.000    0.000    0.000 
#
# Total GULP energy -201071.201722 kJ/mol
# GULP energy per Si atom -5585.311159 kJ/mol
# Density = 1.990172 g / cm^3
# Si number density = 19.947123 Si / 1000 Ang^3
#
#
#
# Elastic Constant Matrix: (Units=GPa)
#
#
# Indices 1 2 3 4 5 6 
#
# 1 140.9100 10.7004 27.3371 0.0000 0.0000 0.0000
# 2 10.7004 18.6143 6.5129 0.0000 0.0000 0.0000
# 3 27.3371 6.5129 60.0157 0.0000 0.0000 0.0000
# 4 0.0000 0.0000 0.0000 20.4134 0.0000 0.0000
# 5 0.0000 0.0000 0.0000 0.0000 19.4154 0.0000
# 6 0.0000 0.0000 0.0000 0.0000 0.0000 -5.2554
#
#
#
# Elastic Compliance Matrix: (Units=1/GPa)
#
#
# Indices 1 2 3 4 5 6 
#
# 1 0.007992 -0.003452 -0.003266 0.000000 0.000000 0.000000
# 2 -0.003452 0.057333 -0.004650 0.000000 0.000000 0.000000
# 3 -0.003266 -0.004650 0.018655 0.000000 0.000000 0.000000
# 4 0.000000 0.000000 0.000000 0.048987 0.000000 0.000000
# 5 0.000000 0.000000 0.000000 0.000000 0.051505 0.000000
# 6 0.000000 0.000000 0.000000 0.000000 0.000000 -0.190280
#
#
# Mechanical properties :
#
#
# Convention : Reuss Voigt Hill
#
# Bulk Modulus (GPa) = 16.32768 34.29340 25.31054
# Shear Modulus (GPa) = 133.89439 18.58067 76.23753
#
# Velocity S-wave (km/s) = 8.20185 3.05535 6.18892
# Velocity P-wave (km/s) = 9.89430 5.44760 7.98666
#
# Compressibility (1/GPa) = 0.06124569
#
# Stress axis : x y z
#
# Youngs Moduli (GPa) = 125.11804 17.44191 53.60633
#
# Poissons Ratio (x) = 0.06020 0.17508
# Poissons Ratio (y) = 0.43187 0.24925
# Poissons Ratio (z) = 0.40863 0.08110
#
# Static dielectric constant tensor:
#      x y z
#    x 1.732590 0.000000 0.000000 
#    y 0.000000 1.674500 0.000000 
#    z 0.000000 0.000000 1.687650 
# 
# From -- ./inp_files/66417.got.cif
#   From: 2010.05.17/outbox.cif.g08.bks.cpg/sg63_34_cif.got.tgz:66417.got - 2010.06.03 15:47:04.
