data_PCOD9473038
_publ_section_title
;
Structure prediction by ZEFSAII (Michael W. Deem and Ramdas Pophale) SiO2 
 PCOD9473038
Probable space group: C M C M
;
_chemical_formula_sum "Si O2"
_cell_formula_units_Z 112
_cell_length_a 18.834759
_cell_length_b 19.291910
_cell_length_c 17.663702
_cell_angle_alpha 90.000000
_cell_angle_beta 90.000000
_cell_angle_gamma 90.000000
_cell_volume 6418.255830
_symmetry_space_group_name_H-M "C M C M"
_symmetry_group_IT_number 63
_symmetry_cell_setting 'orthorhombic'
loop_
_space_group_symop_operation_xyz
x,y,z
-x,-y,1/2+z
x,-y,-z
-x,y,1/2-z
-x,-y,-z
x,y,1/2-z
-x,y,z
x,-y,1/2+z
1/2+x,1/2+y,z
1/2-x,1/2-y,1/2+z
1/2+x,1/2-y,-z
1/2-x,1/2+y,1/2-z
1/2-x,1/2-y,-z
1/2+x,1/2+y,1/2-z
1/2-x,1/2+y,z
1/2+x,1/2-y,1/2+z
loop_
_atom_site_type_symbol
_atom_site_label
_atom_site_fract_x
_atom_site_fract_y
_atom_site_fract_z
Si Si1 0.306914 0.936055 0.058259
Si Si2 0.420232 0.006551 0.160136
Si Si3 0.085378 0.935036 0.665742
Si Si4 0.146244 0.053014 0.928348
Si Si5 0.415679 0.334405 0.532205
Si Si6 0.415518 0.827947 0.659874
Si Si7 0.173863 0.712801 0.016838
O O1 0.227488 0.932008 0.090918
O O2 0.321971 0.864774 0.015137
O O3 0.364530 0.957256 0.119853
O O4 0.307228 0.000000 0.000000
O O5 0.418640 0.995789 0.250000
O O6 0.500000 0.992493 0.131883
O O7 0.406645 0.088819 0.148479
O O8 0.111519 0.920653 0.750000
O O9 0.110447 0.878311 0.604877
O O10 0.000000 0.932795 0.665453
O O11 0.108499 0.010738 0.637728
O O12 0.108545 0.121849 0.958632
O O13 0.144008 0.000000 0.000000
O O14 0.500000 0.331463 0.534204
O O15 0.381728 0.259482 0.529026
O O16 0.403952 0.813635 0.750000
O O17 0.500000 0.812188 0.643867
O O18 0.359809 0.792029 0.602083
O O19 0.250000 0.750000 0.000000
#
# Coordination Sequence:
#
# PCOD9473038 Si02
#       7
#    16  16  16  16  16  16  16
#     4  11  21  36  57  82 115 147 190 241 290 350
#     4   9  19  36  58  85 113 145 192 247 296 346
#     4   9  18  34  58  86 112 145 195 245 287 344
#     4   9  18  33  54  79 108 146 188 233 280 334
#     4  10  20  36  57  81 115 156 194 239 296 350
#     4   9  19  38  63  88 115 152 202 255 302 349
#     4  12  23  38  57  87 123 157 196 241 295 367
#
# _framework density 17.450223000000001
#
# number of rings (size 3 to 8) (size 9 to 14) (size 15 to 20)
#    0.000    2.143    2.857    1.714    0.000    3.714 
#    0.000    4.286    0.000    4.286    0.000    0.000 
#    0.000    0.000    0.000    0.000    0.000    0.000 
#
# Total GULP energy -312017.389068 kJ/mol
# GULP energy per Si atom -5571.739090 kJ/mol
# Density = 1.741051 g / cm^3
# Si number density = 17.450223 Si / 1000 Ang^3
#
#
#
# Elastic Constant Matrix: (Units=GPa)
#
#
# Indices 1 2 3 4 5 6 
#
# 1 76.8268 33.9857 43.5586 0.0000 0.0000 0.0000
# 2 33.9857 98.7285 38.2127 0.0000 0.0000 0.0000
# 3 43.5586 38.2127 86.0165 0.0000 0.0000 0.0000
# 4 0.0000 0.0000 0.0000 20.2394 0.0000 0.0000
# 5 0.0000 0.0000 0.0000 0.0000 18.8654 0.0000
# 6 0.0000 0.0000 0.0000 0.0000 0.0000 26.5992
#
#
#
# Elastic Compliance Matrix: (Units=1/GPa)
#
#
# Indices 1 2 3 4 5 6 
#
# 1 0.019176 -0.003433 -0.008186 0.000000 0.000000 0.000000
# 2 -0.003433 0.012847 -0.003969 0.000000 0.000000 0.000000
# 3 -0.008186 -0.003969 0.017534 0.000000 0.000000 0.000000
# 4 0.000000 0.000000 0.000000 0.049409 0.000000 0.000000
# 5 0.000000 0.000000 0.000000 0.000000 0.053007 0.000000
# 6 0.000000 0.000000 0.000000 0.000000 0.000000 0.037595
#
#
# Mechanical properties :
#
#
# Convention : Reuss Voigt Hill
#
# Bulk Modulus (GPa) = 54.40055 54.78731 54.59393
# Shear Modulus (GPa) = 22.03917 22.86178 22.45047
#
# Velocity S-wave (km/s) = 3.55769 3.62348 3.59073
# Velocity P-wave (km/s) = 6.93676 6.99790 6.96740
#
# Compressibility (1/GPa) = 0.01838217
#
# Stress axis : x y z
#
# Youngs Moduli (GPa) = 52.14902 77.84193 57.03222
#
# Poissons Ratio (x) = 0.26721 0.46684
# Poissons Ratio (y) = 0.17901 0.22635
# Poissons Ratio (z) = 0.42687 0.30893
#
# Static dielectric constant tensor:
#      x y z
#    x 1.607510 0.000000 0.000000 
#    y 0.000000 1.589310 0.000000 
#    z 0.000000 0.000000 1.606760 
# 
# From -- ./inp_files/46128.got.cif
#   From: 2010.05.17/outbox.cif.g08.bks.cpg/sg63_24_cif.got.tgz:46128.got - 2010.06.03 15:47:04.
