data_PCOD9473634
_publ_section_title
;
Structure prediction by ZEFSAII (Michael W. Deem and Ramdas Pophale) SiO2 
 PCOD9473634
Probable space group: C M C M
;
_chemical_formula_sum "Si O2"
_cell_formula_units_Z 64
_cell_length_a 39.567741
_cell_length_b 7.746731
_cell_length_c 9.517160
_cell_angle_alpha 90.000000
_cell_angle_beta 90.000000
_cell_angle_gamma 90.000000
_cell_volume 2917.206029
_symmetry_space_group_name_H-M "C M C M"
_symmetry_group_IT_number 63
_symmetry_cell_setting 'orthorhombic'
loop_
_space_group_symop_operation_xyz
x,y,z
-x,-y,1/2+z
x,-y,-z
-x,y,1/2-z
-x,-y,-z
x,y,1/2-z
-x,y,z
x,-y,1/2+z
1/2+x,1/2+y,z
1/2-x,1/2-y,1/2+z
1/2+x,1/2-y,-z
1/2-x,1/2+y,1/2-z
1/2-x,1/2-y,-z
1/2+x,1/2+y,1/2-z
1/2-x,1/2+y,z
1/2+x,1/2-y,1/2+z
loop_
_atom_site_type_symbol
_atom_site_label
_atom_site_fract_x
_atom_site_fract_y
_atom_site_fract_z
Si Si1 0.401556 0.175387 0.411498
Si Si2 0.723223 0.622794 0.750000
Si Si3 0.700981 0.780528 0.250000
Si Si4 0.171776 0.796361 0.472497
Si Si5 0.962548 0.312789 0.419603
O O1 0.412677 0.151447 0.250000
O O2 0.364148 0.252428 0.408014
O O3 0.430665 0.273248 0.501369
O O4 0.397224 0.000000 0.500000
O O5 0.711103 0.423694 0.750000
O O6 0.763307 0.625511 0.750000
O O7 0.705612 0.718588 0.619706
O O8 0.678555 0.809856 0.386559
O O9 0.169503 0.000000 0.500000
O O10 0.964163 0.500000 0.500000
O O11 0.957462 0.327311 0.250000
O O12 0.000000 0.234690 0.439951
#
# Coordination Sequence:
#
# PCOD9473634 Si02
#       5
#    16   8   8  16  16
#     4  11  22  35  55  84 115 145 187 232 272 325
#     4  10  20  40  54  84 107 140 183 227 276 333
#     4  10  22  34  62  78 109 142 179 227 280 331
#     4  10  22  39  57  80 111 149 186 224 275 332
#     4   9  17  30  50  78 112 146 181 223 273 325
#
# _framework density 21.938800000000001
#
# number of rings (size 3 to 8) (size 9 to 14) (size 15 to 20)
#    0.000    2.000    1.250    3.750    3.500    3.500 
#    0.000    0.000    0.000    0.750    0.000    0.000 
#    0.000    0.000    0.000    0.000    0.000    0.000 
#
# Total GULP energy -178360.437260 kJ/mol
# GULP energy per Si atom -5573.763664 kJ/mol
# Density = 2.188887 g / cm^3
# Si number density = 21.938800 Si / 1000 Ang^3
#
#
#
# Elastic Constant Matrix: (Units=GPa)
#
#
# Indices 1 2 3 4 5 6 
#
# 1 157.1485 12.0522 53.6421 0.0000 0.0000 0.0000
# 2 12.0522 11.3393 12.9257 0.0000 0.0000 0.0000
# 3 53.6421 12.9257 162.1772 0.0000 0.0000 0.0000
# 4 0.0000 0.0000 0.0000 44.6258 0.0000 0.0000
# 5 0.0000 0.0000 0.0000 0.0000 50.9631 0.0000
# 6 0.0000 0.0000 0.0000 0.0000 0.0000 10.5059
#
#
#
# Elastic Compliance Matrix: (Units=1/GPa)
#
#
# Indices 1 2 3 4 5 6 
#
# 1 0.007488 -0.005649 -0.002027 0.000000 0.000000 0.000000
# 2 -0.005649 0.101263 -0.006202 0.000000 0.000000 0.000000
# 3 -0.002027 -0.006202 0.007331 0.000000 0.000000 0.000000
# 4 0.000000 0.000000 0.000000 0.022409 0.000000 0.000000
# 5 0.000000 0.000000 0.000000 0.000000 0.019622 0.000000
# 6 0.000000 0.000000 0.000000 0.000000 0.000000 0.095184
#
#
# Mechanical properties :
#
#
# Convention : Reuss Voigt Hill
#
# Bulk Modulus (GPa) = 11.32168 54.21167 32.76668
# Shear Modulus (GPa) = 16.10332 38.02197 27.06265
#
# Velocity S-wave (km/s) = 2.71220 4.16756 3.51601
# Velocity P-wave (km/s) = 3.87038 6.92258 5.60812
#
# Compressibility (1/GPa) = 0.08832610
#
# Stress axis : x y z
#
# Youngs Moduli (GPa) = 133.53901 9.87529 136.41145
#
# Poissons Ratio (x) = 0.05579 0.27646
# Poissons Ratio (y) = 0.75437 0.84606
# Poissons Ratio (z) = 0.27064 0.06125
#
# Static dielectric constant tensor:
#      x y z
#    x 1.832390 0.000000 0.000000 
#    y 0.000000 1.827550 0.000000 
#    z 0.000000 0.000000 1.902230 
# 
# From -- ./inp_files/13748.got.cif
#   From: 2010.05.17/outbox.cif.g08.bks.cpg/sg63_7_cif.got.tgz:13748.got - 2010.06.03 15:47:04.
