data_PCOD9473202
_publ_section_title
;
Structure prediction by ZEFSAII (Michael W. Deem and Ramdas Pophale) SiO2 
 PCOD9473202
Probable space group: C M C M
;
_chemical_formula_sum "Si O2"
_cell_formula_units_Z 72
_cell_length_a 23.269316
_cell_length_b 19.472032
_cell_length_c 8.677062
_cell_angle_alpha 90.000000
_cell_angle_beta 90.000000
_cell_angle_gamma 90.000000
_cell_volume 3931.584305
_symmetry_space_group_name_H-M "C M C M"
_symmetry_group_IT_number 63
_symmetry_cell_setting 'orthorhombic'
loop_
_space_group_symop_operation_xyz
x,y,z
-x,-y,1/2+z
x,-y,-z
-x,y,1/2-z
-x,-y,-z
x,y,1/2-z
-x,y,z
x,-y,1/2+z
1/2+x,1/2+y,z
1/2-x,1/2-y,1/2+z
1/2+x,1/2-y,-z
1/2-x,1/2+y,1/2-z
1/2-x,1/2-y,-z
1/2+x,1/2+y,1/2-z
1/2-x,1/2+y,z
1/2+x,1/2-y,1/2+z
loop_
_atom_site_type_symbol
_atom_site_label
_atom_site_fract_x
_atom_site_fract_y
_atom_site_fract_z
Si Si1 0.000000 0.576480 0.566471
Si Si2 0.065870 0.179245 0.435685
Si Si3 0.731033 0.176229 0.436002
Si Si4 0.833201 0.076397 0.064113
Si Si5 0.099279 0.327915 0.565282
O O1 0.000000 0.500000 0.500000
O O2 0.055608 0.618244 0.508531
O O3 0.000000 0.574365 0.750000
O O4 0.070181 0.187700 0.250000
O O5 0.111226 0.121107 0.482820
O O6 0.081728 0.251585 0.512205
O O7 0.000000 0.161266 0.472610
O O8 0.732809 0.179949 0.250000
O O9 0.750000 0.250000 0.500000
O O10 0.776624 0.118639 0.485771
O O11 0.665541 0.160531 0.481498
O O12 0.832884 0.073251 0.250000
O O13 0.834406 0.000000 0.000000
O O14 0.095086 0.332512 0.750000
#
# Coordination Sequence:
#
# PCOD9473202 Si02
#       5
#     8  16  16  16  16
#     4  12  26  44  64  88 123 162 199 248 308 362
#     4  10  20  36  60  87 117 156 200 244 298 357
#     4  10  21  37  60  89 120 156 201 249 297 355
#     4  10  22  39  57  84 122 158 198 245 297 354
#     4  11  22  37  61  93 122 152 201 252 299 358
#
# _framework density 18.313229
#
# number of rings (size 3 to 8) (size 9 to 14) (size 15 to 20)
#    0.000    1.556    3.333    1.667    0.000    4.000 
#    0.000    2.222    0.000    0.000    0.000    0.000 
#    0.000    0.000    0.000    0.000    0.000    0.000 
#
# Total GULP energy -201152.943232 kJ/mol
# GULP energy per Si atom -5587.581756 kJ/mol
# Density = 1.827155 g / cm^3
# Si number density = 18.313229 Si / 1000 Ang^3
#
#
#
# Elastic Constant Matrix: (Units=GPa)
#
#
# Indices 1 2 3 4 5 6 
#
# 1 219.8502 121.3867 59.5684 0.0000 0.0000 0.0000
# 2 121.3867 196.0583 49.0096 0.0000 0.0000 0.0000
# 3 59.5684 49.0096 37.7755 0.0000 0.0000 0.0000
# 4 0.0000 0.0000 0.0000 38.6962 0.0000 0.0000
# 5 0.0000 0.0000 0.0000 0.0000 23.2714 0.0000
# 6 0.0000 0.0000 0.0000 0.0000 0.0000 32.4569
#
#
#
# Elastic Compliance Matrix: (Units=1/GPa)
#
#
# Indices 1 2 3 4 5 6 
#
# 1 0.008990 -0.002993 -0.010293 0.000000 0.000000 0.000000
# 2 -0.002993 0.008545 -0.006367 0.000000 0.000000 0.000000
# 3 -0.010293 -0.006367 0.050964 0.000000 0.000000 0.000000
# 4 0.000000 0.000000 0.000000 0.025842 0.000000 0.000000
# 5 0.000000 0.000000 0.000000 0.000000 0.042971 0.000000
# 6 0.000000 0.000000 0.000000 0.000000 0.000000 0.030810
#
#
# Mechanical properties :
#
#
# Convention : Reuss Voigt Hill
#
# Bulk Modulus (GPa) = 34.25473 101.51261 67.88367
# Shear Modulus (GPa) = 23.02446 33.79949 28.41197
#
# Velocity S-wave (km/s) = 3.54963 4.30074 3.94311
# Velocity P-wave (km/s) = 5.96199 8.95620 7.60785
#
# Compressibility (1/GPa) = 0.02919305
#
# Stress axis : x y z
#
# Youngs Moduli (GPa) = 111.23341 117.02614 19.62163
#
# Poissons Ratio (x) = 0.35026 0.20198
# Poissons Ratio (y) = 0.33292 0.12492
# Poissons Ratio (z) = 1.14498 0.74507
#
# Static dielectric constant tensor:
#      x y z
#    x 1.641540 0.000000 0.000000 
#    y 0.000000 1.573410 0.000000 
#    z 0.000000 0.000000 1.623330 
# 
# From -- ./inp_files/7864.got.cif
#   From: 2010.05.17/outbox.cif.g08.bks.cpg/sg63_4_cif.got.tgz:7864.got - 2010.06.03 15:47:04.
