data_PCOD9473970
_publ_section_title
;
Structure prediction by ZEFSAII (Michael W. Deem and Ramdas Pophale) SiO2 
 PCOD9473970
Probable space group: C M C M
;
_chemical_formula_sum "Si O2"
_cell_formula_units_Z 96
_cell_length_a 15.899168
_cell_length_b 22.828010
_cell_length_c 14.313056
_cell_angle_alpha 90.000000
_cell_angle_beta 90.000000
_cell_angle_gamma 90.000000
_cell_volume 5194.871663
_symmetry_space_group_name_H-M "C M C M"
_symmetry_group_IT_number 63
_symmetry_cell_setting 'orthorhombic'
loop_
_space_group_symop_operation_xyz
x,y,z
-x,-y,1/2+z
x,-y,-z
-x,y,1/2-z
-x,-y,-z
x,y,1/2-z
-x,y,z
x,-y,1/2+z
1/2+x,1/2+y,z
1/2-x,1/2-y,1/2+z
1/2+x,1/2-y,-z
1/2-x,1/2+y,1/2-z
1/2-x,1/2-y,-z
1/2+x,1/2+y,1/2-z
1/2-x,1/2+y,z
1/2+x,1/2-y,1/2+z
loop_
_atom_site_type_symbol
_atom_site_label
_atom_site_fract_x
_atom_site_fract_y
_atom_site_fract_z
Si Si1 0.406743 0.021520 0.393516
Si Si2 0.402817 0.279444 0.356970
Si Si3 0.765928 0.041039 0.853474
Si Si4 0.595603 0.439991 0.858431
Si Si5 0.840936 0.349634 0.641594
Si Si6 0.688950 0.638875 0.498048
O O1 0.500000 0.008665 0.355063
O O2 0.389351 0.090811 0.384487
O O3 0.407652 0.000000 0.500000
O O4 0.325598 0.988835 0.352595
O O5 0.376611 0.293940 0.250000
O O6 0.500000 0.297132 0.367686
O O7 0.394996 0.209299 0.365790
O O8 0.347451 0.311211 0.434928
O O9 0.782715 0.065766 0.750000
O O10 0.774123 0.088878 0.933678
O O11 0.835735 0.991019 0.871283
O O12 0.603228 0.420131 0.750000
O O13 0.500000 0.461258 0.871552
O O14 0.617612 0.390089 0.932730
O O15 0.813868 0.355898 0.750000
O O16 0.762066 0.342662 0.572945
#
# Coordination Sequence:
#
# PCOD9473970 Si02
#       6
#    16  16  16  16  16  16
#     4  11  21  37  61  89 118 154 195 241 293 346
#     4  10  23  41  60  85 114 150 200 247 292 348
#     4  11  22  37  56  83 120 158 195 237 291 350
#     4  10  21  36  56  84 118 158 202 241 286 348
#     4  11  22  39  62  86 115 154 197 244 291 346
#     4  12  21  37  58  87 117 153 189 247 295 352
#
# _framework density 18.479762999999998
#
# number of rings (size 3 to 8) (size 9 to 14) (size 15 to 20)
#    0.000    1.167    3.333    3.500    0.000    4.000 
#    0.000    1.667    0.000    0.000    0.000    0.000 
#    0.000    0.000    0.000    0.000    0.000    0.000 
#
# Total GULP energy -268033.185872 kJ/mol
# GULP energy per Si atom -5584.024706 kJ/mol
# Density = 1.843770 g / cm^3
# Si number density = 18.479763 Si / 1000 Ang^3
#
#
#
# Elastic Constant Matrix: (Units=GPa)
#
#
# Indices 1 2 3 4 5 6 
#
# 1 105.1405 26.8383 45.7308 0.0000 0.0000 0.0000
# 2 26.8383 80.5857 50.6790 0.0000 0.0000 0.0000
# 3 45.7308 50.6790 131.6554 0.0000 0.0000 0.0000
# 4 0.0000 0.0000 0.0000 42.3713 0.0000 0.0000
# 5 0.0000 0.0000 0.0000 0.0000 24.6400 0.0000
# 6 0.0000 0.0000 0.0000 0.0000 0.0000 14.1000
#
#
#
# Elastic Compliance Matrix: (Units=1/GPa)
#
#
# Indices 1 2 3 4 5 6 
#
# 1 0.011382 -0.001721 -0.003291 0.000000 0.000000 0.000000
# 2 -0.001721 0.016633 -0.005805 0.000000 0.000000 0.000000
# 3 -0.003291 -0.005805 0.010973 0.000000 0.000000 0.000000
# 4 0.000000 0.000000 0.000000 0.023601 0.000000 0.000000
# 5 0.000000 0.000000 0.000000 0.000000 0.040584 0.000000
# 6 0.000000 0.000000 0.000000 0.000000 0.000000 0.070922
#
#
# Mechanical properties :
#
#
# Convention : Reuss Voigt Hill
#
# Bulk Modulus (GPa) = 57.62261 62.65306 60.13784
# Shear Modulus (GPa) = 24.81224 29.16450 26.98837
#
# Velocity S-wave (km/s) = 3.66822 3.97695 3.82570
# Velocity P-wave (km/s) = 7.01358 7.42060 7.21996
#
# Compressibility (1/GPa) = 0.01735430
#
# Stress axis : x y z
#
# Youngs Moduli (GPa) = 87.85952 60.12197 91.13081
#
# Poissons Ratio (x) = 0.10346 0.29992
# Poissons Ratio (y) = 0.15120 0.52900
# Poissons Ratio (z) = 0.28915 0.34900
#
# Static dielectric constant tensor:
#      x y z
#    x 1.644920 0.000000 0.000000 
#    y 0.000000 1.614220 0.000000 
#    z 0.000000 0.000000 1.648070 
# 
# From -- ./inp_files/31900.got.cif
#   From: 2010.05.17/outbox.cif.g08.bks.cpg/sg63_16_cif.got.tgz:31900.got - 2010.06.03 15:47:04.
