data_PCOD9473915
_publ_section_title
;
Structure prediction by ZEFSAII (Michael W. Deem and Ramdas Pophale) SiO2 
 PCOD9473915
Probable space group: C M C M
;
_chemical_formula_sum "Si O2"
_cell_formula_units_Z 80
_cell_length_a 8.851513
_cell_length_b 19.541633
_cell_length_c 26.133573
_cell_angle_alpha 90.000000
_cell_angle_beta 90.000000
_cell_angle_gamma 90.000000
_cell_volume 4520.403007
_symmetry_space_group_name_H-M "C M C M"
_symmetry_group_IT_number 63
_symmetry_cell_setting 'orthorhombic'
loop_
_space_group_symop_operation_xyz
x,y,z
-x,-y,1/2+z
x,-y,-z
-x,y,1/2-z
-x,-y,-z
x,y,1/2-z
-x,y,z
x,-y,1/2+z
1/2+x,1/2+y,z
1/2-x,1/2-y,1/2+z
1/2+x,1/2-y,-z
1/2-x,1/2+y,1/2-z
1/2-x,1/2-y,-z
1/2+x,1/2+y,1/2-z
1/2-x,1/2+y,z
1/2+x,1/2-y,1/2+z
loop_
_atom_site_type_symbol
_atom_site_label
_atom_site_fract_x
_atom_site_fract_y
_atom_site_fract_z
Si Si1 0.819262 0.551377 0.045809
Si Si2 0.318921 0.295629 0.659888
Si Si3 0.816098 0.951380 0.250000
Si Si4 0.818991 0.793483 0.250000
Si Si5 0.819062 0.799120 0.957577
Si Si6 0.317511 0.455212 0.654844
O O1 0.745374 0.624877 0.035518
O O2 0.756163 0.527254 0.100550
O O3 0.000000 0.558282 0.048633
O O4 0.781592 0.500000 0.000000
O O5 0.500000 0.290199 0.666193
O O6 0.239937 0.246927 0.700417
O O7 0.280984 0.278177 0.600950
O O8 0.279073 0.375954 0.667637
O O9 0.766455 0.872603 0.250000
O O10 0.000000 0.951463 0.250000
O O11 0.769712 0.993643 0.300284
O O12 0.000000 0.793412 0.250000
O O13 0.000000 0.800311 0.961445
O O14 0.750000 0.750000 0.000000
O O15 0.500000 0.457678 0.649749
#
# Coordination Sequence:
#
# PCOD9473915 Si02
#       6
#    16  16   8   8  16  16
#     4  10  21  36  54  80 113 143 176 221 268 317
#     4   9  19  36  56  76 101 138 178 215 261 316
#     4   9  19  35  53  77 106 133 170 220 268 313
#     4  11  22  33  51  81 110 137 172 218 268 317
#     4  10  21  37  58  82 108 142 183 224 270 322
#     4   9  18  36  59  76  97 137 184 221 258 312
#
# _framework density 17.697538000000002
#
# number of rings (size 3 to 8) (size 9 to 14) (size 15 to 20)
#    0.000    2.400    0.000    3.300    0.000    8.800 
#    0.000    6.500    0.000    0.000    0.000    0.000 
#    0.000    0.000    0.000    0.000    0.000    0.000 
#
# Total GULP energy -223247.782900 kJ/mol
# GULP energy per Si atom -5581.194573 kJ/mol
# Density = 1.765726 g / cm^3
# Si number density = 17.697538 Si / 1000 Ang^3
#
#
#
# Elastic Constant Matrix: (Units=GPa)
#
#
# Indices 1 2 3 4 5 6 
#
# 1 40.1168 51.4895 68.7413 0.0000 0.0000 0.0000
# 2 51.4895 127.2129 137.3228 0.0000 0.0000 0.0000
# 3 68.7413 137.3228 195.2755 0.0000 0.0000 0.0000
# 4 0.0000 0.0000 0.0000 36.7048 0.0000 0.0000
# 5 0.0000 0.0000 0.0000 0.0000 36.1977 0.0000
# 6 0.0000 0.0000 0.0000 0.0000 0.0000 27.3778
#
#
#
# Elastic Compliance Matrix: (Units=1/GPa)
#
#
# Indices 1 2 3 4 5 6 
#
# 1 0.064124 -0.006589 -0.017940 0.000000 0.000000 0.000000
# 2 -0.006589 0.033310 -0.021105 0.000000 0.000000 0.000000
# 3 -0.017940 -0.021105 0.026278 0.000000 0.000000 0.000000
# 4 0.000000 0.000000 0.000000 0.027244 0.000000 0.000000
# 5 0.000000 0.000000 0.000000 0.000000 0.027626 0.000000
# 6 0.000000 0.000000 0.000000 0.000000 0.000000 0.036526
#
#
# Mechanical properties :
#
#
# Convention : Reuss Voigt Hill
#
# Bulk Modulus (GPa) = 30.82171 97.52361 64.17266
# Shear Modulus (GPa) = 15.76342 27.05949 21.41146
#
# Velocity S-wave (km/s) = 2.98772 3.91448 3.48207
# Velocity P-wave (km/s) = 5.41808 8.69806 7.24610
#
# Compressibility (1/GPa) = 0.03244466
#
# Stress axis : x y z
#
# Youngs Moduli (GPa) = 15.59477 30.02105 38.05517
#
# Poissons Ratio (x) = 0.19781 0.68269
# Poissons Ratio (y) = 0.10275 0.80315
# Poissons Ratio (z) = 0.27976 0.63359
#
# Static dielectric constant tensor:
#      x y z
#    x 1.592540 0.000000 0.000000 
#    y 0.000000 1.583010 0.000000 
#    z 0.000000 0.000000 1.591750 
# 
# From -- ./inp_files/66679.got.cif
#   From: 2010.05.17/outbox.cif.g08.bks.cpg/sg63_34_cif.got.tgz:66679.got - 2010.06.03 15:47:04.
