data_PCOD9473059
_publ_section_title
;
Structure prediction by ZEFSAII (Michael W. Deem and Ramdas Pophale) SiO2 
 PCOD9473059
Probable space group: C M C M
;
_chemical_formula_sum "Si O2"
_cell_formula_units_Z 48
_cell_length_a 7.989172
_cell_length_b 13.635829
_cell_length_c 19.903603
_cell_angle_alpha 90.000000
_cell_angle_beta 90.000000
_cell_angle_gamma 90.000000
_cell_volume 2168.278274
_symmetry_space_group_name_H-M "C M C M"
_symmetry_group_IT_number 63
_symmetry_cell_setting 'orthorhombic'
loop_
_space_group_symop_operation_xyz
x,y,z
-x,-y,1/2+z
x,-y,-z
-x,y,1/2-z
-x,-y,-z
x,y,1/2-z
-x,y,z
x,-y,1/2+z
1/2+x,1/2+y,z
1/2-x,1/2-y,1/2+z
1/2+x,1/2-y,-z
1/2-x,1/2+y,1/2-z
1/2-x,1/2-y,-z
1/2+x,1/2+y,1/2-z
1/2-x,1/2+y,z
1/2+x,1/2-y,1/2+z
loop_
_atom_site_type_symbol
_atom_site_label
_atom_site_fract_x
_atom_site_fract_y
_atom_site_fract_z
Si Si1 0.315041 0.105573 0.964427
Si Si2 0.000000 0.107295 0.034177
Si Si3 0.000000 0.175345 0.176318
Si Si4 0.803560 0.831127 0.325854
O O1 0.500000 0.149840 0.964088
O O2 0.250836 0.100395 0.887682
O O3 0.168673 0.155755 0.006963
O O4 0.331625 0.000000 0.000000
O O5 0.000000 0.103532 0.113748
O O6 0.000000 0.000000 0.000000
O O7 0.167515 0.242791 0.171314
O O8 0.000000 0.128595 0.250000
O O9 0.787937 0.872721 0.250000
O O10 0.000000 0.802657 0.334680
#
# Coordination Sequence:
#
# PCOD9473059 Si02
#       4
#    16   8   8  16
#     4  10  20  36  57  85 122 159 198 244 284 343
#     4  10  22  40  58  83 120 151 198 243 291 355
#     4  10  22  40  61  85 118 153 190 243 300 355
#     4  10  20  36  59  89 120 155 199 243 293 351
#
# _framework density 22.13738
#
# number of rings (size 3 to 8) (size 9 to 14) (size 15 to 20)
#    0.000    2.000    3.333    0.000    0.000    2.667 
#    0.000    6.667    0.000    2.000    0.000    0.000 
#    0.000    0.000    0.000    0.000    0.000    0.000 
#
# Total GULP energy -133837.500989 kJ/mol
# GULP energy per Si atom -5576.562541 kJ/mol
# Density = 2.208699 g / cm^3
# Si number density = 22.137380 Si / 1000 Ang^3
#
#
#
# Elastic Constant Matrix: (Units=GPa)
#
#
# Indices 1 2 3 4 5 6 
#
# 1 232.5921 32.1637 66.0313 0.0000 0.0000 0.0000
# 2 32.1637 62.2469 54.9001 0.0000 0.0000 0.0000
# 3 66.0313 54.9001 240.8454 0.0000 0.0000 0.0000
# 4 0.0000 0.0000 0.0000 38.0541 0.0000 0.0000
# 5 0.0000 0.0000 0.0000 0.0000 37.2505 0.0000
# 6 0.0000 0.0000 0.0000 0.0000 0.0000 14.9338
#
#
#
# Elastic Compliance Matrix: (Units=1/GPa)
#
#
# Indices 1 2 3 4 5 6 
#
# 1 0.004794 -0.001649 -0.000938 0.000000 0.000000 0.000000
# 2 -0.001649 0.020675 -0.004261 0.000000 0.000000 0.000000
# 3 -0.000938 -0.004261 0.005380 0.000000 0.000000 0.000000
# 4 0.000000 0.000000 0.000000 0.026278 0.000000 0.000000
# 5 0.000000 0.000000 0.000000 0.000000 0.026845 0.000000
# 6 0.000000 0.000000 0.000000 0.000000 0.000000 0.066962
#
#
# Mechanical properties :
#
#
# Convention : Reuss Voigt Hill
#
# Bulk Modulus (GPa) = 58.30005 93.54164 75.92085
# Shear Modulus (GPa) = 29.35143 43.55364 36.45254
#
# Velocity S-wave (km/s) = 3.64521 4.44038 4.06230
# Velocity P-wave (km/s) = 6.64150 8.28469 7.50818
#
# Compressibility (1/GPa) = 0.01715264
#
# Stress axis : x y z
#
# Youngs Moduli (GPa) = 208.60069 48.36736 185.85666
#
# Poissons Ratio (x) = 0.07978 0.17439
# Poissons Ratio (y) = 0.34408 0.79186
# Poissons Ratio (z) = 0.19573 0.20607
#
# Static dielectric constant tensor:
#      x y z
#    x 1.910780 0.000000 0.000000 
#    y 0.000000 2.149900 0.000000 
#    z 0.000000 0.000000 1.801170 
# 
# From -- ./inp_files/26978.got.cif
#   From: 2010.05.17/outbox.cif.g08.bks.cpg/sg63_14_cif.got.tgz:26978.got - 2010.06.03 15:47:04.
