data_PCOD9473843
_publ_section_title
;
Structure prediction by ZEFSAII (Michael W. Deem and Ramdas Pophale) SiO2 
 PCOD9473843
Probable space group: C M C M
;
_chemical_formula_sum "Si O2"
_cell_formula_units_Z 88
_cell_length_a 28.610013
_cell_length_b 5.709062
_cell_length_c 28.575247
_cell_angle_alpha 90.000000
_cell_angle_beta 90.000000
_cell_angle_gamma 90.000000
_cell_volume 4667.376204
_symmetry_space_group_name_H-M "C M C M"
_symmetry_group_IT_number 63
_symmetry_cell_setting 'orthorhombic'
loop_
_space_group_symop_operation_xyz
x,y,z
-x,-y,1/2+z
x,-y,-z
-x,y,1/2-z
-x,-y,-z
x,y,1/2-z
-x,y,z
x,-y,1/2+z
1/2+x,1/2+y,z
1/2-x,1/2-y,1/2+z
1/2+x,1/2-y,-z
1/2-x,1/2+y,1/2-z
1/2-x,1/2-y,-z
1/2+x,1/2+y,1/2-z
1/2-x,1/2+y,z
1/2+x,1/2-y,1/2+z
loop_
_atom_site_type_symbol
_atom_site_label
_atom_site_fract_x
_atom_site_fract_y
_atom_site_fract_z
Si Si1 0.948724 0.995094 0.196319
Si Si2 0.909282 0.974230 0.553009
Si Si3 0.628363 0.244903 0.860593
Si Si4 0.723043 0.181527 0.805279
Si Si5 0.447214 0.876288 0.886526
Si Si6 0.500000 0.245622 0.527176
O O1 0.943386 0.921862 0.250000
O O2 0.950007 0.783764 0.160025
O O3 0.000000 0.116409 0.192228
O O4 0.905440 0.147824 0.179266
O O5 0.872426 0.912928 0.593628
O O6 0.949927 0.775711 0.552696
O O7 0.891456 0.000000 0.500000
O O8 0.936109 0.206071 0.570099
O O9 0.678032 0.191758 0.838572
O O10 0.598979 0.024533 0.877978
O O11 0.710021 0.182735 0.750000
O O12 0.750837 0.429689 0.812964
O O13 0.500000 0.975200 0.891553
O O14 0.500000 0.500000 0.500000
O O15 0.500000 0.000000 0.500000
#
# Coordination Sequence:
#
# PCOD9473843 Si02
#       6
#    16  16  16  16  16   8
#     4   9  19  35  51  80 125 164 200 243 300 377
#     4  10  23  36  55  86 126 172 212 259 309 364
#     4  11  23  35  62  88 118 159 208 261 316 378
#     4  10  24  46  71  97 123 155 204 267 331 389
#     4  10  21  35  54  87 124 169 213 254 302 363
#     4  10  22  36  56  84 125 176 221 258 300 354
#
# _framework density 18.854275000000001
#
# number of rings (size 3 to 8) (size 9 to 14) (size 15 to 20)
#    0.000    2.000    0.909    1.091   12.727    1.455 
#    0.000    1.818    0.000    1.091    0.000    0.000 
#    0.000    0.000    0.000    0.000    0.000    0.000 
#
# Total GULP energy -245133.382941 kJ/mol
# GULP energy per Si atom -5571.213249 kJ/mol
# Density = 1.881136 g / cm^3
# Si number density = 18.854275 Si / 1000 Ang^3
#
#
#
# Elastic Constant Matrix: (Units=GPa)
#
#
# Indices 1 2 3 4 5 6 
#
# 1 117.3587 54.9165 61.6670 0.0000 0.0000 0.0000
# 2 54.9165 86.6601 33.0173 0.0000 0.0000 0.0000
# 3 61.6670 33.0173 121.4884 0.0000 0.0000 0.0000
# 4 0.0000 0.0000 0.0000 18.6779 0.0000 0.0000
# 5 0.0000 0.0000 0.0000 0.0000 39.4762 0.0000
# 6 0.0000 0.0000 0.0000 0.0000 0.0000 21.0739
#
#
#
# Elastic Compliance Matrix: (Units=1/GPa)
#
#
# Indices 1 2 3 4 5 6 
#
# 1 0.014855 -0.007296 -0.005558 0.000000 0.000000 0.000000
# 2 -0.007296 0.016456 -0.000769 0.000000 0.000000 0.000000
# 3 -0.005558 -0.000769 0.011261 0.000000 0.000000 0.000000
# 4 0.000000 0.000000 0.000000 0.053539 0.000000 0.000000
# 5 0.000000 0.000000 0.000000 0.000000 0.025332 0.000000
# 6 0.000000 0.000000 0.000000 0.000000 0.000000 0.047452
#
#
# Mechanical properties :
#
#
# Convention : Reuss Voigt Hill
#
# Bulk Modulus (GPa) = 65.24358 69.41209 67.32783
# Shear Modulus (GPa) = 24.84473 27.57269 26.20871
#
# Velocity S-wave (km/s) = 3.63399 3.82830 3.73241
# Velocity P-wave (km/s) = 7.23098 7.51240 7.37303
#
# Compressibility (1/GPa) = 0.01532718
#
# Stress axis : x y z
#
# Youngs Moduli (GPa) = 67.31544 60.76827 88.80103
#
# Poissons Ratio (x) = 0.44339 0.49352
# Poissons Ratio (y) = 0.49116 0.06826
# Poissons Ratio (z) = 0.37411 0.04671
#
# Static dielectric constant tensor:
#      x y z
#    x 1.635410 0.000000 0.000000 
#    y 0.000000 1.752180 0.000000 
#    z 0.000000 0.000000 1.696510 
# 
# From -- ./inp_files/74245.got.cif
#   From: 2010.05.17/outbox.cif.g08.bks.cpg/sg63_38_cif.got.tgz:74245.got - 2010.06.03 15:47:04.
