data_PCOD9473306
_publ_section_title
;
Structure prediction by ZEFSAII (Michael W. Deem and Ramdas Pophale) SiO2 
 PCOD9473306
Probable space group: C M C M
;
_chemical_formula_sum "Si O2"
_cell_formula_units_Z 112
_cell_length_a 13.319853
_cell_length_b 13.110936
_cell_length_c 28.089575
_cell_angle_alpha 90.000000
_cell_angle_beta 90.000000
_cell_angle_gamma 90.000000
_cell_volume 4905.443722
_symmetry_space_group_name_H-M "C M C M"
_symmetry_group_IT_number 63
_symmetry_cell_setting 'orthorhombic'
loop_
_space_group_symop_operation_xyz
x,y,z
-x,-y,1/2+z
x,-y,-z
-x,y,1/2-z
-x,-y,-z
x,y,1/2-z
-x,y,z
x,-y,1/2+z
1/2+x,1/2+y,z
1/2-x,1/2-y,1/2+z
1/2+x,1/2-y,-z
1/2-x,1/2+y,1/2-z
1/2-x,1/2-y,-z
1/2+x,1/2+y,1/2-z
1/2-x,1/2+y,z
1/2+x,1/2-y,1/2+z
loop_
_atom_site_type_symbol
_atom_site_label
_atom_site_fract_x
_atom_site_fract_y
_atom_site_fract_z
Si Si1 0.670440 0.558331 0.350469
Si Si2 0.891159 0.270800 0.307175
Si Si3 0.882238 0.264153 0.542275
Si Si4 0.616284 0.140628 0.359030
Si Si5 0.315548 0.462803 0.054623
Si Si6 0.828103 0.155322 0.693349
Si Si7 0.889242 0.593452 0.962406
O O1 0.619739 0.659940 0.330850
O O2 0.790342 0.574729 0.340118
O O3 0.645946 0.541244 0.406344
O O4 0.637098 0.453792 0.325583
O O5 0.889055 0.258139 0.250000
O O6 0.790298 0.331756 0.319353
O O7 0.000000 0.316116 0.320047
O O8 0.849432 0.330481 0.587211
O O9 0.868179 0.146491 0.553590
O O10 0.846606 0.309721 0.492044
O O11 0.000000 0.285091 0.538595
O O12 0.500000 0.102594 0.359004
O O13 0.618471 0.248122 0.330871
O O14 0.201001 0.438978 0.070885
O O15 0.317583 0.500000 0.000000
O O16 0.839633 0.161036 0.750000
O O17 0.000000 0.611528 0.942333
O O18 0.897942 0.500000 0.000000
#
# Coordination Sequence:
#
# PCOD9473306 Si02
#       7
#    16  16  16  16  16  16  16
#     4  11  22  37  61  91 121 155 201 249 291 350
#     4   9  20  40  64  88 118 156 195 240 297 358
#     4  10  20  37  58  80 114 154 195 243 294 344
#     4  10  21  38  61  88 119 155 196 245 297 350
#     4  11  22  36  58  83 116 159 198 241 294 349
#     4  10  21  39  61  88 121 153 190 241 300 359
#     4   9  18  33  54  80 108 145 192 237 282 338
#
# _framework density 22.831778
#
# number of rings (size 3 to 8) (size 9 to 14) (size 15 to 20)
#    0.000    2.000    1.429    2.571    0.000    4.571 
#    0.000    0.000    0.000    0.000    0.000    0.000 
#    0.000    0.000    0.000    0.000    0.000    0.000 
#
# Total GULP energy -312658.878902 kJ/mol
# GULP energy per Si atom -5583.194266 kJ/mol
# Density = 2.277981 g / cm^3
# Si number density = 22.831778 Si / 1000 Ang^3
#
#
#
# Elastic Constant Matrix: (Units=GPa)
#
#
# Indices 1 2 3 4 5 6 
#
# 1 44.8437 -8.3464 3.3323 0.0000 0.0000 0.0000
# 2 -8.3464 62.4200 7.0998 0.0000 0.0000 0.0000
# 3 3.3323 7.0998 56.8418 0.0000 0.0000 0.0000
# 4 0.0000 0.0000 0.0000 29.8729 0.0000 0.0000
# 5 0.0000 0.0000 0.0000 0.0000 6.9986 0.0000
# 6 0.0000 0.0000 0.0000 0.0000 0.0000 12.8215
#
#
#
# Elastic Compliance Matrix: (Units=1/GPa)
#
#
# Indices 1 2 3 4 5 6 
#
# 1 0.023041 0.003281 -0.001761 0.000000 0.000000 0.000000
# 2 0.003281 0.016719 -0.002281 0.000000 0.000000 0.000000
# 3 -0.001761 -0.002281 0.017981 0.000000 0.000000 0.000000
# 4 0.000000 0.000000 0.000000 0.033475 0.000000 0.000000
# 5 0.000000 0.000000 0.000000 0.000000 0.142886 0.000000
# 6 0.000000 0.000000 0.000000 0.000000 0.000000 0.077994
#
#
# Mechanical properties :
#
#
# Convention : Reuss Voigt Hill
#
# Bulk Modulus (GPa) = 17.78711 18.69745 18.24228
# Shear Modulus (GPa) = 15.04411 20.73992 17.89202
#
# Velocity S-wave (km/s) = 2.56971 3.01720 2.80240
# Velocity P-wave (km/s) = 4.07578 4.51055 4.29866
#
# Compressibility (1/GPa) = 0.05622050
#
# Stress axis : x y z
#
# Youngs Moduli (GPa) = 43.40054 59.81346 55.61498
#
# Poissons Ratio (x) = -0.19626 0.09792
# Poissons Ratio (y) = -0.14240 0.12684
# Poissons Ratio (z) = 0.07641 0.13641
#
# Static dielectric constant tensor:
#      x y z
#    x 1.905290 0.000000 0.000000 
#    y 0.000000 1.825260 0.000000 
#    z 0.000000 0.000000 1.895870 
# 
# From -- ./inp_files/73411.got.cif
#   From: 2010.05.17/outbox.cif.g08.bks.cpg/sg63_37_cif.got.tgz:73411.got - 2010.06.03 15:47:04.
