data_PCOD9473553
_publ_section_title
;
Structure prediction by ZEFSAII (Michael W. Deem and Ramdas Pophale) SiO2 
 PCOD9473553
Probable space group: C M C M
;
_chemical_formula_sum "Si O2"
_cell_formula_units_Z 84
_cell_length_a 12.534208
_cell_length_b 20.358576
_cell_length_c 14.403315
_cell_angle_alpha 90.000000
_cell_angle_beta 90.000000
_cell_angle_gamma 90.000000
_cell_volume 3675.418134
_symmetry_space_group_name_H-M "C M C M"
_symmetry_group_IT_number 63
_symmetry_cell_setting 'orthorhombic'
loop_
_space_group_symop_operation_xyz
x,y,z
-x,-y,1/2+z
x,-y,-z
-x,y,1/2-z
-x,-y,-z
x,y,1/2-z
-x,y,z
x,-y,1/2+z
1/2+x,1/2+y,z
1/2-x,1/2-y,1/2+z
1/2+x,1/2-y,-z
1/2-x,1/2+y,1/2-z
1/2-x,1/2-y,-z
1/2+x,1/2+y,1/2-z
1/2-x,1/2+y,z
1/2+x,1/2-y,1/2+z
loop_
_atom_site_type_symbol
_atom_site_label
_atom_site_fract_x
_atom_site_fract_y
_atom_site_fract_z
Si Si1 0.672009 0.273176 0.646024
Si Si2 0.612162 0.578616 0.143271
Si Si3 0.878534 0.883470 0.140591
Si Si4 0.694258 0.990094 0.101146
Si Si5 0.616839 0.239912 0.054815
Si Si6 0.500000 0.986770 0.250000
O O1 0.660186 0.244489 0.750000
O O2 0.614365 0.342804 0.644402
O O3 0.635999 0.231824 0.555739
O O4 0.794103 0.289510 0.621014
O O5 0.608915 0.555217 0.250000
O O6 0.500000 0.558971 0.096816
O O7 0.722484 0.550880 0.107837
O O8 0.868026 0.865859 0.250000
O O9 0.875895 0.817826 0.078333
O O10 0.000000 0.910784 0.130436
O O11 0.779597 0.930131 0.115070
O O12 0.596577 0.986839 0.171075
O O13 0.647716 0.000000 0.000000
O O14 0.500000 0.216058 0.078720
#
# Coordination Sequence:
#
# PCOD9473553 Si02
#       6
#    16  16  16  16  16   4
#     4  10  21  37  59  87 128 163 198 251 316 364
#     4  10  20  38  64  95 126 154 196 258 315 364
#     4  10  20  38  68  98 127 159 199 260 317 360
#     4  12  24  41  67  91 123 166 211 250 310 370
#     4  10  21  38  61  91 123 159 209 256 302 368
#     4  12  26  48  58  82 132 176 202 258 288 376
#
# _framework density 22.854543
#
# number of rings (size 3 to 8) (size 9 to 14) (size 15 to 20)
#    0.000    1.524    1.905    3.143    0.000    6.857 
#    1.714    0.000   14.667    0.000    0.000    0.000 
#    0.000    0.000    0.000    0.000    0.000    0.000 
#
# Total GULP energy -233862.572798 kJ/mol
# GULP energy per Si atom -5568.156495 kJ/mol
# Density = 2.280252 g / cm^3
# Si number density = 22.854543 Si / 1000 Ang^3
#
#
#
# Elastic Constant Matrix: (Units=GPa)
#
#
# Indices 1 2 3 4 5 6 
#
# 1 215.4463 25.2399 51.6463 0.0000 0.0000 0.0000
# 2 25.2399 25.2064 6.6530 0.0000 0.0000 0.0000
# 3 51.6463 6.6530 185.0873 0.0000 0.0000 0.0000
# 4 0.0000 0.0000 0.0000 13.3907 0.0000 0.0000
# 5 0.0000 0.0000 0.0000 0.0000 -38.7781 0.0000
# 6 0.0000 0.0000 0.0000 0.0000 0.0000 -3.7002
#
#
#
# Elastic Compliance Matrix: (Units=1/GPa)
#
#
# Indices 1 2 3 4 5 6 
#
# 1 0.005582 -0.005228 -0.001370 0.000000 0.000000 0.000000
# 2 -0.005228 0.044949 -0.000157 0.000000 0.000000 0.000000
# 3 -0.001370 -0.000157 0.005791 0.000000 0.000000 0.000000
# 4 0.000000 0.000000 0.000000 0.074678 0.000000 0.000000
# 5 0.000000 0.000000 0.000000 0.000000 -0.025788 0.000000
# 6 0.000000 0.000000 0.000000 0.000000 0.000000 -0.270258
#
#
# Mechanical properties :
#
#
# Convention : Reuss Voigt Hill
#
# Bulk Modulus (GPa) = 23.35765 65.86872 44.61318
# Shear Modulus (GPa) = -36.42594 16.99587 -9.71503
#
# Velocity S-wave (km/s) = -3.99659 2.72996 -2.06399
# Velocity P-wave (km/s) = 3.32486 6.23060 3.72596
#
# Compressibility (1/GPa) = 0.04281252
#
# Stress axis : x y z
#
# Youngs Moduli (GPa) = 179.13485 22.24735 172.69046
#
# Poissons Ratio (x) = 0.11632 0.23654
# Poissons Ratio (y) = 0.93657 0.02708
# Poissons Ratio (z) = 0.24537 0.00349
#
# Static dielectric constant tensor:
#      x y z
#    x 1.892990 0.000000 0.000000 
#    y 0.000000 1.903690 0.000000 
#    z 0.000000 0.000000 2.012360 
# 
# From -- ./inp_files/29892.got.cif
#   From: 2010.05.17/outbox.cif.g08.bks.cpg/sg63_15_cif.got.tgz:29892.got - 2010.06.03 15:47:04.
