data_PCOD9473673
_publ_section_title
;
Structure prediction by ZEFSAII (Michael W. Deem and Ramdas Pophale) SiO2 
 PCOD9473673
Probable space group: C M C M
;
_chemical_formula_sum "Si O2"
_cell_formula_units_Z 88
_cell_length_a 7.700910
_cell_length_b 21.776727
_cell_length_c 26.946293
_cell_angle_alpha 90.000000
_cell_angle_beta 90.000000
_cell_angle_gamma 90.000000
_cell_volume 4518.909901
_symmetry_space_group_name_H-M "C M C M"
_symmetry_group_IT_number 63
_symmetry_cell_setting 'orthorhombic'
loop_
_space_group_symop_operation_xyz
x,y,z
-x,-y,1/2+z
x,-y,-z
-x,y,1/2-z
-x,-y,-z
x,y,1/2-z
-x,y,z
x,-y,1/2+z
1/2+x,1/2+y,z
1/2-x,1/2-y,1/2+z
1/2+x,1/2-y,-z
1/2-x,1/2+y,1/2-z
1/2-x,1/2-y,-z
1/2+x,1/2+y,1/2-z
1/2-x,1/2+y,z
1/2+x,1/2-y,1/2+z
loop_
_atom_site_type_symbol
_atom_site_label
_atom_site_fract_x
_atom_site_fract_y
_atom_site_fract_z
Si Si1 0.794626 0.881024 0.064580
Si Si2 0.500000 0.698717 0.309225
Si Si3 0.695214 0.860948 0.630931
Si Si4 0.500000 0.952319 0.308243
Si Si5 0.204990 0.810831 0.969377
Si Si6 0.500000 0.172265 0.633554
Si Si7 0.797619 0.002272 0.376600
O O1 0.668531 0.840113 0.099001
O O2 0.000000 0.866843 0.072364
O O3 0.766486 0.951680 0.080465
O O4 0.754241 0.865891 0.007586
O O5 0.500000 0.706814 0.250000
O O6 0.331444 0.661775 0.328335
O O7 0.500000 0.763063 0.338996
O O8 0.500000 0.864331 0.650405
O O9 0.702377 0.817055 0.582971
O O10 0.753468 0.927770 0.611059
O O11 0.500000 0.958358 0.250000
O O12 0.669593 0.982937 0.332492
O O13 0.500000 0.881711 0.325716
O O14 0.000000 0.811423 0.958710
O O15 0.250000 0.750000 0.000000
O O16 0.000000 0.997973 0.362919
#
# Coordination Sequence:
#
# PCOD9473673 Si02
#       7
#    16   8  16   8  16   8  16
#     4   9  21  37  63  95 127 163 200 248 309 370
#     4  12  27  46  66  88 122 171 214 260 318 370
#     4  12  25  43  62  91 129 161 209 264 307 370
#     4  10  21  38  63  93 120 155 204 262 313 366
#     4  11  22  38  60  93 128 168 210 248 303 370
#     4  10  21  40  65  92 126 160 205 254 305 374
#     4  10  20  41  61  87 124 160 204 256 313 369
#
# _framework density 19.473721999999999
#
# number of rings (size 3 to 8) (size 9 to 14) (size 15 to 20)
#    0.000    1.455    2.727    1.909    2.545    4.364 
#    0.000    3.636    0.000    3.273    0.000    0.000 
#    0.000    0.000    0.000    0.000    0.000    0.000 
#
# Total GULP energy -245841.439013 kJ/mol
# GULP energy per Si atom -5587.305432 kJ/mol
# Density = 1.942940 g / cm^3
# Si number density = 19.473722 Si / 1000 Ang^3
#
#
#
# Elastic Constant Matrix: (Units=GPa)
#
#
# Indices 1 2 3 4 5 6 
#
# 1 111.7474 27.8198 26.9460 0.0000 0.0000 0.0000
# 2 27.8198 84.8984 18.4672 0.0000 0.0000 0.0000
# 3 26.9460 18.4672 73.7508 0.0000 0.0000 0.0000
# 4 0.0000 0.0000 0.0000 7.6381 0.0000 0.0000
# 5 0.0000 0.0000 0.0000 0.0000 14.2703 0.0000
# 6 0.0000 0.0000 0.0000 0.0000 0.0000 24.2708
#
#
#
# Elastic Compliance Matrix: (Units=1/GPa)
#
#
# Indices 1 2 3 4 5 6 
#
# 1 0.010377 -0.002724 -0.003109 0.000000 0.000000 0.000000
# 2 -0.002724 0.013172 -0.002303 0.000000 0.000000 0.000000
# 3 -0.003109 -0.002303 0.015272 0.000000 0.000000 0.000000
# 4 0.000000 0.000000 0.000000 0.130923 0.000000 0.000000
# 5 0.000000 0.000000 0.000000 0.000000 0.070075 0.000000
# 6 0.000000 0.000000 0.000000 0.000000 0.000000 0.041202
#
#
# Mechanical properties :
#
#
# Convention : Reuss Voigt Hill
#
# Bulk Modulus (GPa) = 44.34915 46.31806 45.33361
# Shear Modulus (GPa) = 16.40367 22.38008 19.39188
#
# Velocity S-wave (km/s) = 2.90547 3.39373 3.15905
# Velocity P-wave (km/s) = 5.83772 6.26044 6.05277
#
# Compressibility (1/GPa) = 0.02254835
#
# Stress axis : x y z
#
# Youngs Moduli (GPa) = 96.37059 75.91661 65.47987
#
# Poissons Ratio (x) = 0.20679 0.20359
# Poissons Ratio (y) = 0.26251 0.15081
# Poissons Ratio (z) = 0.29963 0.17485
#
# Static dielectric constant tensor:
#      x y z
#    x 1.711860 0.000000 0.000000 
#    y 0.000000 1.710740 0.000000 
#    z 0.000000 0.000000 1.641580 
# 
# From -- ./inp_files/59676.got.cif
#   From: 2010.05.17/outbox.cif.g08.bks.cpg/sg63_30_cif.got.tgz:59676.got - 2010.06.03 15:47:04.
