data_PCOD9473154
_publ_section_title
;
Structure prediction by ZEFSAII (Michael W. Deem and Ramdas Pophale) SiO2 
 PCOD9473154
Probable space group: C M C M
;
_chemical_formula_sum "Si O2"
_cell_formula_units_Z 72
_cell_length_a 13.605883
_cell_length_b 30.425563
_cell_length_c 9.161667
_cell_angle_alpha 90.000000
_cell_angle_beta 90.000000
_cell_angle_gamma 90.000000
_cell_volume 3792.624600
_symmetry_space_group_name_H-M "C M C M"
_symmetry_group_IT_number 63
_symmetry_cell_setting 'orthorhombic'
loop_
_space_group_symop_operation_xyz
x,y,z
-x,-y,1/2+z
x,-y,-z
-x,y,1/2-z
-x,-y,-z
x,y,1/2-z
-x,y,z
x,-y,1/2+z
1/2+x,1/2+y,z
1/2-x,1/2-y,1/2+z
1/2+x,1/2-y,-z
1/2-x,1/2+y,1/2-z
1/2-x,1/2-y,-z
1/2+x,1/2+y,1/2-z
1/2-x,1/2+y,z
1/2+x,1/2-y,1/2+z
loop_
_atom_site_type_symbol
_atom_site_label
_atom_site_fract_x
_atom_site_fract_y
_atom_site_fract_z
Si Si1 0.117958 0.216473 0.414154
Si Si2 0.886304 0.875170 0.424400
Si Si3 0.500000 0.952526 0.572920
Si Si4 0.802361 0.600209 0.077857
Si Si5 0.385101 0.197564 0.419373
O O1 0.155904 0.208668 0.250000
O O2 0.132860 0.174149 0.515292
O O3 0.150736 0.262922 0.479764
O O4 0.000000 0.220360 0.405034
O O5 0.879843 0.875417 0.250000
O O6 0.800150 0.905121 0.492541
O O7 0.000000 0.886432 0.465332
O O8 0.500000 0.954891 0.750000
O O9 0.601241 0.927362 0.531326
O O10 0.500000 0.000000 0.500000
O O11 0.786155 0.591913 0.250000
O O12 0.832905 0.651221 0.061460
O O13 0.378711 0.211345 0.250000
O O14 0.500000 0.189826 0.449964
#
# Coordination Sequence:
#
# PCOD9473154 Si02
#       5
#    16  16   8  16  16
#     4   9  17  29  46  71 105 147 193 238 279 324
#     4  10  21  36  53  77 111 151 195 237 277 324
#     4  10  22  42  66  94 122 146 176 222 286 354
#     4  10  20  36  59  84 111 145 184 227 280 340
#     4   9  16  29  49  73 105 144 185 231 281 331
#
# _framework density 18.984214000000001
#
# number of rings (size 3 to 8) (size 9 to 14) (size 15 to 20)
#    0.000    2.444    1.111    1.333    0.000    6.667 
#    0.000    0.000    0.000    0.667    0.000    0.000 
#    0.000    0.000    0.000    0.000    0.000    0.000 
#
# Total GULP energy -200813.994509 kJ/mol
# GULP energy per Si atom -5578.166514 kJ/mol
# Density = 1.894101 g / cm^3
# Si number density = 18.984214 Si / 1000 Ang^3
#
#
#
# Elastic Constant Matrix: (Units=GPa)
#
#
# Indices 1 2 3 4 5 6 
#
# 1 148.6034 56.3723 62.9863 0.0000 0.0000 0.0000
# 2 56.3723 57.9031 33.1103 0.0000 0.0000 0.0000
# 3 62.9863 33.1103 59.6003 0.0000 0.0000 0.0000
# 4 0.0000 0.0000 0.0000 26.1580 0.0000 0.0000
# 5 0.0000 0.0000 0.0000 0.0000 22.9730 0.0000
# 6 0.0000 0.0000 0.0000 0.0000 0.0000 5.0508
#
#
#
# Elastic Compliance Matrix: (Units=1/GPa)
#
#
# Indices 1 2 3 4 5 6 
#
# 1 0.014191 -0.007680 -0.010731 0.000000 0.000000 0.000000
# 2 -0.007680 0.029467 -0.008254 0.000000 0.000000 0.000000
# 3 -0.010731 -0.008254 0.032704 0.000000 0.000000 0.000000
# 4 0.000000 0.000000 0.000000 0.038229 0.000000 0.000000
# 5 0.000000 0.000000 0.000000 0.000000 0.043529 0.000000
# 6 0.000000 0.000000 0.000000 0.000000 0.000000 0.197990
#
#
# Mechanical properties :
#
#
# Convention : Reuss Voigt Hill
#
# Bulk Modulus (GPa) = 43.41582 63.44939 53.43261
# Shear Modulus (GPa) = 11.98706 18.41220 15.19963
#
# Velocity S-wave (km/s) = 2.51554 3.11765 2.83264
# Velocity P-wave (km/s) = 5.59967 6.81575 6.23742
#
# Compressibility (1/GPa) = 0.02303308
#
# Stress axis : x y z
#
# Youngs Moduli (GPa) = 70.46802 33.93672 30.57720
#
# Poissons Ratio (x) = 0.26062 0.32811
# Poissons Ratio (y) = 0.54117 0.25238
# Poissons Ratio (z) = 0.75617 0.28011
#
# Static dielectric constant tensor:
#      x y z
#    x 1.753610 0.000000 0.000000 
#    y 0.000000 1.609610 0.000000 
#    z 0.000000 0.000000 1.657080 
# 
# From -- ./inp_files/4654.got.cif
#   From: 2010.05.17/outbox.cif.g08.bks.cpg/sg63_3_cif.got.tgz:4654.got - 2010.06.03 15:47:04.
