data_PCOD9473299
_publ_section_title
;
Structure prediction by ZEFSAII (Michael W. Deem and Ramdas Pophale) SiO2 
 PCOD9473299
Probable space group: C M C M
;
_chemical_formula_sum "Si O2"
_cell_formula_units_Z 96
_cell_length_a 16.730065
_cell_length_b 11.494963
_cell_length_c 25.831488
_cell_angle_alpha 90.000000
_cell_angle_beta 90.000000
_cell_angle_gamma 90.000000
_cell_volume 4967.691640
_symmetry_space_group_name_H-M "C M C M"
_symmetry_group_IT_number 63
_symmetry_cell_setting 'orthorhombic'
loop_
_space_group_symop_operation_xyz
x,y,z
-x,-y,1/2+z
x,-y,-z
-x,y,1/2-z
-x,-y,-z
x,y,1/2-z
-x,y,z
x,-y,1/2+z
1/2+x,1/2+y,z
1/2-x,1/2-y,1/2+z
1/2+x,1/2-y,-z
1/2-x,1/2+y,1/2-z
1/2-x,1/2-y,-z
1/2+x,1/2+y,1/2-z
1/2-x,1/2+y,z
1/2+x,1/2-y,1/2+z
loop_
_atom_site_type_symbol
_atom_site_label
_atom_site_fract_x
_atom_site_fract_y
_atom_site_fract_z
Si Si1 0.736958 0.168516 0.190690
Si Si2 0.307735 0.009873 0.603446
Si Si3 0.090126 0.901821 0.840349
Si Si4 0.906109 0.319631 0.956353
Si Si5 0.845037 0.866901 0.377085
Si Si6 0.092187 0.721395 0.926365
O O1 0.710793 0.166661 0.250000
O O2 0.701676 0.062148 0.156591
O O3 0.833203 0.151563 0.188704
O O4 0.705083 0.283874 0.161798
O O5 0.349751 0.924475 0.562571
O O6 0.219515 0.056775 0.591118
O O7 0.360652 0.125000 0.605631
O O8 0.097691 0.843760 0.897387
O O9 0.000000 0.875745 0.821373
O O10 0.102741 0.039764 0.845959
O O11 0.893311 0.215497 0.915681
O O12 0.000000 0.353700 0.956310
O O13 0.881954 0.280194 0.013974
O O14 0.000000 0.686680 0.926213
#
# Coordination Sequence:
#
# PCOD9473299 Si02
#       6
#    16  16  16  16  16  16
#     4  10  22  41  62  82 109 149 194 241 297 346
#     4  10  20  37  57  87 115 149 191 240 283 330
#     4  10  21  39  60  85 118 150 188 238 285 338
#     4  10  21  37  59  84 118 163 195 223 274 340
#     4  10  21  38  57  88 116 151 190 241 284 335
#     4  10  20  37  59  86 121 158 191 228 280 340
#
# _framework density 19.324871000000002
#
# number of rings (size 3 to 8) (size 9 to 14) (size 15 to 20)
#    0.000    2.000    1.667    1.500    0.000    5.667 
#    6.000    2.500    0.000   17.500    0.000    0.000 
#    0.000    0.000    0.000    0.000    0.000    0.000 
#
# Total GULP energy -267670.279252 kJ/mol
# GULP energy per Si atom -5576.464151 kJ/mol
# Density = 1.928089 g / cm^3
# Si number density = 19.324871 Si / 1000 Ang^3
#
#
#
# Elastic Constant Matrix: (Units=GPa)
#
#
# Indices 1 2 3 4 5 6 
#
# 1 74.7028 29.7709 36.4141 0.0000 0.0000 0.0000
# 2 29.7709 72.8233 23.7814 0.0000 0.0000 0.0000
# 3 36.4141 23.7814 86.6135 0.0000 0.0000 0.0000
# 4 0.0000 0.0000 0.0000 3.7317 0.0000 0.0000
# 5 0.0000 0.0000 0.0000 0.0000 11.3228 0.0000
# 6 0.0000 0.0000 0.0000 0.0000 0.0000 25.8814
#
#
#
# Elastic Compliance Matrix: (Units=1/GPa)
#
#
# Indices 1 2 3 4 5 6 
#
# 1 0.018693 -0.005575 -0.006328 0.000000 0.000000 0.000000
# 2 -0.005575 0.016747 -0.002254 0.000000 0.000000 0.000000
# 3 -0.006328 -0.002254 0.014825 0.000000 0.000000 0.000000
# 4 0.000000 0.000000 0.000000 0.267978 0.000000 0.000000
# 5 0.000000 0.000000 0.000000 0.000000 0.088317 0.000000
# 6 0.000000 0.000000 0.000000 0.000000 0.000000 0.038638
#
#
# Mechanical properties :
#
#
# Convention : Reuss Voigt Hill
#
# Bulk Modulus (GPa) = 45.55862 46.00804 45.78333
# Shear Modulus (GPa) = 10.39868 17.79872 14.09870
#
# Velocity S-wave (km/s) = 2.32221 3.03813 2.70397
# Velocity P-wave (km/s) = 5.55126 6.01385 5.78718
#
# Compressibility (1/GPa) = 0.02194974
#
# Stress axis : x y z
#
# Youngs Moduli (GPa) = 53.49614 59.71113 67.45387
#
# Poissons Ratio (x) = 0.33291 0.42685
# Poissons Ratio (y) = 0.29826 0.15206
# Poissons Ratio (z) = 0.33853 0.13461
#
# Static dielectric constant tensor:
#      x y z
#    x 1.765700 0.000000 0.000000 
#    y 0.000000 1.686000 0.000000 
#    z 0.000000 0.000000 1.651020 
# 
# From -- ./inp_files/63662.got.cif
#   From: 2010.05.17/outbox.cif.g08.bks.cpg/sg63_32_cif.got.tgz:63662.got - 2010.06.03 15:47:04.
