data_PCOD9473095
_publ_section_title
;
Structure prediction by ZEFSAII (Michael W. Deem and Ramdas Pophale) SiO2 
 PCOD9473095
Probable space group: C M C M
;
_chemical_formula_sum "Si O2"
_cell_formula_units_Z 80
_cell_length_a 7.646566
_cell_length_b 16.135730
_cell_length_c 30.176921
_cell_angle_alpha 90.000000
_cell_angle_beta 90.000000
_cell_angle_gamma 90.000000
_cell_volume 3723.316762
_symmetry_space_group_name_H-M "C M C M"
_symmetry_group_IT_number 63
_symmetry_cell_setting 'orthorhombic'
loop_
_space_group_symop_operation_xyz
x,y,z
-x,-y,1/2+z
x,-y,-z
-x,y,1/2-z
-x,-y,-z
x,y,1/2-z
-x,y,z
x,-y,1/2+z
1/2+x,1/2+y,z
1/2-x,1/2-y,1/2+z
1/2+x,1/2-y,-z
1/2-x,1/2+y,1/2-z
1/2-x,1/2-y,-z
1/2+x,1/2+y,1/2-z
1/2-x,1/2+y,z
1/2+x,1/2-y,1/2+z
loop_
_atom_site_type_symbol
_atom_site_label
_atom_site_fract_x
_atom_site_fract_y
_atom_site_fract_z
Si Si1 0.785358 0.408656 0.606203
Si Si2 0.211035 0.656245 0.798618
Si Si3 0.291566 0.910490 0.391515
Si Si4 0.709324 0.148184 0.201680
Si Si5 0.207247 0.749649 0.051680
O O1 0.728554 0.500244 0.591664
O O2 0.727974 0.395286 0.657104
O O3 0.721770 0.332070 0.576575
O O4 0.000000 0.405760 0.605444
O O5 0.273833 0.627834 0.750000
O O6 0.278625 0.610757 0.842384
O O7 0.254878 0.753657 0.802668
O O8 0.000000 0.648940 0.798368
O O9 0.500000 0.918605 0.386531
O O10 0.262719 0.833540 0.423813
O O11 0.778120 0.121374 0.250000
O O12 0.500000 0.136489 0.202610
O O13 0.000000 0.746100 0.056060
O O14 0.250000 0.750000 0.000000
#
# Coordination Sequence:
#
# PCOD9473095 Si02
#       5
#    16  16  16  16  16
#     4   9  19  35  56  82 111 143 180 222 270 322
#     4   9  17  29  49  79 113 145 177 217 263 311
#     4  10  20  36  58  83 111 145 183 222 269 323
#     4   9  16  29  52  79 108 145 186 221 258 313
#     4  11  23  41  61  81 108 140 180 229 283 335
#
# _framework density 21.486218000000001
#
# number of rings (size 3 to 8) (size 9 to 14) (size 15 to 20)
#    0.000    2.400    2.000    0.600    0.000    1.600 
#    0.000   11.000    0.000    0.000    0.000    5.600 
#    0.000    0.000    0.000    0.000    0.000    0.000 
#
# Total GULP energy -223252.148939 kJ/mol
# GULP energy per Si atom -5581.303723 kJ/mol
# Density = 2.143731 g / cm^3
# Si number density = 21.486218 Si / 1000 Ang^3
#
#
#
# Elastic Constant Matrix: (Units=GPa)
#
#
# Indices 1 2 3 4 5 6 
#
# 1 34.9187 -1.2021 -3.8136 0.0000 0.0000 0.0000
# 2 -1.2021 177.4956 104.4151 0.0000 0.0000 0.0000
# 3 -3.8136 104.4151 156.2828 0.0000 0.0000 0.0000
# 4 0.0000 0.0000 0.0000 4.2068 0.0000 0.0000
# 5 0.0000 0.0000 0.0000 0.0000 14.5415 0.0000
# 6 0.0000 0.0000 0.0000 0.0000 0.0000 11.3921
#
#
#
# Elastic Compliance Matrix: (Units=1/GPa)
#
#
# Indices 1 2 3 4 5 6 
#
# 1 0.028728 -0.000359 0.000941 0.000000 0.000000 0.000000
# 2 -0.000359 0.009287 -0.006213 0.000000 0.000000 0.000000
# 3 0.000941 -0.006213 0.010573 0.000000 0.000000 0.000000
# 4 0.000000 0.000000 0.000000 0.237710 0.000000 0.000000
# 5 0.000000 0.000000 0.000000 0.000000 0.068769 0.000000
# 6 0.000000 0.000000 0.000000 0.000000 0.000000 0.087780
#
#
# Mechanical properties :
#
#
# Convention : Reuss Voigt Hill
#
# Bulk Modulus (GPa) = 26.79168 63.05509 44.92338
# Shear Modulus (GPa) = 10.71695 23.98128 17.34912
#
# Velocity S-wave (km/s) = 2.23577 3.34447 2.84465
# Velocity P-wave (km/s) = 4.37735 6.65766 5.63408
#
# Compressibility (1/GPa) = 0.03732502
#
# Stress axis : x y z
#
# Youngs Moduli (GPa) = 34.80884 107.68216 94.58231
#
# Poissons Ratio (x) = 0.03864 -0.08898
# Poissons Ratio (y) = 0.01249 0.58767
# Poissons Ratio (z) = -0.03275 0.66906
#
# Static dielectric constant tensor:
#      x y z
#    x 1.924270 0.000000 0.000000 
#    y 0.000000 1.777730 0.000000 
#    z 0.000000 0.000000 1.756120 
# 
# From -- ./inp_files/71576.got.cif
#   From: 2010.05.17/outbox.cif.g08.bks.cpg/sg63_36_cif.got.tgz:71576.got - 2010.06.03 15:47:04.
