data_PCOD9473342
_publ_section_title
;
Structure prediction by ZEFSAII (Michael W. Deem and Ramdas Pophale) SiO2 
 PCOD9473342
Probable space group: C M C M
;
_chemical_formula_sum "Si O2"
_cell_formula_units_Z 116
_cell_length_a 9.157938
_cell_length_b 29.727031
_cell_length_c 23.049602
_cell_angle_alpha 90.000000
_cell_angle_beta 90.000000
_cell_angle_gamma 90.000000
_cell_volume 6274.984621
_symmetry_space_group_name_H-M "C M C M"
_symmetry_group_IT_number 63
_symmetry_cell_setting 'orthorhombic'
loop_
_space_group_symop_operation_xyz
x,y,z
-x,-y,1/2+z
x,-y,-z
-x,y,1/2-z
-x,-y,-z
x,y,1/2-z
-x,y,z
x,-y,1/2+z
1/2+x,1/2+y,z
1/2-x,1/2-y,1/2+z
1/2+x,1/2-y,-z
1/2-x,1/2+y,1/2-z
1/2-x,1/2-y,-z
1/2+x,1/2+y,1/2-z
1/2-x,1/2+y,z
1/2+x,1/2-y,1/2+z
loop_
_atom_site_type_symbol
_atom_site_label
_atom_site_fract_x
_atom_site_fract_y
_atom_site_fract_z
Si Si1 0.670375 0.322954 0.628728
Si Si2 0.332309 0.737678 0.681780
Si Si3 0.674492 0.548563 0.472281
Si Si4 0.330185 0.297118 0.497181
Si Si5 0.826247 0.641502 0.816219
Si Si6 0.838073 0.413446 0.861888
Si Si7 0.175854 0.881011 0.426210
Si Si8 0.000000 0.556599 0.250000
O O1 0.500000 0.321486 0.645233
O O2 0.751663 0.278185 0.649912
O O3 0.679380 0.322169 0.558883
O O4 0.747486 0.368118 0.650503
O O5 0.335833 0.749262 0.750000
O O6 0.500000 0.732392 0.661661
O O7 0.247092 0.690688 0.677431
O O8 0.705205 0.500000 0.500000
O O9 0.500000 0.551961 0.461191
O O10 0.758253 0.559040 0.412686
O O11 0.711207 0.584524 0.522439
O O12 0.500000 0.288102 0.486104
O O13 0.250000 0.250000 0.500000
O O14 0.276505 0.331746 0.448844
O O15 0.797850 0.626376 0.750000
O O16 0.754468 0.610681 0.865409
O O17 0.000000 0.644790 0.824029
O O18 0.000000 0.399373 0.883974
O O19 0.874588 0.439377 0.802262
O O20 0.000000 0.881067 0.418901
#
# Coordination Sequence:
#
# PCOD9473342 Si02
#       8
#    16  16  16  16  16  16  16   4
#     4  11  21  34  52  78 114 156 205 258 304 356
#     4  10  21  34  50  74 109 157 210 254 297 356
#     4  10  21  41  70  98 122 152 199 259 311 367
#     4  10  21  34  49  75 114 151 193 244 301 352
#     4  10  21  37  55  79 114 153 202 253 300 357
#     4  10  21  39  61  86 124 160 200 242 300 362
#     4  10  20  37  59  85 116 151 194 244 303 365
#     4   8  24  40  60  88 128 164 204 244 296 368
#
# _framework density 18.486101000000001
#
# number of rings (size 3 to 8) (size 9 to 14) (size 15 to 20)
#    0.414    1.517    1.379    2.483    0.966    6.345 
#    0.000    1.034    1.517    0.000    0.000    0.000 
#    0.000    0.000    0.000    0.000    0.000    0.000 
#
# Total GULP energy -323029.723494 kJ/mol
# GULP energy per Si atom -5569.477991 kJ/mol
# Density = 1.844403 g / cm^3
# Si number density = 18.486101 Si / 1000 Ang^3
#
#
#
# Elastic Constant Matrix: (Units=GPa)
#
#
# Indices 1 2 3 4 5 6 
#
# 1 76.6172 25.1792 54.7698 0.0000 0.0000 0.0000
# 2 25.1792 47.9075 36.1563 0.0000 0.0000 0.0000
# 3 54.7698 36.1563 141.0711 0.0000 0.0000 0.0000
# 4 0.0000 0.0000 0.0000 11.6032 0.0000 0.0000
# 5 0.0000 0.0000 0.0000 0.0000 38.8736 0.0000
# 6 0.0000 0.0000 0.0000 0.0000 0.0000 16.8476
#
#
#
# Elastic Compliance Matrix: (Units=1/GPa)
#
#
# Indices 1 2 3 4 5 6 
#
# 1 0.019179 -0.005530 -0.006029 0.000000 0.000000 0.000000
# 2 -0.005530 0.027474 -0.004895 0.000000 0.000000 0.000000
# 3 -0.006029 -0.004895 0.010684 0.000000 0.000000 0.000000
# 4 0.000000 0.000000 0.000000 0.086183 0.000000 0.000000
# 5 0.000000 0.000000 0.000000 0.000000 0.025724 0.000000
# 6 0.000000 0.000000 0.000000 0.000000 0.000000 0.059356
#
#
# Mechanical properties :
#
#
# Convention : Reuss Voigt Hill
#
# Bulk Modulus (GPa) = 40.93343 55.31185 48.12264
# Shear Modulus (GPa) = 18.54257 23.43090 20.98674
#
# Velocity S-wave (km/s) = 3.17054 3.56404 3.37303
# Velocity P-wave (km/s) = 5.96607 6.84998 6.42325
#
# Compressibility (1/GPa) = 0.02442991
#
# Stress axis : x y z
#
# Youngs Moduli (GPa) = 52.14049 36.39803 93.60059
#
# Poissons Ratio (x) = 0.20129 0.56429
# Poissons Ratio (y) = 0.28834 0.45813
# Poissons Ratio (z) = 0.31434 0.17815
#
# Static dielectric constant tensor:
#      x y z
#    x 1.631050 0.000000 0.000000 
#    y 0.000000 1.627590 0.000000 
#    z 0.000000 0.000000 1.666400 
# 
# From -- ./inp_files/60601.got.cif
#   From: 2010.05.17/outbox.cif.g08.bks.cpg/sg63_31_cif.got.tgz:60601.got - 2010.06.03 15:47:04.
