data_PCOD9473483
_publ_section_title
;
Structure prediction by ZEFSAII (Michael W. Deem and Ramdas Pophale) SiO2 
 PCOD9473483
Probable space group: C M C M
;
_chemical_formula_sum "Si O2"
_cell_formula_units_Z 80
_cell_length_a 29.535383
_cell_length_b 7.858213
_cell_length_c 16.155766
_cell_angle_alpha 90.000000
_cell_angle_beta 90.000000
_cell_angle_gamma 90.000000
_cell_volume 3749.677852
_symmetry_space_group_name_H-M "C M C M"
_symmetry_group_IT_number 63
_symmetry_cell_setting 'orthorhombic'
loop_
_space_group_symop_operation_xyz
x,y,z
-x,-y,1/2+z
x,-y,-z
-x,y,1/2-z
-x,-y,-z
x,y,1/2-z
-x,y,z
x,-y,1/2+z
1/2+x,1/2+y,z
1/2-x,1/2-y,1/2+z
1/2+x,1/2-y,-z
1/2-x,1/2+y,1/2-z
1/2-x,1/2-y,-z
1/2+x,1/2+y,1/2-z
1/2-x,1/2+y,z
1/2+x,1/2-y,1/2+z
loop_
_atom_site_type_symbol
_atom_site_label
_atom_site_fract_x
_atom_site_fract_y
_atom_site_fract_z
Si Si1 0.447358 0.736113 0.750000
Si Si2 0.447921 0.681361 0.250000
Si Si3 0.293868 0.754974 0.344082
Si Si4 0.607071 0.273114 0.411926
Si Si5 0.203804 0.603942 0.413265
Si Si6 0.107238 0.179804 0.092085
O O1 0.500000 0.786160 0.750000
O O2 0.446221 0.527133 0.750000
O O3 0.421463 0.792511 0.833721
O O4 0.500000 0.731449 0.250000
O O5 0.421783 0.743593 0.330962
O O6 0.291484 0.688934 0.250000
O O7 0.250159 0.703467 0.397274
O O8 0.339735 0.696912 0.388177
O O9 0.297052 0.957831 0.344446
O O10 0.659686 0.221119 0.404231
O O11 0.600453 0.476817 0.412193
O O12 0.594679 0.227323 0.506618
O O13 0.202900 0.500000 0.500000
#
# Coordination Sequence:
#
# PCOD9473483 Si02
#       6
#     8   8  16  16  16  16
#     4   9  20  38  62  91 122 157 204 259 308 369
#     4   9  18  36  62  93 122 153 200 257 316 365
#     4  12  25  39  59  88 126 160 208 249 303 366
#     4  10  22  37  62  89 123 161 205 249 310 365
#     4  12  25  41  60  89 122 168 205 255 300 369
#     4  10  20  38  60  91 124 160 199 257 305 364
#
# _framework density 21.335165
#
# number of rings (size 3 to 8) (size 9 to 14) (size 15 to 20)
#    0.000    1.400    3.000    2.400    5.600    0.800 
#    0.000    4.000    0.000    3.000    0.000    0.000 
#    0.000    0.000    0.000    0.000    0.000    0.000 
#
# Total GULP energy -223370.146917 kJ/mol
# GULP energy per Si atom -5584.253673 kJ/mol
# Density = 2.128661 g / cm^3
# Si number density = 21.335165 Si / 1000 Ang^3
#
#
#
# Elastic Constant Matrix: (Units=GPa)
#
#
# Indices 1 2 3 4 5 6 
#
# 1 155.2000 -8.2130 112.0636 0.0000 0.0000 0.0000
# 2 -8.2130 17.4458 13.0577 0.0000 0.0000 0.0000
# 3 112.0636 13.0577 217.0359 0.0000 0.0000 0.0000
# 4 0.0000 0.0000 0.0000 51.9657 0.0000 0.0000
# 5 0.0000 0.0000 0.0000 0.0000 0.5506 0.0000
# 6 0.0000 0.0000 0.0000 0.0000 0.0000 20.7514
#
#
#
# Elastic Compliance Matrix: (Units=1/GPa)
#
#
# Indices 1 2 3 4 5 6 
#
# 1 0.011917 0.010697 -0.006797 0.000000 0.000000 0.000000
# 2 0.010697 0.069626 -0.009712 0.000000 0.000000 0.000000
# 3 -0.006797 -0.009712 0.008701 0.000000 0.000000 0.000000
# 4 0.000000 0.000000 0.000000 0.019243 0.000000 0.000000
# 5 0.000000 0.000000 0.000000 0.000000 1.816045 0.000000
# 6 0.000000 0.000000 0.000000 0.000000 0.000000 0.048190
#
#
# Mechanical properties :
#
#
# Convention : Reuss Voigt Hill
#
# Bulk Modulus (GPa) = 12.71930 69.27758 40.99844
# Shear Modulus (GPa) = 2.48564 32.83843 17.66204
#
# Velocity S-wave (km/s) = 1.08054 3.92748 2.88034
# Velocity P-wave (km/s) = 2.74433 7.28755 5.50635
#
# Compressibility (1/GPa) = 0.07862070
#
# Stress axis : x y z
#
# Youngs Moduli (GPa) = 83.91289 14.36247 114.92492
#
# Poissons Ratio (x) = -0.15364 0.78113
# Poissons Ratio (y) = -0.89766 1.11620
# Poissons Ratio (z) = 0.57034 0.13949
#
# Static dielectric constant tensor:
#      x y z
#    x 1.772220 0.000000 0.000000 
#    y 0.000000 1.818270 0.000000 
#    z 0.000000 0.000000 1.816570 
# 
# From -- ./inp_files/48848.got.cif
#   From: 2010.05.17/outbox.cif.g08.bks.cpg/sg63_25_cif.got.tgz:48848.got - 2010.06.03 15:47:04.
