data_PCOD9473258
_publ_section_title
;
Structure prediction by ZEFSAII (Michael W. Deem and Ramdas Pophale) SiO2 
 PCOD9473258
Probable space group: C M C M
;
_chemical_formula_sum "Si O2"
_cell_formula_units_Z 92
_cell_length_a 22.175176
_cell_length_b 13.058462
_cell_length_c 16.303574
_cell_angle_alpha 90.000000
_cell_angle_beta 90.000000
_cell_angle_gamma 90.000000
_cell_volume 4721.086135
_symmetry_space_group_name_H-M "C M C M"
_symmetry_group_IT_number 63
_symmetry_cell_setting 'orthorhombic'
loop_
_space_group_symop_operation_xyz
x,y,z
-x,-y,1/2+z
x,-y,-z
-x,y,1/2-z
-x,-y,-z
x,y,1/2-z
-x,y,z
x,-y,1/2+z
1/2+x,1/2+y,z
1/2-x,1/2-y,1/2+z
1/2+x,1/2-y,-z
1/2-x,1/2+y,1/2-z
1/2-x,1/2-y,-z
1/2+x,1/2+y,1/2-z
1/2-x,1/2+y,z
1/2+x,1/2-y,1/2+z
loop_
_atom_site_type_symbol
_atom_site_label
_atom_site_fract_x
_atom_site_fract_y
_atom_site_fract_z
Si Si1 0.279417 0.040559 0.847216
Si Si2 0.632755 0.862440 0.591240
Si Si3 0.571401 0.529689 0.750000
Si Si4 0.500000 0.931969 0.750000
Si Si5 0.307758 0.236320 0.559319
Si Si6 0.108374 0.265029 0.750000
Si Si7 0.150203 0.035795 0.092236
Si Si8 0.500000 0.939460 0.582293
O O1 0.278206 0.021564 0.750000
O O2 0.294472 0.157692 0.867909
O O3 0.328920 0.964294 0.887816
O O4 0.214129 0.017509 0.886119
O O5 0.648217 0.819918 0.503136
O O6 0.645364 0.784868 0.666650
O O7 0.561423 0.877781 0.586584
O O8 0.500000 0.506089 0.750000
O O9 0.580296 0.652992 0.750000
O O10 0.604330 0.489274 0.833239
O O11 0.557528 0.855284 0.750000
O O12 0.500000 0.999364 0.668651
O O13 0.250000 0.250000 0.500000
O O14 0.333938 0.344016 0.587921
O O15 0.131165 0.000000 0.000000
O O16 0.500000 0.000000 0.500000
#
# Coordination Sequence:
#
# PCOD9473258 Si02
#       8
#    16  16   8   4  16   8  16   8
#     4  12  24  41  67 102 137 176 222 288 353 413
#     4  11  22  42  66  98 137 173 230 282 344 412
#     4  12  28  47  71 101 143 180 233 290 339 405
#     4   8  18  34  56  92 118 156 230 264 316 396
#     4  12  24  41  68  95 139 178 223 285 348 414
#     4  10  20  39  68  93 123 178 221 282 335 393
#     4  12  25  46  70 102 134 182 233 282 344 410
#     4  10  20  36  62  91 130 175 217 274 335 400
#
# _framework density 19.487041000000001
#
# number of rings (size 3 to 8) (size 9 to 14) (size 15 to 20)
#    0.000    0.696    5.652    2.609    1.217    0.348 
#    1.565    0.000    0.000    0.000    0.000    0.000 
#    0.000    0.000    0.000    0.000    0.000    0.000 
#
# Total GULP energy -256716.528954 kJ/mol
# GULP energy per Si atom -5580.794108 kJ/mol
# Density = 1.944269 g / cm^3
# Si number density = 19.487041 Si / 1000 Ang^3
#
#
#
# Elastic Constant Matrix: (Units=GPa)
#
#
# Indices 1 2 3 4 5 6 
#
# 1 109.4587 25.7200 38.0039 0.0000 0.0000 0.0000
# 2 25.7200 101.1022 52.5880 0.0000 0.0000 0.0000
# 3 38.0039 52.5880 144.7261 0.0000 0.0000 0.0000
# 4 0.0000 0.0000 0.0000 28.7300 0.0000 0.0000
# 5 0.0000 0.0000 0.0000 0.0000 21.3416 0.0000
# 6 0.0000 0.0000 0.0000 0.0000 0.0000 16.6712
#
#
#
# Elastic Compliance Matrix: (Units=1/GPa)
#
#
# Indices 1 2 3 4 5 6 
#
# 1 0.010230 -0.001486 -0.002146 0.000000 0.000000 0.000000
# 2 -0.001486 0.012412 -0.004120 0.000000 0.000000 0.000000
# 3 -0.002146 -0.004120 0.008970 0.000000 0.000000 0.000000
# 4 0.000000 0.000000 0.000000 0.034807 0.000000 0.000000
# 5 0.000000 0.000000 0.000000 0.000000 0.046857 0.000000
# 6 0.000000 0.000000 0.000000 0.000000 0.000000 0.059984
#
#
# Mechanical properties :
#
#
# Convention : Reuss Voigt Hill
#
# Bulk Modulus (GPa) = 62.08152 65.32341 63.70246
# Shear Modulus (GPa) = 25.75546 29.28023 27.51785
#
# Velocity S-wave (km/s) = 3.63942 3.88048 3.76188
# Velocity P-wave (km/s) = 7.04184 7.32610 7.18538
#
# Compressibility (1/GPa) = 0.01610785
#
# Stress axis : x y z
#
# Youngs Moduli (GPa) = 97.74891 80.56764 111.48011
#
# Poissons Ratio (x) = 0.11973 0.23928
# Poissons Ratio (y) = 0.14526 0.45927
# Poissons Ratio (z) = 0.20981 0.33192
#
# Static dielectric constant tensor:
#      x y z
#    x 1.849230 0.000000 0.000000 
#    y 0.000000 1.702390 0.000000 
#    z 0.000000 0.000000 1.797570 
# 
# From -- ./inp_files/46984.got.cif
#   From: 2010.05.17/outbox.cif.g08.bks.cpg/sg63_24_cif.got.tgz:46984.got - 2010.06.03 15:47:04.
