data_PCOD9473019
_publ_section_title
;
Structure prediction by ZEFSAII (Michael W. Deem and Ramdas Pophale) SiO2 
 PCOD9473019
Probable space group: C M C M
;
_chemical_formula_sum "Si O2"
_cell_formula_units_Z 104
_cell_length_a 27.308927
_cell_length_b 22.293668
_cell_length_c 9.378276
_cell_angle_alpha 90.000000
_cell_angle_beta 90.000000
_cell_angle_gamma 90.000000
_cell_volume 5709.645906
_symmetry_space_group_name_H-M "C M C M"
_symmetry_group_IT_number 63
_symmetry_cell_setting 'orthorhombic'
loop_
_space_group_symop_operation_xyz
x,y,z
-x,-y,1/2+z
x,-y,-z
-x,y,1/2-z
-x,-y,-z
x,y,1/2-z
-x,y,z
x,-y,1/2+z
1/2+x,1/2+y,z
1/2-x,1/2-y,1/2+z
1/2+x,1/2-y,-z
1/2-x,1/2+y,1/2-z
1/2-x,1/2-y,-z
1/2+x,1/2+y,1/2-z
1/2-x,1/2+y,z
1/2+x,1/2-y,1/2+z
loop_
_atom_site_type_symbol
_atom_site_label
_atom_site_fract_x
_atom_site_fract_y
_atom_site_fract_z
Si Si1 0.942779 0.803703 0.077656
Si Si2 0.739229 0.689076 0.581791
Si Si3 0.210331 0.581769 0.411051
Si Si4 0.941633 0.316970 0.083932
Si Si5 0.857377 0.115819 0.584340
Si Si6 0.388819 0.056800 0.921391
Si Si7 0.794511 0.000000 0.500000
O O1 0.939072 0.800244 0.250000
O O2 0.907660 0.857230 0.023117
O O3 0.000000 0.813381 0.041536
O O4 0.927014 0.739862 0.011602
O O5 0.752120 0.691703 0.750000
O O6 0.750000 0.750000 0.500000
O O7 0.768166 0.637294 0.499231
O O8 0.682700 0.668766 0.572131
O O9 0.195525 0.597587 0.250000
O O10 0.163917 0.561898 0.503311
O O11 0.253956 0.532654 0.400685
O O12 0.931717 0.302613 0.250000
O O13 0.915704 0.379990 0.052409
O O14 0.000000 0.324949 0.067174
O O15 0.867024 0.104786 0.750000
O O16 0.830632 0.055109 0.535378
O O17 0.385058 0.047503 0.750000
O O18 0.413570 0.000000 0.000000
#
# Coordination Sequence:
#
# PCOD9473019 Si02
#       7
#    16  16  16  16  16  16   8
#     4   9  18  35  60  87 113 145 185 229 281 340
#     4  10  21  36  53  78 112 146 185 233 284 338
#     4  11  22  36  56  78 108 149 191 234 281 337
#     4   9  20  39  59  81 112 147 183 231 287 340
#     4   9  19  35  55  80 111 147 186 234 283 333
#     4  11  23  37  56  82 111 148 190 236 284 336
#     4  10  20  36  57  78 111 152 194 232 282 342
#
# _framework density 18.214790000000001
#
# number of rings (size 3 to 8) (size 9 to 14) (size 15 to 20)
#    0.000    2.154    0.769    1.846    2.154    2.769 
#    0.000    4.231    0.000    0.000    0.000    0.000 
#    0.000    0.000    0.000    0.000    0.000    0.000 
#
# Total GULP energy -289518.476478 kJ/mol
# GULP energy per Si atom -5567.663009 kJ/mol
# Density = 1.817333 g / cm^3
# Si number density = 18.214790 Si / 1000 Ang^3
#
#
#
# Elastic Constant Matrix: (Units=GPa)
#
#
# Indices 1 2 3 4 5 6 
#
# 1 54.3727 57.1760 33.9652 0.0000 0.0000 0.0000
# 2 57.1760 117.6307 54.8899 0.0000 0.0000 0.0000
# 3 33.9652 54.8899 84.0553 0.0000 0.0000 0.0000
# 4 0.0000 0.0000 0.0000 2.0820 0.0000 0.0000
# 5 0.0000 0.0000 0.0000 0.0000 13.8924 0.0000
# 6 0.0000 0.0000 0.0000 0.0000 0.0000 26.4175
#
#
#
# Elastic Compliance Matrix: (Units=1/GPa)
#
#
# Indices 1 2 3 4 5 6 
#
# 1 0.038951 -0.016667 -0.004855 0.000000 0.000000 0.000000
# 2 -0.016667 0.019359 -0.005907 0.000000 0.000000 0.000000
# 3 -0.004855 -0.005907 0.017716 0.000000 0.000000 0.000000
# 4 0.000000 0.000000 0.000000 0.480299 0.000000 0.000000
# 5 0.000000 0.000000 0.000000 0.000000 0.071982 0.000000
# 6 0.000000 0.000000 0.000000 0.000000 0.000000 0.037854
#
#
# Mechanical properties :
#
#
# Convention : Reuss Voigt Hill
#
# Bulk Modulus (GPa) = 47.24262 60.90235 54.07248
# Shear Modulus (GPa) = 6.86743 15.81355 11.34049
#
# Velocity S-wave (km/s) = 1.94382 2.94967 2.49790
# Velocity P-wave (km/s) = 5.57051 6.71632 6.17007
#
# Compressibility (1/GPa) = 0.02116733
#
# Stress axis : x y z
#
# Youngs Moduli (GPa) = 25.67335 51.65646 56.44541
#
# Poissons Ratio (x) = 0.86095 0.27407
# Poissons Ratio (y) = 0.42790 0.33341
# Poissons Ratio (z) = 0.12466 0.30513
#
# Static dielectric constant tensor:
#      x y z
#    x 1.653900 0.000000 0.000000 
#    y 0.000000 1.672430 0.000000 
#    z 0.000000 0.000000 1.632660 
# 
# From -- ./inp_files/12501.got.cif
#   From: 2010.05.17/outbox.cif.g08.bks.cpg/sg63_7_cif.got.tgz:12501.got - 2010.06.03 15:47:04.
