data_PCOD9473674
_publ_section_title
;
Structure prediction by ZEFSAII (Michael W. Deem and Ramdas Pophale) SiO2 
 PCOD9473674
Probable space group: C M C M
;
_chemical_formula_sum "Si O2"
_cell_formula_units_Z 64
_cell_length_a 24.916934
_cell_length_b 10.036389
_cell_length_c 13.420210
_cell_angle_alpha 90.000000
_cell_angle_beta 90.000000
_cell_angle_gamma 90.000000
_cell_volume 3356.073004
_symmetry_space_group_name_H-M "C M C M"
_symmetry_group_IT_number 63
_symmetry_cell_setting 'orthorhombic'
loop_
_space_group_symop_operation_xyz
x,y,z
-x,-y,1/2+z
x,-y,-z
-x,y,1/2-z
-x,-y,-z
x,y,1/2-z
-x,y,z
x,-y,1/2+z
1/2+x,1/2+y,z
1/2-x,1/2-y,1/2+z
1/2+x,1/2-y,-z
1/2-x,1/2+y,1/2-z
1/2-x,1/2-y,-z
1/2+x,1/2+y,1/2-z
1/2-x,1/2+y,z
1/2+x,1/2-y,1/2+z
loop_
_atom_site_type_symbol
_atom_site_label
_atom_site_fract_x
_atom_site_fract_y
_atom_site_fract_z
Si Si1 0.000000 0.390607 0.587706
Si Si2 0.692568 0.298746 0.750000
Si Si3 0.500000 0.359718 0.945875
Si Si4 0.880984 0.140377 0.058384
Si Si5 0.701116 0.977955 0.750000
Si Si6 0.382708 0.109255 0.085809
O O1 0.000000 0.500000 0.500000
O O2 0.000000 0.250830 0.531144
O O3 0.941631 0.398323 0.637484
O O4 0.659117 0.332058 0.649396
O O5 0.743684 0.396502 0.750000
O O6 0.706249 0.139555 0.750000
O O7 0.441705 0.348628 0.896050
O O8 0.500000 0.500000 0.000000
O O9 0.875696 0.251524 0.971905
O O10 0.874439 0.000000 0.000000
O O11 0.665588 0.929154 0.656963
O O12 0.384103 0.000000 0.000000
#
# Coordination Sequence:
#
# PCOD9473674 Si02
#       6
#     8   8   8  16   8  16
#     4   8  16  31  61  91 123 151 192 244 309 371
#     4  12  28  45  61  92 120 165 220 258 302 367
#     4   8  16  35  61  95 125 158 194 244 304 379
#     4  10  22  41  68  94 129 162 201 253 315 368
#     4  12  28  43  63  88 124 163 222 258 298 371
#     4  10  20  41  63  93 125 160 197 254 311 363
#
# _framework density 19.069906
#
# number of rings (size 3 to 8) (size 9 to 14) (size 15 to 20)
#    0.000    2.000    2.500    0.000    3.500    3.000 
#    0.000    1.250    0.000    9.000    0.000    0.000 
#    0.000    0.000    0.000    0.000    0.000    0.000 
#
# Total GULP energy -178223.205118 kJ/mol
# GULP energy per Si atom -5569.475160 kJ/mol
# Density = 1.902650 g / cm^3
# Si number density = 19.069906 Si / 1000 Ang^3
#
#
#
# Elastic Constant Matrix: (Units=GPa)
#
#
# Indices 1 2 3 4 5 6 
#
# 1 198.9700 58.0684 74.5115 0.0000 0.0000 0.0000
# 2 58.0684 173.8498 51.9035 0.0000 0.0000 0.0000
# 3 74.5115 51.9035 101.3280 0.0000 0.0000 0.0000
# 4 0.0000 0.0000 0.0000 17.0341 0.0000 0.0000
# 5 0.0000 0.0000 0.0000 0.0000 45.9249 0.0000
# 6 0.0000 0.0000 0.0000 0.0000 0.0000 28.3686
#
#
#
# Elastic Compliance Matrix: (Units=1/GPa)
#
#
# Indices 1 2 3 4 5 6 
#
# 1 0.007068 -0.000955 -0.004708 0.000000 0.000000 0.000000
# 2 -0.000955 0.006920 -0.002842 0.000000 0.000000 0.000000
# 3 -0.004708 -0.002842 0.014787 0.000000 0.000000 0.000000
# 4 0.000000 0.000000 0.000000 0.058706 0.000000 0.000000
# 5 0.000000 0.000000 0.000000 0.000000 0.021775 0.000000
# 6 0.000000 0.000000 0.000000 0.000000 0.000000 0.035250
#
#
# Mechanical properties :
#
#
# Convention : Reuss Voigt Hill
#
# Bulk Modulus (GPa) = 85.00748 93.67941 89.34345
# Shear Modulus (GPa) = 30.22308 37.57649 33.89979
#
# Velocity S-wave (km/s) = 3.98535 4.44380 4.22080
# Velocity P-wave (km/s) = 8.11485 8.69257 8.40867
#
# Compressibility (1/GPa) = 0.01176367
#
# Stress axis : x y z
#
# Youngs Moduli (GPa) = 141.48859 144.51617 67.62802
#
# Poissons Ratio (x) = 0.13803 0.31839
# Poissons Ratio (y) = 0.13514 0.19221
# Poissons Ratio (z) = 0.66613 0.41073
#
# Static dielectric constant tensor:
#      x y z
#    x 1.731180 0.000000 0.000000 
#    y 0.000000 1.735870 0.000000 
#    z 0.000000 0.000000 1.614530 
# 
# From -- ./inp_files/36267.got.cif
#   From: 2010.05.17/outbox.cif.g08.bks.cpg/sg63_19_cif.got.tgz:36267.got - 2010.06.03 15:47:04.
