data_PCOD9473772
_publ_section_title
;
Structure prediction by ZEFSAII (Michael W. Deem and Ramdas Pophale) SiO2 
 PCOD9473772
Probable space group: C M C M
;
_chemical_formula_sum "Si O2"
_cell_formula_units_Z 92
_cell_length_a 7.372172
_cell_length_b 28.508872
_cell_length_c 22.874382
_cell_angle_alpha 90.000000
_cell_angle_beta 90.000000
_cell_angle_gamma 90.000000
_cell_volume 4807.561657
_symmetry_space_group_name_H-M "C M C M"
_symmetry_group_IT_number 63
_symmetry_cell_setting 'orthorhombic'
loop_
_space_group_symop_operation_xyz
x,y,z
-x,-y,1/2+z
x,-y,-z
-x,y,1/2-z
-x,-y,-z
x,y,1/2-z
-x,y,z
x,-y,1/2+z
1/2+x,1/2+y,z
1/2-x,1/2-y,1/2+z
1/2+x,1/2-y,-z
1/2-x,1/2+y,1/2-z
1/2-x,1/2-y,-z
1/2+x,1/2+y,1/2-z
1/2-x,1/2+y,z
1/2+x,1/2-y,1/2+z
loop_
_atom_site_type_symbol
_atom_site_label
_atom_site_fract_x
_atom_site_fract_y
_atom_site_fract_z
Si Si1 0.716729 0.247191 0.185855
Si Si2 0.217354 0.627273 0.519058
Si Si3 0.000000 0.989005 0.750000
Si Si4 0.500000 0.413724 0.854031
Si Si5 0.714455 0.853237 0.350587
Si Si6 0.000000 0.946825 0.515409
Si Si7 0.722108 0.925748 0.250000
Si Si8 0.781703 0.661768 0.108305
O O1 0.787028 0.233639 0.250000
O O2 0.500000 0.242956 0.187260
O O3 0.755833 0.301531 0.174662
O O4 0.776692 0.211338 0.135813
O O5 0.278956 0.645853 0.582301
O O6 0.323210 0.579114 0.509445
O O7 0.262270 0.657454 0.460880
O O8 0.000000 0.621691 0.519419
O O9 0.172197 0.024835 0.750000
O O10 0.000000 0.952912 0.695632
O O11 0.500000 0.440141 0.915547
O O12 0.674215 0.379014 0.857245
O O13 0.500000 0.860547 0.353398
O O14 0.777863 0.894055 0.306491
O O15 0.000000 0.000000 0.500000
O O16 0.500000 0.931168 0.250000
O O17 0.000000 0.656134 0.114129
#
# Coordination Sequence:
#
# PCOD9473772 Si02
#       8
#    16  16   4   8  16   8   8  16
#     4  10  21  34  56  88 115 158 201 232 297 357
#     4   9  20  38  59  83 116 155 193 247 298 346
#     4  12  28  40  66  90 114 162 208 244 306 346
#     4  10  24  42  58  96 114 154 208 244 294 359
#     4  10  21  37  58  87 119 158 198 241 296 359
#     4  10  22  38  62  86 116 152 202 246 304 349
#     4  10  24  42  57  83 125 157 196 248 298 357
#     4   9  20  41  61  84 124 155 191 251 295 350
#
# _framework density 19.136520000000001
#
# number of rings (size 3 to 8) (size 9 to 14) (size 15 to 20)
#    0.000    2.261    0.870    0.000    7.304    1.739 
#    0.000    0.000    0.000    0.000    0.000    0.000 
#    0.000    0.000    0.000    0.000    0.000    0.000 
#
# Total GULP energy -256466.503922 kJ/mol
# GULP energy per Si atom -5575.358781 kJ/mol
# Density = 1.909296 g / cm^3
# Si number density = 19.136520 Si / 1000 Ang^3
#
#
#
# Elastic Constant Matrix: (Units=GPa)
#
#
# Indices 1 2 3 4 5 6 
#
# 1 68.4730 10.0447 29.9580 0.0000 0.0000 0.0000
# 2 10.0447 79.5376 69.7766 0.0000 0.0000 0.0000
# 3 29.9580 69.7766 134.1018 0.0000 0.0000 0.0000
# 4 0.0000 0.0000 0.0000 15.1324 0.0000 0.0000
# 5 0.0000 0.0000 0.0000 0.0000 12.9121 0.0000
# 6 0.0000 0.0000 0.0000 0.0000 0.0000 61.0004
#
#
#
# Elastic Compliance Matrix: (Units=1/GPa)
#
#
# Indices 1 2 3 4 5 6 
#
# 1 0.016375 0.002100 -0.004751 0.000000 0.000000 0.000000
# 2 0.002100 0.023401 -0.012645 0.000000 0.000000 0.000000
# 3 -0.004751 -0.012645 0.015098 0.000000 0.000000 0.000000
# 4 0.000000 0.000000 0.000000 0.066083 0.000000 0.000000
# 5 0.000000 0.000000 0.000000 0.000000 0.077447 0.000000
# 6 0.000000 0.000000 0.000000 0.000000 0.000000 0.016393
#
#
# Mechanical properties :
#
#
# Convention : Reuss Voigt Hill
#
# Bulk Modulus (GPa) = 41.18396 55.74123 48.46259
# Shear Modulus (GPa) = 19.72523 29.29784 24.51153
#
# Velocity S-wave (km/s) = 3.21403 3.91703 3.58282
# Velocity P-wave (km/s) = 5.94485 7.04620 6.51883
#
# Compressibility (1/GPa) = 0.02428130
#
# Stress axis : x y z
#
# Youngs Moduli (GPa) = 61.06968 42.73373 66.23474
#
# Poissons Ratio (x) = -0.08972 0.31465
# Poissons Ratio (y) = -0.12822 0.83754
# Poissons Ratio (z) = 0.29011 0.54037
#
# Static dielectric constant tensor:
#      x y z
#    x 1.693740 0.000000 0.000000 
#    y 0.000000 1.624580 0.000000 
#    z 0.000000 0.000000 1.713460 
# 
# From -- ./inp_files/51143.got.cif
#   From: 2010.05.17/outbox.cif.g08.bks.cpg/sg63_26_cif.got.tgz:51143.got - 2010.06.03 15:47:04.
