data_PCOD9473862
_publ_section_title
;
Structure prediction by ZEFSAII (Michael W. Deem and Ramdas Pophale) SiO2 
 PCOD9473862
Probable space group: C M C M
;
_chemical_formula_sum "Si O2"
_cell_formula_units_Z 96
_cell_length_a 23.909792
_cell_length_b 12.165649
_cell_length_c 15.952698
_cell_angle_alpha 90.000000
_cell_angle_beta 90.000000
_cell_angle_gamma 90.000000
_cell_volume 4640.291077
_symmetry_space_group_name_H-M "C M C M"
_symmetry_group_IT_number 63
_symmetry_cell_setting 'orthorhombic'
loop_
_space_group_symop_operation_xyz
x,y,z
-x,-y,1/2+z
x,-y,-z
-x,y,1/2-z
-x,-y,-z
x,y,1/2-z
-x,y,z
x,-y,1/2+z
1/2+x,1/2+y,z
1/2-x,1/2-y,1/2+z
1/2+x,1/2-y,-z
1/2-x,1/2+y,1/2-z
1/2-x,1/2-y,-z
1/2+x,1/2+y,1/2-z
1/2-x,1/2+y,z
1/2+x,1/2-y,1/2+z
loop_
_atom_site_type_symbol
_atom_site_label
_atom_site_fract_x
_atom_site_fract_y
_atom_site_fract_z
Si Si1 0.347092 0.131436 0.409131
Si Si2 0.937566 0.204529 0.906196
Si Si3 0.272673 0.326351 0.153862
Si Si4 0.565147 0.703824 0.389233
Si Si5 0.859934 0.004031 0.898962
Si Si6 0.349783 0.114710 0.889429
O O1 0.404443 0.187747 0.380732
O O2 0.300001 0.223694 0.394256
O O3 0.349598 0.117585 0.509347
O O4 0.343160 0.013139 0.366636
O O5 0.903423 0.099700 0.876110
O O6 0.000000 0.201803 0.875788
O O7 0.937641 0.200962 0.008494
O O8 0.286513 0.308428 0.250000
O O9 0.300606 0.444256 0.129192
O O10 0.206638 0.327348 0.140542
O O11 0.500000 0.690048 0.361160
O O12 0.610419 0.607826 0.367859
O O13 0.594889 0.818054 0.363135
O O14 0.856490 0.000000 0.000000
#
# Coordination Sequence:
#
# PCOD9473862 Si02
#       6
#    16  16  16  16  16  16
#     4   9  20  36  55  81 114 150 193 233 283 346
#     4   8  14  28  52  83 114 146 186 233 282 330
#     4  11  24  38  57  82 113 152 196 245 287 337
#     4   9  17  31  54  86 116 142 186 240 287 337
#     4   9  18  32  56  86 115 154 188 235 285 339
#     4  10  21  35  57  84 113 153 190 232 290 347
#
# _framework density 20.688358000000001
#
# number of rings (size 3 to 8) (size 9 to 14) (size 15 to 20)
#    0.000    2.667    0.000    2.000    4.667    3.333 
#    0.000    3.333    0.000   14.000    0.000    4.667 
#    0.000    0.000    0.000    0.000    0.000    0.000 
#
# Total GULP energy -267501.982462 kJ/mol
# GULP energy per Si atom -5572.957968 kJ/mol
# Density = 2.064127 g / cm^3
# Si number density = 20.688358 Si / 1000 Ang^3
#
#
#
# Elastic Constant Matrix: (Units=GPa)
#
#
# Indices 1 2 3 4 5 6 
#
# 1 91.0035 23.1797 -2.5932 0.0000 0.0000 0.0000
# 2 23.1797 100.7340 8.9564 0.0000 0.0000 0.0000
# 3 -2.5932 8.9564 16.7800 0.0000 0.0000 0.0000
# 4 0.0000 0.0000 0.0000 -2.7726 0.0000 0.0000
# 5 0.0000 0.0000 0.0000 0.0000 -2.0232 0.0000
# 6 0.0000 0.0000 0.0000 0.0000 0.0000 15.3653
#
#
#
# Elastic Compliance Matrix: (Units=1/GPa)
#
#
# Indices 1 2 3 4 5 6 
#
# 1 0.011860 -0.003036 0.003454 0.000000 0.000000 0.000000
# 2 -0.003036 0.011199 -0.006447 0.000000 0.000000 0.000000
# 3 0.003454 -0.006447 0.063570 0.000000 0.000000 0.000000
# 4 0.000000 0.000000 0.000000 -0.360675 0.000000 0.000000
# 5 0.000000 0.000000 0.000000 0.000000 -0.494277 0.000000
# 6 0.000000 0.000000 0.000000 0.000000 0.000000 0.065082
#
#
# Mechanical properties :
#
#
# Convention : Reuss Voigt Hill
#
# Bulk Modulus (GPa) = 13.41021 29.73370 21.57195
# Shear Modulus (GPa) = -7.50384 14.04555 3.27085
#
# Velocity S-wave (km/s) = -1.90656 2.60842 1.25875
# Velocity P-wave (km/s) = 1.28432 4.84512 3.54434
#
# Compressibility (1/GPa) = 0.07457006
#
# Stress axis : x y z
#
# Youngs Moduli (GPa) = 84.31444 89.29381 15.73078
#
# Poissons Ratio (x) = 0.27112 -0.05433
# Poissons Ratio (y) = 0.25600 0.10141
# Poissons Ratio (z) = -0.29118 0.57566
#
# Static dielectric constant tensor:
#      x y z
#    x 1.723340 0.000000 0.000000 
#    y 0.000000 1.856850 0.000000 
#    z 0.000000 0.000000 1.750780 
# 
# From -- ./inp_files/57495.got.cif
#   From: 2010.05.17/outbox.cif.g08.bks.cpg/sg63_29_cif.got.tgz:57495.got - 2010.06.03 15:47:04.
