data_PCOD9473303
_publ_section_title
;
Structure prediction by ZEFSAII (Michael W. Deem and Ramdas Pophale) SiO2 
 PCOD9473303
Probable space group: C M C M
;
_chemical_formula_sum "Si O2"
_cell_formula_units_Z 72
_cell_length_a 29.736539
_cell_length_b 14.244563
_cell_length_c 8.700533
_cell_angle_alpha 90.000000
_cell_angle_beta 90.000000
_cell_angle_gamma 90.000000
_cell_volume 3685.406598
_symmetry_space_group_name_H-M "C M C M"
_symmetry_group_IT_number 63
_symmetry_cell_setting 'orthorhombic'
loop_
_space_group_symop_operation_xyz
x,y,z
-x,-y,1/2+z
x,-y,-z
-x,y,1/2-z
-x,-y,-z
x,y,1/2-z
-x,y,z
x,-y,1/2+z
1/2+x,1/2+y,z
1/2-x,1/2-y,1/2+z
1/2+x,1/2-y,-z
1/2-x,1/2+y,1/2-z
1/2-x,1/2-y,-z
1/2+x,1/2+y,1/2-z
1/2-x,1/2+y,z
1/2+x,1/2-y,1/2+z
loop_
_atom_site_type_symbol
_atom_site_label
_atom_site_fract_x
_atom_site_fract_y
_atom_site_fract_z
Si Si1 0.813449 0.697063 0.933718
Si Si2 0.774174 0.101909 0.066160
Si Si3 0.447814 0.400881 0.065312
Si Si4 0.091607 0.706868 0.064205
Si Si5 0.000000 0.396695 0.935175
O O1 0.809460 0.691023 0.750000
O O2 0.803621 0.806251 0.979760
O O3 0.775554 0.631442 0.008781
O O4 0.863038 0.670479 0.988786
O O5 0.774777 0.095820 0.250000
O O6 0.787168 0.000000 0.000000
O O7 0.447977 0.404155 0.250000
O O8 0.500000 0.385162 0.017036
O O9 0.416996 0.314733 0.017666
O O10 0.432802 0.500000 0.000000
O O11 0.095480 0.702207 0.250000
O O12 0.045990 0.654198 0.017403
O O13 0.000000 0.396357 0.750000
O O14 0.000000 0.500000 0.000000
#
# Coordination Sequence:
#
# PCOD9473303 Si02
#       5
#    16  16  16  16   8
#     4  10  22  38  58  87 118 148 189 235 284 341
#     4  10  21  39  62  86 115 150 187 232 285 342
#     4   9  17  31  51  75 104 141 183 226 274 329
#     4  10  20  37  58  79 112 153 191 232 283 337
#     4  10  22  40  59  80 108 148 195 238 279 326
#
# _framework density 19.536512999999999
#
# number of rings (size 3 to 8) (size 9 to 14) (size 15 to 20)
#    0.000    2.222    1.111    1.333    0.000    6.222 
#    0.000    6.667    0.000    0.000    0.000    0.000 
#    0.000    0.000    0.000    0.000    0.000    0.000 
#
# Total GULP energy -200968.115058 kJ/mol
# GULP energy per Si atom -5582.447641 kJ/mol
# Density = 1.949205 g / cm^3
# Si number density = 19.536513 Si / 1000 Ang^3
#
#
#
# Elastic Constant Matrix: (Units=GPa)
#
#
# Indices 1 2 3 4 5 6 
#
# 1 91.2512 5.4650 9.7035 0.0000 0.0000 0.0000
# 2 5.4650 56.1308 10.6058 0.0000 0.0000 0.0000
# 3 9.7035 10.6058 17.6678 0.0000 0.0000 0.0000
# 4 0.0000 0.0000 0.0000 34.5847 0.0000 0.0000
# 5 0.0000 0.0000 0.0000 0.0000 25.1821 0.0000
# 6 0.0000 0.0000 0.0000 0.0000 0.0000 8.5943
#
#
#
# Elastic Compliance Matrix: (Units=1/GPa)
#
#
# Indices 1 2 3 4 5 6 
#
# 1 0.011639 0.000084 -0.006443 0.000000 0.000000 0.000000
# 2 0.000084 0.020095 -0.012109 0.000000 0.000000 0.000000
# 3 -0.006443 -0.012109 0.067408 0.000000 0.000000 0.000000
# 4 0.000000 0.000000 0.000000 0.028915 0.000000 0.000000
# 5 0.000000 0.000000 0.000000 0.000000 0.039711 0.000000
# 6 0.000000 0.000000 0.000000 0.000000 0.000000 0.116357
#
#
# Mechanical properties :
#
#
# Convention : Reuss Voigt Hill
#
# Bulk Modulus (GPa) = 16.07556 24.06647 20.07101
# Shear Modulus (GPa) = 14.62864 22.95723 18.79293
#
# Velocity S-wave (km/s) = 2.73936 3.43168 3.10488
# Velocity P-wave (km/s) = 4.27221 5.29598 4.81140
#
# Compressibility (1/GPa) = 0.06220623
#
# Stress axis : x y z
#
# Youngs Moduli (GPa) = 85.91918 49.76270 14.83505
#
# Poissons Ratio (x) = -0.00419 0.09558
# Poissons Ratio (y) = -0.00723 0.17964
# Poissons Ratio (z) = 0.55356 0.60259
#
# Static dielectric constant tensor:
#      x y z
#    x 1.692050 0.000000 0.000000 
#    y 0.000000 1.682150 0.000000 
#    z 0.000000 0.000000 1.655550 
# 
# From -- ./inp_files/11677.got.cif
#   From: 2010.05.17/outbox.cif.g08.bks.cpg/sg63_6_cif.got.tgz:11677.got - 2010.06.03 15:47:04.
