data_PCOD9473231
_publ_section_title
;
Structure prediction by ZEFSAII (Michael W. Deem and Ramdas Pophale) SiO2 
 PCOD9473231
Probable space group: C M C M
;
_chemical_formula_sum "Si O2"
_cell_formula_units_Z 52
_cell_length_a 7.715309
_cell_length_b 19.451140
_cell_length_c 13.572323
_cell_angle_alpha 90.000000
_cell_angle_beta 90.000000
_cell_angle_gamma 90.000000
_cell_volume 2036.819624
_symmetry_space_group_name_H-M "C M C M"
_symmetry_group_IT_number 63
_symmetry_cell_setting 'orthorhombic'
loop_
_space_group_symop_operation_xyz
x,y,z
-x,-y,1/2+z
x,-y,-z
-x,y,1/2-z
-x,-y,-z
x,y,1/2-z
-x,y,z
x,-y,1/2+z
1/2+x,1/2+y,z
1/2-x,1/2-y,1/2+z
1/2+x,1/2-y,-z
1/2-x,1/2+y,1/2-z
1/2-x,1/2-y,-z
1/2+x,1/2+y,1/2-z
1/2-x,1/2+y,z
1/2+x,1/2-y,1/2+z
loop_
_atom_site_type_symbol
_atom_site_label
_atom_site_fract_x
_atom_site_fract_y
_atom_site_fract_z
Si Si1 0.790621 0.693108 0.859655
Si Si2 0.500000 0.460600 0.250000
Si Si3 0.295108 0.653597 0.079178
Si Si4 0.309421 0.992931 0.616007
O O1 0.725233 0.672016 0.750000
O O2 0.735324 0.655960 0.960756
O O3 0.000000 0.690527 0.857579
O O4 0.738619 0.772740 0.878141
O O5 0.347407 0.469507 0.166675
O O6 0.500000 0.646515 0.096737
O O7 0.206086 0.589148 0.130603
O O8 0.500000 0.018376 0.644625
O O9 0.294210 0.000000 0.500000
#
# Coordination Sequence:
#
# PCOD9473231 Si02
#       4
#    16   4  16  16
#     4   9  19  35  57  86 123 165 211 262 318 381
#     4  12  24  44  72 100 124 172 220 276 314 398
#     4  10  20  36  61  88 125 166 209 262 319 378
#     4  11  25  45  68  97 133 171 216 270 330 387
#
# _framework density 25.529999
#
# number of rings (size 3 to 8) (size 9 to 14) (size 15 to 20)
#    0.000    1.846    1.538    1.846    2.154    1.846 
#    2.769    0.000    0.000    0.000    0.000    0.000 
#    0.000    0.000    0.000    0.000    0.000    0.000 
#
# Total GULP energy -145154.082320 kJ/mol
# GULP energy per Si atom -5582.849320 kJ/mol
# Density = 2.547189 g / cm^3
# Si number density = 25.529999 Si / 1000 Ang^3
#
#
#
# Elastic Constant Matrix: (Units=GPa)
#
#
# Indices 1 2 3 4 5 6 
#
# 1 158.2557 -5.8354 41.3672 0.0000 0.0000 0.0000
# 2 -5.8354 119.6460 18.4785 0.0000 0.0000 0.0000
# 3 41.3672 18.4785 172.6201 0.0000 0.0000 0.0000
# 4 0.0000 0.0000 0.0000 -103.0779 0.0000 0.0000
# 5 0.0000 0.0000 0.0000 0.0000 62.6396 0.0000
# 6 0.0000 0.0000 0.0000 0.0000 0.0000 -6.4895
#
#
#
# Elastic Compliance Matrix: (Units=1/GPa)
#
#
# Indices 1 2 3 4 5 6 
#
# 1 0.006782 0.000592 -0.001689 0.000000 0.000000 0.000000
# 2 0.000592 0.008550 -0.001057 0.000000 0.000000 0.000000
# 3 -0.001689 -0.001057 0.006311 0.000000 0.000000 0.000000
# 4 0.000000 0.000000 0.000000 -0.009701 0.000000 0.000000
# 5 0.000000 0.000000 0.000000 0.000000 0.015964 0.000000
# 6 0.000000 0.000000 0.000000 0.000000 0.000000 -0.154096
#
#
# Mechanical properties :
#
#
# Convention : Reuss Voigt Hill
#
# Bulk Modulus (GPa) = 57.68694 62.06025 59.87359
# Shear Modulus (GPa) = -43.06492 17.04856 -13.00818
#
# Velocity S-wave (km/s) = -4.11157 2.58696 -2.25972
# Velocity P-wave (km/s) = 0.32377 5.76929 4.08592
#
# Compressibility (1/GPa) = 0.01733495
#
# Stress axis : x y z
#
# Youngs Moduli (GPa) = 147.44705 116.95779 158.45644
#
# Poissons Ratio (x) = -0.06919 0.26757
# Poissons Ratio (y) = -0.08723 0.16749
# Poissons Ratio (z) = 0.24898 0.12363
#
# Static dielectric constant tensor:
#      x y z
#    x 1.945400 0.000000 0.000000 
#    y 0.000000 2.087650 0.000000 
#    z 0.000000 0.000000 2.066600 
# 
# From -- ./inp_files/27089.got.cif
#   From: 2010.05.17/outbox.cif.g08.bks.cpg/sg63_14_cif.got.tgz:27089.got - 2010.06.03 15:47:04.
