data_PCOD9473458
_publ_section_title
;
Structure prediction by ZEFSAII (Michael W. Deem and Ramdas Pophale) SiO2 
 PCOD9473458
Probable space group: C M C M
;
_chemical_formula_sum "Si O2"
_cell_formula_units_Z 96
_cell_length_a 22.574438
_cell_length_b 8.975504
_cell_length_c 23.694746
_cell_angle_alpha 90.000000
_cell_angle_beta 90.000000
_cell_angle_gamma 90.000000
_cell_volume 4800.957369
_symmetry_space_group_name_H-M "C M C M"
_symmetry_group_IT_number 63
_symmetry_cell_setting 'orthorhombic'
loop_
_space_group_symop_operation_xyz
x,y,z
-x,-y,1/2+z
x,-y,-z
-x,y,1/2-z
-x,-y,-z
x,y,1/2-z
-x,y,z
x,-y,1/2+z
1/2+x,1/2+y,z
1/2-x,1/2-y,1/2+z
1/2+x,1/2-y,-z
1/2-x,1/2+y,1/2-z
1/2-x,1/2-y,-z
1/2+x,1/2+y,1/2-z
1/2-x,1/2+y,z
1/2+x,1/2-y,1/2+z
loop_
_atom_site_type_symbol
_atom_site_label
_atom_site_fract_x
_atom_site_fract_y
_atom_site_fract_z
Si Si1 0.278241 0.337339 0.750000
Si Si2 0.627291 0.371043 0.452377
Si Si3 0.618739 0.072213 0.628979
Si Si4 0.500000 0.673662 0.987895
Si Si5 0.336556 0.012558 0.750000
Si Si6 0.169746 0.894675 0.870290
Si Si7 0.285363 0.099783 0.054661
Si Si8 0.500000 0.932539 0.436741
O O1 0.295182 0.162205 0.750000
O O2 0.208711 0.374559 0.750000
O O3 0.306350 0.405368 0.693265
O O4 0.630231 0.500000 0.500000
O O5 0.562253 0.297238 0.456701
O O6 0.638932 0.457251 0.394003
O O7 0.677628 0.247240 0.461058
O O8 0.624794 0.021095 0.693543
O O9 0.628030 0.250342 0.626337
O O10 0.558188 0.031185 0.598284
O O11 0.672339 0.996033 0.595372
O O12 0.500000 0.500000 0.000000
O O13 0.500000 0.758354 0.047198
O O14 0.226140 0.865579 0.910855
O O15 0.273221 0.000000 0.000000
O O16 0.500000 0.000000 0.500000
#
# Coordination Sequence:
#
# PCOD9473458 Si02
#       8
#     8  16  16   8   8  16  16   8
#     4  10  22  40  62  88 126 160 202 248 312 368
#     4  11  23  38  59  86 120 160 203 248 305 366
#     4  11  23  40  62  90 122 161 207 253 303 366
#     4  10  20  38  59  81 115 159 200 241 293 358
#     4  10  22  41  64  90 122 161 206 254 306 362
#     4  11  23  39  60  90 120 158 202 252 308 366
#     4  12  23  36  58  88 126 157 198 255 312 370
#     4  12  24  41  63  88 125 165 205 251 304 364
#
# _framework density 19.996010999999999
#
# number of rings (size 3 to 8) (size 9 to 14) (size 15 to 20)
#    0.000    1.000    1.667    7.000    2.333    2.333 
#    0.000    0.833    0.000    1.500    0.000    0.000 
#    0.000    0.000    0.000    0.000    0.000    0.000 
#
# Total GULP energy -268543.480488 kJ/mol
# GULP energy per Si atom -5594.655843 kJ/mol
# Density = 1.995050 g / cm^3
# Si number density = 19.996011 Si / 1000 Ang^3
#
#
#
# Elastic Constant Matrix: (Units=GPa)
#
#
# Indices 1 2 3 4 5 6 
#
# 1 125.8752 10.4726 63.5521 0.0000 0.0000 0.0000
# 2 10.4726 63.4570 33.9280 0.0000 0.0000 0.0000
# 3 63.5521 33.9280 158.9177 0.0000 0.0000 0.0000
# 4 0.0000 0.0000 0.0000 28.7354 0.0000 0.0000
# 5 0.0000 0.0000 0.0000 0.0000 16.3548 0.0000
# 6 0.0000 0.0000 0.0000 0.0000 0.0000 9.9465
#
#
#
# Elastic Compliance Matrix: (Units=1/GPa)
#
#
# Indices 1 2 3 4 5 6 
#
# 1 0.009971 0.000549 -0.004105 0.000000 0.000000 0.000000
# 2 0.000549 0.017820 -0.004024 0.000000 0.000000 0.000000
# 3 -0.004105 -0.004024 0.008793 0.000000 0.000000 0.000000
# 4 0.000000 0.000000 0.000000 0.034800 0.000000 0.000000
# 5 0.000000 0.000000 0.000000 0.000000 0.061144 0.000000
# 6 0.000000 0.000000 0.000000 0.000000 0.000000 0.100538
#
#
# Mechanical properties :
#
#
# Convention : Reuss Voigt Hill
#
# Bulk Modulus (GPa) = 46.67537 62.68392 54.67965
# Shear Modulus (GPa) = 19.57968 27.02717 23.30342
#
# Velocity S-wave (km/s) = 3.13258 3.68044 3.41750
# Velocity P-wave (km/s) = 6.03963 7.03400 6.55569
#
# Compressibility (1/GPa) = 0.02142457
#
# Stress axis : x y z
#
# Youngs Moduli (GPa) = 100.28991 56.11824 113.72490
#
# Poissons Ratio (x) = -0.03081 0.46681
# Poissons Ratio (y) = -0.05506 0.45762
# Poissons Ratio (z) = 0.41166 0.22582
#
# Static dielectric constant tensor:
#      x y z
#    x 1.707790 0.000000 0.000000 
#    y 0.000000 1.768720 0.000000 
#    z 0.000000 0.000000 1.688010 
# 
# From -- ./inp_files/65039.got.cif
#   From: 2010.05.17/outbox.cif.g08.bks.cpg/sg63_33_cif.got.tgz:65039.got - 2010.06.03 15:47:04.
