data_PCOD9473044
_publ_section_title
;
Structure prediction by ZEFSAII (Michael W. Deem and Ramdas Pophale) SiO2 
 PCOD9473044
Probable space group: C M C M
;
_chemical_formula_sum "Si O2"
_cell_formula_units_Z 112
_cell_length_a 25.929727
_cell_length_b 15.818569
_cell_length_c 15.580687
_cell_angle_alpha 90.000000
_cell_angle_beta 90.000000
_cell_angle_gamma 90.000000
_cell_volume 6390.748705
_symmetry_space_group_name_H-M "C M C M"
_symmetry_group_IT_number 63
_symmetry_cell_setting 'orthorhombic'
loop_
_space_group_symop_operation_xyz
x,y,z
-x,-y,1/2+z
x,-y,-z
-x,y,1/2-z
-x,-y,-z
x,y,1/2-z
-x,y,z
x,-y,1/2+z
1/2+x,1/2+y,z
1/2-x,1/2-y,1/2+z
1/2+x,1/2-y,-z
1/2-x,1/2+y,1/2-z
1/2-x,1/2-y,-z
1/2+x,1/2+y,1/2-z
1/2-x,1/2+y,z
1/2+x,1/2-y,1/2+z
loop_
_atom_site_type_symbol
_atom_site_label
_atom_site_fract_x
_atom_site_fract_y
_atom_site_fract_z
Si Si1 0.627590 0.091190 0.500000
Si Si2 0.378687 0.669133 0.848325
Si Si3 0.440041 0.500000 0.896589
Si Si4 0.378687 0.330867 0.848325
Si Si5 0.060722 0.343761 0.848851
Si Si6 0.060722 0.343761 0.348851
Si Si7 0.810716 0.234938 0.500000
O O1 0.591691 0.100989 0.416549
O O2 0.591691 0.100989 0.583451
O O3 0.664760 0.171420 0.500000
O O4 0.653735 0.000000 0.500000
O O5 0.359898 0.669404 0.750000
O O6 0.409780 0.583228 0.865949
O O7 0.418079 0.748008 0.858248
O O8 0.333515 0.686062 0.916991
O O9 0.500000 0.500000 0.867799
O O10 0.409780 0.416772 0.865949
O O11 0.440048 0.500000 0.000000
O O12 0.359899 0.330596 0.750000
O O13 0.418079 0.251992 0.858248
O O14 0.333515 0.313938 0.916991
O O15 0.069462 0.369460 0.750000
O O16 0.000000 0.346051 0.866146
O O17 0.069462 0.369460 0.250000
O O18 0.000000 0.346051 0.366147
O O19 0.750000 0.250000 0.500000
#
# Coordination Sequence:
#
# PCOD9473044 Si02
#       7
#    16  16  16  16  16  16  16
#     4  10  21  36  53  77 103 136 173 221 271 322
#     4  10  20  36  57  82 114 151 189 227 275 337
#     4  11  21  33  55  90 129 161 186 225 283 348
#     4  10  20  36  57  82 114 151 189 227 275 337
#     4   9  18  32  52  78 110 146 178 209 253 316
#     4   9  18  32  52  78 110 146 178 209 253 316
#     4  10  22  42  60  79 103 141 187 244 290 329
#
# _framework density 17.525331999999999
#
# number of rings (size 3 to 8) (size 9 to 14) (size 15 to 20)
#    0.000    2.143    1.429    1.714    0.000    4.571 
#    2.571    1.429    0.000    0.000    0.000    0.000 
#    0.000    0.000    0.000    0.000    0.000    0.000 
#
# Total GULP energy -312495.433801 kJ/mol
# GULP energy per Si atom -5580.275604 kJ/mol
# Density = 1.748544 g / cm^3
# Si number density = 17.525332 Si / 1000 Ang^3
#
#
#
# Elastic Constant Matrix: (Units=GPa)
#
#
# Indices 1 2 3 4 5 6 
#
# 1 126.2123 37.0612 66.5395 0.0000 0.0000 0.0000
# 2 37.0612 104.5416 47.4352 0.0000 0.0000 0.0000
# 3 66.5395 47.4352 106.4442 0.0000 0.0000 0.0000
# 4 0.0000 0.0000 0.0000 11.3527 0.0000 0.0000
# 5 0.0000 0.0000 0.0000 0.0000 9.9152 0.0000
# 6 0.0000 0.0000 0.0000 0.0000 0.0000 11.8652
#
#
#
# Elastic Compliance Matrix: (Units=1/GPa)
#
#
# Indices 1 2 3 4 5 6 
#
# 1 0.011911 -0.001058 -0.006974 0.000000 0.000000 0.000000
# 2 -0.001058 0.012084 -0.004724 0.000000 0.000000 0.000000
# 3 -0.006974 -0.004724 0.015859 0.000000 0.000000 0.000000
# 4 0.000000 0.000000 0.000000 0.088085 0.000000 0.000000
# 5 0.000000 0.000000 0.000000 0.000000 0.100856 0.000000
# 6 0.000000 0.000000 0.000000 0.000000 0.000000 0.084280
#
#
# Mechanical properties :
#
#
# Convention : Reuss Voigt Hill
#
# Bulk Modulus (GPa) = 69.72333 71.02998 70.37665
# Shear Modulus (GPa) = 14.56173 19.03742 16.79957
#
# Velocity S-wave (km/s) = 2.88565 3.29945 3.09947
# Velocity P-wave (km/s) = 7.13956 7.42516 7.28376
#
# Compressibility (1/GPa) = 0.01434240
#
# Stress axis : x y z
#
# Youngs Moduli (GPa) = 83.95947 82.75406 63.05528
#
# Poissons Ratio (x) = 0.08756 0.43974
# Poissons Ratio (y) = 0.08883 0.29785
# Poissons Ratio (z) = 0.58553 0.39090
#
# Static dielectric constant tensor:
#      x y z
#    x 1.546940 0.000000 0.000000 
#    y 0.000000 1.588400 0.000000 
#    z 0.000000 0.000000 1.615840 
# 
# From -- ./inp_files/36899.got.cif
#   From: 2010.05.17/outbox.cif.g08.bks.cpg/sg63_19_cif.got.tgz:36899.got - 2010.06.03 15:47:04.
