data_PCOD9473090
_publ_section_title
;
Structure prediction by ZEFSAII (Michael W. Deem and Ramdas Pophale) SiO2 
 PCOD9473090
Probable space group: C M C M
;
_chemical_formula_sum "Si O2"
_cell_formula_units_Z 64
_cell_length_a 8.985061
_cell_length_b 15.570274
_cell_length_c 25.853595
_cell_angle_alpha 90.000000
_cell_angle_beta 90.000000
_cell_angle_gamma 90.000000
_cell_volume 3616.914364
_symmetry_space_group_name_H-M "C M C M"
_symmetry_group_IT_number 63
_symmetry_cell_setting 'orthorhombic'
loop_
_space_group_symop_operation_xyz
x,y,z
-x,-y,1/2+z
x,-y,-z
-x,y,1/2-z
-x,-y,-z
x,y,1/2-z
-x,y,z
x,-y,1/2+z
1/2+x,1/2+y,z
1/2-x,1/2-y,1/2+z
1/2+x,1/2-y,-z
1/2-x,1/2+y,1/2-z
1/2-x,1/2-y,-z
1/2+x,1/2+y,1/2-z
1/2-x,1/2+y,z
1/2+x,1/2-y,1/2+z
loop_
_atom_site_type_symbol
_atom_site_label
_atom_site_fract_x
_atom_site_fract_y
_atom_site_fract_z
Si Si1 0.325086 0.452762 0.309809
Si Si2 0.327456 0.286213 0.550632
Si Si3 0.322652 0.109580 0.365744
Si Si4 0.172548 0.277588 0.339100
O O1 0.308970 0.479248 0.250000
O O2 0.500000 0.451991 0.322712
O O3 0.238796 0.519840 0.345589
O O4 0.257034 0.358091 0.316052
O O5 0.500000 0.307673 0.541130
O O6 0.250000 0.250000 0.500000
O O7 0.240866 0.365493 0.577474
O O8 0.323909 0.217506 0.597947
O O9 0.500000 0.112640 0.365272
O O10 0.253948 0.186437 0.330302
O O11 0.000000 0.274197 0.322995
#
# Coordination Sequence:
#
# PCOD9473090 Si02
#       4
#    16  16  16  16
#     4  11  23  38  57  82 112 147 188 232 278 329
#     4   9  18  34  58  84 112 146 183 227 277 329
#     4  10  20  36  58  82 113 148 185 229 275 329
#     4   9  20  37  57  82 113 145 184 230 275 329
#
# _framework density 17.69464
#
# number of rings (size 3 to 8) (size 9 to 14) (size 15 to 20)
#    1.500    0.750    0.000    3.750    0.000    3.000 
#    0.000    1.250    0.000    7.500    0.000    0.000 
#    0.000    0.000    0.000    0.000    0.000    0.000 
#
# Total GULP energy -178148.846426 kJ/mol
# GULP energy per Si atom -5567.151451 kJ/mol
# Density = 1.765437 g / cm^3
# Si number density = 17.694640 Si / 1000 Ang^3
#
#
#
# Elastic Constant Matrix: (Units=GPa)
#
#
# Indices 1 2 3 4 5 6 
#
# 1 136.3602 9.4357 16.0916 0.0000 0.0000 0.0000
# 2 9.4357 44.8627 -10.1580 0.0000 0.0000 0.0000
# 3 16.0916 -10.1580 27.4078 0.0000 0.0000 0.0000
# 4 0.0000 0.0000 0.0000 21.7195 0.0000 0.0000
# 5 0.0000 0.0000 0.0000 0.0000 25.3878 0.0000
# 6 0.0000 0.0000 0.0000 0.0000 0.0000 32.4931
#
#
#
# Elastic Compliance Matrix: (Units=1/GPa)
#
#
# Indices 1 2 3 4 5 6 
#
# 1 0.008255 -0.003093 -0.005993 0.000000 0.000000 0.000000
# 2 -0.003093 0.025491 0.011264 0.000000 0.000000 0.000000
# 3 -0.005993 0.011264 0.044179 0.000000 0.000000 0.000000
# 4 0.000000 0.000000 0.000000 0.046042 0.000000 0.000000
# 5 0.000000 0.000000 0.000000 0.000000 0.039389 0.000000
# 6 0.000000 0.000000 0.000000 0.000000 0.000000 0.030776
#
#
# Mechanical properties :
#
#
# Convention : Reuss Voigt Hill
#
# Bulk Modulus (GPa) = 12.15358 26.59658 19.37508
# Shear Modulus (GPa) = 23.01997 28.80418 25.91208
#
# Velocity S-wave (km/s) = 3.61079 4.03904 3.83090
# Velocity P-wave (km/s) = 4.92617 6.06756 5.52641
#
# Compressibility (1/GPa) = 0.08228031
#
# Stress axis : x y z
#
# Youngs Moduli (GPa) = 121.14227 39.22932 22.63515
#
# Poissons Ratio (x) = 0.12134 0.13565
# Poissons Ratio (y) = 0.37471 -0.25495
# Poissons Ratio (z) = 0.72599 -0.44187
#
# Static dielectric constant tensor:
#      x y z
#    x 1.589030 0.000000 0.000000 
#    y 0.000000 1.579360 0.000000 
#    z 0.000000 0.000000 1.620750 
# 
# From -- ./inp_files/59216.got.cif
#   From: 2010.05.17/outbox.cif.g08.bks.cpg/sg63_30_cif.got.tgz:59216.got - 2010.06.03 15:47:04.
