data_PCOD9473507
_publ_section_title
;
Structure prediction by ZEFSAII (Michael W. Deem and Ramdas Pophale) SiO2 
 PCOD9473507
Probable space group: C M C M
;
_chemical_formula_sum "Si O2"
_cell_formula_units_Z 72
_cell_length_a 13.423972
_cell_length_b 28.056579
_cell_length_c 10.047410
_cell_angle_alpha 90.000000
_cell_angle_beta 90.000000
_cell_angle_gamma 90.000000
_cell_volume 3784.163372
_symmetry_space_group_name_H-M "C M C M"
_symmetry_group_IT_number 63
_symmetry_cell_setting 'orthorhombic'
loop_
_space_group_symop_operation_xyz
x,y,z
-x,-y,1/2+z
x,-y,-z
-x,y,1/2-z
-x,-y,-z
x,y,1/2-z
-x,y,z
x,-y,1/2+z
1/2+x,1/2+y,z
1/2-x,1/2-y,1/2+z
1/2+x,1/2-y,-z
1/2-x,1/2+y,1/2-z
1/2-x,1/2-y,-z
1/2+x,1/2+y,1/2-z
1/2-x,1/2+y,z
1/2+x,1/2-y,1/2+z
loop_
_atom_site_type_symbol
_atom_site_label
_atom_site_fract_x
_atom_site_fract_y
_atom_site_fract_z
Si Si1 0.500000 0.929215 0.395265
Si Si2 0.500000 0.840653 0.908475
Si Si3 0.000000 0.954433 0.901609
Si Si4 0.300909 0.391857 0.899896
Si Si5 0.787185 0.291009 0.596876
Si Si6 0.783333 0.540060 0.900471
O O1 0.500000 0.904048 0.250000
O O2 0.500000 0.889755 0.509662
O O3 0.597744 0.961487 0.397002
O O4 0.500000 0.850791 0.750000
O O5 0.602469 0.811815 0.936933
O O6 0.094271 0.918859 0.914750
O O7 0.000000 0.973140 0.750000
O O8 0.000000 0.000000 0.000000
O O9 0.262114 0.404962 0.750000
O O10 0.290940 0.335125 0.906351
O O11 0.239197 0.411099 0.024439
O O12 0.792473 0.274110 0.750000
O O13 0.750000 0.250000 0.500000
O O14 0.744605 0.536515 0.750000
O O15 0.743202 0.500000 0.000000
#
# Coordination Sequence:
#
# PCOD9473507 Si02
#       6
#     8   8   8  16  16  16
#     4  10  21  35  54  83 115 150 188 227 278 337
#     4  10  20  38  62  87 117 153 190 235 292 347
#     4  10  22  39  60  86 117 155 203 250 302 362
#     4  10  21  39  60  83 114 154 198 246 298 354
#     4  10  22  39  62  90 119 154 197 245 299 356
#     4  11  22  35  54  83 117 153 193 234 283 345
#
# _framework density 19.026662999999999
#
# number of rings (size 3 to 8) (size 9 to 14) (size 15 to 20)
#    0.000    1.778    2.222    1.667    0.000    6.222 
#    0.000    1.111    0.000    0.000    0.000    0.000 
#    0.000    0.000    0.000    0.000    0.000    0.000 
#
# Total GULP energy -200660.207690 kJ/mol
# GULP energy per Si atom -5573.894658 kJ/mol
# Density = 1.898336 g / cm^3
# Si number density = 19.026663 Si / 1000 Ang^3
#
#
#
# Elastic Constant Matrix: (Units=GPa)
#
#
# Indices 1 2 3 4 5 6 
#
# 1 75.5092 22.9093 29.7456 0.0000 0.0000 0.0000
# 2 22.9093 93.1798 70.5365 0.0000 0.0000 0.0000
# 3 29.7456 70.5365 141.2760 0.0000 0.0000 0.0000
# 4 0.0000 0.0000 0.0000 43.0038 0.0000 0.0000
# 5 0.0000 0.0000 0.0000 0.0000 19.6154 0.0000
# 6 0.0000 0.0000 0.0000 0.0000 0.0000 25.9403
#
#
#
# Elastic Compliance Matrix: (Units=1/GPa)
#
#
# Indices 1 2 3 4 5 6 
#
# 1 0.014679 -0.002041 -0.002072 0.000000 0.000000 0.000000
# 2 -0.002041 0.017536 -0.008326 0.000000 0.000000 0.000000
# 3 -0.002072 -0.008326 0.011672 0.000000 0.000000 0.000000
# 4 0.000000 0.000000 0.000000 0.023254 0.000000 0.000000
# 5 0.000000 0.000000 0.000000 0.000000 0.050980 0.000000
# 6 0.000000 0.000000 0.000000 0.000000 0.000000 0.038550
#
#
# Mechanical properties :
#
#
# Convention : Reuss Voigt Hill
#
# Bulk Modulus (GPa) = 52.60400 61.81641 57.21021
# Shear Modulus (GPa) = 26.61221 30.16349 28.38785
#
# Velocity S-wave (km/s) = 3.74395 3.98594 3.86684
# Velocity P-wave (km/s) = 6.81154 7.33099 7.07604
#
# Compressibility (1/GPa) = 0.01900996
#
# Stress axis : x y z
#
# Youngs Moduli (GPa) = 68.12609 57.02459 85.67867
#
# Poissons Ratio (x) = 0.11637 0.17750
# Poissons Ratio (y) = 0.13902 0.71335
# Poissons Ratio (z) = 0.14114 0.47478
#
# Static dielectric constant tensor:
#      x y z
#    x 1.723930 0.000000 0.000000 
#    y 0.000000 1.641650 0.000000 
#    z 0.000000 0.000000 1.686780 
# 
# From -- ./inp_files/4711.got.cif
#   From: 2010.05.17/outbox.cif.g08.bks.cpg/sg63_3_cif.got.tgz:4711.got - 2010.06.03 15:47:04.
