data_PCOD9473813
_publ_section_title
;
Structure prediction by ZEFSAII (Michael W. Deem and Ramdas Pophale) SiO2 
 PCOD9473813
Probable space group: C M C M
;
_chemical_formula_sum "Si O2"
_cell_formula_units_Z 80
_cell_length_a 26.643058
_cell_length_b 18.817472
_cell_length_c 8.079730
_cell_angle_alpha 90.000000
_cell_angle_beta 90.000000
_cell_angle_gamma 90.000000
_cell_volume 4050.813017
_symmetry_space_group_name_H-M "C M C M"
_symmetry_group_IT_number 63
_symmetry_cell_setting 'orthorhombic'
loop_
_space_group_symop_operation_xyz
x,y,z
-x,-y,1/2+z
x,-y,-z
-x,y,1/2-z
-x,-y,-z
x,y,1/2-z
-x,y,z
x,-y,1/2+z
1/2+x,1/2+y,z
1/2-x,1/2-y,1/2+z
1/2+x,1/2-y,-z
1/2-x,1/2+y,1/2-z
1/2-x,1/2-y,-z
1/2+x,1/2+y,1/2-z
1/2-x,1/2+y,z
1/2+x,1/2-y,1/2+z
loop_
_atom_site_type_symbol
_atom_site_label
_atom_site_fract_x
_atom_site_fract_y
_atom_site_fract_z
Si Si1 0.556399 0.666911 0.047991
Si Si2 0.347357 0.918245 0.450196
Si Si3 0.943634 0.331367 0.048198
Si Si4 0.152438 0.081297 0.052672
Si Si5 0.749751 0.168226 0.552689
O O1 0.556504 0.665495 0.250000
O O2 0.500000 0.646777 0.994724
O O3 0.565461 0.749161 0.000582
O O4 0.600877 0.616518 0.987628
O O5 0.347538 0.914833 0.250000
O O6 0.399034 0.882000 0.509528
O O7 0.299383 0.873504 0.511230
O O8 0.343695 0.000000 0.500000
O O9 0.943637 0.332696 0.250000
O O10 0.000000 0.351523 0.994363
O O11 0.149941 0.083142 0.250000
O O12 0.200018 0.127890 0.000623
O O13 0.158019 0.000000 0.000000
O O14 0.747347 0.166379 0.750000
O O15 0.750000 0.250000 0.500000
#
# Coordination Sequence:
#
# PCOD9473813 Si02
#       5
#    16  16  16  16  16
#     4   8  15  30  53  78 104 139 183 228 273 322
#     4  10  21  35  52  77 107 139 174 213 259 313
#     4   8  14  28  51  76 101 132 173 218 262 310
#     4  11  22  36  55  81 113 146 183 226 273 327
#     4  11  23  39  59  81 106 139 181 226 274 329
#
# _framework density 19.749122
#
# number of rings (size 3 to 8) (size 9 to 14) (size 15 to 20)
#    0.000    2.400    0.000    4.200    0.000    7.200 
#    0.000    0.000    0.000    1.800    0.000    5.600 
#    0.000    0.000    0.000    0.000    0.000    0.000 
#
# Total GULP energy -223327.075649 kJ/mol
# GULP energy per Si atom -5583.176891 kJ/mol
# Density = 1.970417 g / cm^3
# Si number density = 19.749122 Si / 1000 Ang^3
#
#
#
# Elastic Constant Matrix: (Units=GPa)
#
#
# Indices 1 2 3 4 5 6 
#
# 1 208.4620 144.0373 19.4439 0.0000 0.0000 0.0000
# 2 144.0373 185.4387 13.5442 0.0000 0.0000 0.0000
# 3 19.4439 13.5442 20.6641 0.0000 0.0000 0.0000
# 4 0.0000 0.0000 0.0000 25.5234 0.0000 0.0000
# 5 0.0000 0.0000 0.0000 0.0000 16.9888 0.0000
# 6 0.0000 0.0000 0.0000 0.0000 0.0000 38.6418
#
#
#
# Elastic Compliance Matrix: (Units=1/GPa)
#
#
# Indices 1 2 3 4 5 6 
#
# 1 0.010807 -0.008036 -0.004901 0.000000 0.000000 0.000000
# 2 -0.008036 0.011639 -0.000068 0.000000 0.000000 0.000000
# 3 -0.004901 -0.000068 0.053049 0.000000 0.000000 0.000000
# 4 0.000000 0.000000 0.000000 0.039180 0.000000 0.000000
# 5 0.000000 0.000000 0.000000 0.000000 0.058862 0.000000
# 6 0.000000 0.000000 0.000000 0.000000 0.000000 0.025879
#
#
# Mechanical properties :
#
#
# Convention : Reuss Voigt Hill
#
# Bulk Modulus (GPa) = 20.20793 85.40173 52.80483
# Shear Modulus (GPa) = 20.66790 32.06675 26.36732
#
# Velocity S-wave (km/s) = 3.23851 4.03389 3.65788
# Velocity P-wave (km/s) = 4.92326 8.06434 6.68102
#
# Compressibility (1/GPa) = 0.04948552
#
# Stress axis : x y z
#
# Youngs Moduli (GPa) = 92.53535 85.91514 18.85041
#
# Poissons Ratio (x) = 0.69041 0.09239
# Poissons Ratio (y) = 0.74361 0.00127
# Poissons Ratio (z) = 0.45355 0.00580
#
# Static dielectric constant tensor:
#      x y z
#    x 1.690180 0.000000 0.000000 
#    y 0.000000 1.642600 0.000000 
#    z 0.000000 0.000000 1.715090 
# 
# From -- ./inp_files/12026.got.cif
#   From: 2010.05.17/outbox.cif.g08.bks.cpg/sg63_7_cif.got.tgz:12026.got - 2010.06.03 15:47:04.
