data_PCOD9473150
_publ_section_title
;
Structure prediction by ZEFSAII (Michael W. Deem and Ramdas Pophale) SiO2 
 PCOD9473150
Probable space group: C M C M
;
_chemical_formula_sum "Si O2"
_cell_formula_units_Z 100
_cell_length_a 21.158205
_cell_length_b 27.851957
_cell_length_c 9.246318
_cell_angle_alpha 90.000000
_cell_angle_beta 90.000000
_cell_angle_gamma 90.000000
_cell_volume 5448.831304
_symmetry_space_group_name_H-M "C M C M"
_symmetry_group_IT_number 63
_symmetry_cell_setting 'orthorhombic'
loop_
_space_group_symop_operation_xyz
x,y,z
-x,-y,1/2+z
x,-y,-z
-x,y,1/2-z
-x,-y,-z
x,y,1/2-z
-x,y,z
x,-y,1/2+z
1/2+x,1/2+y,z
1/2-x,1/2-y,1/2+z
1/2+x,1/2-y,-z
1/2-x,1/2+y,1/2-z
1/2-x,1/2-y,-z
1/2+x,1/2+y,1/2-z
1/2-x,1/2+y,z
1/2+x,1/2-y,1/2+z
loop_
_atom_site_type_symbol
_atom_site_label
_atom_site_fract_x
_atom_site_fract_y
_atom_site_fract_z
Si Si1 0.575267 0.727785 0.075737
Si Si2 0.424435 0.626641 0.582745
Si Si3 0.287246 0.110904 0.412380
Si Si4 0.692112 0.776095 0.920472
Si Si5 0.158711 0.949130 0.920765
Si Si6 0.874843 0.453086 0.404535
Si Si7 0.500000 0.929948 0.250000
O O1 0.583915 0.727260 0.250000
O O2 0.500000 0.738452 0.048419
O O3 0.589375 0.675345 0.007056
O O4 0.625911 0.763219 0.000286
O O5 0.402129 0.630466 0.750000
O O6 0.500000 0.622200 0.585690
O O7 0.395282 0.580874 0.502552
O O8 0.309258 0.099228 0.250000
O O9 0.289893 0.167869 0.427573
O O10 0.219630 0.085686 0.430588
O O11 0.333659 0.087564 0.525306
O O12 0.687651 0.762740 0.750000
O O13 0.750000 0.750000 0.000000
O O14 0.145040 0.956514 0.750000
O O15 0.169641 0.000000 0.000000
O O16 0.877528 0.500000 0.500000
O O17 0.846046 0.467315 0.250000
O O18 0.944272 0.433541 0.372404
#
# Coordination Sequence:
#
# PCOD9473150 Si02
#       7
#    16  16  16  16  16  16   4
#     4  10  21  39  62  89 122 161 200 243 296 355
#     4  10  21  38  62  91 121 155 196 241 292 353
#     4  10  23  41  58  85 116 153 194 241 294 342
#     4  11  23  40  63  89 120 155 198 248 300 356
#     4  11  23  39  60  86 119 156 198 245 295 353
#     4  10  20  36  59  83 115 150 190 237 284 342
#     4   8  22  36  58  88 114 148 196 236 286 344
#
# _framework density 18.35256
#
# number of rings (size 3 to 8) (size 9 to 14) (size 15 to 20)
#    0.480    1.280    0.000    4.080    0.000    7.360 
#    1.440    0.000    0.000    0.000    0.000    0.000 
#    0.000    0.000    0.000    0.000    0.000    0.000 
#
# Total GULP energy -278347.492188 kJ/mol
# GULP energy per Si atom -5566.949844 kJ/mol
# Density = 1.831079 g / cm^3
# Si number density = 18.352560 Si / 1000 Ang^3
#
#
#
# Elastic Constant Matrix: (Units=GPa)
#
#
# Indices 1 2 3 4 5 6 
#
# 1 51.5345 32.9761 51.0604 0.0000 0.0000 0.0000
# 2 32.9761 102.6558 77.2394 0.0000 0.0000 0.0000
# 3 51.0604 77.2394 160.5397 0.0000 0.0000 0.0000
# 4 0.0000 0.0000 0.0000 37.2405 0.0000 0.0000
# 5 0.0000 0.0000 0.0000 0.0000 38.6589 0.0000
# 6 0.0000 0.0000 0.0000 0.0000 0.0000 19.9998
#
#
#
# Elastic Compliance Matrix: (Units=1/GPa)
#
#
# Indices 1 2 3 4 5 6 
#
# 1 0.029227 -0.003753 -0.007490 0.000000 0.000000 0.000000
# 2 -0.003753 0.015750 -0.006384 0.000000 0.000000 0.000000
# 3 -0.007490 -0.006384 0.011683 0.000000 0.000000 0.000000
# 4 0.000000 0.000000 0.000000 0.026852 0.000000 0.000000
# 5 0.000000 0.000000 0.000000 0.000000 0.025867 0.000000
# 6 0.000000 0.000000 0.000000 0.000000 0.000000 0.050000
#
#
# Mechanical properties :
#
#
# Convention : Reuss Voigt Hill
#
# Bulk Modulus (GPa) = 46.71646 70.80910 58.76278
# Shear Modulus (GPa) = 24.78058 29.41011 27.09534
#
# Velocity S-wave (km/s) = 3.67856 4.00748 3.84654
# Velocity P-wave (km/s) = 6.59945 7.75110 7.19834
#
# Compressibility (1/GPa) = 0.02140573
#
# Stress axis : x y z
#
# Youngs Moduli (GPa) = 34.21461 63.49034 85.59506
#
# Poissons Ratio (x) = 0.23827 0.64113
# Poissons Ratio (y) = 0.12840 0.54646
# Poissons Ratio (z) = 0.25628 0.40534
#
# Static dielectric constant tensor:
#      x y z
#    x 1.640960 0.000000 0.000000 
#    y 0.000000 1.570200 0.000000 
#    z 0.000000 0.000000 1.648200 
# 
# From -- ./inp_files/8788.got.cif
#   From: 2010.05.17/outbox.cif.g08.bks.cpg/sg63_5_cif.got.tgz:8788.got - 2010.06.03 15:47:04.
