data_PCOD9473632
_publ_section_title
;
Structure prediction by ZEFSAII (Michael W. Deem and Ramdas Pophale) SiO2 
 PCOD9473632
Probable space group: C M C M
;
_chemical_formula_sum "Si O2"
_cell_formula_units_Z 60
_cell_length_a 7.844702
_cell_length_b 16.809837
_cell_length_c 21.200261
_cell_angle_alpha 90.000000
_cell_angle_beta 90.000000
_cell_angle_gamma 90.000000
_cell_volume 2795.639451
_symmetry_space_group_name_H-M "C M C M"
_symmetry_group_IT_number 63
_symmetry_cell_setting 'orthorhombic'
loop_
_space_group_symop_operation_xyz
x,y,z
-x,-y,1/2+z
x,-y,-z
-x,y,1/2-z
-x,-y,-z
x,y,1/2-z
-x,y,z
x,-y,1/2+z
1/2+x,1/2+y,z
1/2-x,1/2-y,1/2+z
1/2+x,1/2-y,-z
1/2-x,1/2+y,1/2-z
1/2-x,1/2-y,-z
1/2+x,1/2+y,1/2-z
1/2-x,1/2+y,z
1/2+x,1/2-y,1/2+z
loop_
_atom_site_type_symbol
_atom_site_label
_atom_site_fract_x
_atom_site_fract_y
_atom_site_fract_z
Si Si1 0.814767 0.536840 0.569600
Si Si2 0.000000 0.952609 0.932985
Si Si3 0.799038 0.180747 0.633012
Si Si4 0.500000 0.568156 0.250000
Si Si5 0.500000 0.692520 0.365816
Si Si6 0.294504 0.935123 0.250000
O O1 0.831408 0.500000 0.500000
O O2 0.669073 0.484073 0.600579
O O3 0.749489 0.627124 0.571933
O O4 0.000000 0.532428 0.599727
O O5 0.000000 0.858651 0.930433
O O6 0.000000 0.000000 0.000000
O O7 0.668854 0.253576 0.637512
O O8 0.754135 0.120552 0.690142
O O9 0.000000 0.200125 0.633631
O O10 0.500000 0.628226 0.309704
O O11 0.667801 0.511040 0.250000
O O12 0.500000 0.950833 0.250000
#
# Coordination Sequence:
#
# PCOD9473632 Si02
#       6
#    16   8  16   4   8   8
#     4  10  20  39  70  94 125 178 232 277 332 407
#     4  10  22  42  66  93 132 178 222 281 330 404
#     4  12  23  41  69 100 138 178 221 284 346 395
#     4  12  26  42  70 104 134 182 224 274 328 422
#     4  12  26  42  65 104 143 169 225 286 334 393
#     4  12  23  43  73 101 132 181 226 268 337 416
#
# _framework density 21.461995999999999
#
# number of rings (size 3 to 8) (size 9 to 14) (size 15 to 20)
#    0.000    0.800    5.333    2.400    0.000    2.133 
#    0.000    5.333    0.000    0.000    0.000    0.000 
#    0.000    0.000    0.000    0.000    0.000    0.000 
#
# Total GULP energy -167341.381455 kJ/mol
# GULP energy per Si atom -5578.046048 kJ/mol
# Density = 2.141315 g / cm^3
# Si number density = 21.461996 Si / 1000 Ang^3
#
#
#
# Elastic Constant Matrix: (Units=GPa)
#
#
# Indices 1 2 3 4 5 6 
#
# 1 289.2217 103.7371 22.0620 0.0000 0.0000 0.0000
# 2 103.7371 179.0601 58.0806 0.0000 0.0000 0.0000
# 3 22.0620 58.0806 95.2168 0.0000 0.0000 0.0000
# 4 0.0000 0.0000 0.0000 44.6329 0.0000 0.0000
# 5 0.0000 0.0000 0.0000 0.0000 -0.3876 0.0000
# 6 0.0000 0.0000 0.0000 0.0000 0.0000 49.3259
#
#
#
# Elastic Compliance Matrix: (Units=1/GPa)
#
#
# Indices 1 2 3 4 5 6 
#
# 1 0.004398 -0.002764 0.000667 0.000000 0.000000 0.000000
# 2 -0.002764 0.008700 -0.004666 0.000000 0.000000 0.000000
# 3 0.000667 -0.004666 0.013194 0.000000 0.000000 0.000000
# 4 0.000000 0.000000 0.000000 0.022405 0.000000 0.000000
# 5 0.000000 0.000000 0.000000 0.000000 -2.579915 0.000000
# 6 0.000000 0.000000 0.000000 0.000000 0.000000 0.020273
#
#
# Mechanical properties :
#
#
# Convention : Reuss Voigt Hill
#
# Bulk Modulus (GPa) = 78.33835 103.47313 90.90574
# Shear Modulus (GPa) = -2.00549 44.02215 21.00833
#
# Velocity S-wave (km/s) = -0.96771 4.53389 3.13207
# Velocity P-wave (km/s) = 5.94404 8.70202 7.45174
#
# Compressibility (1/GPa) = 0.01276514
#
# Stress axis : x y z
#
# Youngs Moduli (GPa) = 227.36467 114.94434 75.79159
#
# Poissons Ratio (x) = 0.31776 -0.05057
# Poissons Ratio (y) = 0.62855 0.35366
# Poissons Ratio (z) = -0.15170 0.53636
#
# Static dielectric constant tensor:
#      x y z
#    x 1.875370 0.000000 0.000000 
#    y 0.000000 1.767020 0.000000 
#    z 0.000000 0.000000 2.057990 
# 
# From -- ./inp_files/66180.got.cif
#   From: 2010.05.17/outbox.cif.g08.bks.cpg/sg63_34_cif.got.tgz:66180.got - 2010.06.03 15:47:04.
