data_PCOD9473998
_publ_section_title
;
Structure prediction by ZEFSAII (Michael W. Deem and Ramdas Pophale) SiO2 
 PCOD9473998
Probable space group: C M C M
;
_chemical_formula_sum "Si O2"
_cell_formula_units_Z 112
_cell_length_a 11.142336
_cell_length_b 14.634383
_cell_length_c 33.403275
_cell_angle_alpha 90.000000
_cell_angle_beta 90.000000
_cell_angle_gamma 90.000000
_cell_volume 5446.778524
_symmetry_space_group_name_H-M "C M C M"
_symmetry_group_IT_number 63
_symmetry_cell_setting 'orthorhombic'
loop_
_space_group_symop_operation_xyz
x,y,z
-x,-y,1/2+z
x,-y,-z
-x,y,1/2-z
-x,-y,-z
x,y,1/2-z
-x,y,z
x,-y,1/2+z
1/2+x,1/2+y,z
1/2-x,1/2-y,1/2+z
1/2+x,1/2-y,-z
1/2-x,1/2+y,1/2-z
1/2-x,1/2-y,-z
1/2+x,1/2+y,1/2-z
1/2-x,1/2+y,z
1/2+x,1/2-y,1/2+z
loop_
_atom_site_type_symbol
_atom_site_label
_atom_site_fract_x
_atom_site_fract_y
_atom_site_fract_z
Si Si1 0.368106 0.497103 0.704115
Si Si2 0.868952 0.516009 0.654530
Si Si3 0.869108 0.431447 0.575753
Si Si4 0.629753 0.531768 0.954038
Si Si5 0.703299 0.259817 0.454707
Si Si6 0.635563 0.214086 0.621603
Si Si7 0.139233 0.776966 0.706260
O O1 0.363122 0.529051 0.750000
O O2 0.500000 0.523746 0.687299
O O3 0.248130 0.524537 0.681327
O O4 0.364991 0.386635 0.705190
O O5 0.862305 0.430983 0.624113
O O6 0.869152 0.604947 0.626168
O O7 0.000000 0.514038 0.675336
O O8 0.749407 0.484967 0.562934
O O9 0.867631 0.331916 0.556056
O O10 0.000000 0.473843 0.565374
O O11 0.500000 0.504353 0.935709
O O12 0.640916 0.641399 0.951674
O O13 0.627138 0.500000 0.000000
O O14 0.750000 0.250000 0.500000
O O15 0.802802 0.260464 0.419656
O O16 0.500000 0.251365 0.620993
O O17 0.693304 0.245346 0.664005
O O18 0.191012 0.749906 0.750000
O O19 0.000000 0.743734 0.706169
#
# Coordination Sequence:
#
# PCOD9473998 Si02
#       7
#    16  16  16  16  16  16  16
#     4   9  18  34  57  85 117 156 202 251 310 378
#     4  10  21  37  57  86 123 160 204 260 315 378
#     4  11  24  43  64  91 125 166 211 263 325 383
#     4  11  24  44  63  91 124 158 214 272 316 381
#     4  12  24  41  64  93 123 172 216 270 328 388
#     4  10  21  36  58  89 125 162 210 261 316 383
#     4   8  15  31  56  86 118 153 199 254 308 368
#
# _framework density 20.562614
#
# number of rings (size 3 to 8) (size 9 to 14) (size 15 to 20)
#    0.000    1.857    2.857    2.143    0.000    3.429 
#    0.000    1.429    0.000    0.857    0.000    0.000 
#    0.000    0.000    0.000    0.000    0.000    0.000 
#
# Total GULP energy -311919.295922 kJ/mol
# GULP energy per Si atom -5569.987427 kJ/mol
# Density = 2.051581 g / cm^3
# Si number density = 20.562614 Si / 1000 Ang^3
#
#
#
# Elastic Constant Matrix: (Units=GPa)
#
#
# Indices 1 2 3 4 5 6 
#
# 1 184.9029 38.6063 69.4971 0.0000 0.0000 0.0000
# 2 38.6063 64.2633 10.5744 0.0000 0.0000 0.0000
# 3 69.4971 10.5744 122.9075 0.0000 0.0000 0.0000
# 4 0.0000 0.0000 0.0000 27.4776 0.0000 0.0000
# 5 0.0000 0.0000 0.0000 0.0000 63.2745 0.0000
# 6 0.0000 0.0000 0.0000 0.0000 0.0000 25.4155
#
#
#
# Elastic Compliance Matrix: (Units=1/GPa)
#
#
# Indices 1 2 3 4 5 6 
#
# 1 0.007764 -0.003998 -0.004046 0.000000 0.000000 0.000000
# 2 -0.003998 0.017844 0.000726 0.000000 0.000000 0.000000
# 3 -0.004046 0.000726 0.010362 0.000000 0.000000 0.000000
# 4 0.000000 0.000000 0.000000 0.036393 0.000000 0.000000
# 5 0.000000 0.000000 0.000000 0.000000 0.015804 0.000000
# 6 0.000000 0.000000 0.000000 0.000000 0.000000 0.039346
#
#
# Mechanical properties :
#
#
# Convention : Reuss Voigt Hill
#
# Bulk Modulus (GPa) = 46.87885 67.71438 57.29662
# Shear Modulus (GPa) = 33.49852 40.12657 36.81254
#
# Velocity S-wave (km/s) = 4.04059 4.42230 4.23574
# Velocity P-wave (km/s) = 6.67953 7.68622 7.20048
#
# Compressibility (1/GPa) = 0.02133158
#
# Stress axis : x y z
#
# Youngs Moduli (GPa) = 128.80330 56.04248 96.51088
#
# Poissons Ratio (x) = 0.22408 0.39048
# Poissons Ratio (y) = 0.51500 -0.07003
# Poissons Ratio (z) = 0.52113 -0.04067
#
# Static dielectric constant tensor:
#      x y z
#    x 1.787020 0.000000 0.000000 
#    y 0.000000 1.764740 0.000000 
#    z 0.000000 0.000000 2.109090 
# 
# From -- ./inp_files/72850.got.cif
#   From: 2010.05.17/outbox.cif.g08.bks.cpg/sg63_37_cif.got.tgz:72850.got - 2010.06.03 15:47:04.
