data_PCOD9473822
_publ_section_title
;
Structure prediction by ZEFSAII (Michael W. Deem and Ramdas Pophale) SiO2 
 PCOD9473822
Probable space group: C M C M
;
_chemical_formula_sum "Si O2"
_cell_formula_units_Z 96
_cell_length_a 7.480487
_cell_length_b 20.244490
_cell_length_c 30.110170
_cell_angle_alpha 90.000000
_cell_angle_beta 90.000000
_cell_angle_gamma 90.000000
_cell_volume 4559.843323
_symmetry_space_group_name_H-M "C M C M"
_symmetry_group_IT_number 63
_symmetry_cell_setting 'orthorhombic'
loop_
_space_group_symop_operation_xyz
x,y,z
-x,-y,1/2+z
x,-y,-z
-x,y,1/2-z
-x,-y,-z
x,y,1/2-z
-x,y,z
x,-y,1/2+z
1/2+x,1/2+y,z
1/2-x,1/2-y,1/2+z
1/2+x,1/2-y,-z
1/2-x,1/2+y,1/2-z
1/2-x,1/2-y,-z
1/2+x,1/2+y,1/2-z
1/2-x,1/2+y,z
1/2+x,1/2-y,1/2+z
loop_
_atom_site_type_symbol
_atom_site_label
_atom_site_fract_x
_atom_site_fract_y
_atom_site_fract_z
Si Si1 0.212857 0.184764 0.528531
Si Si2 0.204715 0.440729 0.528062
Si Si3 0.282156 0.011915 0.300884
Si Si4 0.789341 0.762444 0.378730
Si Si5 0.715383 0.137800 0.699619
Si Si6 0.219602 0.611653 0.377476
O O1 0.250000 0.250000 0.500000
O O2 0.295616 0.123031 0.503333
O O3 0.282224 0.199315 0.578066
O O4 0.000000 0.172851 0.529856
O O5 0.289634 0.500000 0.500000
O O6 0.280410 0.419461 0.575713
O O7 0.000000 0.461271 0.537861
O O8 0.227312 0.025585 0.250000
O O9 0.500000 0.012256 0.301141
O O10 0.226078 0.936850 0.312380
O O11 0.223288 0.065970 0.336451
O O12 0.768928 0.806981 0.335357
O O13 0.719678 0.687755 0.374052
O O14 0.000000 0.754590 0.387648
O O15 0.776312 0.151667 0.750000
O O16 0.500000 0.136639 0.700303
O O17 0.000000 0.612187 0.377482
#
# Coordination Sequence:
#
# PCOD9473822 Si02
#       6
#    16  16  16  16  16  16
#     4  11  22  38  57  79 113 149 185 228 275 328
#     4  10  21  36  56  82 110 144 186 229 275 329
#     4   8  15  29  51  77 102 132 171 218 267 310
#     4  10  21  35  53  79 110 141 176 220 267 323
#     4   9  19  35  55  81 109 136 175 222 265 320
#     4   9  17  32  50  75 108 135 174 224 262 312
#
# _framework density 21.053356000000001
#
# number of rings (size 3 to 8) (size 9 to 14) (size 15 to 20)
#    0.000    2.500    1.667    1.500    2.333    2.667 
#    0.000    1.667    0.000    1.000    0.000    0.000 
#    0.000    0.000    0.000    0.000    0.000    0.000 
#
# Total GULP energy -267967.907136 kJ/mol
# GULP energy per Si atom -5582.664732 kJ/mol
# Density = 2.100544 g / cm^3
# Si number density = 21.053356 Si / 1000 Ang^3
#
#
#
# Elastic Constant Matrix: (Units=GPa)
#
#
# Indices 1 2 3 4 5 6 
#
# 1 59.4985 -9.7920 -6.5043 0.0000 0.0000 0.0000
# 2 -9.7920 149.3984 112.8947 0.0000 0.0000 0.0000
# 3 -6.5043 112.8947 173.4674 0.0000 0.0000 0.0000
# 4 0.0000 0.0000 0.0000 43.8502 0.0000 0.0000
# 5 0.0000 0.0000 0.0000 0.0000 14.5019 0.0000
# 6 0.0000 0.0000 0.0000 0.0000 0.0000 14.5498
#
#
#
# Elastic Compliance Matrix: (Units=1/GPa)
#
#
# Indices 1 2 3 4 5 6 
#
# 1 0.016993 0.001244 -0.000173 0.000000 0.000000 0.000000
# 2 0.001244 0.013262 -0.008584 0.000000 0.000000 0.000000
# 3 -0.000173 -0.008584 0.011345 0.000000 0.000000 0.000000
# 4 0.000000 0.000000 0.000000 0.022805 0.000000 0.000000
# 5 0.000000 0.000000 0.000000 0.000000 0.068956 0.000000
# 6 0.000000 0.000000 0.000000 0.000000 0.000000 0.068730
#
#
# Mechanical properties :
#
#
# Convention : Reuss Voigt Hill
#
# Bulk Modulus (GPa) = 37.62995 63.95124 50.79060
# Shear Modulus (GPa) = 22.12637 33.63143 27.87890
#
# Velocity S-wave (km/s) = 3.24538 4.00113 3.64291
# Velocity P-wave (km/s) = 5.65294 7.19633 6.47081
#
# Compressibility (1/GPa) = 0.02657458
#
# Stress axis : x y z
#
# Youngs Moduli (GPa) = 58.84759 75.40359 88.14351
#
# Poissons Ratio (x) = -0.09381 0.01521
# Poissons Ratio (y) = -0.07322 0.75666
# Poissons Ratio (z) = 0.01015 0.64729
#
# Static dielectric constant tensor:
#      x y z
#    x 1.855000 0.000000 0.000000 
#    y 0.000000 1.712000 0.000000 
#    z 0.000000 0.000000 1.538150 
# 
# From -- ./inp_files/67014.got.cif
#   From: 2010.05.17/outbox.cif.g08.bks.cpg/sg63_34_cif.got.tgz:67014.got - 2010.06.03 15:47:04.
