data_PCOD9473974
_publ_section_title
;
Structure prediction by ZEFSAII (Michael W. Deem and Ramdas Pophale) SiO2 
 PCOD9473974
Probable space group: C M C M
;
_chemical_formula_sum "Si O2"
_cell_formula_units_Z 72
_cell_length_a 10.585614
_cell_length_b 28.160250
_cell_length_c 13.170811
_cell_angle_alpha 90.000000
_cell_angle_beta 90.000000
_cell_angle_gamma 90.000000
_cell_volume 3926.133631
_symmetry_space_group_name_H-M "C M C M"
_symmetry_group_IT_number 63
_symmetry_cell_setting 'orthorhombic'
loop_
_space_group_symop_operation_xyz
x,y,z
-x,-y,1/2+z
x,-y,-z
-x,y,1/2-z
-x,-y,-z
x,y,1/2-z
-x,y,z
x,-y,1/2+z
1/2+x,1/2+y,z
1/2-x,1/2-y,1/2+z
1/2+x,1/2-y,-z
1/2-x,1/2+y,1/2-z
1/2-x,1/2-y,-z
1/2+x,1/2+y,1/2-z
1/2-x,1/2+y,z
1/2+x,1/2-y,1/2+z
loop_
_atom_site_type_symbol
_atom_site_label
_atom_site_fract_x
_atom_site_fract_y
_atom_site_fract_z
Si Si1 0.854086 0.932608 0.421572
Si Si2 0.500000 0.178160 0.001552
Si Si3 0.728150 0.537319 0.134879
Si Si4 0.000000 0.226635 0.872076
Si Si5 0.000000 0.582500 0.367265
Si Si6 0.748599 0.831052 0.369080
O O1 0.845995 0.937069 0.543983
O O2 0.781063 0.886459 0.384607
O O3 0.000000 0.929770 0.389965
O O4 0.795160 0.981307 0.379402
O O5 0.500000 0.221513 0.079941
O O6 0.500000 0.127646 0.059337
O O7 0.374560 0.181243 0.933378
O O8 0.692245 0.550804 0.250000
O O9 0.874309 0.551286 0.118877
O O10 0.126650 0.198077 0.902102
O O11 0.000000 0.229217 0.750000
O O12 0.000000 0.599223 0.250000
O O13 0.726927 0.821893 0.250000
#
# Coordination Sequence:
#
# PCOD9473974 Si02
#       6
#    16   8  16   8   8  16
#     4  11  22  37  60  85 117 165 205 245 304 354
#     4  12  22  41  64  90 120 159 198 248 306 352
#     4  10  21  36  56  85 120 159 202 247 291 353
#     4  10  23  43  68  90 118 156 200 248 306 366
#     4  10  21  37  57  84 121 157 198 240 297 363
#     4  11  23  40  63  92 122 156 201 252 301 359
#
# _framework density 18.338652
#
# number of rings (size 3 to 8) (size 9 to 14) (size 15 to 20)
#    0.000    1.333    3.333    3.333    0.000    5.333 
#    0.000    2.222    0.000    1.333    0.000    0.000 
#    0.000    0.000    0.000    0.000    0.000    0.000 
#
# Total GULP energy -201120.947211 kJ/mol
# GULP energy per Si atom -5586.692978 kJ/mol
# Density = 1.829691 g / cm^3
# Si number density = 18.338652 Si / 1000 Ang^3
#
#
#
# Elastic Constant Matrix: (Units=GPa)
#
#
# Indices 1 2 3 4 5 6 
#
# 1 131.0589 32.9319 34.5215 0.0000 0.0000 0.0000
# 2 32.9319 48.3877 -1.2395 0.0000 0.0000 0.0000
# 3 34.5215 -1.2395 58.7721 0.0000 0.0000 0.0000
# 4 0.0000 0.0000 0.0000 22.2919 0.0000 0.0000
# 5 0.0000 0.0000 0.0000 0.0000 23.0899 0.0000
# 6 0.0000 0.0000 0.0000 0.0000 0.0000 30.3754
#
#
#
# Elastic Compliance Matrix: (Units=1/GPa)
#
#
# Indices 1 2 3 4 5 6 
#
# 1 0.011448 -0.007968 -0.006892 0.000000 0.000000 0.000000
# 2 -0.007968 0.026223 0.005233 0.000000 0.000000 0.000000
# 3 -0.006892 0.005233 0.021174 0.000000 0.000000 0.000000
# 4 0.000000 0.000000 0.000000 0.044859 0.000000 0.000000
# 5 0.000000 0.000000 0.000000 0.000000 0.043309 0.000000
# 6 0.000000 0.000000 0.000000 0.000000 0.000000 0.032921
#
#
# Mechanical properties :
#
#
# Convention : Reuss Voigt Hill
#
# Bulk Modulus (GPa) = 25.25837 41.18297 33.22067
# Shear Modulus (GPa) = 23.54222 26.61842 25.08032
#
# Velocity S-wave (km/s) = 3.58683 3.81398 3.70215
# Velocity P-wave (km/s) = 5.56390 6.47309 6.03564
#
# Compressibility (1/GPa) = 0.03959083
#
# Stress axis : x y z
#
# Youngs Moduli (GPa) = 87.35410 38.13432 47.22872
#
# Poissons Ratio (x) = 0.30384 0.32551
# Poissons Ratio (y) = 0.69601 -0.24715
# Poissons Ratio (z) = 0.60206 -0.19956
#
# Static dielectric constant tensor:
#      x y z
#    x 1.619260 0.000000 0.000000 
#    y 0.000000 1.587060 0.000000 
#    z 0.000000 0.000000 1.645510 
# 
# From -- ./inp_files/27931.got.cif
#   From: 2010.05.17/outbox.cif.g08.bks.cpg/sg63_14_cif.got.tgz:27931.got - 2010.06.03 15:47:04.
