data_PCOD9473253
_publ_section_title
;
Structure prediction by ZEFSAII (Michael W. Deem and Ramdas Pophale) SiO2 
 PCOD9473253
Probable space group: C M C M
;
_chemical_formula_sum "Si O2"
_cell_formula_units_Z 104
_cell_length_a 14.441326
_cell_length_b 13.738027
_cell_length_c 22.124402
_cell_angle_alpha 90.000000
_cell_angle_beta 90.000000
_cell_angle_gamma 90.000000
_cell_volume 4389.377958
_symmetry_space_group_name_H-M "C M C M"
_symmetry_group_IT_number 63
_symmetry_cell_setting 'orthorhombic'
loop_
_space_group_symop_operation_xyz
x,y,z
-x,-y,1/2+z
x,-y,-z
-x,y,1/2-z
-x,-y,-z
x,y,1/2-z
-x,y,z
x,-y,1/2+z
1/2+x,1/2+y,z
1/2-x,1/2-y,1/2+z
1/2+x,1/2-y,-z
1/2-x,1/2+y,1/2-z
1/2-x,1/2-y,-z
1/2+x,1/2+y,1/2-z
1/2-x,1/2+y,z
1/2+x,1/2-y,1/2+z
loop_
_atom_site_type_symbol
_atom_site_label
_atom_site_fract_x
_atom_site_fract_y
_atom_site_fract_z
Si Si1 0.894030 0.489449 0.372614
Si Si2 0.389108 0.334733 0.317726
Si Si3 0.613200 0.663469 0.250000
Si Si4 0.816604 0.312628 0.587144
Si Si5 0.828684 0.331658 0.042127
Si Si6 0.887318 0.388543 0.250000
Si Si7 0.813012 0.000000 0.500000
Si Si8 0.611282 0.458448 0.869095
O O1 0.827346 0.574118 0.396838
O O2 0.893765 0.396241 0.416634
O O3 0.860593 0.448171 0.309045
O O4 0.000000 0.526904 0.368306
O O5 0.353266 0.325995 0.250000
O O6 0.500000 0.340127 0.315004
O O7 0.362029 0.245275 0.358802
O O8 0.357029 0.434744 0.347489
O O9 0.500000 0.659340 0.250000
O O10 0.641855 0.776327 0.250000
O O11 0.643683 0.612667 0.186420
O O12 0.867867 0.299046 0.522532
O O13 0.718347 0.258948 0.575884
O O14 0.748769 0.409117 0.023090
O O15 0.000000 0.386061 0.250000
O O16 0.866117 0.041073 0.440911
O O17 0.500000 0.451347 0.866125
#
# Coordination Sequence:
#
# PCOD9473253 Si02
#       8
#    16  16   8  16  16   8   8  16
#     4  11  24  47  73 100 136 187 243 290 347 423
#     4  10  20  36  61  97 134 173 225 284 345 421
#     4   9  18  38  64  96 138 185 233 287 354 422
#     4  11  23  42  67  97 135 177 229 283 359 408
#     4  11  25  44  67  95 138 187 225 295 354 418
#     4   9  22  44  68  98 136 175 233 303 346 400
#     4  12  21  42  61  90 144 178 226 294 359 408
#     4  10  20  36  64  96 133 183 232 281 344 427
#
# _framework density 23.693560999999999
#
# number of rings (size 3 to 8) (size 9 to 14) (size 15 to 20)
#    0.000    1.538    3.846    0.692    1.077    4.308 
#    1.385    0.769    1.692    0.000    0.000    0.000 
#    0.000    0.000    0.000    0.000    0.000    0.000 
#
# Total GULP energy -290689.026369 kJ/mol
# GULP energy per Si atom -5590.173584 kJ/mol
# Density = 2.363963 g / cm^3
# Si number density = 23.693561 Si / 1000 Ang^3
#
#
#
# Elastic Constant Matrix: (Units=GPa)
#
#
# Indices 1 2 3 4 5 6 
#
# 1 58.6932 33.8812 39.3018 0.0000 0.0000 0.0000
# 2 33.8812 139.5204 68.0704 0.0000 0.0000 0.0000
# 3 39.3018 68.0704 207.1995 0.0000 0.0000 0.0000
# 4 0.0000 0.0000 0.0000 49.4369 0.0000 0.0000
# 5 0.0000 0.0000 0.0000 0.0000 28.5065 0.0000
# 6 0.0000 0.0000 0.0000 0.0000 0.0000 31.8906
#
#
#
# Elastic Compliance Matrix: (Units=1/GPa)
#
#
# Indices 1 2 3 4 5 6 
#
# 1 0.021059 -0.003769 -0.002756 0.000000 0.000000 0.000000
# 2 -0.003769 0.009210 -0.002311 0.000000 0.000000 0.000000
# 3 -0.002756 -0.002311 0.006108 0.000000 0.000000 0.000000
# 4 0.000000 0.000000 0.000000 0.020228 0.000000 0.000000
# 5 0.000000 0.000000 0.000000 0.000000 0.035080 0.000000
# 6 0.000000 0.000000 0.000000 0.000000 0.000000 0.031357
#
#
# Mechanical properties :
#
#
# Convention : Reuss Voigt Hill
#
# Bulk Modulus (GPa) = 53.46178 76.43555 64.94867
# Shear Modulus (GPa) = 34.02517 39.57745 36.80131
#
# Velocity S-wave (km/s) = 3.79364 4.09147 3.94537
# Velocity P-wave (km/s) = 6.46543 7.39258 6.94449
#
# Compressibility (1/GPa) = 0.01870495
#
# Stress axis : x y z
#
# Youngs Moduli (GPa) = 47.48508 108.57556 163.71350
#
# Poissons Ratio (x) = 0.40926 0.45123
# Poissons Ratio (y) = 0.17899 0.37831
# Poissons Ratio (z) = 0.13088 0.25090
#
# Static dielectric constant tensor:
#      x y z
#    x 1.921300 0.000000 0.000000 
#    y 0.000000 1.869020 0.000000 
#    z 0.000000 0.000000 1.913020 
# 
# From -- ./inp_files/55664.got.cif
#   From: 2010.05.17/outbox.cif.g08.bks.cpg/sg63_28_cif.got.tgz:55664.got - 2010.06.03 15:47:04.
