data_PCOD9473499
_publ_section_title
;
Structure prediction by ZEFSAII (Michael W. Deem and Ramdas Pophale) SiO2 
 PCOD9473499
Probable space group: C M C M
;
_chemical_formula_sum "Si O2"
_cell_formula_units_Z 84
_cell_length_a 7.549580
_cell_length_b 23.436740
_cell_length_c 20.696220
_cell_angle_alpha 90.000000
_cell_angle_beta 90.000000
_cell_angle_gamma 90.000000
_cell_volume 3661.938328
_symmetry_space_group_name_H-M "C M C M"
_symmetry_group_IT_number 63
_symmetry_cell_setting 'orthorhombic'
loop_
_space_group_symop_operation_xyz
x,y,z
-x,-y,1/2+z
x,-y,-z
-x,y,1/2-z
-x,-y,-z
x,y,1/2-z
-x,y,z
x,-y,1/2+z
1/2+x,1/2+y,z
1/2-x,1/2-y,1/2+z
1/2+x,1/2-y,-z
1/2-x,1/2+y,1/2-z
1/2-x,1/2-y,-z
1/2+x,1/2+y,1/2-z
1/2-x,1/2+y,z
1/2+x,1/2-y,1/2+z
loop_
_atom_site_type_symbol
_atom_site_label
_atom_site_fract_x
_atom_site_fract_y
_atom_site_fract_z
Si Si1 0.500000 0.824404 0.750000
Si Si2 0.289916 0.535670 0.678117
Si Si3 0.796763 0.781948 0.844248
Si Si4 0.796536 0.667375 0.475740
Si Si5 0.213441 0.659764 0.878255
Si Si6 0.284935 0.460089 0.560557
O O1 0.656818 0.819890 0.806153
O O2 0.214746 0.529807 0.750000
O O3 0.500000 0.525279 0.681786
O O4 0.268208 0.599989 0.652364
O O5 0.220725 0.491140 0.625396
O O6 0.793849 0.795299 0.920704
O O7 0.738143 0.715789 0.837570
O O8 0.000000 0.788878 0.822876
O O9 0.719893 0.666114 0.548128
O O10 0.787815 0.602517 0.450684
O O11 0.000000 0.686347 0.479662
O O12 0.000000 0.659104 0.881317
O O13 0.238125 0.500000 0.500000
O O14 0.500000 0.455855 0.562182
#
# Coordination Sequence:
#
# PCOD9473499 Si02
#       6
#     4  16  16  16  16  16
#     4  12  26  48  68  98 138 178 232 272 332 420
#     4  10  22  38  60  89 125 169 220 279 344 408
#     4  11  25  45  68  99 136 179 223 276 336 401
#     4  11  22  41  66  96 132 171 227 283 333 397
#     4  10  23  39  64  96 130 170 216 277 341 404
#     4  10  20  38  61  91 125 170 224 276 340 406
#
# _framework density 22.938670999999999
#
# number of rings (size 3 to 8) (size 9 to 14) (size 15 to 20)
#    0.000    1.524    2.857    1.429    2.667    2.286 
#    1.714    0.000    0.000    0.000    0.000    0.000 
#    0.000    0.000    0.000    0.000    0.000    0.000 
#
# Total GULP energy -234440.296508 kJ/mol
# GULP energy per Si atom -5581.911822 kJ/mol
# Density = 2.288646 g / cm^3
# Si number density = 22.938671 Si / 1000 Ang^3
#
#
#
# Elastic Constant Matrix: (Units=GPa)
#
#
# Indices 1 2 3 4 5 6 
#
# 1 92.5172 -4.1239 21.4382 0.0000 0.0000 0.0000
# 2 -4.1239 66.8155 6.5621 0.0000 0.0000 0.0000
# 3 21.4382 6.5621 141.8391 0.0000 0.0000 0.0000
# 4 0.0000 0.0000 0.0000 -29.8281 0.0000 0.0000
# 5 0.0000 0.0000 0.0000 0.0000 9.0253 0.0000
# 6 0.0000 0.0000 0.0000 0.0000 0.0000 26.5075
#
#
#
# Elastic Compliance Matrix: (Units=1/GPa)
#
#
# Indices 1 2 3 4 5 6 
#
# 1 0.011251 0.000865 -0.001741 0.000000 0.000000 0.000000
# 2 0.000865 0.015101 -0.000829 0.000000 0.000000 0.000000
# 3 -0.001741 -0.000829 0.007352 0.000000 0.000000 0.000000
# 4 0.000000 0.000000 0.000000 -0.033525 0.000000 0.000000
# 5 0.000000 0.000000 0.000000 0.000000 0.110800 0.000000
# 6 0.000000 0.000000 0.000000 0.000000 0.000000 0.037725
#
#
# Mechanical properties :
#
#
# Convention : Reuss Voigt Hill
#
# Bulk Modulus (GPa) = 33.00920 38.76940 35.88930
# Shear Modulus (GPa) = 30.82405 19.62732 25.22568
#
# Velocity S-wave (km/s) = 3.66971 2.92831 3.31977
# Velocity P-wave (km/s) = 5.69009 5.32648 5.51128
#
# Compressibility (1/GPa) = 0.03029458
#
# Stress axis : x y z
#
# Youngs Moduli (GPa) = 88.88351 66.21877 136.02324
#
# Poissons Ratio (x) = -0.05730 0.23675
# Poissons Ratio (y) = -0.07691 0.11282
# Poissons Ratio (z) = 0.15470 0.05493
#
# Static dielectric constant tensor:
#      x y z
#    x 1.867520 0.000000 0.000000 
#    y 0.000000 1.834050 0.000000 
#    z 0.000000 0.000000 1.869700 
# 
# From -- ./inp_files/50920.got.cif
#   From: 2010.05.17/outbox.cif.g08.bks.cpg/sg63_26_cif.got.tgz:50920.got - 2010.06.03 15:47:04.
