data_PCOD9473641
_publ_section_title
;
Structure prediction by ZEFSAII (Michael W. Deem and Ramdas Pophale) SiO2 
 PCOD9473641
Probable space group: C M C M
;
_chemical_formula_sum "Si O2"
_cell_formula_units_Z 88
_cell_length_a 11.850113
_cell_length_b 14.249316
_cell_length_c 23.429645
_cell_angle_alpha 90.000000
_cell_angle_beta 90.000000
_cell_angle_gamma 90.000000
_cell_volume 3956.236248
_symmetry_space_group_name_H-M "C M C M"
_symmetry_group_IT_number 63
_symmetry_cell_setting 'orthorhombic'
loop_
_space_group_symop_operation_xyz
x,y,z
-x,-y,1/2+z
x,-y,-z
-x,y,1/2-z
-x,-y,-z
x,y,1/2-z
-x,y,z
x,-y,1/2+z
1/2+x,1/2+y,z
1/2-x,1/2-y,1/2+z
1/2+x,1/2-y,-z
1/2-x,1/2+y,1/2-z
1/2-x,1/2-y,-z
1/2+x,1/2+y,1/2-z
1/2-x,1/2+y,z
1/2+x,1/2-y,1/2+z
loop_
_atom_site_type_symbol
_atom_site_label
_atom_site_fract_x
_atom_site_fract_y
_atom_site_fract_z
Si Si1 0.500000 0.408696 0.044653
Si Si2 0.000000 0.279518 0.900098
Si Si3 0.634792 0.282948 0.813536
Si Si4 0.758490 0.360217 0.015222
Si Si5 0.500000 0.108571 0.980256
Si Si6 0.133143 0.570422 0.817267
Si Si7 0.784840 0.400019 0.887542
O O1 0.500000 0.332520 0.100054
O O2 0.500000 0.500000 0.000000
O O3 0.635854 0.388630 0.036483
O O4 0.889299 0.329716 0.875087
O O5 0.000000 0.316710 0.966750
O O6 0.673058 0.314024 0.750000
O O7 0.500000 0.279292 0.812384
O O8 0.675162 0.349781 0.863301
O O9 0.674777 0.176839 0.823133
O O10 0.778229 0.412794 0.954987
O O11 0.877961 0.373443 0.048569
O O12 0.750000 0.250000 0.000000
O O13 0.500000 0.000000 0.000000
O O14 0.141925 0.546963 0.750000
O O15 0.197570 0.495769 0.854735
O O16 0.000000 0.565867 0.832110
#
# Coordination Sequence:
#
# PCOD9473641 Si02
#       7
#     8   8  16  16   8  16  16
#     4  12  24  42  60  79 117 168 193 241 304 347
#     4  10  22  40  55  88 123 139 199 261 274 342
#     4   9  20  38  58  86 118 147 186 236 287 345
#     4  11  22  41  58  84 121 152 200 247 285 349
#     4  10  20  40  62  81 109 155 196 248 292 335
#     4   9  18  35  59  86 111 143 190 235 284 347
#     4  11  20  36  62  84 115 151 191 240 291 335
#
# _framework density 22.243362999999999
#
# number of rings (size 3 to 8) (size 9 to 14) (size 15 to 20)
#    0.000    1.818    4.545    2.182    1.273    1.455 
#    6.545    0.000    2.000    0.000    0.000    0.000 
#    0.000    0.000    0.000    0.000    0.000    0.000 
#
# Total GULP energy -245031.271725 kJ/mol
# GULP energy per Si atom -5568.892539 kJ/mol
# Density = 2.219274 g / cm^3
# Si number density = 22.243363 Si / 1000 Ang^3
#
#
#
# Elastic Constant Matrix: (Units=GPa)
#
#
# Indices 1 2 3 4 5 6 
#
# 1 148.4229 28.4514 8.1434 0.0000 0.0000 0.0000
# 2 28.4514 64.5154 17.7601 0.0000 0.0000 0.0000
# 3 8.1434 17.7601 63.7209 0.0000 0.0000 0.0000
# 4 0.0000 0.0000 0.0000 33.8181 0.0000 0.0000
# 5 0.0000 0.0000 0.0000 0.0000 26.0288 0.0000
# 6 0.0000 0.0000 0.0000 0.0000 0.0000 36.7215
#
#
#
# Elastic Compliance Matrix: (Units=1/GPa)
#
#
# Indices 1 2 3 4 5 6 
#
# 1 0.007360 -0.003235 -0.000039 0.000000 0.000000 0.000000
# 2 -0.003235 0.018210 -0.004662 0.000000 0.000000 0.000000
# 3 -0.000039 -0.004662 0.016998 0.000000 0.000000 0.000000
# 4 0.000000 0.000000 0.000000 0.029570 0.000000 0.000000
# 5 0.000000 0.000000 0.000000 0.000000 0.038419 0.000000
# 6 0.000000 0.000000 0.000000 0.000000 0.000000 0.027232
#
#
# Mechanical properties :
#
#
# Convention : Reuss Voigt Hill
#
# Bulk Modulus (GPa) = 37.45898 42.81877 40.13888
# Shear Modulus (GPa) = 30.75800 34.13394 32.44597
#
# Velocity S-wave (km/s) = 3.72263 3.92161 3.82341
# Velocity P-wave (km/s) = 5.94595 6.30851 6.12991
#
# Compressibility (1/GPa) = 0.02669587
#
# Stress axis : x y z
#
# Youngs Moduli (GPa) = 135.87412 54.91430 58.83107
#
# Poissons Ratio (x) = 0.17764 0.00229
# Poissons Ratio (y) = 0.43955 0.27428
# Poissons Ratio (z) = 0.00529 0.25601
#
# Static dielectric constant tensor:
#      x y z
#    x 1.831410 0.000000 0.000000 
#    y 0.000000 1.883230 0.000000 
#    z 0.000000 0.000000 1.854690 
# 
# From -- ./inp_files/68225.got.cif
#   From: 2010.05.17/outbox.cif.g08.bks.cpg/sg63_35_cif.got.tgz:68225.got - 2010.06.03 15:47:04.
