data_PCOD9473476
_publ_section_title
;
Structure prediction by ZEFSAII (Michael W. Deem and Ramdas Pophale) SiO2 
 PCOD9473476
Probable space group: C M C M
;
_chemical_formula_sum "Si O2"
_cell_formula_units_Z 92
_cell_length_a 23.777687
_cell_length_b 22.880748
_cell_length_c 9.631560
_cell_angle_alpha 90.000000
_cell_angle_beta 90.000000
_cell_angle_gamma 90.000000
_cell_volume 5240.062395
_symmetry_space_group_name_H-M "C M C M"
_symmetry_group_IT_number 63
_symmetry_cell_setting 'orthorhombic'
loop_
_space_group_symop_operation_xyz
x,y,z
-x,-y,1/2+z
x,-y,-z
-x,y,1/2-z
-x,-y,-z
x,y,1/2-z
-x,y,z
x,-y,1/2+z
1/2+x,1/2+y,z
1/2-x,1/2-y,1/2+z
1/2+x,1/2-y,-z
1/2-x,1/2+y,1/2-z
1/2-x,1/2-y,-z
1/2+x,1/2+y,1/2-z
1/2-x,1/2+y,z
1/2+x,1/2-y,1/2+z
loop_
_atom_site_type_symbol
_atom_site_label
_atom_site_fract_x
_atom_site_fract_y
_atom_site_fract_z
Si Si1 0.432115 0.556196 0.589519
Si Si2 0.753687 0.190412 0.086295
Si Si3 0.358666 0.878563 0.583809
Si Si4 0.500000 0.984159 0.250000
Si Si5 0.433223 0.789023 0.412686
Si Si6 0.089984 0.500000 0.500000
Si Si7 0.882244 0.160154 0.412097
O O1 0.414177 0.500000 0.500000
O O2 0.414122 0.552076 0.750000
O O3 0.500000 0.557992 0.587750
O O4 0.409357 0.613622 0.514265
O O5 0.748090 0.204525 0.250000
O O6 0.703298 0.146315 0.049503
O O7 0.815346 0.163400 0.066707
O O8 0.750000 0.250000 0.000000
O O9 0.365710 0.876014 0.750000
O O10 0.402733 0.835373 0.509853
O O11 0.372098 0.943648 0.534025
O O12 0.549294 0.985982 0.371002
O O13 0.423739 0.803931 0.250000
O O14 0.500000 0.788485 0.436451
O O15 0.407773 0.724639 0.435850
O O16 0.893680 0.145098 0.250000
#
# Coordination Sequence:
#
# PCOD9473476 Si02
#       7
#    16  16  16   4  16   8  16
#     4  10  21  37  60  88 118 154 192 237 294 356
#     4  10  21  40  63  86 115 156 197 242 293 352
#     4  11  24  40  60  87 122 155 201 250 304 356
#     4  10  24  42  68  86 120 162 212 242 316 378
#     4  10  22  35  57  88 119 154 195 240 291 355
#     4  11  24  42  62  92 120 164 201 260 306 368
#     4  10  20  38  60  85 118 155 197 242 291 352
#
# _framework density 17.557043
#
# number of rings (size 3 to 8) (size 9 to 14) (size 15 to 20)
#    0.000    1.739    2.609    1.043    3.652    3.478 
#    1.565    0.000    0.000    0.000    0.000    0.000 
#    0.000    0.000    0.000    0.000    0.000    0.000 
#
# Total GULP energy -256321.821326 kJ/mol
# GULP energy per Si atom -5572.213507 kJ/mol
# Density = 1.751708 g / cm^3
# Si number density = 17.557043 Si / 1000 Ang^3
#
#
#
# Elastic Constant Matrix: (Units=GPa)
#
#
# Indices 1 2 3 4 5 6 
#
# 1 77.0402 55.8639 55.5569 0.0000 0.0000 0.0000
# 2 55.8639 124.6252 80.4678 0.0000 0.0000 0.0000
# 3 55.5569 80.4678 116.0967 0.0000 0.0000 0.0000
# 4 0.0000 0.0000 0.0000 18.2950 0.0000 0.0000
# 5 0.0000 0.0000 0.0000 0.0000 29.4774 0.0000
# 6 0.0000 0.0000 0.0000 0.0000 0.0000 10.1048
#
#
#
# Elastic Compliance Matrix: (Units=1/GPa)
#
#
# Indices 1 2 3 4 5 6 
#
# 1 0.021702 -0.005471 -0.006593 0.000000 0.000000 0.000000
# 2 -0.005471 0.015903 -0.008405 0.000000 0.000000 0.000000
# 3 -0.006593 -0.008405 0.017594 0.000000 0.000000 0.000000
# 4 0.000000 0.000000 0.000000 0.054660 0.000000 0.000000
# 5 0.000000 0.000000 0.000000 0.000000 0.033924 0.000000
# 6 0.000000 0.000000 0.000000 0.000000 0.000000 0.098963
#
#
# Mechanical properties :
#
#
# Convention : Reuss Voigt Hill
#
# Bulk Modulus (GPa) = 70.11879 77.94881 74.03380
# Shear Modulus (GPa) = 17.33479 19.96700 18.65090
#
# Velocity S-wave (km/s) = 3.14561 3.37599 3.26283
# Velocity P-wave (km/s) = 7.29503 7.72595 7.51358
#
# Compressibility (1/GPa) = 0.01426151
#
# Stress axis : x y z
#
# Youngs Moduli (GPa) = 46.07848 62.88110 56.83755
#
# Poissons Ratio (x) = 0.34401 0.37475
# Poissons Ratio (y) = 0.25209 0.47769
# Poissons Ratio (z) = 0.30382 0.52849
#
# Static dielectric constant tensor:
#      x y z
#    x 1.586380 0.000000 0.000000 
#    y 0.000000 1.579740 0.000000 
#    z 0.000000 0.000000 1.587540 
# 
# From -- ./inp_files/10290.got.cif
#   From: 2010.05.17/outbox.cif.g08.bks.cpg/sg63_6_cif.got.tgz:10290.got - 2010.06.03 15:47:04.
