data_PCOD9473408
_publ_section_title
;
Structure prediction by ZEFSAII (Michael W. Deem and Ramdas Pophale) SiO2 
 PCOD9473408
Probable space group: C M C M
;
_chemical_formula_sum "Si O2"
_cell_formula_units_Z 80
_cell_length_a 11.704375
_cell_length_b 20.577649
_cell_length_c 15.422579
_cell_angle_alpha 90.000000
_cell_angle_beta 90.000000
_cell_angle_gamma 90.000000
_cell_volume 3714.505335
_symmetry_space_group_name_H-M "C M C M"
_symmetry_group_IT_number 63
_symmetry_cell_setting 'orthorhombic'
loop_
_space_group_symop_operation_xyz
x,y,z
-x,-y,1/2+z
x,-y,-z
-x,y,1/2-z
-x,-y,-z
x,y,1/2-z
-x,y,z
x,-y,1/2+z
1/2+x,1/2+y,z
1/2-x,1/2-y,1/2+z
1/2+x,1/2-y,-z
1/2-x,1/2+y,1/2-z
1/2-x,1/2-y,-z
1/2+x,1/2+y,1/2-z
1/2-x,1/2+y,z
1/2+x,1/2-y,1/2+z
loop_
_atom_site_type_symbol
_atom_site_label
_atom_site_fract_x
_atom_site_fract_y
_atom_site_fract_z
Si Si1 0.000000 0.446640 0.353027
Si Si2 0.000000 0.397155 0.645399
Si Si3 0.252899 0.936369 0.353387
Si Si4 0.772514 0.675706 0.402040
Si Si5 0.863465 0.188641 0.582931
Si Si6 0.125268 0.938839 0.649471
O O1 0.000000 0.524870 0.362126
O O2 0.879608 0.421790 0.389786
O O3 0.000000 0.431034 0.250000
O O4 0.888852 0.365762 0.601949
O O5 0.000000 0.383247 0.750000
O O6 0.268521 0.944291 0.250000
O O7 0.165706 0.878138 0.369058
O O8 0.203863 0.004294 0.389109
O O9 0.810091 0.747424 0.371716
O O10 0.707234 0.682927 0.493407
O O11 0.683750 0.631066 0.350931
O O12 0.000000 0.196696 0.571140
O O13 0.112545 0.956880 0.750000
O O14 0.000000 0.936958 0.608002
#
# Coordination Sequence:
#
# PCOD9473408 Si02
#       6
#     8   8  16  16  16  16
#     4   9  18  37  63  91 125 154 191 256 319 361
#     4  11  20  39  71  97 120 155 209 265 304 359
#     4  10  21  39  63  93 125 161 209 262 314 367
#     4  11  23  41  62  89 121 162 208 253 310 370
#     4  11  25  43  60  86 126 170 206 254 316 371
#     4  10  20  37  62  90 121 159 203 259 318 371
#
# _framework density 21.537189000000001
#
# number of rings (size 3 to 8) (size 9 to 14) (size 15 to 20)
#    0.000    1.600    3.000    1.800    0.000    4.400 
#    3.600    3.000    0.000    0.000    0.000    0.000 
#    0.000    0.000    0.000    0.000    0.000    0.000 
#
# Total GULP energy -223084.567987 kJ/mol
# GULP energy per Si atom -5577.114200 kJ/mol
# Density = 2.148817 g / cm^3
# Si number density = 21.537189 Si / 1000 Ang^3
#
#
#
# Elastic Constant Matrix: (Units=GPa)
#
#
# Indices 1 2 3 4 5 6 
#
# 1 169.0047 41.6684 23.6211 0.0000 0.0000 0.0000
# 2 41.6684 67.3430 13.5237 0.0000 0.0000 0.0000
# 3 23.6211 13.5237 24.9125 0.0000 0.0000 0.0000
# 4 0.0000 0.0000 0.0000 23.7371 0.0000 0.0000
# 5 0.0000 0.0000 0.0000 0.0000 21.3710 0.0000
# 6 0.0000 0.0000 0.0000 0.0000 0.0000 34.9809
#
#
#
# Elastic Compliance Matrix: (Units=1/GPa)
#
#
# Indices 1 2 3 4 5 6 
#
# 1 0.007533 -0.003622 -0.005177 0.000000 0.000000 0.000000
# 2 -0.003622 0.018407 -0.006558 0.000000 0.000000 0.000000
# 3 -0.005177 -0.006558 0.048609 0.000000 0.000000 0.000000
# 4 0.000000 0.000000 0.000000 0.042128 0.000000 0.000000
# 5 0.000000 0.000000 0.000000 0.000000 0.046792 0.000000
# 6 0.000000 0.000000 0.000000 0.000000 0.000000 0.028587
#
#
# Mechanical properties :
#
#
# Convention : Reuss Voigt Hill
#
# Bulk Modulus (GPa) = 22.81232 46.54297 34.67764
# Shear Modulus (GPa) = 21.06294 28.18093 24.62194
#
# Velocity S-wave (km/s) = 3.13066 3.62121 3.38483
# Velocity P-wave (km/s) = 4.86653 6.25633 5.60468
#
# Compressibility (1/GPa) = 0.04383596
#
# Stress axis : x y z
#
# Youngs Moduli (GPa) = 132.74049 54.32614 20.57222
#
# Poissons Ratio (x) = 0.19675 0.10650
# Poissons Ratio (y) = 0.48075 0.13492
# Poissons Ratio (z) = 0.68719 0.35629
#
# Static dielectric constant tensor:
#      x y z
#    x 1.829370 0.000000 0.000000 
#    y 0.000000 1.763130 0.000000 
#    z 0.000000 0.000000 1.822950 
# 
# From -- ./inp_files/42141.got.cif
#   From: 2010.05.17/outbox.cif.g08.bks.cpg/sg63_22_cif.got.tgz:42141.got - 2010.06.03 15:47:04.
