data_PCOD9473478
_publ_section_title
;
Structure prediction by ZEFSAII (Michael W. Deem and Ramdas Pophale) SiO2 
 PCOD9473478
Probable space group: C M C M
;
_chemical_formula_sum "Si O2"
_cell_formula_units_Z 92
_cell_length_a 23.732853
_cell_length_b 23.197778
_cell_length_c 9.328702
_cell_angle_alpha 90.000000
_cell_angle_beta 90.000000
_cell_angle_gamma 90.000000
_cell_volume 5135.911804
_symmetry_space_group_name_H-M "C M C M"
_symmetry_group_IT_number 63
_symmetry_cell_setting 'orthorhombic'
loop_
_space_group_symop_operation_xyz
x,y,z
-x,-y,1/2+z
x,-y,-z
-x,y,1/2-z
-x,-y,-z
x,y,1/2-z
-x,y,z
x,-y,1/2+z
1/2+x,1/2+y,z
1/2-x,1/2-y,1/2+z
1/2+x,1/2-y,-z
1/2-x,1/2+y,1/2-z
1/2-x,1/2-y,-z
1/2+x,1/2+y,1/2-z
1/2-x,1/2+y,z
1/2+x,1/2-y,1/2+z
loop_
_atom_site_type_symbol
_atom_site_label
_atom_site_fract_x
_atom_site_fract_y
_atom_site_fract_z
Si Si1 0.432261 0.557604 0.583522
Si Si2 0.748376 0.188490 0.081313
Si Si3 0.348382 0.881399 0.421970
Si Si4 0.500000 0.020252 0.250000
Si Si5 0.436107 0.783282 0.423789
Si Si6 0.092384 0.500000 0.500000
Si Si7 0.879264 0.163222 0.417467
O O1 0.415245 0.500000 0.500000
O O2 0.417259 0.553115 0.750000
O O3 0.500000 0.562839 0.572719
O O4 0.404661 0.612667 0.511027
O O5 0.734045 0.196419 0.250000
O O6 0.812008 0.165035 0.073988
O O7 0.750000 0.250000 0.000000
O O8 0.705200 0.144781 0.004997
O O9 0.339352 0.876566 0.250000
O O10 0.400090 0.838966 0.463129
O O11 0.368148 0.945679 0.459065
O O12 0.550081 0.017299 0.372981
O O13 0.438301 0.782966 0.250000
O O14 0.500000 0.784960 0.477905
O O15 0.404323 0.724821 0.465739
O O16 0.895275 0.155220 0.250000
#
# Coordination Sequence:
#
# PCOD9473478 Si02
#       7
#    16  16  16   4  16   8  16
#     4  10  21  37  60  89 121 155 192 239 299 365
#     4  11  23  41  65  90 120 162 208 256 309 372
#     4  11  23  41  63  90 128 168 216 258 316 382
#     4  10  24  42  68  94 132 170 220 262 336 390
#     4   9  18  32  57  88 118 155 197 243 296 367
#     4  11  24  42  66  98 128 174 215 274 322 394
#     4  10  20  38  60  86 118 157 204 248 299 364
#
# _framework density 17.913080999999998
#
# number of rings (size 3 to 8) (size 9 to 14) (size 15 to 20)
#    0.000    1.739    2.609    1.565    3.652    3.130 
#    1.565    0.000    0.000    0.000    0.000    0.000 
#    0.000    0.000    0.000    0.000    0.000    0.000 
#
# Total GULP energy -256207.505336 kJ/mol
# GULP energy per Si atom -5569.728377 kJ/mol
# Density = 1.787231 g / cm^3
# Si number density = 17.913081 Si / 1000 Ang^3
#
#
#
# Elastic Constant Matrix: (Units=GPa)
#
#
# Indices 1 2 3 4 5 6 
#
# 1 79.1681 60.3791 41.6535 0.0000 0.0000 0.0000
# 2 60.3791 148.7613 55.4831 0.0000 0.0000 0.0000
# 3 41.6535 55.4831 111.4285 0.0000 0.0000 0.0000
# 4 0.0000 0.0000 0.0000 14.9944 0.0000 0.0000
# 5 0.0000 0.0000 0.0000 0.0000 30.8508 0.0000
# 6 0.0000 0.0000 0.0000 0.0000 0.0000 22.7499
#
#
#
# Elastic Compliance Matrix: (Units=1/GPa)
#
#
# Indices 1 2 3 4 5 6 
#
# 1 0.019752 -0.006464 -0.004165 0.000000 0.000000 0.000000
# 2 -0.006464 0.010370 -0.002747 0.000000 0.000000 0.000000
# 3 -0.004165 -0.002747 0.011899 0.000000 0.000000 0.000000
# 4 0.000000 0.000000 0.000000 0.066692 0.000000 0.000000
# 5 0.000000 0.000000 0.000000 0.000000 0.032414 0.000000
# 6 0.000000 0.000000 0.000000 0.000000 0.000000 0.043956
#
#
# Mechanical properties :
#
#
# Convention : Reuss Voigt Hill
#
# Bulk Modulus (GPa) = 65.49026 72.70992 69.10009
# Shear Modulus (GPa) = 23.04926 25.84185 24.44555
#
# Velocity S-wave (km/s) = 3.59099 3.80231 3.69816
# Velocity P-wave (km/s) = 7.33710 7.74308 7.54282
#
# Compressibility (1/GPa) = 0.01526945
#
# Stress axis : x y z
#
# Youngs Moduli (GPa) = 50.62659 96.42901 84.03733
#
# Poissons Ratio (x) = 0.62327 0.35005
# Poissons Ratio (y) = 0.32723 0.23089
# Poissons Ratio (z) = 0.21088 0.26494
#
# Static dielectric constant tensor:
#      x y z
#    x 1.601400 0.000000 0.000000 
#    y 0.000000 1.600920 0.000000 
#    z 0.000000 0.000000 1.615920 
# 
# From -- ./inp_files/10292.got.cif
#   From: 2010.05.17/outbox.cif.g08.bks.cpg/sg63_6_cif.got.tgz:10292.got - 2010.06.03 15:47:04.
