data_PCOD9473142
_publ_section_title
;
Structure prediction by ZEFSAII (Michael W. Deem and Ramdas Pophale) SiO2 
 PCOD9473142
Probable space group: C M C M
;
_chemical_formula_sum "Si O2"
_cell_formula_units_Z 88
_cell_length_a 12.184088
_cell_length_b 19.697792
_cell_length_c 19.490265
_cell_angle_alpha 90.000000
_cell_angle_beta 90.000000
_cell_angle_gamma 90.000000
_cell_volume 4677.656411
_symmetry_space_group_name_H-M "C M C M"
_symmetry_group_IT_number 63
_symmetry_cell_setting 'orthorhombic'
loop_
_space_group_symop_operation_xyz
x,y,z
-x,-y,1/2+z
x,-y,-z
-x,y,1/2-z
-x,-y,-z
x,y,1/2-z
-x,y,z
x,-y,1/2+z
1/2+x,1/2+y,z
1/2-x,1/2-y,1/2+z
1/2+x,1/2-y,-z
1/2-x,1/2+y,1/2-z
1/2-x,1/2-y,-z
1/2+x,1/2+y,1/2-z
1/2-x,1/2+y,z
1/2+x,1/2-y,1/2+z
loop_
_atom_site_type_symbol
_atom_site_label
_atom_site_fract_x
_atom_site_fract_y
_atom_site_fract_z
Si Si1 0.000000 0.559098 0.618035
Si Si2 0.869548 0.818007 0.057894
Si Si3 0.500000 0.205251 0.671436
Si Si4 0.500000 0.911642 0.828363
Si Si5 0.760314 0.584270 0.167750
Si Si6 0.690955 0.284160 0.900816
Si Si7 0.743185 0.040386 0.570431
O O1 0.000000 0.493111 0.666028
O O2 0.112680 0.557284 0.574574
O O3 0.000000 0.624819 0.664647
O O4 0.805807 0.756818 0.096104
O O5 0.813058 0.890576 0.074931
O O6 0.000000 0.818697 0.070425
O O7 0.845172 0.803971 0.977561
O O8 0.500000 0.227053 0.750000
O O9 0.395023 0.233101 0.632069
O O10 0.500000 0.887767 0.750000
O O11 0.382570 0.894015 0.859009
O O12 0.762581 0.577047 0.250000
O O13 0.688771 0.647236 0.143496
O O14 0.732728 0.513270 0.131406
O O15 0.765556 0.000000 0.500000
#
# Coordination Sequence:
#
# PCOD9473142 Si02
#       7
#     8  16   8   8  16  16  16
#     4  10  20  36  58  96 120 151 207 259 321 367
#     4  11  24  42  65  90 126 166 210 263 313 377
#     4  12  23  39  65  91 127 168 205 256 319 385
#     4   8  17  33  57  86 118 157 198 251 313 367
#     4  10  21  39  62  91 126 163 208 260 317 377
#     4  11  23  42  62  93 125 161 212 259 316 375
#     4  11  21  40  64  93 124 164 213 266 314 370
#
# _framework density 18.812840000000001
#
# number of rings (size 3 to 8) (size 9 to 14) (size 15 to 20)
#    0.000    1.455    4.545    1.091    1.273    1.091 
#    1.636    0.000    0.000    2.182    0.000    0.000 
#    0.000    0.000    0.000    0.000    0.000    0.000 
#
# Total GULP energy -245413.250249 kJ/mol
# GULP energy per Si atom -5577.573869 kJ/mol
# Density = 1.877002 g / cm^3
# Si number density = 18.812840 Si / 1000 Ang^3
#
#
#
# Elastic Constant Matrix: (Units=GPa)
#
#
# Indices 1 2 3 4 5 6 
#
# 1 99.7065 44.5014 15.8757 0.0000 0.0000 0.0000
# 2 44.5014 112.1731 37.4405 0.0000 0.0000 0.0000
# 3 15.8757 37.4405 76.1431 0.0000 0.0000 0.0000
# 4 0.0000 0.0000 0.0000 30.9042 0.0000 0.0000
# 5 0.0000 0.0000 0.0000 0.0000 17.5331 0.0000
# 6 0.0000 0.0000 0.0000 0.0000 0.0000 28.8541
#
#
#
# Elastic Compliance Matrix: (Units=1/GPa)
#
#
# Indices 1 2 3 4 5 6 
#
# 1 0.012190 -0.004771 -0.000196 0.000000 0.000000 0.000000
# 2 -0.004771 0.012532 -0.005168 0.000000 0.000000 0.000000
# 3 -0.000196 -0.005168 0.015715 0.000000 0.000000 0.000000
# 4 0.000000 0.000000 0.000000 0.032358 0.000000 0.000000
# 5 0.000000 0.000000 0.000000 0.000000 0.057035 0.000000
# 6 0.000000 0.000000 0.000000 0.000000 0.000000 0.034657
#
#
# Mechanical properties :
#
#
# Convention : Reuss Voigt Hill
#
# Bulk Modulus (GPa) = 49.58095 53.73978 51.66036
# Shear Modulus (GPa) = 26.11263 28.13862 27.12562
#
# Velocity S-wave (km/s) = 3.72966 3.87164 3.80131
# Velocity P-wave (km/s) = 6.70516 6.97235 6.84006
#
# Compressibility (1/GPa) = 0.02016904
#
# Stress axis : x y z
#
# Youngs Moduli (GPa) = 82.03541 79.79438 63.63364
#
# Poissons Ratio (x) = 0.38067 0.01246
# Poissons Ratio (y) = 0.39136 0.32883
# Poissons Ratio (z) = 0.01606 0.41234
#
# Static dielectric constant tensor:
#      x y z
#    x 1.675530 0.000000 0.000000 
#    y 0.000000 1.622990 0.000000 
#    z 0.000000 0.000000 1.642380 
# 
# From -- ./inp_files/52574.got.cif
#   From: 2010.05.17/outbox.cif.g08.bks.cpg/sg63_27_cif.got.tgz:52574.got - 2010.06.03 15:47:04.
