data_PCOD9473701
_publ_section_title
;
Structure prediction by ZEFSAII (Michael W. Deem and Ramdas Pophale) SiO2 
 PCOD9473701
Probable space group: C M C M
;
_chemical_formula_sum "Si O2"
_cell_formula_units_Z 52
_cell_length_a 16.197788
_cell_length_b 9.387897
_cell_length_c 13.852027
_cell_angle_alpha 90.000000
_cell_angle_beta 90.000000
_cell_angle_gamma 90.000000
_cell_volume 2106.383072
_symmetry_space_group_name_H-M "C M C M"
_symmetry_group_IT_number 63
_symmetry_cell_setting 'orthorhombic'
loop_
_space_group_symop_operation_xyz
x,y,z
-x,-y,1/2+z
x,-y,-z
-x,y,1/2-z
-x,-y,-z
x,y,1/2-z
-x,y,z
x,-y,1/2+z
1/2+x,1/2+y,z
1/2-x,1/2-y,1/2+z
1/2+x,1/2-y,-z
1/2-x,1/2+y,1/2-z
1/2-x,1/2-y,-z
1/2+x,1/2+y,1/2-z
1/2-x,1/2+y,z
1/2+x,1/2-y,1/2+z
loop_
_atom_site_type_symbol
_atom_site_label
_atom_site_fract_x
_atom_site_fract_y
_atom_site_fract_z
Si Si1 0.595195 0.286572 0.515909
Si Si2 0.000000 0.615360 0.250000
Si Si3 0.829557 0.027200 0.639667
Si Si4 0.140176 0.473715 0.355601
O O1 0.500000 0.300904 0.488213
O O2 0.654384 0.340629 0.430856
O O3 0.613503 0.400763 0.600967
O O4 0.614507 0.133580 0.560776
O O5 0.927326 0.593876 0.166533
O O6 0.848015 0.063744 0.750000
O O7 0.734207 0.980035 0.631609
O O8 0.138391 0.393384 0.250000
#
# Coordination Sequence:
#
# PCOD9473701 Si02
#       4
#    16   4  16  16
#     4  11  20  34  53  77 104 137 171 207 250 306
#     4   8  16  32  56  76  96 134 180 198 244 302
#     4  10  21  31  49  80 105 131 165 218 256 293
#     4   9  17  33  53  79  98 130 172 210 245 297
#
# _framework density 24.686868
#
# number of rings (size 3 to 8) (size 9 to 14) (size 15 to 20)
#    0.923    1.231    1.538    3.692    0.000    3.692 
#    0.000    0.000    0.000    3.692    8.000    0.000 
#    0.000    0.000    0.000    0.000    0.000    0.000 
#
# Total GULP energy -144949.394667 kJ/mol
# GULP energy per Si atom -5574.976718 kJ/mol
# Density = 2.463068 g / cm^3
# Si number density = 24.686868 Si / 1000 Ang^3
#
#
#
# Elastic Constant Matrix: (Units=GPa)
#
#
# Indices 1 2 3 4 5 6 
#
# 1 150.5105 16.0694 39.8201 0.0000 0.0000 0.0000
# 2 16.0694 64.0275 19.8560 0.0000 0.0000 0.0000
# 3 39.8201 19.8560 123.3400 0.0000 0.0000 0.0000
# 4 0.0000 0.0000 0.0000 27.4658 0.0000 0.0000
# 5 0.0000 0.0000 0.0000 0.0000 35.7221 0.0000
# 6 0.0000 0.0000 0.0000 0.0000 0.0000 10.5252
#
#
#
# Elastic Compliance Matrix: (Units=1/GPa)
#
#
# Indices 1 2 3 4 5 6 
#
# 1 0.007346 -0.001166 -0.002184 0.000000 0.000000 0.000000
# 2 -0.001166 0.016624 -0.002300 0.000000 0.000000 0.000000
# 3 -0.002184 -0.002300 0.009183 0.000000 0.000000 0.000000
# 4 0.000000 0.000000 0.000000 0.036409 0.000000 0.000000
# 5 0.000000 0.000000 0.000000 0.000000 0.027994 0.000000
# 6 0.000000 0.000000 0.000000 0.000000 0.000000 0.095010
#
#
# Mechanical properties :
#
#
# Convention : Reuss Voigt Hill
#
# Bulk Modulus (GPa) = 45.75964 54.37434 50.06699
# Shear Modulus (GPa) = 23.67975 32.21813 27.94894
#
# Velocity S-wave (km/s) = 3.10046 3.61650 3.36838
# Velocity P-wave (km/s) = 5.60298 6.28587 5.95422
#
# Compressibility (1/GPa) = 0.02185332
#
# Stress axis : x y z
#
# Youngs Moduli (GPa) = 136.12098 60.15325 108.89713
#
# Poissons Ratio (x) = 0.07017 0.23783
# Poissons Ratio (y) = 0.15878 0.25043
# Poissons Ratio (z) = 0.29729 0.13833
#
# Static dielectric constant tensor:
#      x y z
#    x 1.873340 0.000000 0.000000 
#    y 0.000000 1.987700 0.000000 
#    z 0.000000 0.000000 2.053780 
# 
# From -- ./inp_files/33184.got.cif
#   From: 2010.05.17/outbox.cif.g08.bks.cpg/sg63_17_cif.got.tgz:33184.got - 2010.06.03 15:47:04.
