data_PCOD9473564
_publ_section_title
;
Structure prediction by ZEFSAII (Michael W. Deem and Ramdas Pophale) SiO2 
 PCOD9473564
Probable space group: C M C M
;
_chemical_formula_sum "Si O2"
_cell_formula_units_Z 96
_cell_length_a 14.304889
_cell_length_b 17.489975
_cell_length_c 19.024100
_cell_angle_alpha 90.000000
_cell_angle_beta 90.000000
_cell_angle_gamma 90.000000
_cell_volume 4759.680500
_symmetry_space_group_name_H-M "C M C M"
_symmetry_group_IT_number 63
_symmetry_cell_setting 'orthorhombic'
loop_
_space_group_symop_operation_xyz
x,y,z
-x,-y,1/2+z
x,-y,-z
-x,y,1/2-z
-x,-y,-z
x,y,1/2-z
-x,y,z
x,-y,1/2+z
1/2+x,1/2+y,z
1/2-x,1/2-y,1/2+z
1/2+x,1/2-y,-z
1/2-x,1/2+y,1/2-z
1/2-x,1/2-y,-z
1/2+x,1/2+y,1/2-z
1/2-x,1/2+y,z
1/2+x,1/2-y,1/2+z
loop_
_atom_site_type_symbol
_atom_site_label
_atom_site_fract_x
_atom_site_fract_y
_atom_site_fract_z
Si Si1 0.891849 0.688927 0.582008
Si Si2 0.755429 0.067590 0.945384
Si Si3 0.608361 0.491431 0.666059
Si Si4 0.396191 0.794249 0.666906
Si Si5 0.193098 0.829391 0.833473
Si Si6 0.103846 0.806426 0.461475
O O1 0.836899 0.609798 0.581573
O O2 0.841882 0.752676 0.629675
O O3 0.887588 0.728091 0.504980
O O4 0.000000 0.680866 0.601776
O O5 0.817204 0.134197 0.981743
O O6 0.820285 0.038510 0.881632
O O7 0.737378 0.000000 0.000000
O O8 0.623392 0.502397 0.750000
O O9 0.500000 0.509315 0.650497
O O10 0.630103 0.402507 0.649481
O O11 0.393688 0.777254 0.750000
O O12 0.500000 0.827280 0.651538
O O13 0.303260 0.842722 0.650369
O O14 0.388328 0.718268 0.619725
O O15 0.186150 0.818352 0.750000
O O16 0.000000 0.837536 0.475307
#
# Coordination Sequence:
#
# PCOD9473564 Si02
#       6
#    16  16  16  16  16  16
#     4  11  24  41  61  86 118 158 208 257 297 344
#     4  12  25  38  60  87 124 162 198 244 301 364
#     4  10  23  42  63  91 125 158 194 242 303 364
#     4   9  18  33  58  92 121 146 187 244 298 348
#     4  10  20  38  66  92 117 154 200 246 296 353
#     4  10  21  38  62  88 115 153 201 249 295 346
#
# _framework density 20.169422000000001
#
# number of rings (size 3 to 8) (size 9 to 14) (size 15 to 20)
#    0.000    1.667    1.667    2.500    2.333    5.333 
#    0.000    2.500    0.000    1.000    0.000    0.000 
#    0.000    0.000    0.000    0.000    0.000    0.000 
#
# Total GULP energy -268060.794083 kJ/mol
# GULP energy per Si atom -5584.599877 kJ/mol
# Density = 2.012352 g / cm^3
# Si number density = 20.169422 Si / 1000 Ang^3
#
#
#
# Elastic Constant Matrix: (Units=GPa)
#
#
# Indices 1 2 3 4 5 6 
#
# 1 148.6495 49.7663 34.4626 0.0000 0.0000 0.0000
# 2 49.7663 62.6105 19.1304 0.0000 0.0000 0.0000
# 3 34.4626 19.1304 46.3937 0.0000 0.0000 0.0000
# 4 0.0000 0.0000 0.0000 26.2207 0.0000 0.0000
# 5 0.0000 0.0000 0.0000 0.0000 23.6686 0.0000
# 6 0.0000 0.0000 0.0000 0.0000 0.0000 29.4205
#
#
#
# Elastic Compliance Matrix: (Units=1/GPa)
#
#
# Indices 1 2 3 4 5 6 
#
# 1 0.010005 -0.006501 -0.004752 0.000000 0.000000 0.000000
# 2 -0.006501 0.022498 -0.004448 0.000000 0.000000 0.000000
# 3 -0.004752 -0.004448 0.026918 0.000000 0.000000 0.000000
# 4 0.000000 0.000000 0.000000 0.038138 0.000000 0.000000
# 5 0.000000 0.000000 0.000000 0.000000 0.042250 0.000000
# 6 0.000000 0.000000 0.000000 0.000000 0.000000 0.033990
#
#
# Mechanical properties :
#
#
# Convention : Reuss Voigt Hill
#
# Bulk Modulus (GPa) = 35.68774 51.59691 43.64233
# Shear Modulus (GPa) = 23.30560 26.14827 24.72693
#
# Velocity S-wave (km/s) = 3.40294 3.60450 3.50517
# Velocity P-wave (km/s) = 5.75955 6.55443 6.16980
#
# Compressibility (1/GPa) = 0.02802083
#
# Stress axis : x y z
#
# Youngs Moduli (GPa) = 99.94736 44.44812 37.14932
#
# Poissons Ratio (x) = 0.28895 0.17652
# Poissons Ratio (y) = 0.64975 0.16524
# Poissons Ratio (z) = 0.47491 0.19771
#
# Static dielectric constant tensor:
#      x y z
#    x 1.739530 0.000000 0.000000 
#    y 0.000000 1.691780 0.000000 
#    z 0.000000 0.000000 1.752570 
# 
# From -- ./inp_files/54227.got.cif
#   From: 2010.05.17/outbox.cif.g08.bks.cpg/sg63_28_cif.got.tgz:54227.got - 2010.06.03 15:47:04.
