data_PCOD9473690
_publ_section_title
;
Structure prediction by ZEFSAII (Michael W. Deem and Ramdas Pophale) SiO2 
 PCOD9473690
Probable space group: C M C M
;
_chemical_formula_sum "Si O2"
_cell_formula_units_Z 120
_cell_length_a 22.928973
_cell_length_b 9.277906
_cell_length_c 25.638482
_cell_angle_alpha 90.000000
_cell_angle_beta 90.000000
_cell_angle_gamma 90.000000
_cell_volume 5454.147504
_symmetry_space_group_name_H-M "C M C M"
_symmetry_group_IT_number 63
_symmetry_cell_setting 'orthorhombic'
loop_
_space_group_symop_operation_xyz
x,y,z
-x,-y,1/2+z
x,-y,-z
-x,y,1/2-z
-x,-y,-z
x,y,1/2-z
-x,y,z
x,-y,1/2+z
1/2+x,1/2+y,z
1/2-x,1/2-y,1/2+z
1/2+x,1/2-y,-z
1/2-x,1/2+y,1/2-z
1/2-x,1/2-y,-z
1/2+x,1/2+y,1/2-z
1/2-x,1/2+y,z
1/2+x,1/2-y,1/2+z
loop_
_atom_site_type_symbol
_atom_site_label
_atom_site_fract_x
_atom_site_fract_y
_atom_site_fract_z
Si Si1 0.323598 0.764641 0.557980
Si Si2 0.234657 0.447248 0.083669
Si Si3 0.106300 0.631949 0.897440
Si Si4 0.902042 0.500000 0.000000
Si Si5 0.129234 0.180860 0.833355
Si Si6 0.432891 0.059148 0.192565
Si Si7 0.625584 0.655391 0.309541
Si Si8 0.247915 0.321236 0.194030
O O1 0.282075 0.627679 0.546102
O O2 0.363388 0.705621 0.605014
O O3 0.276540 0.885224 0.575572
O O4 0.364901 0.863877 0.522539
O O5 0.172281 0.366564 0.080600
O O6 0.251494 0.421792 0.143597
O O7 0.070262 0.573382 0.947676
O O8 0.104432 0.508586 0.853432
O O9 0.094499 0.769619 0.860111
O O10 0.075172 0.270652 0.812344
O O11 0.188171 0.250139 0.808629
O O12 0.126043 0.015019 0.818004
O O13 0.413800 0.012506 0.250000
O O14 0.500000 0.016622 0.185394
O O15 0.603247 0.683974 0.250000
O O16 0.691467 0.720169 0.310602
O O17 0.243551 0.397273 0.250000
#
# Coordination Sequence:
#
# PCOD9473690 Si02
#       8
#    16  16  16   8  16  16  16  16
#     4  10  21  34  57  80 125 159 208 244 297 354
#     4   9  19  33  50  81 115 162 194 247 285 357
#     4  10  21  39  61  85 120 158 208 259 306 362
#     4  10  20  42  61  88 124 168 215 264 304 366
#     4  11  21  37  54  88 121 158 193 248 303 372
#     4  11  23  41  65  91 118 155 204 261 326 384
#     4  10  21  36  58  91 126 163 201 242 305 378
#     4   9  19  29  48  80 118 158 192 228 283 361
#
# _framework density 22.001604
#
# number of rings (size 3 to 8) (size 9 to 14) (size 15 to 20)
#    0.000    2.000    2.667    1.600   11.200    2.667 
#    0.000    1.667    0.000    2.400    0.000    0.933 
#    0.000    0.000    0.000    0.000    0.000    0.000 
#
# Total GULP energy -334109.530110 kJ/mol
# GULP energy per Si atom -5568.492168 kJ/mol
# Density = 2.195153 g / cm^3
# Si number density = 22.001604 Si / 1000 Ang^3
#
#
#
# Elastic Constant Matrix: (Units=GPa)
#
#
# Indices 1 2 3 4 5 6 
#
# 1 26.7190 2.7844 12.5521 0.0000 0.0000 0.0000
# 2 2.7844 106.4989 39.1863 0.0000 0.0000 0.0000
# 3 12.5521 39.1863 153.3980 0.0000 0.0000 0.0000
# 4 0.0000 0.0000 0.0000 32.8087 0.0000 0.0000
# 5 0.0000 0.0000 0.0000 0.0000 -20.6300 0.0000
# 6 0.0000 0.0000 0.0000 0.0000 0.0000 -12.4595
#
#
#
# Elastic Compliance Matrix: (Units=1/GPa)
#
#
# Indices 1 2 3 4 5 6 
#
# 1 0.038926 0.000170 -0.003229 0.000000 0.000000 0.000000
# 2 0.000170 0.010365 -0.002662 0.000000 0.000000 0.000000
# 3 -0.003229 -0.002662 0.007463 0.000000 0.000000 0.000000
# 4 0.000000 0.000000 0.000000 0.030480 0.000000 0.000000
# 5 0.000000 0.000000 0.000000 0.000000 -0.048473 0.000000
# 6 0.000000 0.000000 0.000000 0.000000 0.000000 -0.080260
#
#
# Mechanical properties :
#
#
# Convention : Reuss Voigt Hill
#
# Bulk Modulus (GPa) = 22.06861 43.96242 33.01551
# Shear Modulus (GPa) = -334.32176 15.41672 -159.45252
#
# Velocity S-wave (km/s) = -12.34031 2.64996 -8.52235
# Velocity P-wave (km/s) = 13.89216 5.42106 9.04445
#
# Compressibility (1/GPa) = 0.04531324
#
# Stress axis : x y z
#
# Youngs Moduli (GPa) = 25.69009 96.48161 133.99240
#
# Poissons Ratio (x) = -0.01643 0.43261
# Poissons Ratio (y) = -0.00437 0.35664
# Poissons Ratio (z) = 0.08294 0.25680
#
# Static dielectric constant tensor:
#      x y z
#    x 1.829720 0.000000 0.000000 
#    y 0.000000 1.822550 0.000000 
#    z 0.000000 0.000000 1.898680 
# 
# From -- ./inp_files/70989.got.cif
#   From: 2010.05.17/outbox.cif.g08.bks.cpg/sg63_36_cif.got.tgz:70989.got - 2010.06.03 15:47:04.
