data_PCOD9473716
_publ_section_title
;
Structure prediction by ZEFSAII (Michael W. Deem and Ramdas Pophale) SiO2 
 PCOD9473716
Probable space group: C M C M
;
_chemical_formula_sum "Si O2"
_cell_formula_units_Z 112
_cell_length_a 28.433419
_cell_length_b 11.727822
_cell_length_c 21.190279
_cell_angle_alpha 90.000000
_cell_angle_beta 90.000000
_cell_angle_gamma 90.000000
_cell_volume 7066.154445
_symmetry_space_group_name_H-M "C M C M"
_symmetry_group_IT_number 63
_symmetry_cell_setting 'orthorhombic'
loop_
_space_group_symop_operation_xyz
x,y,z
-x,-y,1/2+z
x,-y,-z
-x,y,1/2-z
-x,-y,-z
x,y,1/2-z
-x,y,z
x,-y,1/2+z
1/2+x,1/2+y,z
1/2-x,1/2-y,1/2+z
1/2+x,1/2-y,-z
1/2-x,1/2+y,1/2-z
1/2-x,1/2-y,-z
1/2+x,1/2+y,1/2-z
1/2-x,1/2+y,z
1/2+x,1/2-y,1/2+z
loop_
_atom_site_type_symbol
_atom_site_label
_atom_site_fract_x
_atom_site_fract_y
_atom_site_fract_z
Si Si1 0.447368 0.307010 0.499065
Si Si2 0.552904 0.504348 0.105608
Si Si3 0.269915 0.909911 0.558016
Si Si4 0.863327 0.632464 0.996995
Si Si5 0.746964 0.565515 0.675694
Si Si6 0.305680 0.747958 0.108109
Si Si7 0.851835 0.033298 0.324032
O O1 0.500000 0.257033 0.499447
O O2 0.441868 0.382317 0.562512
O O3 0.445010 0.398415 0.442578
O O4 0.406828 0.214991 0.492715
O O5 0.500000 0.506150 0.133657
O O6 0.597334 0.497508 0.151020
O O7 0.320837 0.855267 0.546995
O O8 0.228531 0.817760 0.559451
O O9 0.263491 0.000000 0.500000
O O10 0.266840 0.973807 0.625344
O O11 0.839169 0.666913 0.930468
O O12 0.877103 0.500000 0.000000
O O13 0.755273 0.540762 0.750000
O O14 0.772177 0.682597 0.655759
O O15 0.690518 0.557549 0.665051
O O16 0.335317 0.649618 0.142099
O O17 0.854016 0.054206 0.250000
#
# Coordination Sequence:
#
# PCOD9473716 Si02
#       7
#    16  16  16  16  16  16  16
#     4   9  19  34  54  78 104 134 167 216 280 326
#     4   9  18  35  56  80 105 132 171 219 274 328
#     4  10  21  33  50  78 104 135 182 224 265 308
#     4  11  20  32  51  79 105 134 179 223 260 316
#     4  10  21  36  50  72 110 146 180 218 261 320
#     4  11  20  34  51  73 108 145 175 217 264 320
#     4  10  21  34  52  79 104 139 181 217 270 320
#
# _framework density 15.850206
#
# number of rings (size 3 to 8) (size 9 to 14) (size 15 to 20)
#    0.000    2.000    4.286    1.714    2.000    2.286 
#    0.000    0.000    0.000    0.000    0.000    0.000 
#    0.000    1.143    0.000    0.000    0.000    0.000 
#
# Total GULP energy -312010.145333 kJ/mol
# GULP energy per Si atom -5571.609738 kJ/mol
# Density = 1.581413 g / cm^3
# Si number density = 15.850206 Si / 1000 Ang^3
#
#
#
# Elastic Constant Matrix: (Units=GPa)
#
#
# Indices 1 2 3 4 5 6 
#
# 1 141.5291 48.7743 50.6035 0.0000 0.0000 0.0000
# 2 48.7743 64.5381 19.4246 0.0000 0.0000 0.0000
# 3 50.6035 19.4246 71.9547 0.0000 0.0000 0.0000
# 4 0.0000 0.0000 0.0000 16.5695 0.0000 0.0000
# 5 0.0000 0.0000 0.0000 0.0000 24.7993 0.0000
# 6 0.0000 0.0000 0.0000 0.0000 0.0000 32.3116
#
#
#
# Elastic Compliance Matrix: (Units=1/GPa)
#
#
# Indices 1 2 3 4 5 6 
#
# 1 0.011744 -0.006955 -0.006382 0.000000 0.000000 0.000000
# 2 -0.006955 0.020984 -0.000774 0.000000 0.000000 0.000000
# 3 -0.006382 -0.000774 0.018595 0.000000 0.000000 0.000000
# 4 0.000000 0.000000 0.000000 0.060352 0.000000 0.000000
# 5 0.000000 0.000000 0.000000 0.000000 0.040324 0.000000
# 6 0.000000 0.000000 0.000000 0.000000 0.000000 0.030949
#
#
# Mechanical properties :
#
#
# Convention : Reuss Voigt Hill
#
# Bulk Modulus (GPa) = 43.28628 57.29186 50.28907
# Shear Modulus (GPa) = 22.84480 25.35071 24.09776
#
# Velocity S-wave (km/s) = 3.80056 4.00358 3.90339
# Velocity P-wave (km/s) = 6.82846 7.58919 7.21885
#
# Compressibility (1/GPa) = 0.02310201
#
# Stress axis : x y z
#
# Youngs Moduli (GPa) = 85.14734 47.65612 53.77892
#
# Poissons Ratio (x) = 0.33144 0.34321
# Poissons Ratio (y) = 0.59219 0.04160
# Poissons Ratio (z) = 0.54340 0.03686
#
# Static dielectric constant tensor:
#      x y z
#    x 1.535400 0.000000 0.000000 
#    y 0.000000 1.539990 0.000000 
#    z 0.000000 0.000000 1.524320 
# 
# From -- ./inp_files/58311.got.cif
#   From: 2010.05.17/outbox.cif.g08.bks.cpg/sg63_30_cif.got.tgz:58311.got - 2010.06.03 15:47:04.
