data_PCOD9473042
_publ_section_title
;
Structure prediction by ZEFSAII (Michael W. Deem and Ramdas Pophale) SiO2 
 PCOD9473042
Probable space group: C M C M
;
_chemical_formula_sum "Si O2"
_cell_formula_units_Z 96
_cell_length_a 22.304254
_cell_length_b 26.375020
_cell_length_c 8.352900
_cell_angle_alpha 90.000000
_cell_angle_beta 90.000000
_cell_angle_gamma 90.000000
_cell_volume 4913.803461
_symmetry_space_group_name_H-M "C M C M"
_symmetry_group_IT_number 63
_symmetry_cell_setting 'orthorhombic'
loop_
_space_group_symop_operation_xyz
x,y,z
-x,-y,1/2+z
x,-y,-z
-x,y,1/2-z
-x,-y,-z
x,y,1/2-z
-x,y,z
x,-y,1/2+z
1/2+x,1/2+y,z
1/2-x,1/2-y,1/2+z
1/2+x,1/2-y,-z
1/2-x,1/2+y,1/2-z
1/2-x,1/2-y,-z
1/2+x,1/2+y,1/2-z
1/2-x,1/2+y,z
1/2+x,1/2-y,1/2+z
loop_
_atom_site_type_symbol
_atom_site_label
_atom_site_fract_x
_atom_site_fract_y
_atom_site_fract_z
Si Si1 0.869650 0.446528 0.939936
Si Si2 0.500000 0.190427 0.441949
Si Si3 0.657778 0.355033 0.942183
Si Si4 0.568970 0.556566 0.056361
Si Si5 0.794708 0.650696 0.053897
Si Si6 0.500000 0.922345 0.063999
Si Si7 0.874803 0.255400 0.942375
O O1 0.865520 0.445859 0.750000
O O2 0.834876 0.396816 0.000549
O O3 0.844648 0.500000 0.000000
O O4 0.939031 0.442496 0.987628
O O5 0.500000 0.178907 0.250000
O O6 0.500000 0.137892 0.535120
O O7 0.560027 0.221392 0.478212
O O8 0.659792 0.359812 0.750000
O O9 0.614841 0.400248 0.001684
O O10 0.726503 0.356561 0.000236
O O11 0.632970 0.299758 0.984394
O O12 0.569373 0.556941 0.250000
O O13 0.500000 0.566612 0.004555
O O14 0.585254 0.500000 0.000000
O O15 0.795512 0.651129 0.250000
O O16 0.824924 0.703685 0.002920
O O17 0.500000 0.935154 0.250000
O O18 0.870020 0.251027 0.750000
#
# Coordination Sequence:
#
# PCOD9473042 Si02
#       7
#    16   8  16  16  16   8  16
#     4  11  22  39  59  81 113 150 192 238 285 335
#     4  10  20  37  59  82 113 151 185 229 283 335
#     4  10  21  36  57  85 114 145 183 230 279 328
#     4   9  19  36  56  79 110 143 177 221 277 328
#     4   9  19  37  58  78 110 153 187 224 278 331
#     4  12  23  37  58  86 113 145 193 237 286 335
#     4  10  20  36  57  82 111 148 187 221 274 336
#
# _framework density 19.536799999999999
#
# number of rings (size 3 to 8) (size 9 to 14) (size 15 to 20)
#    0.000    2.000    1.667    2.000    1.167    2.000 
#    0.000    1.667    0.000    0.000    0.000    0.000 
#    0.000    0.000    0.000    0.000    0.000    0.000 
#
# Total GULP energy -268068.398983 kJ/mol
# GULP energy per Si atom -5584.758312 kJ/mol
# Density = 1.949233 g / cm^3
# Si number density = 19.536800 Si / 1000 Ang^3
#
#
#
# Elastic Constant Matrix: (Units=GPa)
#
#
# Indices 1 2 3 4 5 6 
#
# 1 118.3267 80.0708 12.7975 0.0000 0.0000 0.0000
# 2 80.0708 159.7020 11.0496 0.0000 0.0000 0.0000
# 3 12.7975 11.0496 8.4630 0.0000 0.0000 0.0000
# 4 0.0000 0.0000 0.0000 33.1681 0.0000 0.0000
# 5 0.0000 0.0000 0.0000 0.0000 -2.4556 0.0000
# 6 0.0000 0.0000 0.0000 0.0000 0.0000 15.5279
#
#
#
# Elastic Compliance Matrix: (Units=1/GPa)
#
#
# Indices 1 2 3 4 5 6 
#
# 1 0.014017 -0.006114 -0.013214 0.000000 0.000000 0.000000
# 2 -0.006114 0.009550 -0.003224 0.000000 0.000000 0.000000
# 3 -0.013214 -0.003224 0.142352 0.000000 0.000000 0.000000
# 4 0.000000 0.000000 0.000000 0.030149 0.000000 0.000000
# 5 0.000000 0.000000 0.000000 0.000000 -0.407236 0.000000
# 6 0.000000 0.000000 0.000000 0.000000 0.000000 0.064400
#
#
# Mechanical properties :
#
#
# Convention : Reuss Voigt Hill
#
# Bulk Modulus (GPa) = 8.27707 54.92528 31.60117
# Shear Modulus (GPa) = -81.44521 21.41968 -30.01277
#
# Velocity S-wave (km/s) = -6.46364 3.31475 -3.92371
# Velocity P-wave (km/s) = 7.17349 6.54407 2.07775
#
# Compressibility (1/GPa) = 0.12081574
#
# Stress axis : x y z
#
# Youngs Moduli (GPa) = 71.33949 104.71205 7.02483
#
# Poissons Ratio (x) = 0.64018 0.09283
# Poissons Ratio (y) = 0.43615 0.02265
# Poissons Ratio (z) = 0.94271 0.33758
#
# Static dielectric constant tensor:
#      x y z
#    x 3.163400 0.000000 0.000000 
#    y 0.000000 1.668680 0.000000 
#    z 0.000000 0.000000 1.676890 
# 
# From -- ./inp_files/10567.got.cif
#   From: 2010.05.17/outbox.cif.g08.bks.cpg/sg63_6_cif.got.tgz:10567.got - 2010.06.03 15:47:04.
