data_PCOD9473350
_publ_section_title
;
Structure prediction by ZEFSAII (Michael W. Deem and Ramdas Pophale) SiO2 
 PCOD9473350
Probable space group: C M C M
;
_chemical_formula_sum "Si O2"
_cell_formula_units_Z 104
_cell_length_a 32.616010
_cell_length_b 20.172780
_cell_length_c 8.602091
_cell_angle_alpha 90.000000
_cell_angle_beta 90.000000
_cell_angle_gamma 90.000000
_cell_volume 5659.793895
_symmetry_space_group_name_H-M "C M C M"
_symmetry_group_IT_number 63
_symmetry_cell_setting 'orthorhombic'
loop_
_space_group_symop_operation_xyz
x,y,z
-x,-y,1/2+z
x,-y,-z
-x,y,1/2-z
-x,-y,-z
x,y,1/2-z
-x,y,z
x,-y,1/2+z
1/2+x,1/2+y,z
1/2-x,1/2-y,1/2+z
1/2+x,1/2-y,-z
1/2-x,1/2+y,1/2-z
1/2-x,1/2-y,-z
1/2+x,1/2+y,1/2-z
1/2-x,1/2+y,z
1/2+x,1/2-y,1/2+z
loop_
_atom_site_type_symbol
_atom_site_label
_atom_site_fract_x
_atom_site_fract_y
_atom_site_fract_z
Si Si1 0.500000 0.424952 0.436050
Si Si2 0.770730 0.847514 0.063162
Si Si3 0.151934 0.072601 0.563092
Si Si4 0.402984 0.200557 0.061254
Si Si5 0.691373 0.794154 0.936818
Si Si6 0.047445 0.570481 0.437299
Si Si7 0.577205 0.342761 0.935604
O O1 0.500000 0.500000 0.500000
O O2 0.500000 0.427122 0.250000
O O3 0.460157 0.385298 0.495142
O O4 0.768136 0.846902 0.250000
O O5 0.802102 0.905158 0.017013
O O6 0.792504 0.778497 0.013189
O O7 0.725044 0.846109 0.996514
O O8 0.149167 0.074032 0.750000
O O9 0.119259 0.124245 0.495816
O O10 0.142459 0.000000 0.500000
O O11 0.404134 0.205397 0.250000
O O12 0.355333 0.196490 0.012218
O O13 0.426667 0.134199 0.013323
O O14 0.422959 0.267011 0.993479
O O15 0.691682 0.795285 0.750000
O O16 0.062824 0.500000 0.500000
O O17 0.048166 0.568311 0.250000
O O18 0.000000 0.577829 0.487389
O O19 0.575503 0.345251 0.750000
#
# Coordination Sequence:
#
# PCOD9473350 Si02
#       7
#     8  16  16  16  16  16  16
#     4  12  26  46  66  84 117 160 199 244 294 348
#     4   9  18  33  53  78 109 145 188 234 282 339
#     4  11  22  39  59  83 116 156 199 244 293 348
#     4  10  20  37  59  87 118 154 196 240 292 349
#     4   9  17  32  54  79 110 145 185 233 285 340
#     4   9  19  36  59  85 113 149 189 228 283 346
#     4  12  25  40  60  90 120 152 197 244 291 347
#
# _framework density 18.375226000000001
#
# number of rings (size 3 to 8) (size 9 to 14) (size 15 to 20)
#    0.000    1.846    1.538    3.000    1.077    2.462 
#    0.000    0.769    0.000    3.692    0.000    0.000 
#    0.000    0.000    0.000    0.000    0.000    0.000 
#
# Total GULP energy -290340.449331 kJ/mol
# GULP energy per Si atom -5583.470179 kJ/mol
# Density = 1.833340 g / cm^3
# Si number density = 18.375226 Si / 1000 Ang^3
#
#
#
# Elastic Constant Matrix: (Units=GPa)
#
#
# Indices 1 2 3 4 5 6 
#
# 1 108.3481 68.7838 33.6623 0.0000 0.0000 0.0000
# 2 68.7838 147.3294 39.2027 0.0000 0.0000 0.0000
# 3 33.6623 39.2027 58.0993 0.0000 0.0000 0.0000
# 4 0.0000 0.0000 0.0000 29.2196 0.0000 0.0000
# 5 0.0000 0.0000 0.0000 0.0000 28.1171 0.0000
# 6 0.0000 0.0000 0.0000 0.0000 0.0000 29.7888
#
#
#
# Elastic Compliance Matrix: (Units=1/GPa)
#
#
# Indices 1 2 3 4 5 6 
#
# 1 0.014028 -0.005347 -0.004520 0.000000 0.000000 0.000000
# 2 -0.005347 0.010311 -0.003859 0.000000 0.000000 0.000000
# 3 -0.004520 -0.003859 0.022435 0.000000 0.000000 0.000000
# 4 0.000000 0.000000 0.000000 0.034224 0.000000 0.000000
# 5 0.000000 0.000000 0.000000 0.000000 0.035566 0.000000
# 6 0.000000 0.000000 0.000000 0.000000 0.000000 0.033570
#
#
# Mechanical properties :
#
#
# Convention : Reuss Voigt Hill
#
# Bulk Modulus (GPa) = 51.75576 66.34160 59.04868
# Shear Modulus (GPa) = 27.17021 28.90029 28.03525
#
# Velocity S-wave (km/s) = 3.84947 3.97014 3.91027
# Velocity P-wave (km/s) = 6.92713 7.56295 7.25201
#
# Compressibility (1/GPa) = 0.01932152
#
# Stress axis : x y z
#
# Youngs Moduli (GPa) = 71.28569 96.98776 44.57322
#
# Poissons Ratio (x) = 0.51855 0.20148
# Poissons Ratio (y) = 0.38113 0.17202
# Poissons Ratio (z) = 0.32222 0.37431
#
# Static dielectric constant tensor:
#      x y z
#    x 1.636540 0.000000 0.000000 
#    y 0.000000 1.625700 0.000000 
#    z 0.000000 0.000000 1.624410 
# 
# From -- ./inp_files/14483.got.cif
#   From: 2010.05.17/outbox.cif.g08.bks.cpg/sg63_8_cif.got.tgz:14483.got - 2010.06.03 15:47:04.
