data_PCOD9473950
_publ_section_title
;
Structure prediction by ZEFSAII (Michael W. Deem and Ramdas Pophale) SiO2 
 PCOD9473950
Probable space group: C M C M
;
_chemical_formula_sum "Si O2"
_cell_formula_units_Z 96
_cell_length_a 11.238447
_cell_length_b 25.962939
_cell_length_c 19.315243
_cell_angle_alpha 90.000000
_cell_angle_beta 90.000000
_cell_angle_gamma 90.000000
_cell_volume 5635.861749
_symmetry_space_group_name_H-M "C M C M"
_symmetry_group_IT_number 63
_symmetry_cell_setting 'orthorhombic'
loop_
_space_group_symop_operation_xyz
x,y,z
-x,-y,1/2+z
x,-y,-z
-x,y,1/2-z
-x,-y,-z
x,y,1/2-z
-x,y,z
x,-y,1/2+z
1/2+x,1/2+y,z
1/2-x,1/2-y,1/2+z
1/2+x,1/2-y,-z
1/2-x,1/2+y,1/2-z
1/2-x,1/2-y,-z
1/2+x,1/2+y,1/2-z
1/2-x,1/2+y,z
1/2+x,1/2-y,1/2+z
loop_
_atom_site_type_symbol
_atom_site_label
_atom_site_fract_x
_atom_site_fract_y
_atom_site_fract_z
Si Si1 0.642763 0.254404 0.942766
Si Si2 0.230210 0.863609 0.577807
Si Si3 0.141048 0.557758 0.330089
Si Si4 0.637994 0.139432 0.569946
Si Si5 0.000000 0.044829 0.894690
Si Si6 0.000000 0.071830 0.051300
Si Si7 0.255876 0.052520 0.667738
O O1 0.500000 0.260146 0.964716
O O2 0.683704 0.306356 0.904375
O O3 0.647973 0.198986 0.905404
O O4 0.750000 0.250000 0.000000
O O5 0.321557 0.891557 0.628531
O O6 0.286343 0.864292 0.500721
O O7 0.115937 0.899745 0.577493
O O8 0.177128 0.563754 0.250000
O O9 0.199451 0.504236 0.355629
O O10 0.000000 0.550892 0.333567
O O11 0.500000 0.130255 0.552737
O O12 0.679740 0.097599 0.625308
O O13 0.882791 0.055915 0.850898
O O14 0.000000 0.985767 0.919972
O O15 0.000000 0.074629 0.967743
O O16 0.277175 0.056864 0.750000
#
# Coordination Sequence:
#
# PCOD9473950 Si02
#       7
#    16  16  16  16   8   8  16
#     4   9  19  34  57  84 114 147 187 234 283 337
#     4  11  19  36  59  84 110 144 182 228 282 332
#     4  10  22  38  56  81 112 147 182 222 279 342
#     4  10  21  36  55  84 111 143 188 231 276 327
#     4  11  21  36  52  86 115 146 185 229 277 334
#     4  11  20  32  58  84 116 139 176 231 282 325
#     4  11  22  37  56  78 111 150 188 228 276 334
#
# _framework density 17.033774999999999
#
# number of rings (size 3 to 8) (size 9 to 14) (size 15 to 20)
#    0.000    1.667    4.167    1.250    0.000    2.333 
#    0.000    2.917    0.000    1.000    0.000    0.000 
#    0.000    0.000    0.000    0.000    0.000    0.000 
#
# Total GULP energy -267314.674059 kJ/mol
# GULP energy per Si atom -5569.055710 kJ/mol
# Density = 1.699501 g / cm^3
# Si number density = 17.033775 Si / 1000 Ang^3
#
#
#
# Elastic Constant Matrix: (Units=GPa)
#
#
# Indices 1 2 3 4 5 6 
#
# 1 67.2911 12.9066 -1.6496 0.0000 0.0000 0.0000
# 2 12.9066 78.8580 19.6764 0.0000 0.0000 0.0000
# 3 -1.6496 19.6764 33.8030 0.0000 0.0000 0.0000
# 4 0.0000 0.0000 0.0000 17.3620 0.0000 0.0000
# 5 0.0000 0.0000 0.0000 0.0000 18.5520 0.0000
# 6 0.0000 0.0000 0.0000 0.0000 0.0000 24.2896
#
#
#
# Elastic Compliance Matrix: (Units=1/GPa)
#
#
# Indices 1 2 3 4 5 6 
#
# 1 0.015538 -0.003197 0.002619 0.000000 0.000000 0.000000
# 2 -0.003197 0.015493 -0.009175 0.000000 0.000000 0.000000
# 3 0.002619 -0.009175 0.035051 0.000000 0.000000 0.000000
# 4 0.000000 0.000000 0.000000 0.057597 0.000000 0.000000
# 5 0.000000 0.000000 0.000000 0.000000 0.053902 0.000000
# 6 0.000000 0.000000 0.000000 0.000000 0.000000 0.041170
#
#
# Mechanical properties :
#
#
# Convention : Reuss Voigt Hill
#
# Bulk Modulus (GPa) = 21.46912 26.86877 24.16895
# Shear Modulus (GPa) = 19.70189 21.97531 20.83860
#
# Velocity S-wave (km/s) = 3.40463 3.59570 3.50146
# Velocity P-wave (km/s) = 5.29967 5.74863 5.52871
#
# Compressibility (1/GPa) = 0.04657852
#
# Stress axis : x y z
#
# Youngs Moduli (GPa) = 64.35787 64.54363 28.52958
#
# Poissons Ratio (x) = 0.20632 -0.07472
# Poissons Ratio (y) = 0.20572 0.26175
# Poissons Ratio (z) = -0.16855 0.59216
#
# Static dielectric constant tensor:
#      x y z
#    x 1.608750 0.000000 0.000000 
#    y 0.000000 1.589450 0.000000 
#    z 0.000000 0.000000 1.562000 
# 
# From -- ./inp_files/42580.got.cif
#   From: 2010.05.17/outbox.cif.g08.bks.cpg/sg63_22_cif.got.tgz:42580.got - 2010.06.03 15:47:04.
