data_PCOD9473251
_publ_section_title
;
Structure prediction by ZEFSAII (Michael W. Deem and Ramdas Pophale) SiO2 
 PCOD9473251
Probable space group: C M C M
;
_chemical_formula_sum "Si O2"
_cell_formula_units_Z 96
_cell_length_a 16.912839
_cell_length_b 11.779180
_cell_length_c 24.806012
_cell_angle_alpha 90.000000
_cell_angle_beta 90.000000
_cell_angle_gamma 90.000000
_cell_volume 4941.838204
_symmetry_space_group_name_H-M "C M C M"
_symmetry_group_IT_number 63
_symmetry_cell_setting 'orthorhombic'
loop_
_space_group_symop_operation_xyz
x,y,z
-x,-y,1/2+z
x,-y,-z
-x,y,1/2-z
-x,-y,-z
x,y,1/2-z
-x,y,z
x,-y,1/2+z
1/2+x,1/2+y,z
1/2-x,1/2-y,1/2+z
1/2+x,1/2-y,-z
1/2-x,1/2+y,1/2-z
1/2-x,1/2-y,-z
1/2+x,1/2+y,1/2-z
1/2-x,1/2+y,z
1/2+x,1/2-y,1/2+z
loop_
_atom_site_type_symbol
_atom_site_label
_atom_site_fract_x
_atom_site_fract_y
_atom_site_fract_z
Si Si1 0.271427 0.626598 0.471617
Si Si2 0.647905 0.446124 0.809778
Si Si3 0.087793 0.197622 0.396352
Si Si4 0.093033 0.802245 0.189391
Si Si5 0.815907 0.605406 0.138928
Si Si6 0.904398 0.391369 0.312611
O O1 0.277784 0.500000 0.500000
O O2 0.250000 0.750000 0.500000
O O3 0.354333 0.659346 0.443329
O O4 0.209248 0.601996 0.423352
O O5 0.627815 0.404251 0.750000
O O6 0.586779 0.404933 0.854094
O O7 0.641048 0.581052 0.809536
O O8 0.734086 0.403908 0.827633
O O9 0.119835 0.296673 0.356645
O O10 0.000000 0.227476 0.415239
O O11 0.097242 0.751845 0.250000
O O12 0.136233 0.719564 0.149012
O O13 0.000000 0.820836 0.178088
O O14 0.870192 0.506155 0.162645
O O15 0.878149 0.375317 0.250000
O O16 0.000000 0.392073 0.311706
#
# Coordination Sequence:
#
# PCOD9473251 Si02
#       6
#    16  16  16  16  16  16
#     4  11  26  46  68  89 120 163 221 285 335 371
#     4  10  21  34  56  90 127 163 199 243 298 375
#     4  10  22  39  63  90 123 161 205 252 314 389
#     4  10  21  37  58  90 131 167 200 244 307 384
#     4  11  23  37  63  87 121 163 215 257 314 379
#     4  10  20  36  61  96 136 170 198 242 312 397
#
# _framework density 19.425968999999998
#
# number of rings (size 3 to 8) (size 9 to 14) (size 15 to 20)
#    0.000    1.667    0.000    4.000    9.333    3.333 
#    0.000    1.667    0.000    4.500    0.000    0.000 
#    0.000    0.000    0.000    0.000    0.000    0.000 
#
# Total GULP energy -267408.844670 kJ/mol
# GULP energy per Si atom -5571.017597 kJ/mol
# Density = 1.938175 g / cm^3
# Si number density = 19.425969 Si / 1000 Ang^3
#
#
#
# Elastic Constant Matrix: (Units=GPa)
#
#
# Indices 1 2 3 4 5 6 
#
# 1 29.2579 17.6752 31.5069 0.0000 0.0000 0.0000
# 2 17.6752 97.1878 46.6638 0.0000 0.0000 0.0000
# 3 31.5069 46.6638 97.4095 0.0000 0.0000 0.0000
# 4 0.0000 0.0000 0.0000 76.7187 0.0000 0.0000
# 5 0.0000 0.0000 0.0000 0.0000 76.3490 0.0000
# 6 0.0000 0.0000 0.0000 0.0000 0.0000 32.0103
#
#
#
# Elastic Compliance Matrix: (Units=1/GPa)
#
#
# Indices 1 2 3 4 5 6 
#
# 1 0.052693 -0.001818 -0.016172 0.000000 0.000000 0.000000
# 2 -0.001818 0.013426 -0.005844 0.000000 0.000000 0.000000
# 3 -0.016172 -0.005844 0.018296 0.000000 0.000000 0.000000
# 4 0.000000 0.000000 0.000000 0.013035 0.000000 0.000000
# 5 0.000000 0.000000 0.000000 0.000000 0.013098 0.000000
# 6 0.000000 0.000000 0.000000 0.000000 0.000000 0.031240
#
#
# Mechanical properties :
#
#
# Convention : Reuss Voigt Hill
#
# Bulk Modulus (GPa) = 27.21334 46.17191 36.69262
# Shear Modulus (GPa) = 24.78880 45.54955 35.16918
#
# Velocity S-wave (km/s) = 3.57608 4.84754 4.25952
# Velocity P-wave (km/s) = 5.57587 7.42639 6.56664
#
# Compressibility (1/GPa) = 0.03674668
#
# Stress axis : x y z
#
# Youngs Moduli (GPa) = 18.97793 74.48399 54.65603
#
# Poissons Ratio (x) = 0.13541 0.88392
# Poissons Ratio (y) = 0.03450 0.31938
# Poissons Ratio (z) = 0.30692 0.43525
#
# Static dielectric constant tensor:
#      x y z
#    x 1.687050 0.000000 0.000000 
#    y 0.000000 1.796050 0.000000 
#    z 0.000000 0.000000 1.681010 
# 
# From -- ./inp_files/63700.got.cif
#   From: 2010.05.17/outbox.cif.g08.bks.cpg/sg63_32_cif.got.tgz:63700.got - 2010.06.03 15:47:04.
