data_PCOD9473890
_publ_section_title
;
Structure prediction by ZEFSAII (Michael W. Deem and Ramdas Pophale) SiO2 
 PCOD9473890
Probable space group: C M C M
;
_chemical_formula_sum "Si O2"
_cell_formula_units_Z 96
_cell_length_a 8.571907
_cell_length_b 20.661491
_cell_length_c 30.996187
_cell_angle_alpha 90.000000
_cell_angle_beta 90.000000
_cell_angle_gamma 90.000000
_cell_volume 5489.684445
_symmetry_space_group_name_H-M "C M C M"
_symmetry_group_IT_number 63
_symmetry_cell_setting 'orthorhombic'
loop_
_space_group_symop_operation_xyz
x,y,z
-x,-y,1/2+z
x,-y,-z
-x,y,1/2-z
-x,-y,-z
x,y,1/2-z
-x,y,z
x,-y,1/2+z
1/2+x,1/2+y,z
1/2-x,1/2-y,1/2+z
1/2+x,1/2-y,-z
1/2-x,1/2+y,1/2-z
1/2-x,1/2-y,-z
1/2+x,1/2+y,1/2-z
1/2-x,1/2+y,z
1/2+x,1/2-y,1/2+z
loop_
_atom_site_type_symbol
_atom_site_label
_atom_site_fract_x
_atom_site_fract_y
_atom_site_fract_z
Si Si1 0.688048 0.699785 0.299132
Si Si2 0.187168 0.554086 0.534426
Si Si3 0.690157 0.448170 0.700930
Si Si4 0.310997 0.551074 0.629937
Si Si5 0.187169 0.197271 0.966858
Si Si6 0.187626 0.800977 0.367975
O O1 0.738421 0.715308 0.250000
O O2 0.500000 0.700338 0.299521
O O3 0.737893 0.625763 0.308648
O O4 0.747542 0.750387 0.333913
O O5 0.236895 0.500000 0.500000
O O6 0.246967 0.537305 0.582301
O O7 0.252066 0.625163 0.523247
O O8 0.000000 0.556954 0.534756
O O9 0.738601 0.464013 0.750000
O O10 0.500000 0.449060 0.700699
O O11 0.742777 0.499537 0.665440
O O12 0.500000 0.549417 0.627865
O O13 0.265421 0.624765 0.641601
O O14 0.236154 0.212717 0.917450
O O15 0.000000 0.196435 0.968002
O O16 0.250000 0.250000 0.000000
O O17 0.000000 0.798350 0.366568
#
# Coordination Sequence:
#
# PCOD9473890 Si02
#       6
#    16  16  16  16  16  16
#     4   9  18  32  50  73 100 131 168 207 247 296
#     4  10  21  36  53  75 105 138 170 209 256 303
#     4   8  15  30  51  73  97 126 164 208 248 291
#     4   9  18  33  53  75  97 127 169 211 250 296
#     4  10  21  37  56  78 104 134 171 214 258 308
#     4   9  19  33  49  73 102 129 161 203 249 299
#
# _framework density 17.487345000000001
#
# number of rings (size 3 to 8) (size 9 to 14) (size 15 to 20)
#    0.000    2.833    0.000    3.000    0.000    7.000 
#    0.000    5.833    0.000    1.500    0.000    0.000 
#    0.000    0.000    0.000    0.000    0.000    0.000 
#
# Total GULP energy -267632.095477 kJ/mol
# GULP energy per Si atom -5575.668656 kJ/mol
# Density = 1.744754 g / cm^3
# Si number density = 17.487345 Si / 1000 Ang^3
#
#
#
# Elastic Constant Matrix: (Units=GPa)
#
#
# Indices 1 2 3 4 5 6 
#
# 1 17.8682 33.9344 33.0627 0.0000 0.0000 0.0000
# 2 33.9344 165.3929 152.0586 0.0000 0.0000 0.0000
# 3 33.0627 152.0586 163.0639 0.0000 0.0000 0.0000
# 4 0.0000 0.0000 0.0000 45.0562 0.0000 0.0000
# 5 0.0000 0.0000 0.0000 0.0000 29.3906 0.0000
# 6 0.0000 0.0000 0.0000 0.0000 0.0000 25.6842
#
#
#
# Elastic Compliance Matrix: (Units=1/GPa)
#
#
# Indices 1 2 3 4 5 6 
#
# 1 0.092969 -0.012226 -0.007449 0.000000 0.000000 0.000000
# 2 -0.012226 0.043986 -0.038539 0.000000 0.000000 0.000000
# 3 -0.007449 -0.038539 0.043581 0.000000 0.000000 0.000000
# 4 0.000000 0.000000 0.000000 0.022194 0.000000 0.000000
# 5 0.000000 0.000000 0.000000 0.000000 0.034025 0.000000
# 6 0.000000 0.000000 0.000000 0.000000 0.000000 0.038934
#
#
# Mechanical properties :
#
#
# Convention : Reuss Voigt Hill
#
# Bulk Modulus (GPa) = 15.59881 87.15960 51.37920
# Shear Modulus (GPa) = 12.09232 28.51083 20.30158
#
# Velocity S-wave (km/s) = 2.63247 4.04216 3.41094
# Velocity P-wave (km/s) = 4.26372 8.46966 6.70502
#
# Compressibility (1/GPa) = 0.06410746
#
# Stress axis : x y z
#
# Youngs Moduli (GPa) = 10.75632 22.73444 22.94603
#
# Poissons Ratio (x) = 0.27795 0.17093
# Poissons Ratio (y) = 0.13151 0.88431
# Poissons Ratio (z) = 0.08013 0.87615
#
# Static dielectric constant tensor:
#      x y z
#    x 1.599810 0.000000 0.000000 
#    y 0.000000 1.578780 0.000000 
#    z 0.000000 0.000000 1.579190 
# 
# From -- ./inp_files/66993.got.cif
#   From: 2010.05.17/outbox.cif.g08.bks.cpg/sg63_34_cif.got.tgz:66993.got - 2010.06.03 15:47:04.
