data_PCOD9473220
_publ_section_title
;
Structure prediction by ZEFSAII (Michael W. Deem and Ramdas Pophale) SiO2 
 PCOD9473220
Probable space group: C M C M
;
_chemical_formula_sum "Si O2"
_cell_formula_units_Z 112
_cell_length_a 25.647056
_cell_length_b 14.390610
_cell_length_c 17.198644
_cell_angle_alpha 90.000000
_cell_angle_beta 90.000000
_cell_angle_gamma 90.000000
_cell_volume 6347.620157
_symmetry_space_group_name_H-M "C M C M"
_symmetry_group_IT_number 63
_symmetry_cell_setting 'orthorhombic'
loop_
_space_group_symop_operation_xyz
x,y,z
-x,-y,1/2+z
x,-y,-z
-x,y,1/2-z
-x,-y,-z
x,y,1/2-z
-x,y,z
x,-y,1/2+z
1/2+x,1/2+y,z
1/2-x,1/2-y,1/2+z
1/2+x,1/2-y,-z
1/2-x,1/2+y,1/2-z
1/2-x,1/2-y,-z
1/2+x,1/2+y,1/2-z
1/2-x,1/2+y,z
1/2+x,1/2-y,1/2+z
loop_
_atom_site_type_symbol
_atom_site_label
_atom_site_fract_x
_atom_site_fract_y
_atom_site_fract_z
Si Si1 0.271345 0.765566 0.912928
Si Si2 0.500000 0.827563 0.155060
Si Si3 0.000000 0.107027 0.156216
Si Si4 0.608278 0.457301 0.913690
Si Si5 0.198284 0.470502 0.911797
Si Si6 0.108911 0.408916 0.340038
Si Si7 0.838175 0.207687 0.338217
Si Si8 0.798930 0.927420 0.158647
O O1 0.304677 0.859295 0.908738
O O2 0.222385 0.784873 0.856684
O O3 0.296969 0.670369 0.885709
O O4 0.250000 0.750000 0.000000
O O5 0.500000 0.826932 0.250000
O O6 0.500000 0.717670 0.133882
O O7 0.448370 0.882440 0.129465
O O8 0.948720 0.057149 0.122708
O O9 0.000000 0.103640 0.250000
O O10 0.634996 0.356126 0.903161
O O11 0.648224 0.520740 0.865124
O O12 0.605880 0.500000 0.000000
O O13 0.145081 0.518242 0.883937
O O14 0.248107 0.511295 0.864928
O O15 0.208707 0.500000 0.000000
O O16 0.104179 0.438493 0.250000
O O17 0.139020 0.310741 0.341194
O O18 0.847869 0.171371 0.250000
O O19 0.796651 0.911292 0.250000
#
# Coordination Sequence:
#
# PCOD9473220 Si02
#       8
#    16   8   8  16  16  16  16  16
#     4  12  23  38  58  86 127 166 201 245 305 365
#     4   9  18  35  62  93 119 147 195 259 311 351
#     4  11  21  39  65  91 117 157 207 256 313 371
#     4  12  24  38  58  88 127 163 202 252 314 368
#     4  12  23  38  60  87 123 161 199 246 306 364
#     4  10  20  36  60  91 119 150 196 253 308 362
#     4  11  20  34  59  87 117 157 207 253 298 365
#     4  12  24  38  59  89 123 163 206 249 299 364
#
# _framework density 17.644409
#
# number of rings (size 3 to 8) (size 9 to 14) (size 15 to 20)
#    0.000    0.714    5.714    3.643    0.000    1.714 
#    0.000    0.357    0.000    0.857    0.000    1.000 
#    0.000    0.000    0.000    0.000    0.000    0.000 
#
# Total GULP energy -312757.404533 kJ/mol
# GULP energy per Si atom -5584.953652 kJ/mol
# Density = 1.760425 g / cm^3
# Si number density = 17.644409 Si / 1000 Ang^3
#
#
#
# Elastic Constant Matrix: (Units=GPa)
#
#
# Indices 1 2 3 4 5 6 
#
# 1 131.1287 63.0806 8.5815 0.0000 0.0000 0.0000
# 2 63.0806 131.0528 28.4383 0.0000 0.0000 0.0000
# 3 8.5815 28.4383 101.6017 0.0000 0.0000 0.0000
# 4 0.0000 0.0000 0.0000 28.6478 0.0000 0.0000
# 5 0.0000 0.0000 0.0000 0.0000 25.6815 0.0000
# 6 0.0000 0.0000 0.0000 0.0000 0.0000 27.7279
#
#
#
# Elastic Compliance Matrix: (Units=1/GPa)
#
#
# Indices 1 2 3 4 5 6 
#
# 1 0.009951 -0.004905 0.000533 0.000000 0.000000 0.000000
# 2 -0.004905 0.010542 -0.002536 0.000000 0.000000 0.000000
# 3 0.000533 -0.002536 0.010507 0.000000 0.000000 0.000000
# 4 0.000000 0.000000 0.000000 0.034907 0.000000 0.000000
# 5 0.000000 0.000000 0.000000 0.000000 0.038939 0.000000
# 6 0.000000 0.000000 0.000000 0.000000 0.000000 0.036065
#
#
# Mechanical properties :
#
#
# Convention : Reuss Voigt Hill
#
# Bulk Modulus (GPa) = 58.20075 62.66489 60.43282
# Shear Modulus (GPa) = 31.16116 33.99029 32.57572
#
# Velocity S-wave (km/s) = 4.20702 4.39385 4.30145
# Velocity P-wave (km/s) = 7.52699 7.83158 7.68080
#
# Compressibility (1/GPa) = 0.01718191
#
# Stress axis : x y z
#
# Youngs Moduli (GPa) = 100.49234 94.85837 95.17186
#
# Poissons Ratio (x) = 0.46531 -0.05068
# Poissons Ratio (y) = 0.49295 0.24139
# Poissons Ratio (z) = -0.05351 0.24060
#
# Static dielectric constant tensor:
#      x y z
#    x 1.608920 0.000000 0.000000 
#    y 0.000000 1.586250 0.000000 
#    z 0.000000 0.000000 1.542840 
# 
# From -- ./inp_files/37986.got.cif
#   From: 2010.05.17/outbox.cif.g08.bks.cpg/sg63_19_cif.got.tgz:37986.got - 2010.06.03 15:47:04.
