data_PCOD9473840
_publ_section_title
;
Structure prediction by ZEFSAII (Michael W. Deem and Ramdas Pophale) SiO2 
 PCOD9473840
Probable space group: C M C M
;
_chemical_formula_sum "Si O2"
_cell_formula_units_Z 72
_cell_length_a 13.292024
_cell_length_b 32.072945
_cell_length_c 9.427666
_cell_angle_alpha 90.000000
_cell_angle_beta 90.000000
_cell_angle_gamma 90.000000
_cell_volume 4019.149347
_symmetry_space_group_name_H-M "C M C M"
_symmetry_group_IT_number 63
_symmetry_cell_setting 'orthorhombic'
loop_
_space_group_symop_operation_xyz
x,y,z
-x,-y,1/2+z
x,-y,-z
-x,y,1/2-z
-x,-y,-z
x,y,1/2-z
-x,y,z
x,-y,1/2+z
1/2+x,1/2+y,z
1/2-x,1/2-y,1/2+z
1/2+x,1/2-y,-z
1/2-x,1/2+y,1/2-z
1/2-x,1/2-y,-z
1/2+x,1/2+y,1/2-z
1/2-x,1/2+y,z
1/2+x,1/2-y,1/2+z
loop_
_atom_site_type_symbol
_atom_site_label
_atom_site_fract_x
_atom_site_fract_y
_atom_site_fract_z
Si Si1 0.208879 0.684569 0.417353
Si Si2 0.500000 0.043254 0.918846
Si Si3 0.193482 0.400278 0.080206
Si Si4 0.115598 0.956312 0.080135
Si Si5 0.616438 0.726851 0.585626
O O1 0.215245 0.676851 0.250000
O O2 0.179841 0.642969 0.499322
O O3 0.314083 0.700784 0.481234
O O4 0.134875 0.723949 0.440143
O O5 0.500000 0.035731 0.750000
O O6 0.600185 0.069463 0.952640
O O7 0.500000 0.000000 0.000000
O O8 0.194623 0.393077 0.250000
O O9 0.298783 0.422898 0.041473
O O10 0.123198 0.963114 0.250000
O O11 0.000000 0.942929 0.049878
O O12 0.132855 0.000000 0.000000
O O13 0.646623 0.718850 0.750000
O O14 0.500000 0.716650 0.569926
#
# Coordination Sequence:
#
# PCOD9473840 Si02
#       5
#    16   8  16  16  16
#     4  10  21  35  54  83 110 137 181 228 270 320
#     4  10  22  38  56  80 110 148 190 234 282 332
#     4  10  21  36  53  77 110 144 180 221 272 333
#     4   9  18  33  53  75 100 133 172 214 263 319
#     4   9  19  37  58  77 106 146 181 220 274 332
#
# _framework density 17.914238999999998
#
# number of rings (size 3 to 8) (size 9 to 14) (size 15 to 20)
#    0.000    2.444    0.000    1.333    1.556    4.000 
#    0.000    2.222    0.000    0.000    0.000    0.000 
#    0.000    0.000    0.000    0.000    0.000    0.000 
#
# Total GULP energy -200886.595698 kJ/mol
# GULP energy per Si atom -5580.183214 kJ/mol
# Density = 1.787347 g / cm^3
# Si number density = 17.914239 Si / 1000 Ang^3
#
#
#
# Elastic Constant Matrix: (Units=GPa)
#
#
# Indices 1 2 3 4 5 6 
#
# 1 70.5773 34.7612 30.5139 0.0000 0.0000 0.0000
# 2 34.7612 107.0183 54.2233 0.0000 0.0000 0.0000
# 3 30.5139 54.2233 40.8537 0.0000 0.0000 0.0000
# 4 0.0000 0.0000 0.0000 41.7521 0.0000 0.0000
# 5 0.0000 0.0000 0.0000 0.0000 13.8877 0.0000
# 6 0.0000 0.0000 0.0000 0.0000 0.0000 3.1538
#
#
#
# Elastic Compliance Matrix: (Units=1/GPa)
#
#
# Indices 1 2 3 4 5 6 
#
# 1 0.021346 0.003495 -0.020582 0.000000 0.000000 0.000000
# 2 0.003495 0.029103 -0.041237 0.000000 0.000000 0.000000
# 3 -0.020582 -0.041237 0.094583 0.000000 0.000000 0.000000
# 4 0.000000 0.000000 0.000000 0.023951 0.000000 0.000000
# 5 0.000000 0.000000 0.000000 0.000000 0.072006 0.000000
# 6 0.000000 0.000000 0.000000 0.000000 0.000000 0.317082
#
#
# Mechanical properties :
#
#
# Convention : Reuss Voigt Hill
#
# Bulk Modulus (GPa) = 35.23257 50.82731 43.02994
# Shear Modulus (GPa) = 7.30801 18.35543 12.83172
#
# Velocity S-wave (km/s) = 2.02195 3.20445 2.67926
# Velocity P-wave (km/s) = 5.01609 6.49042 5.80029
#
# Compressibility (1/GPa) = 0.02838282
#
# Stress axis : x y z
#
# Youngs Moduli (GPa) = 46.84683 34.36105 10.57276
#
# Poissons Ratio (x) = -0.12009 0.21761
# Poissons Ratio (y) = -0.16372 0.43599
# Poissons Ratio (z) = 0.96421 1.41695
#
# Static dielectric constant tensor:
#      x y z
#    x 1.608480 0.000000 0.000000 
#    y 0.000000 1.583070 0.000000 
#    z 0.000000 0.000000 1.594340 
# 
# From -- ./inp_files/4641.got.cif
#   From: 2010.05.17/outbox.cif.g08.bks.cpg/sg63_3_cif.got.tgz:4641.got - 2010.06.03 15:47:04.
