data_PCOD9473806
_publ_section_title
;
Structure prediction by ZEFSAII (Michael W. Deem and Ramdas Pophale) SiO2 
 PCOD9473806
Probable space group: C M C M
;
_chemical_formula_sum "Si O2"
_cell_formula_units_Z 96
_cell_length_a 25.521357
_cell_length_b 24.201405
_cell_length_c 8.847232
_cell_angle_alpha 90.000000
_cell_angle_beta 90.000000
_cell_angle_gamma 90.000000
_cell_volume 5464.516705
_symmetry_space_group_name_H-M "C M C M"
_symmetry_group_IT_number 63
_symmetry_cell_setting 'orthorhombic'
loop_
_space_group_symop_operation_xyz
x,y,z
-x,-y,1/2+z
x,-y,-z
-x,y,1/2-z
-x,-y,-z
x,y,1/2-z
-x,y,z
x,-y,1/2+z
1/2+x,1/2+y,z
1/2-x,1/2-y,1/2+z
1/2+x,1/2-y,-z
1/2-x,1/2+y,1/2-z
1/2-x,1/2-y,-z
1/2+x,1/2+y,1/2-z
1/2-x,1/2+y,z
1/2+x,1/2-y,1/2+z
loop_
_atom_site_type_symbol
_atom_site_label
_atom_site_fract_x
_atom_site_fract_y
_atom_site_fract_z
Si Si1 0.148904 0.135798 0.568373
Si Si2 0.561952 0.440346 0.569824
Si Si3 0.808446 0.247801 0.431720
Si Si4 0.748939 0.560712 0.931646
Si Si5 0.938970 0.559018 0.069547
Si Si6 0.649530 0.868365 0.068175
O O1 0.146714 0.139816 0.750000
O O2 0.097039 0.106968 0.504420
O O3 0.161213 0.195301 0.497999
O O4 0.197733 0.095997 0.526879
O O5 0.576449 0.500000 0.500000
O O6 0.570190 0.441740 0.750000
O O7 0.500000 0.431847 0.541048
O O8 0.804756 0.243976 0.250000
O O9 0.750000 0.250000 0.500000
O O10 0.837489 0.305123 0.470026
O O11 0.749787 0.556525 0.750000
O O12 0.800762 0.594190 0.978678
O O13 0.747665 0.500000 0.000000
O O14 0.935032 0.555866 0.250000
O O15 0.000000 0.567795 0.028601
O O16 0.922517 0.500000 0.000000
O O17 0.901955 0.606703 0.006784
O O18 0.644809 0.872127 0.250000
#
# Coordination Sequence:
#
# PCOD9473806 Si02
#       6
#    16  16  16  16  16  16
#     4  11  22  38  58  83 116 151 194 239 285 344
#     4  10  21  38  60  87 118 153 194 239 290 346
#     4  11  22  39  60  83 114 153 194 237 288 343
#     4  10  21  35  51  79 114 144 179 228 280 336
#     4  10  21  37  58  85 115 148 188 232 281 336
#     4  10  21  38  57  81 113 147 189 233 280 337
#
# _framework density 17.567885
#
# number of rings (size 3 to 8) (size 9 to 14) (size 15 to 20)
#    0.000    1.667    1.667    3.000    0.000    8.000 
#    0.000    0.833    0.000    1.000    0.000    0.000 
#    0.000    0.000    0.000    0.000    0.000    0.000 
#
# Total GULP energy -268211.416666 kJ/mol
# GULP energy per Si atom -5587.737847 kJ/mol
# Density = 1.752790 g / cm^3
# Si number density = 17.567885 Si / 1000 Ang^3
#
#
#
# Elastic Constant Matrix: (Units=GPa)
#
#
# Indices 1 2 3 4 5 6 
#
# 1 94.4225 85.3433 50.7771 0.0000 0.0000 0.0000
# 2 85.3433 184.9289 66.8514 0.0000 0.0000 0.0000
# 3 50.7771 66.8514 53.5221 0.0000 0.0000 0.0000
# 4 0.0000 0.0000 0.0000 35.9105 0.0000 0.0000
# 5 0.0000 0.0000 0.0000 0.0000 30.1727 0.0000
# 6 0.0000 0.0000 0.0000 0.0000 0.0000 24.3101
#
#
#
# Elastic Compliance Matrix: (Units=1/GPa)
#
#
# Indices 1 2 3 4 5 6 
#
# 1 0.024089 -0.005206 -0.016351 0.000000 0.000000 0.000000
# 2 -0.005206 0.010984 -0.008781 0.000000 0.000000 0.000000
# 3 -0.016351 -0.008781 0.045164 0.000000 0.000000 0.000000
# 4 0.000000 0.000000 0.000000 0.027847 0.000000 0.000000
# 5 0.000000 0.000000 0.000000 0.000000 0.033143 0.000000
# 6 0.000000 0.000000 0.000000 0.000000 0.000000 0.041135
#
#
# Mechanical properties :
#
#
# Convention : Reuss Voigt Hill
#
# Bulk Modulus (GPa) = 51.12079 82.09077 66.60578
# Shear Modulus (GPa) = 20.03537 26.73878 23.38707
#
# Velocity S-wave (km/s) = 3.38072 3.90555 3.65257
# Velocity P-wave (km/s) = 6.66343 8.19554 7.46887
#
# Compressibility (1/GPa) = 0.01956151
#
# Stress axis : x y z
#
# Youngs Moduli (GPa) = 41.51226 91.03912 22.14156
#
# Poissons Ratio (x) = 0.47396 0.36204
# Poissons Ratio (y) = 0.21612 0.19442
# Poissons Ratio (z) = 0.67877 0.79939
#
# Static dielectric constant tensor:
#      x y z
#    x 1.586900 0.000000 0.000000 
#    y 0.000000 1.566410 0.000000 
#    z 0.000000 0.000000 1.588290 
# 
# From -- ./inp_files/10462.got.cif
#   From: 2010.05.17/outbox.cif.g08.bks.cpg/sg63_6_cif.got.tgz:10462.got - 2010.06.03 15:47:04.
