data_PCOD9473039
_publ_section_title
;
Structure prediction by ZEFSAII (Michael W. Deem and Ramdas Pophale) SiO2 
 PCOD9473039
Probable space group: C M C M
;
_chemical_formula_sum "Si O2"
_cell_formula_units_Z 96
_cell_length_a 8.407770
_cell_length_b 21.219763
_cell_length_c 29.024643
_cell_angle_alpha 90.000000
_cell_angle_beta 90.000000
_cell_angle_gamma 90.000000
_cell_volume 5178.312295
_symmetry_space_group_name_H-M "C M C M"
_symmetry_group_IT_number 63
_symmetry_cell_setting 'orthorhombic'
loop_
_space_group_symop_operation_xyz
x,y,z
-x,-y,1/2+z
x,-y,-z
-x,y,1/2-z
-x,-y,-z
x,y,1/2-z
-x,y,z
x,-y,1/2+z
1/2+x,1/2+y,z
1/2-x,1/2-y,1/2+z
1/2+x,1/2-y,-z
1/2-x,1/2+y,1/2-z
1/2-x,1/2-y,-z
1/2+x,1/2+y,1/2-z
1/2-x,1/2+y,z
1/2+x,1/2-y,1/2+z
loop_
_atom_site_type_symbol
_atom_site_label
_atom_site_fract_x
_atom_site_fract_y
_atom_site_fract_z
Si Si1 0.190289 0.250584 0.447546
Si Si2 0.191986 0.925903 0.697472
Si Si3 0.191752 0.071558 0.697850
Si Si4 0.194138 0.500835 0.053066
Si Si5 0.308182 0.124780 0.605762
Si Si6 0.809843 0.627418 0.105031
O O1 0.250000 0.250000 0.500000
O O2 0.248567 0.312670 0.420227
O O3 0.242373 0.188590 0.420021
O O4 0.000000 0.253129 0.448849
O O5 0.238808 0.910013 0.750000
O O6 0.259806 0.881419 0.658008
O O7 0.000000 0.924485 0.695427
O O8 0.242472 0.998797 0.688752
O O9 0.241821 0.087622 0.750000
O O10 0.255609 0.116812 0.658389
O O11 0.000000 0.072060 0.696741
O O12 0.247909 0.437945 0.079082
O O13 0.246750 0.564207 0.078643
O O14 0.000000 0.500729 0.053717
O O15 0.244217 0.500000 0.000000
O O16 0.500000 0.125027 0.604452
O O17 0.000000 0.629664 0.102002
#
# Coordination Sequence:
#
# PCOD9473039 Si02
#       6
#    16  16  16  16  16  16
#     4  11  24  41  60  81 113 154 193 232 282 341
#     4   9  18  34  56  83 117 152 184 226 283 340
#     4   9  18  33  55  84 117 149 180 226 286 337
#     4   9  17  31  52  78 107 138 178 228 278 328
#     4  10  20  36  57  82 110 147 189 231 279 331
#     4  11  21  35  58  85 114 148 187 235 285 335
#
# _framework density 18.538858999999999
#
# number of rings (size 3 to 8) (size 9 to 14) (size 15 to 20)
#    0.000    2.167    1.667    3.000    0.000    4.667 
#    0.000    2.500    0.000    3.500    0.000    0.000 
#    0.000    0.000    0.000    0.000    0.000    0.000 
#
# Total GULP energy -267945.161755 kJ/mol
# GULP energy per Si atom -5582.190870 kJ/mol
# Density = 1.849666 g / cm^3
# Si number density = 18.538859 Si / 1000 Ang^3
#
#
#
# Elastic Constant Matrix: (Units=GPa)
#
#
# Indices 1 2 3 4 5 6 
#
# 1 20.4194 26.4801 24.9021 0.0000 0.0000 0.0000
# 2 26.4801 155.4606 101.5055 0.0000 0.0000 0.0000
# 3 24.9021 101.5055 182.8366 0.0000 0.0000 0.0000
# 4 0.0000 0.0000 0.0000 33.9579 0.0000 0.0000
# 5 0.0000 0.0000 0.0000 0.0000 31.0687 0.0000
# 6 0.0000 0.0000 0.0000 0.0000 0.0000 23.5159
#
#
#
# Elastic Compliance Matrix: (Units=1/GPa)
#
#
# Indices 1 2 3 4 5 6 
#
# 1 0.064885 -0.008285 -0.004238 0.000000 0.000000 0.000000
# 2 -0.008285 0.011148 -0.005061 0.000000 0.000000 0.000000
# 3 -0.004238 -0.005061 0.008856 0.000000 0.000000 0.000000
# 4 0.000000 0.000000 0.000000 0.029448 0.000000 0.000000
# 5 0.000000 0.000000 0.000000 0.000000 0.032187 0.000000
# 6 0.000000 0.000000 0.000000 0.000000 0.000000 0.042524
#
#
# Mechanical properties :
#
#
# Convention : Reuss Voigt Hill
#
# Bulk Modulus (GPa) = 20.11160 73.83243 46.97202
# Shear Modulus (GPa) = 20.76499 31.43041 26.09770
#
# Velocity S-wave (km/s) = 3.35039 4.12197 3.75604
# Velocity P-wave (km/s) = 5.08318 7.90989 6.64850
#
# Compressibility (1/GPa) = 0.04972254
#
# Stress axis : x y z
#
# Youngs Moduli (GPa) = 15.41179 89.70224 112.91766
#
# Poissons Ratio (x) = 0.74321 0.47849
# Poissons Ratio (y) = 0.12769 0.57143
# Poissons Ratio (z) = 0.06531 0.45395
#
# Static dielectric constant tensor:
#      x y z
#    x 1.644960 0.000000 0.000000 
#    y 0.000000 1.625840 0.000000 
#    z 0.000000 0.000000 1.633040 
# 
# From -- ./inp_files/66983.got.cif
#   From: 2010.05.17/outbox.cif.g08.bks.cpg/sg63_34_cif.got.tgz:66983.got - 2010.06.03 15:47:04.
