data_PCOD9473139
_publ_section_title
;
Structure prediction by ZEFSAII (Michael W. Deem and Ramdas Pophale) SiO2 
 PCOD9473139
Probable space group: C M C M
;
_chemical_formula_sum "Si O2"
_cell_formula_units_Z 100
_cell_length_a 7.569418
_cell_length_b 20.785344
_cell_length_c 29.877907
_cell_angle_alpha 90.000000
_cell_angle_beta 90.000000
_cell_angle_gamma 90.000000
_cell_volume 4700.779458
_symmetry_space_group_name_H-M "C M C M"
_symmetry_group_IT_number 63
_symmetry_cell_setting 'orthorhombic'
loop_
_space_group_symop_operation_xyz
x,y,z
-x,-y,1/2+z
x,-y,-z
-x,y,1/2-z
-x,-y,-z
x,y,1/2-z
-x,y,z
x,-y,1/2+z
1/2+x,1/2+y,z
1/2-x,1/2-y,1/2+z
1/2+x,1/2-y,-z
1/2-x,1/2+y,1/2-z
1/2-x,1/2-y,-z
1/2+x,1/2+y,1/2-z
1/2-x,1/2+y,z
1/2+x,1/2-y,1/2+z
loop_
_atom_site_type_symbol
_atom_site_label
_atom_site_fract_x
_atom_site_fract_y
_atom_site_fract_z
Si Si1 0.786386 0.246736 0.577846
Si Si2 0.706187 0.523419 0.105454
Si Si3 0.296826 0.604237 0.561342
Si Si4 0.712235 0.073893 0.299358
Si Si5 0.500000 0.229227 0.750000
Si Si6 0.704147 0.126195 0.034160
Si Si7 0.211754 0.723619 0.318264
O O1 0.718664 0.175216 0.568496
O O2 0.718605 0.303784 0.546010
O O3 0.755424 0.265220 0.629305
O O4 0.000000 0.246642 0.571728
O O5 0.500000 0.524991 0.093371
O O6 0.782220 0.455904 0.087819
O O7 0.723008 0.533940 0.158290
O O8 0.788278 0.582734 0.078461
O O9 0.500000 0.609081 0.576917
O O10 0.293370 0.592837 0.508183
O O11 0.776009 0.054080 0.250000
O O12 0.500000 0.069539 0.299643
O O13 0.755133 0.149241 0.306372
O O14 0.657092 0.234078 0.788755
O O15 0.500000 0.133116 0.021617
O O16 0.000000 0.733284 0.309842
#
# Coordination Sequence:
#
# PCOD9473139 Si02
#       7
#    16  16  16  16   4  16  16
#     4   9  19  38  61  81 116 158 195 238 298 359
#     4  11  23  36  58  86 118 152 194 243 290 353
#     4  10  22  40  57  82 118 158 194 237 297 358
#     4  10  20  36  59  84 115 149 190 241 300 349
#     4  12  22  32  60  94 124 150 204 252 306 362
#     4  11  21  36  60  87 112 150 198 244 294 350
#     4  10  20  36  58  88 121 157 194 252 308 355
#
# _framework density 21.273067999999999
#
# number of rings (size 3 to 8) (size 9 to 14) (size 15 to 20)
#    0.000    1.760    2.400    2.160    1.120    3.520 
#    2.880    0.000    1.760    0.000    0.000    0.000 
#    0.000    0.000    0.000    0.000    0.000    0.000 
#
# Total GULP energy -278752.266545 kJ/mol
# GULP energy per Si atom -5575.045331 kJ/mol
# Density = 2.122465 g / cm^3
# Si number density = 21.273068 Si / 1000 Ang^3
#
#
#
# Elastic Constant Matrix: (Units=GPa)
#
#
# Indices 1 2 3 4 5 6 
#
# 1 67.3007 1.0832 1.5067 0.0000 0.0000 0.0000
# 2 1.0832 95.9366 41.8408 0.0000 0.0000 0.0000
# 3 1.5067 41.8408 123.5833 0.0000 0.0000 0.0000
# 4 0.0000 0.0000 0.0000 -13.2007 0.0000 0.0000
# 5 0.0000 0.0000 0.0000 0.0000 36.3687 0.0000
# 6 0.0000 0.0000 0.0000 0.0000 0.0000 8.5645
#
#
#
# Elastic Compliance Matrix: (Units=1/GPa)
#
#
# Indices 1 2 3 4 5 6 
#
# 1 0.014864 -0.000104 -0.000146 0.000000 0.000000 0.000000
# 2 -0.000104 0.012230 -0.004139 0.000000 0.000000 0.000000
# 3 -0.000146 -0.004139 0.009495 0.000000 0.000000 0.000000
# 4 0.000000 0.000000 0.000000 -0.075753 0.000000 0.000000
# 5 0.000000 0.000000 0.000000 0.000000 0.027496 0.000000
# 6 0.000000 0.000000 0.000000 0.000000 0.000000 0.116761
#
#
# Mechanical properties :
#
#
# Convention : Reuss Voigt Hill
#
# Bulk Modulus (GPa) = 35.95880 41.74246 38.85063
# Shear Modulus (GPa) = 40.60366 22.50581 31.55474
#
# Velocity S-wave (km/s) = 4.37359 3.25614 3.85557
# Velocity P-wave (km/s) = 6.51495 5.81390 6.17438
#
# Compressibility (1/GPa) = 0.02780961
#
# Stress axis : x y z
#
# Youngs Moduli (GPa) = 67.27827 81.76600 105.31942
#
# Poissons Ratio (x) = 0.00852 0.01537
# Poissons Ratio (y) = 0.00701 0.43596
# Poissons Ratio (z) = 0.00982 0.33846
#
# Static dielectric constant tensor:
#      x y z
#    x 1.815140 0.000000 0.000000 
#    y 0.000000 1.789720 0.000000 
#    z 0.000000 0.000000 1.751140 
# 
# From -- ./inp_files/71854.got.cif
#   From: 2010.05.17/outbox.cif.g08.bks.cpg/sg63_36_cif.got.tgz:71854.got - 2010.06.03 15:47:04.
