data_PCOD9473259
_publ_section_title
;
Structure prediction by ZEFSAII (Michael W. Deem and Ramdas Pophale) SiO2 
 PCOD9473259
Probable space group: C M C M
;
_chemical_formula_sum "Si O2"
_cell_formula_units_Z 60
_cell_length_a 12.766448
_cell_length_b 23.476991
_cell_length_c 10.135565
_cell_angle_alpha 90.000000
_cell_angle_beta 90.000000
_cell_angle_gamma 90.000000
_cell_volume 3037.809089
_symmetry_space_group_name_H-M "C M C M"
_symmetry_group_IT_number 63
_symmetry_cell_setting 'orthorhombic'
loop_
_space_group_symop_operation_xyz
x,y,z
-x,-y,1/2+z
x,-y,-z
-x,y,1/2-z
-x,-y,-z
x,y,1/2-z
-x,y,z
x,-y,1/2+z
1/2+x,1/2+y,z
1/2-x,1/2-y,1/2+z
1/2+x,1/2-y,-z
1/2-x,1/2+y,1/2-z
1/2-x,1/2-y,-z
1/2+x,1/2+y,1/2-z
1/2-x,1/2+y,z
1/2+x,1/2-y,1/2+z
loop_
_atom_site_type_symbol
_atom_site_label
_atom_site_fract_x
_atom_site_fract_y
_atom_site_fract_z
Si Si1 0.725196 0.329477 0.250000
Si Si2 0.500000 0.350447 0.250000
Si Si3 0.705637 0.630434 0.454190
Si Si4 0.627441 0.721653 0.250000
Si Si5 0.621391 0.954163 0.896220
Si Si6 0.500000 0.567810 0.491989
O O1 0.602593 0.311133 0.250000
O O2 0.728373 0.362298 0.389676
O O3 0.814839 0.282249 0.250000
O O4 0.500000 0.393954 0.126247
O O5 0.669861 0.687458 0.378683
O O6 0.809906 0.602203 0.398828
O O7 0.608178 0.588088 0.427089
O O8 0.500000 0.723840 0.250000
O O9 0.625755 0.979550 0.750000
O O10 0.500000 0.941999 0.927916
O O11 0.662933 0.000000 0.000000
O O12 0.500000 0.500000 0.500000
#
# Coordination Sequence:
#
# PCOD9473259 Si02
#       6
#     8   4  16   8  16   8
#     4  10  24  42  65  87 120 171 204 261 318 364
#     4   8  20  42  58  88 128 158 214 254 298 376
#     4  11  22  42  62  92 128 158 209 262 310 383
#     4  12  24  43  64  89 124 160 213 271 320 367
#     4  10  22  40  62  90 126 166 205 253 311 373
#     4  10  20  36  62  92 126 163 195 245 319 378
#
# _framework density 19.751076000000001
#
# number of rings (size 3 to 8) (size 9 to 14) (size 15 to 20)
#    0.000    1.600    2.667    1.600    1.867    2.133 
#    7.200    0.000    0.000    0.000    0.000    0.000 
#    0.000    0.000    0.000    0.000    0.000    0.000 
#
# Total GULP energy -167185.353623 kJ/mol
# GULP energy per Si atom -5572.845121 kJ/mol
# Density = 1.970612 g / cm^3
# Si number density = 19.751076 Si / 1000 Ang^3
#
#
#
# Elastic Constant Matrix: (Units=GPa)
#
#
# Indices 1 2 3 4 5 6 
#
# 1 101.8824 46.8986 28.6162 0.0000 0.0000 0.0000
# 2 46.8986 70.6283 15.0593 0.0000 0.0000 0.0000
# 3 28.6162 15.0593 96.1098 0.0000 0.0000 0.0000
# 4 0.0000 0.0000 0.0000 21.6462 0.0000 0.0000
# 5 0.0000 0.0000 0.0000 0.0000 -54.0742 0.0000
# 6 0.0000 0.0000 0.0000 0.0000 0.0000 37.3370
#
#
#
# Elastic Compliance Matrix: (Units=1/GPa)
#
#
# Indices 1 2 3 4 5 6 
#
# 1 0.014923 -0.009272 -0.002991 0.000000 0.000000 0.000000
# 2 -0.009272 0.020408 -0.000437 0.000000 0.000000 0.000000
# 3 -0.002991 -0.000437 0.011364 0.000000 0.000000 0.000000
# 4 0.000000 0.000000 0.000000 0.046197 0.000000 0.000000
# 5 0.000000 0.000000 0.000000 0.000000 -0.018493 0.000000
# 6 0.000000 0.000000 0.000000 0.000000 0.000000 0.026783
#
#
# Mechanical properties :
#
#
# Convention : Reuss Voigt Hill
#
# Bulk Modulus (GPa) = 46.95602 49.97432 48.46517
# Shear Modulus (GPa) = 37.40273 12.85157 25.12715
#
# Velocity S-wave (km/s) = 4.35639 2.55360 3.57065
# Velocity P-wave (km/s) = 7.00926 5.83537 6.44908
#
# Compressibility (1/GPa) = 0.02129653
#
# Stress axis : x y z
#
# Youngs Moduli (GPa) = 67.01009 48.99946 87.99963
#
# Poissons Ratio (x) = 0.45430 0.26317
# Poissons Ratio (y) = 0.62129 0.03847
# Poissons Ratio (z) = 0.20040 0.02142
#
# Static dielectric constant tensor:
#      x y z
#    x 1.702610 0.000000 0.000000 
#    y 0.000000 1.663390 0.000000 
#    z 0.000000 0.000000 1.677130 
# 
# From -- ./inp_files/17175.got.cif
#   From: 2010.05.17/outbox.cif.g08.bks.cpg/sg63_9_cif.got.tgz:17175.got - 2010.06.03 15:47:04.
