data_PCOD9473953
_publ_section_title
;
Structure prediction by ZEFSAII (Michael W. Deem and Ramdas Pophale) SiO2 
 PCOD9473953
Probable space group: C M C M
;
_chemical_formula_sum "Si O2"
_cell_formula_units_Z 112
_cell_length_a 30.729910
_cell_length_b 11.842191
_cell_length_c 14.310491
_cell_angle_alpha 90.000000
_cell_angle_beta 90.000000
_cell_angle_gamma 90.000000
_cell_volume 5207.723104
_symmetry_space_group_name_H-M "C M C M"
_symmetry_group_IT_number 63
_symmetry_cell_setting 'orthorhombic'
loop_
_space_group_symop_operation_xyz
x,y,z
-x,-y,1/2+z
x,-y,-z
-x,y,1/2-z
-x,-y,-z
x,y,1/2-z
-x,y,z
x,-y,1/2+z
1/2+x,1/2+y,z
1/2-x,1/2-y,1/2+z
1/2+x,1/2-y,-z
1/2-x,1/2+y,1/2-z
1/2-x,1/2-y,-z
1/2+x,1/2+y,1/2-z
1/2-x,1/2+y,z
1/2+x,1/2-y,1/2+z
loop_
_atom_site_type_symbol
_atom_site_label
_atom_site_fract_x
_atom_site_fract_y
_atom_site_fract_z
Si Si1 0.378877 0.074129 0.859309
Si Si2 0.131499 0.670840 0.443990
Si Si3 0.406466 0.522436 0.107906
Si Si4 0.691520 0.468577 0.853458
Si Si5 0.709293 0.322693 0.467576
Si Si6 0.449424 0.293102 0.143253
Si Si7 0.452233 0.759844 0.139262
O O1 0.367237 0.097715 0.750000
O O2 0.427997 0.120949 0.874218
O O3 0.372044 0.943768 0.884420
O O4 0.357918 0.139859 0.947431
O O5 0.171789 0.749568 0.418197
O O6 0.085867 0.735124 0.424908
O O7 0.359672 0.502910 0.153325
O O8 0.440484 0.427749 0.140739
O O9 0.423666 0.649522 0.117050
O O10 0.399183 0.500000 0.000000
O O11 0.706925 0.435478 0.750000
O O12 0.692664 0.376188 0.935101
O O13 0.717939 0.574097 0.896456
O O14 0.750000 0.250000 0.500000
O O15 0.441000 0.254128 0.250000
O O16 0.500000 0.270867 0.121813
O O17 0.456870 0.751606 0.250000
O O18 0.500000 0.753920 0.095447
#
# Coordination Sequence:
#
# PCOD9473953 Si02
#       7
#    16  16  16  16  16  16  16
#     4  10  23  40  62  90 123 173 231 281 337 409
#     4  11  23  43  67  92 130 180 223 283 358 407
#     4  12  21  36  60  94 132 178 229 282 349 411
#     4  11  23  43  70 100 137 179 220 279 355 424
#     4  11  25  46  69 101 137 173 226 289 349 424
#     4  11  23  38  62  98 136 178 232 288 343 415
#     4  10  21  36  55  85 128 177 230 287 340 401
#
# _framework density 21.506519999999998
#
# number of rings (size 3 to 8) (size 9 to 14) (size 15 to 20)
#    0.000    1.143    2.857    3.857    0.000    9.714 
#    0.000    4.286    0.000    0.000    0.000    0.000 
#    0.000    0.000    0.000    0.000    0.000    0.000 
#
# Total GULP energy -312416.925115 kJ/mol
# GULP energy per Si atom -5578.873663 kJ/mol
# Density = 2.145757 g / cm^3
# Si number density = 21.506520 Si / 1000 Ang^3
#
#
#
# Elastic Constant Matrix: (Units=GPa)
#
#
# Indices 1 2 3 4 5 6 
#
# 1 69.9067 31.8565 -5.0849 0.0000 0.0000 0.0000
# 2 31.8565 103.6197 13.2783 0.0000 0.0000 0.0000
# 3 -5.0849 13.2783 112.5873 0.0000 0.0000 0.0000
# 4 0.0000 0.0000 0.0000 23.9677 0.0000 0.0000
# 5 0.0000 0.0000 0.0000 0.0000 273.6174 0.0000
# 6 0.0000 0.0000 0.0000 0.0000 0.0000 42.5684
#
#
#
# Elastic Compliance Matrix: (Units=1/GPa)
#
#
# Indices 1 2 3 4 5 6 
#
# 1 0.016848 -0.005358 0.001393 0.000000 0.000000 0.000000
# 2 -0.005358 0.011503 -0.001599 0.000000 0.000000 0.000000
# 3 0.001393 -0.001599 0.009133 0.000000 0.000000 0.000000
# 4 0.000000 0.000000 0.000000 0.041723 0.000000 0.000000
# 5 0.000000 0.000000 0.000000 0.000000 0.003655 0.000000
# 6 0.000000 0.000000 0.000000 0.000000 0.000000 0.023492
#
#
# Mechanical properties :
#
#
# Convention : Reuss Voigt Hill
#
# Bulk Modulus (GPa) = 37.94164 40.69039 39.31601
# Shear Modulus (GPa) = 39.59881 84.43495 62.01688
#
# Velocity S-wave (km/s) = 4.29563 6.27259 5.37577
# Velocity P-wave (km/s) = 6.50257 8.45113 7.54006
#
# Compressibility (1/GPa) = 0.02635627
#
# Stress axis : x y z
#
# Youngs Moduli (GPa) = 59.35494 86.93528 109.48778
#
# Poissons Ratio (x) = 0.46581 -0.15250
# Poissons Ratio (y) = 0.31803 0.17503
# Poissons Ratio (z) = -0.08267 0.13898
#
# Static dielectric constant tensor:
#      x y z
#    x 1.847960 0.000000 0.000000 
#    y 0.000000 1.781560 0.000000 
#    z 0.000000 0.000000 1.837070 
# 
# From -- ./inp_files/38581.got.cif
#   From: 2010.05.17/outbox.cif.g08.bks.cpg/sg63_20_cif.got.tgz:38581.got - 2010.06.03 15:47:04.
