data_PCOD9473940
_publ_section_title
;
Structure prediction by ZEFSAII (Michael W. Deem and Ramdas Pophale) SiO2 
 PCOD9473940
Probable space group: C M C M
;
_chemical_formula_sum "Si O2"
_cell_formula_units_Z 96
_cell_length_a 24.107908
_cell_length_b 12.162491
_cell_length_c 15.450560
_cell_angle_alpha 90.000000
_cell_angle_beta 90.000000
_cell_angle_gamma 90.000000
_cell_volume 4530.292906
_symmetry_space_group_name_H-M "C M C M"
_symmetry_group_IT_number 63
_symmetry_cell_setting 'orthorhombic'
loop_
_space_group_symop_operation_xyz
x,y,z
-x,-y,1/2+z
x,-y,-z
-x,y,1/2-z
-x,-y,-z
x,y,1/2-z
-x,y,z
x,-y,1/2+z
1/2+x,1/2+y,z
1/2-x,1/2-y,1/2+z
1/2+x,1/2-y,-z
1/2-x,1/2+y,1/2-z
1/2-x,1/2-y,-z
1/2+x,1/2+y,1/2-z
1/2-x,1/2+y,z
1/2+x,1/2-y,1/2+z
loop_
_atom_site_type_symbol
_atom_site_label
_atom_site_fract_x
_atom_site_fract_y
_atom_site_fract_z
Si Si1 0.138548 0.509260 0.397947
Si Si2 0.267459 0.846867 0.353474
Si Si3 0.064083 0.719109 0.145771
Si Si4 0.348004 0.346735 0.856267
Si Si5 0.560169 0.189769 0.852461
Si Si6 0.646974 0.598223 0.643869
O O1 0.139693 0.500000 0.500000
O O2 0.198527 0.461168 0.368547
O O3 0.110138 0.625064 0.374554
O O4 0.095830 0.419078 0.362489
O O5 0.264999 0.836204 0.250000
O O6 0.301158 0.740057 0.385540
O O7 0.204691 0.847480 0.385825
O O8 0.060419 0.721379 0.250000
O O9 0.093006 0.833071 0.116580
O O10 0.000000 0.701140 0.114832
O O11 0.346133 0.346734 0.750000
O O12 0.404968 0.291233 0.886791
O O13 0.347614 0.472012 0.884150
O O14 0.555002 0.207934 0.750000
O O15 0.500000 0.177229 0.892096
O O16 0.646385 0.598453 0.750000
#
# Coordination Sequence:
#
# PCOD9473940 Si02
#       6
#    16  16  16  16  16  16
#     4  11  22  35  53  80 108 146 182 224 271 319
#     4   9  18  33  56  81 107 139 181 227 269 318
#     4  10  21  36  55  82 114 144 177 221 274 326
#     4   8  15  28  47  77 106 130 170 217 265 317
#     4   9  17  31  53  77 102 136 179 227 270 313
#     4   9  18  31  54  83 109 141 176 219 272 325
#
# _framework density 21.190683
#
# number of rings (size 3 to 8) (size 9 to 14) (size 15 to 20)
#    0.000    2.667    0.000    3.000    2.333    3.333 
#    0.000    4.167    0.000    0.000    0.000    5.833 
#    0.000    0.000    0.000    0.000    0.000    0.000 
#
# Total GULP energy -267456.185066 kJ/mol
# GULP energy per Si atom -5572.003856 kJ/mol
# Density = 2.114245 g / cm^3
# Si number density = 21.190683 Si / 1000 Ang^3
#
#
#
# Elastic Constant Matrix: (Units=GPa)
#
#
# Indices 1 2 3 4 5 6 
#
# 1 83.7333 23.5093 -2.8273 0.0000 0.0000 0.0000
# 2 23.5093 101.2501 -2.8793 0.0000 0.0000 0.0000
# 3 -2.8273 -2.8793 31.5330 0.0000 0.0000 0.0000
# 4 0.0000 0.0000 0.0000 29.5043 0.0000 0.0000
# 5 0.0000 0.0000 0.0000 0.0000 -20.8605 0.0000
# 6 0.0000 0.0000 0.0000 0.0000 0.0000 9.8794
#
#
#
# Elastic Compliance Matrix: (Units=1/GPa)
#
#
# Indices 1 2 3 4 5 6 
#
# 1 0.012800 -0.002947 0.000879 0.000000 0.000000 0.000000
# 2 -0.002947 0.010581 0.000702 0.000000 0.000000 0.000000
# 3 0.000879 0.000702 0.031856 0.000000 0.000000 0.000000
# 4 0.000000 0.000000 0.000000 0.033893 0.000000 0.000000
# 5 0.000000 0.000000 0.000000 0.000000 -0.047937 0.000000
# 6 0.000000 0.000000 0.000000 0.000000 0.000000 0.101221
#
#
# Mechanical properties :
#
#
# Convention : Reuss Voigt Hill
#
# Bulk Modulus (GPa) = 19.04649 28.01353 23.53001
# Shear Modulus (GPa) = 30.74140 16.95221 23.84680
#
# Velocity S-wave (km/s) = 3.81294 2.83147 3.35825
# Velocity P-wave (km/s) = 5.32845 4.89265 5.11519
#
# Compressibility (1/GPa) = 0.05250310
#
# Stress axis : x y z
#
# Youngs Moduli (GPa) = 78.12654 94.51117 31.39158
#
# Poissons Ratio (x) = 0.27852 -0.02758
# Poissons Ratio (y) = 0.23024 -0.02203
# Poissons Ratio (z) = -0.06864 -0.06634
#
# Static dielectric constant tensor:
#      x y z
#    x 1.798620 0.000000 0.000000 
#    y 0.000000 1.787020 0.000000 
#    z 0.000000 0.000000 1.774120 
# 
# From -- ./inp_files/47970.got.cif
#   From: 2010.05.17/outbox.cif.g08.bks.cpg/sg63_24_cif.got.tgz:47970.got - 2010.06.03 15:47:04.
