data_PCOD9473752
_publ_section_title
;
Structure prediction by ZEFSAII (Michael W. Deem and Ramdas Pophale) SiO2 
 PCOD9473752
Probable space group: C M C M
;
_chemical_formula_sum "Si O2"
_cell_formula_units_Z 96
_cell_length_a 14.810339
_cell_length_b 24.378406
_cell_length_c 13.737753
_cell_angle_alpha 90.000000
_cell_angle_beta 90.000000
_cell_angle_gamma 90.000000
_cell_volume 4960.049476
_symmetry_space_group_name_H-M "C M C M"
_symmetry_group_IT_number 63
_symmetry_cell_setting 'orthorhombic'
loop_
_space_group_symop_operation_xyz
x,y,z
-x,-y,1/2+z
x,-y,-z
-x,y,1/2-z
-x,-y,-z
x,y,1/2-z
-x,y,z
x,-y,1/2+z
1/2+x,1/2+y,z
1/2-x,1/2-y,1/2+z
1/2+x,1/2-y,-z
1/2-x,1/2+y,1/2-z
1/2-x,1/2-y,-z
1/2+x,1/2+y,1/2-z
1/2-x,1/2+y,z
1/2+x,1/2-y,1/2+z
loop_
_atom_site_type_symbol
_atom_site_label
_atom_site_fract_x
_atom_site_fract_y
_atom_site_fract_z
Si Si1 0.607735 0.259666 0.137862
Si Si2 0.598249 0.042327 0.410997
Si Si3 0.789018 0.863859 0.054991
Si Si4 0.207200 0.926017 0.640157
Si Si5 0.099855 0.339305 0.010575
Si Si6 0.602291 0.533813 0.632882
O O1 0.637974 0.250780 0.250000
O O2 0.500000 0.267604 0.140993
O O3 0.652247 0.313128 0.091027
O O4 0.623508 0.208022 0.067187
O O5 0.500000 0.030740 0.363255
O O6 0.694125 0.044606 0.357685
O O7 0.591981 0.103467 0.453661
O O8 0.606803 0.000000 0.500000
O O9 0.828135 0.919314 0.101167
O O10 0.792468 0.877639 0.939271
O O11 0.685267 0.849172 0.079778
O O12 0.185911 0.907919 0.750000
O O13 0.137667 0.973228 0.606682
O O14 0.000000 0.327313 0.052741
O O15 0.600109 0.534624 0.750000
O O16 0.500000 0.544299 0.597767
#
# Coordination Sequence:
#
# PCOD9473752 Si02
#       6
#    16  16  16  16  16  16
#     4  10  21  37  58  84 111 141 184 235 280 325
#     4   9  17  32  55  80 106 138 176 219 270 327
#     4  11  20  34  57  82 107 144 188 232 276 320
#     4  10  21  34  50  79 116 150 186 226 274 332
#     4   9  19  34  52  77 109 141 173 215 269 324
#     4  10  21  37  57  81 109 143 185 233 283 331
#
# _framework density 19.354645000000001
#
# number of rings (size 3 to 8) (size 9 to 14) (size 15 to 20)
#    0.000    2.167    0.000    4.000    0.000    6.333 
#    0.000    3.333    0.000    3.000    0.000    4.667 
#    0.000    0.000    0.000    0.000    0.000    0.000 
#
# Total GULP energy -267466.393823 kJ/mol
# GULP energy per Si atom -5572.216538 kJ/mol
# Density = 1.931059 g / cm^3
# Si number density = 19.354645 Si / 1000 Ang^3
#
#
#
# Elastic Constant Matrix: (Units=GPa)
#
#
# Indices 1 2 3 4 5 6 
#
# 1 84.4585 12.0979 9.2796 0.0000 0.0000 0.0000
# 2 12.0979 74.5193 8.1739 0.0000 0.0000 0.0000
# 3 9.2796 8.1739 25.8481 0.0000 0.0000 0.0000
# 4 0.0000 0.0000 0.0000 18.2031 0.0000 0.0000
# 5 0.0000 0.0000 0.0000 0.0000 -5.5360 0.0000
# 6 0.0000 0.0000 0.0000 0.0000 0.0000 33.6679
#
#
#
# Elastic Compliance Matrix: (Units=1/GPa)
#
#
# Indices 1 2 3 4 5 6 
#
# 1 0.012506 -0.001593 -0.003986 0.000000 0.000000 0.000000
# 2 -0.001593 0.014104 -0.003888 0.000000 0.000000 0.000000
# 3 -0.003986 -0.003888 0.041348 0.000000 0.000000 0.000000
# 4 0.000000 0.000000 0.000000 0.054936 0.000000 0.000000
# 5 0.000000 0.000000 0.000000 0.000000 -0.180636 0.000000
# 6 0.000000 0.000000 0.000000 0.000000 0.000000 0.029702
#
#
# Mechanical properties :
#
#
# Convention : Reuss Voigt Hill
#
# Bulk Modulus (GPa) = 20.39815 27.10320 23.75068
# Shear Modulus (GPa) = 690.94994 19.61863 355.28429
#
# Velocity S-wave (km/s) = 18.91479 3.18722 13.56333
# Velocity P-wave (km/s) = 22.08139 5.25151 16.04940
#
# Compressibility (1/GPa) = 0.04902406
#
# Stress axis : x y z
#
# Youngs Moduli (GPa) = 79.95978 70.89950 24.18482
#
# Poissons Ratio (x) = 0.11295 0.09640
# Poissons Ratio (y) = 0.12739 0.09404
# Poissons Ratio (z) = 0.31872 0.27568
#
# Static dielectric constant tensor:
#      x y z
#    x 1.760030 0.000000 0.000000 
#    y 0.000000 1.634220 0.000000 
#    z 0.000000 0.000000 1.794910 
# 
# From -- ./inp_files/31869.got.cif
#   From: 2010.05.17/outbox.cif.g08.bks.cpg/sg63_16_cif.got.tgz:31869.got - 2010.06.03 15:47:04.
