data_PCOD9473650
_publ_section_title
;
Structure prediction by ZEFSAII (Michael W. Deem and Ramdas Pophale) SiO2 
 PCOD9473650
Probable space group: C M C M
;
_chemical_formula_sum "Si O2"
_cell_formula_units_Z 64
_cell_length_a 23.926230
_cell_length_b 7.709738
_cell_length_c 16.335795
_cell_angle_alpha 90.000000
_cell_angle_beta 90.000000
_cell_angle_gamma 90.000000
_cell_volume 3013.381847
_symmetry_space_group_name_H-M "C M C M"
_symmetry_group_IT_number 63
_symmetry_cell_setting 'orthorhombic'
loop_
_space_group_symop_operation_xyz
x,y,z
-x,-y,1/2+z
x,-y,-z
-x,y,1/2-z
-x,-y,-z
x,y,1/2-z
-x,y,z
x,-y,1/2+z
1/2+x,1/2+y,z
1/2-x,1/2-y,1/2+z
1/2+x,1/2-y,-z
1/2-x,1/2+y,1/2-z
1/2-x,1/2-y,-z
1/2+x,1/2+y,1/2-z
1/2-x,1/2+y,z
1/2+x,1/2-y,1/2+z
loop_
_atom_site_type_symbol
_atom_site_label
_atom_site_fract_x
_atom_site_fract_y
_atom_site_fract_z
Si Si1 0.680796 0.240195 0.250000
Si Si2 0.879053 0.723376 0.085359
Si Si3 0.500000 0.728605 0.157337
Si Si4 0.622581 0.190838 0.593084
Si Si5 0.189076 0.322831 0.250000
Si Si6 0.000000 0.881251 0.417264
O O1 0.651091 0.298416 0.334406
O O2 0.745208 0.292740 0.250000
O O3 0.678440 0.029940 0.250000
O O4 0.870442 0.516457 0.087476
O O5 0.944471 0.768390 0.088075
O O6 0.861039 0.776313 0.993417
O O7 0.500000 0.796922 0.250000
O O8 0.442897 0.781810 0.112597
O O9 0.500000 0.520869 0.155032
O O10 0.659440 0.252318 0.669279
O O11 0.000000 0.000000 0.500000
#
# Coordination Sequence:
#
# PCOD9473650 Si02
#       6
#     8  16   8  16   8   8
#     4  10  24  41  60  85 117 154 206 242 295 340
#     4  10  22  40  60  87 120 159 192 242 291 358
#     4  12  23  35  57  94 120 156 189 244 299 355
#     4  10  20  40  65  83 118 158 203 236 290 355
#     4  10  22  41  60  89 113 154 204 252 287 352
#     4  12  23  37  56  93 130 149 192 238 306 356
#
# _framework density 21.238596000000001
#
# number of rings (size 3 to 8) (size 9 to 14) (size 15 to 20)
#    0.000    1.500    3.750    0.750    1.750    5.000 
#    0.000    0.000    0.000    0.000    0.000    0.000 
#    0.000    0.000    0.000    0.000    0.000    0.000 
#
# Total GULP energy -178687.549698 kJ/mol
# GULP energy per Si atom -5583.985928 kJ/mol
# Density = 2.119026 g / cm^3
# Si number density = 21.238596 Si / 1000 Ang^3
#
#
#
# Elastic Constant Matrix: (Units=GPa)
#
#
# Indices 1 2 3 4 5 6 
#
# 1 138.7296 -10.3381 109.4706 0.0000 0.0000 0.0000
# 2 -10.3381 25.7010 13.6921 0.0000 0.0000 0.0000
# 3 109.4706 13.6921 242.7353 0.0000 0.0000 0.0000
# 4 0.0000 0.0000 0.0000 13.2237 0.0000 0.0000
# 5 0.0000 0.0000 0.0000 0.0000 6.3942 0.0000
# 6 0.0000 0.0000 0.0000 0.0000 0.0000 31.0258
#
#
#
# Elastic Compliance Matrix: (Units=1/GPa)
#
#
# Indices 1 2 3 4 5 6 
#
# 1 0.012752 0.008447 -0.006227 0.000000 0.000000 0.000000
# 2 0.008447 0.045710 -0.006388 0.000000 0.000000 0.000000
# 3 -0.006227 -0.006388 0.007288 0.000000 0.000000 0.000000
# 4 0.000000 0.000000 0.000000 0.075622 0.000000 0.000000
# 5 0.000000 0.000000 0.000000 0.000000 0.156391 0.000000
# 6 0.000000 0.000000 0.000000 0.000000 0.000000 0.032231
#
#
# Mechanical properties :
#
#
# Convention : Reuss Voigt Hill
#
# Bulk Modulus (GPa) = 17.41757 70.31280 43.86519
# Shear Modulus (GPa) = 13.98727 29.75151 21.86939
#
# Velocity S-wave (km/s) = 2.56906 3.74682 3.21238
# Velocity P-wave (km/s) = 4.12539 7.20390 5.87005
#
# Compressibility (1/GPa) = 0.05741330
#
# Stress axis : x y z
#
# Youngs Moduli (GPa) = 78.42131 21.87719 137.20309
#
# Poissons Ratio (x) = -0.18479 0.85440
# Poissons Ratio (y) = -0.66241 0.87642
# Poissons Ratio (z) = 0.48835 0.13975
#
# Static dielectric constant tensor:
#      x y z
#    x 1.708390 0.000000 0.000000 
#    y 0.000000 1.770550 0.000000 
#    z 0.000000 0.000000 1.840220 
# 
# From -- ./inp_files/36257.got.cif
#   From: 2010.05.17/outbox.cif.g08.bks.cpg/sg63_19_cif.got.tgz:36257.got - 2010.06.03 15:47:04.
