data_PCOD9473649
_publ_section_title
;
Structure prediction by ZEFSAII (Michael W. Deem and Ramdas Pophale) SiO2 
 PCOD9473649
Probable space group: C M C M
;
_chemical_formula_sum "Si O2"
_cell_formula_units_Z 64
_cell_length_a 12.429938
_cell_length_b 15.600521
_cell_length_c 16.253662
_cell_angle_alpha 90.000000
_cell_angle_beta 90.000000
_cell_angle_gamma 90.000000
_cell_volume 3151.804629
_symmetry_space_group_name_H-M "C M C M"
_symmetry_group_IT_number 63
_symmetry_cell_setting 'orthorhombic'
loop_
_space_group_symop_operation_xyz
x,y,z
-x,-y,1/2+z
x,-y,-z
-x,y,1/2-z
-x,-y,-z
x,y,1/2-z
-x,y,z
x,-y,1/2+z
1/2+x,1/2+y,z
1/2-x,1/2-y,1/2+z
1/2+x,1/2-y,-z
1/2-x,1/2+y,1/2-z
1/2-x,1/2-y,-z
1/2+x,1/2+y,1/2-z
1/2-x,1/2+y,z
1/2+x,1/2-y,1/2+z
loop_
_atom_site_type_symbol
_atom_site_label
_atom_site_fract_x
_atom_site_fract_y
_atom_site_fract_z
Si Si1 0.875667 0.488224 0.098107
Si Si2 0.234281 0.826559 0.150468
Si Si3 0.290817 0.631288 0.347228
Si Si4 0.000000 0.953397 0.912629
Si Si5 0.000000 0.131929 0.656273
O O1 0.813545 0.400063 0.118391
O O2 0.808508 0.567251 0.136005
O O3 0.000000 0.486199 0.126534
O O4 0.875324 0.500000 0.000000
O O5 0.232093 0.836236 0.250000
O O6 0.266872 0.729660 0.131560
O O7 0.112869 0.840293 0.117974
O O8 0.316454 0.627110 0.250000
O O9 0.392535 0.599723 0.398770
O O10 0.000000 0.029537 0.845904
O O11 0.000000 0.000000 0.000000
O O12 0.000000 0.164820 0.750000
#
# Coordination Sequence:
#
# PCOD9473649 Si02
#       5
#    16  16  16   8   8
#     4  11  25  44  62  93 134 174 214 263 326 387
#     4  10  23  41  66  96 129 170 219 271 322 382
#     4  11  24  42  67  96 127 170 219 270 322 385
#     4  12  24  42  64  97 127 168 215 266 331 385
#     4  10  20  40  64  91 127 165 212 270 318 375
#
# _framework density 20.305826
#
# number of rings (size 3 to 8) (size 9 to 14) (size 15 to 20)
#    0.000    1.250    2.500    2.625    3.500    3.000 
#    0.000    0.000    0.000    0.000    0.000    0.000 
#    0.000    0.000    0.000    0.000    0.000    0.000 
#
# Total GULP energy -178891.414659 kJ/mol
# GULP energy per Si atom -5590.356708 kJ/mol
# Density = 2.025961 g / cm^3
# Si number density = 20.305826 Si / 1000 Ang^3
#
#
#
# Elastic Constant Matrix: (Units=GPa)
#
#
# Indices 1 2 3 4 5 6 
#
# 1 224.9888 119.8965 43.0549 0.0000 0.0000 0.0000
# 2 119.8965 190.6832 43.7610 0.0000 0.0000 0.0000
# 3 43.0549 43.7610 49.9563 0.0000 0.0000 0.0000
# 4 0.0000 0.0000 0.0000 -6.1612 0.0000 0.0000
# 5 0.0000 0.0000 0.0000 0.0000 32.7583 0.0000
# 6 0.0000 0.0000 0.0000 0.0000 0.0000 18.7848
#
#
#
# Elastic Compliance Matrix: (Units=1/GPa)
#
#
# Indices 1 2 3 4 5 6 
#
# 1 0.006966 -0.003758 -0.002712 0.000000 0.000000 0.000000
# 2 -0.003758 0.008591 -0.004287 0.000000 0.000000 0.000000
# 3 -0.002712 -0.004287 0.026110 0.000000 0.000000 0.000000
# 4 0.000000 0.000000 0.000000 -0.162306 0.000000 0.000000
# 5 0.000000 0.000000 0.000000 0.000000 0.030527 0.000000
# 6 0.000000 0.000000 0.000000 0.000000 0.000000 0.053235
#
#
# Mechanical properties :
#
#
# Convention : Reuss Voigt Hill
#
# Bulk Modulus (GPa) = 49.61840 97.67256 73.64548
# Shear Modulus (GPa) = -578.27528 26.33745 -275.96892
#
# Velocity S-wave (km/s) = -16.89382 3.60535 -11.67053
# Velocity P-wave (km/s) = 18.86919 8.09547 12.05217
#
# Compressibility (1/GPa) = 0.02015381
#
# Stress axis : x y z
#
# Youngs Moduli (GPa) = 143.55140 116.40264 38.29929
#
# Poissons Ratio (x) = 0.43741 0.10387
# Poissons Ratio (y) = 0.53943 0.16418
# Poissons Ratio (z) = 0.38932 0.49900
#
# Static dielectric constant tensor:
#      x y z
#    x 1.695570 0.000000 0.000000 
#    y 0.000000 1.691180 0.000000 
#    z 0.000000 0.000000 1.758640 
# 
# From -- ./inp_files/41521.got.cif
#   From: 2010.05.17/outbox.cif.g08.bks.cpg/sg63_21_cif.got.tgz:41521.got - 2010.06.03 15:47:04.
