data_PCOD9473130
_publ_section_title
;
Structure prediction by ZEFSAII (Michael W. Deem and Ramdas Pophale) SiO2 
 PCOD9473130
Probable space group: C M C M
;
_chemical_formula_sum "Si O2"
_cell_formula_units_Z 80
_cell_length_a 36.545048
_cell_length_b 4.978231
_cell_length_c 25.219958
_cell_angle_alpha 90.000000
_cell_angle_beta 90.000000
_cell_angle_gamma 90.000000
_cell_volume 4588.259162
_symmetry_space_group_name_H-M "C M C M"
_symmetry_group_IT_number 63
_symmetry_cell_setting 'orthorhombic'
loop_
_space_group_symop_operation_xyz
x,y,z
-x,-y,1/2+z
x,-y,-z
-x,y,1/2-z
-x,-y,-z
x,y,1/2-z
-x,y,z
x,-y,1/2+z
1/2+x,1/2+y,z
1/2-x,1/2-y,1/2+z
1/2+x,1/2-y,-z
1/2-x,1/2+y,1/2-z
1/2-x,1/2-y,-z
1/2+x,1/2+y,1/2-z
1/2-x,1/2+y,z
1/2+x,1/2-y,1/2+z
loop_
_atom_site_type_symbol
_atom_site_label
_atom_site_fract_x
_atom_site_fract_y
_atom_site_fract_z
Si Si1 0.417315 0.787374 0.645485
Si Si2 0.542574 0.721461 0.188773
Si Si3 0.845136 0.519903 0.622623
Si Si4 0.225861 0.319097 0.187494
Si Si5 0.129335 0.947035 0.438052
O O1 0.432764 0.538910 0.678256
O O2 0.408121 0.676890 0.586518
O O3 0.444513 0.035300 0.651685
O O4 0.376992 0.900285 0.661017
O O5 0.546712 0.809019 0.250000
O O6 0.500000 0.654556 0.180083
O O7 0.808713 0.597511 0.652929
O O8 0.841421 0.281720 0.579301
O O9 0.861388 0.781282 0.593478
O O10 0.216873 0.343242 0.250000
O O11 0.259615 0.520570 0.177078
O O12 0.128054 0.000000 0.500000
#
# Coordination Sequence:
#
# PCOD9473130 Si02
#       5
#    16  16  16  16  16
#     4  10  20  37  56  85 104 147 188 229 267 320
#     4  11  22  36  54  80 119 153 175 214 276 335
#     4  10  20  36  58  87 104 146 184 234 266 322
#     4  10  21  36  55  80 116 153 177 213 275 333
#     4  10  20  37  60  82 106 140 185 239 289 316
#
# _framework density 17.435808000000002
#
# number of rings (size 3 to 8) (size 9 to 14) (size 15 to 20)
#    1.200    0.600    2.000    3.000    0.000    3.200 
#    0.000    0.000    0.000   15.600    0.000    0.000 
#    0.000    0.000    0.000    0.000    0.000    0.000 
#
# Total GULP energy -222674.603664 kJ/mol
# GULP energy per Si atom -5566.865092 kJ/mol
# Density = 1.739612 g / cm^3
# Si number density = 17.435808 Si / 1000 Ang^3
#
#
#
# Elastic Constant Matrix: (Units=GPa)
#
#
# Indices 1 2 3 4 5 6 
#
# 1 65.1603 13.1136 46.5310 0.0000 0.0000 0.0000
# 2 13.1136 102.4178 24.7916 0.0000 0.0000 0.0000
# 3 46.5310 24.7916 65.9708 0.0000 0.0000 0.0000
# 4 0.0000 0.0000 0.0000 21.0351 0.0000 0.0000
# 5 0.0000 0.0000 0.0000 0.0000 25.1652 0.0000
# 6 0.0000 0.0000 0.0000 0.0000 0.0000 17.2643
#
#
#
# Elastic Compliance Matrix: (Units=1/GPa)
#
#
# Indices 1 2 3 4 5 6 
#
# 1 0.031118 0.001462 -0.022498 0.000000 0.000000 0.000000
# 2 0.001462 0.010810 -0.005093 0.000000 0.000000 0.000000
# 3 -0.022498 -0.005093 0.032941 0.000000 0.000000 0.000000
# 4 0.000000 0.000000 0.000000 0.047540 0.000000 0.000000
# 5 0.000000 0.000000 0.000000 0.000000 0.039737 0.000000
# 6 0.000000 0.000000 0.000000 0.000000 0.000000 0.057923
#
#
# Mechanical properties :
#
#
# Convention : Reuss Voigt Hill
#
# Bulk Modulus (GPa) = 44.22879 44.71347 44.47113
# Shear Modulus (GPa) = 17.86582 22.63376 20.24979
#
# Velocity S-wave (km/s) = 3.20451 3.60685 3.41162
# Velocity P-wave (km/s) = 6.25408 6.56096 6.40936
#
# Compressibility (1/GPa) = 0.02260970
#
# Stress axis : x y z
#
# Youngs Moduli (GPa) = 32.13535 92.51002 30.35774
#
# Poissons Ratio (x) = -0.13521 0.68298
# Poissons Ratio (y) = -0.04697 0.15461
# Poissons Ratio (z) = 0.72298 0.47116
#
# Static dielectric constant tensor:
#      x y z
#    x 1.591740 0.000000 0.000000 
#    y 0.000000 1.616370 0.000000 
#    z 0.000000 0.000000 1.580180 
# 
# From -- ./inp_files/65644.got.cif
#   From: 2010.05.17/outbox.cif.g08.bks.cpg/sg63_33_cif.got.tgz:65644.got - 2010.06.03 15:47:04.
