data_PCOD9473209
_publ_section_title
;
Structure prediction by ZEFSAII (Michael W. Deem and Ramdas Pophale) SiO2 
 PCOD9473209
Probable space group: C M C M
;
_chemical_formula_sum "Si O2"
_cell_formula_units_Z 64
_cell_length_a 17.249287
_cell_length_b 9.623856
_cell_length_c 20.762645
_cell_angle_alpha 90.000000
_cell_angle_beta 90.000000
_cell_angle_gamma 90.000000
_cell_volume 3446.695703
_symmetry_space_group_name_H-M "C M C M"
_symmetry_group_IT_number 63
_symmetry_cell_setting 'orthorhombic'
loop_
_space_group_symop_operation_xyz
x,y,z
-x,-y,1/2+z
x,-y,-z
-x,y,1/2-z
-x,-y,-z
x,y,1/2-z
-x,y,z
x,-y,1/2+z
1/2+x,1/2+y,z
1/2-x,1/2-y,1/2+z
1/2+x,1/2-y,-z
1/2-x,1/2+y,1/2-z
1/2-x,1/2-y,-z
1/2+x,1/2+y,1/2-z
1/2-x,1/2+y,z
1/2+x,1/2-y,1/2+z
loop_
_atom_site_type_symbol
_atom_site_label
_atom_site_fract_x
_atom_site_fract_y
_atom_site_fract_z
Si Si1 0.091691 0.896644 0.081809
Si Si2 0.592995 0.154107 0.322893
Si Si3 0.667790 0.977172 0.431371
Si Si4 0.674249 0.654430 0.445579
O O1 0.112625 0.798643 0.141328
O O2 0.140196 0.849711 0.018605
O O3 0.000000 0.883251 0.068517
O O4 0.114001 0.942890 0.907184
O O5 0.623001 0.146561 0.250000
O O6 0.500000 0.146753 0.320621
O O7 0.623390 0.034650 0.369901
O O8 0.682992 0.813205 0.425181
O O9 0.624622 0.000000 0.500000
O O10 0.744890 0.072043 0.438961
#
# Coordination Sequence:
#
# PCOD9473209 Si02
#       4
#    16  16  16  16
#     4  10  20  36  60  88 120 155 192 240 296 351
#     4  10  23  42  60  84 121 160 197 242 301 363
#     4  12  21  36  62  87 121 156 196 248 300 343
#     4  11  21  35  59  91 121 148 193 250 292 346
#
# _framework density 18.568508999999999
#
# number of rings (size 3 to 8) (size 9 to 14) (size 15 to 20)
#    0.000    1.250    5.000    3.750    0.000    2.500 
#    0.000    6.250    0.000    3.000    0.000    0.000 
#    0.000    0.000    0.000    0.000    0.000    0.000 
#
# Total GULP energy -178528.590553 kJ/mol
# GULP energy per Si atom -5579.018455 kJ/mol
# Density = 1.852625 g / cm^3
# Si number density = 18.568509 Si / 1000 Ang^3
#
#
#
# Elastic Constant Matrix: (Units=GPa)
#
#
# Indices 1 2 3 4 5 6 
#
# 1 43.5221 32.4912 39.6970 0.0000 0.0000 0.0000
# 2 32.4912 192.8530 75.6574 0.0000 0.0000 0.0000
# 3 39.6970 75.6574 141.6896 0.0000 0.0000 0.0000
# 4 0.0000 0.0000 0.0000 23.0876 0.0000 0.0000
# 5 0.0000 0.0000 0.0000 0.0000 12.2852 0.0000
# 6 0.0000 0.0000 0.0000 0.0000 0.0000 28.8161
#
#
#
# Elastic Compliance Matrix: (Units=1/GPa)
#
#
# Indices 1 2 3 4 5 6 
#
# 1 0.031682 -0.002347 -0.007623 0.000000 0.000000 0.000000
# 2 -0.002347 0.006733 -0.002938 0.000000 0.000000 0.000000
# 3 -0.007623 -0.002938 0.010762 0.000000 0.000000 0.000000
# 4 0.000000 0.000000 0.000000 0.043313 0.000000 0.000000
# 5 0.000000 0.000000 0.000000 0.000000 0.081398 0.000000
# 6 0.000000 0.000000 0.000000 0.000000 0.000000 0.034703
#
#
# Mechanical properties :
#
#
# Convention : Reuss Voigt Hill
#
# Bulk Modulus (GPa) = 42.80524 74.86175 58.83349
# Shear Modulus (GPa) = 20.64452 28.18573 24.41513
#
# Velocity S-wave (km/s) = 3.33799 3.90029 3.63004
# Velocity P-wave (km/s) = 6.16108 7.79019 7.02303
#
# Compressibility (1/GPa) = 0.02336163
#
# Stress axis : x y z
#
# Youngs Moduli (GPa) = 31.56352 148.51740 92.91899
#
# Poissons Ratio (x) = 0.34859 0.70833
# Poissons Ratio (y) = 0.07408 0.27297
# Poissons Ratio (z) = 0.24061 0.43630
#
# Static dielectric constant tensor:
#      x y z
#    x 1.681920 0.000000 0.000000 
#    y 0.000000 1.675490 0.000000 
#    z 0.000000 0.000000 1.647130 
# 
# From -- ./inp_files/45147.got.cif
#   From: 2010.05.17/outbox.cif.g08.bks.cpg/sg63_23_cif.got.tgz:45147.got - 2010.06.03 15:47:04.
