data_PCOD9473359
_publ_section_title
;
Structure prediction by ZEFSAII (Michael W. Deem and Ramdas Pophale) SiO2 
 PCOD9473359
Probable space group: C M C M
;
_chemical_formula_sum "Si O2"
_cell_formula_units_Z 96
_cell_length_a 14.541438
_cell_length_b 21.996566
_cell_length_c 15.225905
_cell_angle_alpha 90.000000
_cell_angle_beta 90.000000
_cell_angle_gamma 90.000000
_cell_volume 4870.183868
_symmetry_space_group_name_H-M "C M C M"
_symmetry_group_IT_number 63
_symmetry_cell_setting 'orthorhombic'
loop_
_space_group_symop_operation_xyz
x,y,z
-x,-y,1/2+z
x,-y,-z
-x,y,1/2-z
-x,-y,-z
x,y,1/2-z
-x,y,z
x,-y,1/2+z
1/2+x,1/2+y,z
1/2-x,1/2-y,1/2+z
1/2+x,1/2-y,-z
1/2-x,1/2+y,1/2-z
1/2-x,1/2-y,-z
1/2+x,1/2+y,1/2-z
1/2-x,1/2+y,z
1/2+x,1/2-y,1/2+z
loop_
_atom_site_type_symbol
_atom_site_label
_atom_site_fract_x
_atom_site_fract_y
_atom_site_fract_z
Si Si1 0.223464 0.632473 0.148776
Si Si2 0.204011 0.498504 0.106488
Si Si3 0.389852 0.207275 0.012354
Si Si4 0.610589 0.126349 0.847001
Si Si5 0.393219 0.652040 0.025938
Si Si6 0.100340 0.038630 0.909352
O O1 0.234117 0.648315 0.250000
O O2 0.179340 0.565357 0.139292
O O3 0.161671 0.680014 0.095695
O O4 0.321587 0.630516 0.099176
O O5 0.141910 0.442670 0.136678
O O6 0.308229 0.483968 0.137389
O O7 0.203047 0.500000 0.000000
O O8 0.500000 0.199329 0.021296
O O9 0.357682 0.169087 0.926789
O O10 0.372612 0.278430 0.997857
O O11 0.642575 0.146127 0.750000
O O12 0.500000 0.128814 0.847422
O O13 0.500000 0.647825 0.055147
O O14 0.384663 0.607559 0.942402
O O15 0.000000 0.032821 0.866377
O O16 0.095690 0.000000 0.000000
#
# Coordination Sequence:
#
# PCOD9473359 Si02
#       6
#    16  16  16  16  16  16
#     4  12  24  37  57  89 123 156 196 239 292 350
#     4  11  19  35  58  84 115 154 193 240 288 347
#     4  10  22  40  61  85 117 156 196 240 290 347
#     4  10  21  37  58  83 112 149 195 244 293 344
#     4  10  20  37  60  86 114 149 195 242 291 345
#     4   9  16  31  59  85 108 146 189 232 287 342
#
# _framework density 19.711780999999998
#
# number of rings (size 3 to 8) (size 9 to 14) (size 15 to 20)
#    0.000    1.667    5.000    1.000    0.000    2.333 
#    0.000    1.667    0.000    2.500    0.000    4.667 
#    0.000    0.000    0.000    0.000    0.000    0.000 
#
# Total GULP energy -268016.896977 kJ/mol
# GULP energy per Si atom -5583.685354 kJ/mol
# Density = 1.966692 g / cm^3
# Si number density = 19.711781 Si / 1000 Ang^3
#
#
#
# Elastic Constant Matrix: (Units=GPa)
#
#
# Indices 1 2 3 4 5 6 
#
# 1 18.6725 6.2104 7.4826 0.0000 0.0000 0.0000
# 2 6.2104 106.8554 4.4656 0.0000 0.0000 0.0000
# 3 7.4826 4.4656 61.3297 0.0000 0.0000 0.0000
# 4 0.0000 0.0000 0.0000 1.3183 0.0000 0.0000
# 5 0.0000 0.0000 0.0000 0.0000 6.7824 0.0000
# 6 0.0000 0.0000 0.0000 0.0000 0.0000 32.2684
#
#
#
# Elastic Compliance Matrix: (Units=1/GPa)
#
#
# Indices 1 2 3 4 5 6 
#
# 1 0.057280 -0.003046 -0.006767 0.000000 0.000000 0.000000
# 2 -0.003046 0.009549 -0.000324 0.000000 0.000000 0.000000
# 3 -0.006767 -0.000324 0.017154 0.000000 0.000000 0.000000
# 4 0.000000 0.000000 0.000000 0.758548 0.000000 0.000000
# 5 0.000000 0.000000 0.000000 0.000000 0.147441 0.000000
# 6 0.000000 0.000000 0.000000 0.000000 0.000000 0.030990
#
#
# Mechanical properties :
#
#
# Convention : Reuss Voigt Hill
#
# Bulk Modulus (GPa) = 15.69615 24.79720 20.24667
# Shear Modulus (GPa) = 4.70601 19.32042 12.01321
#
# Velocity S-wave (km/s) = 1.54680 3.13412 2.47137
# Velocity P-wave (km/s) = 3.34219 5.06993 4.29386
#
# Compressibility (1/GPa) = 0.06370990
#
# Stress axis : x y z
#
# Youngs Moduli (GPa) = 17.45822 104.72284 58.29390
#
# Poissons Ratio (x) = 0.31902 0.39446
# Poissons Ratio (y) = 0.05318 0.01887
# Poissons Ratio (z) = 0.11813 0.03389
#
# Static dielectric constant tensor:
#      x y z
#    x 1.719260 0.000000 0.000000 
#    y 0.000000 1.684020 0.000000 
#    z 0.000000 0.000000 1.687190 
# 
# From -- ./inp_files/31906.got.cif
#   From: 2010.05.17/outbox.cif.g08.bks.cpg/sg63_16_cif.got.tgz:31906.got - 2010.06.03 15:47:04.
