data_PCOD9473316
_publ_section_title
;
Structure prediction by ZEFSAII (Michael W. Deem and Ramdas Pophale) SiO2 
 PCOD9473316
Probable space group: C M C M
;
_chemical_formula_sum "Si O2"
_cell_formula_units_Z 72
_cell_length_a 14.600803
_cell_length_b 9.349080
_cell_length_c 26.636518
_cell_angle_alpha 90.000000
_cell_angle_beta 90.000000
_cell_angle_gamma 90.000000
_cell_volume 3635.993259
_symmetry_space_group_name_H-M "C M C M"
_symmetry_group_IT_number 63
_symmetry_cell_setting 'orthorhombic'
loop_
_space_group_symop_operation_xyz
x,y,z
-x,-y,1/2+z
x,-y,-z
-x,y,1/2-z
-x,-y,-z
x,y,1/2-z
-x,y,z
x,-y,1/2+z
1/2+x,1/2+y,z
1/2-x,1/2-y,1/2+z
1/2+x,1/2-y,-z
1/2-x,1/2+y,1/2-z
1/2-x,1/2-y,-z
1/2+x,1/2+y,1/2-z
1/2-x,1/2+y,z
1/2+x,1/2-y,1/2+z
loop_
_atom_site_type_symbol
_atom_site_label
_atom_site_fract_x
_atom_site_fract_y
_atom_site_fract_z
Si Si1 0.801369 0.346742 0.874476
Si Si2 0.300165 0.870313 0.189988
Si Si3 0.322772 0.651316 0.028633
Si Si4 0.500000 0.854631 0.464800
Si Si5 0.500000 0.871701 0.309497
Si Si6 0.500000 0.088722 0.114649
O O1 0.775205 0.210624 0.842075
O O2 0.802009 0.473636 0.834139
O O3 0.726131 0.374666 0.917554
O O4 0.904031 0.336990 0.897624
O O5 0.285985 0.869199 0.250000
O O6 0.401269 0.805065 0.177597
O O7 0.412770 0.751026 0.030719
O O8 0.337148 0.500000 0.000000
O O9 0.250000 0.750000 0.000000
O O10 0.500000 0.000000 0.500000
O O11 0.500000 0.932912 0.411297
O O12 0.500000 0.875118 0.250000
O O13 0.500000 0.037094 0.327909
#
# Coordination Sequence:
#
# PCOD9473316 Si02
#       6
#    16  16  16   8   8   8
#     4  11  22  38  61  87 120 160 203 252 306 370
#     4  10  20  37  60  88 119 158 204 253 305 366
#     4  12  24  41  64  95 129 165 206 254 314 379
#     4  12  25  43  66  89 120 163 212 263 313 370
#     4   8  16  32  56  81 110 149 193 235 289 358
#     4  10  20  37  58  84 115 156 201 246 302 364
#
# _framework density 19.802016999999999
#
# number of rings (size 3 to 8) (size 9 to 14) (size 15 to 20)
#    0.000    1.333    0.000    8.333    0.000    0.889 
#    0.000    4.444    0.000    0.000    0.000    0.000 
#    0.000    0.000    0.000    0.000    0.000    0.000 
#
# Total GULP energy -200622.995637 kJ/mol
# GULP energy per Si atom -5572.860990 kJ/mol
# Density = 1.975695 g / cm^3
# Si number density = 19.802017 Si / 1000 Ang^3
#
#
#
# Elastic Constant Matrix: (Units=GPa)
#
#
# Indices 1 2 3 4 5 6 
#
# 1 147.0854 30.9628 25.2546 0.0000 0.0000 0.0000
# 2 30.9628 57.7263 4.5091 0.0000 0.0000 0.0000
# 3 25.2546 4.5091 73.3976 0.0000 0.0000 0.0000
# 4 0.0000 0.0000 0.0000 27.8443 0.0000 0.0000
# 5 0.0000 0.0000 0.0000 0.0000 27.1762 0.0000
# 6 0.0000 0.0000 0.0000 0.0000 0.0000 32.3494
#
#
#
# Elastic Compliance Matrix: (Units=1/GPa)
#
#
# Indices 1 2 3 4 5 6 
#
# 1 0.008108 -0.004151 -0.002535 0.000000 0.000000 0.000000
# 2 -0.004151 0.019532 0.000228 0.000000 0.000000 0.000000
# 3 -0.002535 0.000228 0.014483 0.000000 0.000000 0.000000
# 4 0.000000 0.000000 0.000000 0.035914 0.000000 0.000000
# 5 0.000000 0.000000 0.000000 0.000000 0.036797 0.000000
# 6 0.000000 0.000000 0.000000 0.000000 0.000000 0.030912
#
#
# Mechanical properties :
#
#
# Convention : Reuss Voigt Hill
#
# Bulk Modulus (GPa) = 34.23775 44.40693 39.32234
# Shear Modulus (GPa) = 29.69199 31.97283 30.83241
#
# Velocity S-wave (km/s) = 3.87646 4.02260 3.95021
# Velocity P-wave (km/s) = 6.11257 6.63696 6.38015
#
# Compressibility (1/GPa) = 0.02920753
#
# Stress axis : x y z
#
# Youngs Moduli (GPa) = 123.33862 51.19893 69.04864
#
# Poissons Ratio (x) = 0.21252 0.17502
# Poissons Ratio (y) = 0.51195 -0.01576
# Poissons Ratio (z) = 0.31263 -0.01169
#
# Static dielectric constant tensor:
#      x y z
#    x 1.787990 0.000000 0.000000 
#    y 0.000000 1.701240 0.000000 
#    z 0.000000 0.000000 1.846100 
# 
# From -- ./inp_files/69082.got.cif
#   From: 2010.05.17/outbox.cif.g08.bks.cpg/sg63_35_cif.got.tgz:69082.got - 2010.06.03 15:47:04.
