data_PCOD9473365
_publ_section_title
;
Structure prediction by ZEFSAII (Michael W. Deem and Ramdas Pophale) SiO2 
 PCOD9473365
Probable space group: C M C M
;
_chemical_formula_sum "Si O2"
_cell_formula_units_Z 100
_cell_length_a 21.070579
_cell_length_b 28.497159
_cell_length_c 8.915770
_cell_angle_alpha 90.000000
_cell_angle_beta 90.000000
_cell_angle_gamma 90.000000
_cell_volume 5353.488718
_symmetry_space_group_name_H-M "C M C M"
_symmetry_group_IT_number 63
_symmetry_cell_setting 'orthorhombic'
loop_
_space_group_symop_operation_xyz
x,y,z
-x,-y,1/2+z
x,-y,-z
-x,y,1/2-z
-x,-y,-z
x,y,1/2-z
-x,y,z
x,-y,1/2+z
1/2+x,1/2+y,z
1/2-x,1/2-y,1/2+z
1/2+x,1/2-y,-z
1/2-x,1/2+y,1/2-z
1/2-x,1/2-y,-z
1/2+x,1/2+y,1/2-z
1/2-x,1/2+y,z
1/2+x,1/2-y,1/2+z
loop_
_atom_site_type_symbol
_atom_site_label
_atom_site_fract_x
_atom_site_fract_y
_atom_site_fract_z
Si Si1 0.574207 0.721960 0.930795
Si Si2 0.425720 0.612732 0.570594
Si Si3 0.299206 0.121040 0.427821
Si Si4 0.690805 0.777482 0.070901
Si Si5 0.182713 0.948744 0.928767
Si Si6 0.869934 0.454131 0.414991
Si Si7 0.500000 0.962107 0.250000
O O1 0.579854 0.726458 0.750000
O O2 0.500000 0.731390 0.969040
O O3 0.588022 0.667299 0.969073
O O4 0.625208 0.755256 0.009444
O O5 0.416648 0.608403 0.750000
O O6 0.500000 0.604521 0.538742
O O7 0.380761 0.576565 0.487060
O O8 0.299118 0.130015 0.250000
O O9 0.300908 0.169210 0.517228
O O10 0.239607 0.087508 0.465521
O O11 0.358676 0.090218 0.480609
O O12 0.692248 0.774131 0.250000
O O13 0.750000 0.750000 0.000000
O O14 0.181198 0.953831 0.750000
O O15 0.190394 0.000000 0.000000
O O16 0.845528 0.500000 0.500000
O O17 0.838495 0.448211 0.250000
O O18 0.943463 0.460623 0.376847
#
# Coordination Sequence:
#
# PCOD9473365 Si02
#       7
#    16  16  16  16  16  16   4
#     4   9  19  39  65  92 123 159 199 245 300 357
#     4   9  19  37  62  90 120 155 193 235 286 346
#     4  11  24  42  61  88 117 154 201 251 304 354
#     4  12  25  41  63  90 121 159 201 249 301 360
#     4  11  24  39  59  86 117 154 196 242 292 348
#     4  10  20  37  60  87 119 156 196 245 294 353
#     4   8  22  36  62  88 122 152 204 244 294 360
#
# _framework density 18.679409
#
# number of rings (size 3 to 8) (size 9 to 14) (size 15 to 20)
#    0.480    1.280    0.000    5.520    0.000    8.000 
#    1.440    1.600    0.000    0.000    0.000    0.000 
#    0.000    0.000    0.000    0.000    0.000    0.000 
#
# Total GULP energy -278578.769392 kJ/mol
# GULP energy per Si atom -5571.575388 kJ/mol
# Density = 1.863689 g / cm^3
# Si number density = 18.679409 Si / 1000 Ang^3
#
#
#
# Elastic Constant Matrix: (Units=GPa)
#
#
# Indices 1 2 3 4 5 6 
#
# 1 99.6837 80.7998 61.9696 0.0000 0.0000 0.0000
# 2 80.7998 143.2043 64.1787 0.0000 0.0000 0.0000
# 3 61.9696 64.1787 85.6833 0.0000 0.0000 0.0000
# 4 0.0000 0.0000 0.0000 25.5050 0.0000 0.0000
# 5 0.0000 0.0000 0.0000 0.0000 30.1963 0.0000
# 6 0.0000 0.0000 0.0000 0.0000 0.0000 22.9763
#
#
#
# Elastic Compliance Matrix: (Units=1/GPa)
#
#
# Indices 1 2 3 4 5 6 
#
# 1 0.023564 -0.008516 -0.010663 0.000000 0.000000 0.000000
# 2 -0.008516 0.013590 -0.004019 0.000000 0.000000 0.000000
# 3 -0.010663 -0.004019 0.022394 0.000000 0.000000 0.000000
# 4 0.000000 0.000000 0.000000 0.039208 0.000000 0.000000
# 5 0.000000 0.000000 0.000000 0.000000 0.033117 0.000000
# 6 0.000000 0.000000 0.000000 0.000000 0.000000 0.043523
#
#
# Mechanical properties :
#
#
# Convention : Reuss Voigt Hill
#
# Bulk Modulus (GPa) = 76.05330 82.49638 79.27484
# Shear Modulus (GPa) = 22.10663 23.84371 22.97517
#
# Velocity S-wave (km/s) = 3.44390 3.57665 3.51090
# Velocity P-wave (km/s) = 7.52445 7.83050 7.67900
#
# Compressibility (1/GPa) = 0.01314867
#
# Stress axis : x y z
#
# Youngs Moduli (GPa) = 42.43792 73.58547 44.65544
#
# Poissons Ratio (x) = 0.62669 0.47617
# Poissons Ratio (y) = 0.36142 0.17949
# Poissons Ratio (z) = 0.45253 0.29578
#
# Static dielectric constant tensor:
#      x y z
#    x 1.651640 0.000000 0.000000 
#    y 0.000000 1.669270 0.000000 
#    z 0.000000 0.000000 1.650420 
# 
# From -- ./inp_files/8790.got.cif
#   From: 2010.05.17/outbox.cif.g08.bks.cpg/sg63_5_cif.got.tgz:8790.got - 2010.06.03 15:47:04.
