data_PCOD9473099
_publ_section_title
;
Structure prediction by ZEFSAII (Michael W. Deem and Ramdas Pophale) SiO2 
 PCOD9473099
Probable space group: C M C M
;
_chemical_formula_sum "Si O2"
_cell_formula_units_Z 112
_cell_length_a 14.034569
_cell_length_b 27.435650
_cell_length_c 15.211066
_cell_angle_alpha 90.000000
_cell_angle_beta 90.000000
_cell_angle_gamma 90.000000
_cell_volume 5856.983285
_symmetry_space_group_name_H-M "C M C M"
_symmetry_group_IT_number 63
_symmetry_cell_setting 'orthorhombic'
loop_
_space_group_symop_operation_xyz
x,y,z
-x,-y,1/2+z
x,-y,-z
-x,y,1/2-z
-x,-y,-z
x,y,1/2-z
-x,y,z
x,-y,1/2+z
1/2+x,1/2+y,z
1/2-x,1/2-y,1/2+z
1/2+x,1/2-y,-z
1/2-x,1/2+y,1/2-z
1/2-x,1/2-y,-z
1/2+x,1/2+y,1/2-z
1/2-x,1/2+y,z
1/2+x,1/2-y,1/2+z
loop_
_atom_site_type_symbol
_atom_site_label
_atom_site_fract_x
_atom_site_fract_y
_atom_site_fract_z
Si Si1 0.611241 0.864805 0.354231
Si Si2 0.271985 0.557322 0.647194
Si Si3 0.605917 0.761878 0.853992
Si Si4 0.388235 0.389311 0.997460
Si Si5 0.261636 0.698401 0.547301
Si Si6 0.222800 0.057345 0.145104
Si Si7 0.891011 0.628759 0.356792
O O1 0.617453 0.852171 0.250000
O O2 0.500000 0.869410 0.376655
O O3 0.671979 0.914417 0.365997
O O4 0.666656 0.825546 0.413592
O O5 0.298292 0.563628 0.750000
O O6 0.348056 0.581725 0.582273
O O7 0.263732 0.499944 0.629392
O O8 0.598254 0.766818 0.750000
O O9 0.500000 0.753959 0.891470
O O10 0.671730 0.716170 0.872511
O O11 0.638048 0.816206 0.884085
O O12 0.500000 0.379587 0.004247
O O13 0.324967 0.340312 0.994352
O O14 0.363209 0.421459 0.912086
O O15 0.250000 0.750000 0.500000
O O16 0.209503 0.064609 0.250000
O O17 0.315887 0.088086 0.115464
O O18 0.892092 0.627277 0.250000
O O19 0.000000 0.620518 0.386019
#
# Coordination Sequence:
#
# PCOD9473099 Si02
#       7
#    16  16  16  16  16  16  16
#     4   9  19  37  59  83 112 144 180 227 283 341
#     4   9  20  38  60  85 111 143 183 227 279 335
#     4   9  17  31  52  76 102 135 178 226 271 314
#     4  11  24  40  57  81 113 145 183 232 278 323
#     4  11  22  36  55  78 108 144 183 226 272 327
#     4  10  20  36  58  83 113 149 186 223 271 333
#     4   8  15  29  51  80 111 142 179 226 277 325
#
# _framework density 19.122471999999998
#
# number of rings (size 3 to 8) (size 9 to 14) (size 15 to 20)
#    0.000    2.429    0.000    3.000    0.000    4.000 
#    0.000    9.286    0.000    4.286    0.000    0.000 
#    0.000    0.000    0.000    0.000    0.000    0.000 
#
# Total GULP energy -312336.350751 kJ/mol
# GULP energy per Si atom -5577.434835 kJ/mol
# Density = 1.907895 g / cm^3
# Si number density = 19.122472 Si / 1000 Ang^3
#
#
#
# Elastic Constant Matrix: (Units=GPa)
#
#
# Indices 1 2 3 4 5 6 
#
# 1 129.5223 51.9430 44.4715 0.0000 0.0000 0.0000
# 2 51.9430 114.2176 48.7178 0.0000 0.0000 0.0000
# 3 44.4715 48.7178 58.8321 0.0000 0.0000 0.0000
# 4 0.0000 0.0000 0.0000 30.8227 0.0000 0.0000
# 5 0.0000 0.0000 0.0000 0.0000 21.5070 0.0000
# 6 0.0000 0.0000 0.0000 0.0000 0.0000 17.9266
#
#
#
# Elastic Compliance Matrix: (Units=1/GPa)
#
#
# Indices 1 2 3 4 5 6 
#
# 1 0.010774 -0.002205 -0.006319 0.000000 0.000000 0.000000
# 2 -0.002205 0.013987 -0.009916 0.000000 0.000000 0.000000
# 3 -0.006319 -0.009916 0.029985 0.000000 0.000000 0.000000
# 4 0.000000 0.000000 0.000000 0.032444 0.000000 0.000000
# 5 0.000000 0.000000 0.000000 0.000000 0.046496 0.000000
# 6 0.000000 0.000000 0.000000 0.000000 0.000000 0.055783
#
#
# Mechanical properties :
#
#
# Convention : Reuss Voigt Hill
#
# Bulk Modulus (GPa) = 55.96645 65.87074 60.91860
# Shear Modulus (GPa) = 21.52338 24.54724 23.03531
#
# Velocity S-wave (km/s) = 3.35857 3.58674 3.47453
# Velocity P-wave (km/s) = 6.66115 7.18850 6.92984
#
# Compressibility (1/GPa) = 0.01786785
#
# Stress axis : x y z
#
# Youngs Moduli (GPa) = 92.81267 71.49246 33.34967
#
# Poissons Ratio (x) = 0.15762 0.21073
# Poissons Ratio (y) = 0.20463 0.33070
# Poissons Ratio (z) = 0.58646 0.70893
#
# Static dielectric constant tensor:
#      x y z
#    x 1.671290 0.000000 0.000000 
#    y 0.000000 1.652640 0.000000 
#    z 0.000000 0.000000 1.716830 
# 
# From -- ./inp_files/32502.got.cif
#   From: 2010.05.17/outbox.cif.g08.bks.cpg/sg63_17_cif.got.tgz:32502.got - 2010.06.03 15:47:04.
