data_PCOD9473682
_publ_section_title
;
Structure prediction by ZEFSAII (Michael W. Deem and Ramdas Pophale) SiO2 
 PCOD9473682
Probable space group: C M C M
;
_chemical_formula_sum "Si O2"
_cell_formula_units_Z 52
_cell_length_a 7.405516
_cell_length_b 15.272913
_cell_length_c 18.239851
_cell_angle_alpha 90.000000
_cell_angle_beta 90.000000
_cell_angle_gamma 90.000000
_cell_volume 2062.996489
_symmetry_space_group_name_H-M "C M C M"
_symmetry_group_IT_number 63
_symmetry_cell_setting 'orthorhombic'
loop_
_space_group_symop_operation_xyz
x,y,z
-x,-y,1/2+z
x,-y,-z
-x,y,1/2-z
-x,-y,-z
x,y,1/2-z
-x,y,z
x,-y,1/2+z
1/2+x,1/2+y,z
1/2-x,1/2-y,1/2+z
1/2+x,1/2-y,-z
1/2-x,1/2+y,1/2-z
1/2-x,1/2-y,-z
1/2+x,1/2+y,1/2-z
1/2-x,1/2+y,z
1/2+x,1/2-y,1/2+z
loop_
_atom_site_type_symbol
_atom_site_label
_atom_site_fract_x
_atom_site_fract_y
_atom_site_fract_z
Si Si1 0.205668 0.395136 0.353500
Si Si2 0.213528 0.851129 0.985550
Si Si3 0.214393 0.903515 0.672455
Si Si4 0.000000 0.184610 0.750000
O O1 0.217186 0.398161 0.441755
O O2 0.260337 0.491942 0.327374
O O3 0.342096 0.328662 0.314669
O O4 0.000000 0.374707 0.334264
O O5 0.289098 0.872789 0.905309
O O6 0.000000 0.869262 0.983017
O O7 0.250000 0.750000 0.000000
O O8 0.291669 0.868693 0.750000
O O9 0.000000 0.884333 0.672935
#
# Coordination Sequence:
#
# PCOD9473682 Si02
#       4
#    16  16  16   4
#     4  12  23  41  71  99 132 173 217 273 334 393
#     4  11  24  43  64  93 138 183 222 272 331 395
#     4  10  20  41  67  96 131 170 219 280 330 382
#     4  12  22  44  66 106 134 160 224 278 324 390
#
# _framework density 25.206054000000002
#
# number of rings (size 3 to 8) (size 9 to 14) (size 15 to 20)
#    0.000    0.923    4.615    2.308    0.000    6.154 
#    2.769    0.000    0.000    0.000    0.000    0.000 
#    0.000    0.000    0.000    0.000    0.000    0.000 
#
# Total GULP energy -145064.472581 kJ/mol
# GULP energy per Si atom -5579.402792 kJ/mol
# Density = 2.514868 g / cm^3
# Si number density = 25.206054 Si / 1000 Ang^3
#
#
#
# Elastic Constant Matrix: (Units=GPa)
#
#
# Indices 1 2 3 4 5 6 
#
# 1 150.1699 -45.1792 21.3785 0.0000 0.0000 0.0000
# 2 -45.1792 40.0081 38.3962 0.0000 0.0000 0.0000
# 3 21.3785 38.3962 311.5777 0.0000 0.0000 0.0000
# 4 0.0000 0.0000 0.0000 38.7779 0.0000 0.0000
# 5 0.0000 0.0000 0.0000 0.0000 52.7214 0.0000
# 6 0.0000 0.0000 0.0000 0.0000 0.0000 6.1774
#
#
#
# Elastic Compliance Matrix: (Units=1/GPa)
#
#
# Indices 1 2 3 4 5 6 
#
# 1 0.011919 0.016156 -0.002809 0.000000 0.000000 0.000000
# 2 0.016156 0.050245 -0.007300 0.000000 0.000000 0.000000
# 3 -0.002809 -0.007300 0.004302 0.000000 0.000000 0.000000
# 4 0.000000 0.000000 0.000000 0.025788 0.000000 0.000000
# 5 0.000000 0.000000 0.000000 0.000000 0.018968 0.000000
# 6 0.000000 0.000000 0.000000 0.000000 0.000000 0.161880
#
#
# Mechanical properties :
#
#
# Convention : Reuss Voigt Hill
#
# Bulk Modulus (GPa) = 12.72922 58.99406 35.86164
# Shear Modulus (GPa) = 17.40978 52.01269 34.71123
#
# Velocity S-wave (km/s) = 2.63097 4.54750 3.71495
# Velocity P-wave (km/s) = 3.78026 7.14343 5.71485
#
# Compressibility (1/GPa) = 0.07855940
#
# Stress axis : x y z
#
# Youngs Moduli (GPa) = 83.89639 19.90256 232.46043
#
# Poissons Ratio (x) = -0.32154 0.65292
# Poissons Ratio (y) = -1.35540 1.69702
# Poissons Ratio (z) = 0.23564 0.14529
#
# Static dielectric constant tensor:
#      x y z
#    x 1.956010 0.000000 0.000000 
#    y 0.000000 2.001540 0.000000 
#    z 0.000000 0.000000 2.049970 
# 
# From -- ./inp_files/39756.got.cif
#   From: 2010.05.17/outbox.cif.g08.bks.cpg/sg63_20_cif.got.tgz:39756.got - 2010.06.03 15:47:04.
