data_PCOD9473913
_publ_section_title
;
Structure prediction by ZEFSAII (Michael W. Deem and Ramdas Pophale) SiO2 
 PCOD9473913
Probable space group: C M C M
;
_chemical_formula_sum "Si O2"
_cell_formula_units_Z 96
_cell_length_a 8.590459
_cell_length_b 20.614487
_cell_length_c 28.710699
_cell_angle_alpha 90.000000
_cell_angle_beta 90.000000
_cell_angle_gamma 90.000000
_cell_volume 5084.317548
_symmetry_space_group_name_H-M "C M C M"
_symmetry_group_IT_number 63
_symmetry_cell_setting 'orthorhombic'
loop_
_space_group_symop_operation_xyz
x,y,z
-x,-y,1/2+z
x,-y,-z
-x,y,1/2-z
-x,-y,-z
x,y,1/2-z
-x,y,z
x,-y,1/2+z
1/2+x,1/2+y,z
1/2-x,1/2-y,1/2+z
1/2+x,1/2-y,-z
1/2-x,1/2+y,1/2-z
1/2-x,1/2-y,-z
1/2+x,1/2+y,1/2-z
1/2-x,1/2+y,z
1/2+x,1/2-y,1/2+z
loop_
_atom_site_type_symbol
_atom_site_label
_atom_site_fract_x
_atom_site_fract_y
_atom_site_fract_z
Si Si1 0.687899 0.086504 0.543963
Si Si2 0.814008 0.148718 0.867474
Si Si3 0.814081 0.760359 0.697454
Si Si4 0.186140 0.393974 0.840021
Si Si5 0.813199 0.028582 0.803400
Si Si6 0.810878 0.437371 0.559281
O O1 0.500000 0.088620 0.545581
O O2 0.754235 0.137681 0.580294
O O3 0.737317 0.093266 0.490051
O O4 0.736503 0.013253 0.559028
O O5 0.753335 0.211593 0.840780
O O6 0.000000 0.150095 0.867533
O O7 0.761656 0.085760 0.837733
O O8 0.758864 0.744070 0.750000
O O9 0.763683 0.833129 0.684863
O O10 0.000000 0.755875 0.696922
O O11 0.231468 0.461252 0.815604
O O12 0.239463 0.401643 0.893883
O O13 0.000000 0.385794 0.839210
O O14 0.781566 0.046915 0.750000
O O15 0.000000 0.020145 0.808433
O O16 0.000000 0.437842 0.559450
#
# Coordination Sequence:
#
# PCOD9473913 Si02
#       6
#    16  16  16  16  16  16
#     4   9  16  33  58  84 116 152 188 228 280 338
#     4  11  22  37  58  86 116 148 189 239 288 334
#     4  11  25  43  60  79 110 154 196 234 285 345
#     4  11  21  36  59  87 114 145 189 235 281 335
#     4  10  21  36  54  79 113 148 183 229 284 338
#     4   8  16  31  56  86 116 150 186 228 280 336
#
# _framework density 18.881589999999999
#
# number of rings (size 3 to 8) (size 9 to 14) (size 15 to 20)
#    0.000    2.000    1.667    3.500    0.000    5.000 
#    0.000    4.167    0.000    0.000    0.000    0.000 
#    0.000    0.000    0.000    0.000    0.000    0.000 
#
# Total GULP energy -268019.366465 kJ/mol
# GULP energy per Si atom -5583.736801 kJ/mol
# Density = 1.883861 g / cm^3
# Si number density = 18.881590 Si / 1000 Ang^3
#
#
#
# Elastic Constant Matrix: (Units=GPa)
#
#
# Indices 1 2 3 4 5 6 
#
# 1 17.8390 -1.2725 4.5427 0.0000 0.0000 0.0000
# 2 -1.2725 30.0730 -20.7691 0.0000 0.0000 0.0000
# 3 4.5427 -20.7691 67.1641 0.0000 0.0000 0.0000
# 4 0.0000 0.0000 0.0000 28.6100 0.0000 0.0000
# 5 0.0000 0.0000 0.0000 0.0000 23.7569 0.0000
# 6 0.0000 0.0000 0.0000 0.0000 0.0000 26.2678
#
#
#
# Elastic Compliance Matrix: (Units=1/GPa)
#
#
# Indices 1 2 3 4 5 6 
#
# 1 0.057042 -0.000319 -0.003957 0.000000 0.000000 0.000000
# 2 -0.000319 0.042284 0.013097 0.000000 0.000000 0.000000
# 3 -0.003957 0.013097 0.019207 0.000000 0.000000 0.000000
# 4 0.000000 0.000000 0.000000 0.034953 0.000000 0.000000
# 5 0.000000 0.000000 0.000000 0.000000 0.042093 0.000000
# 6 0.000000 0.000000 0.000000 0.000000 0.000000 0.038069
#
#
# Mechanical properties :
#
#
# Convention : Reuss Voigt Hill
#
# Bulk Modulus (GPa) = 7.34350 8.89760 8.12055
# Shear Modulus (GPa) = 19.12800 24.56526 21.84663
#
# Velocity S-wave (km/s) = 3.18630 3.61087 3.40521
# Velocity P-wave (km/s) = 4.17545 4.70182 4.44643
#
# Compressibility (1/GPa) = 0.13617476
#
# Stress axis : x y z
#
# Youngs Moduli (GPa) = 17.53096 23.64963 52.06566
#
# Poissons Ratio (x) = 0.00755 0.20601
# Poissons Ratio (y) = 0.00559 -0.68190
# Poissons Ratio (z) = 0.06937 -0.30974
#
# Static dielectric constant tensor:
#      x y z
#    x 1.637260 0.000000 0.000000 
#    y 0.000000 1.617340 0.000000 
#    z 0.000000 0.000000 1.675890 
# 
# From -- ./inp_files/66972.got.cif
#   From: 2010.05.17/outbox.cif.g08.bks.cpg/sg63_34_cif.got.tgz:66972.got - 2010.06.03 15:47:04.
