data_PCOD9473234
_publ_section_title
;
Structure prediction by ZEFSAII (Michael W. Deem and Ramdas Pophale) SiO2 
 PCOD9473234
Probable space group: C M C M
;
_chemical_formula_sum "Si O2"
_cell_formula_units_Z 80
_cell_length_a 10.045451
_cell_length_b 20.490143
_cell_length_c 21.521036
_cell_angle_alpha 90.000000
_cell_angle_beta 90.000000
_cell_angle_gamma 90.000000
_cell_volume 4429.733538
_symmetry_space_group_name_H-M "C M C M"
_symmetry_group_IT_number 63
_symmetry_cell_setting 'orthorhombic'
loop_
_space_group_symop_operation_xyz
x,y,z
-x,-y,1/2+z
x,-y,-z
-x,y,1/2-z
-x,-y,-z
x,y,1/2-z
-x,y,z
x,-y,1/2+z
1/2+x,1/2+y,z
1/2-x,1/2-y,1/2+z
1/2+x,1/2-y,-z
1/2-x,1/2+y,1/2-z
1/2-x,1/2-y,-z
1/2+x,1/2+y,1/2-z
1/2-x,1/2+y,z
1/2+x,1/2-y,1/2+z
loop_
_atom_site_type_symbol
_atom_site_label
_atom_site_fract_x
_atom_site_fract_y
_atom_site_fract_z
Si Si1 0.151271 0.758723 0.413360
Si Si2 0.000000 0.949209 0.942917
Si Si3 0.754461 0.139332 0.015027
Si Si4 0.731233 0.645992 0.818699
Si Si5 0.500000 0.063513 0.541595
Si Si6 0.500000 0.065309 0.816924
Si Si7 0.500000 0.545020 0.673880
O O1 0.170154 0.809406 0.470144
O O2 0.187784 0.686443 0.434097
O O3 0.240036 0.790407 0.360339
O O4 0.000000 0.761385 0.391812
O O5 0.135092 0.907466 0.954377
O O6 0.000000 0.985448 0.875550
O O7 0.000000 0.000000 0.000000
O O8 0.634719 0.103930 0.976612
O O9 0.686106 0.664755 0.750000
O O10 0.870949 0.610406 0.815904
O O11 0.626323 0.591230 0.840873
O O12 0.500000 0.038269 0.612998
O O13 0.500000 0.000000 0.500000
O O14 0.500000 0.027535 0.750000
O O15 0.500000 0.530299 0.750000
#
# Coordination Sequence:
#
# PCOD9473234 Si02
#       7
#    16   8  16  16   8   8   8
#     4  11  20  37  60  83 120 147 191 247 294 354
#     4  12  24  40  62  87 123 156 202 248 295 359
#     4  11  24  37  57  90 114 158 194 240 302 351
#     4  10  20  36  61  89 115 152 200 246 296 349
#     4  12  24  38  59  86 128 157 200 245 297 365
#     4  10  22  37  56  88 120 150 196 247 298 345
#     4  10  22  39  63  87 115 157 202 248 293 351
#
# _framework density 18.059777
#
# number of rings (size 3 to 8) (size 9 to 14) (size 15 to 20)
#    0.000    1.200    5.000    1.800    2.800    0.800 
#    0.000    1.000    0.000    1.200    0.000    0.000 
#    0.000    0.000    0.000    0.000    0.000    0.000 
#
# Total GULP energy -222865.853995 kJ/mol
# GULP energy per Si atom -5571.646350 kJ/mol
# Density = 1.801867 g / cm^3
# Si number density = 18.059777 Si / 1000 Ang^3
#
#
#
# Elastic Constant Matrix: (Units=GPa)
#
#
# Indices 1 2 3 4 5 6 
#
# 1 92.9889 12.4553 2.0188 0.0000 0.0000 0.0000
# 2 12.4553 66.3956 37.5880 0.0000 0.0000 0.0000
# 3 2.0188 37.5880 107.3316 0.0000 0.0000 0.0000
# 4 0.0000 0.0000 0.0000 23.8658 0.0000 0.0000
# 5 0.0000 0.0000 0.0000 0.0000 23.9602 0.0000
# 6 0.0000 0.0000 0.0000 0.0000 0.0000 37.1814
#
#
#
# Elastic Compliance Matrix: (Units=1/GPa)
#
#
# Indices 1 2 3 4 5 6 
#
# 1 0.011067 -0.002443 0.000647 0.000000 0.000000 0.000000
# 2 -0.002443 0.019325 -0.006722 0.000000 0.000000 0.000000
# 3 0.000647 -0.006722 0.011659 0.000000 0.000000 0.000000
# 4 0.000000 0.000000 0.000000 0.041901 0.000000 0.000000
# 5 0.000000 0.000000 0.000000 0.000000 0.041736 0.000000
# 6 0.000000 0.000000 0.000000 0.000000 0.000000 0.026895
#
#
# Mechanical properties :
#
#
# Convention : Reuss Voigt Hill
#
# Bulk Modulus (GPa) = 39.97345 41.20447 40.58896
# Shear Modulus (GPa) = 28.09694 31.31174 29.70434
#
# Velocity S-wave (km/s) = 3.94861 4.16839 4.05999
# Velocity P-wave (km/s) = 6.55520 6.78472 6.67095
#
# Compressibility (1/GPa) = 0.02501660
#
# Stress axis : x y z
#
# Youngs Moduli (GPa) = 90.35810 51.74722 85.77286
#
# Poissons Ratio (x) = 0.12639 -0.05551
# Poissons Ratio (y) = 0.22070 0.57654
# Poissons Ratio (z) = -0.05848 0.34783
#
# Static dielectric constant tensor:
#      x y z
#    x 1.639610 0.000000 0.000000 
#    y 0.000000 1.593440 0.000000 
#    z 0.000000 0.000000 1.691060 
# 
# From -- ./inp_files/59598.got.cif
#   From: 2010.05.17/outbox.cif.g08.bks.cpg/sg63_30_cif.got.tgz:59598.got - 2010.06.03 15:47:04.
