data_PCOD9473007
_publ_section_title
;
Structure prediction by ZEFSAII (Michael W. Deem and Ramdas Pophale) SiO2 
 PCOD9473007
Probable space group: C M C M
;
_chemical_formula_sum "Si O2"
_cell_formula_units_Z 88
_cell_length_a 13.321237
_cell_length_b 36.219884
_cell_length_c 10.847907
_cell_angle_alpha 90.000000
_cell_angle_beta 90.000000
_cell_angle_gamma 90.000000
_cell_volume 5234.046340
_symmetry_space_group_name_H-M "C M C M"
_symmetry_group_IT_number 63
_symmetry_cell_setting 'orthorhombic'
loop_
_space_group_symop_operation_xyz
x,y,z
-x,-y,1/2+z
x,-y,-z
-x,y,1/2-z
-x,-y,-z
x,y,1/2-z
-x,y,z
x,-y,1/2+z
1/2+x,1/2+y,z
1/2-x,1/2-y,1/2+z
1/2+x,1/2-y,-z
1/2-x,1/2+y,1/2-z
1/2-x,1/2-y,-z
1/2+x,1/2+y,1/2-z
1/2-x,1/2+y,z
1/2+x,1/2-y,1/2+z
loop_
_atom_site_type_symbol
_atom_site_label
_atom_site_fract_x
_atom_site_fract_y
_atom_site_fract_z
Si Si1 0.738962 0.646784 0.970211
Si Si2 0.378101 0.606576 0.750000
Si Si3 0.112202 0.711180 0.603526
Si Si4 0.385556 0.707219 0.102933
Si Si5 0.617814 0.919549 0.510262
Si Si6 0.702247 0.050216 0.750000
Si Si7 0.382964 0.971479 0.750000
O O1 0.665443 0.628808 0.868239
O O2 0.816145 0.676813 0.916264
O O3 0.807004 0.614667 0.028096
O O4 0.675388 0.671983 0.060933
O O5 0.500000 0.603368 0.750000
O O6 0.314070 0.568107 0.750000
O O7 0.103475 0.714954 0.750000
O O8 0.146578 0.751768 0.558472
O O9 0.000000 0.704156 0.553230
O O10 0.383652 0.707871 0.250000
O O11 0.500000 0.703147 0.060580
O O12 0.500000 0.908924 0.507289
O O13 0.647651 0.935905 0.375680
O O14 0.630163 0.947680 0.624907
O O15 0.691104 0.006215 0.750000
O O16 0.500000 0.984609 0.750000
#
# Coordination Sequence:
#
# PCOD9473007 Si02
#       7
#    16   8  16  16  16   8   8
#     4  11  19  32  53  75 104 139 169 210 262 313
#     4  10  22  36  52  79 105 130 170 218 264 301
#     4   9  17  31  50  75 102 131 174 218 255 300
#     4   9  19  33  50  70  96 137 183 220 251 292
#     4  10  21  33  53  85 113 138 170 210 260 316
#     4  10  20  36  60  80 100 142 178 208 250 314
#     4  10  20  36  56  81 115 140 162 206 260 315
#
# _framework density 16.812995999999998
#
# number of rings (size 3 to 8) (size 9 to 14) (size 15 to 20)
#    0.000    2.182    0.909    4.091    1.273    1.455 
#    0.000    0.000    0.000    9.818    0.000    0.000 
#    0.000    0.000    0.000    0.000    0.000    0.000 
#
# Total GULP energy -244937.935564 kJ/mol
# GULP energy per Si atom -5566.771263 kJ/mol
# Density = 1.677473 g / cm^3
# Si number density = 16.812996 Si / 1000 Ang^3
#
#
#
# Elastic Constant Matrix: (Units=GPa)
#
#
# Indices 1 2 3 4 5 6 
#
# 1 133.4997 73.0158 33.8792 0.0000 0.0000 0.0000
# 2 73.0158 122.3358 31.0034 0.0000 0.0000 0.0000
# 3 33.8792 31.0034 44.9798 0.0000 0.0000 0.0000
# 4 0.0000 0.0000 0.0000 24.5632 0.0000 0.0000
# 5 0.0000 0.0000 0.0000 0.0000 22.4398 0.0000
# 6 0.0000 0.0000 0.0000 0.0000 0.0000 29.3903
#
#
#
# Elastic Compliance Matrix: (Units=1/GPa)
#
#
# Indices 1 2 3 4 5 6 
#
# 1 0.011968 -0.005887 -0.004957 0.000000 0.000000 0.000000
# 2 -0.005887 0.012800 -0.004389 0.000000 0.000000 0.000000
# 3 -0.004957 -0.004389 0.028991 0.000000 0.000000 0.000000
# 4 0.000000 0.000000 0.000000 0.040711 0.000000 0.000000
# 5 0.000000 0.000000 0.000000 0.000000 0.044564 0.000000
# 6 0.000000 0.000000 0.000000 0.000000 0.000000 0.034025
#
#
# Mechanical properties :
#
#
# Convention : Reuss Voigt Hill
#
# Bulk Modulus (GPa) = 42.92929 64.06800 53.49865
# Shear Modulus (GPa) = 23.66427 26.13980 24.90203
#
# Velocity S-wave (km/s) = 3.75573 3.94729 3.85270
# Velocity P-wave (km/s) = 6.66305 7.67879 7.18888
#
# Compressibility (1/GPa) = 0.02329412
#
# Stress axis : x y z
#
# Youngs Moduli (GPa) = 83.55271 78.12424 34.49382
#
# Poissons Ratio (x) = 0.45993 0.17098
# Poissons Ratio (y) = 0.49189 0.15138
# Poissons Ratio (z) = 0.41416 0.34285
#
# Static dielectric constant tensor:
#      x y z
#    x 1.586250 0.000000 0.000000 
#    y 0.000000 1.571210 0.000000 
#    z 0.000000 0.000000 1.564850 
# 
# From -- ./inp_files/18052.got.cif
#   From: 2010.05.17/outbox.cif.g08.bks.cpg/sg63_10_cif.got.tgz:18052.got - 2010.06.03 15:47:04.
