data_PCOD9473858
_publ_section_title
;
Structure prediction by ZEFSAII (Michael W. Deem and Ramdas Pophale) SiO2 
 PCOD9473858
Probable space group: C M C M
;
_chemical_formula_sum "Si O2"
_cell_formula_units_Z 80
_cell_length_a 26.790734
_cell_length_b 10.366428
_cell_length_c 13.922411
_cell_angle_alpha 90.000000
_cell_angle_beta 90.000000
_cell_angle_gamma 90.000000
_cell_volume 3866.590667
_symmetry_space_group_name_H-M "C M C M"
_symmetry_group_IT_number 63
_symmetry_cell_setting 'orthorhombic'
loop_
_space_group_symop_operation_xyz
x,y,z
-x,-y,1/2+z
x,-y,-z
-x,y,1/2-z
-x,-y,-z
x,y,1/2-z
-x,y,z
x,-y,1/2+z
1/2+x,1/2+y,z
1/2-x,1/2-y,1/2+z
1/2+x,1/2-y,-z
1/2-x,1/2+y,1/2-z
1/2-x,1/2-y,-z
1/2+x,1/2+y,1/2-z
1/2-x,1/2+y,z
1/2+x,1/2-y,1/2+z
loop_
_atom_site_type_symbol
_atom_site_label
_atom_site_fract_x
_atom_site_fract_y
_atom_site_fract_z
Si Si1 0.208757 0.793535 0.634331
Si Si2 0.288538 0.004852 0.634191
Si Si3 0.108441 0.848365 0.524526
Si Si4 0.000000 0.848696 0.523761
Si Si5 0.000000 0.636625 0.362853
Si Si6 0.609387 0.870049 0.634995
O O1 0.206898 0.797478 0.750000
O O2 0.248213 0.900558 0.602108
O O3 0.224101 0.649527 0.604803
O O4 0.154228 0.818293 0.592978
O O5 0.287390 0.003673 0.750000
O O6 0.344688 0.962204 0.608374
O O7 0.053696 0.819424 0.569874
O O8 0.113330 0.758980 0.429349
O O9 0.109972 0.000000 0.500000
O O10 0.000000 0.766236 0.425619
O O11 0.000000 0.000000 0.500000
O O12 0.053762 0.571824 0.382508
O O13 0.000000 0.667621 0.250000
O O14 0.613355 0.842323 0.750000
#
# Coordination Sequence:
#
# PCOD9473858 Si02
#       6
#    16  16  16   8   8  16
#     4  10  22  40  59  82 114 149 188 232 282 334
#     4   9  20  38  59  82 113 149 184 233 284 330
#     4  10  21  35  56  86 112 151 189 231 278 336
#     4   8  16  34  51  73 117 145 180 231 277 320
#     4   8  14  28  53  79 101 137 183 227 275 331
#     4   9  18  34  56  81 110 143 185 232 280 330
#
# _framework density 20.690061
#
# number of rings (size 3 to 8) (size 9 to 14) (size 15 to 20)
#    0.000    2.800    0.000    0.000    2.800    2.400 
#    0.000    4.500    0.000    6.000    0.000    0.000 
#    0.000    0.000    0.000    0.000    0.000    0.000 
#
# Total GULP energy -223099.678982 kJ/mol
# GULP energy per Si atom -5577.491975 kJ/mol
# Density = 2.064297 g / cm^3
# Si number density = 20.690061 Si / 1000 Ang^3
#
#
#
# Elastic Constant Matrix: (Units=GPa)
#
#
# Indices 1 2 3 4 5 6 
#
# 1 190.5078 78.4906 34.6739 0.0000 0.0000 0.0000
# 2 78.4906 118.5844 13.2634 0.0000 0.0000 0.0000
# 3 34.6739 13.2634 73.4209 0.0000 0.0000 0.0000
# 4 0.0000 0.0000 0.0000 14.6590 0.0000 0.0000
# 5 0.0000 0.0000 0.0000 0.0000 31.5548 0.0000
# 6 0.0000 0.0000 0.0000 0.0000 0.0000 23.6678
#
#
#
# Elastic Compliance Matrix: (Units=1/GPa)
#
#
# Indices 1 2 3 4 5 6 
#
# 1 0.007738 -0.004810 -0.002785 0.000000 0.000000 0.000000
# 2 -0.004810 0.011597 0.000177 0.000000 0.000000 0.000000
# 3 -0.002785 0.000177 0.014904 0.000000 0.000000 0.000000
# 4 0.000000 0.000000 0.000000 0.068218 0.000000 0.000000
# 5 0.000000 0.000000 0.000000 0.000000 0.031691 0.000000
# 6 0.000000 0.000000 0.000000 0.000000 0.000000 0.042251
#
#
# Mechanical properties :
#
#
# Convention : Reuss Voigt Hill
#
# Bulk Modulus (GPa) = 51.54452 70.59658 61.07055
# Shear Modulus (GPa) = 25.29046 31.04865 28.16956
#
# Velocity S-wave (km/s) = 3.50000 3.87803 3.69386
# Velocity P-wave (km/s) = 6.42652 7.36527 6.91185
#
# Compressibility (1/GPa) = 0.01940070
#
# Stress axis : x y z
#
# Youngs Moduli (GPa) = 129.23393 86.23014 67.09788
#
# Poissons Ratio (x) = 0.41478 0.18689
# Poissons Ratio (y) = 0.62164 -0.01186
# Poissons Ratio (z) = 0.35996 -0.01524
#
# Static dielectric constant tensor:
#      x y z
#    x 1.774490 0.000000 0.000000 
#    y 0.000000 1.720840 0.000000 
#    z 0.000000 0.000000 1.745070 
# 
# From -- ./inp_files/24989.got.cif
#   From: 2010.05.17/outbox.cif.g08.bks.cpg/sg63_13_cif.got.tgz:24989.got - 2010.06.03 15:47:04.
