data_PCOD9473722
_publ_section_title
;
Structure prediction by ZEFSAII (Michael W. Deem and Ramdas Pophale) SiO2 
 PCOD9473722
Probable space group: C M C M
;
_chemical_formula_sum "Si O2"
_cell_formula_units_Z 88
_cell_length_a 22.176280
_cell_length_b 14.992339
_cell_length_c 13.749353
_cell_angle_alpha 90.000000
_cell_angle_beta 90.000000
_cell_angle_gamma 90.000000
_cell_volume 4571.306618
_symmetry_space_group_name_H-M "C M C M"
_symmetry_group_IT_number 63
_symmetry_cell_setting 'orthorhombic'
loop_
_space_group_symop_operation_xyz
x,y,z
-x,-y,1/2+z
x,-y,-z
-x,y,1/2-z
-x,-y,-z
x,y,1/2-z
-x,y,z
x,-y,1/2+z
1/2+x,1/2+y,z
1/2-x,1/2-y,1/2+z
1/2+x,1/2-y,-z
1/2-x,1/2+y,1/2-z
1/2-x,1/2-y,-z
1/2+x,1/2+y,1/2-z
1/2-x,1/2+y,z
1/2+x,1/2-y,1/2+z
loop_
_atom_site_type_symbol
_atom_site_label
_atom_site_fract_x
_atom_site_fract_y
_atom_site_fract_z
Si Si1 0.931290 0.223338 0.557743
Si Si2 0.602909 0.635402 0.140236
Si Si3 0.853677 0.939344 0.363366
Si Si4 0.784353 0.258724 0.357222
Si Si5 0.676238 0.157938 0.444895
Si Si6 0.751343 0.500000 0.500000
O O1 0.929060 0.190300 0.444887
O O2 0.894937 0.145005 0.612188
O O3 0.892496 0.313743 0.570890
O O4 0.000000 0.231248 0.589505
O O5 0.578971 0.648289 0.250000
O O6 0.608260 0.530434 0.118932
O O7 0.671483 0.672771 0.140693
O O8 0.836626 0.939606 0.250000
O O9 0.794978 0.944130 0.432177
O O10 0.787165 0.298291 0.250000
O O11 0.717968 0.224900 0.382926
O O12 0.809416 0.319827 0.442426
O O13 0.704751 0.060595 0.433921
#
# Coordination Sequence:
#
# PCOD9473722 Si02
#       6
#    16  16  16  16  16   8
#     4  11  23  39  53  75 113 153 187 220 257 316
#     4   9  17  32  56  85 111 140 176 221 276 324
#     4  11  21  35  57  86 114 142 176 222 280 334
#     4   9  16  32  55  80 110 136 173 225 278 327
#     4  10  21  33  53  80 104 143 181 222 274 320
#     4  12  20  38  58  84 114 134 176 238 286 322
#
# _framework density 19.250513999999999
#
# number of rings (size 3 to 8) (size 9 to 14) (size 15 to 20)
#    0.000    1.818    3.636    2.182    0.000    5.091 
#    0.000    2.273    0.000    0.000    0.000    0.000 
#    0.000    7.273    0.000    0.000    0.000    0.000 
#
# Total GULP energy -245496.797156 kJ/mol
# GULP energy per Si atom -5579.472663 kJ/mol
# Density = 1.920670 g / cm^3
# Si number density = 19.250514 Si / 1000 Ang^3
#
#
#
# Elastic Constant Matrix: (Units=GPa)
#
#
# Indices 1 2 3 4 5 6 
#
# 1 137.4632 45.7263 4.7016 0.0000 0.0000 0.0000
# 2 45.7263 30.0045 -10.4711 0.0000 0.0000 0.0000
# 3 4.7016 -10.4711 60.3648 0.0000 0.0000 0.0000
# 4 0.0000 0.0000 0.0000 16.0001 0.0000 0.0000
# 5 0.0000 0.0000 0.0000 0.0000 5.4464 0.0000
# 6 0.0000 0.0000 0.0000 0.0000 0.0000 19.7113
#
#
#
# Elastic Compliance Matrix: (Units=1/GPa)
#
#
# Indices 1 2 3 4 5 6 
#
# 1 0.016597 -0.027404 -0.006046 0.000000 0.000000 0.000000
# 2 -0.027404 0.080723 0.016137 0.000000 0.000000 0.000000
# 3 -0.006046 0.016137 0.019836 0.000000 0.000000 0.000000
# 4 0.000000 0.000000 0.000000 0.062499 0.000000 0.000000
# 5 0.000000 0.000000 0.000000 0.000000 0.183609 0.000000
# 6 0.000000 0.000000 0.000000 0.000000 0.000000 0.050732
#
#
# Mechanical properties :
#
#
# Convention : Reuss Voigt Hill
#
# Bulk Modulus (GPa) = 12.11683 34.19400 23.15542
# Shear Modulus (GPa) = 10.50125 20.75660 15.62893
#
# Velocity S-wave (km/s) = 2.33814 3.28721 2.85243
# Velocity P-wave (km/s) = 3.68743 5.67529 4.78571
#
# Compressibility (1/GPa) = 0.08252983
#
# Stress axis : x y z
#
# Youngs Moduli (GPa) = 60.25087 12.38801 50.41318
#
# Poissons Ratio (x) = 0.33948 0.30481
# Poissons Ratio (y) = 1.65112 -0.81352
# Poissons Ratio (z) = 0.36430 -0.19991
#
# Static dielectric constant tensor:
#      x y z
#    x 1.665200 0.000000 0.000000 
#    y 0.000000 1.724970 0.000000 
#    z 0.000000 0.000000 1.703560 
# 
# From -- ./inp_files/35225.got.cif
#   From: 2010.05.17/outbox.cif.g08.bks.cpg/sg63_18_cif.got.tgz:35225.got - 2010.06.03 15:47:04.
