data_PCOD9473928
_publ_section_title
;
Structure prediction by ZEFSAII (Michael W. Deem and Ramdas Pophale) SiO2 
 PCOD9473928
Probable space group: C M C M
;
_chemical_formula_sum "Si O2"
_cell_formula_units_Z 112
_cell_length_a 25.479739
_cell_length_b 17.306907
_cell_length_c 14.107400
_cell_angle_alpha 90.000000
_cell_angle_beta 90.000000
_cell_angle_gamma 90.000000
_cell_volume 6221.017391
_symmetry_space_group_name_H-M "C M C M"
_symmetry_group_IT_number 63
_symmetry_cell_setting 'orthorhombic'
loop_
_space_group_symop_operation_xyz
x,y,z
-x,-y,1/2+z
x,-y,-z
-x,y,1/2-z
-x,-y,-z
x,y,1/2-z
-x,y,z
x,-y,1/2+z
1/2+x,1/2+y,z
1/2-x,1/2-y,1/2+z
1/2+x,1/2-y,-z
1/2-x,1/2+y,1/2-z
1/2-x,1/2-y,-z
1/2+x,1/2+y,1/2-z
1/2-x,1/2+y,z
1/2+x,1/2-y,1/2+z
loop_
_atom_site_type_symbol
_atom_site_label
_atom_site_fract_x
_atom_site_fract_y
_atom_site_fract_z
Si Si1 0.232965 0.055466 0.863404
Si Si2 0.896967 0.696848 0.993361
Si Si3 0.854613 0.441157 0.136416
Si Si4 0.059815 0.168408 0.360772
Si Si5 0.059962 0.575267 0.137778
Si Si6 0.162983 0.089834 0.138591
Si Si7 0.198769 0.201708 0.981101
O O1 0.231501 0.061269 0.750000
O O2 0.294000 0.039862 0.889087
O O3 0.212091 0.134305 0.907948
O O4 0.193754 0.986564 0.891610
O O5 0.872146 0.634119 0.921413
O O6 0.927790 0.760237 0.930630
O O7 0.929690 0.648323 0.070123
O O8 0.849858 0.743422 0.044145
O O9 0.856536 0.426885 0.250000
O O10 0.895835 0.510369 0.116859
O O11 0.066964 0.192651 0.250000
O O12 0.100658 0.098469 0.377654
O O13 0.000000 0.144096 0.372997
O O14 0.064774 0.594408 0.250000
O O15 0.000000 0.546621 0.122681
O O16 0.172583 0.099008 0.250000
O O17 0.185121 0.160978 0.080108
O O18 0.250000 0.250000 0.000000
#
# Coordination Sequence:
#
# PCOD9473928 Si02
#       7
#    16  16  16  16  16  16  16
#     4  10  21  38  58  80 111 146 183 222 268 326
#     4  11  21  34  56  81 112 144 181 221 278 330
#     4  10  21  36  55  79 107 142 182 227 273 324
#     4   9  18  34  57  85 111 137 177 228 280 326
#     4  10  23  40  55  76 108 147 192 232 265 314
#     4   9  20  36  56  79 109 145 179 223 272 320
#     4  11  22  34  53  82 113 144 177 222 271 328
#
# _framework density 18.003485999999999
#
# number of rings (size 3 to 8) (size 9 to 14) (size 15 to 20)
#    0.000    2.000    1.429    1.714    2.000    4.571 
#    0.000    1.429    0.000    7.714    0.000    2.000 
#    0.000    0.000    0.000    0.000    0.000    0.000 
#
# Total GULP energy -312356.403313 kJ/mol
# GULP energy per Si atom -5577.792916 kJ/mol
# Density = 1.796251 g / cm^3
# Si number density = 18.003486 Si / 1000 Ang^3
#
#
#
# Elastic Constant Matrix: (Units=GPa)
#
#
# Indices 1 2 3 4 5 6 
#
# 1 150.7297 60.5625 41.4015 0.0000 0.0000 0.0000
# 2 60.5625 77.1663 24.5103 0.0000 0.0000 0.0000
# 3 41.4015 24.5103 57.8470 0.0000 0.0000 0.0000
# 4 0.0000 0.0000 0.0000 93.3441 0.0000 0.0000
# 5 0.0000 0.0000 0.0000 0.0000 13.7983 0.0000
# 6 0.0000 0.0000 0.0000 0.0000 0.0000 29.2971
#
#
#
# Elastic Compliance Matrix: (Units=1/GPa)
#
#
# Indices 1 2 3 4 5 6 
#
# 1 0.010708 -0.006898 -0.004741 0.000000 0.000000 0.000000
# 2 -0.006898 0.019418 -0.003290 0.000000 0.000000 0.000000
# 3 -0.004741 -0.003290 0.022074 0.000000 0.000000 0.000000
# 4 0.000000 0.000000 0.000000 0.010713 0.000000 0.000000
# 5 0.000000 0.000000 0.000000 0.000000 0.072473 0.000000
# 6 0.000000 0.000000 0.000000 0.000000 0.000000 0.034133
#
#
# Mechanical properties :
#
#
# Convention : Reuss Voigt Hill
#
# Bulk Modulus (GPa) = 44.76062 59.85463 52.30762
# Shear Modulus (GPa) = 24.17483 37.90582 31.04032
#
# Velocity S-wave (km/s) = 3.66838 4.59352 4.15677
# Velocity P-wave (km/s) = 6.54667 7.83915 7.22188
#
# Compressibility (1/GPa) = 0.02234107
#
# Stress axis : x y z
#
# Youngs Moduli (GPa) = 93.38476 51.49807 45.30122
#
# Poissons Ratio (x) = 0.35525 0.21478
# Poissons Ratio (y) = 0.64420 0.14906
# Poissons Ratio (z) = 0.44275 0.16945
#
# Static dielectric constant tensor:
#      x y z
#    x 1.639070 0.000000 0.000000 
#    y 0.000000 1.523060 0.000000 
#    z 0.000000 0.000000 1.623790 
# 
# From -- ./inp_files/36875.got.cif
#   From: 2010.05.17/outbox.cif.g08.bks.cpg/sg63_19_cif.got.tgz:36875.got - 2010.06.03 15:47:04.
