data_PCOD9473522
_publ_section_title
;
Structure prediction by ZEFSAII (Michael W. Deem and Ramdas Pophale) SiO2 
 PCOD9473522
Probable space group: C M C M
;
_chemical_formula_sum "Si O2"
_cell_formula_units_Z 88
_cell_length_a 11.395595
_cell_length_b 19.160711
_cell_length_c 19.628956
_cell_angle_alpha 90.000000
_cell_angle_beta 90.000000
_cell_angle_gamma 90.000000
_cell_volume 4285.937444
_symmetry_space_group_name_H-M "C M C M"
_symmetry_group_IT_number 63
_symmetry_cell_setting 'orthorhombic'
loop_
_space_group_symop_operation_xyz
x,y,z
-x,-y,1/2+z
x,-y,-z
-x,y,1/2-z
-x,-y,-z
x,y,1/2-z
-x,y,z
x,-y,1/2+z
1/2+x,1/2+y,z
1/2-x,1/2-y,1/2+z
1/2+x,1/2-y,-z
1/2-x,1/2+y,1/2-z
1/2-x,1/2-y,-z
1/2+x,1/2+y,1/2-z
1/2-x,1/2+y,z
1/2+x,1/2-y,1/2+z
loop_
_atom_site_type_symbol
_atom_site_label
_atom_site_fract_x
_atom_site_fract_y
_atom_site_fract_z
Si Si1 0.300814 0.000000 0.500000
Si Si2 0.366346 0.628126 0.033948
Si Si3 0.364302 0.291561 0.406079
Si Si4 0.868856 0.936325 0.327722
Si Si5 0.370913 0.979480 0.648128
Si Si6 0.250386 0.663148 0.169850
O O1 0.218325 0.932945 0.509147
O O2 0.373556 0.998985 0.568691
O O3 0.500000 0.608504 0.020127
O O4 0.347734 0.640235 0.114303
O O5 0.340061 0.695106 0.986217
O O6 0.500000 0.270243 0.400712
O O7 0.351762 0.368449 0.373685
O O8 0.293328 0.236017 0.361917
O O9 0.875813 0.912182 0.250000
O O10 0.000000 0.967267 0.344315
O O11 0.753381 0.984884 0.330617
O O12 0.500000 0.999397 0.675834
O O13 0.348161 0.897506 0.661942
O O14 0.282171 0.667671 0.250000
#
# Coordination Sequence:
#
# PCOD9473522 Si02
#       6
#     8  16  16  16  16  16
#     4  10  20  38  62  92 125 158 207 262 323 372
#     4  10  21  38  65  94 123 163 213 269 322 379
#     4  10  20  39  65  91 118 159 216 266 311 369
#     4  10  21  38  63  93 123 160 209 264 317 371
#     4  11  23  39  61  91 127 165 209 259 320 380
#     4  11  24  39  59  90 131 170 207 256 318 388
#
# _framework density 20.532264999999999
#
# number of rings (size 3 to 8) (size 9 to 14) (size 15 to 20)
#    0.000    1.636    1.818    2.727    0.000    6.545 
#    0.000    0.909    0.000    2.182    0.000    0.000 
#    0.000    0.000    0.000    0.000    0.000    0.000 
#
# Total GULP energy -245142.132721 kJ/mol
# GULP energy per Si atom -5571.412107 kJ/mol
# Density = 2.048553 g / cm^3
# Si number density = 20.532265 Si / 1000 Ang^3
#
#
#
# Elastic Constant Matrix: (Units=GPa)
#
#
# Indices 1 2 3 4 5 6 
#
# 1 131.7669 43.7115 27.0083 0.0000 0.0000 0.0000
# 2 43.7115 56.5665 24.0858 0.0000 0.0000 0.0000
# 3 27.0083 24.0858 169.5354 0.0000 0.0000 0.0000
# 4 0.0000 0.0000 0.0000 24.5773 0.0000 0.0000
# 5 0.0000 0.0000 0.0000 0.0000 6.2619 0.0000
# 6 0.0000 0.0000 0.0000 0.0000 0.0000 76.1035
#
#
#
# Elastic Compliance Matrix: (Units=1/GPa)
#
#
# Indices 1 2 3 4 5 6 
#
# 1 0.010252 -0.007692 -0.000540 0.000000 0.000000 0.000000
# 2 -0.007692 0.024588 -0.002268 0.000000 0.000000 0.000000
# 3 -0.000540 -0.002268 0.006307 0.000000 0.000000 0.000000
# 4 0.000000 0.000000 0.000000 0.040688 0.000000 0.000000
# 5 0.000000 0.000000 0.000000 0.000000 0.159695 0.000000
# 6 0.000000 0.000000 0.000000 0.000000 0.000000 0.013140
#
#
# Mechanical properties :
#
#
# Convention : Reuss Voigt Hill
#
# Bulk Modulus (GPa) = 49.63740 60.83113 55.23426
# Shear Modulus (GPa) = 17.70636 38.92608 28.31622
#
# Velocity S-wave (km/s) = 2.93980 4.35886 3.71766
# Velocity P-wave (km/s) = 5.97921 7.41784 6.73703
#
# Compressibility (1/GPa) = 0.02014610
#
# Stress axis : x y z
#
# Youngs Moduli (GPa) = 97.54635 40.67076 158.56029
#
# Poissons Ratio (x) = 0.31283 0.08568
# Poissons Ratio (y) = 0.75030 0.35958
# Poissons Ratio (z) = 0.05271 0.09223
#
# Static dielectric constant tensor:
#      x y z
#    x 1.737660 0.000000 0.000000 
#    y 0.000000 1.720330 0.000000 
#    z 0.000000 0.000000 1.784360 
# 
# From -- ./inp_files/52544.got.cif
#   From: 2010.05.17/outbox.cif.g08.bks.cpg/sg63_27_cif.got.tgz:52544.got - 2010.06.03 15:47:04.
