data_PCOD9473706
_publ_section_title
;
Structure prediction by ZEFSAII (Michael W. Deem and Ramdas Pophale) SiO2 
 PCOD9473706
Probable space group: C M C M
;
_chemical_formula_sum "Si O2"
_cell_formula_units_Z 80
_cell_length_a 23.654272
_cell_length_b 21.613884
_cell_length_c 9.860331
_cell_angle_alpha 90.000000
_cell_angle_beta 90.000000
_cell_angle_gamma 90.000000
_cell_volume 5041.199642
_symmetry_space_group_name_H-M "C M C M"
_symmetry_group_IT_number 63
_symmetry_cell_setting 'orthorhombic'
loop_
_space_group_symop_operation_xyz
x,y,z
-x,-y,1/2+z
x,-y,-z
-x,y,1/2-z
-x,-y,-z
x,y,1/2-z
-x,y,z
x,-y,1/2+z
1/2+x,1/2+y,z
1/2-x,1/2-y,1/2+z
1/2+x,1/2-y,-z
1/2-x,1/2+y,1/2-z
1/2-x,1/2-y,-z
1/2+x,1/2+y,1/2-z
1/2-x,1/2+y,z
1/2+x,1/2-y,1/2+z
loop_
_atom_site_type_symbol
_atom_site_label
_atom_site_fract_x
_atom_site_fract_y
_atom_site_fract_z
Si Si1 0.218622 0.803183 0.088566
Si Si2 0.500000 0.881819 0.250000
Si Si3 0.673033 0.869361 0.463336
Si Si4 0.375827 0.266535 0.901689
Si Si5 0.616714 0.045225 0.750000
Si Si6 0.500000 0.170916 0.250000
Si Si7 0.620598 0.897895 0.750000
Si Si8 0.000000 0.270120 0.040655
O O1 0.216098 0.790074 0.250000
O O2 0.260340 0.860856 0.064002
O O3 0.250000 0.750000 0.000000
O O4 0.157501 0.803652 0.018010
O O5 0.445332 0.924801 0.250000
O O6 0.500000 0.835183 0.377448
O O7 0.643707 0.805651 0.411421
O O8 0.648530 0.926465 0.379730
O O9 0.654783 0.875977 0.618205
O O10 0.360762 0.288142 0.750000
O O11 0.442910 0.265408 0.921237
O O12 0.615503 0.971820 0.750000
O O13 0.442412 0.130861 0.250000
O O14 0.500000 0.212576 0.383610
#
# Coordination Sequence:
#
# PCOD9473706 Si02
#       8
#    16   4  16  16   8   4   8   8
#     4  10  21  32  52  74  94 123 162 209 258 308
#     4  12  19  36  54  60  96 142 178 212 261 282
#     4  11  20  36  49  68  99 126 165 219 259 297
#     4  11  20  34  53  73  96 131 168 201 254 310
#     4  12  21  38  50  69  93 139 179 222 253 292
#     4  12  23  36  42  76 100 134 174 232 241 282
#     4  12  25  32  52  71  97 133 185 218 255 284
#     4  12  20  32  53  70 106 136 165 208 258 295
#
# _framework density 15.869237999999999
#
# number of rings (size 3 to 8) (size 9 to 14) (size 15 to 20)
#    0.000    0.800    7.000    2.700    8.400    0.000 
#    0.000    3.000    0.000    0.000    0.000    0.000 
#    0.000    0.000    0.000    5.400    0.000    0.100 
#
# Total GULP energy -223228.799894 kJ/mol
# GULP energy per Si atom -5580.719997 kJ/mol
# Density = 1.583312 g / cm^3
# Si number density = 15.869238 Si / 1000 Ang^3
#
#
#
# Elastic Constant Matrix: (Units=GPa)
#
#
# Indices 1 2 3 4 5 6 
#
# 1 114.0084 26.1164 42.3244 0.0000 0.0000 0.0000
# 2 26.1164 22.3639 19.6999 0.0000 0.0000 0.0000
# 3 42.3244 19.6999 166.0241 0.0000 0.0000 0.0000
# 4 0.0000 0.0000 0.0000 11.4424 0.0000 0.0000
# 5 0.0000 0.0000 0.0000 0.0000 109.6567 0.0000
# 6 0.0000 0.0000 0.0000 0.0000 0.0000 7.2527
#
#
#
# Elastic Compliance Matrix: (Units=1/GPa)
#
#
# Indices 1 2 3 4 5 6 
#
# 1 0.012346 -0.013004 -0.001604 0.000000 0.000000 0.000000
# 2 -0.013004 0.063632 -0.004235 0.000000 0.000000 0.000000
# 3 -0.001604 -0.004235 0.006935 0.000000 0.000000 0.000000
# 4 0.000000 0.000000 0.000000 0.087394 0.000000 0.000000
# 5 0.000000 0.000000 0.000000 0.000000 0.009119 0.000000
# 6 0.000000 0.000000 0.000000 0.000000 0.000000 0.137879
#
#
# Mechanical properties :
#
#
# Convention : Reuss Voigt Hill
#
# Bulk Modulus (GPa) = 22.11165 53.18643 37.64904
# Shear Modulus (GPa) = 13.51107 39.95409 26.73258
#
# Velocity S-wave (km/s) = 2.92104 5.02312 4.10878
# Velocity P-wave (km/s) = 5.03394 8.19942 6.80335
#
# Compressibility (1/GPa) = 0.04522502
#
# Stress axis : x y z
#
# Youngs Moduli (GPa) = 80.99954 15.71544 144.20160
#
# Poissons Ratio (x) = 0.20436 0.23134
# Poissons Ratio (y) = 1.05333 0.61073
# Poissons Ratio (z) = 0.12994 0.06656
#
# Static dielectric constant tensor:
#      x y z
#    x 1.576600 0.000000 0.000000 
#    y 0.000000 1.497160 0.000000 
#    z 0.000000 0.000000 1.550210 
# 
# From -- ./inp_files/8135.got.cif
#   From: 2010.05.17/outbox.cif.g08.bks.cpg/sg63_5_cif.got.tgz:8135.got - 2010.06.03 15:47:04.
