data_PCOD9473861
_publ_section_title
;
Structure prediction by ZEFSAII (Michael W. Deem and Ramdas Pophale) SiO2 
 PCOD9473861
Probable space group: C M C M
;
_chemical_formula_sum "Si O2"
_cell_formula_units_Z 68
_cell_length_a 7.663950
_cell_length_b 20.800011
_cell_length_c 21.505377
_cell_angle_alpha 90.000000
_cell_angle_beta 90.000000
_cell_angle_gamma 90.000000
_cell_volume 3428.177401
_symmetry_space_group_name_H-M "C M C M"
_symmetry_group_IT_number 63
_symmetry_cell_setting 'orthorhombic'
loop_
_space_group_symop_operation_xyz
x,y,z
-x,-y,1/2+z
x,-y,-z
-x,y,1/2-z
-x,-y,-z
x,y,1/2-z
-x,y,z
x,-y,1/2+z
1/2+x,1/2+y,z
1/2-x,1/2-y,1/2+z
1/2+x,1/2-y,-z
1/2-x,1/2+y,1/2-z
1/2-x,1/2-y,-z
1/2+x,1/2+y,1/2-z
1/2-x,1/2+y,z
1/2+x,1/2-y,1/2+z
loop_
_atom_site_type_symbol
_atom_site_label
_atom_site_fract_x
_atom_site_fract_y
_atom_site_fract_z
Si Si1 0.500000 0.799754 0.750000
Si Si2 0.708491 0.821852 0.979539
Si Si3 0.791506 0.553380 0.950955
Si Si4 0.791000 0.996207 0.682082
Si Si5 0.702915 0.652687 0.160972
O O1 0.655843 0.804382 0.696370
O O2 0.500000 0.827858 0.973804
O O3 0.787280 0.836384 0.912406
O O4 0.750000 0.750000 0.000000
O O5 0.770955 0.876356 0.027987
O O6 0.758360 0.534434 0.879761
O O7 0.000000 0.553340 0.957857
O O8 0.722603 0.500000 0.000000
O O9 0.725460 0.018934 0.750000
O O10 0.741633 0.921270 0.674556
O O11 0.000000 0.997560 0.684099
O O12 0.500000 0.660906 0.180051
#
# Coordination Sequence:
#
# PCOD9473861 Si02
#       5
#     4  16  16  16  16
#     4  12  22  36  64  92 136 164 210 260 326 382
#     4  11  23  41  63  91 127 169 215 268 322 376
#     4  10  21  36  61  91 121 156 207 263 317 377
#     4  10  21  35  56  89 127 160 203 259 321 378
#     4  11  22  37  61  96 126 164 213 261 315 384
#
# _framework density 19.835612000000001
#
# number of rings (size 3 to 8) (size 9 to 14) (size 15 to 20)
#    0.000    1.412    4.706    1.059    1.647    2.824 
#    0.000    0.000    2.588    0.000    0.000    0.000 
#    0.000    0.000    0.000    0.000    0.000    0.000 
#
# Total GULP energy -189282.409483 kJ/mol
# GULP energy per Si atom -5567.129691 kJ/mol
# Density = 1.979047 g / cm^3
# Si number density = 19.835612 Si / 1000 Ang^3
#
#
#
# Elastic Constant Matrix: (Units=GPa)
#
#
# Indices 1 2 3 4 5 6 
#
# 1 81.2190 6.1867 12.9666 0.0000 0.0000 0.0000
# 2 6.1867 92.9382 64.7557 0.0000 0.0000 0.0000
# 3 12.9666 64.7557 189.5294 0.0000 0.0000 0.0000
# 4 0.0000 0.0000 0.0000 17.2389 0.0000 0.0000
# 5 0.0000 0.0000 0.0000 0.0000 27.3128 0.0000
# 6 0.0000 0.0000 0.0000 0.0000 0.0000 17.6635
#
#
#
# Elastic Compliance Matrix: (Units=1/GPa)
#
#
# Indices 1 2 3 4 5 6 
#
# 1 0.012455 -0.000309 -0.000747 0.000000 0.000000 0.000000
# 2 -0.000309 0.014129 -0.004806 0.000000 0.000000 0.000000
# 3 -0.000747 -0.004806 0.006969 0.000000 0.000000 0.000000
# 4 0.000000 0.000000 0.000000 0.058008 0.000000 0.000000
# 5 0.000000 0.000000 0.000000 0.000000 0.036613 0.000000
# 6 0.000000 0.000000 0.000000 0.000000 0.000000 0.056614
#
#
# Mechanical properties :
#
#
# Convention : Reuss Voigt Hill
#
# Bulk Modulus (GPa) = 45.80821 59.05607 52.43214
# Shear Modulus (GPa) = 24.53512 31.09488 27.81500
#
# Velocity S-wave (km/s) = 3.52081 3.96362 3.74876
# Velocity P-wave (km/s) = 6.29858 7.12632 6.72520
#
# Compressibility (1/GPa) = 0.02183015
#
# Stress axis : x y z
#
# Youngs Moduli (GPa) = 80.28835 70.77503 143.48304
#
# Poissons Ratio (x) = 0.02187 0.10712
# Poissons Ratio (y) = 0.02480 0.68963
# Poissons Ratio (z) = 0.05994 0.34017
#
# Static dielectric constant tensor:
#      x y z
#    x 1.731540 0.000000 0.000000 
#    y 0.000000 1.695800 0.000000 
#    z 0.000000 0.000000 1.710050 
# 
# From -- ./inp_files/50441.got.cif
#   From: 2010.05.17/outbox.cif.g08.bks.cpg/sg63_26_cif.got.tgz:50441.got - 2010.06.03 15:47:04.
