data_PCOD9473526
_publ_section_title
;
Structure prediction by ZEFSAII (Michael W. Deem and Ramdas Pophale) SiO2 
 PCOD9473526
Probable space group: C M C M
;
_chemical_formula_sum "Si O2"
_cell_formula_units_Z 80
_cell_length_a 25.692150
_cell_length_b 9.962973
_cell_length_c 17.835806
_cell_angle_alpha 90.000000
_cell_angle_beta 90.000000
_cell_angle_gamma 90.000000
_cell_volume 4565.434771
_symmetry_space_group_name_H-M "C M C M"
_symmetry_group_IT_number 63
_symmetry_cell_setting 'orthorhombic'
loop_
_space_group_symop_operation_xyz
x,y,z
-x,-y,1/2+z
x,-y,-z
-x,y,1/2-z
-x,-y,-z
x,y,1/2-z
-x,y,z
x,-y,1/2+z
1/2+x,1/2+y,z
1/2-x,1/2-y,1/2+z
1/2+x,1/2-y,-z
1/2-x,1/2+y,1/2-z
1/2-x,1/2-y,-z
1/2+x,1/2+y,1/2-z
1/2-x,1/2+y,z
1/2+x,1/2-y,1/2+z
loop_
_atom_site_type_symbol
_atom_site_label
_atom_site_fract_x
_atom_site_fract_y
_atom_site_fract_z
Si Si1 0.701364 0.084966 0.339241
Si Si2 0.315153 0.405827 0.601111
Si Si3 0.060379 0.342360 0.018436
Si Si4 0.624649 0.834338 0.334579
Si Si5 0.152756 0.813087 0.441734
O O1 0.704695 0.109670 0.250000
O O2 0.758163 0.052376 0.371891
O O3 0.680560 0.213151 0.384467
O O4 0.661693 0.961819 0.351339
O O5 0.339824 0.297392 0.656362
O O6 0.350207 0.538718 0.593189
O O7 0.314900 0.335881 0.518973
O O8 0.080008 0.324729 0.103461
O O9 0.000000 0.307542 0.009032
O O10 0.067086 0.500000 0.000000
O O11 0.098465 0.252873 0.967290
O O12 0.605115 0.847392 0.250000
#
# Coordination Sequence:
#
# PCOD9473526 Si02
#       5
#    16  16  16  16  16
#     4  11  21  34  54  81 115 153 189 223 268 329
#     4  10  21  34  54  82 116 150 181 222 274 336
#     4  10  20  38  63  83 104 139 187 239 282 322
#     4  10  21  36  55  84 115 145 184 228 275 329
#     4  10  21  37  55  83 111 144 189 231 274 328
#
# _framework density 17.522976
#
# number of rings (size 3 to 8) (size 9 to 14) (size 15 to 20)
#    0.000    1.800    2.000    2.400    0.000    8.400 
#    0.000    8.000    0.000    0.600    0.000    0.000 
#    0.000    0.000    0.000    0.000    0.000    0.000 
#
# Total GULP energy -223262.011197 kJ/mol
# GULP energy per Si atom -5581.550280 kJ/mol
# Density = 1.748309 g / cm^3
# Si number density = 17.522976 Si / 1000 Ang^3
#
#
#
# Elastic Constant Matrix: (Units=GPa)
#
#
# Indices 1 2 3 4 5 6 
#
# 1 89.6053 36.6064 41.8880 0.0000 0.0000 0.0000
# 2 36.6064 104.0570 41.1427 0.0000 0.0000 0.0000
# 3 41.8880 41.1427 63.5740 0.0000 0.0000 0.0000
# 4 0.0000 0.0000 0.0000 11.4102 0.0000 0.0000
# 5 0.0000 0.0000 0.0000 0.0000 10.4886 0.0000
# 6 0.0000 0.0000 0.0000 0.0000 0.0000 -5.0110
#
#
#
# Elastic Compliance Matrix: (Units=1/GPa)
#
#
# Indices 1 2 3 4 5 6 
#
# 1 0.016436 -0.002016 -0.009525 0.000000 0.000000 0.000000
# 2 -0.002016 0.013162 -0.007190 0.000000 0.000000 0.000000
# 3 -0.009525 -0.007190 0.026658 0.000000 0.000000 0.000000
# 4 0.000000 0.000000 0.000000 0.087641 0.000000 0.000000
# 5 0.000000 0.000000 0.000000 0.000000 0.095342 0.000000
# 6 0.000000 0.000000 0.000000 0.000000 0.000000 -0.199562
#
#
# Mechanical properties :
#
#
# Convention : Reuss Voigt Hill
#
# Bulk Modulus (GPa) = 53.20425 55.16783 54.18604
# Shear Modulus (GPa) = 59.94959 12.55085 36.25022
#
# Velocity S-wave (km/s) = 5.85545 2.67919 4.55326
# Velocity P-wave (km/s) = 8.72602 6.41266 7.65721
#
# Compressibility (1/GPa) = 0.01879549
#
# Stress axis : x y z
#
# Youngs Moduli (GPa) = 60.84080 75.97613 37.51180
#
# Poissons Ratio (x) = 0.15318 0.35730
# Poissons Ratio (y) = 0.12267 0.26969
# Poissons Ratio (z) = 0.57950 0.54623
#
# Static dielectric constant tensor:
#      x y z
#    x 1.562390 0.000000 0.000000 
#    y 0.000000 1.592730 0.000000 
#    z 0.000000 0.000000 1.606220 
# 
# From -- ./inp_files/48804.got.cif
#   From: 2010.05.17/outbox.cif.g08.bks.cpg/sg63_25_cif.got.tgz:48804.got - 2010.06.03 15:47:04.
