data_PCOD9473439
_publ_section_title
;
Structure prediction by ZEFSAII (Michael W. Deem and Ramdas Pophale) SiO2 
 PCOD9473439
Probable space group: C M C M
;
_chemical_formula_sum "Si O2"
_cell_formula_units_Z 84
_cell_length_a 15.160036
_cell_length_b 11.306289
_cell_length_c 24.298611
_cell_angle_alpha 90.000000
_cell_angle_beta 90.000000
_cell_angle_gamma 90.000000
_cell_volume 4164.873003
_symmetry_space_group_name_H-M "C M C M"
_symmetry_group_IT_number 63
_symmetry_cell_setting 'orthorhombic'
loop_
_space_group_symop_operation_xyz
x,y,z
-x,-y,1/2+z
x,-y,-z
-x,y,1/2-z
-x,-y,-z
x,y,1/2-z
-x,y,z
x,-y,1/2+z
1/2+x,1/2+y,z
1/2-x,1/2-y,1/2+z
1/2+x,1/2-y,-z
1/2-x,1/2+y,1/2-z
1/2-x,1/2-y,-z
1/2+x,1/2+y,1/2-z
1/2-x,1/2+y,z
1/2+x,1/2-y,1/2+z
loop_
_atom_site_type_symbol
_atom_site_label
_atom_site_fract_x
_atom_site_fract_y
_atom_site_fract_z
Si Si1 0.896427 0.318491 0.905930
Si Si2 0.843101 0.500658 0.809922
Si Si3 0.000000 0.393996 0.250000
Si Si4 0.271192 0.408406 0.105243
Si Si5 0.100665 0.645184 0.532325
Si Si6 0.096073 0.076237 0.444329
O O1 0.870555 0.405833 0.856201
O O2 0.834941 0.202823 0.903667
O O3 0.000000 0.286524 0.900917
O O4 0.886854 0.374881 0.966999
O O5 0.825942 0.443382 0.750000
O O6 0.762626 0.576092 0.832987
O O7 0.923193 0.589360 0.797300
O O8 0.184170 0.396679 0.067463
O O9 0.324215 0.527249 0.090947
O O10 0.102415 0.787242 0.540404
O O11 0.000000 0.606684 0.547877
O O12 0.000000 0.055774 0.417853
O O13 0.098663 0.000000 0.500000
#
# Coordination Sequence:
#
# PCOD9473439 Si02
#       6
#    16  16   4  16  16  16
#     4  11  21  38  59  86 117 153 191 235 284 347
#     4  10  23  41  60  79 111 150 193 245 297 336
#     4   8  20  48  56  74 114 152 194 236 318 340
#     4  12  23  34  63  89 116 150 202 236 281 346
#     4  10  23  35  54  89 124 154 189 229 288 348
#     4  10  20  38  55  82 127 162 179 221 290 351
#
# _framework density 20.168683000000001
#
# number of rings (size 3 to 8) (size 9 to 14) (size 15 to 20)
#    0.571    0.952    2.857    2.286    4.000    0.762 
#    0.000    1.905    0.000    1.714    0.000    0.000 
#    0.000    0.000    0.000    0.000    0.000    0.000 
#
# Total GULP energy -233966.410041 kJ/mol
# GULP energy per Si atom -5570.628811 kJ/mol
# Density = 2.012278 g / cm^3
# Si number density = 20.168683 Si / 1000 Ang^3
#
#
#
# Elastic Constant Matrix: (Units=GPa)
#
#
# Indices 1 2 3 4 5 6 
#
# 1 133.3806 43.8375 58.7451 0.0000 0.0000 0.0000
# 2 43.8375 51.8426 9.2429 0.0000 0.0000 0.0000
# 3 58.7451 9.2429 106.9181 0.0000 0.0000 0.0000
# 4 0.0000 0.0000 0.0000 9.1288 0.0000 0.0000
# 5 0.0000 0.0000 0.0000 0.0000 50.8506 0.0000
# 6 0.0000 0.0000 0.0000 0.0000 0.0000 68.6741
#
#
#
# Elastic Compliance Matrix: (Units=1/GPa)
#
#
# Indices 1 2 3 4 5 6 
#
# 1 0.013952 -0.010594 -0.006750 0.000000 0.000000 0.000000
# 2 -0.010594 0.027636 0.003432 0.000000 0.000000 0.000000
# 3 -0.006750 0.003432 0.012765 0.000000 0.000000 0.000000
# 4 0.000000 0.000000 0.000000 0.109543 0.000000 0.000000
# 5 0.000000 0.000000 0.000000 0.000000 0.019665 0.000000
# 6 0.000000 0.000000 0.000000 0.000000 0.000000 0.014562
#
#
# Mechanical properties :
#
#
# Convention : Reuss Voigt Hill
#
# Bulk Modulus (GPa) = 37.69604 57.31026 47.50315
# Shear Modulus (GPa) = 21.29550 37.75174 29.52362
#
# Velocity S-wave (km/s) = 3.25294 4.33112 3.83016
# Velocity P-wave (km/s) = 5.73060 7.31359 6.56995
#
# Compressibility (1/GPa) = 0.02652798
#
# Stress axis : x y z
#
# Youngs Moduli (GPa) = 71.67266 36.18487 78.33902
#
# Poissons Ratio (x) = 0.38336 0.52879
# Poissons Ratio (y) = 0.75933 -0.26885
# Poissons Ratio (z) = 0.48380 -0.12418
#
# Static dielectric constant tensor:
#      x y z
#    x 1.731870 0.000000 0.000000 
#    y 0.000000 1.772140 0.000000 
#    z 0.000000 0.000000 1.725140 
# 
# From -- ./inp_files/62695.got.cif
#   From: 2010.05.17/outbox.cif.g08.bks.cpg/sg63_32_cif.got.tgz:62695.got - 2010.06.03 15:47:04.
