data_PCOD9473886
_publ_section_title
;
Structure prediction by ZEFSAII (Michael W. Deem and Ramdas Pophale) SiO2 
 PCOD9473886
Probable space group: C M C M
;
_chemical_formula_sum "Si O2"
_cell_formula_units_Z 64
_cell_length_a 7.644389
_cell_length_b 41.708778
_cell_length_c 10.346136
_cell_angle_alpha 90.000000
_cell_angle_beta 90.000000
_cell_angle_gamma 90.000000
_cell_volume 3298.742590
_symmetry_space_group_name_H-M "C M C M"
_symmetry_group_IT_number 63
_symmetry_cell_setting 'orthorhombic'
loop_
_space_group_symop_operation_xyz
x,y,z
-x,-y,1/2+z
x,-y,-z
-x,y,1/2-z
-x,-y,-z
x,y,1/2-z
-x,y,z
x,-y,1/2+z
1/2+x,1/2+y,z
1/2-x,1/2-y,1/2+z
1/2+x,1/2-y,-z
1/2-x,1/2+y,1/2-z
1/2-x,1/2-y,-z
1/2+x,1/2+y,1/2-z
1/2-x,1/2+y,z
1/2+x,1/2-y,1/2+z
loop_
_atom_site_type_symbol
_atom_site_label
_atom_site_fract_x
_atom_site_fract_y
_atom_site_fract_z
Si Si1 0.713884 0.099308 0.897428
Si Si2 0.292193 0.722981 0.395821
Si Si3 0.792271 0.650480 0.395744
Si Si4 0.213509 0.473745 0.397626
O O1 0.768165 0.106336 0.750000
O O2 0.500000 0.099854 0.897532
O O3 0.765877 0.062771 0.929193
O O4 0.777672 0.125295 0.000304
O O5 0.222990 0.729644 0.250000
O O6 0.500000 0.721450 0.387046
O O7 0.250000 0.750000 0.500000
O O8 0.230802 0.687489 0.435105
O O9 0.719927 0.646923 0.250000
O O10 0.000000 0.644692 0.387899
O O11 0.274551 0.500000 0.500000
O O12 0.267018 0.480751 0.250000
O O13 0.000000 0.474188 0.398952
#
# Coordination Sequence:
#
# PCOD9473886 Si02
#       4
#    16  16  16  16
#     4   8  14  24  37  55  81 113 148 184 222 265
#     4  10  21  36  53  73  97 124 154 190 232 277
#     4   9  17  29  45  65  89 117 150 187 225 268
#     4   8  13  20  30  47  74 108 144 180 217 259
#
# _framework density 19.401332
#
# number of rings (size 3 to 8) (size 9 to 14) (size 15 to 20)
#    0.000    3.250    0.000    2.250    0.000    3.500 
#    0.000    7.500    0.000    0.000    0.000    0.000 
#    0.000    1.000    0.000    2.250    0.000    4.500 
#
# Total GULP energy -178381.968436 kJ/mol
# GULP energy per Si atom -5574.436514 kJ/mol
# Density = 1.935717 g / cm^3
# Si number density = 19.401332 Si / 1000 Ang^3
#
#
#
# Elastic Constant Matrix: (Units=GPa)
#
#
# Indices 1 2 3 4 5 6 
#
# 1 36.3762 -1.6821 3.3951 0.0000 0.0000 0.0000
# 2 -1.6821 185.1951 154.2625 0.0000 0.0000 0.0000
# 3 3.3951 154.2625 152.4455 0.0000 0.0000 0.0000
# 4 0.0000 0.0000 0.0000 45.2805 0.0000 0.0000
# 5 0.0000 0.0000 0.0000 0.0000 3.3461 0.0000
# 6 0.0000 0.0000 0.0000 0.0000 0.0000 4.3504
#
#
#
# Elastic Compliance Matrix: (Units=1/GPa)
#
#
# Indices 1 2 3 4 5 6 
#
# 1 0.028248 0.004969 -0.005657 0.000000 0.000000 0.000000
# 2 0.004969 0.035245 -0.035776 0.000000 0.000000 0.000000
# 3 -0.005657 -0.035776 0.042888 0.000000 0.000000 0.000000
# 4 0.000000 0.000000 0.000000 0.022085 0.000000 0.000000
# 5 0.000000 0.000000 0.000000 0.000000 0.298854 0.000000
# 6 0.000000 0.000000 0.000000 0.000000 0.000000 0.229866
#
#
# Mechanical properties :
#
#
# Convention : Reuss Voigt Hill
#
# Bulk Modulus (GPa) = 29.89272 76.21866 53.05569
# Shear Modulus (GPa) = 6.74522 25.13148 15.93835
#
# Velocity S-wave (km/s) = 1.86661 3.60300 2.86931
# Velocity P-wave (km/s) = 4.48181 7.52857 6.19540
#
# Compressibility (1/GPa) = 0.03345297
#
# Stress axis : x y z
#
# Youngs Moduli (GPa) = 35.40038 28.37245 23.31636
#
# Poissons Ratio (x) = -0.14098 0.13191
# Poissons Ratio (y) = -0.17590 0.83417
# Poissons Ratio (z) = 0.20027 1.01506
#
# Static dielectric constant tensor:
#      x y z
#    x 1.785600 0.000000 0.000000 
#    y 0.000000 1.659340 0.000000 
#    z 0.000000 0.000000 1.678440 
# 
# From -- ./inp_files/16169.got.cif
#   From: 2010.05.17/outbox.cif.g08.bks.cpg/sg63_9_cif.got.tgz:16169.got - 2010.06.03 15:47:04.
