data_PCOD9473946
_publ_section_title
;
Structure prediction by ZEFSAII (Michael W. Deem and Ramdas Pophale) SiO2 
 PCOD9473946
Probable space group: C M C M
;
_chemical_formula_sum "Si O2"
_cell_formula_units_Z 72
_cell_length_a 26.255813
_cell_length_b 7.618170
_cell_length_c 20.657424
_cell_angle_alpha 90.000000
_cell_angle_beta 90.000000
_cell_angle_gamma 90.000000
_cell_volume 4131.923707
_symmetry_space_group_name_H-M "C M C M"
_symmetry_group_IT_number 63
_symmetry_cell_setting 'orthorhombic'
loop_
_space_group_symop_operation_xyz
x,y,z
-x,-y,1/2+z
x,-y,-z
-x,y,1/2-z
-x,-y,-z
x,y,1/2-z
-x,y,z
x,-y,1/2+z
1/2+x,1/2+y,z
1/2-x,1/2-y,1/2+z
1/2+x,1/2-y,-z
1/2-x,1/2+y,1/2-z
1/2-x,1/2-y,-z
1/2+x,1/2+y,1/2-z
1/2-x,1/2+y,z
1/2+x,1/2-y,1/2+z
loop_
_atom_site_type_symbol
_atom_site_label
_atom_site_fract_x
_atom_site_fract_y
_atom_site_fract_z
Si Si1 0.877821 0.670177 0.323686
Si Si2 0.439525 0.167570 0.454106
Si Si3 0.183998 0.997717 0.632232
Si Si4 0.875067 0.000000 0.000000
Si Si5 0.211033 0.615950 0.823851
O O1 0.897273 0.651520 0.250000
O O2 0.917963 0.642969 0.381375
O O3 0.832678 0.528325 0.333035
O O4 0.852243 0.861699 0.332360
O O5 0.500000 0.197535 0.452275
O O6 0.410187 0.333149 0.484278
O O7 0.429594 0.000000 0.500000
O O8 0.160335 0.968443 0.561893
O O9 0.189263 0.809820 0.666171
O O10 0.240587 0.079969 0.630990
O O11 0.230271 0.599101 0.750000
#
# Coordination Sequence:
#
# PCOD9473946 Si02
#       5
#    16  16  16   8  16
#     4  10  21  36  55  83 113 144 185 228 271 322
#     4  10  21  40  62  81 106 143 185 231 283 331
#     4  11  21  34  52  78 111 149 183 217 265 323
#     4  10  23  38  54  82 110 140 181 228 272 326
#     4  11  20  33  52  76 110 150 181 214 263 323
#
# _framework density 17.425295999999999
#
# number of rings (size 3 to 8) (size 9 to 14) (size 15 to 20)
#    0.000    1.556    2.222    3.667    0.000    1.333 
#    2.000    0.000    0.000    0.000    0.000    6.222 
#    0.000    0.000    0.000    0.000    0.000    0.000 
#
# Total GULP energy -200999.342664 kJ/mol
# GULP energy per Si atom -5583.315074 kJ/mol
# Density = 1.738564 g / cm^3
# Si number density = 17.425296 Si / 1000 Ang^3
#
#
#
# Elastic Constant Matrix: (Units=GPa)
#
#
# Indices 1 2 3 4 5 6 
#
# 1 96.0843 47.9601 78.0546 0.0000 0.0000 0.0000
# 2 47.9601 95.6749 55.3995 0.0000 0.0000 0.0000
# 3 78.0546 55.3995 124.0692 0.0000 0.0000 0.0000
# 4 0.0000 0.0000 0.0000 22.3020 0.0000 0.0000
# 5 0.0000 0.0000 0.0000 0.0000 -0.4867 0.0000
# 6 0.0000 0.0000 0.0000 0.0000 0.0000 15.5523
#
#
#
# Elastic Compliance Matrix: (Units=1/GPa)
#
#
# Indices 1 2 3 4 5 6 
#
# 1 0.022443 -0.004147 -0.012268 0.000000 0.000000 0.000000
# 2 -0.004147 0.014863 -0.004028 0.000000 0.000000 0.000000
# 3 -0.012268 -0.004028 0.017577 0.000000 0.000000 0.000000
# 4 0.000000 0.000000 0.000000 0.044839 0.000000 0.000000
# 5 0.000000 0.000000 0.000000 0.000000 -2.054836 0.000000
# 6 0.000000 0.000000 0.000000 0.000000 0.000000 0.064299
#
#
# Mechanical properties :
#
#
# Convention : Reuss Voigt Hill
#
# Bulk Modulus (GPa) = 71.43986 75.40631 73.42308
# Shear Modulus (GPa) = -2.70964 16.43447 6.86241
#
# Velocity S-wave (km/s) = -1.24835 3.07439 1.98664
# Velocity P-wave (km/s) = 6.24571 7.48134 6.89128
#
# Compressibility (1/GPa) = 0.01399779
#
# Stress axis : x y z
#
# Youngs Moduli (GPa) = 44.55668 67.28097 56.89401
#
# Poissons Ratio (x) = 0.27900 0.69797
# Poissons Ratio (y) = 0.18477 0.22916
# Poissons Ratio (z) = 0.54662 0.27100
#
# Static dielectric constant tensor:
#      x y z
#    x 1.559270 0.000000 0.000000 
#    y 0.000000 1.586370 0.000000 
#    z 0.000000 0.000000 1.590350 
# 
# From -- ./inp_files/47774.got.cif
#   From: 2010.05.17/outbox.cif.g08.bks.cpg/sg63_24_cif.got.tgz:47774.got - 2010.06.03 15:47:04.
