data_PCOD9473379
_publ_section_title
;
Structure prediction by ZEFSAII (Michael W. Deem and Ramdas Pophale) SiO2 
 PCOD9473379
Probable space group: C M C M
;
_chemical_formula_sum "Si O2"
_cell_formula_units_Z 104
_cell_length_a 26.212763
_cell_length_b 19.645640
_cell_length_c 10.511271
_cell_angle_alpha 90.000000
_cell_angle_beta 90.000000
_cell_angle_gamma 90.000000
_cell_volume 5412.952493
_symmetry_space_group_name_H-M "C M C M"
_symmetry_group_IT_number 63
_symmetry_cell_setting 'orthorhombic'
loop_
_space_group_symop_operation_xyz
x,y,z
-x,-y,1/2+z
x,-y,-z
-x,y,1/2-z
-x,-y,-z
x,y,1/2-z
-x,y,z
x,-y,1/2+z
1/2+x,1/2+y,z
1/2-x,1/2-y,1/2+z
1/2+x,1/2-y,-z
1/2-x,1/2+y,1/2-z
1/2-x,1/2-y,-z
1/2+x,1/2+y,1/2-z
1/2-x,1/2+y,z
1/2+x,1/2-y,1/2+z
loop_
_atom_site_type_symbol
_atom_site_label
_atom_site_fract_x
_atom_site_fract_y
_atom_site_fract_z
Si Si1 0.441150 0.293711 0.010118
Si Si2 0.911202 0.057552 0.897749
Si Si3 0.837804 0.768923 0.607199
Si Si4 0.384739 0.000000 0.500000
Si Si5 0.812324 0.389495 0.101601
Si Si6 0.438402 0.798438 0.750000
Si Si7 0.560919 0.954668 0.750000
Si Si8 0.303376 0.374878 0.396782
O O1 0.500000 0.280222 0.975262
O O2 0.436435 0.370638 0.062811
O O3 0.424403 0.243903 0.125070
O O4 0.398741 0.280958 0.903683
O O5 0.923461 0.041080 0.750000
O O6 0.850292 0.072554 0.905938
O O7 0.925116 0.000000 0.000000
O O8 0.820709 0.787484 0.750000
O O9 0.823349 0.690515 0.585081
O O10 0.813887 0.815872 0.498292
O O11 0.348699 0.934777 0.483690
O O12 0.418708 0.990904 0.624431
O O13 0.822769 0.405726 0.250000
O O14 0.752706 0.403855 0.078380
O O15 0.500000 0.799678 0.750000
O O16 0.420683 0.875931 0.750000
O O17 0.500000 0.954318 0.750000
O O18 0.303523 0.349173 0.250000
#
# Coordination Sequence:
#
# PCOD9473379 Si02
#       8
#    16  16  16   8  16   8   8  16
#     4  10  20  37  61  86 117 155 200 255 302 351
#     4  10  21  36  56  84 118 157 200 241 297 363
#     4  10  21  37  59  88 122 153 199 249 300 361
#     4  12  23  42  60  92 124 162 199 244 308 368
#     4  10  21  40  61  87 127 156 194 252 304 357
#     4   9  18  36  64  89 106 149 215 256 289 347
#     4  11  24  42  66  91 124 163 207 254 298 365
#     4   9  20  39  62  86 116 162 201 246 296 352
#
# _framework density 19.213175
#
# number of rings (size 3 to 8) (size 9 to 14) (size 15 to 20)
#    0.000    2.000    1.538    1.615    2.154    3.077 
#    2.769    0.769    0.000    0.000    0.000    0.000 
#    0.000    0.000    0.000    0.000    0.000    0.000 
#
# Total GULP energy -290272.654514 kJ/mol
# GULP energy per Si atom -5582.166433 kJ/mol
# Density = 1.916944 g / cm^3
# Si number density = 19.213175 Si / 1000 Ang^3
#
#
#
# Elastic Constant Matrix: (Units=GPa)
#
#
# Indices 1 2 3 4 5 6 
#
# 1 69.3812 0.3044 14.9443 0.0000 0.0000 0.0000
# 2 0.3044 44.8112 29.0927 0.0000 0.0000 0.0000
# 3 14.9443 29.0927 93.6059 0.0000 0.0000 0.0000
# 4 0.0000 0.0000 0.0000 32.4331 0.0000 0.0000
# 5 0.0000 0.0000 0.0000 0.0000 -4.1581 0.0000
# 6 0.0000 0.0000 0.0000 0.0000 0.0000 11.9838
#
#
#
# Elastic Compliance Matrix: (Units=1/GPa)
#
#
# Indices 1 2 3 4 5 6 
#
# 1 0.015045 0.001826 -0.002969 0.000000 0.000000 0.000000
# 2 0.001826 0.028178 -0.009049 0.000000 0.000000 0.000000
# 3 -0.002969 -0.009049 0.013970 0.000000 0.000000 0.000000
# 4 0.000000 0.000000 0.000000 0.030833 0.000000 0.000000
# 5 0.000000 0.000000 0.000000 0.000000 -0.240494 0.000000
# 6 0.000000 0.000000 0.000000 0.000000 0.000000 0.083446
#
#
# Mechanical properties :
#
#
# Convention : Reuss Voigt Hill
#
# Bulk Modulus (GPa) = 27.16894 32.94234 30.05564
# Shear Modulus (GPa) = -137.48688 18.94888 -59.26900
#
# Velocity S-wave (km/s) = -8.46841 3.14386 -5.56013
# Velocity P-wave (km/s) = 9.02481 5.51012 5.05400
#
# Compressibility (1/GPa) = 0.03680674
#
# Stress axis : x y z
#
# Youngs Moduli (GPa) = 66.46866 35.48807 71.58371
#
# Poissons Ratio (x) = -0.06479 0.21255
# Poissons Ratio (y) = -0.12134 0.64778
# Poissons Ratio (z) = 0.19736 0.32114
#
# Static dielectric constant tensor:
#      x y z
#    x 1.675610 0.000000 0.000000 
#    y 0.000000 1.644310 0.000000 
#    z 0.000000 0.000000 1.667500 
# 
# From -- ./inp_files/12622.got.cif
#   From: 2010.05.17/outbox.cif.g08.bks.cpg/sg63_7_cif.got.tgz:12622.got - 2010.06.03 15:47:04.
