data_PCOD9473560
_publ_section_title
;
Structure prediction by ZEFSAII (Michael W. Deem and Ramdas Pophale) SiO2 
 PCOD9473560
Probable space group: C M C M
;
_chemical_formula_sum "Si O2"
_cell_formula_units_Z 80
_cell_length_a 8.831530
_cell_length_b 25.373673
_cell_length_c 18.719098
_cell_angle_alpha 90.000000
_cell_angle_beta 90.000000
_cell_angle_gamma 90.000000
_cell_volume 4194.731865
_symmetry_space_group_name_H-M "C M C M"
_symmetry_group_IT_number 63
_symmetry_cell_setting 'orthorhombic'
loop_
_space_group_symop_operation_xyz
x,y,z
-x,-y,1/2+z
x,-y,-z
-x,y,1/2-z
-x,-y,-z
x,y,1/2-z
-x,y,z
x,-y,1/2+z
1/2+x,1/2+y,z
1/2-x,1/2-y,1/2+z
1/2+x,1/2-y,-z
1/2-x,1/2+y,1/2-z
1/2-x,1/2-y,-z
1/2+x,1/2+y,1/2-z
1/2-x,1/2+y,z
1/2+x,1/2-y,1/2+z
loop_
_atom_site_type_symbol
_atom_site_label
_atom_site_fract_x
_atom_site_fract_y
_atom_site_fract_z
Si Si1 0.820152 0.889199 0.078275
Si Si2 0.819912 0.726315 0.927308
Si Si3 0.319497 0.184928 0.166710
Si Si4 0.681642 0.918336 0.927860
Si Si5 0.318177 0.980607 0.332627
O O1 0.745147 0.831843 0.084669
O O2 0.763073 0.928476 0.139468
O O3 0.000000 0.884042 0.079295
O O4 0.765649 0.913443 0.002798
O O5 0.770558 0.765773 0.864613
O O6 0.000000 0.723942 0.934408
O O7 0.750000 0.750000 0.000000
O O8 0.287446 0.175592 0.250000
O O9 0.500000 0.195093 0.159496
O O10 0.285497 0.133256 0.119764
O O11 0.500000 0.919594 0.940909
O O12 0.722682 0.970220 0.883156
O O13 0.282906 0.992024 0.250000
O O14 0.500000 0.973521 0.338239
#
# Coordination Sequence:
#
# PCOD9473560 Si02
#       5
#    16  16  16  16  16
#     4  12  25  40  62  91 124 165 209 256 309 368
#     4  12  24  41  64  90 122 162 206 256 309 365
#     4  10  21  38  63  95 128 163 203 250 307 371
#     4  10  20  38  65  93 124 162 206 255 306 367
#     4  10  22  41  64  91 124 164 209 256 308 367
#
# _framework density 19.071541
#
# number of rings (size 3 to 8) (size 9 to 14) (size 15 to 20)
#    0.000    1.200    2.000    4.800    0.000    7.200 
#    0.000    0.000    0.000    3.600    0.000    0.000 
#    0.000    0.000    0.000    0.000    0.000    0.000 
#
# Total GULP energy -223763.645795 kJ/mol
# GULP energy per Si atom -5594.091145 kJ/mol
# Density = 1.902813 g / cm^3
# Si number density = 19.071541 Si / 1000 Ang^3
#
#
#
# Elastic Constant Matrix: (Units=GPa)
#
#
# Indices 1 2 3 4 5 6 
#
# 1 59.0460 38.0631 16.2442 0.0000 0.0000 0.0000
# 2 38.0631 106.7602 -3.2399 0.0000 0.0000 0.0000
# 3 16.2442 -3.2399 29.8919 0.0000 0.0000 0.0000
# 4 0.0000 0.0000 0.0000 24.5755 0.0000 0.0000
# 5 0.0000 0.0000 0.0000 0.0000 26.8772 0.0000
# 6 0.0000 0.0000 0.0000 0.0000 0.0000 29.9596
#
#
#
# Elastic Compliance Matrix: (Units=1/GPa)
#
#
# Indices 1 2 3 4 5 6 
#
# 1 0.028317 -0.010598 -0.016537 0.000000 0.000000 0.000000
# 2 -0.010598 0.013364 0.007208 0.000000 0.000000 0.000000
# 3 -0.016537 0.007208 0.043222 0.000000 0.000000 0.000000
# 4 0.000000 0.000000 0.000000 0.040691 0.000000 0.000000
# 5 0.000000 0.000000 0.000000 0.000000 0.037206 0.000000
# 6 0.000000 0.000000 0.000000 0.000000 0.000000 0.033378
#
#
# Mechanical properties :
#
#
# Convention : Reuss Voigt Hill
#
# Bulk Modulus (GPa) = 22.19827 33.09253 27.64540
# Shear Modulus (GPa) = 19.91643 25.92450 22.92047
#
# Velocity S-wave (km/s) = 3.23507 3.69091 3.47048
# Velocity P-wave (km/s) = 5.06152 5.96265 5.53047
#
# Compressibility (1/GPa) = 0.04504856
#
# Stress axis : x y z
#
# Youngs Moduli (GPa) = 35.31431 74.82829 23.13643
#
# Poissons Ratio (x) = 0.79301 0.38261
# Poissons Ratio (y) = 0.37425 -0.16676
# Poissons Ratio (z) = 0.58400 -0.53934
#
# Static dielectric constant tensor:
#      x y z
#    x 1.641540 0.000000 0.000000 
#    y 0.000000 1.637180 0.000000 
#    z 0.000000 0.000000 1.645410 
# 
# From -- ./inp_files/40526.got.cif
#   From: 2010.05.17/outbox.cif.g08.bks.cpg/sg63_21_cif.got.tgz:40526.got - 2010.06.03 15:47:04.
