data_PCOD9473556
_publ_section_title
;
Structure prediction by ZEFSAII (Michael W. Deem and Ramdas Pophale) SiO2 
 PCOD9473556
Probable space group: C M C M
;
_chemical_formula_sum "Si O2"
_cell_formula_units_Z 64
_cell_length_a 22.782879
_cell_length_b 9.293661
_cell_length_c 14.593166
_cell_angle_alpha 90.000000
_cell_angle_beta 90.000000
_cell_angle_gamma 90.000000
_cell_volume 3089.903763
_symmetry_space_group_name_H-M "C M C M"
_symmetry_group_IT_number 63
_symmetry_cell_setting 'orthorhombic'
loop_
_space_group_symop_operation_xyz
x,y,z
-x,-y,1/2+z
x,-y,-z
-x,y,1/2-z
-x,-y,-z
x,y,1/2-z
-x,y,z
x,-y,1/2+z
1/2+x,1/2+y,z
1/2-x,1/2-y,1/2+z
1/2+x,1/2-y,-z
1/2-x,1/2+y,1/2-z
1/2-x,1/2-y,-z
1/2+x,1/2+y,1/2-z
1/2-x,1/2+y,z
1/2+x,1/2-y,1/2+z
loop_
_atom_site_type_symbol
_atom_site_label
_atom_site_fract_x
_atom_site_fract_y
_atom_site_fract_z
Si Si1 0.000000 0.223127 0.650055
Si Si2 0.698480 0.316008 0.750000
Si Si3 0.500000 0.413418 0.905053
Si Si4 0.870134 0.140763 0.064904
Si Si5 0.677972 0.973137 0.750000
Si Si6 0.388516 0.126293 0.066541
O O1 0.942324 0.275086 0.598481
O O2 0.000000 0.292002 0.750000
O O3 0.000000 0.051775 0.659448
O O4 0.667072 0.371598 0.657277
O O5 0.764201 0.375042 0.750000
O O6 0.693673 0.142356 0.750000
O O7 0.437979 0.332599 0.902138
O O8 0.500000 0.500000 0.000000
O O9 0.849914 0.271726 0.999759
O O10 0.868530 0.000000 0.000000
O O11 0.642422 0.934497 0.657252
O O12 0.409661 0.000000 0.000000
#
# Coordination Sequence:
#
# PCOD9473556 Si02
#       6
#     8   8   8  16   8  16
#     4  12  23  38  70 107 143 185 224 280 346 418
#     4  12  30  49  68 103 135 180 242 294 353 412
#     4  10  20  38  65 104 137 173 224 264 331 418
#     4  11  24  44  73 103 142 183 225 286 349 419
#     4  12  30  49  70 101 135 182 244 298 349 422
#     4  12  24  46  70 103 145 180 230 287 355 419
#
# _framework density 20.712620000000001
#
# number of rings (size 3 to 8) (size 9 to 14) (size 15 to 20)
#    0.000    0.500    8.750    0.375    5.250    2.000 
#    0.000    1.250    0.000    0.000    0.000    0.000 
#    0.000    0.000    0.000    0.000    0.000    0.000 
#
# Total GULP energy -178664.499394 kJ/mol
# GULP energy per Si atom -5583.265606 kJ/mol
# Density = 2.066548 g / cm^3
# Si number density = 20.712620 Si / 1000 Ang^3
#
#
#
# Elastic Constant Matrix: (Units=GPa)
#
#
# Indices 1 2 3 4 5 6 
#
# 1 76.7200 9.2695 45.9797 0.0000 0.0000 0.0000
# 2 9.2695 92.0386 38.6466 0.0000 0.0000 0.0000
# 3 45.9797 38.6466 172.2740 0.0000 0.0000 0.0000
# 4 0.0000 0.0000 0.0000 36.7237 0.0000 0.0000
# 5 0.0000 0.0000 0.0000 0.0000 8.7708 0.0000
# 6 0.0000 0.0000 0.0000 0.0000 0.0000 21.6477
#
#
#
# Elastic Compliance Matrix: (Units=1/GPa)
#
#
# Indices 1 2 3 4 5 6 
#
# 1 0.015520 0.000195 -0.004186 0.000000 0.000000 0.000000
# 2 0.000195 0.011997 -0.002743 0.000000 0.000000 0.000000
# 3 -0.004186 -0.002743 0.007537 0.000000 0.000000 0.000000
# 4 0.000000 0.000000 0.000000 0.027230 0.000000 0.000000
# 5 0.000000 0.000000 0.000000 0.000000 0.114015 0.000000
# 6 0.000000 0.000000 0.000000 0.000000 0.000000 0.046194
#
#
# Mechanical properties :
#
#
# Convention : Reuss Voigt Hill
#
# Bulk Modulus (GPa) = 46.32828 58.75823 52.54325
# Shear Modulus (GPa) = 20.56281 29.90422 25.23352
#
# Velocity S-wave (km/s) = 3.15424 3.80382 3.49416
# Velocity P-wave (km/s) = 5.97339 6.90811 6.45768
#
# Compressibility (1/GPa) = 0.02158509
#
# Stress axis : x y z
#
# Youngs Moduli (GPa) = 64.43499 83.35193 132.67345
#
# Poissons Ratio (x) = -0.01622 0.55534
# Poissons Ratio (y) = -0.01254 0.36397
# Poissons Ratio (z) = 0.26971 0.22866
#
# Static dielectric constant tensor:
#      x y z
#    x 1.727730 0.000000 0.000000 
#    y 0.000000 1.753740 0.000000 
#    z 0.000000 0.000000 1.288640 
# 
# From -- ./inp_files/36268.got.cif
#   From: 2010.05.17/outbox.cif.g08.bks.cpg/sg63_19_cif.got.tgz:36268.got - 2010.06.03 15:47:04.
