data_PCOD9473705
_publ_section_title
;
Structure prediction by ZEFSAII (Michael W. Deem and Ramdas Pophale) SiO2 
 PCOD9473705
Probable space group: C M C M
;
_chemical_formula_sum "Si O2"
_cell_formula_units_Z 88
_cell_length_a 14.671230
_cell_length_b 11.528697
_cell_length_c 27.624647
_cell_angle_alpha 90.000000
_cell_angle_beta 90.000000
_cell_angle_gamma 90.000000
_cell_volume 4672.437360
_symmetry_space_group_name_H-M "C M C M"
_symmetry_group_IT_number 63
_symmetry_cell_setting 'orthorhombic'
loop_
_space_group_symop_operation_xyz
x,y,z
-x,-y,1/2+z
x,-y,-z
-x,y,1/2-z
-x,-y,-z
x,y,1/2-z
-x,y,z
x,-y,1/2+z
1/2+x,1/2+y,z
1/2-x,1/2-y,1/2+z
1/2+x,1/2-y,-z
1/2-x,1/2+y,1/2-z
1/2-x,1/2-y,-z
1/2+x,1/2+y,1/2-z
1/2-x,1/2+y,z
1/2+x,1/2-y,1/2+z
loop_
_atom_site_type_symbol
_atom_site_label
_atom_site_fract_x
_atom_site_fract_y
_atom_site_fract_z
Si Si1 0.500000 0.762701 0.889759
Si Si2 0.500000 0.428208 0.192862
Si Si3 0.762419 0.359031 0.250000
Si Si4 0.672099 0.890260 0.750000
Si Si5 0.644691 0.937951 0.859019
Si Si6 0.099671 0.679451 0.662812
Si Si7 0.500000 0.535544 0.944703
Si Si8 0.861822 0.932271 0.869643
O O1 0.500000 0.685830 0.840429
O O2 0.589625 0.841885 0.888153
O O3 0.500000 0.672244 0.933530
O O4 0.500000 0.409656 0.250000
O O5 0.411626 0.500827 0.174859
O O6 0.693910 0.248381 0.250000
O O7 0.752249 0.501292 0.250000
O O8 0.822410 0.332761 0.202702
O O9 0.625324 0.913834 0.801665
O O10 0.753113 0.939415 0.867017
O O11 0.607976 0.065760 0.869770
O O12 0.112789 0.798070 0.634737
O O13 0.000000 0.680894 0.686322
O O14 0.411404 0.485620 0.916418
O O15 0.500000 0.500000 0.000000
#
# Coordination Sequence:
#
# PCOD9473705 Si02
#       8
#     8   8   8   8  16  16   8  16
#     4  10  24  42  62  88 124 170 206 262 318 375
#     4  10  24  37  55  83 127 168 220 260 301 367
#     4  10  21  32  51  78 121 173 223 253 303 346
#     4  10  22  33  52  87 129 183 215 259 285 368
#     4  11  23  38  59  90 132 169 215 245 314 360
#     4  11  20  36  56  82 121 162 208 256 296 361
#     4  10  24  49  71  94 121 155 205 270 340 393
#     4  10  22  38  64  92 115 167 204 255 313 379
#
# _framework density 18.833853000000001
#
# number of rings (size 3 to 8) (size 9 to 14) (size 15 to 20)
#    0.000    1.818    4.545    0.273    8.909    0.000 
#    0.000    0.909    0.000    1.091    0.000    0.000 
#    0.000    0.000    0.000    0.000    0.000    0.000 
#
# Total GULP energy -245314.159814 kJ/mol
# GULP energy per Si atom -5575.321814 kJ/mol
# Density = 1.879099 g / cm^3
# Si number density = 18.833853 Si / 1000 Ang^3
#
#
#
# Elastic Constant Matrix: (Units=GPa)
#
#
# Indices 1 2 3 4 5 6 
#
# 1 105.4627 7.9062 3.0833 0.0000 0.0000 0.0000
# 2 7.9062 101.9226 -14.7787 0.0000 0.0000 0.0000
# 3 3.0833 -14.7787 42.6263 0.0000 0.0000 0.0000
# 4 0.0000 0.0000 0.0000 11.4355 0.0000 0.0000
# 5 0.0000 0.0000 0.0000 0.0000 6.9236 0.0000
# 6 0.0000 0.0000 0.0000 0.0000 0.0000 27.2454
#
#
#
# Elastic Compliance Matrix: (Units=1/GPa)
#
#
# Indices 1 2 3 4 5 6 
#
# 1 0.009578 -0.000888 -0.001001 0.000000 0.000000 0.000000
# 2 -0.000888 0.010413 0.003674 0.000000 0.000000 0.000000
# 3 -0.001001 0.003674 0.024806 0.000000 0.000000 0.000000
# 4 0.000000 0.000000 0.000000 0.087447 0.000000 0.000000
# 5 0.000000 0.000000 0.000000 0.000000 0.144434 0.000000
# 6 0.000000 0.000000 0.000000 0.000000 0.000000 0.036703
#
#
# Mechanical properties :
#
#
# Convention : Reuss Voigt Hill
#
# Bulk Modulus (GPa) = 20.67468 26.93704 23.80586
# Shear Modulus (GPa) = 15.34057 26.04095 20.69076
#
# Velocity S-wave (km/s) = 2.85708 3.72246 3.31810
# Velocity P-wave (km/s) = 4.67815 5.72792 5.22944
#
# Compressibility (1/GPa) = 0.04836834
#
# Stress axis : x y z
#
# Youngs Moduli (GPa) = 104.40746 96.03341 40.31281
#
# Poissons Ratio (x) = 0.08528 0.04034
# Poissons Ratio (y) = 0.09272 -0.14813
# Poissons Ratio (z) = 0.10448 -0.35287
#
# Static dielectric constant tensor:
#      x y z
#    x 1.726600 0.000000 0.000000 
#    y 0.000000 1.708250 0.000000 
#    z 0.000000 0.000000 1.617880 
# 
# From -- ./inp_files/73325.got.cif
#   From: 2010.05.17/outbox.cif.g08.bks.cpg/sg63_37_cif.got.tgz:73325.got - 2010.06.03 15:47:04.
