data_PCOD9473472
_publ_section_title
;
Structure prediction by ZEFSAII (Michael W. Deem and Ramdas Pophale) SiO2 
 PCOD9473472
Probable space group: C M C M
;
_chemical_formula_sum "Si O2"
_cell_formula_units_Z 56
_cell_length_a 11.495010
_cell_length_b 28.271361
_cell_length_c 9.190493
_cell_angle_alpha 90.000000
_cell_angle_beta 90.000000
_cell_angle_gamma 90.000000
_cell_volume 2986.722531
_symmetry_space_group_name_H-M "C M C M"
_symmetry_group_IT_number 63
_symmetry_cell_setting 'orthorhombic'
loop_
_space_group_symop_operation_xyz
x,y,z
-x,-y,1/2+z
x,-y,-z
-x,y,1/2-z
-x,-y,-z
x,y,1/2-z
-x,y,z
x,-y,1/2+z
1/2+x,1/2+y,z
1/2-x,1/2-y,1/2+z
1/2+x,1/2-y,-z
1/2-x,1/2+y,1/2-z
1/2-x,1/2-y,-z
1/2+x,1/2+y,1/2-z
1/2-x,1/2+y,z
1/2+x,1/2-y,1/2+z
loop_
_atom_site_type_symbol
_atom_site_label
_atom_site_fract_x
_atom_site_fract_y
_atom_site_fract_z
Si Si1 0.676560 0.615735 0.079925
Si Si2 0.000000 0.950096 0.079219
Si Si3 0.131914 0.454156 0.578152
Si Si4 0.635654 0.273388 0.924577
O O1 0.644566 0.607254 0.250000
O O2 0.806501 0.596267 0.060613
O O3 0.651478 0.670282 0.050480
O O4 0.606366 0.581578 0.975166
O O5 0.000000 0.957294 0.250000
O O6 0.000000 0.000000 0.000000
O O7 0.186928 0.500000 0.500000
O O8 0.133052 0.464518 0.750000
O O9 0.000000 0.450390 0.525138
O O10 0.642736 0.265120 0.750000
O O11 0.500000 0.260812 0.968571
O O12 0.750000 0.250000 0.000000
#
# Coordination Sequence:
#
# PCOD9473472 Si02
#       4
#    16   8  16  16
#     4  10  20  38  60  82 114 151 194 247 300 356
#     4  12  24  36  56  86 120 156 196 240 293 358
#     4   9  18  32  52  79 111 149 190 231 283 348
#     4  10  22  41  64  90 122 159 203 262 324 380
#
# _framework density 18.749649000000002
#
# number of rings (size 3 to 8) (size 9 to 14) (size 15 to 20)
#    0.000    2.000    1.429    2.143    0.000    6.286 
#    0.000    2.857    0.000    3.429    0.000    0.000 
#    0.000    0.000    0.000    0.000    0.000    0.000 
#
# Total GULP energy -155932.929812 kJ/mol
# GULP energy per Si atom -5569.033208 kJ/mol
# Density = 1.870697 g / cm^3
# Si number density = 18.749649 Si / 1000 Ang^3
#
#
#
# Elastic Constant Matrix: (Units=GPa)
#
#
# Indices 1 2 3 4 5 6 
#
# 1 127.3508 56.8165 43.3188 0.0000 0.0000 0.0000
# 2 56.8165 88.9761 56.7615 0.0000 0.0000 0.0000
# 3 43.3188 56.7615 72.6649 0.0000 0.0000 0.0000
# 4 0.0000 0.0000 0.0000 31.3034 0.0000 0.0000
# 5 0.0000 0.0000 0.0000 0.0000 28.6071 0.0000
# 6 0.0000 0.0000 0.0000 0.0000 0.0000 22.0006
#
#
#
# Elastic Compliance Matrix: (Units=1/GPa)
#
#
# Indices 1 2 3 4 5 6 
#
# 1 0.011149 -0.005739 -0.002163 0.000000 0.000000 0.000000
# 2 -0.005739 0.025357 -0.016386 0.000000 0.000000 0.000000
# 3 -0.002163 -0.016386 0.027851 0.000000 0.000000 0.000000
# 4 0.000000 0.000000 0.000000 0.031945 0.000000 0.000000
# 5 0.000000 0.000000 0.000000 0.000000 0.034956 0.000000
# 6 0.000000 0.000000 0.000000 0.000000 0.000000 0.045453
#
#
# Mechanical properties :
#
#
# Convention : Reuss Voigt Hill
#
# Bulk Modulus (GPa) = 63.37062 66.97617 65.17339
# Shear Modulus (GPa) = 21.68738 25.18854 23.43796
#
# Velocity S-wave (km/s) = 3.40469 3.66924 3.53944
# Velocity P-wave (km/s) = 7.02336 7.33143 7.17905
#
# Compressibility (1/GPa) = 0.01578018
#
# Stress axis : x y z
#
# Youngs Moduli (GPa) = 89.69768 39.43664 35.90502
#
# Poissons Ratio (x) = 0.22633 0.07767
# Poissons Ratio (y) = 0.51478 0.58835
# Poissons Ratio (z) = 0.19403 0.64622
#
# Static dielectric constant tensor:
#      x y z
#    x 1.706400 0.000000 0.000000 
#    y 0.000000 1.623340 0.000000 
#    z 0.000000 0.000000 1.629560 
# 
# From -- ./inp_files/2806.got.cif
#   From: 2010.05.17/outbox.cif.g08.bks.cpg/sg63_2_cif.got.tgz:2806.got - 2010.06.03 15:47:04.
