data_PCOD9473549
_publ_section_title
;
Structure prediction by ZEFSAII (Michael W. Deem and Ramdas Pophale) SiO2 
 PCOD9473549
Probable space group: C M C M
;
_chemical_formula_sum "Si O2"
_cell_formula_units_Z 100
_cell_length_a 7.432862
_cell_length_b 19.941688
_cell_length_c 27.931210
_cell_angle_alpha 90.000000
_cell_angle_beta 90.000000
_cell_angle_gamma 90.000000
_cell_volume 4140.070502
_symmetry_space_group_name_H-M "C M C M"
_symmetry_group_IT_number 63
_symmetry_cell_setting 'orthorhombic'
loop_
_space_group_symop_operation_xyz
x,y,z
-x,-y,1/2+z
x,-y,-z
-x,y,1/2-z
-x,-y,-z
x,y,1/2-z
-x,y,z
x,-y,1/2+z
1/2+x,1/2+y,z
1/2-x,1/2-y,1/2+z
1/2+x,1/2-y,-z
1/2-x,1/2+y,1/2-z
1/2-x,1/2-y,-z
1/2+x,1/2+y,1/2-z
1/2-x,1/2+y,z
1/2+x,1/2-y,1/2+z
loop_
_atom_site_type_symbol
_atom_site_label
_atom_site_fract_x
_atom_site_fract_y
_atom_site_fract_z
Si Si1 0.793609 0.450370 0.167789
Si Si2 0.284608 0.296479 0.045241
Si Si3 0.782049 0.795069 0.151191
Si Si4 0.214931 0.571579 0.392897
Si Si5 0.219276 0.340501 0.697534
Si Si6 0.293142 0.572880 0.499135
Si Si7 0.000000 0.978185 0.250000
O O1 0.780784 0.370413 0.161127
O O2 0.749051 0.493818 0.120222
O O3 0.656746 0.472330 0.208371
O O4 0.000000 0.468248 0.180130
O O5 0.500000 0.301088 0.048922
O O6 0.223338 0.274448 0.097601
O O7 0.250000 0.250000 0.000000
O O8 0.211006 0.369560 0.031566
O O9 0.726937 0.736413 0.187367
O O10 0.000000 0.797352 0.153199
O O11 0.277306 0.614229 0.347029
O O12 0.292759 0.593787 0.443473
O O13 0.000000 0.580974 0.397112
O O14 0.282327 0.363240 0.750000
O O15 0.000000 0.342672 0.697901
O O16 0.205843 0.500000 0.500000
O O17 0.500000 0.565129 0.515150
#
# Coordination Sequence:
#
# PCOD9473549 Si02
#       7
#    16  16  16  16  16  16   4
#     4  11  25  42  68  98 128 166 218 269 320 384
#     4  10  21  36  58  90 125 169 214 262 322 384
#     4  10  20  38  64  91 126 172 217 265 329 383
#     4  10  22  40  61  92 126 162 209 264 316 378
#     4   9  19  35  59  86 121 165 209 254 318 381
#     4  10  21  37  60  86 118 160 207 258 316 383
#     4  12  26  44  68  94 130 176 214 262 330 378
#
# _framework density 24.154177000000001
#
# number of rings (size 3 to 8) (size 9 to 14) (size 15 to 20)
#    0.000    1.920    0.800    2.160    3.360    4.160 
#    0.000    0.800    0.000    0.960    0.000    0.000 
#    0.000    0.000    0.000    0.000    0.000    0.000 
#
# Total GULP energy -279157.257176 kJ/mol
# GULP energy per Si atom -5583.145144 kJ/mol
# Density = 2.409920 g / cm^3
# Si number density = 24.154177 Si / 1000 Ang^3
#
#
#
# Elastic Constant Matrix: (Units=GPa)
#
#
# Indices 1 2 3 4 5 6 
#
# 1 102.8015 -10.6906 3.7646 0.0000 0.0000 0.0000
# 2 -10.6906 80.2482 -2.3981 0.0000 0.0000 0.0000
# 3 3.7646 -2.3981 92.7078 0.0000 0.0000 0.0000
# 4 0.0000 0.0000 0.0000 28.3601 0.0000 0.0000
# 5 0.0000 0.0000 0.0000 0.0000 21.8007 0.0000
# 6 0.0000 0.0000 0.0000 0.0000 0.0000 5.5185
#
#
#
# Elastic Compliance Matrix: (Units=1/GPa)
#
#
# Indices 1 2 3 4 5 6 
#
# 1 0.009877 0.001305 -0.000367 0.000000 0.000000 0.000000
# 2 0.001305 0.012643 0.000274 0.000000 0.000000 0.000000
# 3 -0.000367 0.000274 0.010809 0.000000 0.000000 0.000000
# 4 0.000000 0.000000 0.000000 0.035261 0.000000 0.000000
# 5 0.000000 0.000000 0.000000 0.000000 0.045870 0.000000
# 6 0.000000 0.000000 0.000000 0.000000 0.000000 0.181210
#
#
# Mechanical properties :
#
#
# Convention : Reuss Voigt Hill
#
# Bulk Modulus (GPa) = 27.97076 28.56771 28.26924
# Shear Modulus (GPa) = 16.38465 30.14130 23.26297
#
# Velocity S-wave (km/s) = 2.60731 3.53635 3.10676
# Velocity P-wave (km/s) = 4.54636 5.34110 4.95967
#
# Compressibility (1/GPa) = 0.03575162
#
# Stress axis : x y z
#
# Youngs Moduli (GPa) = 101.24916 79.09298 92.51905
#
# Poissons Ratio (x) = -0.10320 0.03398
# Poissons Ratio (y) = -0.13211 -0.02536
# Poissons Ratio (z) = 0.03719 -0.02168
#
# Static dielectric constant tensor:
#      x y z
#    x 1.971340 0.000000 0.000000 
#    y 0.000000 1.948470 0.000000 
#    z 0.000000 0.000000 1.902820 
# 
# From -- ./inp_files/67056.got.cif
#   From: 2010.05.17/outbox.cif.g08.bks.cpg/sg63_34_cif.got.tgz:67056.got - 2010.06.03 15:47:04.
