data_PCOD9473519
_publ_section_title
;
Structure prediction by ZEFSAII (Michael W. Deem and Ramdas Pophale) SiO2 
 PCOD9473519
Probable space group: C M C M
;
_chemical_formula_sum "Si O2"
_cell_formula_units_Z 88
_cell_length_a 16.040370
_cell_length_b 27.586905
_cell_length_c 11.001192
_cell_angle_alpha 90.000000
_cell_angle_beta 90.000000
_cell_angle_gamma 90.000000
_cell_volume 4868.073262
_symmetry_space_group_name_H-M "C M C M"
_symmetry_group_IT_number 63
_symmetry_cell_setting 'orthorhombic'
loop_
_space_group_symop_operation_xyz
x,y,z
-x,-y,1/2+z
x,-y,-z
-x,y,1/2-z
-x,-y,-z
x,y,1/2-z
-x,y,z
x,-y,1/2+z
1/2+x,1/2+y,z
1/2-x,1/2-y,1/2+z
1/2+x,1/2-y,-z
1/2-x,1/2+y,1/2-z
1/2-x,1/2-y,-z
1/2+x,1/2+y,1/2-z
1/2-x,1/2+y,z
1/2+x,1/2-y,1/2+z
loop_
_atom_site_type_symbol
_atom_site_label
_atom_site_fract_x
_atom_site_fract_y
_atom_site_fract_z
Si Si1 0.000000 0.202253 0.890692
Si Si2 0.500000 0.038310 0.387374
Si Si3 0.839807 0.773145 0.521481
Si Si4 0.098426 0.287405 0.250000
Si Si5 0.165241 0.442444 0.500688
Si Si6 0.399123 0.898616 0.250000
Si Si7 0.000000 0.123124 0.391059
Si Si8 0.817372 0.116358 0.107603
O O1 0.000000 0.185630 0.750000
O O2 0.087973 0.229287 0.918180
O O3 0.000000 0.162204 0.999550
O O4 0.500000 0.018077 0.250000
O O5 0.586267 0.066463 0.409625
O O6 0.500000 0.000000 0.500000
O O7 0.750000 0.750000 0.500000
O O8 0.875860 0.743408 0.634121
O O9 0.823880 0.829196 0.555884
O O10 0.130998 0.342581 0.250000
O O11 0.000000 0.291999 0.250000
O O12 0.181592 0.500000 0.500000
O O13 0.134884 0.425049 0.369134
O O14 0.247095 0.414020 0.540600
O O15 0.500000 0.899678 0.250000
O O16 0.087970 0.095908 0.402685
O O17 0.000000 0.143843 0.250000
O O18 0.796732 0.118715 0.250000
#
# Coordination Sequence:
#
# PCOD9473519 Si02
#       8
#     8   8  16   8  16   8   8  16
#     4  10  22  36  56  90 127 160 207 256 309 362
#     4  10  22  36  62  89 125 167 204 250 312 376
#     4  11  22  38  62  86 122 164 207 256 312 370
#     4  11  22  40  65  87 121 163 218 252 300 373
#     4  11  24  38  64  89 128 163 209 256 310 371
#     4  11  24  42  59  91 127 169 210 252 306 371
#     4   8  18  38  65  83 116 159 204 253 306 377
#     4  10  20  38  62  90 115 156 209 258 305 366
#
# _framework density 18.076967
#
# number of rings (size 3 to 8) (size 9 to 14) (size 15 to 20)
#    0.000    1.636    2.727    1.636    8.909    0.000 
#    6.545    0.455    0.000    2.182    0.000    0.000 
#    0.000    0.000    0.000    0.000    0.000    0.000 
#
# Total GULP energy -245232.356194 kJ/mol
# GULP energy per Si atom -5573.462641 kJ/mol
# Density = 1.803582 g / cm^3
# Si number density = 18.076967 Si / 1000 Ang^3
#
#
#
# Elastic Constant Matrix: (Units=GPa)
#
#
# Indices 1 2 3 4 5 6 
#
# 1 161.8350 57.3127 64.7804 0.0000 0.0000 0.0000
# 2 57.3127 104.0285 33.0964 0.0000 0.0000 0.0000
# 3 64.7804 33.0964 117.7198 0.0000 0.0000 0.0000
# 4 0.0000 0.0000 0.0000 17.4570 0.0000 0.0000
# 5 0.0000 0.0000 0.0000 0.0000 -204.4456 0.0000
# 6 0.0000 0.0000 0.0000 0.0000 0.0000 27.2890
#
#
#
# Elastic Compliance Matrix: (Units=1/GPa)
#
#
# Indices 1 2 3 4 5 6 
#
# 1 0.009087 -0.003751 -0.003946 0.000000 0.000000 0.000000
# 2 -0.003751 0.012105 -0.001339 0.000000 0.000000 0.000000
# 3 -0.003946 -0.001339 0.011043 0.000000 0.000000 0.000000
# 4 0.000000 0.000000 0.000000 0.057283 0.000000 0.000000
# 5 0.000000 0.000000 0.000000 0.000000 -0.004891 0.000000
# 6 0.000000 0.000000 0.000000 0.000000 0.000000 0.036645
#
#
# Mechanical properties :
#
#
# Convention : Reuss Voigt Hill
#
# Bulk Modulus (GPa) = 70.60765 77.10690 73.85727
# Shear Modulus (GPa) = 34.70648 -16.71367 8.99640
#
# Velocity S-wave (km/s) = 4.38645 -3.04400 2.23328
# Velocity P-wave (km/s) = 8.04977 5.51297 6.89897
#
# Compressibility (1/GPa) = 0.01416277
#
# Stress axis : x y z
#
# Youngs Moduli (GPa) = 110.04711 82.60813 90.55748
#
# Poissons Ratio (x) = 0.30986 0.35734
# Poissons Ratio (y) = 0.41278 0.12128
# Poissons Ratio (z) = 0.43424 0.11063
#
# Static dielectric constant tensor:
#      x y z
#    x 1.650230 0.000000 0.000000 
#    y 0.000000 1.651570 0.000000 
#    z 0.000000 0.000000 1.611240 
# 
# From -- ./inp_files/19854.got.cif
#   From: 2010.05.17/outbox.cif.g08.bks.cpg/sg63_10_cif.got.tgz:19854.got - 2010.06.03 15:47:04.
