data_PCOD9473308
_publ_section_title
;
Structure prediction by ZEFSAII (Michael W. Deem and Ramdas Pophale) SiO2 
 PCOD9473308
Probable space group: C M C M
;
_chemical_formula_sum "Si O2"
_cell_formula_units_Z 104
_cell_length_a 26.557624
_cell_length_b 24.397945
_cell_length_c 8.688781
_cell_angle_alpha 90.000000
_cell_angle_beta 90.000000
_cell_angle_gamma 90.000000
_cell_volume 5629.908245
_symmetry_space_group_name_H-M "C M C M"
_symmetry_group_IT_number 63
_symmetry_cell_setting 'orthorhombic'
loop_
_space_group_symop_operation_xyz
x,y,z
-x,-y,1/2+z
x,-y,-z
-x,y,1/2-z
-x,-y,-z
x,y,1/2-z
-x,y,z
x,-y,1/2+z
1/2+x,1/2+y,z
1/2-x,1/2-y,1/2+z
1/2+x,1/2-y,-z
1/2-x,1/2+y,1/2-z
1/2-x,1/2-y,-z
1/2+x,1/2+y,1/2-z
1/2-x,1/2+y,z
1/2+x,1/2-y,1/2+z
loop_
_atom_site_type_symbol
_atom_site_label
_atom_site_fract_x
_atom_site_fract_y
_atom_site_fract_z
Si Si1 0.609999 0.938395 0.564542
Si Si2 0.441939 0.359520 0.435955
Si Si3 0.285360 0.659607 0.433530
Si Si4 0.825430 0.343526 0.067850
Si Si5 0.869613 0.762211 0.433041
Si Si6 0.500000 0.061358 0.065536
Si Si7 0.142470 0.060740 0.066694
O O1 0.614578 0.938875 0.750000
O O2 0.651729 0.900500 0.489712
O O3 0.554262 0.914940 0.521666
O O4 0.613097 0.000000 0.500000
O O5 0.440304 0.362908 0.250000
O O6 0.500000 0.363558 0.485148
O O7 0.416270 0.301336 0.478778
O O8 0.406272 0.407168 0.501826
O O9 0.289532 0.668817 0.250000
O O10 0.228258 0.664883 0.486558
O O11 0.320275 0.702832 0.521850
O O12 0.309645 0.599923 0.468357
O O13 0.818611 0.342830 0.250000
O O14 0.863332 0.295356 0.016918
O O15 0.871596 0.753349 0.250000
O O16 0.500000 0.058113 0.250000
O O17 0.500000 0.000000 0.000000
O O18 0.137913 0.057331 0.250000
O O19 0.147142 0.000000 0.000000
#
# Coordination Sequence:
#
# PCOD9473308 Si02
#       7
#    16  16  16  16  16   8  16
#     4  10  20  37  58  82 110 142 179 223 273 325
#     4   9  19  37  60  84 112 148 188 232 282 333
#     4  10  21  38  58  80 109 145 186 232 283 334
#     4  12  24  37  55  82 113 147 187 228 275 331
#     4  10  20  37  59  82 110 144 185 232 281 334
#     4   8  16  32  56  78 100 134 172 210 257 312
#     4  10  21  36  57  84 114 149 188 231 278 333
#
# _framework density 18.472770000000001
#
# number of rings (size 3 to 8) (size 9 to 14) (size 15 to 20)
#    0.000    2.000    0.000    3.692    0.000    4.308 
#    1.385    1.538    0.000    0.000    0.000    0.000 
#    0.000    0.000    0.000    0.000    0.000    0.000 
#
# Total GULP energy -290245.612911 kJ/mol
# GULP energy per Si atom -5581.646402 kJ/mol
# Density = 1.843073 g / cm^3
# Si number density = 18.472770 Si / 1000 Ang^3
#
#
#
# Elastic Constant Matrix: (Units=GPa)
#
#
# Indices 1 2 3 4 5 6 
#
# 1 25.7331 3.5586 7.8667 0.0000 0.0000 0.0000
# 2 3.5586 83.2717 14.4557 0.0000 0.0000 0.0000
# 3 7.8667 14.4557 35.2554 0.0000 0.0000 0.0000
# 4 0.0000 0.0000 0.0000 32.4635 0.0000 0.0000
# 5 0.0000 0.0000 0.0000 0.0000 21.7705 0.0000
# 6 0.0000 0.0000 0.0000 0.0000 0.0000 9.1343
#
#
#
# Elastic Compliance Matrix: (Units=1/GPa)
#
#
# Indices 1 2 3 4 5 6 
#
# 1 0.041708 -0.000180 -0.009233 0.000000 0.000000 0.000000
# 2 -0.000180 0.012930 -0.005262 0.000000 0.000000 0.000000
# 3 -0.009233 -0.005262 0.032582 0.000000 0.000000 0.000000
# 4 0.000000 0.000000 0.000000 0.030804 0.000000 0.000000
# 5 0.000000 0.000000 0.000000 0.000000 0.045934 0.000000
# 6 0.000000 0.000000 0.000000 0.000000 0.000000 0.109477
#
#
# Mechanical properties :
#
#
# Convention : Reuss Voigt Hill
#
# Bulk Modulus (GPa) = 17.27958 21.78025 19.52991
# Shear Modulus (GPa) = 15.52443 20.56561 18.04502
#
# Velocity S-wave (km/s) = 2.90210 3.34022 3.12884
# Velocity P-wave (km/s) = 4.53916 5.16645 4.86293
#
# Compressibility (1/GPa) = 0.05787179
#
# Stress axis : x y z
#
# Youngs Moduli (GPa) = 23.97635 77.33980 30.69181
#
# Poissons Ratio (x) = 0.01389 0.28337
# Poissons Ratio (y) = 0.00431 0.16149
# Poissons Ratio (z) = 0.22137 0.40693
#
# Static dielectric constant tensor:
#      x y z
#    x 1.636750 0.000000 0.000000 
#    y 0.000000 1.635020 0.000000 
#    z 0.000000 0.000000 1.592910 
# 
# From -- ./inp_files/12601.got.cif
#   From: 2010.05.17/outbox.cif.g08.bks.cpg/sg63_7_cif.got.tgz:12601.got - 2010.06.03 15:47:04.
