data_PCOD9473175
_publ_section_title
;
Structure prediction by ZEFSAII (Michael W. Deem and Ramdas Pophale) SiO2 
 PCOD9473175
Probable space group: C M C M
;
_chemical_formula_sum "Si O2"
_cell_formula_units_Z 96
_cell_length_a 21.093591
_cell_length_b 14.636954
_cell_length_c 16.454268
_cell_angle_alpha 90.000000
_cell_angle_beta 90.000000
_cell_angle_gamma 90.000000
_cell_volume 5080.188131
_symmetry_space_group_name_H-M "C M C M"
_symmetry_group_IT_number 63
_symmetry_cell_setting 'orthorhombic'
loop_
_space_group_symop_operation_xyz
x,y,z
-x,-y,1/2+z
x,-y,-z
-x,y,1/2-z
-x,-y,-z
x,y,1/2-z
-x,y,z
x,-y,1/2+z
1/2+x,1/2+y,z
1/2-x,1/2-y,1/2+z
1/2+x,1/2-y,-z
1/2-x,1/2+y,1/2-z
1/2-x,1/2-y,-z
1/2+x,1/2+y,1/2-z
1/2-x,1/2+y,z
1/2+x,1/2-y,1/2+z
loop_
_atom_site_type_symbol
_atom_site_label
_atom_site_fract_x
_atom_site_fract_y
_atom_site_fract_z
Si Si1 0.308735 0.166618 0.086117
Si Si2 0.810766 0.712275 0.603997
Si Si3 0.571028 0.271487 0.348292
Si Si4 0.928393 0.164195 0.151467
Si Si5 0.731817 0.979822 0.156027
Si Si6 0.378097 0.532968 0.651116
O O1 0.248950 0.221998 0.123729
O O2 0.374001 0.205507 0.121134
O O3 0.299678 0.060401 0.105177
O O4 0.307420 0.186526 0.990647
O O5 0.875131 0.766093 0.621776
O O6 0.803175 0.616834 0.650263
O O7 0.572263 0.271503 0.250000
O O8 0.500000 0.246587 0.374518
O O9 0.587653 0.374654 0.376180
O O10 0.926890 0.164446 0.250000
O O11 0.000000 0.186431 0.125594
O O12 0.909974 0.061449 0.124494
O O13 0.734224 0.009811 0.250000
O O14 0.804308 0.965364 0.127108
O O15 0.380048 0.533778 0.750000
#
# Coordination Sequence:
#
# PCOD9473175 Si02
#       6
#    16  16  16  16  16  16
#     4  11  23  38  57  83 119 156 191 233 284 343
#     4  11  23  38  57  83 119 156 191 233 284 343
#     4  10  20  36  59  87 118 152 193 238 285 339
#     4  10  20  36  59  87 118 152 193 238 285 339
#     4  11  21  36  62  88 112 147 196 243 282 331
#     4   9  17  31  56  88 118 146 181 236 289 333
#
# _framework density 18.896939
#
# number of rings (size 3 to 8) (size 9 to 14) (size 15 to 20)
#    0.000    1.667    3.333    2.000    0.000    4.000 
#    0.000    1.667    0.000    7.000    0.000    0.000 
#    0.000    0.000    0.000    0.000    0.000    0.000 
#
# Total GULP energy -268176.580769 kJ/mol
# GULP energy per Si atom -5587.012099 kJ/mol
# Density = 1.885393 g / cm^3
# Si number density = 18.896939 Si / 1000 Ang^3
#
#
#
# Elastic Constant Matrix: (Units=GPa)
#
#
# Indices 1 2 3 4 5 6 
#
# 1 152.8702 48.1907 13.5674 0.0000 0.0000 0.0000
# 2 48.1907 81.1992 2.2969 0.0000 0.0000 0.0000
# 3 13.5674 2.2969 17.4692 0.0000 0.0000 0.0000
# 4 0.0000 0.0000 0.0000 4.3078 0.0000 0.0000
# 5 0.0000 0.0000 0.0000 0.0000 16.7903 0.0000
# 6 0.0000 0.0000 0.0000 0.0000 0.0000 22.8236
#
#
#
# Elastic Compliance Matrix: (Units=1/GPa)
#
#
# Indices 1 2 3 4 5 6 
#
# 1 0.008642 -0.004958 -0.006060 0.000000 0.000000 0.000000
# 2 -0.004958 0.015205 0.001851 0.000000 0.000000 0.000000
# 3 -0.006060 0.001851 0.061707 0.000000 0.000000 0.000000
# 4 0.000000 0.000000 0.000000 0.232135 0.000000 0.000000
# 5 0.000000 0.000000 0.000000 0.000000 0.059558 0.000000
# 6 0.000000 0.000000 0.000000 0.000000 0.000000 0.043814
#
#
# Mechanical properties :
#
#
# Convention : Reuss Voigt Hill
#
# Bulk Modulus (GPa) = 14.87628 42.18318 28.52973
# Shear Modulus (GPa) = 10.82715 21.28326 16.05521
#
# Velocity S-wave (km/s) = 2.39625 3.35965 2.91799
# Velocity P-wave (km/s) = 3.94277 6.11726 5.14618
#
# Compressibility (1/GPa) = 0.06722108
#
# Stress axis : x y z
#
# Youngs Moduli (GPa) = 115.71174 65.76654 16.20567
#
# Poissons Ratio (x) = 0.32604 0.09821
# Poissons Ratio (y) = 0.57365 -0.03000
# Poissons Ratio (z) = 0.70122 -0.12174
#
# Static dielectric constant tensor:
#      x y z
#    x 1.635550 0.000000 0.000000 
#    y 0.000000 1.625470 0.000000 
#    z 0.000000 0.000000 1.680920 
# 
# From -- ./inp_files/35342.got.cif
#   From: 2010.05.17/outbox.cif.g08.bks.cpg/sg63_18_cif.got.tgz:35342.got - 2010.06.03 15:47:04.
