data_PCOD9473646
_publ_section_title
;
Structure prediction by ZEFSAII (Michael W. Deem and Ramdas Pophale) SiO2 
 PCOD9473646
Probable space group: C M C M
;
_chemical_formula_sum "Si O2"
_cell_formula_units_Z 80
_cell_length_a 25.357838
_cell_length_b 9.585129
_cell_length_c 18.921106
_cell_angle_alpha 90.000000
_cell_angle_beta 90.000000
_cell_angle_gamma 90.000000
_cell_volume 4598.928990
_symmetry_space_group_name_H-M "C M C M"
_symmetry_group_IT_number 63
_symmetry_cell_setting 'orthorhombic'
loop_
_space_group_symop_operation_xyz
x,y,z
-x,-y,1/2+z
x,-y,-z
-x,y,1/2-z
-x,-y,-z
x,y,1/2-z
-x,y,z
x,-y,1/2+z
1/2+x,1/2+y,z
1/2-x,1/2-y,1/2+z
1/2+x,1/2-y,-z
1/2-x,1/2+y,1/2-z
1/2-x,1/2-y,-z
1/2+x,1/2+y,1/2-z
1/2-x,1/2+y,z
1/2+x,1/2-y,1/2+z
loop_
_atom_site_type_symbol
_atom_site_label
_atom_site_fract_x
_atom_site_fract_y
_atom_site_fract_z
Si Si1 0.648581 0.674627 0.572541
Si Si2 0.331668 0.636420 0.087695
Si Si3 0.061961 0.408999 0.570995
Si Si4 0.868730 0.403318 0.332783
Si Si5 0.220566 0.631816 0.166429
O O1 0.639735 0.513119 0.590657
O O2 0.674928 0.675396 0.494748
O O3 0.596180 0.768154 0.568013
O O4 0.686793 0.746038 0.629665
O O5 0.363097 0.759455 0.125729
O O6 0.275775 0.620320 0.126559
O O7 0.070815 0.500000 0.500000
O O8 0.085478 0.501607 0.634390
O O9 0.000000 0.382640 0.578353
O O10 0.876311 0.379962 0.250000
O O11 0.814557 0.492010 0.342206
O O12 0.228049 0.657151 0.250000
#
# Coordination Sequence:
#
# PCOD9473646 Si02
#       5
#    16  16  16  16  16
#     4  10  22  36  55  84 115 147 189 232 284 335
#     4  11  20  34  53  84 119 150 182 229 282 337
#     4  10  20  40  64  81 105 144 190 237 285 336
#     4  10  21  36  57  84 113 147 191 234 276 333
#     4  10  21  35  54  80 114 158 194 223 269 334
#
# _framework density 17.395356
#
# number of rings (size 3 to 8) (size 9 to 14) (size 15 to 20)
#    0.000    1.800    2.000    2.400    0.000    5.200 
#    0.000    3.000    0.000    0.000    0.000    0.000 
#    0.000    0.000    0.000    0.000    0.000    0.000 
#
# Total GULP energy -223351.401228 kJ/mol
# GULP energy per Si atom -5583.785031 kJ/mol
# Density = 1.735576 g / cm^3
# Si number density = 17.395356 Si / 1000 Ang^3
#
#
#
# Elastic Constant Matrix: (Units=GPa)
#
#
# Indices 1 2 3 4 5 6 
#
# 1 96.1836 47.6052 39.6108 0.0000 0.0000 0.0000
# 2 47.6052 128.8762 68.9550 0.0000 0.0000 0.0000
# 3 39.6108 68.9550 114.2715 0.0000 0.0000 0.0000
# 4 0.0000 0.0000 0.0000 19.5473 0.0000 0.0000
# 5 0.0000 0.0000 0.0000 0.0000 13.1363 0.0000
# 6 0.0000 0.0000 0.0000 0.0000 0.0000 6.7250
#
#
#
# Elastic Compliance Matrix: (Units=1/GPa)
#
#
# Indices 1 2 3 4 5 6 
#
# 1 0.013155 -0.003573 -0.002404 0.000000 0.000000 0.000000
# 2 -0.003573 0.012430 -0.006262 0.000000 0.000000 0.000000
# 3 -0.002404 -0.006262 0.013363 0.000000 0.000000 0.000000
# 4 0.000000 0.000000 0.000000 0.051158 0.000000 0.000000
# 5 0.000000 0.000000 0.000000 0.000000 0.076125 0.000000
# 6 0.000000 0.000000 0.000000 0.000000 0.000000 0.148698
#
#
# Mechanical properties :
#
#
# Convention : Reuss Voigt Hill
#
# Bulk Modulus (GPa) = 69.10852 72.40814 70.75833
# Shear Modulus (GPa) = 14.52514 20.09240 17.30877
#
# Velocity S-wave (km/s) = 2.89277 3.40228 3.15782
# Velocity P-wave (km/s) = 7.13946 7.55972 7.35259
#
# Compressibility (1/GPa) = 0.01447000
#
# Stress axis : x y z
#
# Youngs Moduli (GPa) = 76.01498 80.45273 74.83351
#
# Poissons Ratio (x) = 0.28747 0.17990
# Poissons Ratio (y) = 0.27161 0.46860
# Poissons Ratio (z) = 0.18274 0.50378
#
# Static dielectric constant tensor:
#      x y z
#    x 1.556520 0.000000 0.000000 
#    y 0.000000 1.592440 0.000000 
#    z 0.000000 0.000000 1.583380 
# 
# From -- ./inp_files/48786.got.cif
#   From: 2010.05.17/outbox.cif.g08.bks.cpg/sg63_25_cif.got.tgz:48786.got - 2010.06.03 15:47:04.
