data_PCOD9473054
_publ_section_title
;
Structure prediction by ZEFSAII (Michael W. Deem and Ramdas Pophale) SiO2 
 PCOD9473054
Probable space group: C M C M
;
_chemical_formula_sum "Si O2"
_cell_formula_units_Z 96
_cell_length_a 8.580924
_cell_length_b 25.584655
_cell_length_c 24.377013
_cell_angle_alpha 90.000000
_cell_angle_beta 90.000000
_cell_angle_gamma 90.000000
_cell_volume 5351.728949
_symmetry_space_group_name_H-M "C M C M"
_symmetry_group_IT_number 63
_symmetry_cell_setting 'orthorhombic'
loop_
_space_group_symop_operation_xyz
x,y,z
-x,-y,1/2+z
x,-y,-z
-x,y,1/2-z
-x,-y,-z
x,y,1/2-z
-x,y,z
x,-y,1/2+z
1/2+x,1/2+y,z
1/2-x,1/2-y,1/2+z
1/2+x,1/2-y,-z
1/2-x,1/2+y,1/2-z
1/2-x,1/2-y,-z
1/2+x,1/2+y,1/2-z
1/2-x,1/2+y,z
1/2+x,1/2-y,1/2+z
loop_
_atom_site_type_symbol
_atom_site_label
_atom_site_fract_x
_atom_site_fract_y
_atom_site_fract_z
Si Si1 0.311640 0.166157 0.936789
Si Si2 0.186821 0.771289 0.250000
Si Si3 0.313457 0.266127 0.865241
Si Si4 0.311787 0.023096 0.059099
Si Si5 0.688252 0.144058 0.060360
Si Si6 0.813122 0.932031 0.131758
Si Si7 0.310299 0.392756 0.250000
O O1 0.500000 0.163432 0.935580
O O2 0.261548 0.217990 0.904398
O O3 0.247260 0.115333 0.906032
O O4 0.263044 0.165187 0.000331
O O5 0.247251 0.744024 0.195057
O O6 0.239839 0.832095 0.250000
O O7 0.000000 0.771048 0.250000
O O8 0.500000 0.265433 0.862981
O O9 0.256425 0.319448 0.892666
O O10 0.500000 0.021197 0.060151
O O11 0.247804 0.985788 0.106361
O O12 0.264139 0.083423 0.064461
O O13 0.261834 0.000000 0.000000
O O14 0.500000 0.146007 0.062800
O O15 0.759661 0.920592 0.193974
O O16 0.000000 0.931845 0.131007
O O17 0.500000 0.392556 0.250000
#
# Coordination Sequence:
#
# PCOD9473054 Si02
#       7
#    16   8  16  16  16  16   8
#     4  10  20  36  57  84 118 153 187 232 291 347
#     4  11  21  39  62  81 112 155 196 232 283 357
#     4  11  23  37  57  88 120 147 192 247 290 336
#     4  10  20  38  60  82 114 153 192 234 283 344
#     4  10  21  38  59  81 115 161 195 228 286 354
#     4  11  21  35  58  87 116 147 192 240 288 339
#     4   9  20  37  56  83 116 149 184 234 289 337
#
# _framework density 17.938129
#
# number of rings (size 3 to 8) (size 9 to 14) (size 15 to 20)
#    0.000    1.667    3.333    1.750    0.000    2.333 
#    0.000    2.500    0.000    4.000    0.000    0.000 
#    0.000    0.000    0.000    0.000    0.000    0.000 
#
# Total GULP energy -268143.771063 kJ/mol
# GULP energy per Si atom -5586.328564 kJ/mol
# Density = 1.789730 g / cm^3
# Si number density = 17.938129 Si / 1000 Ang^3
#
#
#
# Elastic Constant Matrix: (Units=GPa)
#
#
# Indices 1 2 3 4 5 6 
#
# 1 17.5731 34.1043 31.5360 0.0000 0.0000 0.0000
# 2 34.1043 155.8906 101.9239 0.0000 0.0000 0.0000
# 3 31.5360 101.9239 181.3488 0.0000 0.0000 0.0000
# 4 0.0000 0.0000 0.0000 34.0697 0.0000 0.0000
# 5 0.0000 0.0000 0.0000 0.0000 23.6114 0.0000
# 6 0.0000 0.0000 0.0000 0.0000 0.0000 29.2058
#
#
#
# Elastic Compliance Matrix: (Units=1/GPa)
#
#
# Indices 1 2 3 4 5 6 
#
# 1 0.106745 -0.017732 -0.008597 0.000000 0.000000 0.000000
# 2 -0.017732 0.013087 -0.004272 0.000000 0.000000 0.000000
# 3 -0.008597 -0.004272 0.009410 0.000000 0.000000 0.000000
# 4 0.000000 0.000000 0.000000 0.029352 0.000000 0.000000
# 5 0.000000 0.000000 0.000000 0.000000 0.042352 0.000000
# 6 0.000000 0.000000 0.000000 0.000000 0.000000 0.034240
#
#
# Mechanical properties :
#
#
# Convention : Reuss Voigt Hill
#
# Bulk Modulus (GPa) = 14.69698 76.66008 45.67853
# Shear Modulus (GPa) = 15.67069 29.86060 22.76564
#
# Velocity S-wave (km/s) = 2.95887 4.08443 3.56634
# Velocity P-wave (km/s) = 4.45917 8.06672 6.51752
#
# Compressibility (1/GPa) = 0.06804118
#
# Stress axis : x y z
#
# Youngs Moduli (GPa) = 9.36811 76.41214 106.26975
#
# Poissons Ratio (x) = 1.35494 0.91357
# Poissons Ratio (y) = 0.16612 0.45396
# Poissons Ratio (z) = 0.08053 0.32641
#
# Static dielectric constant tensor:
#      x y z
#    x 1.609140 0.000000 0.000000 
#    y 0.000000 1.591290 0.000000 
#    z 0.000000 0.000000 1.595810 
# 
# From -- ./inp_files/60098.got.cif
#   From: 2010.05.17/outbox.cif.g08.bks.cpg/sg63_31_cif.got.tgz:60098.got - 2010.06.03 15:47:04.
