data_PCOD9473396
_publ_section_title
;
Structure prediction by ZEFSAII (Michael W. Deem and Ramdas Pophale) SiO2 
 PCOD9473396
Probable space group: C M C M
;
_chemical_formula_sum "Si O2"
_cell_formula_units_Z 120
_cell_length_a 21.436602
_cell_length_b 16.611999
_cell_length_c 16.887771
_cell_angle_alpha 90.000000
_cell_angle_beta 90.000000
_cell_angle_gamma 90.000000
_cell_volume 6013.816500
_symmetry_space_group_name_H-M "C M C M"
_symmetry_group_IT_number 63
_symmetry_cell_setting 'orthorhombic'
loop_
_space_group_symop_operation_xyz
x,y,z
-x,-y,1/2+z
x,-y,-z
-x,y,1/2-z
-x,-y,-z
x,y,1/2-z
-x,y,z
x,-y,1/2+z
1/2+x,1/2+y,z
1/2-x,1/2-y,1/2+z
1/2+x,1/2-y,-z
1/2-x,1/2+y,1/2-z
1/2-x,1/2-y,-z
1/2+x,1/2+y,1/2-z
1/2-x,1/2+y,z
1/2+x,1/2-y,1/2+z
loop_
_atom_site_type_symbol
_atom_site_label
_atom_site_fract_x
_atom_site_fract_y
_atom_site_fract_z
Si Si1 0.570452 0.825573 0.987124
Si Si2 0.610764 0.573338 0.904563
Si Si3 0.000000 0.952923 0.861949
Si Si4 0.688462 0.086750 0.541524
Si Si5 0.265142 0.491633 0.340538
Si Si6 0.901348 0.159392 0.070373
Si Si7 0.859479 0.750460 0.341670
Si Si8 0.243615 0.833957 0.902546
O O1 0.500000 0.854951 0.980456
O O2 0.600149 0.804761 0.901347
O O3 0.618206 0.884465 0.031028
O O4 0.571788 0.741804 0.035286
O O5 0.554357 0.522953 0.868605
O O6 0.674410 0.523706 0.894729
O O7 0.622106 0.657820 0.860257
O O8 0.597581 0.597151 0.995653
O O9 0.945059 0.882766 0.865579
O O10 0.713325 0.070713 0.629002
O O11 0.731569 0.148324 0.491607
O O12 0.696002 0.000000 0.500000
O O13 0.282165 0.478445 0.250000
O O14 0.244179 0.583396 0.354165
O O15 0.830415 0.177282 0.095511
O O16 0.869573 0.732149 0.250000
O O17 0.787487 0.733732 0.365138
#
# Coordination Sequence:
#
# PCOD9473396 Si02
#       8
#    16  16   8  16  16  16  16  16
#     4  10  22  37  60  90 115 157 208 248 309 371
#     4  11  22  34  56  84 119 158 200 243 305 368
#     4  12  23  36  59  92 124 164 202 244 302 370
#     4   9  20  37  59  87 117 149 195 263 308 352
#     4  11  21  35  57  86 115 151 196 251 308 364
#     4  11  20  35  60  85 117 157 204 252 288 357
#     4  10  23  39  56  84 123 161 201 254 310 367
#     4  10  20  37  62  82 113 158 206 249 300 355
#
# _framework density 19.954051
#
# number of rings (size 3 to 8) (size 9 to 14) (size 15 to 20)
#    0.000    1.600    3.333    2.000    4.667    2.133 
#    0.000    1.000    0.000    0.400    0.000    0.000 
#    0.000    0.000    0.000    0.000    0.000    0.000 
#
# Total GULP energy -334215.319519 kJ/mol
# GULP energy per Si atom -5570.255325 kJ/mol
# Density = 1.990863 g / cm^3
# Si number density = 19.954051 Si / 1000 Ang^3
#
#
#
# Elastic Constant Matrix: (Units=GPa)
#
#
# Indices 1 2 3 4 5 6 
#
# 1 161.1960 25.1535 8.1427 0.0000 0.0000 0.0000
# 2 25.1535 35.9127 12.8698 0.0000 0.0000 0.0000
# 3 8.1427 12.8698 31.4910 0.0000 0.0000 0.0000
# 4 0.0000 0.0000 0.0000 12.0845 0.0000 0.0000
# 5 0.0000 0.0000 0.0000 0.0000 -6.8032 0.0000
# 6 0.0000 0.0000 0.0000 0.0000 0.0000 45.8769
#
#
#
# Elastic Compliance Matrix: (Units=1/GPa)
#
#
# Indices 1 2 3 4 5 6 
#
# 1 0.006966 -0.004960 0.000226 0.000000 0.000000 0.000000
# 2 -0.004960 0.036155 -0.013493 0.000000 0.000000 0.000000
# 3 0.000226 -0.013493 0.037211 0.000000 0.000000 0.000000
# 4 0.000000 0.000000 0.000000 0.082751 0.000000 0.000000
# 5 0.000000 0.000000 0.000000 0.000000 -0.146990 0.000000
# 6 0.000000 0.000000 0.000000 0.000000 0.000000 0.021797
#
#
# Mechanical properties :
#
#
# Convention : Reuss Voigt Hill
#
# Bulk Modulus (GPa) = 22.79093 35.65908 29.22500
# Shear Modulus (GPa) = 56.19796 22.39388 39.29592
#
# Velocity S-wave (km/s) = 5.31270 3.35367 4.44252
# Velocity P-wave (km/s) = 7.00568 5.73633 6.40254
#
# Compressibility (1/GPa) = 0.04387710
#
# Stress axis : x y z
#
# Youngs Moduli (GPa) = 143.55005 27.65876 26.87365
#
# Poissons Ratio (x) = 0.13719 -0.00607
# Poissons Ratio (y) = 0.71202 0.36261
# Poissons Ratio (z) = -0.03242 0.37321
#
# Static dielectric constant tensor:
#      x y z
#    x 1.705940 0.000000 0.000000 
#    y 0.000000 1.738440 0.000000 
#    z 0.000000 0.000000 1.738810 
# 
# From -- ./inp_files/47395.got.cif
#   From: 2010.05.17/outbox.cif.g08.bks.cpg/sg63_24_cif.got.tgz:47395.got - 2010.06.03 15:47:04.
