data_PCOD9473016
_publ_section_title
;
Structure prediction by ZEFSAII (Michael W. Deem and Ramdas Pophale) SiO2 
 PCOD9473016
Probable space group: C M C M
;
_chemical_formula_sum "Si O2"
_cell_formula_units_Z 80
_cell_length_a 9.341862
_cell_length_b 28.476341
_cell_length_c 16.393267
_cell_angle_alpha 90.000000
_cell_angle_beta 90.000000
_cell_angle_gamma 90.000000
_cell_volume 4360.970459
_symmetry_space_group_name_H-M "C M C M"
_symmetry_group_IT_number 63
_symmetry_cell_setting 'orthorhombic'
loop_
_space_group_symop_operation_xyz
x,y,z
-x,-y,1/2+z
x,-y,-z
-x,y,1/2-z
-x,-y,-z
x,y,1/2-z
-x,y,z
x,-y,1/2+z
1/2+x,1/2+y,z
1/2-x,1/2-y,1/2+z
1/2+x,1/2-y,-z
1/2-x,1/2+y,1/2-z
1/2-x,1/2-y,-z
1/2+x,1/2+y,1/2-z
1/2-x,1/2+y,z
1/2+x,1/2-y,1/2+z
loop_
_atom_site_type_symbol
_atom_site_label
_atom_site_fract_x
_atom_site_fract_y
_atom_site_fract_z
Si Si1 0.668288 0.731226 0.580458
Si Si2 0.174057 0.533610 0.924721
Si Si3 0.660666 0.832163 0.871871
Si Si4 0.834427 0.641613 0.563067
Si Si5 0.172501 0.489413 0.750000
Si Si6 0.667235 0.391237 0.750000
O O1 0.500000 0.724354 0.562727
O O2 0.750000 0.750000 0.500000
O O3 0.678961 0.776263 0.639342
O O4 0.740824 0.682268 0.605198
O O5 0.218832 0.588098 0.930951
O O6 0.213107 0.514601 0.835037
O O7 0.000000 0.533909 0.929427
O O8 0.222510 0.500000 0.000000
O O9 0.500000 0.845185 0.843830
O O10 0.781157 0.860908 0.826705
O O11 0.665128 0.844962 0.967344
O O12 0.000000 0.643618 0.591585
O O13 0.245131 0.439076 0.750000
O O14 0.000000 0.485170 0.750000
O O15 0.500000 0.399940 0.750000
#
# Coordination Sequence:
#
# PCOD9473016 Si02
#       6
#    16  16  16  16   8   8
#     4   9  17  30  50  75 102 133 168 208 255 309
#     4   9  17  31  53  79 104 135 178 218 252 301
#     4   9  18  33  52  72  98 136 174 205 249 313
#     4   9  17  31  53  78 103 133 171 215 256 301
#     4  10  20  36  57  76 101 139 176 213 259 314
#     4  12  24  34  49  74 103 131 164 219 273 306
#
# _framework density 18.344539999999999
#
# number of rings (size 3 to 8) (size 9 to 14) (size 15 to 20)
#    0.000    2.600    0.000    3.900    0.000    7.200 
#    0.000    2.000    0.000    3.600    0.000    0.000 
#    0.000    0.000    0.000    0.000    0.000    0.000 
#
# Total GULP energy -222816.943824 kJ/mol
# GULP energy per Si atom -5570.423596 kJ/mol
# Density = 1.830279 g / cm^3
# Si number density = 18.344540 Si / 1000 Ang^3
#
#
#
# Elastic Constant Matrix: (Units=GPa)
#
#
# Indices 1 2 3 4 5 6 
#
# 1 51.4081 52.8854 22.1098 0.0000 0.0000 0.0000
# 2 52.8854 177.6624 47.3163 0.0000 0.0000 0.0000
# 3 22.1098 47.3163 66.1567 0.0000 0.0000 0.0000
# 4 0.0000 0.0000 0.0000 3.6217 0.0000 0.0000
# 5 0.0000 0.0000 0.0000 0.0000 11.1183 0.0000
# 6 0.0000 0.0000 0.0000 0.0000 0.0000 31.7268
#
#
#
# Elastic Compliance Matrix: (Units=1/GPa)
#
#
# Indices 1 2 3 4 5 6 
#
# 1 0.029017 -0.007479 -0.004348 0.000000 0.000000 0.000000
# 2 -0.007479 0.008881 -0.003852 0.000000 0.000000 0.000000
# 3 -0.004348 -0.003852 0.019324 0.000000 0.000000 0.000000
# 4 0.000000 0.000000 0.000000 0.276113 0.000000 0.000000
# 5 0.000000 0.000000 0.000000 0.000000 0.089942 0.000000
# 6 0.000000 0.000000 0.000000 0.000000 0.000000 0.031519
#
#
# Mechanical properties :
#
#
# Convention : Reuss Voigt Hill
#
# Bulk Modulus (GPa) = 38.66653 59.98335 49.32494
# Shear Modulus (GPa) = 10.10558 20.82108 15.46333
#
# Velocity S-wave (km/s) = 2.34962 3.37263 2.90649
# Velocity P-wave (km/s) = 5.33710 6.92354 6.18143
#
# Compressibility (1/GPa) = 0.02586216
#
# Stress axis : x y z
#
# Youngs Moduli (GPa) = 34.46304 112.59953 51.74941
#
# Poissons Ratio (x) = 0.84218 0.22501
# Poissons Ratio (y) = 0.25777 0.19935
# Poissons Ratio (z) = 0.14985 0.43375
#
# Static dielectric constant tensor:
#      x y z
#    x 1.631040 0.000000 0.000000 
#    y 0.000000 1.657810 0.000000 
#    z 0.000000 0.000000 1.657580 
# 
# From -- ./inp_files/40546.got.cif
#   From: 2010.05.17/outbox.cif.g08.bks.cpg/sg63_21_cif.got.tgz:40546.got - 2010.06.03 15:47:04.
