data_PCOD9473055
_publ_section_title
;
Structure prediction by ZEFSAII (Michael W. Deem and Ramdas Pophale) SiO2 
 PCOD9473055
Probable space group: C M C M
;
_chemical_formula_sum "Si O2"
_cell_formula_units_Z 96
_cell_length_a 7.911065
_cell_length_b 24.393254
_cell_length_c 22.483251
_cell_angle_alpha 90.000000
_cell_angle_beta 90.000000
_cell_angle_gamma 90.000000
_cell_volume 4338.741739
_symmetry_space_group_name_H-M "C M C M"
_symmetry_group_IT_number 63
_symmetry_cell_setting 'orthorhombic'
loop_
_space_group_symop_operation_xyz
x,y,z
-x,-y,1/2+z
x,-y,-z
-x,y,1/2-z
-x,-y,-z
x,y,1/2-z
-x,y,z
x,-y,1/2+z
1/2+x,1/2+y,z
1/2-x,1/2-y,1/2+z
1/2+x,1/2-y,-z
1/2-x,1/2+y,1/2-z
1/2-x,1/2-y,-z
1/2+x,1/2+y,1/2-z
1/2-x,1/2+y,z
1/2+x,1/2-y,1/2+z
loop_
_atom_site_type_symbol
_atom_site_label
_atom_site_fract_x
_atom_site_fract_y
_atom_site_fract_z
Si Si1 0.801802 0.688907 0.185146
Si Si2 0.689648 0.246534 0.068567
Si Si3 0.695280 0.430455 0.840512
Si Si4 0.802832 0.363876 0.417831
Si Si5 0.203855 0.559590 0.473866
Si Si6 0.203986 0.946746 0.183901
O O1 0.730602 0.706610 0.250000
O O2 0.726774 0.712089 0.122826
O O3 0.788483 0.623218 0.182193
O O4 0.000000 0.704778 0.185307
O O5 0.500000 0.224427 0.063414
O O6 0.698110 0.309013 0.091163
O O7 0.750000 0.250000 0.000000
O O8 0.500000 0.426451 0.821709
O O9 0.708667 0.430674 0.911626
O O10 0.761547 0.490113 0.821431
O O11 0.752052 0.394015 0.478638
O O12 0.780401 0.408188 0.366067
O O13 0.000000 0.348399 0.422135
O O14 0.248476 0.500000 0.500000
O O15 0.000000 0.560325 0.465399
O O16 0.242749 0.926430 0.250000
O O17 0.000000 0.947205 0.176163
#
# Coordination Sequence:
#
# PCOD9473055 Si02
#       6
#    16  16  16  16  16  16
#     4  10  23  43  65  88 118 163 213 256 308 376
#     4  11  24  43  66  92 124 162 207 259 316 374
#     4  11  22  36  60  92 125 157 198 252 306 361
#     4  11  23  39  61  89 119 154 199 248 299 357
#     4  10  20  36  57  84 121 160 197 241 295 359
#     4  10  22  39  57  82 120 161 196 237 296 362
#
# _framework density 22.12623
#
# number of rings (size 3 to 8) (size 9 to 14) (size 15 to 20)
#    0.000    1.500    1.667    3.000    0.000    9.667 
#    0.000    1.667    0.000    0.000    0.000    0.000 
#    0.000    0.000    0.000    0.000    0.000    0.000 
#
# Total GULP energy -268198.445079 kJ/mol
# GULP energy per Si atom -5587.467606 kJ/mol
# Density = 2.207587 g / cm^3
# Si number density = 22.126230 Si / 1000 Ang^3
#
#
#
# Elastic Constant Matrix: (Units=GPa)
#
#
# Indices 1 2 3 4 5 6 
#
# 1 18.9846 -2.1202 16.2606 0.0000 0.0000 0.0000
# 2 -2.1202 80.7819 30.8213 0.0000 0.0000 0.0000
# 3 16.2606 30.8213 175.6418 0.0000 0.0000 0.0000
# 4 0.0000 0.0000 0.0000 -2.9206 0.0000 0.0000
# 5 0.0000 0.0000 0.0000 0.0000 -172.3132 0.0000
# 6 0.0000 0.0000 0.0000 0.0000 0.0000 22.4995
#
#
#
# Elastic Compliance Matrix: (Units=1/GPa)
#
#
# Indices 1 2 3 4 5 6 
#
# 1 0.058306 0.003847 -0.006073 0.000000 0.000000 0.000000
# 2 0.003847 0.013521 -0.002729 0.000000 0.000000 0.000000
# 3 -0.006073 -0.002729 0.006734 0.000000 0.000000 0.000000
# 4 0.000000 0.000000 0.000000 -0.342394 0.000000 0.000000
# 5 0.000000 0.000000 0.000000 0.000000 -0.005803 0.000000
# 6 0.000000 0.000000 0.000000 0.000000 0.000000 0.044445
#
#
# Mechanical properties :
#
#
# Convention : Reuss Voigt Hill
#
# Bulk Modulus (GPa) = 14.56616 40.59239 27.57928
# Shear Modulus (GPa) = -25.98783 -15.18375 -20.58579
#
# Velocity S-wave (km/s) = -3.43085 -2.62245 -3.05352
# Velocity P-wave (km/s) = 3.01610 3.03579 0.24411
#
# Compressibility (1/GPa) = 0.06865228
#
# Stress axis : x y z
#
# Youngs Moduli (GPa) = 17.15103 73.95824 148.48952
#
# Poissons Ratio (x) = -0.28454 0.90177
# Poissons Ratio (y) = -0.06599 0.40520
# Poissons Ratio (z) = 0.10416 0.20182
#
# Static dielectric constant tensor:
#      x y z
#    x 1.860300 0.000000 0.000000 
#    y 0.000000 1.780480 0.000000 
#    z 0.000000 0.000000 1.844460 
# 
# From -- ./inp_files/51339.got.cif
#   From: 2010.05.17/outbox.cif.g08.bks.cpg/sg63_26_cif.got.tgz:51339.got - 2010.06.03 15:47:04.
