data_PCOD9473158
_publ_section_title
;
Structure prediction by ZEFSAII (Michael W. Deem and Ramdas Pophale) SiO2 
 PCOD9473158
Probable space group: C M C M
;
_chemical_formula_sum "Si O2"
_cell_formula_units_Z 96
_cell_length_a 8.710423
_cell_length_b 20.172698
_cell_length_c 29.960543
_cell_angle_alpha 90.000000
_cell_angle_beta 90.000000
_cell_angle_gamma 90.000000
_cell_volume 5264.448882
_symmetry_space_group_name_H-M "C M C M"
_symmetry_group_IT_number 63
_symmetry_cell_setting 'orthorhombic'
loop_
_space_group_symop_operation_xyz
x,y,z
-x,-y,1/2+z
x,-y,-z
-x,y,1/2-z
-x,-y,-z
x,y,1/2-z
-x,y,z
x,-y,1/2+z
1/2+x,1/2+y,z
1/2-x,1/2-y,1/2+z
1/2+x,1/2-y,-z
1/2-x,1/2+y,1/2-z
1/2-x,1/2-y,-z
1/2+x,1/2+y,1/2-z
1/2-x,1/2+y,z
1/2+x,1/2-y,1/2+z
loop_
_atom_site_type_symbol
_atom_site_label
_atom_site_fract_x
_atom_site_fract_y
_atom_site_fract_z
Si Si1 0.686898 0.389985 0.199306
Si Si2 0.822645 0.435739 0.468482
Si Si3 0.685846 0.510005 0.877243
Si Si4 0.814675 0.738449 0.301734
Si Si5 0.816751 0.184858 0.022901
Si Si6 0.685574 0.356088 0.877929
O O1 0.736710 0.403636 0.250000
O O2 0.500000 0.390307 0.199305
O O3 0.737384 0.445580 0.164614
O O4 0.732444 0.314523 0.187597
O O5 0.817603 0.500000 0.500000
O O6 0.748696 0.456282 0.421809
O O7 0.733665 0.377515 0.493330
O O8 0.000000 0.416112 0.462185
O O9 0.500000 0.510624 0.878724
O O10 0.734357 0.433132 0.874623
O O11 0.770627 0.725021 0.250000
O O12 0.746975 0.687460 0.337132
O O13 0.000000 0.735774 0.303763
O O14 0.763772 0.173013 0.074032
O O15 0.000000 0.189271 0.023734
O O16 0.750000 0.250000 0.000000
O O17 0.500000 0.354898 0.876985
#
# Coordination Sequence:
#
# PCOD9473158 Si02
#       6
#    16  16  16  16  16  16
#     4   8  16  33  57  84 109 138 183 230 275 337
#     4  11  23  39  59  84 116 155 192 232 284 343
#     4  10  20  36  59  85 111 148 189 234 288 337
#     4   9  19  36  57  81 111 147 187 231 280 338
#     4  11  24  41  59  84 118 153 193 241 287 342
#     4  10  22  37  55  83 116 145 185 239 288 334
#
# _framework density 18.235527000000001
#
# number of rings (size 3 to 8) (size 9 to 14) (size 15 to 20)
#    0.000    2.167    1.667    2.000    2.333    3.667 
#    0.000    1.667    0.000    1.500    0.000    0.000 
#    0.000    0.000    0.000    0.000    0.000    0.000 
#
# Total GULP energy -267913.002654 kJ/mol
# GULP energy per Si atom -5581.520889 kJ/mol
# Density = 1.819402 g / cm^3
# Si number density = 18.235527 Si / 1000 Ang^3
#
#
#
# Elastic Constant Matrix: (Units=GPa)
#
#
# Indices 1 2 3 4 5 6 
#
# 1 22.1601 33.4181 31.2887 0.0000 0.0000 0.0000
# 2 33.4181 134.6534 111.7947 0.0000 0.0000 0.0000
# 3 31.2887 111.7947 168.3365 0.0000 0.0000 0.0000
# 4 0.0000 0.0000 0.0000 40.0369 0.0000 0.0000
# 5 0.0000 0.0000 0.0000 0.0000 23.4964 0.0000
# 6 0.0000 0.0000 0.0000 0.0000 0.0000 28.2888
#
#
#
# Elastic Compliance Matrix: (Units=1/GPa)
#
#
# Indices 1 2 3 4 5 6 
#
# 1 0.072992 -0.015271 -0.003425 0.000000 0.000000 0.000000
# 2 -0.015271 0.019749 -0.010277 0.000000 0.000000 0.000000
# 3 -0.003425 -0.010277 0.013402 0.000000 0.000000 0.000000
# 4 0.000000 0.000000 0.000000 0.024977 0.000000 0.000000
# 5 0.000000 0.000000 0.000000 0.000000 0.042560 0.000000
# 6 0.000000 0.000000 0.000000 0.000000 0.000000 0.035350
#
#
# Mechanical properties :
#
#
# Convention : Reuss Voigt Hill
#
# Bulk Modulus (GPa) = 20.74858 75.35034 48.04946
# Shear Modulus (GPa) = 17.66523 28.27431 22.96977
#
# Velocity S-wave (km/s) = 3.11581 3.94192 3.55296
# Velocity P-wave (km/s) = 4.93429 7.88217 6.57555
#
# Compressibility (1/GPa) = 0.04819606
#
# Stress axis : x y z
#
# Youngs Moduli (GPa) = 13.70015 50.63562 74.61435
#
# Poissons Ratio (x) = 0.77328 0.25556
# Poissons Ratio (y) = 0.20922 0.76682
# Poissons Ratio (z) = 0.04692 0.52039
#
# Static dielectric constant tensor:
#      x y z
#    x 1.622970 0.000000 0.000000 
#    y 0.000000 1.566990 0.000000 
#    z 0.000000 0.000000 1.605650 
# 
# From -- ./inp_files/66877.got.cif
#   From: 2010.05.17/outbox.cif.g08.bks.cpg/sg63_34_cif.got.tgz:66877.got - 2010.06.03 15:47:04.
