data_PCOD9473317
_publ_section_title
;
Structure prediction by ZEFSAII (Michael W. Deem and Ramdas Pophale) SiO2 
 PCOD9473317
Probable space group: C M C M
;
_chemical_formula_sum "Si O2"
_cell_formula_units_Z 100
_cell_length_a 21.259658
_cell_length_b 28.236520
_cell_length_c 7.586044
_cell_angle_alpha 90.000000
_cell_angle_beta 90.000000
_cell_angle_gamma 90.000000
_cell_volume 4553.892794
_symmetry_space_group_name_H-M "C M C M"
_symmetry_group_IT_number 63
_symmetry_cell_setting 'orthorhombic'
loop_
_space_group_symop_operation_xyz
x,y,z
-x,-y,1/2+z
x,-y,-z
-x,y,1/2-z
-x,-y,-z
x,y,1/2-z
-x,y,z
x,-y,1/2+z
1/2+x,1/2+y,z
1/2-x,1/2-y,1/2+z
1/2+x,1/2-y,-z
1/2-x,1/2+y,1/2-z
1/2-x,1/2-y,-z
1/2+x,1/2+y,1/2-z
1/2-x,1/2+y,z
1/2+x,1/2-y,1/2+z
loop_
_atom_site_type_symbol
_atom_site_label
_atom_site_fract_x
_atom_site_fract_y
_atom_site_fract_z
Si Si1 0.685229 0.053779 0.047483
Si Si2 0.411045 0.617215 0.047230
Si Si3 0.928834 0.611175 0.537477
Si Si4 0.000000 0.919564 0.250000
Si Si5 0.272993 0.363149 0.051260
Si Si6 0.162440 0.697235 0.965365
Si Si7 0.431711 0.273914 0.963907
O O1 0.700830 0.061974 0.250000
O O2 0.612110 0.066060 0.017716
O O3 0.725062 0.092652 0.943239
O O4 0.699014 0.000000 0.000000
O O5 0.429826 0.608570 0.250000
O O6 0.429878 0.670880 0.992748
O O7 0.445019 0.584012 0.906526
O O8 0.335607 0.619508 0.042098
O O9 0.930852 0.612335 0.750000
O O10 0.888042 0.656827 0.482674
O O11 0.000000 0.611771 0.471888
O O12 0.291537 0.350220 0.250000
O O13 0.231126 0.320059 0.973100
O O14 0.166127 0.697377 0.750000
O O15 0.129733 0.745662 0.025117
O O16 0.430855 0.270900 0.750000
O O17 0.500000 0.254210 0.021288
#
# Coordination Sequence:
#
# PCOD9473317 Si02
#       7
#    16  16  16   4  16  16  16
#     4  11  22  37  57  80 110 143 185 236 283 343
#     4  11  22  37  60  86 117 151 192 235 287 340
#     4   9  17  31  52  77 108 148 194 239 290 339
#     4  12  22  40  60  86 118 148 186 244 284 342
#     4  10  20  37  58  84 116 148 185 230 285 343
#     4   8  15  28  50  77 109 152 194 237 283 332
#     4   9  16  28  49  77 110 148 196 243 282 329
#
# _framework density 21.959233999999999
#
# number of rings (size 3 to 8) (size 9 to 14) (size 15 to 20)
#    0.000    2.240    1.600    3.600    0.000    3.200 
#    0.000    0.000    8.800    0.000    0.000    0.560 
#    0.000    0.000    0.000    0.000    0.000    0.000 
#
# Total GULP energy -278549.268239 kJ/mol
# GULP energy per Si atom -5570.985365 kJ/mol
# Density = 2.190925 g / cm^3
# Si number density = 21.959234 Si / 1000 Ang^3
#
#
#
# Elastic Constant Matrix: (Units=GPa)
#
#
# Indices 1 2 3 4 5 6 
#
# 1 131.0103 -15.7745 11.7853 0.0000 0.0000 0.0000
# 2 -15.7745 6.2831 -9.0422 0.0000 0.0000 0.0000
# 3 11.7853 -9.0422 91.3461 0.0000 0.0000 0.0000
# 4 0.0000 0.0000 0.0000 5.0822 0.0000 0.0000
# 5 0.0000 0.0000 0.0000 0.0000 -8.7263 0.0000
# 6 0.0000 0.0000 0.0000 0.0000 0.0000 13.7671
#
#
#
# Elastic Compliance Matrix: (Units=1/GPa)
#
#
# Indices 1 2 3 4 5 6 
#
# 1 0.011125 0.030163 0.001550 0.000000 0.000000 0.000000
# 2 0.030163 0.267376 0.022576 0.000000 0.000000 0.000000
# 3 0.001550 0.022576 0.012982 0.000000 0.000000 0.000000
# 4 0.000000 0.000000 0.000000 0.196763 0.000000 0.000000
# 5 0.000000 0.000000 0.000000 0.000000 -0.114596 0.000000
# 6 0.000000 0.000000 0.000000 0.000000 0.000000 0.072637
#
#
# Mechanical properties :
#
#
# Convention : Reuss Voigt Hill
#
# Bulk Modulus (GPa) = 2.49961 22.50850 12.50406
# Shear Modulus (GPa) = 10.61427 18.13601 14.37514
#
# Velocity S-wave (km/s) = 2.20094 2.87696 2.56135
# Velocity P-wave (km/s) = 2.75674 4.61608 3.80183
#
# Compressibility (1/GPa) = 0.40006226
#
# Stress axis : x y z
#
# Youngs Moduli (GPa) = 89.88483 3.74005 77.02920
#
# Poissons Ratio (x) = -0.11281 -0.11943
# Poissons Ratio (y) = -2.71120 -1.73899
# Poissons Ratio (z) = -0.13936 -0.08443
#
# Static dielectric constant tensor:
#      x y z
#    x 1.853030 0.000000 0.000000 
#    y 0.000000 1.798450 0.000000 
#    z 0.000000 0.000000 1.882510 
# 
# From -- ./inp_files/9122.got.cif
#   From: 2010.05.17/outbox.cif.g08.bks.cpg/sg63_5_cif.got.tgz:9122.got - 2010.06.03 15:47:04.
