data_PCOD9473834
_publ_section_title
;
Structure prediction by ZEFSAII (Michael W. Deem and Ramdas Pophale) SiO2 
 PCOD9473834
Probable space group: C M C M
;
_chemical_formula_sum "Si O2"
_cell_formula_units_Z 88
_cell_length_a 19.638409
_cell_length_b 25.113303
_cell_length_c 7.529318
_cell_angle_alpha 90.000000
_cell_angle_beta 90.000000
_cell_angle_gamma 90.000000
_cell_volume 3713.349074
_symmetry_space_group_name_H-M "C M C M"
_symmetry_group_IT_number 63
_symmetry_cell_setting 'orthorhombic'
loop_
_space_group_symop_operation_xyz
x,y,z
-x,-y,1/2+z
x,-y,-z
-x,y,1/2-z
-x,-y,-z
x,y,1/2-z
-x,y,z
x,-y,1/2+z
1/2+x,1/2+y,z
1/2-x,1/2-y,1/2+z
1/2+x,1/2-y,-z
1/2-x,1/2+y,1/2-z
1/2-x,1/2-y,-z
1/2+x,1/2+y,1/2-z
1/2-x,1/2+y,z
1/2+x,1/2-y,1/2+z
loop_
_atom_site_type_symbol
_atom_site_label
_atom_site_fract_x
_atom_site_fract_y
_atom_site_fract_z
Si Si1 0.000000 0.936687 0.462014
Si Si2 0.573539 0.721972 0.463179
Si Si3 0.421901 0.941271 0.462713
Si Si4 0.852150 0.061937 0.536790
Si Si5 0.863280 0.670868 0.532564
Si Si6 0.215034 0.836675 0.461444
O O1 0.926634 0.919414 0.533067
O O2 0.000000 0.928234 0.250000
O O3 0.000000 0.000000 0.500000
O O4 0.570183 0.721195 0.250000
O O5 0.500000 0.701184 0.530134
O O6 0.585004 0.782997 0.522725
O O7 0.643774 0.692537 0.507442
O O8 0.424699 0.936832 0.250000
O O9 0.500000 0.940607 0.530452
O O10 0.383106 0.888552 0.525947
O O11 0.392379 0.000000 0.500000
O O12 0.855209 0.066394 0.750000
O O13 0.795979 0.102923 0.471997
O O14 0.841064 0.000000 0.500000
O O15 0.864879 0.671176 0.750000
O O16 0.786687 0.685456 0.470919
O O17 0.223297 0.838458 0.250000
#
# Coordination Sequence:
#
# PCOD9473834 Si02
#       6
#     8  16  16  16  16  16
#     4   8  14  26  42  60  84 118 156 194 231 278
#     4  10  21  37  57  79 102 134 178 222 261 311
#     4   9  17  31  53  80 110 144 180 219 260 307
#     4   9  18  31  48  70  98 132 167 203 249 301
#     4   9  18  35  56  77 105 142 179 212 258 318
#     4  10  21  35  54  79 107 138 172 217 268 317
#
# _framework density 23.698284000000001
#
# number of rings (size 3 to 8) (size 9 to 14) (size 15 to 20)
#    0.000    2.727    0.000    1.091    1.273    4.000 
#    0.000    1.818    0.000    2.182    0.000    0.000 
#    0.000    0.000    0.000    0.000    0.000    0.000 
#
# Total GULP energy -245507.075770 kJ/mol
# GULP energy per Si atom -5579.706268 kJ/mol
# Density = 2.364435 g / cm^3
# Si number density = 23.698284 Si / 1000 Ang^3
#
#
#
# Elastic Constant Matrix: (Units=GPa)
#
#
# Indices 1 2 3 4 5 6 
#
# 1 110.9758 35.0464 -0.4605 0.0000 0.0000 0.0000
# 2 35.0464 95.5946 -8.9355 0.0000 0.0000 0.0000
# 3 -0.4605 -8.9355 59.0304 0.0000 0.0000 0.0000
# 4 0.0000 0.0000 0.0000 15.5384 0.0000 0.0000
# 5 0.0000 0.0000 0.0000 0.0000 11.2735 0.0000
# 6 0.0000 0.0000 0.0000 0.0000 0.0000 34.4764
#
#
#
# Elastic Compliance Matrix: (Units=1/GPa)
#
#
# Indices 1 2 3 4 5 6 
#
# 1 0.010205 -0.003787 -0.000494 0.000000 0.000000 0.000000
# 2 -0.003787 0.012017 0.001789 0.000000 0.000000 0.000000
# 3 -0.000494 0.001789 0.017207 0.000000 0.000000 0.000000
# 4 0.000000 0.000000 0.000000 0.064357 0.000000 0.000000
# 5 0.000000 0.000000 0.000000 0.000000 0.088703 0.000000
# 6 0.000000 0.000000 0.000000 0.000000 0.000000 0.029005
#
#
# Mechanical properties :
#
#
# Convention : Reuss Voigt Hill
#
# Bulk Modulus (GPa) = 29.03126 35.21129 32.12128
# Shear Modulus (GPa) = 21.01197 28.25437 24.63317
#
# Velocity S-wave (km/s) = 2.98089 3.45665 3.22755
# Velocity P-wave (km/s) = 4.91168 5.55172 5.24148
#
# Compressibility (1/GPa) = 0.03444563
#
# Stress axis : x y z
#
# Youngs Moduli (GPa) = 97.99107 83.21795 58.11439
#
# Poissons Ratio (x) = 0.31518 0.02869
# Poissons Ratio (y) = 0.37114 -0.10399
# Poissons Ratio (z) = 0.04838 -0.14891
#
# Static dielectric constant tensor:
#      x y z
#    x 1.962530 0.000000 0.000000 
#    y 0.000000 1.901190 0.000000 
#    z 0.000000 0.000000 1.895160 
# 
# From -- ./inp_files/8239.got.cif
#   From: 2010.05.17/outbox.cif.g08.bks.cpg/sg63_5_cif.got.tgz:8239.got - 2010.06.03 15:47:04.
