data_PCOD9473609
_publ_section_title
;
Structure prediction by ZEFSAII (Michael W. Deem and Ramdas Pophale) SiO2 
 PCOD9473609
Probable space group: C M C M
;
_chemical_formula_sum "Si O2"
_cell_formula_units_Z 64
_cell_length_a 15.808403
_cell_length_b 12.139071
_cell_length_c 14.453967
_cell_angle_alpha 90.000000
_cell_angle_beta 90.000000
_cell_angle_gamma 90.000000
_cell_volume 2773.706531
_symmetry_space_group_name_H-M "C M C M"
_symmetry_group_IT_number 63
_symmetry_cell_setting 'orthorhombic'
loop_
_space_group_symop_operation_xyz
x,y,z
-x,-y,1/2+z
x,-y,-z
-x,y,1/2-z
-x,-y,-z
x,y,1/2-z
-x,y,z
x,-y,1/2+z
1/2+x,1/2+y,z
1/2-x,1/2-y,1/2+z
1/2+x,1/2-y,-z
1/2-x,1/2+y,1/2-z
1/2-x,1/2-y,-z
1/2+x,1/2+y,1/2-z
1/2-x,1/2+y,z
1/2+x,1/2-y,1/2+z
loop_
_atom_site_type_symbol
_atom_site_label
_atom_site_fract_x
_atom_site_fract_y
_atom_site_fract_z
Si Si1 0.142551 0.036962 0.143418
Si Si2 0.898973 0.204502 0.860169
Si Si3 0.167682 0.432750 0.594882
Si Si4 0.000000 0.202918 0.362119
Si Si5 0.000000 0.459264 0.394126
O O1 0.114338 0.024173 0.250000
O O2 0.128955 0.915051 0.103549
O O3 0.241049 0.063972 0.141353
O O4 0.081851 0.133036 0.106842
O O5 0.875903 0.216084 0.750000
O O6 0.858157 0.305665 0.914427
O O7 0.000000 0.211662 0.866158
O O8 0.178235 0.500000 0.500000
O O9 0.087492 0.491206 0.644769
O O10 0.000000 0.328210 0.394216
O O11 0.000000 0.211311 0.250000
O O12 0.000000 0.500000 0.500000
#
# Coordination Sequence:
#
# PCOD9473609 Si02
#       5
#    16  16  16   8   8
#     4  10  22  42  66  99 129 160 212 271 324 382
#     4  10  20  39  66  90 123 168 215 267 323 380
#     4  11  24  42  61  91 131 176 215 258 312 387
#     4  10  22  43  71  98 129 164 211 269 326 378
#     4  10  24  45  60  90 133 175 212 261 313 384
#
# _framework density 23.073817999999999
#
# number of rings (size 3 to 8) (size 9 to 14) (size 15 to 20)
#    0.000    1.750    2.500    0.750    3.500    3.000 
#    4.500    0.625    0.000    0.000    0.000    0.000 
#    0.000    0.000    0.000    0.000    0.000    0.000 
#
# Total GULP energy -178940.405204 kJ/mol
# GULP energy per Si atom -5591.887663 kJ/mol
# Density = 2.302130 g / cm^3
# Si number density = 23.073818 Si / 1000 Ang^3
#
#
#
# Elastic Constant Matrix: (Units=GPa)
#
#
# Indices 1 2 3 4 5 6 
#
# 1 155.6027 94.6326 23.4177 0.0000 0.0000 0.0000
# 2 94.6326 259.5653 23.8703 0.0000 0.0000 0.0000
# 3 23.4177 23.8703 58.5715 0.0000 0.0000 0.0000
# 4 0.0000 0.0000 0.0000 29.9051 0.0000 0.0000
# 5 0.0000 0.0000 0.0000 0.0000 15.5676 0.0000
# 6 0.0000 0.0000 0.0000 0.0000 0.0000 29.8518
#
#
#
# Elastic Compliance Matrix: (Units=1/GPa)
#
#
# Indices 1 2 3 4 5 6 
#
# 1 0.008528 -0.002904 -0.002226 0.000000 0.000000 0.000000
# 2 -0.002904 0.004992 -0.000873 0.000000 0.000000 0.000000
# 3 -0.002226 -0.000873 0.018319 0.000000 0.000000 0.000000
# 4 0.000000 0.000000 0.000000 0.033439 0.000000 0.000000
# 5 0.000000 0.000000 0.000000 0.000000 0.064236 0.000000
# 6 0.000000 0.000000 0.000000 0.000000 0.000000 0.033499
#
#
# Mechanical properties :
#
#
# Convention : Reuss Voigt Hill
#
# Bulk Modulus (GPa) = 50.42421 84.17565 67.29993
# Shear Modulus (GPa) = 27.52848 37.18616 32.35732
#
# Velocity S-wave (km/s) = 3.45782 4.01885 3.74884
# Velocity P-wave (km/s) = 6.15166 7.62201 6.92597
#
# Compressibility (1/GPa) = 0.01983174
#
# Stress axis : x y z
#
# Youngs Moduli (GPa) = 117.26058 200.32863 54.58825
#
# Poissons Ratio (x) = 0.58184 0.12151
# Poissons Ratio (y) = 0.34058 0.04766
# Poissons Ratio (z) = 0.26101 0.17491
#
# Static dielectric constant tensor:
#      x y z
#    x 1.856810 0.000000 0.000000 
#    y 0.000000 1.822000 0.000000 
#    z 0.000000 0.000000 1.949990 
# 
# From -- ./inp_files/43471.got.cif
#   From: 2010.05.17/outbox.cif.g08.bks.cpg/sg63_22_cif.got.tgz:43471.got - 2010.06.03 15:47:04.
