data_PCOD9473504
_publ_section_title
;
Structure prediction by ZEFSAII (Michael W. Deem and Ramdas Pophale) SiO2 
 PCOD9473504
Probable space group: C M C M
;
_chemical_formula_sum "Si O2"
_cell_formula_units_Z 48
_cell_length_a 26.350846
_cell_length_b 8.282140
_cell_length_c 9.137389
_cell_angle_alpha 90.000000
_cell_angle_beta 90.000000
_cell_angle_gamma 90.000000
_cell_volume 1994.156528
_symmetry_space_group_name_H-M "C M C M"
_symmetry_group_IT_number 63
_symmetry_cell_setting 'orthorhombic'
loop_
_space_group_symop_operation_xyz
x,y,z
-x,-y,1/2+z
x,-y,-z
-x,y,1/2-z
-x,-y,-z
x,y,1/2-z
-x,y,z
x,-y,1/2+z
1/2+x,1/2+y,z
1/2-x,1/2-y,1/2+z
1/2+x,1/2-y,-z
1/2-x,1/2+y,1/2-z
1/2-x,1/2-y,-z
1/2+x,1/2+y,1/2-z
1/2-x,1/2+y,z
1/2+x,1/2-y,1/2+z
loop_
_atom_site_type_symbol
_atom_site_label
_atom_site_fract_x
_atom_site_fract_y
_atom_site_fract_z
Si Si1 0.806320 0.829335 0.750000
Si Si2 0.808999 0.558026 0.250000
Si Si3 0.622299 0.000000 0.000000
Si Si4 0.941880 0.941095 0.250000
Si Si5 0.628290 0.500000 0.500000
Si Si6 0.057748 0.331997 0.250000
O O1 0.808086 0.636798 0.750000
O O2 0.747666 0.878477 0.750000
O O3 0.835550 0.902422 0.889725
O O4 0.840300 0.602279 0.394750
O O5 0.587148 0.100413 0.890391
O O6 0.910022 0.899926 0.394526
O O7 0.942862 0.137723 0.250000
O O8 0.000000 0.882576 0.250000
O O9 0.000000 0.389500 0.250000
#
# Coordination Sequence:
#
# PCOD9473504 Si02
#       6
#     8   8   8   8   8   8
#     4  11  25  42  63  92 125 162 208 260 311 371
#     4  11  25  42  63  92 125 162 208 260 311 371
#     4  10  20  38  62  86 122 160 204 252 306 360
#     4  10  21  38  60  89 124 162 208 258 306 364
#     4  10  20  38  62  86 122 160 204 252 306 360
#     4  10  21  38  60  89 124 162 208 258 306 364
#
# _framework density 24.070326999999999
#
# number of rings (size 3 to 8) (size 9 to 14) (size 15 to 20)
#    0.000    1.667    0.000    6.000    0.000    8.000 
#    0.000   20.000    0.000   24.000    0.000    0.000 
#    0.000    0.000    0.000    0.000    0.000    0.000 
#
# Total GULP energy -134519.772201 kJ/mol
# GULP energy per Si atom -5604.990508 kJ/mol
# Density = 2.401554 g / cm^3
# Si number density = 24.070327 Si / 1000 Ang^3
#
#
#
# Elastic Constant Matrix: (Units=GPa)
#
#
# Indices 1 2 3 4 5 6 
#
# 1 267.4918 54.2044 112.7418 0.0000 0.0000 0.0000
# 2 54.2044 91.0501 50.8120 0.0000 0.0000 0.0000
# 3 112.7418 50.8120 219.0868 0.0000 0.0000 0.0000
# 4 0.0000 0.0000 0.0000 72.5360 0.0000 0.0000
# 5 0.0000 0.0000 0.0000 0.0000 21.9575 0.0000
# 6 0.0000 0.0000 0.0000 0.0000 0.0000 36.4732
#
#
#
# Elastic Compliance Matrix: (Units=1/GPa)
#
#
# Indices 1 2 3 4 5 6 
#
# 1 0.005011 -0.001774 -0.002167 0.000000 0.000000 0.000000
# 2 -0.001774 0.013244 -0.002159 0.000000 0.000000 0.000000
# 3 -0.002167 -0.002159 0.006180 0.000000 0.000000 0.000000
# 4 0.000000 0.000000 0.000000 0.013786 0.000000 0.000000
# 5 0.000000 0.000000 0.000000 0.000000 0.045543 0.000000
# 6 0.000000 0.000000 0.000000 0.000000 0.000000 0.027417
#
#
# Mechanical properties :
#
#
# Convention : Reuss Voigt Hill
#
# Bulk Modulus (GPa) = 81.72967 112.57167 97.15067
# Shear Modulus (GPa) = 39.22790 50.18470 44.70630
#
# Velocity S-wave (km/s) = 4.04136 4.57105 4.31434
# Velocity P-wave (km/s) = 7.47028 8.64457 8.07879
#
# Compressibility (1/GPa) = 0.01223546
#
# Stress axis : x y z
#
# Youngs Moduli (GPa) = 199.54408 75.50765 161.80043
#
# Poissons Ratio (x) = 0.13394 0.35070
# Poissons Ratio (y) = 0.35396 0.34929
# Poissons Ratio (z) = 0.43251 0.16300
#
# Static dielectric constant tensor:
#      x y z
#    x 1.885860 0.000000 0.000000 
#    y 0.000000 1.920760 0.000000 
#    z 0.000000 0.000000 1.903610 
# 
# From -- ./inp_files/13592.got.cif
#   From: 2010.05.17/outbox.cif.g08.bks.cpg/sg63_7_cif.got.tgz:13592.got - 2010.06.03 15:47:04.
