data_PCOD9473971
_publ_section_title
;
Structure prediction by ZEFSAII (Michael W. Deem and Ramdas Pophale) SiO2 
 PCOD9473971
Probable space group: C M C M
;
_chemical_formula_sum "Si O2"
_cell_formula_units_Z 96
_cell_length_a 8.807125
_cell_length_b 24.066162
_cell_length_c 25.305383
_cell_angle_alpha 90.000000
_cell_angle_beta 90.000000
_cell_angle_gamma 90.000000
_cell_volume 5363.569481
_symmetry_space_group_name_H-M "C M C M"
_symmetry_group_IT_number 63
_symmetry_cell_setting 'orthorhombic'
loop_
_space_group_symop_operation_xyz
x,y,z
-x,-y,1/2+z
x,-y,-z
-x,y,1/2-z
-x,-y,-z
x,y,1/2-z
-x,y,z
x,-y,1/2+z
1/2+x,1/2+y,z
1/2-x,1/2-y,1/2+z
1/2+x,1/2-y,-z
1/2-x,1/2+y,1/2-z
1/2-x,1/2-y,-z
1/2+x,1/2+y,1/2-z
1/2-x,1/2+y,z
1/2+x,1/2-y,1/2+z
loop_
_atom_site_type_symbol
_atom_site_label
_atom_site_fract_x
_atom_site_fract_y
_atom_site_fract_z
Si Si1 0.180697 0.136691 0.399815
Si Si2 0.681144 0.941015 0.687771
Si Si3 0.319233 0.564756 0.994658
Si Si4 0.319951 0.438634 0.312617
Si Si5 0.818641 0.750063 0.440950
Si Si6 0.180165 0.636137 0.599074
O O1 0.246996 0.105944 0.348845
O O2 0.207163 0.096917 0.450517
O O3 0.260304 0.195073 0.411620
O O4 0.000000 0.144600 0.394726
O O5 0.711480 0.931209 0.750000
O O6 0.500000 0.943415 0.680247
O O7 0.753451 0.000695 0.673758
O O8 0.500000 0.568361 0.982611
O O9 0.228450 0.595111 0.948484
O O10 0.279571 0.500000 0.000000
O O11 0.295952 0.430097 0.250000
O O12 0.500000 0.438241 0.323156
O O13 0.238480 0.392418 0.347489
O O14 0.750000 0.750000 0.500000
O O15 0.760375 0.805272 0.412020
O O16 0.000000 0.750375 0.444452
O O17 0.000000 0.643419 0.599700
#
# Coordination Sequence:
#
# PCOD9473971 Si02
#       6
#    16  16  16  16  16  16
#     4  11  22  37  60  88 120 157 200 247 296 352
#     4  10  21  38  61  90 124 160 199 246 298 353
#     4  10  21  36  56  84 119 154 191 240 297 354
#     4  10  21  39  63  89 120 159 200 245 299 355
#     4  12  24  41  62  85 118 158 202 246 295 355
#     4  12  24  38  60  88 119 155 198 245 298 357
#
# _framework density 17.898529
#
# number of rings (size 3 to 8) (size 9 to 14) (size 15 to 20)
#    0.000    1.167    1.667    5.500    0.000    4.333 
#    0.000    0.833    0.000    5.000    0.000    0.000 
#    0.000    0.000    0.000    0.000    0.000    0.000 
#
# Total GULP energy -268480.553953 kJ/mol
# GULP energy per Si atom -5593.344874 kJ/mol
# Density = 1.785779 g / cm^3
# Si number density = 17.898529 Si / 1000 Ang^3
#
#
#
# Elastic Constant Matrix: (Units=GPa)
#
#
# Indices 1 2 3 4 5 6 
#
# 1 133.7076 88.8334 65.2405 0.0000 0.0000 0.0000
# 2 88.8334 174.4404 72.2664 0.0000 0.0000 0.0000
# 3 65.2405 72.2664 75.2781 0.0000 0.0000 0.0000
# 4 0.0000 0.0000 0.0000 11.6493 0.0000 0.0000
# 5 0.0000 0.0000 0.0000 0.0000 32.4515 0.0000
# 6 0.0000 0.0000 0.0000 0.0000 0.0000 35.5768
#
#
#
# Elastic Compliance Matrix: (Units=1/GPa)
#
#
# Indices 1 2 3 4 5 6 
#
# 1 0.014158 -0.003531 -0.008880 0.000000 0.000000 0.000000
# 2 -0.003531 0.010399 -0.006922 0.000000 0.000000 0.000000
# 3 -0.008880 -0.006922 0.027626 0.000000 0.000000 0.000000
# 4 0.000000 0.000000 0.000000 0.085842 0.000000 0.000000
# 5 0.000000 0.000000 0.000000 0.000000 0.030815 0.000000
# 6 0.000000 0.000000 0.000000 0.000000 0.000000 0.028108
#
#
# Mechanical properties :
#
#
# Convention : Reuss Voigt Hill
#
# Bulk Modulus (GPa) = 73.99310 92.90074 83.44692
# Shear Modulus (GPa) = 20.82288 26.40791 23.61540
#
# Velocity S-wave (km/s) = 3.41454 3.84529 3.63630
# Velocity P-wave (km/s) = 7.54821 8.46946 8.02207
#
# Compressibility (1/GPa) = 0.01351477
#
# Stress axis : x y z
#
# Youngs Moduli (GPa) = 70.63134 96.16744 36.19803
#
# Poissons Ratio (x) = 0.33957 0.32146
# Poissons Ratio (y) = 0.24940 0.25058
# Poissons Ratio (z) = 0.62724 0.66570
#
# Static dielectric constant tensor:
#      x y z
#    x 1.596490 0.000000 0.000000 
#    y 0.000000 1.581730 0.000000 
#    z 0.000000 0.000000 1.594340 
# 
# From -- ./inp_files/59905.got.cif
#   From: 2010.05.17/outbox.cif.g08.bks.cpg/sg63_30_cif.got.tgz:59905.got - 2010.06.03 15:47:04.
