data_PCOD9473743
_publ_section_title
;
Structure prediction by ZEFSAII (Michael W. Deem and Ramdas Pophale) SiO2 
 PCOD9473743
Probable space group: C M C M
;
_chemical_formula_sum "Si O2"
_cell_formula_units_Z 120
_cell_length_a 26.986533
_cell_length_b 17.203051
_cell_length_c 15.299718
_cell_angle_alpha 90.000000
_cell_angle_beta 90.000000
_cell_angle_gamma 90.000000
_cell_volume 7102.904845
_symmetry_space_group_name_H-M "C M C M"
_symmetry_group_IT_number 63
_symmetry_cell_setting 'orthorhombic'
loop_
_space_group_symop_operation_xyz
x,y,z
-x,-y,1/2+z
x,-y,-z
-x,y,1/2-z
-x,-y,-z
x,y,1/2-z
-x,y,z
x,-y,1/2+z
1/2+x,1/2+y,z
1/2-x,1/2-y,1/2+z
1/2+x,1/2-y,-z
1/2-x,1/2+y,1/2-z
1/2-x,1/2-y,-z
1/2+x,1/2+y,1/2-z
1/2-x,1/2+y,z
1/2+x,1/2-y,1/2+z
loop_
_atom_site_type_symbol
_atom_site_label
_atom_site_fract_x
_atom_site_fract_y
_atom_site_fract_z
Si Si1 0.808939 0.702861 0.590259
Si Si2 0.296757 0.229621 0.116558
Si Si3 0.057605 0.906489 0.994389
Si Si4 0.634391 0.647521 0.146176
Si Si5 0.206383 0.009765 0.352957
Si Si6 0.181660 0.589944 0.250000
Si Si7 0.128558 0.868561 0.151212
Si Si8 0.316100 0.024100 0.595535
O O1 0.755763 0.727489 0.629673
O O2 0.802550 0.709017 0.485511
O O3 0.848173 0.766386 0.622462
O O4 0.823045 0.615282 0.612734
O O5 0.300526 0.153058 0.174291
O O6 0.339798 0.290234 0.141303
O O7 0.086816 0.877684 0.908967
O O8 0.000000 0.884557 0.993167
O O9 0.086588 0.873759 0.078350
O O10 0.060842 0.000000 0.000000
O O11 0.627388 0.637868 0.250000
O O12 0.679047 0.588629 0.119373
O O13 0.221497 0.018688 0.250000
O O14 0.166723 0.940591 0.360867
O O15 0.256384 0.989923 0.402043
O O16 0.164210 0.529199 0.172772
O O17 0.108821 0.874325 0.250000
O O18 0.334719 0.000000 0.500000
#
# Coordination Sequence:
#
# PCOD9473743 Si02
#       8
#    16  16  16  16  16   8  16  16
#     4  11  24  36  53  83 116 158 203 243 276 340
#     4  11  22  37  55  82 117 156 198 243 284 332
#     4  11  24  41  60  84 116 153 195 247 300 349
#     4  11  24  38  59  84 115 156 203 242 286 348
#     4  10  21  34  49  78 113 156 201 237 273 338
#     4  12  24  38  52  78 117 158 195 236 296 334
#     4  11  21  36  59  82 113 150 200 238 288 343
#     4  12  24  35  52  79 117 164 203 241 285 335
#
# _framework density 16.894496
#
# number of rings (size 3 to 8) (size 9 to 14) (size 15 to 20)
#    0.000    0.933    6.667    0.800    7.467    0.533 
#    0.000    1.333    0.000    0.000    0.000    0.000 
#    0.000    5.867    0.000    0.000    0.000    0.000 
#
# Total GULP energy -334387.188588 kJ/mol
# GULP energy per Si atom -5573.119810 kJ/mol
# Density = 1.685604 g / cm^3
# Si number density = 16.894496 Si / 1000 Ang^3
#
#
#
# Elastic Constant Matrix: (Units=GPa)
#
#
# Indices 1 2 3 4 5 6 
#
# 1 54.6335 8.7578 28.9083 0.0000 0.0000 0.0000
# 2 8.7578 108.0651 24.9312 0.0000 0.0000 0.0000
# 3 28.9083 24.9312 94.5166 0.0000 0.0000 0.0000
# 4 0.0000 0.0000 0.0000 29.0106 0.0000 0.0000
# 5 0.0000 0.0000 0.0000 0.0000 4.9588 0.0000
# 6 0.0000 0.0000 0.0000 0.0000 0.0000 6.1168
#
#
#
# Elastic Compliance Matrix: (Units=1/GPa)
#
#
# Indices 1 2 3 4 5 6 
#
# 1 0.021844 -0.000244 -0.006617 0.000000 0.000000 0.000000
# 2 -0.000244 0.009856 -0.002525 0.000000 0.000000 0.000000
# 3 -0.006617 -0.002525 0.013270 0.000000 0.000000 0.000000
# 4 0.000000 0.000000 0.000000 0.034470 0.000000 0.000000
# 5 0.000000 0.000000 0.000000 0.000000 0.201662 0.000000
# 6 0.000000 0.000000 0.000000 0.000000 0.000000 0.163484
#
#
# Mechanical properties :
#
#
# Convention : Reuss Voigt Hill
#
# Bulk Modulus (GPa) = 38.17012 42.49000 40.33006
# Shear Modulus (GPa) = 10.59119 20.99176 15.79147
#
# Velocity S-wave (km/s) = 2.50652 3.52876 3.06062
# Velocity P-wave (km/s) = 5.56948 6.46589 6.03435
#
# Compressibility (1/GPa) = 0.02619850
#
# Stress axis : x y z
#
# Youngs Moduli (GPa) = 45.77916 101.46080 75.35782
#
# Poissons Ratio (x) = 0.02473 0.49863
# Poissons Ratio (y) = 0.01116 0.19030
# Poissons Ratio (z) = 0.30291 0.25621
#
# Static dielectric constant tensor:
#      x y z
#    x 1.565860 0.000000 0.000000 
#    y 0.000000 1.591860 0.000000 
#    z 0.000000 0.000000 1.603180 
# 
# From -- ./inp_files/38772.got.cif
#   From: 2010.05.17/outbox.cif.g08.bks.cpg/sg63_20_cif.got.tgz:38772.got - 2010.06.03 15:47:04.
