data_PCOD9473874
_publ_section_title
;
Structure prediction by ZEFSAII (Michael W. Deem and Ramdas Pophale) SiO2 
 PCOD9473874
Probable space group: C M C M
;
_chemical_formula_sum "Si O2"
_cell_formula_units_Z 64
_cell_length_a 29.974742
_cell_length_b 5.250383
_cell_length_c 21.318391
_cell_angle_alpha 90.000000
_cell_angle_beta 90.000000
_cell_angle_gamma 90.000000
_cell_volume 3355.064410
_symmetry_space_group_name_H-M "C M C M"
_symmetry_group_IT_number 63
_symmetry_cell_setting 'orthorhombic'
loop_
_space_group_symop_operation_xyz
x,y,z
-x,-y,1/2+z
x,-y,-z
-x,y,1/2-z
-x,-y,-z
x,y,1/2-z
-x,y,z
x,-y,1/2+z
1/2+x,1/2+y,z
1/2-x,1/2-y,1/2+z
1/2+x,1/2-y,-z
1/2-x,1/2+y,1/2-z
1/2-x,1/2-y,-z
1/2+x,1/2+y,1/2-z
1/2-x,1/2+y,z
1/2+x,1/2-y,1/2+z
loop_
_atom_site_type_symbol
_atom_site_label
_atom_site_fract_x
_atom_site_fract_y
_atom_site_fract_z
Si Si1 0.222194 0.492707 0.075486
Si Si2 0.415420 0.555732 0.180342
Si Si3 0.375483 0.068798 0.369629
Si Si4 0.450260 0.677437 0.559728
O O1 0.254118 0.728326 0.092650
O O2 0.173785 0.523039 0.105582
O O3 0.216875 0.500000 0.000000
O O4 0.434814 0.542474 0.250000
O O5 0.393104 0.827079 0.168346
O O6 0.448466 0.495340 0.122863
O O7 0.379756 0.326844 0.170928
O O8 0.410933 0.122199 0.426243
O O9 0.440994 0.500000 0.500000
O O10 0.500000 0.787171 0.553757
#
# Coordination Sequence:
#
# PCOD9473874 Si02
#       4
#    16  16  16  16
#     4  10  21  35  59  93 123 153 199 253 306 366
#     4  10  22  39  61  88 121 165 210 247 299 366
#     4  10  22  37  65  85 124 161 199 250 311 355
#     4   9  22  40  62  94 126 159 203 254 310 367
#
# _framework density 19.075641000000001
#
# number of rings (size 3 to 8) (size 9 to 14) (size 15 to 20)
#    1.500    0.750    0.000    2.250    3.500    2.500 
#    0.000    2.500    0.000   15.000    0.000    0.000 
#    0.000    0.000    0.000    0.000    0.000    0.000 
#
# Total GULP energy -178270.599491 kJ/mol
# GULP energy per Si atom -5570.956234 kJ/mol
# Density = 1.903222 g / cm^3
# Si number density = 19.075641 Si / 1000 Ang^3
#
#
#
# Elastic Constant Matrix: (Units=GPa)
#
#
# Indices 1 2 3 4 5 6 
#
# 1 92.4746 23.4906 38.7188 0.0000 0.0000 0.0000
# 2 23.4906 101.8605 33.4514 0.0000 0.0000 0.0000
# 3 38.7188 33.4514 119.2589 0.0000 0.0000 0.0000
# 4 0.0000 0.0000 0.0000 8.3173 0.0000 0.0000
# 5 0.0000 0.0000 0.0000 0.0000 -0.9280 0.0000
# 6 0.0000 0.0000 0.0000 0.0000 0.0000 -429.3596
#
#
#
# Elastic Compliance Matrix: (Units=1/GPa)
#
#
# Indices 1 2 3 4 5 6 
#
# 1 0.012791 -0.001747 -0.003663 0.000000 0.000000 0.000000
# 2 -0.001747 0.011052 -0.002533 0.000000 0.000000 0.000000
# 3 -0.003663 -0.002533 0.010285 0.000000 0.000000 0.000000
# 4 0.000000 0.000000 0.000000 0.120232 0.000000 0.000000
# 5 0.000000 0.000000 0.000000 0.000000 -1.077567 0.000000
# 6 0.000000 0.000000 0.000000 0.000000 0.000000 -0.002329
#
#
# Mechanical properties :
#
#
# Convention : Reuss Voigt Hill
#
# Bulk Modulus (GPa) = 54.81642 56.10171 55.45907
# Shear Modulus (GPa) = -5.53360 -69.86519 -37.69940
#
# Velocity S-wave (km/s) = -1.70504 -6.05845 -4.45039
# Velocity P-wave (km/s) = 4.99224 4.41201 1.65177
#
# Compressibility (1/GPa) = 0.01824271
#
# Stress axis : x y z
#
# Youngs Moduli (GPa) = 78.17913 90.48117 97.23150
#
# Poissons Ratio (x) = 0.15807 0.35614
# Poissons Ratio (y) = 0.13658 0.24627
# Poissons Ratio (z) = 0.28635 0.22918
#
# Static dielectric constant tensor:
#      x y z
#    x 1.621290 0.000000 0.000000 
#    y 0.000000 1.668770 0.000000 
#    z 0.000000 0.000000 1.608140 
# 
# From -- ./inp_files/49319.got.cif
#   From: 2010.05.17/outbox.cif.g08.bks.cpg/sg63_25_cif.got.tgz:49319.got - 2010.06.03 15:47:04.
