data_PCOD9473387
_publ_section_title
;
Structure prediction by ZEFSAII (Michael W. Deem and Ramdas Pophale) SiO2 
 PCOD9473387
Probable space group: C M C M
;
_chemical_formula_sum "Si O2"
_cell_formula_units_Z 96
_cell_length_a 20.720550
_cell_length_b 14.776197
_cell_length_c 16.491720
_cell_angle_alpha 90.000000
_cell_angle_beta 90.000000
_cell_angle_gamma 90.000000
_cell_volume 5049.285229
_symmetry_space_group_name_H-M "C M C M"
_symmetry_group_IT_number 63
_symmetry_cell_setting 'orthorhombic'
loop_
_space_group_symop_operation_xyz
x,y,z
-x,-y,1/2+z
x,-y,-z
-x,y,1/2-z
-x,-y,-z
x,y,1/2-z
-x,y,z
x,-y,1/2+z
1/2+x,1/2+y,z
1/2-x,1/2-y,1/2+z
1/2+x,1/2-y,-z
1/2-x,1/2+y,1/2-z
1/2-x,1/2-y,-z
1/2+x,1/2+y,1/2-z
1/2-x,1/2+y,z
1/2+x,1/2-y,1/2+z
loop_
_atom_site_type_symbol
_atom_site_label
_atom_site_fract_x
_atom_site_fract_y
_atom_site_fract_z
Si Si1 0.425378 0.038864 0.591137
Si Si2 0.927170 0.922028 0.848605
Si Si3 0.230728 0.243131 0.593064
Si Si4 0.625707 0.775352 0.345508
Si Si5 0.307229 0.066029 0.344145
Si Si6 0.186422 0.943626 0.151361
O O1 0.500000 0.031501 0.615845
O O2 0.402545 0.142424 0.602153
O O3 0.419476 0.000000 0.500000
O O4 0.375754 0.980704 0.643816
O O5 0.927247 0.923652 0.750000
O O6 0.904273 0.820993 0.870393
O O7 0.000000 0.939419 0.876595
O O8 0.874833 0.996327 0.873828
O O9 0.250000 0.250000 0.500000
O O10 0.297326 0.231763 0.643255
O O11 0.197039 0.336971 0.614831
O O12 0.188476 0.155329 0.612927
O O13 0.611400 0.791690 0.250000
O O14 0.293315 0.080594 0.250000
O O15 0.251007 0.998215 0.374163
O O16 0.186969 0.935292 0.250000
#
# Coordination Sequence:
#
# PCOD9473387 Si02
#       6
#    16  16  16  16  16  16
#     4  11  24  40  59  88 127 164 200 250 315 377
#     4   9  18  34  60  93 122 149 191 248 303 354
#     4  12  24  37  59  89 123 161 203 253 309 365
#     4  11  20  37  64  92 120 154 207 263 306 354
#     4  11  22  38  61  88 120 156 203 255 301 361
#     4  10  20  37  61  89 121 155 198 250 302 361
#
# _framework density 19.012592000000001
#
# number of rings (size 3 to 8) (size 9 to 14) (size 15 to 20)
#    0.000    1.333    3.333    3.500    0.000    2.000 
#    0.000    0.833    0.000    5.000    0.000    0.000 
#    0.000    0.000    0.000    0.000    0.000    0.000 
#
# Total GULP energy -268233.534761 kJ/mol
# GULP energy per Si atom -5588.198641 kJ/mol
# Density = 1.896932 g / cm^3
# Si number density = 19.012592 Si / 1000 Ang^3
#
#
#
# Elastic Constant Matrix: (Units=GPa)
#
#
# Indices 1 2 3 4 5 6 
#
# 1 94.3533 44.6875 -2.1338 0.0000 0.0000 0.0000
# 2 44.6875 150.2408 25.6866 0.0000 0.0000 0.0000
# 3 -2.1338 25.6866 33.8374 0.0000 0.0000 0.0000
# 4 0.0000 0.0000 0.0000 9.5280 0.0000 0.0000
# 5 0.0000 0.0000 0.0000 0.0000 18.9979 0.0000
# 6 0.0000 0.0000 0.0000 0.0000 0.0000 19.6923
#
#
#
# Elastic Compliance Matrix: (Units=1/GPa)
#
#
# Indices 1 2 3 4 5 6 
#
# 1 0.012851 -0.004552 0.004266 0.000000 0.000000 0.000000
# 2 -0.004552 0.009261 -0.007317 0.000000 0.000000 0.000000
# 3 0.004266 -0.007317 0.035377 0.000000 0.000000 0.000000
# 4 0.000000 0.000000 0.000000 0.104954 0.000000 0.000000
# 5 0.000000 0.000000 0.000000 0.000000 0.052637 0.000000
# 6 0.000000 0.000000 0.000000 0.000000 0.000000 0.050781
#
#
# Mechanical properties :
#
#
# Convention : Reuss Voigt Hill
#
# Bulk Modulus (GPa) = 23.65082 46.10133 34.87607
# Shear Modulus (GPa) = 16.93990 23.65636 20.29813
#
# Velocity S-wave (km/s) = 2.98817 3.53122 3.27098
# Velocity P-wave (km/s) = 4.93681 6.39737 5.71395
#
# Compressibility (1/GPa) = 0.04228184
#
# Stress axis : x y z
#
# Youngs Moduli (GPa) = 77.81716 107.98221 28.26730
#
# Poissons Ratio (x) = 0.49149 -0.12057
# Poissons Ratio (y) = 0.35419 0.20683
# Poissons Ratio (z) = -0.33193 0.79011
#
# Static dielectric constant tensor:
#      x y z
#    x 1.654750 0.000000 0.000000 
#    y 0.000000 1.640760 0.000000 
#    z 0.000000 0.000000 1.663370 
# 
# From -- ./inp_files/35375.got.cif
#   From: 2010.05.17/outbox.cif.g08.bks.cpg/sg63_18_cif.got.tgz:35375.got - 2010.06.03 15:47:04.
