data_PCOD9473720
_publ_section_title
;
Structure prediction by ZEFSAII (Michael W. Deem and Ramdas Pophale) SiO2 
 PCOD9473720
Probable space group: C M C M
;
_chemical_formula_sum "Si O2"
_cell_formula_units_Z 96
_cell_length_a 23.457260
_cell_length_b 14.365767
_cell_length_c 14.287713
_cell_angle_alpha 90.000000
_cell_angle_beta 90.000000
_cell_angle_gamma 90.000000
_cell_volume 4814.695410
_symmetry_space_group_name_H-M "C M C M"
_symmetry_group_IT_number 63
_symmetry_cell_setting 'orthorhombic'
loop_
_space_group_symop_operation_xyz
x,y,z
-x,-y,1/2+z
x,-y,-z
-x,y,1/2-z
-x,-y,-z
x,y,1/2-z
-x,y,z
x,-y,1/2+z
1/2+x,1/2+y,z
1/2-x,1/2-y,1/2+z
1/2+x,1/2-y,-z
1/2-x,1/2+y,1/2-z
1/2-x,1/2-y,-z
1/2+x,1/2+y,1/2-z
1/2-x,1/2+y,z
1/2+x,1/2-y,1/2+z
loop_
_atom_site_type_symbol
_atom_site_label
_atom_site_fract_x
_atom_site_fract_y
_atom_site_fract_z
Si Si1 0.434818 0.932104 0.250000
Si Si2 0.740230 0.520069 0.608848
Si Si3 0.860228 0.425222 0.419040
Si Si4 0.649719 0.669805 0.854511
Si Si5 0.373141 0.714603 0.054272
Si Si6 0.066701 0.794373 0.750000
Si Si7 0.755161 0.809210 0.647765
O O1 0.500000 0.959555 0.250000
O O2 0.401458 0.964446 0.340551
O O3 0.430950 0.818907 0.250000
O O4 0.729534 0.500000 0.500000
O O5 0.795870 0.584823 0.619534
O O6 0.685804 0.574078 0.646475
O O7 0.755457 0.419670 0.649490
O O8 0.855868 0.500000 0.500000
O O9 0.883102 0.325403 0.450723
O O10 0.623681 0.681504 0.750000
O O11 0.697262 0.751965 0.866614
O O12 0.614097 0.672460 0.951570
O O13 0.403846 0.678147 0.150110
O O14 0.305473 0.703189 0.073503
O O15 0.000000 0.821582 0.750000
O O16 0.777968 0.780389 0.750000
#
# Coordination Sequence:
#
# PCOD9473720 Si02
#       7
#     8  16  16  16  16   8  16
#     4   9  20  36  55  76 102 141 194 245 286 317
#     4  11  20  32  50  76 117 152 191 221 265 336
#     4  10  21  33  52  78 106 148 187 230 279 329
#     4  11  22  33  50  78 121 161 181 213 278 343
#     4  11  19  37  55  79 114 144 187 237 282 321
#     4   9  20  38  65  86 100 137 196 253 288 313
#     4  11  21  32  50  78 113 156 188 227 269 335
#
# _framework density 19.938956999999998
#
# number of rings (size 3 to 8) (size 9 to 14) (size 15 to 20)
#    0.000    1.500    4.167    3.000    2.333    0.333 
#    1.500    0.000    0.000    0.500    0.000    2.333 
#    0.000    0.000    0.000    0.000    0.000    0.000 
#
# Total GULP energy -267674.906111 kJ/mol
# GULP energy per Si atom -5576.560544 kJ/mol
# Density = 1.989358 g / cm^3
# Si number density = 19.938957 Si / 1000 Ang^3
#
#
#
# Elastic Constant Matrix: (Units=GPa)
#
#
# Indices 1 2 3 4 5 6 
#
# 1 39.3178 -3.1449 35.3852 0.0000 0.0000 0.0000
# 2 -3.1449 50.4375 5.7345 0.0000 0.0000 0.0000
# 3 35.3852 5.7345 173.4029 0.0000 0.0000 0.0000
# 4 0.0000 0.0000 0.0000 0.6374 0.0000 0.0000
# 5 0.0000 0.0000 0.0000 0.0000 20.1453 0.0000
# 6 0.0000 0.0000 0.0000 0.0000 0.0000 7.5560
#
#
#
# Elastic Compliance Matrix: (Units=1/GPa)
#
#
# Indices 1 2 3 4 5 6 
#
# 1 0.031519 0.002707 -0.006521 0.000000 0.000000 0.000000
# 2 0.002707 0.020134 -0.001218 0.000000 0.000000 0.000000
# 3 -0.006521 -0.001218 0.007138 0.000000 0.000000 0.000000
# 4 0.000000 0.000000 0.000000 1.568909 0.000000 0.000000
# 5 0.000000 0.000000 0.000000 0.000000 0.049639 0.000000
# 6 0.000000 0.000000 0.000000 0.000000 0.000000 0.132345
#
#
# Mechanical properties :
#
#
# Convention : Reuss Voigt Hill
#
# Bulk Modulus (GPa) = 20.52316 37.67864 29.10090
# Shear Modulus (GPa) = 2.72332 20.67998 11.70165
#
# Velocity S-wave (km/s) = 1.16996 3.22400 2.42518
# Velocity P-wave (km/s) = 3.48431 5.72686 4.74011
#
# Compressibility (1/GPa) = 0.04872543
#
# Stress axis : x y z
#
# Youngs Moduli (GPa) = 31.72645 49.66775 140.09534
#
# Poissons Ratio (x) = -0.13444 0.91363
# Poissons Ratio (y) = -0.08588 0.17066
# Poissons Ratio (z) = 0.20690 0.06050
#
# Static dielectric constant tensor:
#      x y z
#    x 1.679710 0.000000 0.000000 
#    y 0.000000 1.732650 0.000000 
#    z 0.000000 0.000000 1.794530 
# 
# From -- ./inp_files/37871.got.cif
#   From: 2010.05.17/outbox.cif.g08.bks.cpg/sg63_19_cif.got.tgz:37871.got - 2010.06.03 15:47:04.
