data_PCOD9473570
_publ_section_title
;
Structure prediction by ZEFSAII (Michael W. Deem and Ramdas Pophale) SiO2 
 PCOD9473570
Probable space group: C M C M
;
_chemical_formula_sum "Si O2"
_cell_formula_units_Z 64
_cell_length_a 19.454816
_cell_length_b 11.413932
_cell_length_c 13.951577
_cell_angle_alpha 90.000000
_cell_angle_beta 90.000000
_cell_angle_gamma 90.000000
_cell_volume 3098.030641
_symmetry_space_group_name_H-M "C M C M"
_symmetry_group_IT_number 63
_symmetry_cell_setting 'orthorhombic'
loop_
_space_group_symop_operation_xyz
x,y,z
-x,-y,1/2+z
x,-y,-z
-x,y,1/2-z
-x,-y,-z
x,y,1/2-z
-x,y,z
x,-y,1/2+z
1/2+x,1/2+y,z
1/2-x,1/2-y,1/2+z
1/2+x,1/2-y,-z
1/2-x,1/2+y,1/2-z
1/2-x,1/2-y,-z
1/2+x,1/2+y,1/2-z
1/2-x,1/2+y,z
1/2+x,1/2-y,1/2+z
loop_
_atom_site_type_symbol
_atom_site_label
_atom_site_fract_x
_atom_site_fract_y
_atom_site_fract_z
Si Si1 0.000000 0.667487 0.859077
Si Si2 0.625735 0.988325 0.859496
Si Si3 0.640621 0.744502 0.550111
Si Si4 0.214298 0.702318 0.640444
Si Si5 0.000000 0.136592 0.522518
O O1 0.064874 0.581941 0.871282
O O2 0.000000 0.775160 0.931230
O O3 0.000000 0.710882 0.750000
O O4 0.621251 0.943557 0.750000
O O5 0.694392 0.065335 0.869091
O O6 0.622315 0.880070 0.930130
O O7 0.706047 0.718571 0.616641
O O8 0.669613 0.731941 0.441265
O O9 0.572553 0.670261 0.571236
O O10 0.198090 0.737162 0.750000
O O11 0.000000 0.000000 0.500000
#
# Coordination Sequence:
#
# PCOD9473570 Si02
#       5
#     8  16  16  16   8
#     4  10  21  41  67  95 126 164 214 272 329 392
#     4  10  20  38  68 100 127 163 214 268 327 390
#     4  11  23  40  66  94 133 170 217 273 324 384
#     4  10  22  39  62  96 131 169 212 263 328 393
#     4  12  27  43  61  93 129 176 225 264 327 397
#
# _framework density 20.658286
#
# number of rings (size 3 to 8) (size 9 to 14) (size 15 to 20)
#    0.000    1.500    2.500    2.250    0.000    5.000 
#    0.000    4.375    0.000    0.000    0.000    0.000 
#    0.000    0.000    0.000    0.000    0.000    0.000 
#
# Total GULP energy -178741.066587 kJ/mol
# GULP energy per Si atom -5585.658331 kJ/mol
# Density = 2.061127 g / cm^3
# Si number density = 20.658286 Si / 1000 Ang^3
#
#
#
# Elastic Constant Matrix: (Units=GPa)
#
#
# Indices 1 2 3 4 5 6 
#
# 1 99.5256 23.1103 -1.1502 0.0000 0.0000 0.0000
# 2 23.1103 71.3821 -0.4651 0.0000 0.0000 0.0000
# 3 -1.1502 -0.4651 91.9044 0.0000 0.0000 0.0000
# 4 0.0000 0.0000 0.0000 26.4303 0.0000 0.0000
# 5 0.0000 0.0000 0.0000 0.0000 20.6887 0.0000
# 6 0.0000 0.0000 0.0000 0.0000 0.0000 19.2257
#
#
#
# Elastic Compliance Matrix: (Units=1/GPa)
#
#
# Indices 1 2 3 4 5 6 
#
# 1 0.010866 -0.003517 0.000118 0.000000 0.000000 0.000000
# 2 -0.003517 0.015148 0.000033 0.000000 0.000000 0.000000
# 3 0.000118 0.000033 0.010883 0.000000 0.000000 0.000000
# 4 0.000000 0.000000 0.000000 0.037835 0.000000 0.000000
# 5 0.000000 0.000000 0.000000 0.000000 0.048336 0.000000
# 6 0.000000 0.000000 0.000000 0.000000 0.000000 0.052014
#
#
# Mechanical properties :
#
#
# Convention : Reuss Voigt Hill
#
# Bulk Modulus (GPa) = 33.15235 33.97801 33.56518
# Shear Modulus (GPa) = 26.05959 29.35674 27.70817
#
# Velocity S-wave (km/s) = 3.55556 3.77379 3.66630
# Velocity P-wave (km/s) = 5.73923 5.95584 5.84854
#
# Compressibility (1/GPa) = 0.03016377
#
# Stress axis : x y z
#
# Youngs Moduli (GPa) = 92.03266 66.01533 91.89050
#
# Poissons Ratio (x) = 0.23218 -0.01086
# Poissons Ratio (y) = 0.32368 -0.00300
# Poissons Ratio (z) = -0.01088 -0.00216
#
# Static dielectric constant tensor:
#      x y z
#    x 1.792450 0.000000 0.000000 
#    y 0.000000 1.688850 0.000000 
#    z 0.000000 0.000000 1.796350 
# 
# From -- ./inp_files/33395.got.cif
#   From: 2010.05.17/outbox.cif.g08.bks.cpg/sg63_17_cif.got.tgz:33395.got - 2010.06.03 15:47:04.
