data_PCOD9473344
_publ_section_title
;
Structure prediction by ZEFSAII (Michael W. Deem and Ramdas Pophale) SiO2 
 PCOD9473344
Probable space group: C M C M
;
_chemical_formula_sum "Si O2"
_cell_formula_units_Z 72
_cell_length_a 26.514877
_cell_length_b 13.813889
_cell_length_c 10.260190
_cell_angle_alpha 90.000000
_cell_angle_beta 90.000000
_cell_angle_gamma 90.000000
_cell_volume 3758.036397
_symmetry_space_group_name_H-M "C M C M"
_symmetry_group_IT_number 63
_symmetry_cell_setting 'orthorhombic'
loop_
_space_group_symop_operation_xyz
x,y,z
-x,-y,1/2+z
x,-y,-z
-x,y,1/2-z
-x,-y,-z
x,y,1/2-z
-x,y,z
x,-y,1/2+z
1/2+x,1/2+y,z
1/2-x,1/2-y,1/2+z
1/2+x,1/2-y,-z
1/2-x,1/2+y,1/2-z
1/2-x,1/2-y,-z
1/2+x,1/2+y,1/2-z
1/2-x,1/2+y,z
1/2+x,1/2-y,1/2+z
loop_
_atom_site_type_symbol
_atom_site_label
_atom_site_fract_x
_atom_site_fract_y
_atom_site_fract_z
Si Si1 0.798507 0.252881 0.593248
Si Si2 0.113471 0.092802 0.904369
Si Si3 0.000000 0.091205 0.903276
Si Si4 0.558197 0.124983 0.750000
Si Si5 0.555684 0.888662 0.750000
Si Si6 0.118185 0.615706 0.003849
O O1 0.787866 0.256938 0.750000
O O2 0.750000 0.250000 0.500000
O O3 0.840294 0.167440 0.572610
O O4 0.827319 0.347240 0.540767
O O5 0.116233 0.065692 0.750000
O O6 0.056302 0.135361 0.925182
O O7 0.118541 0.000000 0.000000
O O8 0.000000 0.063540 0.750000
O O9 0.000000 0.000000 0.000000
O O10 0.500000 0.159209 0.750000
O O11 0.591042 0.152948 0.874664
O O12 0.554831 0.006597 0.750000
O O13 0.500000 0.850486 0.750000
O O14 0.583948 0.854771 0.624061
O O15 0.118363 0.500000 0.000000
#
# Coordination Sequence:
#
# PCOD9473344 Si02
#       6
#    16  16   8   8   8  16
#     4  11  25  43  60  83 114 152 201 250 294 345
#     4   9  19  38  62  89 116 148 187 234 293 349
#     4   8  14  30  58  86 115 142 176 228 285 348
#     4   9  18  32  55  86 125 155 188 226 278 340
#     4   9  16  32  57  86 115 157 192 230 278 342
#     4  10  20  37  59  85 119 156 194 235 285 345
#
# _framework density 19.158942
#
# number of rings (size 3 to 8) (size 9 to 14) (size 15 to 20)
#    0.000    2.444    1.111    0.667    1.556    4.444 
#    4.000    2.222    0.000    0.000    0.000    0.000 
#    0.000    0.000    0.000    0.000    0.000    0.000 
#
# Total GULP energy -200459.308500 kJ/mol
# GULP energy per Si atom -5568.314125 kJ/mol
# Density = 1.911534 g / cm^3
# Si number density = 19.158942 Si / 1000 Ang^3
#
#
#
# Elastic Constant Matrix: (Units=GPa)
#
#
# Indices 1 2 3 4 5 6 
#
# 1 181.2848 32.0521 94.9849 0.0000 0.0000 0.0000
# 2 32.0521 48.0436 33.7713 0.0000 0.0000 0.0000
# 3 94.9849 33.7713 158.7626 0.0000 0.0000 0.0000
# 4 0.0000 0.0000 0.0000 26.1225 0.0000 0.0000
# 5 0.0000 0.0000 0.0000 0.0000 41.7053 0.0000
# 6 0.0000 0.0000 0.0000 0.0000 0.0000 20.3547
#
#
#
# Elastic Compliance Matrix: (Units=1/GPa)
#
#
# Indices 1 2 3 4 5 6 
#
# 1 0.008263 -0.002396 -0.004434 0.000000 0.000000 0.000000
# 2 -0.002396 0.025169 -0.003920 0.000000 0.000000 0.000000
# 3 -0.004434 -0.003920 0.009785 0.000000 0.000000 0.000000
# 4 0.000000 0.000000 0.000000 0.038281 0.000000 0.000000
# 5 0.000000 0.000000 0.000000 0.000000 0.023978 0.000000
# 6 0.000000 0.000000 0.000000 0.000000 0.000000 0.049129
#
#
# Mechanical properties :
#
#
# Convention : Reuss Voigt Hill
#
# Bulk Modulus (GPa) = 46.04773 78.85638 62.45206
# Shear Modulus (GPa) = 27.27120 32.78869 30.02995
#
# Velocity S-wave (km/s) = 3.77692 4.14140 3.96335
# Velocity P-wave (km/s) = 6.56558 8.00729 7.32201
#
# Compressibility (1/GPa) = 0.02171660
#
# Stress axis : x y z
#
# Youngs Moduli (GPa) = 121.02191 39.73215 102.19319
#
# Poissons Ratio (x) = 0.09519 0.45312
# Poissons Ratio (y) = 0.28995 0.40063
# Poissons Ratio (z) = 0.53661 0.15576
#
# Static dielectric constant tensor:
#      x y z
#    x 1.625660 0.000000 0.000000 
#    y 0.000000 1.706870 0.000000 
#    z 0.000000 0.000000 1.731270 
# 
# From -- ./inp_files/11796.got.cif
#   From: 2010.05.17/outbox.cif.g08.bks.cpg/sg63_6_cif.got.tgz:11796.got - 2010.06.03 15:47:04.
