data_PCOD9473046
_publ_section_title
;
Structure prediction by ZEFSAII (Michael W. Deem and Ramdas Pophale) SiO2 
 PCOD9473046
Probable space group: C M C M
;
_chemical_formula_sum "Si O2"
_cell_formula_units_Z 72
_cell_length_a 15.537023
_cell_length_b 16.012830
_cell_length_c 13.865729
_cell_angle_alpha 90.000000
_cell_angle_beta 90.000000
_cell_angle_gamma 90.000000
_cell_volume 3449.678401
_symmetry_space_group_name_H-M "C M C M"
_symmetry_group_IT_number 63
_symmetry_cell_setting 'orthorhombic'
loop_
_space_group_symop_operation_xyz
x,y,z
-x,-y,1/2+z
x,-y,-z
-x,y,1/2-z
-x,-y,-z
x,y,1/2-z
-x,y,z
x,-y,1/2+z
1/2+x,1/2+y,z
1/2-x,1/2-y,1/2+z
1/2+x,1/2-y,-z
1/2-x,1/2+y,1/2-z
1/2-x,1/2-y,-z
1/2+x,1/2+y,1/2-z
1/2-x,1/2+y,z
1/2+x,1/2-y,1/2+z
loop_
_atom_site_type_symbol
_atom_site_label
_atom_site_fract_x
_atom_site_fract_y
_atom_site_fract_z
Si Si1 0.664872 0.299040 0.365364
Si Si2 0.316040 0.881360 0.865246
Si Si3 0.000000 0.939222 0.866182
Si Si4 0.817314 0.982832 0.133821
Si Si5 0.500000 0.095769 0.035247
Si Si6 0.500000 0.721707 0.001431
O O1 0.642779 0.299694 0.250000
O O2 0.715611 0.213347 0.383970
O O3 0.706885 0.387632 0.388391
O O4 0.581269 0.293120 0.431845
O O5 0.321358 0.890183 0.750000
O O6 0.250082 0.949745 0.903231
O O7 0.411741 0.893514 0.905318
O O8 0.914304 0.991015 0.892989
O O9 0.000000 0.929057 0.750000
O O10 0.000000 0.848582 0.916266
O O11 0.816018 0.988364 0.250000
O O12 0.500000 0.179870 0.967774
O O13 0.500000 0.000000 0.000000
#
# Coordination Sequence:
#
# PCOD9473046 Si02
#       6
#    16  16   8  16   8   8
#     4   9  17  32  57  86 113 142 185 237 278 325
#     4   9  18  36  60  82 108 145 188 231 278 330
#     4  10  21  38  55  78 118 150 182 231 279 339
#     4   9  18  34  56  84 115 148 183 227 280 332
#     4  10  21  40  55  79 111 143 186 242 275 326
#     4  10  20  36  57  83 108 146 194 228 287 332
#
# _framework density 20.871511000000002
#
# number of rings (size 3 to 8) (size 9 to 14) (size 15 to 20)
#    0.000    2.667    0.000    1.333    0.000    6.222 
#    8.000    3.333    0.000    0.000    0.000    0.000 
#    0.000    0.000    0.000    0.000    0.000    0.000 
#
# Total GULP energy -200854.382141 kJ/mol
# GULP energy per Si atom -5579.288393 kJ/mol
# Density = 2.082401 g / cm^3
# Si number density = 20.871511 Si / 1000 Ang^3
#
#
#
# Elastic Constant Matrix: (Units=GPa)
#
#
# Indices 1 2 3 4 5 6 
#
# 1 88.8923 69.4298 -5.4155 0.0000 0.0000 0.0000
# 2 69.4298 240.4732 44.2208 0.0000 0.0000 0.0000
# 3 -5.4155 44.2208 75.1563 0.0000 0.0000 0.0000
# 4 0.0000 0.0000 0.0000 30.7265 0.0000 0.0000
# 5 0.0000 0.0000 0.0000 0.0000 -78.7151 0.0000
# 6 0.0000 0.0000 0.0000 0.0000 0.0000 45.3927
#
#
#
# Elastic Compliance Matrix: (Units=1/GPa)
#
#
# Indices 1 2 3 4 5 6 
#
# 1 0.015646 -0.005298 0.004245 0.000000 0.000000 0.000000
# 2 -0.005298 0.006457 -0.004181 0.000000 0.000000 0.000000
# 3 0.004245 -0.004181 0.016071 0.000000 0.000000 0.000000
# 4 0.000000 0.000000 0.000000 0.032545 0.000000 0.000000
# 5 0.000000 0.000000 0.000000 0.000000 -0.012704 0.000000
# 6 0.000000 0.000000 0.000000 0.000000 0.000000 0.022030
#
#
# Mechanical properties :
#
#
# Convention : Reuss Voigt Hill
#
# Bulk Modulus (GPa) = 36.09313 68.99910 52.54612
# Shear Modulus (GPa) = 50.12565 19.23329 34.67947
#
# Velocity S-wave (km/s) = 4.90596 3.03893 4.08066
# Velocity P-wave (km/s) = 7.03006 6.74123 6.88716
#
# Compressibility (1/GPa) = 0.02770610
#
# Stress axis : x y z
#
# Youngs Moduli (GPa) = 63.91357 154.87251 62.22214
#
# Poissons Ratio (x) = 0.82050 -0.26411
# Poissons Ratio (y) = 0.33861 0.26015
# Poissons Ratio (z) = -0.27129 0.64751
#
# Static dielectric constant tensor:
#      x y z
#    x 1.705570 0.000000 0.000000 
#    y 0.000000 1.795920 0.000000 
#    z 0.000000 0.000000 1.749830 
# 
# From -- ./inp_files/33691.got.cif
#   From: 2010.05.17/outbox.cif.g08.bks.cpg/sg63_17_cif.got.tgz:33691.got - 2010.06.03 15:47:04.
