data_PCOD9473107
_publ_section_title
;
Structure prediction by ZEFSAII (Michael W. Deem and Ramdas Pophale) SiO2 
 PCOD9473107
Probable space group: C M C M
;
_chemical_formula_sum "Si O2"
_cell_formula_units_Z 80
_cell_length_a 9.300548
_cell_length_b 14.491433
_cell_length_c 30.613450
_cell_angle_alpha 90.000000
_cell_angle_beta 90.000000
_cell_angle_gamma 90.000000
_cell_volume 4126.027775
_symmetry_space_group_name_H-M "C M C M"
_symmetry_group_IT_number 63
_symmetry_cell_setting 'orthorhombic'
loop_
_space_group_symop_operation_xyz
x,y,z
-x,-y,1/2+z
x,-y,-z
-x,y,1/2-z
-x,-y,-z
x,y,1/2-z
-x,y,z
x,-y,1/2+z
1/2+x,1/2+y,z
1/2-x,1/2-y,1/2+z
1/2+x,1/2-y,-z
1/2-x,1/2+y,1/2-z
1/2-x,1/2-y,-z
1/2+x,1/2+y,1/2-z
1/2-x,1/2+y,z
1/2+x,1/2-y,1/2+z
loop_
_atom_site_type_symbol
_atom_site_label
_atom_site_fract_x
_atom_site_fract_y
_atom_site_fract_z
Si Si1 0.830181 0.378886 0.114257
Si Si2 0.834119 0.103332 0.202357
Si Si3 0.331786 0.901472 0.883699
Si Si4 0.334076 0.378685 0.201023
Si Si5 0.827337 0.749521 0.453515
O O1 0.809263 0.489335 0.110348
O O2 0.769695 0.350819 0.161850
O O3 0.738636 0.328803 0.077152
O O4 0.000000 0.358831 0.110391
O O5 0.774329 0.130730 0.250000
O O6 0.751620 0.132199 0.159128
O O7 0.000000 0.132488 0.200085
O O8 0.832959 0.990975 0.201715
O O9 0.500000 0.886976 0.875265
O O10 0.294429 0.844363 0.926796
O O11 0.292370 0.348922 0.250000
O O12 0.500000 0.350650 0.192756
O O13 0.750000 0.750000 0.500000
O O14 0.000000 0.758257 0.457932
#
# Coordination Sequence:
#
# PCOD9473107 Si02
#       5
#    16  16  16  16  16
#     4  10  20  36  58  84 112 143 180 223 270 320
#     4   8  14  26  48  79 112 144 179 219 261 308
#     4   9  20  37  57  81 111 145 179 219 269 323
#     4   8  14  27  49  78 112 148 182 217 261 313
#     4  11  24  42  60  80 107 140 180 227 279 331
#
# _framework density 19.389108
#
# number of rings (size 3 to 8) (size 9 to 14) (size 15 to 20)
#    0.000    2.800    0.000    2.400    0.000    4.000 
#    0.000    9.000    0.000    1.200    0.000    0.000 
#    0.000    0.000    0.000    0.000    0.000    0.000 
#
# Total GULP energy -223225.566841 kJ/mol
# GULP energy per Si atom -5580.639171 kJ/mol
# Density = 1.934498 g / cm^3
# Si number density = 19.389108 Si / 1000 Ang^3
#
#
#
# Elastic Constant Matrix: (Units=GPa)
#
#
# Indices 1 2 3 4 5 6 
#
# 1 82.9321 41.9433 97.8345 0.0000 0.0000 0.0000
# 2 41.9433 52.6952 42.1703 0.0000 0.0000 0.0000
# 3 97.8345 42.1703 197.7142 0.0000 0.0000 0.0000
# 4 0.0000 0.0000 0.0000 33.4372 0.0000 0.0000
# 5 0.0000 0.0000 0.0000 0.0000 41.2481 0.0000
# 6 0.0000 0.0000 0.0000 0.0000 0.0000 18.6799
#
#
#
# Elastic Compliance Matrix: (Units=1/GPa)
#
#
# Indices 1 2 3 4 5 6 
#
# 1 0.041058 -0.019802 -0.016093 0.000000 0.000000 0.000000
# 2 -0.019802 0.032433 0.002881 0.000000 0.000000 0.000000
# 3 -0.016093 0.002881 0.012407 0.000000 0.000000 0.000000
# 4 0.000000 0.000000 0.000000 0.029907 0.000000 0.000000
# 5 0.000000 0.000000 0.000000 0.000000 0.024244 0.000000
# 6 0.000000 0.000000 0.000000 0.000000 0.000000 0.053534
#
#
# Mechanical properties :
#
#
# Convention : Reuss Voigt Hill
#
# Bulk Modulus (GPa) = 50.32808 77.47085 63.89947
# Shear Modulus (GPa) = 18.78062 28.76593 23.77328
#
# Velocity S-wave (km/s) = 3.11564 3.85595 3.50539
# Velocity P-wave (km/s) = 6.24149 7.73738 7.02934
#
# Compressibility (1/GPa) = 0.01986962
#
# Stress axis : x y z
#
# Youngs Moduli (GPa) = 24.35602 30.83286 80.60209
#
# Poissons Ratio (x) = 0.61054 1.29713
# Poissons Ratio (y) = 0.48229 -0.23220
# Poissons Ratio (z) = 0.39196 -0.08882
#
# Static dielectric constant tensor:
#      x y z
#    x 1.652750 0.000000 0.000000 
#    y 0.000000 1.734650 0.000000 
#    z 0.000000 0.000000 1.654070 
# 
# From -- ./inp_files/66559.got.cif
#   From: 2010.05.17/outbox.cif.g08.bks.cpg/sg63_34_cif.got.tgz:66559.got - 2010.06.03 15:47:04.
