data_PCOD9473341
_publ_section_title
;
Structure prediction by ZEFSAII (Michael W. Deem and Ramdas Pophale) SiO2 
 PCOD9473341
Probable space group: C M C M
;
_chemical_formula_sum "Si O2"
_cell_formula_units_Z 88
_cell_length_a 22.462498
_cell_length_b 23.958729
_cell_length_c 8.255482
_cell_angle_alpha 90.000000
_cell_angle_beta 90.000000
_cell_angle_gamma 90.000000
_cell_volume 4442.876707
_symmetry_space_group_name_H-M "C M C M"
_symmetry_group_IT_number 63
_symmetry_cell_setting 'orthorhombic'
loop_
_space_group_symop_operation_xyz
x,y,z
-x,-y,1/2+z
x,-y,-z
-x,y,1/2-z
-x,-y,-z
x,y,1/2-z
-x,y,z
x,-y,1/2+z
1/2+x,1/2+y,z
1/2-x,1/2-y,1/2+z
1/2+x,1/2-y,-z
1/2-x,1/2+y,1/2-z
1/2-x,1/2-y,-z
1/2+x,1/2+y,1/2-z
1/2-x,1/2+y,z
1/2+x,1/2-y,1/2+z
loop_
_atom_site_type_symbol
_atom_site_label
_atom_site_fract_x
_atom_site_fract_y
_atom_site_fract_z
Si Si1 0.500000 0.435055 0.446479
Si Si2 0.070918 0.439666 0.062237
Si Si3 0.159299 0.646263 0.060074
Si Si4 0.258240 0.438852 0.944334
Si Si5 0.125271 0.881845 0.445256
Si Si6 0.317237 0.265082 0.054195
O O1 0.500000 0.500000 0.500000
O O2 0.500000 0.434893 0.250000
O O3 0.560186 0.402682 0.501085
O O4 0.086796 0.433764 0.250000
O O5 0.000000 0.437018 0.045999
O O6 0.090599 0.500000 0.000000
O O7 0.102177 0.391508 0.963705
O O8 0.172307 0.652416 0.250000
O O9 0.214585 0.610217 0.991260
O O10 0.149620 0.708679 0.998161
O O11 0.257418 0.437676 0.750000
O O12 0.238478 0.500000 0.000000
O O13 0.324389 0.426176 0.005706
O O14 0.122437 0.878803 0.250000
O O15 0.151297 0.821872 0.505702
O O16 0.316867 0.269714 0.250000
O O17 0.250000 0.250000 0.000000
#
# Coordination Sequence:
#
# PCOD9473341 Si02
#       6
#     8  16  16  16  16  16
#     4  10  22  40  60  86 116 152 197 244 291 348
#     4  10  21  37  57  81 111 147 187 232 282 336
#     4  10  21  36  55  83 114 147 188 230 279 343
#     4  11  22  35  54  83 116 145 185 233 283 341
#     4  10  21  38  60  84 114 150 191 237 291 344
#     4  10  20  37  59  85 114 148 186 229 282 340
#
# _framework density 19.806985999999998
#
# number of rings (size 3 to 8) (size 9 to 14) (size 15 to 20)
#    0.000    1.818    1.818    2.182    0.000    6.909 
#    1.636    0.000    0.000    0.000    0.000    0.000 
#    0.000    0.000    0.000    0.000    0.000    0.000 
#
# Total GULP energy -245466.969069 kJ/mol
# GULP energy per Si atom -5578.794752 kJ/mol
# Density = 1.976190 g / cm^3
# Si number density = 19.806986 Si / 1000 Ang^3
#
#
#
# Elastic Constant Matrix: (Units=GPa)
#
#
# Indices 1 2 3 4 5 6 
#
# 1 51.2895 43.3021 29.1523 0.0000 0.0000 0.0000
# 2 43.3021 143.5340 11.6098 0.0000 0.0000 0.0000
# 3 29.1523 11.6098 -4.2168 0.0000 0.0000 0.0000
# 4 0.0000 0.0000 0.0000 19.8312 0.0000 0.0000
# 5 0.0000 0.0000 0.0000 0.0000 -26.3597 0.0000
# 6 0.0000 0.0000 0.0000 0.0000 0.0000 -5.7146
#
#
#
# Elastic Compliance Matrix: (Units=1/GPa)
#
#
# Indices 1 2 3 4 5 6 
#
# 1 0.006030 -0.004246 0.030000 0.000000 0.000000 0.000000
# 2 -0.004246 0.008687 -0.005434 0.000000 0.000000 0.000000
# 3 0.030000 -0.005434 -0.044709 0.000000 0.000000 0.000000
# 4 0.000000 0.000000 0.000000 0.050426 0.000000 0.000000
# 5 0.000000 0.000000 0.000000 0.000000 -0.037937 0.000000
# 6 0.000000 0.000000 0.000000 0.000000 0.000000 -0.174991
#
#
# Mechanical properties :
#
#
# Convention : Reuss Voigt Hill
#
# Bulk Modulus (GPa) = 93.90925 39.85945 66.88435
# Shear Modulus (GPa) = -21.77867 4.65420 -8.56223
#
# Velocity S-wave (km/s) = -3.31954 1.53456 -2.08140
# Velocity P-wave (km/s) = 5.72911 4.82778 5.29765
#
# Compressibility (1/GPa) = 0.01064858
#
# Stress axis : x y z
#
# Youngs Moduli (GPa) = 165.83126 115.10894 -22.36707
#
# Poissons Ratio (x) = 0.48873 0.67101
# Poissons Ratio (y) = 0.70408 -0.12155
# Poissons Ratio (z) = -4.97489 0.62553
#
# Static dielectric constant tensor:
#      x y z
#    x 1.704440 0.000000 0.000000 
#    y 0.000000 1.729910 0.000000 
#    z 0.000000 0.000000 1.877520 
# 
# From -- ./inp_files/8204.got.cif
#   From: 2010.05.17/outbox.cif.g08.bks.cpg/sg63_5_cif.got.tgz:8204.got - 2010.06.03 15:47:04.
