data_PCOD9473555
_publ_section_title
;
Structure prediction by ZEFSAII (Michael W. Deem and Ramdas Pophale) SiO2 
 PCOD9473555
Probable space group: C M C M
;
_chemical_formula_sum "Si O2"
_cell_formula_units_Z 52
_cell_length_a 17.698094
_cell_length_b 5.030674
_cell_length_c 22.102579
_cell_angle_alpha 90.000000
_cell_angle_beta 90.000000
_cell_angle_gamma 90.000000
_cell_volume 1967.866460
_symmetry_space_group_name_H-M "C M C M"
_symmetry_group_IT_number 63
_symmetry_cell_setting 'orthorhombic'
loop_
_space_group_symop_operation_xyz
x,y,z
-x,-y,1/2+z
x,-y,-z
-x,y,1/2-z
-x,-y,-z
x,y,1/2-z
-x,y,z
x,-y,1/2+z
1/2+x,1/2+y,z
1/2-x,1/2-y,1/2+z
1/2+x,1/2-y,-z
1/2-x,1/2+y,1/2-z
1/2-x,1/2-y,-z
1/2+x,1/2+y,1/2-z
1/2-x,1/2+y,z
1/2+x,1/2-y,1/2+z
loop_
_atom_site_type_symbol
_atom_site_label
_atom_site_fract_x
_atom_site_fract_y
_atom_site_fract_z
Si Si1 0.303519 0.522770 0.750000
Si Si2 0.913584 0.313517 0.448020
Si Si3 0.694813 0.456274 0.117721
Si Si4 0.000000 0.010032 0.250000
Si Si5 0.000000 0.511942 0.341881
O O1 0.252337 0.778853 0.750000
O O2 0.342755 0.518775 0.685216
O O3 0.880336 0.500000 0.500000
O O4 0.865068 0.058268 0.430790
O O5 0.927946 0.486914 0.386958
O O6 0.000000 0.244129 0.465332
O O7 0.737665 0.176847 0.113531
O O8 0.000000 0.248576 0.198399
O O9 0.000000 0.772999 0.197776
#
# Coordination Sequence:
#
# PCOD9473555 Si02
#       5
#     8  16  16   4   8
#     4   8  16  32  54  82 119 159 196 256 322 372
#     4   9  21  44  66  94 136 178 218 269 326 386
#     4  10  21  39  63  92 126 168 218 266 321 386
#     4  10  20  38  64  98 124 156 216 276 318 378
#     4   9  21  40  62  92 129 165 206 266 330 385
#
# _framework density 26.424555000000002
#
# number of rings (size 3 to 8) (size 9 to 14) (size 15 to 20)
#    0.923    1.846    0.000    0.000    0.000    6.154 
#    0.000   18.462    0.000    0.000    0.000    0.000 
#    0.000    0.000    0.000    0.000    0.000    0.000 
#
# Total GULP energy -145053.520320 kJ/mol
# GULP energy per Si atom -5578.981551 kJ/mol
# Density = 2.636441 g / cm^3
# Si number density = 26.424555 Si / 1000 Ang^3
#
#
#
# Elastic Constant Matrix: (Units=GPa)
#
#
# Indices 1 2 3 4 5 6 
#
# 1 85.7617 28.2444 -0.0460 0.0000 0.0000 0.0000
# 2 28.2444 198.2173 68.4884 0.0000 0.0000 0.0000
# 3 -0.0460 68.4884 157.0086 0.0000 0.0000 0.0000
# 4 0.0000 0.0000 0.0000 25.0848 0.0000 0.0000
# 5 0.0000 0.0000 0.0000 0.0000 142.3246 0.0000
# 6 0.0000 0.0000 0.0000 0.0000 0.0000 17.8971
#
#
#
# Elastic Compliance Matrix: (Units=1/GPa)
#
#
# Indices 1 2 3 4 5 6 
#
# 1 0.012343 -0.002072 0.000908 0.000000 0.000000 0.000000
# 2 -0.002072 0.006288 -0.002744 0.000000 0.000000 0.000000
# 3 0.000908 -0.002744 0.007566 0.000000 0.000000 0.000000
# 4 0.000000 0.000000 0.000000 0.039865 0.000000 0.000000
# 5 0.000000 0.000000 0.000000 0.000000 0.007026 0.000000
# 6 0.000000 0.000000 0.000000 0.000000 0.000000 0.055875
#
#
# Mechanical properties :
#
#
# Convention : Reuss Voigt Hill
#
# Bulk Modulus (GPa) = 54.40455 70.48458 62.44456
# Shear Modulus (GPa) = 34.98774 60.01469 47.50121
#
# Velocity S-wave (km/s) = 3.64271 4.77085 4.24443
# Velocity P-wave (km/s) = 6.19078 7.55512 6.90672
#
# Compressibility (1/GPa) = 0.01838082
#
# Stress axis : x y z
#
# Youngs Moduli (GPa) = 81.01610 159.02700 132.16822
#
# Poissons Ratio (x) = 0.32957 -0.11996
# Poissons Ratio (y) = 0.16790 0.36261
# Poissons Ratio (z) = -0.07353 0.43630
#
# Static dielectric constant tensor:
#      x y z
#    x 2.117620 0.000000 0.000000 
#    y 0.000000 2.003120 0.000000 
#    z 0.000000 0.000000 2.183840 
# 
# From -- ./inp_files/56215.got.cif
#   From: 2010.05.17/outbox.cif.g08.bks.cpg/sg63_29_cif.got.tgz:56215.got - 2010.06.03 15:47:04.
