data_PCOD9473072
_publ_section_title
;
Structure prediction by ZEFSAII (Michael W. Deem and Ramdas Pophale) SiO2 
 PCOD9473072
Probable space group: C M C M
;
_chemical_formula_sum "Si O2"
_cell_formula_units_Z 80
_cell_length_a 18.919988
_cell_length_b 13.635982
_cell_length_c 17.859082
_cell_angle_alpha 90.000000
_cell_angle_beta 90.000000
_cell_angle_gamma 90.000000
_cell_volume 4607.511281
_symmetry_space_group_name_H-M "C M C M"
_symmetry_group_IT_number 63
_symmetry_cell_setting 'orthorhombic'
loop_
_space_group_symop_operation_xyz
x,y,z
-x,-y,1/2+z
x,-y,-z
-x,y,1/2-z
-x,-y,-z
x,y,1/2-z
-x,y,z
x,-y,1/2+z
1/2+x,1/2+y,z
1/2-x,1/2-y,1/2+z
1/2+x,1/2-y,-z
1/2-x,1/2+y,1/2-z
1/2-x,1/2-y,-z
1/2+x,1/2+y,1/2-z
1/2-x,1/2+y,z
1/2+x,1/2-y,1/2+z
loop_
_atom_site_type_symbol
_atom_site_label
_atom_site_fract_x
_atom_site_fract_y
_atom_site_fract_z
Si Si1 0.211909 0.712832 0.161488
Si Si2 0.500000 0.503433 0.410644
Si Si3 0.645061 0.172228 0.839310
Si Si4 0.282139 0.008632 0.411407
Si Si5 0.641976 0.579810 0.660674
Si Si6 0.500000 0.717970 0.339797
O O1 0.208581 0.688725 0.250000
O O2 0.291033 0.752144 0.144898
O O3 0.196232 0.617292 0.113484
O O4 0.161453 0.806048 0.147642
O O5 0.500000 0.500000 0.500000
O O6 0.569863 0.451838 0.378096
O O7 0.500000 0.615230 0.382056
O O8 0.647755 0.152267 0.750000
O O9 0.570316 0.220535 0.857507
O O10 0.662718 0.072613 0.882359
O O11 0.273779 0.000000 0.500000
O O12 0.207749 0.982074 0.371577
O O13 0.637780 0.564078 0.750000
O O14 0.500000 0.699090 0.250000
#
# Coordination Sequence:
#
# PCOD9473072 Si02
#       6
#    16   8  16  16  16   8
#     4   9  18  34  55  75 101 140 180 220 264 313
#     4  12  24  36  55  84 115 140 167 216 276 324
#     4   9  19  35  55  78 102 136 184 226 259 311
#     4  11  21  33  54  82 111 141 174 222 277 320
#     4  10  21  37  56  78 106 142 185 222 255 314
#     4  10  20  36  58  78 102 142 186 224 260 306
#
# _framework density 17.362953000000001
#
# number of rings (size 3 to 8) (size 9 to 14) (size 15 to 20)
#    0.000    2.000    0.000    5.700    0.000    6.400 
#    0.000    1.500    0.000    2.400    0.000    0.000 
#    0.000    0.000    0.000    0.000    0.000    0.000 
#
# Total GULP energy -223412.859398 kJ/mol
# GULP energy per Si atom -5585.321485 kJ/mol
# Density = 1.732343 g / cm^3
# Si number density = 17.362953 Si / 1000 Ang^3
#
#
#
# Elastic Constant Matrix: (Units=GPa)
#
#
# Indices 1 2 3 4 5 6 
#
# 1 138.2342 71.0668 69.7047 0.0000 0.0000 0.0000
# 2 71.0668 116.7841 83.9118 0.0000 0.0000 0.0000
# 3 69.7047 83.9118 106.7666 0.0000 0.0000 0.0000
# 4 0.0000 0.0000 0.0000 -45.0486 0.0000 0.0000
# 5 0.0000 0.0000 0.0000 0.0000 20.9238 0.0000
# 6 0.0000 0.0000 0.0000 0.0000 0.0000 7.3671
#
#
#
# Elastic Compliance Matrix: (Units=1/GPa)
#
#
# Indices 1 2 3 4 5 6 
#
# 1 0.011427 -0.003660 -0.004584 0.000000 0.000000 0.000000
# 2 -0.003660 0.020844 -0.013992 0.000000 0.000000 0.000000
# 3 -0.004584 -0.013992 0.023356 0.000000 0.000000 0.000000
# 4 0.000000 0.000000 0.000000 -0.022198 0.000000 0.000000
# 5 0.000000 0.000000 0.000000 0.000000 0.047792 0.000000
# 6 0.000000 0.000000 0.000000 0.000000 0.000000 0.135739
#
#
# Mechanical properties :
#
#
# Convention : Reuss Voigt Hill
#
# Bulk Modulus (GPa) = 89.65112 90.12796 89.88954
# Shear Modulus (GPa) = 18.85713 5.78856 12.32285
#
# Velocity S-wave (km/s) = 3.29911 1.82787 2.66695
# Velocity P-wave (km/s) = 8.13989 7.51503 7.83369
#
# Compressibility (1/GPa) = 0.01115435
#
# Stress axis : x y z
#
# Youngs Moduli (GPa) = 87.51024 47.97527 42.81567
#
# Poissons Ratio (x) = 0.17561 0.19625
# Poissons Ratio (y) = 0.32032 0.59909
# Poissons Ratio (z) = 0.40112 0.67129
#
# Static dielectric constant tensor:
#      x y z
#    x 1.568970 0.000000 0.000000 
#    y 0.000000 1.574960 0.000000 
#    z 0.000000 0.000000 1.576950 
# 
# From -- ./inp_files/55318.got.cif
#   From: 2010.05.17/outbox.cif.g08.bks.cpg/sg63_28_cif.got.tgz:55318.got - 2010.06.03 15:47:04.
