data_PCOD9473126
_publ_section_title
;
Structure prediction by ZEFSAII (Michael W. Deem and Ramdas Pophale) SiO2 
 PCOD9473126
Probable space group: C M C M
;
_chemical_formula_sum "Si O2"
_cell_formula_units_Z 96
_cell_length_a 23.801796
_cell_length_b 11.967971
_cell_length_c 18.039996
_cell_angle_alpha 90.000000
_cell_angle_beta 90.000000
_cell_angle_gamma 90.000000
_cell_volume 5138.858906
_symmetry_space_group_name_H-M "C M C M"
_symmetry_group_IT_number 63
_symmetry_cell_setting 'orthorhombic'
loop_
_space_group_symop_operation_xyz
x,y,z
-x,-y,1/2+z
x,-y,-z
-x,y,1/2-z
-x,-y,-z
x,y,1/2-z
-x,y,z
x,-y,1/2+z
1/2+x,1/2+y,z
1/2-x,1/2-y,1/2+z
1/2+x,1/2-y,-z
1/2-x,1/2+y,1/2-z
1/2-x,1/2-y,-z
1/2+x,1/2+y,1/2-z
1/2-x,1/2+y,z
1/2+x,1/2-y,1/2+z
loop_
_atom_site_type_symbol
_atom_site_label
_atom_site_fract_x
_atom_site_fract_y
_atom_site_fract_z
Si Si1 0.232163 0.599742 0.060792
Si Si2 0.433582 0.846757 0.606480
Si Si3 0.934541 0.903070 0.161374
Si Si4 0.851430 0.516971 0.665794
Si Si5 0.364470 0.187338 0.968198
Si Si6 0.860994 0.075232 0.426879
O O1 0.197952 0.560480 0.132713
O O2 0.296293 0.612492 0.086402
O O3 0.232074 0.500000 0.000000
O O4 0.193684 0.691379 0.017435
O O5 0.500000 0.855087 0.606820
O O6 0.418491 0.719132 0.629390
O O7 0.407200 0.868726 0.525740
O O8 0.405890 0.937950 0.659832
O O9 0.932342 0.896322 0.250000
O O10 0.000000 0.925072 0.139753
O O11 0.893242 0.000227 0.132801
O O12 0.841784 0.553069 0.750000
O O13 0.856096 0.616614 0.606230
O O14 0.388928 0.307153 0.946327
O O15 0.860772 0.000000 0.500000
#
# Coordination Sequence:
#
# PCOD9473126 Si02
#       6
#    16  16  16  16  16  16
#     4   8  18  35  57  81 111 147 191 233 277 335
#     4  10  20  38  62  83 109 151 200 242 282 338
#     4  10  22  38  56  83 118 152 193 243 287 338
#     4  10  21  37  55  81 117 152 188 239 294 339
#     4  10  20  36  58  86 117 147 188 242 290 338
#     4  11  20  35  60  86 111 151 193 231 285 348
#
# _framework density 18.681190000000001
#
# number of rings (size 3 to 8) (size 9 to 14) (size 15 to 20)
#    0.000    2.167    1.667    2.500    0.000    4.667 
#    0.000    0.000    0.000    0.000    0.000    0.000 
#    0.000    0.000    0.000    0.000    0.000    0.000 
#
# Total GULP energy -267423.385594 kJ/mol
# GULP energy per Si atom -5571.320533 kJ/mol
# Density = 1.863867 g / cm^3
# Si number density = 18.681190 Si / 1000 Ang^3
#
#
#
# Elastic Constant Matrix: (Units=GPa)
#
#
# Indices 1 2 3 4 5 6 
#
# 1 64.1159 16.1145 25.7556 0.0000 0.0000 0.0000
# 2 16.1145 73.1102 31.4962 0.0000 0.0000 0.0000
# 3 25.7556 31.4962 119.2328 0.0000 0.0000 0.0000
# 4 0.0000 0.0000 0.0000 25.1731 0.0000 0.0000
# 5 0.0000 0.0000 0.0000 0.0000 14.1515 0.0000
# 6 0.0000 0.0000 0.0000 0.0000 0.0000 23.0688
#
#
#
# Elastic Compliance Matrix: (Units=1/GPa)
#
#
# Indices 1 2 3 4 5 6 
#
# 1 0.017478 -0.002512 -0.003112 0.000000 0.000000 0.000000
# 2 -0.002512 0.015795 -0.003630 0.000000 0.000000 0.000000
# 3 -0.003112 -0.003630 0.010018 0.000000 0.000000 0.000000
# 4 0.000000 0.000000 0.000000 0.039725 0.000000 0.000000
# 5 0.000000 0.000000 0.000000 0.000000 0.070664 0.000000
# 6 0.000000 0.000000 0.000000 0.000000 0.000000 0.043349
#
#
# Mechanical properties :
#
#
# Convention : Reuss Voigt Hill
#
# Bulk Modulus (GPa) = 40.34813 44.79905 42.57359
# Shear Modulus (GPa) = 22.34160 24.68485 23.51323
#
# Velocity S-wave (km/s) = 3.46199 3.63902 3.55161
# Velocity P-wave (km/s) = 6.13398 6.45674 6.29742
#
# Compressibility (1/GPa) = 0.02478429
#
# Stress axis : x y z
#
# Youngs Moduli (GPa) = 57.21434 63.30960 99.81994
#
# Poissons Ratio (x) = 0.15902 0.31064
# Poissons Ratio (y) = 0.14371 0.36234
# Poissons Ratio (z) = 0.17805 0.22981
#
# Static dielectric constant tensor:
#      x y z
#    x 1.689670 0.000000 0.000000 
#    y 0.000000 1.688840 0.000000 
#    z 0.000000 0.000000 1.625350 
# 
# From -- ./inp_files/47990.got.cif
#   From: 2010.05.17/outbox.cif.g08.bks.cpg/sg63_24_cif.got.tgz:47990.got - 2010.06.03 15:47:04.
