data_PCOD9473204
_publ_section_title
;
Structure prediction by ZEFSAII (Michael W. Deem and Ramdas Pophale) SiO2 
 PCOD9473204
Probable space group: C M C M
;
_chemical_formula_sum "Si O2"
_cell_formula_units_Z 80
_cell_length_a 24.662425
_cell_length_b 5.356915
_cell_length_c 24.707380
_cell_angle_alpha 90.000000
_cell_angle_beta 90.000000
_cell_angle_gamma 90.000000
_cell_volume 3264.203511
_symmetry_space_group_name_H-M "C M C M"
_symmetry_group_IT_number 63
_symmetry_cell_setting 'orthorhombic'
loop_
_space_group_symop_operation_xyz
x,y,z
-x,-y,1/2+z
x,-y,-z
-x,y,1/2-z
-x,-y,-z
x,y,1/2-z
-x,y,z
x,-y,1/2+z
1/2+x,1/2+y,z
1/2-x,1/2-y,1/2+z
1/2+x,1/2-y,-z
1/2-x,1/2+y,1/2-z
1/2-x,1/2-y,-z
1/2+x,1/2+y,1/2-z
1/2-x,1/2+y,z
1/2+x,1/2-y,1/2+z
loop_
_atom_site_type_symbol
_atom_site_label
_atom_site_fract_x
_atom_site_fract_y
_atom_site_fract_z
Si Si1 0.438935 0.302471 0.045830
Si Si2 0.827259 0.826042 0.189287
Si Si3 0.627372 0.066931 0.607129
Si Si4 0.439976 0.568693 0.337758
Si Si5 0.721436 0.590182 0.096192
O O1 0.500000 0.213479 0.033862
O O2 0.396498 0.086188 0.057750
O O3 0.442495 0.435796 0.104055
O O4 0.424533 0.500000 0.000000
O O5 0.811942 0.755700 0.250000
O O6 0.887619 0.950130 0.190935
O O7 0.786535 0.023491 0.160674
O O8 0.834467 0.599764 0.146260
O O9 0.578140 0.152383 0.645880
O O10 0.661313 0.303632 0.585909
O O11 0.500000 0.556105 0.313226
O O12 0.742060 0.322252 0.075876
#
# Coordination Sequence:
#
# PCOD9473204 Si02
#       5
#    16  16  16  16  16
#     4   9  18  34  59  93 129 165 208 258 312 371
#     4  10  22  38  56  84 118 156 203 252 304 369
#     4  10  20  36  60  87 123 164 203 255 312 381
#     4   9  19  35  55  83 120 162 202 246 303 366
#     4  11  22  41  62  87 115 156 202 255 310 360
#
# _framework density 24.508275000000001
#
# number of rings (size 3 to 8) (size 9 to 14) (size 15 to 20)
#    0.000    2.200    2.000    0.600    0.000    6.000 
#    0.000    3.000    0.000    1.200    0.000    0.000 
#    0.000    0.000    0.000    0.000    0.000    0.000 
#
# Total GULP energy -223156.965404 kJ/mol
# GULP energy per Si atom -5578.924135 kJ/mol
# Density = 2.445249 g / cm^3
# Si number density = 24.508275 Si / 1000 Ang^3
#
#
#
# Elastic Constant Matrix: (Units=GPa)
#
#
# Indices 1 2 3 4 5 6 
#
# 1 102.8123 42.1338 -2.5806 0.0000 0.0000 0.0000
# 2 42.1338 126.4353 31.1203 0.0000 0.0000 0.0000
# 3 -2.5806 31.1203 92.2576 0.0000 0.0000 0.0000
# 4 0.0000 0.0000 0.0000 16.5388 0.0000 0.0000
# 5 0.0000 0.0000 0.0000 0.0000 8.7075 0.0000
# 6 0.0000 0.0000 0.0000 0.0000 0.0000 -6.6710
#
#
#
# Elastic Compliance Matrix: (Units=1/GPa)
#
#
# Indices 1 2 3 4 5 6 
#
# 1 0.011522 -0.004274 0.001764 0.000000 0.000000 0.000000
# 2 -0.004274 0.010211 -0.003564 0.000000 0.000000 0.000000
# 3 0.001764 -0.003564 0.012091 0.000000 0.000000 0.000000
# 4 0.000000 0.000000 0.000000 0.060464 0.000000 0.000000
# 5 0.000000 0.000000 0.000000 0.000000 0.114844 0.000000
# 6 0.000000 0.000000 0.000000 0.000000 0.000000 -0.149902
#
#
# Mechanical properties :
#
#
# Convention : Reuss Voigt Hill
#
# Bulk Modulus (GPa) = 46.13372 51.42800 48.78086
# Shear Modulus (GPa) = 63.61138 20.43716 42.02427
#
# Velocity S-wave (km/s) = 5.10014 2.89085 4.14538
# Velocity P-wave (km/s) = 7.31755 5.67205 6.54670
#
# Compressibility (1/GPa) = 0.02167612
#
# Stress axis : x y z
#
# Youngs Moduli (GPa) = 86.78870 97.93736 82.70828
#
# Poissons Ratio (x) = 0.41857 -0.14589
# Poissons Ratio (y) = 0.37093 0.29475
# Poissons Ratio (z) = -0.15309 0.34903
#
# Static dielectric constant tensor:
#      x y z
#    x 2.027900 0.000000 0.000000 
#    y 0.000000 2.044710 0.000000 
#    z 0.000000 0.000000 1.907190 
# 
# From -- ./inp_files/70894.got.cif
#   From: 2010.05.17/outbox.cif.g08.bks.cpg/sg63_36_cif.got.tgz:70894.got - 2010.06.03 15:47:04.
