data_PCOD9473010
_publ_section_title
;
Structure prediction by ZEFSAII (Michael W. Deem and Ramdas Pophale) SiO2 
 PCOD9473010
Probable space group: C M C M
;
_chemical_formula_sum "Si O2"
_cell_formula_units_Z 88
_cell_length_a 20.441452
_cell_length_b 25.259266
_cell_length_c 8.003540
_cell_angle_alpha 90.000000
_cell_angle_beta 90.000000
_cell_angle_gamma 90.000000
_cell_volume 4132.516418
_symmetry_space_group_name_H-M "C M C M"
_symmetry_group_IT_number 63
_symmetry_cell_setting 'orthorhombic'
loop_
_space_group_symop_operation_xyz
x,y,z
-x,-y,1/2+z
x,-y,-z
-x,y,1/2-z
-x,-y,-z
x,y,1/2-z
-x,y,z
x,-y,1/2+z
1/2+x,1/2+y,z
1/2-x,1/2-y,1/2+z
1/2+x,1/2-y,-z
1/2-x,1/2+y,1/2-z
1/2-x,1/2-y,-z
1/2+x,1/2+y,1/2-z
1/2-x,1/2+y,z
1/2+x,1/2-y,1/2+z
loop_
_atom_site_type_symbol
_atom_site_label
_atom_site_fract_x
_atom_site_fract_y
_atom_site_fract_z
Si Si1 0.500000 0.937492 0.451963
Si Si2 0.890500 0.057198 0.548873
Si Si3 0.069971 0.171389 0.548304
Si Si4 0.741097 0.057234 0.950495
Si Si5 0.825562 0.255695 0.052191
Si Si6 0.874207 0.368258 0.045350
O O1 0.500000 0.936993 0.250000
O O2 0.563732 0.903643 0.508725
O O3 0.500000 0.000000 0.500000
O O4 0.889759 0.058386 0.750000
O O5 0.925009 0.110523 0.491380
O O6 0.815313 0.060488 0.485891
O O7 0.917615 0.000000 0.500000
O O8 0.070347 0.171186 0.750000
O O9 0.132116 0.204674 0.493665
O O10 0.000000 0.194085 0.491363
O O11 0.744326 0.060398 0.750000
O O12 0.692033 0.102072 0.008199
O O13 0.714154 0.000000 0.000000
O O14 0.824424 0.261267 0.250000
O O15 0.864272 0.307848 0.986866
O O16 0.750000 0.250000 0.000000
O O17 0.876949 0.367992 0.250000
#
# Coordination Sequence:
#
# PCOD9473010 Si02
#       6
#     8  16  16  16  16  16
#     4  10  20  36  56  82 116 154 195 238 291 358
#     4   9  18  33  54  79 111 148 188 234 289 347
#     4  10  22  40  60  84 119 158 194 241 299 354
#     4   9  16  29  49  74 103 138 180 227 278 333
#     4  11  23  40  63  88 116 154 203 254 304 364
#     4   9  19  34  55  78 108 150 191 233 287 352
#
# _framework density 21.294530000000002
#
# number of rings (size 3 to 8) (size 9 to 14) (size 15 to 20)
#    0.000    2.364    0.000    2.182    1.273    4.364 
#    0.000    7.273    0.000    0.000    0.000    0.000 
#    0.000    0.000    0.000    0.000    0.000    0.000 
#
# Total GULP energy -245505.953678 kJ/mol
# GULP energy per Si atom -5579.680765 kJ/mol
# Density = 2.124606 g / cm^3
# Si number density = 21.294530 Si / 1000 Ang^3
#
#
#
# Elastic Constant Matrix: (Units=GPa)
#
#
# Indices 1 2 3 4 5 6 
#
# 1 137.5485 77.2355 14.2512 0.0000 0.0000 0.0000
# 2 77.2355 153.8864 9.9035 0.0000 0.0000 0.0000
# 3 14.2512 9.9035 15.6532 0.0000 0.0000 0.0000
# 4 0.0000 0.0000 0.0000 27.6063 0.0000 0.0000
# 5 0.0000 0.0000 0.0000 0.0000 10.2576 0.0000
# 6 0.0000 0.0000 0.0000 0.0000 0.0000 34.6590
#
#
#
# Elastic Compliance Matrix: (Units=1/GPa)
#
#
# Indices 1 2 3 4 5 6 
#
# 1 0.010747 -0.004967 -0.006642 0.000000 0.000000 0.000000
# 2 -0.004967 0.009069 -0.001216 0.000000 0.000000 0.000000
# 3 -0.006642 -0.001216 0.070702 0.000000 0.000000 0.000000
# 4 0.000000 0.000000 0.000000 0.036224 0.000000 0.000000
# 5 0.000000 0.000000 0.000000 0.000000 0.097489 0.000000
# 6 0.000000 0.000000 0.000000 0.000000 0.000000 0.028853
#
#
# Mechanical properties :
#
#
# Convention : Reuss Voigt Hill
#
# Bulk Modulus (GPa) = 15.41595 56.65204 36.03399
# Shear Modulus (GPa) = 16.64692 28.21776 22.43234
#
# Velocity S-wave (km/s) = 2.79901 3.64417 3.24918
# Velocity P-wave (km/s) = 4.20726 6.66096 5.57088
#
# Compressibility (1/GPa) = 0.06486787
#
# Stress axis : x y z
#
# Youngs Moduli (GPa) = 93.04816 110.26253 14.14393
#
# Poissons Ratio (x) = 0.54762 0.09395
# Poissons Ratio (y) = 0.46212 0.01720
# Poissons Ratio (z) = 0.61805 0.13411
#
# Static dielectric constant tensor:
#      x y z
#    x 1.741040 0.000000 0.000000 
#    y 0.000000 1.812700 0.000000 
#    z 0.000000 0.000000 1.761780 
# 
# From -- ./inp_files/8226.got.cif
#   From: 2010.05.17/outbox.cif.g08.bks.cpg/sg63_5_cif.got.tgz:8226.got - 2010.06.03 15:47:04.
