data_PCOD9473709
_publ_section_title
;
Structure prediction by ZEFSAII (Michael W. Deem and Ramdas Pophale) SiO2 
 PCOD9473709
Probable space group: C M C M
;
_chemical_formula_sum "Si O2"
_cell_formula_units_Z 80
_cell_length_a 14.034978
_cell_length_b 12.614268
_cell_length_c 22.995030
_cell_angle_alpha 90.000000
_cell_angle_beta 90.000000
_cell_angle_gamma 90.000000
_cell_volume 4071.062505
_symmetry_space_group_name_H-M "C M C M"
_symmetry_group_IT_number 63
_symmetry_cell_setting 'orthorhombic'
loop_
_space_group_symop_operation_xyz
x,y,z
-x,-y,1/2+z
x,-y,-z
-x,y,1/2-z
-x,-y,-z
x,y,1/2-z
-x,y,z
x,-y,1/2+z
1/2+x,1/2+y,z
1/2-x,1/2-y,1/2+z
1/2+x,1/2-y,-z
1/2-x,1/2+y,1/2-z
1/2-x,1/2-y,-z
1/2+x,1/2+y,1/2-z
1/2-x,1/2+y,z
1/2+x,1/2-y,1/2+z
loop_
_atom_site_type_symbol
_atom_site_label
_atom_site_fract_x
_atom_site_fract_y
_atom_site_fract_z
Si Si1 0.113022 0.259389 0.958470
Si Si2 0.386318 0.367432 0.814820
Si Si3 0.889840 0.026245 0.910765
Si Si4 0.189986 0.527072 0.063520
Si Si5 0.384135 0.807655 0.409110
O O1 0.128721 0.147890 0.926748
O O2 0.151932 0.357845 0.921656
O O3 0.000000 0.271321 0.962346
O O4 0.147016 0.269117 0.025902
O O5 0.345332 0.361741 0.750000
O O6 0.500000 0.351207 0.810449
O O7 0.376608 0.482589 0.845315
O O8 0.354076 0.276453 0.859919
O O9 0.000000 0.999859 0.927487
O O10 0.803763 0.966285 0.941734
O O11 0.158662 0.425200 0.100678
O O12 0.148068 0.500000 0.000000
O O13 0.500000 0.813532 0.408893
#
# Coordination Sequence:
#
# PCOD9473709 Si02
#       5
#    16  16  16  16  16
#     4   9  19  35  54  82 116 144 172 215 274 333
#     4   9  19  36  56  76 102 141 187 230 269 312
#     4  10  22  35  53  79 109 145 181 220 267 319
#     4  10  21  32  54  80 115 145 175 211 269 328
#     4   9  18  33  56  83 110 142 180 222 270 323
#
# _framework density 19.650888999999999
#
# number of rings (size 3 to 8) (size 9 to 14) (size 15 to 20)
#    0.000    2.600    0.000    0.600    5.600    4.400 
#    0.000    1.000    0.000    1.200    0.000    5.600 
#    0.000    0.000    0.000    0.000    0.000    0.000 
#
# Total GULP energy -222860.046960 kJ/mol
# GULP energy per Si atom -5571.501174 kJ/mol
# Density = 1.960616 g / cm^3
# Si number density = 19.650889 Si / 1000 Ang^3
#
#
#
# Elastic Constant Matrix: (Units=GPa)
#
#
# Indices 1 2 3 4 5 6 
#
# 1 20.4218 35.2890 18.1708 0.0000 0.0000 0.0000
# 2 35.2890 162.7848 73.2718 0.0000 0.0000 0.0000
# 3 18.1708 73.2718 110.1619 0.0000 0.0000 0.0000
# 4 0.0000 0.0000 0.0000 14.1116 0.0000 0.0000
# 5 0.0000 0.0000 0.0000 0.0000 12.4256 0.0000
# 6 0.0000 0.0000 0.0000 0.0000 0.0000 27.2824
#
#
#
# Elastic Compliance Matrix: (Units=1/GPa)
#
#
# Indices 1 2 3 4 5 6 
#
# 1 0.078715 -0.016014 -0.002332 0.000000 0.000000 0.000000
# 2 -0.016014 0.012026 -0.005357 0.000000 0.000000 0.000000
# 3 -0.002332 -0.005357 0.013026 0.000000 0.000000 0.000000
# 4 0.000000 0.000000 0.000000 0.070864 0.000000 0.000000
# 5 0.000000 0.000000 0.000000 0.000000 0.080479 0.000000
# 6 0.000000 0.000000 0.000000 0.000000 0.000000 0.036654
#
#
# Mechanical properties :
#
#
# Convention : Reuss Voigt Hill
#
# Bulk Modulus (GPa) = 17.74339 60.75907 39.25123
# Shear Modulus (GPa) = 13.96812 21.87304 17.92058
#
# Velocity S-wave (km/s) = 2.66900 3.33991 3.02312
# Velocity P-wave (km/s) = 4.30662 6.77198 5.67480
#
# Compressibility (1/GPa) = 0.05635901
#
# Stress axis : x y z
#
# Youngs Moduli (GPa) = 12.70403 83.15192 76.77175
#
# Poissons Ratio (x) = 1.33162 0.17904
# Poissons Ratio (y) = 0.20345 0.41130
# Poissons Ratio (z) = 0.02963 0.44548
#
# Static dielectric constant tensor:
#      x y z
#    x 1.726330 0.000000 0.000000 
#    y 0.000000 1.737090 0.000000 
#    z 0.000000 0.000000 1.713860 
# 
# From -- ./inp_files/62544.got.cif
#   From: 2010.05.17/outbox.cif.g08.bks.cpg/sg63_32_cif.got.tgz:62544.got - 2010.06.03 15:47:04.
