data_PCOD9473938
_publ_section_title
;
Structure prediction by ZEFSAII (Michael W. Deem and Ramdas Pophale) SiO2 
 PCOD9473938
Probable space group: C M C M
;
_chemical_formula_sum "Si O2"
_cell_formula_units_Z 64
_cell_length_a 18.729481
_cell_length_b 5.324905
_cell_length_c 28.234698
_cell_angle_alpha 90.000000
_cell_angle_beta 90.000000
_cell_angle_gamma 90.000000
_cell_volume 2815.922864
_symmetry_space_group_name_H-M "C M C M"
_symmetry_group_IT_number 63
_symmetry_cell_setting 'orthorhombic'
loop_
_space_group_symop_operation_xyz
x,y,z
-x,-y,1/2+z
x,-y,-z
-x,y,1/2-z
-x,-y,-z
x,y,1/2-z
-x,y,z
x,-y,1/2+z
1/2+x,1/2+y,z
1/2-x,1/2-y,1/2+z
1/2+x,1/2-y,-z
1/2-x,1/2+y,1/2-z
1/2-x,1/2-y,-z
1/2+x,1/2+y,1/2-z
1/2-x,1/2+y,z
1/2+x,1/2-y,1/2+z
loop_
_atom_site_type_symbol
_atom_site_label
_atom_site_fract_x
_atom_site_fract_y
_atom_site_fract_z
Si Si1 0.917354 0.643393 0.548873
Si Si2 0.215367 0.027704 0.056078
Si Si3 0.585736 0.139942 0.145241
Si Si4 0.412795 0.637826 0.195311
O O1 0.901307 0.500000 0.500000
O O2 0.865906 0.878562 0.556908
O O3 0.000000 0.723211 0.548589
O O4 0.906317 0.448080 0.591368
O O5 0.260398 0.261850 0.076551
O O6 0.232526 0.000000 0.000000
O O7 0.500000 0.153110 0.152849
O O8 0.613209 0.408671 0.162554
O O9 0.612890 0.907128 0.176725
O O10 0.394413 0.594320 0.250000
O O11 0.500000 0.645284 0.192515
#
# Coordination Sequence:
#
# PCOD9473938 Si02
#       4
#    16  16  16  16
#     4  10  21  36  55  81 115 152 185 221 271 330
#     4  10  21  38  57  76 103 144 191 233 269 309
#     4   9  18  30  45  70 102 134 172 216 262 318
#     4   9  16  28  46  67  96 134 171 213 269 322
#
# _framework density 22.727896999999999
#
# number of rings (size 3 to 8) (size 9 to 14) (size 15 to 20)
#    0.000    2.500    0.000    3.000    0.000    7.500 
#    0.000    8.750    0.000    0.750    0.000    0.000 
#    0.000   20.000    0.000    0.000    0.000    0.000 
#
# Total GULP energy -178891.611631 kJ/mol
# GULP energy per Si atom -5590.362863 kJ/mol
# Density = 2.267617 g / cm^3
# Si number density = 22.727897 Si / 1000 Ang^3
#
#
#
# Elastic Constant Matrix: (Units=GPa)
#
#
# Indices 1 2 3 4 5 6 
#
# 1 99.7623 42.9891 7.0858 0.0000 0.0000 0.0000
# 2 42.9891 149.9669 34.0940 0.0000 0.0000 0.0000
# 3 7.0858 34.0940 92.2710 0.0000 0.0000 0.0000
# 4 0.0000 0.0000 0.0000 27.2665 0.0000 0.0000
# 5 0.0000 0.0000 0.0000 0.0000 -0.0527 0.0000
# 6 0.0000 0.0000 0.0000 0.0000 0.0000 25.7127
#
#
#
# Elastic Compliance Matrix: (Units=1/GPa)
#
#
# Indices 1 2 3 4 5 6 
#
# 1 0.011448 -0.003364 0.000364 0.000000 0.000000 0.000000
# 2 -0.003364 0.008268 -0.002797 0.000000 0.000000 0.000000
# 3 0.000364 -0.002797 0.011843 0.000000 0.000000 0.000000
# 4 0.000000 0.000000 0.000000 0.036675 0.000000 0.000000
# 5 0.000000 0.000000 0.000000 0.000000-18.992017 0.000000
# 6 0.000000 0.000000 0.000000 0.000000 0.000000 0.038891
#
#
# Mechanical properties :
#
#
# Convention : Reuss Voigt Hill
#
# Bulk Modulus (GPa) = 50.08778 56.70422 53.39600
# Shear Modulus (GPa) = -0.26502 27.77408 13.75453
#
# Velocity S-wave (km/s) = -0.34184 3.49954 2.46272
# Velocity P-wave (km/s) = 4.68295 6.42903 5.62416
#
# Compressibility (1/GPa) = 0.01996495
#
# Stress axis : x y z
#
# Youngs Moduli (GPa) = 87.35377 120.94277 84.43742
#
# Poissons Ratio (x) = 0.40689 -0.03073
# Poissons Ratio (y) = 0.29389 0.23615
# Poissons Ratio (z) = -0.03180 0.33825
#
# Static dielectric constant tensor:
#      x y z
#    x 1.877580 0.000000 0.000000 
#    y 0.000000 1.868540 0.000000 
#    z 0.000000 0.000000 1.842160 
# 
# From -- ./inp_files/70151.got.cif
#   From: 2010.05.17/outbox.cif.g08.bks.cpg/sg63_36_cif.got.tgz:70151.got - 2010.06.03 15:47:04.
