data_PCOD9473445
_publ_section_title
;
Structure prediction by ZEFSAII (Michael W. Deem and Ramdas Pophale) SiO2 
 PCOD9473445
Probable space group: C M C M
;
_chemical_formula_sum "Si O2"
_cell_formula_units_Z 60
_cell_length_a 5.196712
_cell_length_b 29.390117
_cell_length_c 22.706820
_cell_angle_alpha 90.000000
_cell_angle_beta 90.000000
_cell_angle_gamma 90.000000
_cell_volume 3468.057435
_symmetry_space_group_name_H-M "C M C M"
_symmetry_group_IT_number 63
_symmetry_cell_setting 'orthorhombic'
loop_
_space_group_symop_operation_xyz
x,y,z
-x,-y,1/2+z
x,-y,-z
-x,y,1/2-z
-x,-y,-z
x,y,1/2-z
-x,y,z
x,-y,1/2+z
1/2+x,1/2+y,z
1/2-x,1/2-y,1/2+z
1/2+x,1/2-y,-z
1/2-x,1/2+y,1/2-z
1/2-x,1/2-y,-z
1/2+x,1/2+y,1/2-z
1/2-x,1/2+y,z
1/2+x,1/2-y,1/2+z
loop_
_atom_site_type_symbol
_atom_site_label
_atom_site_fract_x
_atom_site_fract_y
_atom_site_fract_z
Si Si1 0.500000 0.506441 0.163951
Si Si2 0.000000 0.098059 0.679678
Si Si3 0.500000 0.855984 0.126542
Si Si4 0.000000 0.743114 0.579816
Si Si5 0.000000 0.482805 0.750000
Si Si6 0.000000 0.393886 0.993179
Si Si7 0.500000 0.205002 0.054783
Si Si8 0.500000 0.452895 0.964612
O O1 0.500000 0.452096 0.151605
O O2 0.234303 0.515725 0.199510
O O3 0.500000 0.534815 0.104139
O O4 0.749988 0.125451 0.659567
O O5 0.000000 0.091120 0.750000
O O6 0.500000 0.801434 0.120299
O O7 0.500000 0.876201 0.060434
O O8 0.749883 0.774258 0.585544
O O9 0.000000 0.723993 0.512549
O O10 0.250869 0.423633 0.981368
O O11 0.000000 0.349068 0.951975
O O12 0.500000 0.500000 0.000000
#
# Coordination Sequence:
#
# PCOD9473445 Si02
#       8
#     8   8   8   8   4   8   8   8
#     4  11  22  38  58  77 112 147 196 237 277 330
#     4  12  23  37  54  79 112 146 199 236 279 322
#     4  11  22  35  55  81 119 150 181 228 281 350
#     4   9  17  31  51  79 107 144 175 210 269 315
#     4  10  20  38  58  78  94 142 192 250 278 296
#     4  11  22  37  55  84 118 157 186 223 287 350
#     4   9  17  31  53  76 111 141 179 220 248 328
#     4  12  24  38  53  84 122 159 187 226 296 360
#
# _framework density 17.300751000000002
#
# number of rings (size 3 to 8) (size 9 to 14) (size 15 to 20)
#    0.000    1.333    1.333    6.400    0.000    4.267 
#    0.000    0.000    0.000    0.000    0.000    0.000 
#  140.000    0.000    0.000    0.000    0.000    0.000 
#
# Total GULP energy -167003.095451 kJ/mol
# GULP energy per Si atom -5566.769848 kJ/mol
# Density = 1.726137 g / cm^3
# Si number density = 17.300751 Si / 1000 Ang^3
#
#
#
# Elastic Constant Matrix: (Units=GPa)
#
#
# Indices 1 2 3 4 5 6 
#
# 1 201.1220 72.1181 26.3609 0.0000 0.0000 0.0000
# 2 72.1181 128.1001 26.4143 0.0000 0.0000 0.0000
# 3 26.3609 26.4143 32.1869 0.0000 0.0000 0.0000
# 4 0.0000 0.0000 0.0000 -2.0433 0.0000 0.0000
# 5 0.0000 0.0000 0.0000 0.0000 28.9254 0.0000
# 6 0.0000 0.0000 0.0000 0.0000 0.0000 54.0048
#
#
#
# Elastic Compliance Matrix: (Units=1/GPa)
#
#
# Indices 1 2 3 4 5 6 
#
# 1 0.006427 -0.003049 -0.002762 0.000000 0.000000 0.000000
# 2 -0.003049 0.010843 -0.006401 0.000000 0.000000 0.000000
# 3 -0.002762 -0.006401 0.038583 0.000000 0.000000 0.000000
# 4 0.000000 0.000000 0.000000 -0.489401 0.000000 0.000000
# 5 0.000000 0.000000 0.000000 0.000000 0.034572 0.000000
# 6 0.000000 0.000000 0.000000 0.000000 0.000000 0.018517
#
#
# Mechanical properties :
#
#
# Convention : Reuss Voigt Hill
#
# Bulk Modulus (GPa) = 31.81684 67.91063 49.86373
# Shear Modulus (GPa) = -14.46933 31.94509 8.73788
#
# Velocity S-wave (km/s) = -2.89509 4.30170 2.24979
# Velocity P-wave (km/s) = 2.69350 8.00069 5.96934
#
# Compressibility (1/GPa) = 0.03142990
#
# Stress axis : x y z
#
# Youngs Moduli (GPa) = 155.58350 92.22669 25.91783
#
# Poissons Ratio (x) = 0.28120 0.07158
# Poissons Ratio (y) = 0.47438 0.16590
# Poissons Ratio (z) = 0.42969 0.59035
#
# Static dielectric constant tensor:
#      x y z
#    x 1.919940 0.000000 0.000000 
#    y 0.000000 1.571970 0.000000 
#    z 0.000000 0.000000 1.582060 
# 
# From -- ./inp_files/49803.got.cif
#   From: 2010.05.17/outbox.cif.g08.bks.cpg/sg63_25_cif.got.tgz:49803.got - 2010.06.03 15:47:04.
