data_PCOD9473208
_publ_section_title
;
Structure prediction by ZEFSAII (Michael W. Deem and Ramdas Pophale) SiO2 
 PCOD9473208
Probable space group: C M C M
;
_chemical_formula_sum "Si O2"
_cell_formula_units_Z 64
_cell_length_a 8.899231
_cell_length_b 25.141007
_cell_length_c 14.905257
_cell_angle_alpha 90.000000
_cell_angle_beta 90.000000
_cell_angle_gamma 90.000000
_cell_volume 3334.837048
_symmetry_space_group_name_H-M "C M C M"
_symmetry_group_IT_number 63
_symmetry_cell_setting 'orthorhombic'
loop_
_space_group_symop_operation_xyz
x,y,z
-x,-y,1/2+z
x,-y,-z
-x,y,1/2-z
-x,-y,-z
x,y,1/2-z
-x,y,z
x,-y,1/2+z
1/2+x,1/2+y,z
1/2-x,1/2-y,1/2+z
1/2+x,1/2-y,-z
1/2-x,1/2+y,1/2-z
1/2-x,1/2-y,-z
1/2+x,1/2+y,1/2-z
1/2-x,1/2+y,z
1/2+x,1/2-y,1/2+z
loop_
_atom_site_type_symbol
_atom_site_label
_atom_site_fract_x
_atom_site_fract_y
_atom_site_fract_z
Si Si1 0.820958 0.690238 0.250000
Si Si2 0.321506 0.111321 0.593634
Si Si3 0.679677 0.806004 0.250000
Si Si4 0.172507 0.003168 0.890971
Si Si5 0.680985 0.614988 0.102650
O O1 0.767022 0.750958 0.250000
O O2 0.753619 0.659634 0.164190
O O3 0.000000 0.686967 0.250000
O O4 0.500000 0.110327 0.578144
O O5 0.285908 0.157942 0.663325
O O6 0.237324 0.119570 0.499444
O O7 0.270641 0.054123 0.632598
O O8 0.500000 0.795513 0.250000
O O9 0.223244 0.944391 0.862612
O O10 0.000000 0.011544 0.862545
O O11 0.172370 0.000000 0.000000
O O12 0.500000 0.617884 0.105198
#
# Coordination Sequence:
#
# PCOD9473208 Si02
#       5
#     8  16   8  16  16
#     4  12  26  41  60  85 109 144 198 246 283 334
#     4  10  20  36  60  88 117 151 191 236 283 332
#     4  10  24  43  58  79 115 154 192 236 287 338
#     4   8  16  32  55  84 116 151 187 223 277 344
#     4  10  21  39  61  85 118 155 186 228 288 345
#
# _framework density 19.191341000000001
#
# number of rings (size 3 to 8) (size 9 to 14) (size 15 to 20)
#    0.000    2.250    0.000    4.125    0.000    9.500 
#    0.000    2.500    0.000    0.000    0.000    0.000 
#    0.000    0.000    0.000    0.000    0.000    0.000 
#
# Total GULP energy -178727.940748 kJ/mol
# GULP energy per Si atom -5585.248148 kJ/mol
# Density = 1.914766 g / cm^3
# Si number density = 19.191341 Si / 1000 Ang^3
#
#
#
# Elastic Constant Matrix: (Units=GPa)
#
#
# Indices 1 2 3 4 5 6 
#
# 1 91.8261 96.0297 55.0769 0.0000 0.0000 0.0000
# 2 96.0297 184.1406 71.7631 0.0000 0.0000 0.0000
# 3 55.0769 71.7631 98.7478 0.0000 0.0000 0.0000
# 4 0.0000 0.0000 0.0000 30.1352 0.0000 0.0000
# 5 0.0000 0.0000 0.0000 0.0000 -42.5309 0.0000
# 6 0.0000 0.0000 0.0000 0.0000 0.0000 37.9481
#
#
#
# Elastic Compliance Matrix: (Units=1/GPa)
#
#
# Indices 1 2 3 4 5 6 
#
# 1 0.026778 -0.011362 -0.006678 0.000000 0.000000 0.000000
# 2 -0.011362 0.012397 -0.002672 0.000000 0.000000 0.000000
# 3 -0.006678 -0.002672 0.015794 0.000000 0.000000 0.000000
# 4 0.000000 0.000000 0.000000 0.033184 0.000000 0.000000
# 5 0.000000 0.000000 0.000000 0.000000 -0.023512 0.000000
# 6 0.000000 0.000000 0.000000 0.000000 0.000000 0.026352
#
#
# Mechanical properties :
#
#
# Convention : Reuss Voigt Hill
#
# Bulk Modulus (GPa) = 73.83548 91.16156 82.49852
# Shear Modulus (GPa) = 36.51426 15.23346 25.87386
#
# Velocity S-wave (km/s) = 4.36666 2.82044 3.67577
# Velocity P-wave (km/s) = 7.99878 7.62962 7.81638
#
# Compressibility (1/GPa) = 0.01354362
#
# Stress axis : x y z
#
# Youngs Moduli (GPa) = 37.34400 80.66158 63.31614
#
# Poissons Ratio (x) = 0.91649 0.42285
# Poissons Ratio (y) = 0.42431 0.16920
# Poissons Ratio (z) = 0.24940 0.21556
#
# Static dielectric constant tensor:
#      x y z
#    x 1.636540 0.000000 0.000000 
#    y 0.000000 1.657210 0.000000 
#    z 0.000000 0.000000 1.682460 
# 
# From -- ./inp_files/27542.got.cif
#   From: 2010.05.17/outbox.cif.g08.bks.cpg/sg63_14_cif.got.tgz:27542.got - 2010.06.03 15:47:04.
