data_PCOD9473975
_publ_section_title
;
Structure prediction by ZEFSAII (Michael W. Deem and Ramdas Pophale) SiO2 
 PCOD9473975
Probable space group: C M C M
;
_chemical_formula_sum "Si O2"
_cell_formula_units_Z 96
_cell_length_a 14.379946
_cell_length_b 15.061424
_cell_length_c 23.746436
_cell_angle_alpha 90.000000
_cell_angle_beta 90.000000
_cell_angle_gamma 90.000000
_cell_volume 5143.061615
_symmetry_space_group_name_H-M "C M C M"
_symmetry_group_IT_number 63
_symmetry_cell_setting 'orthorhombic'
loop_
_space_group_symop_operation_xyz
x,y,z
-x,-y,1/2+z
x,-y,-z
-x,y,1/2-z
-x,-y,-z
x,y,1/2-z
-x,y,z
x,-y,1/2+z
1/2+x,1/2+y,z
1/2-x,1/2-y,1/2+z
1/2+x,1/2-y,-z
1/2-x,1/2+y,1/2-z
1/2-x,1/2-y,-z
1/2+x,1/2+y,1/2-z
1/2-x,1/2+y,z
1/2+x,1/2-y,1/2+z
loop_
_atom_site_type_symbol
_atom_site_label
_atom_site_fract_x
_atom_site_fract_y
_atom_site_fract_z
Si Si1 0.392965 0.088670 0.973709
Si Si2 0.206499 0.002167 0.814996
Si Si3 0.603116 0.898967 0.813026
Si Si4 0.397459 0.224661 0.077086
Si Si5 0.733159 0.169947 0.619715
Si Si6 0.890352 0.180258 0.318164
O O1 0.500000 0.069096 0.958724
O O2 0.341000 0.120419 0.918871
O O3 0.392322 0.160793 0.023356
O O4 0.350066 0.000000 0.000000
O O5 0.180114 0.015050 0.750000
O O6 0.209987 0.097081 0.844589
O O7 0.312707 0.966882 0.817671
O O8 0.144672 0.918601 0.836185
O O9 0.611499 0.857493 0.750000
O O10 0.500000 0.940611 0.815856
O O11 0.608475 0.831050 0.864583
O O12 0.500000 0.267920 0.076280
O O13 0.308906 0.286627 0.078738
O O14 0.677263 0.245079 0.655066
O O15 0.881319 0.184509 0.250000
O O16 0.000000 0.193138 0.332135
#
# Coordination Sequence:
#
# PCOD9473975 Si02
#       6
#    16  16  16  16  16  16
#     4  10  22  39  60  85 115 150 193 249 309 357
#     4  10  21  36  56  86 122 156 192 240 299 355
#     4   9  17  32  56  83 112 145 184 236 295 349
#     4  10  21  37  56  83 117 149 189 243 295 350
#     4  12  22  36  63  88 114 157 209 246 291 361
#     4  10  22  40  60  87 125 162 198 246 302 361
#
# _framework density 18.665924
#
# number of rings (size 3 to 8) (size 9 to 14) (size 15 to 20)
#    0.000    1.833    1.667    2.500    0.000    4.000 
#    0.000    1.667    0.000    0.500    0.000    0.000 
#    0.000    0.000    0.000    0.000    0.000    0.000 
#
# Total GULP energy -267625.068763 kJ/mol
# GULP energy per Si atom -5575.522266 kJ/mol
# Density = 1.862344 g / cm^3
# Si number density = 18.665924 Si / 1000 Ang^3
#
#
#
# Elastic Constant Matrix: (Units=GPa)
#
#
# Indices 1 2 3 4 5 6 
#
# 1 72.0906 28.5767 3.3253 0.0000 0.0000 0.0000
# 2 28.5767 82.3172 17.9885 0.0000 0.0000 0.0000
# 3 3.3253 17.9885 48.1783 0.0000 0.0000 0.0000
# 4 0.0000 0.0000 0.0000 18.3133 0.0000 0.0000
# 5 0.0000 0.0000 0.0000 0.0000 28.6679 0.0000
# 6 0.0000 0.0000 0.0000 0.0000 0.0000 16.4494
#
#
#
# Elastic Compliance Matrix: (Units=1/GPa)
#
#
# Indices 1 2 3 4 5 6 
#
# 1 0.016135 -0.005834 0.001065 0.000000 0.000000 0.000000
# 2 -0.005834 0.015337 -0.005324 0.000000 0.000000 0.000000
# 3 0.001065 -0.005324 0.022670 0.000000 0.000000 0.000000
# 4 0.000000 0.000000 0.000000 0.054605 0.000000 0.000000
# 5 0.000000 0.000000 0.000000 0.000000 0.034882 0.000000
# 6 0.000000 0.000000 0.000000 0.000000 0.000000 0.060792
#
#
# Mechanical properties :
#
#
# Convention : Reuss Voigt Hill
#
# Bulk Modulus (GPa) = 29.44978 33.59634 31.52306
# Shear Modulus (GPa) = 21.19303 22.86584 22.02943
#
# Velocity S-wave (km/s) = 3.37320 3.50380 3.43912
# Velocity P-wave (km/s) = 5.56623 5.86572 5.71794
#
# Compressibility (1/GPa) = 0.03395611
#
# Stress axis : x y z
#
# Youngs Moduli (GPa) = 61.97749 65.20280 44.11025
#
# Poissons Ratio (x) = 0.38039 -0.04696
# Poissons Ratio (y) = 0.36157 0.23483
# Poissons Ratio (z) = -0.06598 0.34712
#
# Static dielectric constant tensor:
#      x y z
#    x 1.655840 0.000000 0.000000 
#    y 0.000000 1.659610 0.000000 
#    z 0.000000 0.000000 1.634240 
# 
# From -- ./inp_files/54203.got.cif
#   From: 2010.05.17/outbox.cif.g08.bks.cpg/sg63_28_cif.got.tgz:54203.got - 2010.06.03 15:47:04.
