data_PCOD9473329
_publ_section_title
;
Structure prediction by ZEFSAII (Michael W. Deem and Ramdas Pophale) SiO2 
 PCOD9473329
Probable space group: C M C M
;
_chemical_formula_sum "Si O2"
_cell_formula_units_Z 80
_cell_length_a 7.961630
_cell_length_b 14.787193
_cell_length_c 31.648859
_cell_angle_alpha 90.000000
_cell_angle_beta 90.000000
_cell_angle_gamma 90.000000
_cell_volume 3726.025215
_symmetry_space_group_name_H-M "C M C M"
_symmetry_group_IT_number 63
_symmetry_cell_setting 'orthorhombic'
loop_
_space_group_symop_operation_xyz
x,y,z
-x,-y,1/2+z
x,-y,-z
-x,y,1/2-z
-x,-y,-z
x,y,1/2-z
-x,y,z
x,-y,1/2+z
1/2+x,1/2+y,z
1/2-x,1/2-y,1/2+z
1/2+x,1/2-y,-z
1/2-x,1/2+y,1/2-z
1/2-x,1/2-y,-z
1/2+x,1/2+y,1/2-z
1/2-x,1/2+y,z
1/2+x,1/2-y,1/2+z
loop_
_atom_site_type_symbol
_atom_site_label
_atom_site_fract_x
_atom_site_fract_y
_atom_site_fract_z
Si Si1 0.700380 0.880880 0.385672
Si Si2 0.195934 0.733533 0.047694
Si Si3 0.206817 0.590059 0.387043
Si Si4 0.303828 0.892349 0.704388
Si Si5 0.800355 0.099521 0.704380
O O1 0.500000 0.878761 0.388549
O O2 0.772697 0.819254 0.422389
O O3 0.752408 0.850533 0.338502
O O4 0.756949 0.985287 0.390167
O O5 0.269873 0.648736 0.073702
O O6 0.000000 0.715399 0.045477
O O7 0.250000 0.750000 0.000000
O O8 0.265770 0.630760 0.341900
O O9 0.000000 0.591306 0.385673
O O10 0.229099 0.864883 0.750000
O O11 0.500000 0.865242 0.704976
O O12 0.291840 0.002312 0.703772
O O13 0.762222 0.142978 0.750000
O O14 0.000000 0.082527 0.703155
#
# Coordination Sequence:
#
# PCOD9473329 Si02
#       5
#    16  16  16  16  16
#     4  10  20  37  59  82 108 142 181 220 267 321
#     4  11  23  40  58  79 107 139 180 230 281 330
#     4   8  17  34  56  79 107 143 178 214 262 323
#     4   8  13  25  48  76 104 138 178 213 250 305
#     4   9  16  27  47  78 113 146 178 214 258 308
#
# _framework density 21.470600999999998
#
# number of rings (size 3 to 8) (size 9 to 14) (size 15 to 20)
#    0.000    2.800    0.000    3.000    0.000    2.000 
#    0.000   15.000    0.000    3.600    0.000    0.000 
#    0.000    0.000    0.000    0.000    0.000    0.000 
#
# Total GULP energy -223027.894390 kJ/mol
# GULP energy per Si atom -5575.697360 kJ/mol
# Density = 2.142173 g / cm^3
# Si number density = 21.470601 Si / 1000 Ang^3
#
#
#
# Elastic Constant Matrix: (Units=GPa)
#
#
# Indices 1 2 3 4 5 6 
#
# 1 -15.2586 -41.8143 -46.1079 0.0000 0.0000 0.0000
# 2 -41.8143 42.3970 4.3563 0.0000 0.0000 0.0000
# 3 -46.1079 4.3563 152.8044 0.0000 0.0000 0.0000
# 4 0.0000 0.0000 0.0000 -25.0002 0.0000 0.0000
# 5 0.0000 0.0000 0.0000 0.0000 31.4008 0.0000
# 6 0.0000 0.0000 0.0000 0.0000 0.0000 11.1699
#
#
#
# Elastic Compliance Matrix: (Units=1/GPa)
#
#
# Indices 1 2 3 4 5 6 
#
# 1 -0.014712 -0.014095 -0.004037 0.000000 0.000000 0.000000
# 2 -0.014095 0.010152 -0.004542 0.000000 0.000000 0.000000
# 3 -0.004037 -0.004542 0.005456 0.000000 0.000000 0.000000
# 4 0.000000 0.000000 0.000000 -0.040000 0.000000 0.000000
# 5 0.000000 0.000000 0.000000 0.000000 0.031846 0.000000
# 6 0.000000 0.000000 0.000000 0.000000 0.000000 0.089527
#
#
# Mechanical properties :
#
#
# Convention : Reuss Voigt Hill
#
# Bulk Modulus (GPa) = -22.49559 1.42343 -10.53608
# Shear Modulus (GPa) = 44.32594 21.08133 32.70364
#
# Velocity S-wave (km/s) = 4.54860 3.13688 3.90703
# Velocity P-wave (km/s) = 4.13355 3.71274 3.92878
#
# Compressibility (1/GPa) = -0.04445316
#
# Stress axis : x y z
#
# Youngs Moduli (GPa) = -67.97264 98.50029 183.29934
#
# Poissons Ratio (x) = 1.38834 0.74005
# Poissons Ratio (y) = -0.95806 0.83263
# Poissons Ratio (z) = -0.27443 0.44743
#
# Static dielectric constant tensor:
#      x y z
#    x 1.776420 0.000000 0.000000 
#    y 0.000000 1.811250 0.000000 
#    z 0.000000 0.000000 1.780500 
# 
# From -- ./inp_files/71604.got.cif
#   From: 2010.05.17/outbox.cif.g08.bks.cpg/sg63_36_cif.got.tgz:71604.got - 2010.06.03 15:47:04.
