data_PCOD9473575
_publ_section_title
;
Structure prediction by ZEFSAII (Michael W. Deem and Ramdas Pophale) SiO2 
 PCOD9473575
Probable space group: C M C M
;
_chemical_formula_sum "Si O2"
_cell_formula_units_Z 116
_cell_length_a 24.969687
_cell_length_b 14.027145
_cell_length_c 19.742771
_cell_angle_alpha 90.000000
_cell_angle_beta 90.000000
_cell_angle_gamma 90.000000
_cell_volume 6914.973066
_symmetry_space_group_name_H-M "C M C M"
_symmetry_group_IT_number 63
_symmetry_cell_setting 'orthorhombic'
loop_
_space_group_symop_operation_xyz
x,y,z
-x,-y,1/2+z
x,-y,-z
-x,y,1/2-z
-x,-y,-z
x,y,1/2-z
-x,y,z
x,-y,1/2+z
1/2+x,1/2+y,z
1/2-x,1/2-y,1/2+z
1/2+x,1/2-y,-z
1/2-x,1/2+y,1/2-z
1/2-x,1/2-y,-z
1/2+x,1/2+y,1/2-z
1/2-x,1/2+y,z
1/2+x,1/2-y,1/2+z
loop_
_atom_site_type_symbol
_atom_site_label
_atom_site_fract_x
_atom_site_fract_y
_atom_site_fract_z
Si Si1 0.896841 0.467365 0.323885
Si Si2 0.372496 0.729848 0.511756
Si Si3 0.615038 0.431069 0.828486
Si Si4 0.938388 0.064916 0.567698
Si Si5 0.564118 0.237696 0.623917
Si Si6 0.297066 0.582647 0.056938
Si Si7 0.328431 0.071794 0.063345
Si Si8 0.500000 0.032228 0.250000
O O1 0.870409 0.455106 0.250000
O O2 0.913699 0.363370 0.350721
O O3 0.858468 0.522265 0.374540
O O4 0.952156 0.522946 0.307918
O O5 0.398771 0.653814 0.562390
O O6 0.416314 0.747199 0.452998
O O7 0.321881 0.678156 0.476135
O O8 0.355421 0.827994 0.545102
O O9 0.624003 0.454141 0.750000
O O10 0.574160 0.501554 0.866865
O O11 0.590259 0.325170 0.835185
O O12 0.667599 0.436649 0.876199
O O13 0.000000 0.095487 0.567018
O O14 0.929938 0.000000 0.500000
O O15 0.500000 0.239910 0.629944
O O16 0.234709 0.588419 0.074467
O O17 0.303613 0.500000 0.000000
O O18 0.333593 0.000000 0.000000
#
# Coordination Sequence:
#
# PCOD9473575 Si02
#       8
#    16  16  16  16  16  16  16   4
#     4  10  20  39  57  82 121 158 185 230 291 346
#     4  11  20  37  59  88 115 150 192 242 293 345
#     4  11  22  35  59  87 117 149 197 242 293 350
#     4  11  20  37  57  82 117 156 190 234 296 355
#     4  11  19  34  57  89 117 149 188 243 293 339
#     4  10  20  40  62  82 114 153 187 241 298 339
#     4  11  23  37  61  90 113 146 202 245 278 338
#     4   8  20  40  62  72 124 172 184 220 310 344
#
# _framework density 16.775192000000001
#
# number of rings (size 3 to 8) (size 9 to 14) (size 15 to 20)
#    0.414    0.966    6.207    1.655    0.000    2.207 
#    2.483    1.724    0.000    0.000    0.000    0.000 
#    0.000    0.000    0.000    0.000    0.000    0.000 
#
# Total GULP energy -322944.332973 kJ/mol
# GULP energy per Si atom -5568.005741 kJ/mol
# Density = 1.673701 g / cm^3
# Si number density = 16.775192 Si / 1000 Ang^3
#
#
#
# Elastic Constant Matrix: (Units=GPa)
#
#
# Indices 1 2 3 4 5 6 
#
# 1 111.0046 56.9863 44.0342 0.0000 0.0000 0.0000
# 2 56.9863 85.0142 42.2474 0.0000 0.0000 0.0000
# 3 44.0342 42.2474 104.7074 0.0000 0.0000 0.0000
# 4 0.0000 0.0000 0.0000 12.5733 0.0000 0.0000
# 5 0.0000 0.0000 0.0000 0.0000 8.6372 0.0000
# 6 0.0000 0.0000 0.0000 0.0000 0.0000 12.7959
#
#
#
# Elastic Compliance Matrix: (Units=1/GPa)
#
#
# Indices 1 2 3 4 5 6 
#
# 1 0.014315 -0.008260 -0.002687 0.000000 0.000000 0.000000
# 2 -0.008260 0.019479 -0.004386 0.000000 0.000000 0.000000
# 3 -0.002687 -0.004386 0.012450 0.000000 0.000000 0.000000
# 4 0.000000 0.000000 0.000000 0.079534 0.000000 0.000000
# 5 0.000000 0.000000 0.000000 0.000000 0.115778 0.000000
# 6 0.000000 0.000000 0.000000 0.000000 0.000000 0.078150
#
#
# Mechanical properties :
#
#
# Convention : Reuss Voigt Hill
#
# Bulk Modulus (GPa) = 64.19320 65.25135 64.72228
# Shear Modulus (GPa) = 14.06212 17.29850 15.68031
#
# Velocity S-wave (km/s) = 2.89843 3.21471 3.06066
# Velocity P-wave (km/s) = 7.03925 7.26368 7.15235
#
# Compressibility (1/GPa) = 0.01557797
#
# Stress axis : x y z
#
# Youngs Moduli (GPa) = 69.85569 51.33698 80.32061
#
# Poissons Ratio (x) = 0.42406 0.21585
# Poissons Ratio (y) = 0.57703 0.35226
# Poissons Ratio (z) = 0.18773 0.22515
#
# Static dielectric constant tensor:
#      x y z
#    x 1.558080 0.000000 0.000000 
#    y 0.000000 1.563950 0.000000 
#    z 0.000000 0.000000 1.562790 
# 
# From -- ./inp_files/48266.got.cif
#   From: 2010.05.17/outbox.cif.g08.bks.cpg/sg63_25_cif.got.tgz:48266.got - 2010.06.03 15:47:04.
