data_PCOD9473310
_publ_section_title
;
Structure prediction by ZEFSAII (Michael W. Deem and Ramdas Pophale) SiO2 
 PCOD9473310
Probable space group: C M C M
;
_chemical_formula_sum "Si O2"
_cell_formula_units_Z 80
_cell_length_a 20.843247
_cell_length_b 23.625497
_cell_length_c 8.507183
_cell_angle_alpha 90.000000
_cell_angle_beta 90.000000
_cell_angle_gamma 90.000000
_cell_volume 4189.209730
_symmetry_space_group_name_H-M "C M C M"
_symmetry_group_IT_number 63
_symmetry_cell_setting 'orthorhombic'
loop_
_space_group_symop_operation_xyz
x,y,z
-x,-y,1/2+z
x,-y,-z
-x,y,1/2-z
-x,-y,-z
x,y,1/2-z
-x,y,z
x,-y,1/2+z
1/2+x,1/2+y,z
1/2-x,1/2-y,1/2+z
1/2+x,1/2-y,-z
1/2-x,1/2+y,1/2-z
1/2-x,1/2-y,-z
1/2+x,1/2+y,1/2-z
1/2-x,1/2+y,z
1/2+x,1/2-y,1/2+z
loop_
_atom_site_type_symbol
_atom_site_label
_atom_site_fract_x
_atom_site_fract_y
_atom_site_fract_z
Si Si1 0.875673 0.363569 0.559079
Si Si2 0.746284 0.938007 0.561521
Si Si3 0.500000 0.064843 0.058976
Si Si4 0.500000 0.435927 0.563646
Si Si5 0.871915 0.121818 0.938103
Si Si6 0.676839 0.255258 0.059551
O O1 0.878892 0.362902 0.750000
O O2 0.810754 0.395999 0.513986
O O3 0.937359 0.399450 0.506652
O O4 0.865716 0.298684 0.508136
O O5 0.750898 0.938049 0.750000
O O6 0.812973 0.917365 0.490160
O O7 0.730561 0.000000 0.500000
O O8 0.500000 0.062801 0.250000
O O9 0.500000 0.000000 0.000000
O O10 0.500000 0.500000 0.500000
O O11 0.500000 0.438835 0.750000
O O12 0.562807 0.402777 0.506409
O O13 0.876609 0.121996 0.750000
O O14 0.854296 0.185474 0.991287
O O15 0.679353 0.254821 0.250000
O O16 0.750000 0.250000 0.000000
#
# Coordination Sequence:
#
# PCOD9473310 Si02
#       6
#    16  16   8   8  16  16
#     4   9  19  35  58  85 115 155 197 241 295 349
#     4  11  21  35  56  83 117 154 201 250 297 355
#     4  10  20  37  58  82 116 155 195 240 289 346
#     4  12  26  45  66  88 122 161 199 250 303 364
#     4  11  23  39  62  91 120 155 198 246 300 360
#     4  10  20  37  61  89 120 155 197 247 297 353
#
# _framework density 19.096679999999999
#
# number of rings (size 3 to 8) (size 9 to 14) (size 15 to 20)
#    0.000    1.600    2.000    3.300    0.000    1.600 
#    0.000    5.000    0.000    1.200    0.000    0.000 
#    0.000    0.000    0.000    0.000    0.000    0.000 
#
# Total GULP energy -223472.834760 kJ/mol
# GULP energy per Si atom -5586.820869 kJ/mol
# Density = 1.905322 g / cm^3
# Si number density = 19.096680 Si / 1000 Ang^3
#
#
#
# Elastic Constant Matrix: (Units=GPa)
#
#
# Indices 1 2 3 4 5 6 
#
# 1 114.6070 22.8423 26.2004 0.0000 0.0000 0.0000
# 2 22.8423 110.2819 24.2040 0.0000 0.0000 0.0000
# 3 26.2004 24.2040 44.7198 0.0000 0.0000 0.0000
# 4 0.0000 0.0000 0.0000 19.0780 0.0000 0.0000
# 5 0.0000 0.0000 0.0000 0.0000 7.2469 0.0000
# 6 0.0000 0.0000 0.0000 0.0000 0.0000 36.1796
#
#
#
# Elastic Compliance Matrix: (Units=1/GPa)
#
#
# Indices 1 2 3 4 5 6 
#
# 1 0.010154 -0.000905 -0.005459 0.000000 0.000000 0.000000
# 2 -0.000905 0.010371 -0.005083 0.000000 0.000000 0.000000
# 3 -0.005459 -0.005083 0.028311 0.000000 0.000000 0.000000
# 4 0.000000 0.000000 0.000000 0.052416 0.000000 0.000000
# 5 0.000000 0.000000 0.000000 0.000000 0.137991 0.000000
# 6 0.000000 0.000000 0.000000 0.000000 0.000000 0.027640
#
#
# Mechanical properties :
#
#
# Convention : Reuss Voigt Hill
#
# Bulk Modulus (GPa) = 38.54817 46.23356 42.39086
# Shear Modulus (GPa) = 16.75473 25.59170 21.17321
#
# Velocity S-wave (km/s) = 2.96525 3.66473 3.33338
# Velocity P-wave (km/s) = 5.65272 6.49383 6.08781
#
# Compressibility (1/GPa) = 0.02594157
#
# Stress axis : x y z
#
# Youngs Moduli (GPa) = 98.48469 96.42598 35.32223
#
# Poissons Ratio (x) = 0.08727 0.19283
# Poissons Ratio (y) = 0.08913 0.17953
# Poissons Ratio (z) = 0.53764 0.49011
#
# Static dielectric constant tensor:
#      x y z
#    x 1.628920 0.000000 0.000000 
#    y 0.000000 1.660840 0.000000 
#    z 0.000000 0.000000 1.690070 
# 
# From -- ./inp_files/8108.got.cif
#   From: 2010.05.17/outbox.cif.g08.bks.cpg/sg63_5_cif.got.tgz:8108.got - 2010.06.03 15:47:04.
