data_PCOD9473367
_publ_section_title
;
Structure prediction by ZEFSAII (Michael W. Deem and Ramdas Pophale) SiO2 
 PCOD9473367
Probable space group: C M C M
;
_chemical_formula_sum "Si O2"
_cell_formula_units_Z 72
_cell_length_a 13.970071
_cell_length_b 29.707904
_cell_length_c 9.024476
_cell_angle_alpha 90.000000
_cell_angle_beta 90.000000
_cell_angle_gamma 90.000000
_cell_volume 3745.351820
_symmetry_space_group_name_H-M "C M C M"
_symmetry_group_IT_number 63
_symmetry_cell_setting 'orthorhombic'
loop_
_space_group_symop_operation_xyz
x,y,z
-x,-y,1/2+z
x,-y,-z
-x,y,1/2-z
-x,-y,-z
x,y,1/2-z
-x,y,z
x,-y,1/2+z
1/2+x,1/2+y,z
1/2-x,1/2-y,1/2+z
1/2+x,1/2-y,-z
1/2-x,1/2+y,1/2-z
1/2-x,1/2-y,-z
1/2+x,1/2+y,1/2-z
1/2-x,1/2+y,z
1/2+x,1/2-y,1/2+z
loop_
_atom_site_type_symbol
_atom_site_label
_atom_site_fract_x
_atom_site_fract_y
_atom_site_fract_z
Si Si1 0.500000 0.926141 0.424555
Si Si2 0.500000 0.828399 0.928375
Si Si3 0.000000 0.949067 0.932363
Si Si4 0.330213 0.382569 0.917790
Si Si5 0.785603 0.296351 0.569693
Si Si6 0.817165 0.538897 0.082772
O O1 0.500000 0.921847 0.250000
O O2 0.500000 0.877413 0.499819
O O3 0.591746 0.952232 0.482795
O O4 0.500000 0.832978 0.750000
O O5 0.602249 0.805620 0.969038
O O6 0.089153 0.916666 0.978567
O O7 0.000000 0.953877 0.750000
O O8 0.000000 0.000000 0.000000
O O9 0.363263 0.371589 0.750000
O O10 0.287225 0.336300 0.982528
O O11 0.238628 0.414720 0.909647
O O12 0.781299 0.295369 0.750000
O O13 0.750000 0.250000 0.500000
O O14 0.841263 0.525624 0.250000
O O15 0.758193 0.500000 0.000000
#
# Coordination Sequence:
#
# PCOD9473367 Si02
#       6
#     8   8   8  16  16  16
#     4  12  23  35  55  85 114 148 190 233 282 338
#     4  10  20  40  64  83 118 159 191 231 296 353
#     4  10  20  37  60  88 117 155 201 248 298 357
#     4   9  19  36  59  82 114 156 196 238 296 355
#     4  10  21  39  62  89 117 156 198 245 298 356
#     4  11  21  36  55  80 115 156 194 234 284 346
#
# _framework density 19.223828000000001
#
# number of rings (size 3 to 8) (size 9 to 14) (size 15 to 20)
#    0.000    1.778    2.222    2.667    0.000    1.778 
#    0.000    3.333    0.000    0.000    0.000    0.000 
#    0.000    0.000    0.000    0.000    0.000    0.000 
#
# Total GULP energy -200485.688450 kJ/mol
# GULP energy per Si atom -5569.046901 kJ/mol
# Density = 1.918007 g / cm^3
# Si number density = 19.223828 Si / 1000 Ang^3
#
#
#
# Elastic Constant Matrix: (Units=GPa)
#
#
# Indices 1 2 3 4 5 6 
#
# 1 112.1450 68.1038 20.6460 0.0000 0.0000 0.0000
# 2 68.1038 183.5492 36.3854 0.0000 0.0000 0.0000
# 3 20.6460 36.3854 19.9204 0.0000 0.0000 0.0000
# 4 0.0000 0.0000 0.0000 37.4246 0.0000 0.0000
# 5 0.0000 0.0000 0.0000 0.0000 -14.7209 0.0000
# 6 0.0000 0.0000 0.0000 0.0000 0.0000 23.9778
#
#
#
# Elastic Compliance Matrix: (Units=1/GPa)
#
#
# Indices 1 2 3 4 5 6 
#
# 1 0.012069 -0.003133 -0.006786 0.000000 0.000000 0.000000
# 2 -0.003133 0.009354 -0.013838 0.000000 0.000000 0.000000
# 3 -0.006786 -0.013838 0.082509 0.000000 0.000000 0.000000
# 4 0.000000 0.000000 0.000000 0.026720 0.000000 0.000000
# 5 0.000000 0.000000 0.000000 0.000000 -0.067930 0.000000
# 6 0.000000 0.000000 0.000000 0.000000 0.000000 0.041705
#
#
# Mechanical properties :
#
#
# Convention : Reuss Voigt Hill
#
# Bulk Modulus (GPa) = 17.72507 62.87612 40.30059
# Shear Modulus (GPa) = 29.28319 22.03492 25.65905
#
# Velocity S-wave (km/s) = 3.90715 3.38927 3.65739
# Velocity P-wave (km/s) = 5.44011 6.93503 6.23255
#
# Compressibility (1/GPa) = 0.05641726
#
# Stress axis : x y z
#
# Youngs Moduli (GPa) = 82.85782 106.91060 12.11990
#
# Poissons Ratio (x) = 0.33492 0.08225
# Poissons Ratio (y) = 0.25957 0.16771
# Poissons Ratio (z) = 0.56231 1.47942
#
# Static dielectric constant tensor:
#      x y z
#    x 1.734330 0.000000 0.000000 
#    y 0.000000 1.674820 0.000000 
#    z 0.000000 0.000000 1.235840 
# 
# From -- ./inp_files/4735.got.cif
#   From: 2010.05.17/outbox.cif.g08.bks.cpg/sg63_3_cif.got.tgz:4735.got - 2010.06.03 15:47:04.
