data_PCOD9473941
_publ_section_title
;
Structure prediction by ZEFSAII (Michael W. Deem and Ramdas Pophale) SiO2 
 PCOD9473941
Probable space group: C M C M
;
_chemical_formula_sum "Si O2"
_cell_formula_units_Z 112
_cell_length_a 15.842662
_cell_length_b 14.110583
_cell_length_c 25.459998
_cell_angle_alpha 90.000000
_cell_angle_beta 90.000000
_cell_angle_gamma 90.000000
_cell_volume 5691.562111
_symmetry_space_group_name_H-M "C M C M"
_symmetry_group_IT_number 63
_symmetry_cell_setting 'orthorhombic'
loop_
_space_group_symop_operation_xyz
x,y,z
-x,-y,1/2+z
x,-y,-z
-x,y,1/2-z
-x,-y,-z
x,y,1/2-z
-x,y,z
x,-y,1/2+z
1/2+x,1/2+y,z
1/2-x,1/2-y,1/2+z
1/2+x,1/2-y,-z
1/2-x,1/2+y,1/2-z
1/2-x,1/2-y,-z
1/2+x,1/2+y,1/2-z
1/2-x,1/2+y,z
1/2+x,1/2-y,1/2+z
loop_
_atom_site_type_symbol
_atom_site_label
_atom_site_fract_x
_atom_site_fract_y
_atom_site_fract_z
Si Si1 0.592492 0.681943 0.338641
Si Si2 0.598302 0.723491 0.863614
Si Si3 0.225130 0.363234 0.691718
Si Si4 0.331010 0.201801 0.472936
Si Si5 0.592363 0.849169 0.076922
Si Si6 0.091922 0.019955 0.896776
Si Si7 0.226358 0.485071 0.914230
O O1 0.500000 0.696055 0.312912
O O2 0.680337 0.680094 0.308021
O O3 0.601464 0.763029 0.382618
O O4 0.588716 0.579423 0.366463
O O5 0.500000 0.752517 0.859668
O O6 0.657671 0.782967 0.824939
O O7 0.633481 0.743887 0.922283
O O8 0.602091 0.609869 0.858004
O O9 0.206324 0.400523 0.750000
O O10 0.224232 0.440540 0.644760
O O11 0.250000 0.250000 0.500000
O O12 0.399256 0.191766 0.518526
O O13 0.305051 0.098134 0.452111
O O14 0.500000 0.893311 0.084548
O O15 0.665376 0.925556 0.083875
O O16 0.178334 0.014194 0.928929
O O17 0.000000 0.033214 0.923457
#
# Coordination Sequence:
#
# PCOD9473941 Si02
#       7
#    16  16  16  16  16  16  16
#     4   9  19  37  59  83 112 144 184 234 285 339
#     4  10  21  36  55  82 114 146 184 230 278 334
#     4  10  21  38  60  83 110 146 186 234 290 342
#     4  11  21  35  57  83 114 151 190 234 283 335
#     4  11  22  37  58  83 115 155 192 229 280 339
#     4   9  17  34  57  77 105 143 178 223 281 332
#     4  10  21  36  56  83 114 147 189 235 279 333
#
# _framework density 19.678253000000002
#
# number of rings (size 3 to 8) (size 9 to 14) (size 15 to 20)
#    0.000    2.000    0.000    5.143    0.000    4.000 
#    0.000    9.286    0.000   18.000    0.000    0.000 
#    0.000    0.000    0.000    0.000    0.000    0.000 
#
# Total GULP energy -312348.302771 kJ/mol
# GULP energy per Si atom -5577.648264 kJ/mol
# Density = 1.963346 g / cm^3
# Si number density = 19.678253 Si / 1000 Ang^3
#
#
#
# Elastic Constant Matrix: (Units=GPa)
#
#
# Indices 1 2 3 4 5 6 
#
# 1 148.3421 47.8296 20.0848 0.0000 0.0000 0.0000
# 2 47.8296 89.4866 13.1676 0.0000 0.0000 0.0000
# 3 20.0848 13.1676 79.4856 0.0000 0.0000 0.0000
# 4 0.0000 0.0000 0.0000 5.8816 0.0000 0.0000
# 5 0.0000 0.0000 0.0000 0.0000 -1.8397 0.0000
# 6 0.0000 0.0000 0.0000 0.0000 0.0000 -42.6184
#
#
#
# Elastic Compliance Matrix: (Units=1/GPa)
#
#
# Indices 1 2 3 4 5 6 
#
# 1 0.008293 -0.004227 -0.001395 0.000000 0.000000 0.000000
# 2 -0.004227 0.013609 -0.001186 0.000000 0.000000 0.000000
# 3 -0.001395 -0.001186 0.013130 0.000000 0.000000 0.000000
# 4 0.000000 0.000000 0.000000 0.170021 0.000000 0.000000
# 5 0.000000 0.000000 0.000000 0.000000 -0.543566 0.000000
# 6 0.000000 0.000000 0.000000 0.000000 0.000000 -0.023464
#
#
# Mechanical properties :
#
#
# Convention : Reuss Voigt Hill
#
# Bulk Modulus (GPa) = 46.69770 53.27535 49.98652
# Shear Modulus (GPa) = -14.65322 8.03353 -3.30984
#
# Velocity S-wave (km/s) = -2.73177 2.02270 -1.29832
# Velocity P-wave (km/s) = 3.71914 5.70851 4.81763
#
# Compressibility (1/GPa) = 0.02141433
#
# Stress axis : x y z
#
# Youngs Moduli (GPa) = 120.58275 73.48171 76.16162
#
# Poissons Ratio (x) = 0.31062 0.10626
# Poissons Ratio (y) = 0.50973 0.09035
# Poissons Ratio (z) = 0.16824 0.08717
#
# Static dielectric constant tensor:
#      x y z
#    x 1.743870 0.000000 0.000000 
#    y 0.000000 1.678720 0.000000 
#    z 0.000000 0.000000 1.696000 
# 
# From -- ./inp_files/63000.got.cif
#   From: 2010.05.17/outbox.cif.g08.bks.cpg/sg63_32_cif.got.tgz:63000.got - 2010.06.03 15:47:04.
