data_PCOD9473891
_publ_section_title
;
Structure prediction by ZEFSAII (Michael W. Deem and Ramdas Pophale) SiO2 
 PCOD9473891
Probable space group: C M C M
;
_chemical_formula_sum "Si O2"
_cell_formula_units_Z 96
_cell_length_a 11.043266
_cell_length_b 30.582235
_cell_length_c 14.222928
_cell_angle_alpha 90.000000
_cell_angle_beta 90.000000
_cell_angle_gamma 90.000000
_cell_volume 4803.477557
_symmetry_space_group_name_H-M "C M C M"
_symmetry_group_IT_number 63
_symmetry_cell_setting 'orthorhombic'
loop_
_space_group_symop_operation_xyz
x,y,z
-x,-y,1/2+z
x,-y,-z
-x,y,1/2-z
-x,-y,-z
x,y,1/2-z
-x,y,z
x,-y,1/2+z
1/2+x,1/2+y,z
1/2-x,1/2-y,1/2+z
1/2+x,1/2-y,-z
1/2-x,1/2+y,1/2-z
1/2-x,1/2-y,-z
1/2+x,1/2+y,1/2-z
1/2-x,1/2+y,z
1/2+x,1/2-y,1/2+z
loop_
_atom_site_type_symbol
_atom_site_label
_atom_site_fract_x
_atom_site_fract_y
_atom_site_fract_z
Si Si1 0.239352 0.392960 0.464189
Si Si2 0.500000 0.892970 0.142536
Si Si3 0.137271 0.804221 0.044760
Si Si4 0.860122 0.746435 0.860968
Si Si5 0.000000 0.502786 0.612473
Si Si6 0.267459 0.055881 0.355030
Si Si7 0.637765 0.527959 0.637763
O O1 0.339806 0.355960 0.455914
O O2 0.214127 0.405798 0.571448
O O3 0.277759 0.437926 0.414229
O O4 0.118307 0.377823 0.412351
O O5 0.500000 0.878437 0.250000
O O6 0.500000 0.946472 0.140648
O O7 0.246720 0.783630 0.106392
O O8 0.000000 0.794031 0.077931
O O9 0.146858 0.785562 0.937991
O O10 0.846633 0.757634 0.750000
O O11 0.000000 0.728804 0.870943
O O12 0.000000 0.500000 0.500000
O O13 0.883350 0.476117 0.645728
O O14 0.242962 0.071596 0.250000
O O15 0.162796 0.022420 0.387469
O O16 0.659290 0.531116 0.750000
O O17 0.500000 0.539405 0.618278
#
# Coordination Sequence:
#
# PCOD9473891 Si02
#       7
#    16   8  16  16   8  16  16
#     4  12  23  37  57  85 119 155 194 245 306 355
#     4  12  24  37  56  83 116 156 204 257 302 353
#     4  10  23  41  64  96 129 157 194 246 298 363
#     4   9  20  43  72  96 121 158 197 237 295 365
#     4  12  18  37  59  78 105 157 212 259 311 348
#     4  11  22  36  55  79 111 155 206 252 298 355
#     4  10  21  36  53  76 110 153 199 245 292 349
#
# _framework density 19.985522
#
# number of rings (size 3 to 8) (size 9 to 14) (size 15 to 20)
#    0.000    1.333    3.333    2.250    1.167    4.333 
#    0.000    0.000    0.000    0.000    0.000    0.000 
#    0.000    0.000    0.000    0.000    0.000    0.000 
#
# Total GULP energy -267990.714174 kJ/mol
# GULP energy per Si atom -5583.139879 kJ/mol
# Density = 1.994003 g / cm^3
# Si number density = 19.985522 Si / 1000 Ang^3
#
#
#
# Elastic Constant Matrix: (Units=GPa)
#
#
# Indices 1 2 3 4 5 6 
#
# 1 110.0034 14.8620 50.3940 0.0000 0.0000 0.0000
# 2 14.8620 31.1471 22.7973 0.0000 0.0000 0.0000
# 3 50.3940 22.7973 112.1971 0.0000 0.0000 0.0000
# 4 0.0000 0.0000 0.0000 -2.6406 0.0000 0.0000
# 5 0.0000 0.0000 0.0000 0.0000 27.2610 0.0000
# 6 0.0000 0.0000 0.0000 0.0000 0.0000 9.2353
#
#
#
# Elastic Compliance Matrix: (Units=1/GPa)
#
#
# Indices 1 2 3 4 5 6 
#
# 1 0.011552 -0.002014 -0.004780 0.000000 0.000000 0.000000
# 2 -0.002014 0.038066 -0.006830 0.000000 0.000000 0.000000
# 3 -0.004780 -0.006830 0.012447 0.000000 0.000000 0.000000
# 4 0.000000 0.000000 0.000000 -0.378705 0.000000 0.000000
# 5 0.000000 0.000000 0.000000 0.000000 0.036682 0.000000
# 6 0.000000 0.000000 0.000000 0.000000 0.000000 0.108280
#
#
# Mechanical properties :
#
#
# Convention : Reuss Voigt Hill
#
# Bulk Modulus (GPa) = 28.72043 47.71714 38.21878
# Shear Modulus (GPa) = -37.64375 17.79077 -9.92649
#
# Velocity S-wave (km/s) = -4.34470 2.98683 -2.23106
# Velocity P-wave (km/s) = 3.28127 5.98519 3.53948
#
# Compressibility (1/GPa) = 0.03481843
#
# Stress axis : x y z
#
# Youngs Moduli (GPa) = 86.56278 26.27037 80.33786
#
# Poissons Ratio (x) = 0.05291 0.38398
# Poissons Ratio (y) = 0.17434 0.54870
# Poissons Ratio (z) = 0.41373 0.17943
#
# Static dielectric constant tensor:
#      x y z
#    x 1.743820 0.000000 0.000000 
#    y 0.000000 1.675230 0.000000 
#    z 0.000000 0.000000 1.677230 
# 
# From -- ./inp_files/30354.got.cif
#   From: 2010.05.17/outbox.cif.g08.bks.cpg/sg63_16_cif.got.tgz:30354.got - 2010.06.03 15:47:04.
