data_PCOD9473985
_publ_section_title
;
Structure prediction by ZEFSAII (Michael W. Deem and Ramdas Pophale) SiO2 
 PCOD9473985
Probable space group: C M C M
;
_chemical_formula_sum "Si O2"
_cell_formula_units_Z 112
_cell_length_a 27.608152
_cell_length_b 11.273044
_cell_length_c 17.852004
_cell_angle_alpha 90.000000
_cell_angle_beta 90.000000
_cell_angle_gamma 90.000000
_cell_volume 5556.041934
_symmetry_space_group_name_H-M "C M C M"
_symmetry_group_IT_number 63
_symmetry_cell_setting 'orthorhombic'
loop_
_space_group_symop_operation_xyz
x,y,z
-x,-y,1/2+z
x,-y,-z
-x,y,1/2-z
-x,-y,-z
x,y,1/2-z
-x,y,z
x,-y,1/2+z
1/2+x,1/2+y,z
1/2-x,1/2-y,1/2+z
1/2+x,1/2-y,-z
1/2-x,1/2+y,1/2-z
1/2-x,1/2-y,-z
1/2+x,1/2+y,1/2-z
1/2-x,1/2+y,z
1/2+x,1/2-y,1/2+z
loop_
_atom_site_type_symbol
_atom_site_label
_atom_site_fract_x
_atom_site_fract_y
_atom_site_fract_z
Si Si1 0.554777 0.422179 0.337562
Si Si2 0.056001 0.281332 0.038104
Si Si3 0.109814 0.421225 0.165048
Si Si4 0.129115 0.075683 0.432100
Si Si5 0.555084 0.145575 0.371445
Si Si6 0.721635 0.649059 0.340953
Si Si7 0.721426 0.911752 0.159388
O O1 0.557143 0.452492 0.250000
O O2 0.500000 0.449163 0.365040
O O3 0.595464 0.491631 0.381845
O O4 0.561349 0.281162 0.346584
O O5 0.073504 0.354307 0.109882
O O6 0.092604 0.171862 0.033203
O O7 0.000000 0.244161 0.045265
O O8 0.059577 0.355401 0.961476
O O9 0.107514 0.374186 0.250000
O O10 0.093133 0.557305 0.164036
O O11 0.164980 0.413086 0.137483
O O12 0.169779 0.134363 0.380454
O O13 0.151256 0.000000 0.500000
O O14 0.500000 0.109795 0.351503
O O15 0.716906 0.646445 0.250000
O O16 0.741688 0.780770 0.361433
O O17 0.752199 0.532769 0.364983
O O18 0.722617 0.916215 0.250000
#
# Coordination Sequence:
#
# PCOD9473985 Si02
#       7
#    16  16  16  16  16  16  16
#     4  10  21  36  57  87 121 162 211 260 305 360
#     4  11  23  39  61  87 124 172 211 247 310 381
#     4  11  22  38  62  93 123 156 206 265 316 373
#     4  12  23  39  61  89 125 166 209 255 315 372
#     4  10  21  38  58  85 125 169 208 250 307 377
#     4  10  21  42  67  92 122 162 210 265 321 386
#     4   9  20  39  65  91 121 159 203 258 325 382
#
# _framework density 20.158235000000001
#
# number of rings (size 3 to 8) (size 9 to 14) (size 15 to 20)
#    0.000    1.571    2.857    2.143    0.000    5.143 
#    0.000    5.000    0.000    0.000    0.000    0.000 
#    0.000    0.000    0.000    0.000    0.000    0.000 
#
# Total GULP energy -312702.227558 kJ/mol
# GULP energy per Si atom -5583.968349 kJ/mol
# Density = 2.011235 g / cm^3
# Si number density = 20.158235 Si / 1000 Ang^3
#
#
#
# Elastic Constant Matrix: (Units=GPa)
#
#
# Indices 1 2 3 4 5 6 
#
# 1 53.6400 38.0765 15.5944 0.0000 0.0000 0.0000
# 2 38.0765 103.7640 8.6200 0.0000 0.0000 0.0000
# 3 15.5944 8.6200 51.5013 0.0000 0.0000 0.0000
# 4 0.0000 0.0000 0.0000 23.3603 0.0000 0.0000
# 5 0.0000 0.0000 0.0000 0.0000 23.5252 0.0000
# 6 0.0000 0.0000 0.0000 0.0000 0.0000 35.3392
#
#
#
# Elastic Compliance Matrix: (Units=1/GPa)
#
#
# Indices 1 2 3 4 5 6 
#
# 1 0.027304 -0.009464 -0.006683 0.000000 0.000000 0.000000
# 2 -0.009464 0.013054 0.000681 0.000000 0.000000 0.000000
# 3 -0.006683 0.000681 0.021327 0.000000 0.000000 0.000000
# 4 0.000000 0.000000 0.000000 0.042808 0.000000 0.000000
# 5 0.000000 0.000000 0.000000 0.000000 0.042508 0.000000
# 6 0.000000 0.000000 0.000000 0.000000 0.000000 0.028297
#
#
# Mechanical properties :
#
#
# Convention : Reuss Voigt Hill
#
# Bulk Modulus (GPa) = 32.51939 37.05412 34.78676
# Shear Modulus (GPa) = 23.09679 26.21923 24.65801
#
# Velocity S-wave (km/s) = 3.38860 3.61039 3.50125
# Velocity P-wave (km/s) = 5.61046 5.98343 5.79994
#
# Compressibility (1/GPa) = 0.03075088
#
# Stress axis : x y z
#
# Youngs Moduli (GPa) = 36.62478 76.60746 46.88950
#
# Poissons Ratio (x) = 0.72502 0.31338
# Poissons Ratio (y) = 0.34662 -0.03192
# Poissons Ratio (z) = 0.24478 -0.05216
#
# Static dielectric constant tensor:
#      x y z
#    x 1.681250 0.000000 0.000000 
#    y 0.000000 1.751390 0.000000 
#    z 0.000000 0.000000 1.704780 
# 
# From -- ./inp_files/38569.got.cif
#   From: 2010.05.17/outbox.cif.g08.bks.cpg/sg63_20_cif.got.tgz:38569.got - 2010.06.03 15:47:04.
