data_PCOD9473591
_publ_section_title
;
Structure prediction by ZEFSAII (Michael W. Deem and Ramdas Pophale) SiO2 
 PCOD9473591
Probable space group: C M C M
;
_chemical_formula_sum "Si O2"
_cell_formula_units_Z 96
_cell_length_a 15.110130
_cell_length_b 20.716818
_cell_length_c 13.593020
_cell_angle_alpha 90.000000
_cell_angle_beta 90.000000
_cell_angle_gamma 90.000000
_cell_volume 4255.074883
_symmetry_space_group_name_H-M "C M C M"
_symmetry_group_IT_number 63
_symmetry_cell_setting 'orthorhombic'
loop_
_space_group_symop_operation_xyz
x,y,z
-x,-y,1/2+z
x,-y,-z
-x,y,1/2-z
-x,-y,-z
x,y,1/2-z
-x,y,z
x,-y,1/2+z
1/2+x,1/2+y,z
1/2-x,1/2-y,1/2+z
1/2+x,1/2-y,-z
1/2-x,1/2+y,1/2-z
1/2-x,1/2-y,-z
1/2+x,1/2+y,1/2-z
1/2-x,1/2+y,z
1/2+x,1/2-y,1/2+z
loop_
_atom_site_type_symbol
_atom_site_label
_atom_site_fract_x
_atom_site_fract_y
_atom_site_fract_z
Si Si1 0.171072 0.307438 0.867931
Si Si2 0.216604 0.163003 0.867645
Si Si3 0.783312 0.920452 0.865489
Si Si4 0.400984 0.002682 0.135887
Si Si5 0.102296 0.960710 0.370789
Si Si6 0.405588 0.136485 0.550064
O O1 0.156749 0.315628 0.750000
O O2 0.175389 0.232217 0.892477
O O3 0.261211 0.347069 0.896333
O O4 0.099567 0.340316 0.937814
O O5 0.214611 0.158975 0.750000
O O6 0.163777 0.099523 0.903206
O O7 0.318263 0.163380 0.899440
O O8 0.802720 0.914842 0.750000
O O9 0.688037 0.956107 0.876140
O O10 0.856493 0.970477 0.903049
O O11 0.395802 0.979240 0.250000
O O12 0.500000 0.032054 0.126731
O O13 0.398840 0.940402 0.066227
O O14 0.104711 0.960361 0.250000
O O15 0.000000 0.952880 0.399293
O O16 0.500000 0.156442 0.593358
#
# Coordination Sequence:
#
# PCOD9473591 Si02
#       6
#    16  16  16  16  16  16
#     4  10  23  39  57  81 117 161 197 237 295 353
#     4  10  20  39  62  86 116 152 195 244 297 353
#     4   9  17  34  56  82 117 154 192 240 292 345
#     4   9  17  31  54  84 114 146 189 237 286 344
#     4   9  17  32  59  88 112 148 198 247 293 344
#     4  11  22  36  59  88 117 152 194 240 290 350
#
# _framework density 22.561294
#
# number of rings (size 3 to 8) (size 9 to 14) (size 15 to 20)
#    0.000    2.333    1.667    1.000    0.000    3.333 
#    0.000    5.833    0.000    5.000    0.000    0.000 
#    0.000    0.000    0.000    0.000    0.000    0.000 
#
# Total GULP energy -268003.259953 kJ/mol
# GULP energy per Si atom -5583.401249 kJ/mol
# Density = 2.250994 g / cm^3
# Si number density = 22.561294 Si / 1000 Ang^3
#
#
#
# Elastic Constant Matrix: (Units=GPa)
#
#
# Indices 1 2 3 4 5 6 
#
# 1 102.9054 38.9937 9.8630 0.0000 0.0000 0.0000
# 2 38.9937 115.5399 38.0958 0.0000 0.0000 0.0000
# 3 9.8630 38.0958 50.5517 0.0000 0.0000 0.0000
# 4 0.0000 0.0000 0.0000 34.2462 0.0000 0.0000
# 5 0.0000 0.0000 0.0000 0.0000 24.8104 0.0000
# 6 0.0000 0.0000 0.0000 0.0000 0.0000 21.6102
#
#
#
# Elastic Compliance Matrix: (Units=1/GPa)
#
#
# Indices 1 2 3 4 5 6 
#
# 1 0.011172 -0.004061 0.000880 0.000000 0.000000 0.000000
# 2 -0.004061 0.012993 -0.008999 0.000000 0.000000 0.000000
# 3 0.000880 -0.008999 0.026392 0.000000 0.000000 0.000000
# 4 0.000000 0.000000 0.000000 0.029200 0.000000 0.000000
# 5 0.000000 0.000000 0.000000 0.000000 0.040306 0.000000
# 6 0.000000 0.000000 0.000000 0.000000 0.000000 0.046275
#
#
# Mechanical properties :
#
#
# Convention : Reuss Voigt Hill
#
# Bulk Modulus (GPa) = 38.17135 49.21134 43.69134
# Shear Modulus (GPa) = 25.07172 28.26965 26.67068
#
# Velocity S-wave (km/s) = 3.33719 3.54364 3.44196
# Velocity P-wave (km/s) = 5.63957 6.21311 5.93328
#
# Compressibility (1/GPa) = 0.02619766
#
# Stress axis : x y z
#
# Youngs Moduli (GPa) = 89.50943 76.96671 37.89086
#
# Poissons Ratio (x) = 0.31254 -0.03336
# Poissons Ratio (y) = 0.36348 0.34098
# Poissons Ratio (z) = -0.07881 0.69262
#
# Static dielectric constant tensor:
#      x y z
#    x 1.796470 0.000000 0.000000 
#    y 0.000000 1.863060 0.000000 
#    z 0.000000 0.000000 1.938540 
# 
# From -- ./inp_files/31881.got.cif
#   From: 2010.05.17/outbox.cif.g08.bks.cpg/sg63_16_cif.got.tgz:31881.got - 2010.06.03 15:47:04.
