data_PCOD9473808
_publ_section_title
;
Structure prediction by ZEFSAII (Michael W. Deem and Ramdas Pophale) SiO2 
 PCOD9473808
Probable space group: C M C M
;
_chemical_formula_sum "Si O2"
_cell_formula_units_Z 68
_cell_length_a 21.375109
_cell_length_b 18.724335
_cell_length_c 7.549709
_cell_angle_alpha 90.000000
_cell_angle_beta 90.000000
_cell_angle_gamma 90.000000
_cell_volume 3021.655529
_symmetry_space_group_name_H-M "C M C M"
_symmetry_group_IT_number 63
_symmetry_cell_setting 'orthorhombic'
loop_
_space_group_symop_operation_xyz
x,y,z
-x,-y,1/2+z
x,-y,-z
-x,y,1/2-z
-x,-y,-z
x,y,1/2-z
-x,y,z
x,-y,1/2+z
1/2+x,1/2+y,z
1/2-x,1/2-y,1/2+z
1/2+x,1/2-y,-z
1/2-x,1/2+y,1/2-z
1/2-x,1/2-y,-z
1/2+x,1/2+y,1/2-z
1/2-x,1/2+y,z
1/2+x,1/2-y,1/2+z
loop_
_atom_site_type_symbol
_atom_site_label
_atom_site_fract_x
_atom_site_fract_y
_atom_site_fract_z
Si Si1 0.895349 0.801071 0.546826
Si Si2 0.000000 0.768471 0.250000
Si Si3 0.068688 0.415880 0.038543
Si Si4 0.812968 0.324625 0.547433
Si Si5 0.697418 0.583673 0.038332
O O1 0.918735 0.805041 0.750000
O O2 0.836377 0.746605 0.547106
O O3 0.866725 0.877088 0.486479
O O4 0.945369 0.773601 0.406572
O O5 0.070901 0.404803 0.250000
O O6 0.000000 0.391406 0.973399
O O7 0.072821 0.500000 0.000000
O O8 0.126323 0.375700 0.954934
O O9 0.798528 0.305307 0.750000
O O10 0.756525 0.371114 0.468168
O O11 0.700564 0.590137 0.250000
O O12 0.700761 0.500000 0.000000
#
# Coordination Sequence:
#
# PCOD9473808 Si02
#       5
#    16   4  16  16  16
#     4  11  25  46  71 104 140 178 234 290 349 414
#     4  12  26  48  74 102 136 184 230 288 358 418
#     4  10  21  35  51  80 123 173 225 280 333 399
#     4  11  22  39  64 100 135 181 226 276 344 409
#     4  10  24  43  70 100 140 181 232 290 349 415
#
# _framework density 22.504218999999999
#
# number of rings (size 3 to 8) (size 9 to 14) (size 15 to 20)
#    0.000    1.412    1.176    3.176    3.294    5.176 
#    0.000    0.588    0.000    0.000    0.000    0.000 
#    0.000    0.000    0.000    0.000    0.000    0.000 
#
# Total GULP energy -189658.464026 kJ/mol
# GULP energy per Si atom -5578.190118 kJ/mol
# Density = 2.245300 g / cm^3
# Si number density = 22.504219 Si / 1000 Ang^3
#
#
#
# Elastic Constant Matrix: (Units=GPa)
#
#
# Indices 1 2 3 4 5 6 
#
# 1 73.2596 50.9215 22.6749 0.0000 0.0000 0.0000
# 2 50.9215 102.0853 3.0055 0.0000 0.0000 0.0000
# 3 22.6749 3.0055 109.8536 0.0000 0.0000 0.0000
# 4 0.0000 0.0000 0.0000 22.6489 0.0000 0.0000
# 5 0.0000 0.0000 0.0000 0.0000 21.0975 0.0000
# 6 0.0000 0.0000 0.0000 0.0000 0.0000 24.1083
#
#
#
# Elastic Compliance Matrix: (Units=1/GPa)
#
#
# Indices 1 2 3 4 5 6 
#
# 1 0.022845 -0.011265 -0.004407 0.000000 0.000000 0.000000
# 2 -0.011265 0.015359 0.001905 0.000000 0.000000 0.000000
# 3 -0.004407 0.001905 0.009961 0.000000 0.000000 0.000000
# 4 0.000000 0.000000 0.000000 0.044152 0.000000 0.000000
# 5 0.000000 0.000000 0.000000 0.000000 0.047399 0.000000
# 6 0.000000 0.000000 0.000000 0.000000 0.000000 0.041479
#
#
# Mechanical properties :
#
#
# Convention : Reuss Voigt Hill
#
# Bulk Modulus (GPa) = 48.47500 48.71136 48.59318
# Shear Modulus (GPa) = 23.19045 27.47740 25.33393
#
# Velocity S-wave (km/s) = 3.21361 3.49806 3.35885
# Velocity P-wave (km/s) = 5.94617 6.16503 6.05659
#
# Compressibility (1/GPa) = 0.02062919
#
# Stress axis : x y z
#
# Youngs Moduli (GPa) = 43.77416 65.10856 100.39573
#
# Poissons Ratio (x) = 0.73347 0.44246
# Poissons Ratio (y) = 0.49313 -0.19126
# Poissons Ratio (z) = 0.19292 -0.12404
#
# Static dielectric constant tensor:
#      x y z
#    x 1.846640 0.000000 0.000000 
#    y 0.000000 1.847370 0.000000 
#    z 0.000000 0.000000 1.843850 
# 
# From -- ./inp_files/7607.got.cif
#   From: 2010.05.17/outbox.cif.g08.bks.cpg/sg63_4_cif.got.tgz:7607.got - 2010.06.03 15:47:04.
