data_PCOD9473274
_publ_section_title
;
Structure prediction by ZEFSAII (Michael W. Deem and Ramdas Pophale) SiO2 
 PCOD9473274
Probable space group: C M C M
;
_chemical_formula_sum "Si O2"
_cell_formula_units_Z 88
_cell_length_a 18.113224
_cell_length_b 12.183654
_cell_length_c 18.710763
_cell_angle_alpha 90.000000
_cell_angle_beta 90.000000
_cell_angle_gamma 90.000000
_cell_volume 4129.189486
_symmetry_space_group_name_H-M "C M C M"
_symmetry_group_IT_number 63
_symmetry_cell_setting 'orthorhombic'
loop_
_space_group_symop_operation_xyz
x,y,z
-x,-y,1/2+z
x,-y,-z
-x,y,1/2-z
-x,-y,-z
x,y,1/2-z
-x,y,z
x,-y,1/2+z
1/2+x,1/2+y,z
1/2-x,1/2-y,1/2+z
1/2+x,1/2-y,-z
1/2-x,1/2+y,1/2-z
1/2-x,1/2-y,-z
1/2+x,1/2+y,1/2-z
1/2-x,1/2+y,z
1/2+x,1/2-y,1/2+z
loop_
_atom_site_type_symbol
_atom_site_label
_atom_site_fract_x
_atom_site_fract_y
_atom_site_fract_z
Si Si1 0.000000 0.926073 0.671369
Si Si2 0.639113 0.001776 0.331302
Si Si3 0.152976 0.181524 0.009137
Si Si4 0.799384 0.407281 0.959549
Si Si5 0.364129 0.256568 0.830786
Si Si6 0.500000 0.161176 0.165341
Si Si7 0.000000 0.127080 0.939367
O O1 0.931475 0.842337 0.669039
O O2 0.000000 0.980634 0.750000
O O3 0.000000 0.019032 0.610724
O O4 0.661430 0.016570 0.250000
O O5 0.705157 0.043041 0.381158
O O6 0.570435 0.081960 0.346187
O O7 0.617838 0.873365 0.339041
O O8 0.224665 0.108498 0.994944
O O9 0.169754 0.213300 0.092109
O O10 0.073713 0.132716 0.988688
O O11 0.161048 0.291424 0.963255
O O12 0.846764 0.500000 0.000000
O O13 0.329758 0.265993 0.750000
O O14 0.500000 0.193343 0.250000
O O15 0.500000 0.266542 0.113450
#
# Coordination Sequence:
#
# PCOD9473274 Si02
#       7
#     8  16  16  16  16   8   8
#     4  10  23  41  62  91 137 174 209 267 328 400
#     4  10  20  39  68  97 129 171 218 273 329 386
#     4  11  25  40  65  97 128 173 218 270 325 395
#     4  11  23  43  63  91 134 170 213 272 329 384
#     4  10  21  40  62  90 125 167 217 265 321 386
#     4  10  20  36  63  98 133 164 213 270 323 385
#     4  12  24  41  66  98 128 175 222 261 329 392
#
# _framework density 21.311689999999999
#
# number of rings (size 3 to 8) (size 9 to 14) (size 15 to 20)
#    0.000    1.455    3.636    1.364    2.545    3.636 
#    0.000    1.818    0.000    0.000    0.000    0.000 
#    0.000    0.000    0.000    0.000    0.000    0.000 
#
# Total GULP energy -245031.332788 kJ/mol
# GULP energy per Si atom -5568.893927 kJ/mol
# Density = 2.126318 g / cm^3
# Si number density = 21.311690 Si / 1000 Ang^3
#
#
#
# Elastic Constant Matrix: (Units=GPa)
#
#
# Indices 1 2 3 4 5 6 
#
# 1 79.1136 31.6233 29.3373 0.0000 0.0000 0.0000
# 2 31.6233 148.2894 58.1211 0.0000 0.0000 0.0000
# 3 29.3373 58.1211 118.4310 0.0000 0.0000 0.0000
# 4 0.0000 0.0000 0.0000 44.4006 0.0000 0.0000
# 5 0.0000 0.0000 0.0000 0.0000 42.2489 0.0000
# 6 0.0000 0.0000 0.0000 0.0000 0.0000 -21.3030
#
#
#
# Elastic Compliance Matrix: (Units=1/GPa)
#
#
# Indices 1 2 3 4 5 6 
#
# 1 0.014416 -0.002073 -0.002553 0.000000 0.000000 0.000000
# 2 -0.002073 0.008648 -0.003730 0.000000 0.000000 0.000000
# 3 -0.002553 -0.003730 0.010907 0.000000 0.000000 0.000000
# 4 0.000000 0.000000 0.000000 0.022522 0.000000 0.000000
# 5 0.000000 0.000000 0.000000 0.000000 0.023669 0.000000
# 6 0.000000 0.000000 0.000000 0.000000 0.000000 -0.046942
#
#
# Mechanical properties :
#
#
# Convention : Reuss Voigt Hill
#
# Bulk Modulus (GPa) = 57.95073 64.88860 61.41966
# Shear Modulus (GPa) = 89.78782 28.18612 58.98697
#
# Velocity S-wave (km/s) = 6.49786 3.64066 5.26672
# Velocity P-wave (km/s) = 9.14042 6.94161 8.11583
#
# Compressibility (1/GPa) = 0.01725604
#
# Stress axis : x y z
#
# Youngs Moduli (GPa) = 69.36866 115.63596 91.68426
#
# Poissons Ratio (x) = 0.23976 0.23411
# Poissons Ratio (y) = 0.14383 0.34202
# Poissons Ratio (z) = 0.17713 0.43137
#
# Static dielectric constant tensor:
#      x y z
#    x 1.824550 0.000000 0.000000 
#    y 0.000000 1.766960 0.000000 
#    z 0.000000 0.000000 1.873020 
# 
# From -- ./inp_files/47090.got.cif
#   From: 2010.05.17/outbox.cif.g08.bks.cpg/sg63_24_cif.got.tgz:47090.got - 2010.06.03 15:47:04.
