data_PCOD9473116
_publ_section_title
;
Structure prediction by ZEFSAII (Michael W. Deem and Ramdas Pophale) SiO2 
 PCOD9473116
Probable space group: C M C M
;
_chemical_formula_sum "Si O2"
_cell_formula_units_Z 88
_cell_length_a 24.306059
_cell_length_b 20.656764
_cell_length_c 8.920895
_cell_angle_alpha 90.000000
_cell_angle_beta 90.000000
_cell_angle_gamma 90.000000
_cell_volume 4479.043324
_symmetry_space_group_name_H-M "C M C M"
_symmetry_group_IT_number 63
_symmetry_cell_setting 'orthorhombic'
loop_
_space_group_symop_operation_xyz
x,y,z
-x,-y,1/2+z
x,-y,-z
-x,y,1/2-z
-x,-y,-z
x,y,1/2-z
-x,y,z
x,-y,1/2+z
1/2+x,1/2+y,z
1/2-x,1/2-y,1/2+z
1/2+x,1/2-y,-z
1/2-x,1/2+y,1/2-z
1/2-x,1/2-y,-z
1/2+x,1/2+y,1/2-z
1/2-x,1/2+y,z
1/2+x,1/2-y,1/2+z
loop_
_atom_site_type_symbol
_atom_site_label
_atom_site_fract_x
_atom_site_fract_y
_atom_site_fract_z
Si Si1 0.935860 0.297500 0.081775
Si Si2 0.222557 0.813953 0.568917
Si Si3 0.603540 0.331339 0.429116
Si Si4 0.000000 0.073670 0.931733
Si Si5 0.285418 0.936824 0.579855
Si Si6 0.917492 0.433690 0.922707
O O1 0.910900 0.294662 0.250000
O O2 0.000000 0.283323 0.095572
O O3 0.913472 0.241856 0.973729
O O4 0.931228 0.369140 0.013676
O O5 0.221774 0.807634 0.750000
O O6 0.250000 0.750000 0.500000
O O7 0.162405 0.835859 0.511325
O O8 0.263305 0.870645 0.516437
O O9 0.610394 0.336417 0.250000
O O10 0.554826 0.382937 0.472212
O O11 0.000000 0.067946 0.750000
O O12 0.000000 0.000000 0.000000
O O13 0.266640 0.939780 0.750000
O O14 0.351222 0.937004 0.577786
O O15 0.264065 0.000000 0.500000
O O16 0.935713 0.429508 0.750000
O O17 0.937083 0.500000 0.000000
#
# Coordination Sequence:
#
# PCOD9473116 Si02
#       6
#    16  16  16   8  16  16
#     4  11  23  38  59  86 115 152 198 249 304 361
#     4  11  23  39  61  93 127 163 206 257 313 377
#     4  11  23  42  64  90 123 163 208 258 318 382
#     4  10  24  44  68  94 125 166 215 270 332 392
#     4   9  20  37  57  82 114 151 193 237 290 351
#     4  10  20  36  58  84 117 158 200 246 296 353
#
# _framework density 19.647051999999999
#
# number of rings (size 3 to 8) (size 9 to 14) (size 15 to 20)
#    0.000    1.636    0.909    3.273    0.000    7.273 
#    0.000    3.636    0.000    0.000    0.000    0.000 
#    0.000    0.000    0.000    0.000    0.000    0.000 
#
# Total GULP energy -245394.180199 kJ/mol
# GULP energy per Si atom -5577.140459 kJ/mol
# Density = 1.960233 g / cm^3
# Si number density = 19.647052 Si / 1000 Ang^3
#
#
#
# Elastic Constant Matrix: (Units=GPa)
#
#
# Indices 1 2 3 4 5 6 
#
# 1 79.3785 49.2281 38.2049 0.0000 0.0000 0.0000
# 2 49.2281 141.7198 31.7657 0.0000 0.0000 0.0000
# 3 38.2049 31.7657 67.4914 0.0000 0.0000 0.0000
# 4 0.0000 0.0000 0.0000 36.1333 0.0000 0.0000
# 5 0.0000 0.0000 0.0000 0.0000 22.6367 0.0000
# 6 0.0000 0.0000 0.0000 0.0000 0.0000 29.8540
#
#
#
# Elastic Compliance Matrix: (Units=1/GPa)
#
#
# Indices 1 2 3 4 5 6 
#
# 1 0.019980 -0.004925 -0.008992 0.000000 0.000000 0.000000
# 2 -0.004925 0.009102 -0.001496 0.000000 0.000000 0.000000
# 3 -0.008992 -0.001496 0.020611 0.000000 0.000000 0.000000
# 4 0.000000 0.000000 0.000000 0.027675 0.000000 0.000000
# 5 0.000000 0.000000 0.000000 0.000000 0.044176 0.000000
# 6 0.000000 0.000000 0.000000 0.000000 0.000000 0.033496
#
#
# Mechanical properties :
#
#
# Convention : Reuss Voigt Hill
#
# Bulk Modulus (GPa) = 53.00292 58.55410 55.77851
# Shear Modulus (GPa) = 26.02043 29.01752 27.51898
#
# Velocity S-wave (km/s) = 3.64317 3.84727 3.74661
# Velocity P-wave (km/s) = 6.68828 7.04294 6.86790
#
# Compressibility (1/GPa) = 0.01886688
#
# Stress axis : x y z
#
# Youngs Moduli (GPa) = 50.05009 109.86305 48.51739
#
# Poissons Ratio (x) = 0.54105 0.43628
# Poissons Ratio (y) = 0.24648 0.07260
# Poissons Ratio (z) = 0.45006 0.16439
#
# Static dielectric constant tensor:
#      x y z
#    x 1.895170 0.000000 0.000000 
#    y 0.000000 1.674900 0.000000 
#    z 0.000000 0.000000 1.697260 
# 
# From -- ./inp_files/10194.got.cif
#   From: 2010.05.17/outbox.cif.g08.bks.cpg/sg63_6_cif.got.tgz:10194.got - 2010.06.03 15:47:04.
