data_PCOD9473574
_publ_section_title
;
Structure prediction by ZEFSAII (Michael W. Deem and Ramdas Pophale) SiO2 
 PCOD9473574
Probable space group: C M C M
;
_chemical_formula_sum "Si O2"
_cell_formula_units_Z 64
_cell_length_a 24.964473
_cell_length_b 9.164920
_cell_length_c 15.014173
_cell_angle_alpha 90.000000
_cell_angle_beta 90.000000
_cell_angle_gamma 90.000000
_cell_volume 3435.203714
_symmetry_space_group_name_H-M "C M C M"
_symmetry_group_IT_number 63
_symmetry_cell_setting 'orthorhombic'
loop_
_space_group_symop_operation_xyz
x,y,z
-x,-y,1/2+z
x,-y,-z
-x,y,1/2-z
-x,-y,-z
x,y,1/2-z
-x,y,z
x,-y,1/2+z
1/2+x,1/2+y,z
1/2-x,1/2-y,1/2+z
1/2+x,1/2-y,-z
1/2-x,1/2+y,1/2-z
1/2-x,1/2-y,-z
1/2+x,1/2+y,1/2-z
1/2-x,1/2+y,z
1/2+x,1/2-y,1/2+z
loop_
_atom_site_type_symbol
_atom_site_label
_atom_site_fract_x
_atom_site_fract_y
_atom_site_fract_z
Si Si1 0.000000 0.067754 0.356800
Si Si2 0.308511 0.589581 0.750000
Si Si3 0.111328 0.079779 0.589179
Si Si4 0.000000 0.599755 0.641345
Si Si5 0.901818 0.601235 0.353467
Si Si6 0.805553 0.439067 0.750000
O O1 0.053502 0.986621 0.386998
O O2 0.000000 0.070881 0.250000
O O3 0.000000 0.234463 0.391271
O O4 0.344902 0.550911 0.834720
O O5 0.251161 0.514003 0.750000
O O6 0.299692 0.764051 0.750000
O O7 0.129130 0.000000 0.500000
O O8 0.104077 0.255005 0.587669
O O9 0.947219 0.509281 0.615825
O O10 0.000000 0.606504 0.750000
O O11 0.916601 0.649982 0.250000
O O12 0.844190 0.526854 0.334621
#
# Coordination Sequence:
#
# PCOD9473574 Si02
#       6
#     8   8  16   8  16   8
#     4  11  20  33  53  87 110 134 181 232 268 312
#     4  10  20  39  54  81 105 142 186 228 269 318
#     4  11  21  36  57  80 110 146 183 220 267 326
#     4   9  17  29  56  84 110 138 174 221 273 324
#     4   8  16  34  53  77 107 146 180 209 273 332
#     4   8  18  31  58  73 103 138 182 222 265 318
#
# _framework density 18.630628000000002
#
# number of rings (size 3 to 8) (size 9 to 14) (size 15 to 20)
#    0.750    1.750    2.500    1.125    0.000    3.000 
#    0.000    7.500    0.000    0.000    0.000    0.000 
#    0.000    0.000    0.000    0.000    0.000    0.000 
#
# Total GULP energy -178349.577299 kJ/mol
# GULP energy per Si atom -5573.424291 kJ/mol
# Density = 1.858822 g / cm^3
# Si number density = 18.630628 Si / 1000 Ang^3
#
#
#
# Elastic Constant Matrix: (Units=GPa)
#
#
# Indices 1 2 3 4 5 6 
#
# 1 194.5256 66.8046 25.0585 0.0000 0.0000 0.0000
# 2 66.8046 44.1347 -4.4608 0.0000 0.0000 0.0000
# 3 25.0585 -4.4608 36.4095 0.0000 0.0000 0.0000
# 4 0.0000 0.0000 0.0000 7.1311 0.0000 0.0000
# 5 0.0000 0.0000 0.0000 0.0000 -8.6520 0.0000
# 6 0.0000 0.0000 0.0000 0.0000 0.0000 46.8527
#
#
#
# Elastic Compliance Matrix: (Units=1/GPa)
#
#
# Indices 1 2 3 4 5 6 
#
# 1 0.015322 -0.024562 -0.013555 0.000000 0.000000 0.000000
# 2 -0.024562 0.062317 0.024540 0.000000 0.000000 0.000000
# 3 -0.013555 0.024540 0.039801 0.000000 0.000000 0.000000
# 4 0.000000 0.000000 0.000000 0.140230 0.000000 0.000000
# 5 0.000000 0.000000 0.000000 0.000000 -0.115581 0.000000
# 6 0.000000 0.000000 0.000000 0.000000 0.000000 0.021344
#
#
# Mechanical properties :
#
#
# Convention : Reuss Voigt Hill
#
# Bulk Modulus (GPa) = 11.07602 49.98604 30.53103
# Shear Modulus (GPa) = 22.65712 21.57755 22.11733
#
# Velocity S-wave (km/s) = 3.49108 3.40689 3.44924
# Velocity P-wave (km/s) = 4.71255 6.50878 5.68209
#
# Compressibility (1/GPa) = 0.09028515
#
# Stress axis : x y z
#
# Youngs Moduli (GPa) = 65.26575 16.04708 25.12522
#
# Poissons Ratio (x) = 0.39415 0.34056
# Poissons Ratio (y) = 1.60306 -0.61656
# Poissons Ratio (z) = 0.88465 -0.39379
#
# Static dielectric constant tensor:
#      x y z
#    x 1.631910 0.000000 0.000000 
#    y 0.000000 1.632450 0.000000 
#    z 0.000000 0.000000 1.701510 
# 
# From -- ./inp_files/48674.got.cif
#   From: 2010.05.17/outbox.cif.g08.bks.cpg/sg63_25_cif.got.tgz:48674.got - 2010.06.03 15:47:04.
