data_PCOD9473300
_publ_section_title
;
Structure prediction by ZEFSAII (Michael W. Deem and Ramdas Pophale) SiO2 
 PCOD9473300
Probable space group: C M C M
;
_chemical_formula_sum "Si O2"
_cell_formula_units_Z 60
_cell_length_a 12.795789
_cell_length_b 6.820048
_cell_length_c 25.669858
_cell_angle_alpha 90.000000
_cell_angle_beta 90.000000
_cell_angle_gamma 90.000000
_cell_volume 2240.154477
_symmetry_space_group_name_H-M "C M C M"
_symmetry_group_IT_number 63
_symmetry_cell_setting 'orthorhombic'
loop_
_space_group_symop_operation_xyz
x,y,z
-x,-y,1/2+z
x,-y,-z
-x,y,1/2-z
-x,-y,-z
x,y,1/2-z
-x,y,z
x,-y,1/2+z
1/2+x,1/2+y,z
1/2-x,1/2-y,1/2+z
1/2+x,1/2-y,-z
1/2-x,1/2+y,1/2-z
1/2-x,1/2-y,-z
1/2+x,1/2+y,1/2-z
1/2-x,1/2+y,z
1/2+x,1/2-y,1/2+z
loop_
_atom_site_type_symbol
_atom_site_label
_atom_site_fract_x
_atom_site_fract_y
_atom_site_fract_z
Si Si1 0.385952 0.660154 0.557221
Si Si2 0.158749 0.814489 0.694216
Si Si3 0.000000 0.941759 0.250000
Si Si4 0.795338 0.500000 0.500000
Si Si5 0.113219 0.418912 0.839221
O O1 0.500000 0.564135 0.554908
O O2 0.284165 0.526069 0.549078
O O3 0.367069 0.814201 0.510352
O O4 0.385535 0.792395 0.608544
O O5 0.140223 0.708092 0.750000
O O6 0.120724 0.655661 0.652673
O O7 0.278237 0.868663 0.688087
O O8 0.090855 0.008103 0.704492
O O9 0.000000 0.384429 0.811670
#
# Coordination Sequence:
#
# PCOD9473300 Si02
#       5
#    16  16   4   8  16
#     4  10  21  35  59  81 112 142 182 227 271 328
#     4  10  20  37  58  76 114 147 180 226 277 318
#     4   8  20  36  58  78 108 154 176 232 272 320
#     4  10  20  38  56  82 110 146 180 220 280 328
#     4  11  21  38  57  85 111 146 186 230 275 324
#
# _framework density 26.783867000000001
#
# number of rings (size 3 to 8) (size 9 to 14) (size 15 to 20)
#    0.800    1.067    1.333    3.200    0.000    1.600 
#    2.400    0.000    5.867    0.000    0.000    0.000 
#    0.000    0.000    0.000    0.000    0.000    0.000 
#
# Total GULP energy -167025.580317 kJ/mol
# GULP energy per Si atom -5567.519344 kJ/mol
# Density = 2.672291 g / cm^3
# Si number density = 26.783867 Si / 1000 Ang^3
#
#
#
# Elastic Constant Matrix: (Units=GPa)
#
#
# Indices 1 2 3 4 5 6 
#
# 1 228.2251 10.1541 23.2260 0.0000 0.0000 0.0000
# 2 10.1541 46.6846 -6.0958 0.0000 0.0000 0.0000
# 3 23.2260 -6.0958 50.4749 0.0000 0.0000 0.0000
# 4 0.0000 0.0000 0.0000 73.3358 0.0000 0.0000
# 5 0.0000 0.0000 0.0000 0.0000 38.2108 0.0000
# 6 0.0000 0.0000 0.0000 0.0000 0.0000 42.5968
#
#
#
# Elastic Compliance Matrix: (Units=1/GPa)
#
#
# Indices 1 2 3 4 5 6 
#
# 1 0.004675 -0.001319 -0.002311 0.000000 0.000000 0.000000
# 2 -0.001319 0.022135 0.003280 0.000000 0.000000 0.000000
# 3 -0.002311 0.003280 0.021271 0.000000 0.000000 0.000000
# 4 0.000000 0.000000 0.000000 0.013636 0.000000 0.000000
# 5 0.000000 0.000000 0.000000 0.000000 0.026171 0.000000
# 6 0.000000 0.000000 0.000000 0.000000 0.000000 0.023476
#
#
# Mechanical properties :
#
#
# Convention : Reuss Voigt Hill
#
# Bulk Modulus (GPa) = 21.10435 42.21702 31.66068
# Shear Modulus (GPa) = 39.10599 50.70202 44.90400
#
# Velocity S-wave (km/s) = 3.82522 4.35559 4.09899
# Velocity P-wave (km/s) = 5.23510 6.41024 5.85224
#
# Compressibility (1/GPa) = 0.04738361
#
# Stress axis : x y z
#
# Youngs Moduli (GPa) = 213.88271 45.17644 47.01187
#
# Poissons Ratio (x) = 0.05957 0.10863
# Poissons Ratio (y) = 0.28204 -0.15420
# Poissons Ratio (z) = 0.49421 -0.14818
#
# Static dielectric constant tensor:
#      x y z
#    x 2.027060 0.000000 0.000000 
#    y 0.000000 2.304380 0.000000 
#    z 0.000000 0.000000 2.010420 
# 
# From -- ./inp_files/68936.got.cif
#   From: 2010.05.17/outbox.cif.g08.bks.cpg/sg63_35_cif.got.tgz:68936.got - 2010.06.03 15:47:04.
