data_PCOD9473638
_publ_section_title
;
Structure prediction by ZEFSAII (Michael W. Deem and Ramdas Pophale) SiO2 
 PCOD9473638
Probable space group: C M C M
;
_chemical_formula_sum "Si O2"
_cell_formula_units_Z 112
_cell_length_a 30.822085
_cell_length_b 11.699611
_cell_length_c 15.577536
_cell_angle_alpha 90.000000
_cell_angle_beta 90.000000
_cell_angle_gamma 90.000000
_cell_volume 5617.359251
_symmetry_space_group_name_H-M "C M C M"
_symmetry_group_IT_number 63
_symmetry_cell_setting 'orthorhombic'
loop_
_space_group_symop_operation_xyz
x,y,z
-x,-y,1/2+z
x,-y,-z
-x,y,1/2-z
-x,-y,-z
x,y,1/2-z
-x,y,z
x,-y,1/2+z
1/2+x,1/2+y,z
1/2-x,1/2-y,1/2+z
1/2+x,1/2-y,-z
1/2-x,1/2+y,1/2-z
1/2-x,1/2-y,-z
1/2+x,1/2+y,1/2-z
1/2-x,1/2+y,z
1/2+x,1/2-y,1/2+z
loop_
_atom_site_type_symbol
_atom_site_label
_atom_site_fract_x
_atom_site_fract_y
_atom_site_fract_z
Si Si1 0.420954 0.624541 0.987606
Si Si2 0.450931 0.200626 0.154329
Si Si3 0.674274 0.384669 0.089850
Si Si4 0.881253 0.249559 0.152740
Si Si5 0.304833 0.856755 0.846601
Si Si6 0.794569 0.870287 0.898350
Si Si7 0.615364 0.010057 0.402215
O O1 0.444911 0.709800 0.922911
O O2 0.374989 0.600638 0.940430
O O3 0.441914 0.500000 0.000000
O O4 0.408474 0.684981 0.078026
O O5 0.445246 0.252581 0.250000
O O6 0.500000 0.154534 0.149934
O O7 0.415745 0.100805 0.143739
O O8 0.678240 0.272602 0.146222
O O9 0.691208 0.502047 0.128966
O O10 0.700883 0.364133 0.001571
O O11 0.894017 0.218653 0.250000
O O12 0.830764 0.214753 0.138740
O O13 0.885281 0.385244 0.139027
O O14 0.308925 0.900068 0.750000
O O15 0.254696 0.852771 0.872204
O O16 0.336320 0.935891 0.902599
O O17 0.600244 0.000000 0.500000
#
# Coordination Sequence:
#
# PCOD9473638 Si02
#       7
#    16  16  16  16  16  16  16
#     4  11  21  44  68  98 130 170 215 259 326 390
#     4  11  25  47  75 103 130 164 212 270 330 399
#     4  10  20  40  61  83 121 171 219 264 321 378
#     4  11  22  39  62  94 132 174 219 265 315 379
#     4  12  25  36  57  91 127 169 222 275 316 374
#     4  10  22  39  58  87 124 173 220 269 323 371
#     4  12  24  43  67  93 129 173 215 268 331 392
#
# _framework density 19.938193999999999
#
# number of rings (size 3 to 8) (size 9 to 14) (size 15 to 20)
#    0.000    1.000    5.714    3.000    4.000    2.286 
#    0.000    0.000    0.000    0.429    0.000    0.000 
#    0.000    0.000    0.000    0.000    0.000    0.000 
#
# Total GULP energy -312858.214605 kJ/mol
# GULP energy per Si atom -5586.753832 kJ/mol
# Density = 1.989281 g / cm^3
# Si number density = 19.938194 Si / 1000 Ang^3
#
#
#
# Elastic Constant Matrix: (Units=GPa)
#
#
# Indices 1 2 3 4 5 6 
#
# 1 57.9989 26.5236 34.7878 0.0000 0.0000 0.0000
# 2 26.5236 114.6204 28.6725 0.0000 0.0000 0.0000
# 3 34.7878 28.6725 90.1567 0.0000 0.0000 0.0000
# 4 0.0000 0.0000 0.0000 -19.5345 0.0000 0.0000
# 5 0.0000 0.0000 0.0000 0.0000 18.5292 0.0000
# 6 0.0000 0.0000 0.0000 0.0000 0.0000 8.7432
#
#
#
# Elastic Compliance Matrix: (Units=1/GPa)
#
#
# Indices 1 2 3 4 5 6 
#
# 1 0.023635 -0.003463 -0.008018 0.000000 0.000000 0.000000
# 2 -0.003463 0.009986 -0.001839 0.000000 0.000000 0.000000
# 3 -0.008018 -0.001839 0.014771 0.000000 0.000000 0.000000
# 4 0.000000 0.000000 0.000000 -0.051191 0.000000 0.000000
# 5 0.000000 0.000000 0.000000 0.000000 0.053969 0.000000
# 6 0.000000 0.000000 0.000000 0.000000 0.000000 0.114375
#
#
# Mechanical properties :
#
#
# Convention : Reuss Voigt Hill
#
# Bulk Modulus (GPa) = 45.97836 49.19375 47.58605
# Shear Modulus (GPa) = 25.07074 13.06707 19.06890
#
# Velocity S-wave (km/s) = 3.54986 2.56281 3.09593
# Velocity P-wave (km/s) = 6.31764 5.78654 6.05791
#
# Compressibility (1/GPa) = 0.02174936
#
# Stress axis : x y z
#
# Youngs Moduli (GPa) = 42.31026 100.13969 67.70149
#
# Poissons Ratio (x) = 0.34683 0.54285
# Poissons Ratio (y) = 0.14654 0.12453
# Poissons Ratio (z) = 0.33926 0.18420
#
# Static dielectric constant tensor:
#      x y z
#    x 1.678170 0.000000 0.000000 
#    y 0.000000 1.710190 0.000000 
#    z 0.000000 0.000000 1.860670 
# 
# From -- ./inp_files/38591.got.cif
#   From: 2010.05.17/outbox.cif.g08.bks.cpg/sg63_20_cif.got.tgz:38591.got - 2010.06.03 15:47:04.
