data_PCOD9473070
_publ_section_title
;
Structure prediction by ZEFSAII (Michael W. Deem and Ramdas Pophale) SiO2 
 PCOD9473070
Probable space group: C M C M
;
_chemical_formula_sum "Si O2"
_cell_formula_units_Z 100
_cell_length_a 26.407591
_cell_length_b 7.455584
_cell_length_c 24.251387
_cell_angle_alpha 90.000000
_cell_angle_beta 90.000000
_cell_angle_gamma 90.000000
_cell_volume 4774.710392
_symmetry_space_group_name_H-M "C M C M"
_symmetry_group_IT_number 63
_symmetry_cell_setting 'orthorhombic'
loop_
_space_group_symop_operation_xyz
x,y,z
-x,-y,1/2+z
x,-y,-z
-x,y,1/2-z
-x,-y,-z
x,y,1/2-z
-x,y,z
x,-y,1/2+z
1/2+x,1/2+y,z
1/2-x,1/2-y,1/2+z
1/2+x,1/2-y,-z
1/2-x,1/2+y,1/2-z
1/2-x,1/2-y,-z
1/2+x,1/2+y,1/2-z
1/2-x,1/2+y,z
1/2+x,1/2-y,1/2+z
loop_
_atom_site_type_symbol
_atom_site_label
_atom_site_fract_x
_atom_site_fract_y
_atom_site_fract_z
Si Si1 0.725714 0.243522 0.631965
Si Si2 0.939658 0.588384 0.941678
Si Si3 0.194871 0.940486 0.059855
Si Si4 0.316704 0.899553 0.686852
Si Si5 0.000000 0.705707 0.250000
Si Si6 0.917331 0.991376 0.560100
Si Si7 0.577285 0.776204 0.646975
O O1 0.766319 0.202093 0.583658
O O2 0.694942 0.407526 0.607238
O O3 0.763009 0.297314 0.681632
O O4 0.692126 0.075247 0.649130
O O5 0.913383 0.778940 0.929675
O O6 0.931033 0.445239 0.893468
O O7 0.000000 0.623968 0.945572
O O8 0.923459 0.500000 0.000000
O O9 0.135836 0.901905 0.051347
O O10 0.213768 0.000000 0.000000
O O11 0.326536 0.949522 0.750000
O O12 0.363498 0.782669 0.664570
O O13 0.043847 0.706591 0.298695
O O14 0.943356 0.000000 0.500000
O O15 0.938551 0.099917 0.611940
#
# Coordination Sequence:
#
# PCOD9473070 Si02
#       7
#    16  16  16  16   4  16  16
#     4  10  21  37  60  92 128 173 221 270 313 400
#     4  11  24  41  67 100 129 169 221 280 342 400
#     4  10  20  36  57  93 132 168 207 261 332 397
#     4  11  22  40  64  89 131 174 227 273 326 382
#     4  12  28  48  74  92 136 182 224 270 350 402
#     4  11  23  41  68 102 135 169 221 279 340 405
#     4  12  24  47  69  99 137 179 223 277 337 407
#
# _framework density 20.943677999999998
#
# number of rings (size 3 to 8) (size 9 to 14) (size 15 to 20)
#    0.000    1.120    4.800    1.920    1.120    0.320 
#    0.000    2.400    1.760    0.000    0.000    0.000 
#    0.000    0.000    0.000    0.000    0.000    0.000 
#
# Total GULP energy -278483.974677 kJ/mol
# GULP energy per Si atom -5569.679494 kJ/mol
# Density = 2.089601 g / cm^3
# Si number density = 20.943678 Si / 1000 Ang^3
#
#
#
# Elastic Constant Matrix: (Units=GPa)
#
#
# Indices 1 2 3 4 5 6 
#
# 1 78.3133 8.6188 24.9738 0.0000 0.0000 0.0000
# 2 8.6188 94.5819 40.7474 0.0000 0.0000 0.0000
# 3 24.9738 40.7474 159.9082 0.0000 0.0000 0.0000
# 4 0.0000 0.0000 0.0000 12.2003 0.0000 0.0000
# 5 0.0000 0.0000 0.0000 0.0000 9.4024 0.0000
# 6 0.0000 0.0000 0.0000 0.0000 0.0000 134.2352
#
#
#
# Elastic Compliance Matrix: (Units=1/GPa)
#
#
# Indices 1 2 3 4 5 6 
#
# 1 0.013449 -0.000360 -0.002009 0.000000 0.000000 0.000000
# 2 -0.000360 0.011886 -0.002973 0.000000 0.000000 0.000000
# 3 -0.002009 -0.002973 0.007325 0.000000 0.000000 0.000000
# 4 0.000000 0.000000 0.000000 0.081965 0.000000 0.000000
# 5 0.000000 0.000000 0.000000 0.000000 0.106355 0.000000
# 6 0.000000 0.000000 0.000000 0.000000 0.000000 0.007450
#
#
# Mechanical properties :
#
#
# Convention : Reuss Voigt Hill
#
# Bulk Modulus (GPa) = 45.50101 53.49817 49.49959
# Shear Modulus (GPa) = 20.28898 48.39849 34.34373
#
# Velocity S-wave (km/s) = 3.11584 4.81238 4.05385
# Velocity P-wave (km/s) = 5.89213 7.51519 6.75260
#
# Compressibility (1/GPa) = 0.02197754
#
# Stress axis : x y z
#
# Youngs Moduli (GPa) = 74.35261 84.13044 136.52321
#
# Poissons Ratio (x) = 0.03030 0.27423
# Poissons Ratio (y) = 0.02678 0.40583
# Poissons Ratio (z) = 0.14935 0.25008
#
# Static dielectric constant tensor:
#      x y z
#    x 1.797050 0.000000 0.000000 
#    y 0.000000 1.760960 0.000000 
#    z 0.000000 0.000000 1.754540 
# 
# From -- ./inp_files/58505.got.cif
#   From: 2010.05.17/outbox.cif.g08.bks.cpg/sg63_30_cif.got.tgz:58505.got - 2010.06.03 15:47:04.
