data_PCOD9473326
_publ_section_title
;
Structure prediction by ZEFSAII (Michael W. Deem and Ramdas Pophale) SiO2 
 PCOD9473326
Probable space group: C M C M
;
_chemical_formula_sum "Si O2"
_cell_formula_units_Z 80
_cell_length_a 27.425887
_cell_length_b 19.190511
_cell_length_c 8.551975
_cell_angle_alpha 90.000000
_cell_angle_beta 90.000000
_cell_angle_gamma 90.000000
_cell_volume 4501.047997
_symmetry_space_group_name_H-M "C M C M"
_symmetry_group_IT_number 63
_symmetry_cell_setting 'orthorhombic'
loop_
_space_group_symop_operation_xyz
x,y,z
-x,-y,1/2+z
x,-y,-z
-x,y,1/2-z
-x,-y,-z
x,y,1/2-z
-x,y,z
x,-y,1/2+z
1/2+x,1/2+y,z
1/2-x,1/2-y,1/2+z
1/2+x,1/2-y,-z
1/2-x,1/2+y,1/2-z
1/2-x,1/2-y,-z
1/2+x,1/2+y,1/2-z
1/2-x,1/2+y,z
1/2+x,1/2-y,1/2+z
loop_
_atom_site_type_symbol
_atom_site_label
_atom_site_fract_x
_atom_site_fract_y
_atom_site_fract_z
Si Si1 0.056872 0.573479 0.438521
Si Si2 0.845098 0.924273 0.563928
Si Si3 0.945412 0.136428 0.560678
Si Si4 0.701304 0.714360 0.937740
Si Si5 0.900081 0.281625 0.560185
O O1 0.076513 0.500000 0.500000
O O2 0.058763 0.572499 0.250000
O O3 0.083573 0.642883 0.496485
O O4 0.000000 0.578381 0.484776
O O5 0.843786 0.923974 0.750000
O O6 0.900276 0.906495 0.507870
O O7 0.810276 0.863055 0.499722
O O8 0.831431 0.000000 0.500000
O O9 0.942702 0.131840 0.750000
O O10 0.935291 0.217347 0.516864
O O11 0.000000 0.115380 0.512230
O O12 0.702382 0.711998 0.750000
O O13 0.654211 0.759877 0.987226
O O14 0.750000 0.750000 0.000000
O O15 0.901062 0.284044 0.750000
#
# Coordination Sequence:
#
# PCOD9473326 Si02
#       5
#    16  16  16  16  16
#     4   9  16  27  44  67  96 130 165 200 241 289
#     4  11  22  37  56  79 108 140 174 214 261 312
#     4   9  17  31  52  77 104 137 177 217 258 309
#     4  10  20  37  59  81 103 131 171 216 264 315
#     4   8  15  29  50  72  96 130 171 211 250 301
#
# _framework density 17.773638999999999
#
# number of rings (size 3 to 8) (size 9 to 14) (size 15 to 20)
#    0.000    2.600    0.000    4.200    0.000    3.200 
#    0.000    6.000    0.000    7.200    0.000    0.000 
#    0.000    0.000    0.000    0.000    0.000    0.000 
#
# Total GULP energy -223065.200385 kJ/mol
# GULP energy per Si atom -5576.630010 kJ/mol
# Density = 1.773319 g / cm^3
# Si number density = 17.773639 Si / 1000 Ang^3
#
#
#
# Elastic Constant Matrix: (Units=GPa)
#
#
# Indices 1 2 3 4 5 6 
#
# 1 98.3929 57.8101 34.8584 0.0000 0.0000 0.0000
# 2 57.8101 155.8786 35.7129 0.0000 0.0000 0.0000
# 3 34.8584 35.7129 52.6231 0.0000 0.0000 0.0000
# 4 0.0000 0.0000 0.0000 28.1311 0.0000 0.0000
# 5 0.0000 0.0000 0.0000 0.0000 24.1455 0.0000
# 6 0.0000 0.0000 0.0000 0.0000 0.0000 11.7992
#
#
#
# Elastic Compliance Matrix: (Units=1/GPa)
#
#
# Indices 1 2 3 4 5 6 
#
# 1 0.015051 -0.003905 -0.007320 0.000000 0.000000 0.000000
# 2 -0.003905 0.008609 -0.003256 0.000000 0.000000 0.000000
# 3 -0.007320 -0.003256 0.026062 0.000000 0.000000 0.000000
# 4 0.000000 0.000000 0.000000 0.035548 0.000000 0.000000
# 5 0.000000 0.000000 0.000000 0.000000 0.041416 0.000000
# 6 0.000000 0.000000 0.000000 0.000000 0.000000 0.084751
#
#
# Mechanical properties :
#
#
# Convention : Reuss Voigt Hill
#
# Bulk Modulus (GPa) = 48.16922 62.62861 55.39891
# Shear Modulus (GPa) = 20.21682 24.71604 22.46643
#
# Velocity S-wave (km/s) = 3.37628 3.73312 3.55918
# Velocity P-wave (km/s) = 6.50841 7.34131 6.93737
#
# Compressibility (1/GPa) = 0.02076015
#
# Stress axis : x y z
#
# Youngs Moduli (GPa) = 66.44130 116.15166 38.37039
#
# Poissons Ratio (x) = 0.45355 0.28087
# Poissons Ratio (y) = 0.25944 0.12494
# Poissons Ratio (z) = 0.48635 0.37821
#
# Static dielectric constant tensor:
#      x y z
#    x 1.594650 0.000000 0.000000 
#    y 0.000000 1.608700 0.000000 
#    z 0.000000 0.000000 1.607890 
# 
# From -- ./inp_files/12017.got.cif
#   From: 2010.05.17/outbox.cif.g08.bks.cpg/sg63_7_cif.got.tgz:12017.got - 2010.06.03 15:47:04.
