data_PCOD9473899
_publ_section_title
;
Structure prediction by ZEFSAII (Michael W. Deem and Ramdas Pophale) SiO2 
 PCOD9473899
Probable space group: C M C M
;
_chemical_formula_sum "Si O2"
_cell_formula_units_Z 104
_cell_length_a 20.965432
_cell_length_b 32.789359
_cell_length_c 8.743302
_cell_angle_alpha 90.000000
_cell_angle_beta 90.000000
_cell_angle_gamma 90.000000
_cell_volume 6010.522425
_symmetry_space_group_name_H-M "C M C M"
_symmetry_group_IT_number 63
_symmetry_cell_setting 'orthorhombic'
loop_
_space_group_symop_operation_xyz
x,y,z
-x,-y,1/2+z
x,-y,-z
-x,y,1/2-z
-x,-y,-z
x,y,1/2-z
-x,y,z
x,-y,1/2+z
1/2+x,1/2+y,z
1/2-x,1/2-y,1/2+z
1/2+x,1/2-y,-z
1/2-x,1/2+y,1/2-z
1/2-x,1/2-y,-z
1/2+x,1/2+y,1/2-z
1/2-x,1/2+y,z
1/2+x,1/2-y,1/2+z
loop_
_atom_site_type_symbol
_atom_site_label
_atom_site_fract_x
_atom_site_fract_y
_atom_site_fract_z
Si Si1 0.428320 0.681955 0.933396
Si Si2 0.761097 0.956744 0.067343
Si Si3 0.696954 0.366639 0.434844
Si Si4 0.427102 0.227827 0.566969
Si Si5 0.127691 0.418768 0.066739
Si Si6 0.175771 0.333873 0.567501
Si Si7 0.000000 0.455092 0.932213
O O1 0.424378 0.688843 0.750000
O O2 0.500000 0.666800 0.967127
O O3 0.372113 0.651024 0.974946
O O4 0.420265 0.725273 0.015960
O O5 0.768478 0.958781 0.250000
O O6 0.793322 0.913913 0.015636
O O7 0.686170 0.949360 0.032786
O O8 0.782604 0.000000 0.000000
O O9 0.704511 0.366221 0.250000
O O10 0.752116 0.337592 0.503328
O O11 0.423300 0.224358 0.750000
O O12 0.500000 0.214926 0.521141
O O13 0.370191 0.201749 0.493635
O O14 0.123166 0.414856 0.250000
O O15 0.145142 0.375630 0.994044
O O16 0.062603 0.433560 0.995387
O O17 0.177584 0.332609 0.750000
O O18 0.000000 0.455885 0.750000
O O19 0.000000 0.500000 0.000000
#
# Coordination Sequence:
#
# PCOD9473899 Si02
#       7
#    16  16  16  16  16  16   8
#     4   9  18  35  59  83 105 134 175 221 265 315
#     4   9  18  32  52  75 100 133 170 210 257 311
#     4   9  19  36  55  78 109 140 173 215 269 324
#     4  10  21  36  54  76 106 144 180 217 267 322
#     4  10  21  37  53  71 100 137 176 224 277 322
#     4  11  22  35  53  78 106 138 181 225 264 314
#     4  12  24  36  50  72 100 136 182 228 274 324
#
# _framework density 17.302987999999999
#
# number of rings (size 3 to 8) (size 9 to 14) (size 15 to 20)
#    0.000    2.154    0.000    4.385    1.077    6.462 
#    0.000    0.000    0.000    0.462    0.000    0.000 
#    0.000    0.000    0.000    0.000    0.000    0.308 
#
# Total GULP energy -290067.304260 kJ/mol
# GULP energy per Si atom -5578.217390 kJ/mol
# Density = 1.726361 g / cm^3
# Si number density = 17.302988 Si / 1000 Ang^3
#
#
#
# Elastic Constant Matrix: (Units=GPa)
#
#
# Indices 1 2 3 4 5 6 
#
# 1 145.9926 78.3334 54.2440 0.0000 0.0000 0.0000
# 2 78.3334 84.6324 38.7101 0.0000 0.0000 0.0000
# 3 54.2440 38.7101 55.8260 0.0000 0.0000 0.0000
# 4 0.0000 0.0000 0.0000 30.2943 0.0000 0.0000
# 5 0.0000 0.0000 0.0000 0.0000 17.5645 0.0000
# 6 0.0000 0.0000 0.0000 0.0000 0.0000 12.8145
#
#
#
# Elastic Compliance Matrix: (Units=1/GPa)
#
#
# Indices 1 2 3 4 5 6 
#
# 1 0.015481 -0.010909 -0.007479 0.000000 0.000000 0.000000
# 2 -0.010909 0.024990 -0.006729 0.000000 0.000000 0.000000
# 3 -0.007479 -0.006729 0.029845 0.000000 0.000000 0.000000
# 4 0.000000 0.000000 0.000000 0.033009 0.000000 0.000000
# 5 0.000000 0.000000 0.000000 0.000000 0.056933 0.000000
# 6 0.000000 0.000000 0.000000 0.000000 0.000000 0.078037
#
#
# Mechanical properties :
#
#
# Convention : Reuss Voigt Hill
#
# Bulk Modulus (GPa) = 49.78899 69.89177 59.84038
# Shear Modulus (GPa) = 16.93632 19.81223 18.37428
#
# Velocity S-wave (km/s) = 3.13199 3.38748 3.26224
# Velocity P-wave (km/s) = 6.47429 7.46864 6.98917
#
# Compressibility (1/GPa) = 0.02008476
#
# Stress axis : x y z
#
# Youngs Moduli (GPa) = 64.59352 40.01570 33.50591
#
# Poissons Ratio (x) = 0.43651 0.25058
# Poissons Ratio (y) = 0.70462 0.22546
# Poissons Ratio (z) = 0.48307 0.26926
#
# Static dielectric constant tensor:
#      x y z
#    x 1.583240 0.000000 0.000000 
#    y 0.000000 1.567690 0.000000 
#    z 0.000000 0.000000 1.578650 
# 
# From -- ./inp_files/9161.got.cif
#   From: 2010.05.17/outbox.cif.g08.bks.cpg/sg63_5_cif.got.tgz:9161.got - 2010.06.03 15:47:04.
