data_PCOD9473475
_publ_section_title
;
Structure prediction by ZEFSAII (Michael W. Deem and Ramdas Pophale) SiO2 
 PCOD9473475
Probable space group: C M C M
;
_chemical_formula_sum "Si O2"
_cell_formula_units_Z 96
_cell_length_a 8.629062
_cell_length_b 20.110215
_cell_length_c 29.990673
_cell_angle_alpha 90.000000
_cell_angle_beta 90.000000
_cell_angle_gamma 90.000000
_cell_volume 5204.350226
_symmetry_space_group_name_H-M "C M C M"
_symmetry_group_IT_number 63
_symmetry_cell_setting 'orthorhombic'
loop_
_space_group_symop_operation_xyz
x,y,z
-x,-y,1/2+z
x,-y,-z
-x,y,1/2-z
-x,-y,-z
x,y,1/2-z
-x,y,z
x,-y,1/2+z
1/2+x,1/2+y,z
1/2-x,1/2-y,1/2+z
1/2+x,1/2-y,-z
1/2-x,1/2+y,1/2-z
1/2-x,1/2-y,-z
1/2+x,1/2+y,1/2-z
1/2-x,1/2+y,z
1/2+x,1/2-y,1/2+z
loop_
_atom_site_type_symbol
_atom_site_label
_atom_site_fract_x
_atom_site_fract_y
_atom_site_fract_z
Si Si1 0.317545 0.186176 0.975039
Si Si2 0.813062 0.990466 0.875760
Si Si3 0.318790 0.566302 0.470276
Si Si4 0.188847 0.241707 0.801036
Si Si5 0.812304 0.144000 0.879762
Si Si6 0.313364 0.106392 0.301569
O O1 0.500000 0.193601 0.969656
O O2 0.243119 0.173826 0.926593
O O3 0.250000 0.250000 0.000000
O O4 0.277675 0.123004 0.005769
O O5 0.760196 0.067232 0.875494
O O6 0.000000 0.991954 0.876569
O O7 0.763119 0.953676 0.921144
O O8 0.757331 0.947877 0.834055
O O9 0.313580 0.500000 0.500000
O O10 0.500000 0.587407 0.468076
O O11 0.237990 0.227103 0.750000
O O12 0.240283 0.189011 0.838036
O O13 0.235046 0.317571 0.812421
O O14 0.000000 0.240903 0.800750
O O15 0.000000 0.143983 0.879986
O O16 0.271454 0.094172 0.250000
O O17 0.500000 0.104014 0.304852
#
# Coordination Sequence:
#
# PCOD9473475 Si02
#       6
#    16  16  16  16  16  16
#     4  12  26  41  59  85 117 154 196 239 284 344
#     4  10  21  35  57  86 116 148 184 235 292 341
#     4  10  20  40  62  83 118 154 186 234 291 342
#     4   8  16  33  58  84 109 143 189 236 280 334
#     4  10  20  38  60  85 115 149 190 238 289 339
#     4   9  19  36  56  81 114 149 189 238 285 334
#
# _framework density 18.446106
#
# number of rings (size 3 to 8) (size 9 to 14) (size 15 to 20)
#    0.000    2.167    1.667    2.500    2.333    2.667 
#    0.000    1.667    0.000    1.500    0.000    0.000 
#    0.000    0.000    0.000    0.000    0.000    0.000 
#
# Total GULP energy -267936.504521 kJ/mol
# GULP energy per Si atom -5582.010511 kJ/mol
# Density = 1.840412 g / cm^3
# Si number density = 18.446106 Si / 1000 Ang^3
#
#
#
# Elastic Constant Matrix: (Units=GPa)
#
#
# Indices 1 2 3 4 5 6 
#
# 1 12.9303 19.9863 18.0370 0.0000 0.0000 0.0000
# 2 19.9863 118.7513 97.7619 0.0000 0.0000 0.0000
# 3 18.0370 97.7619 151.1671 0.0000 0.0000 0.0000
# 4 0.0000 0.0000 0.0000 38.4271 0.0000 0.0000
# 5 0.0000 0.0000 0.0000 0.0000 20.8180 0.0000
# 6 0.0000 0.0000 0.0000 0.0000 0.0000 23.8561
#
#
#
# Elastic Compliance Matrix: (Units=1/GPa)
#
#
# Indices 1 2 3 4 5 6 
#
# 1 0.104920 -0.015724 -0.002350 0.000000 0.000000 0.000000
# 2 -0.015724 0.020366 -0.011295 0.000000 0.000000 0.000000
# 3 -0.002350 -0.011295 0.014200 0.000000 0.000000 0.000000
# 4 0.000000 0.000000 0.000000 0.026023 0.000000 0.000000
# 5 0.000000 0.000000 0.000000 0.000000 0.048035 0.000000
# 6 0.000000 0.000000 0.000000 0.000000 0.000000 0.041918
#
#
# Mechanical properties :
#
#
# Convention : Reuss Voigt Hill
#
# Bulk Modulus (GPa) = 12.38408 61.60212 36.99310
# Shear Modulus (GPa) = 14.65780 26.42449 20.54115
#
# Velocity S-wave (km/s) = 2.82197 3.78898 3.34065
# Velocity P-wave (km/s) = 4.16489 7.25328 5.91423
#
# Compressibility (1/GPa) = 0.08074882
#
# Stress axis : x y z
#
# Youngs Moduli (GPa) = 9.53106 49.10241 70.42265
#
# Poissons Ratio (x) = 0.77207 0.16550
# Poissons Ratio (y) = 0.14986 0.79540
# Poissons Ratio (z) = 0.02240 0.55459
#
# Static dielectric constant tensor:
#      x y z
#    x 1.632080 0.000000 0.000000 
#    y 0.000000 1.612940 0.000000 
#    z 0.000000 0.000000 1.618410 
# 
# From -- ./inp_files/66893.got.cif
#   From: 2010.05.17/outbox.cif.g08.bks.cpg/sg63_34_cif.got.tgz:66893.got - 2010.06.03 15:47:04.
