data_PCOD9473449
_publ_section_title
;
Structure prediction by ZEFSAII (Michael W. Deem and Ramdas Pophale) SiO2 
 PCOD9473449
Probable space group: C M C M
;
_chemical_formula_sum "Si O2"
_cell_formula_units_Z 116
_cell_length_a 23.097107
_cell_length_b 10.045370
_cell_length_c 26.404608
_cell_angle_alpha 90.000000
_cell_angle_beta 90.000000
_cell_angle_gamma 90.000000
_cell_volume 6126.370367
_symmetry_space_group_name_H-M "C M C M"
_symmetry_group_IT_number 63
_symmetry_cell_setting 'orthorhombic'
loop_
_space_group_symop_operation_xyz
x,y,z
-x,-y,1/2+z
x,-y,-z
-x,y,1/2-z
-x,-y,-z
x,y,1/2-z
-x,y,z
x,-y,1/2+z
1/2+x,1/2+y,z
1/2-x,1/2-y,1/2+z
1/2+x,1/2-y,-z
1/2-x,1/2+y,1/2-z
1/2-x,1/2-y,-z
1/2+x,1/2+y,1/2-z
1/2-x,1/2+y,z
1/2+x,1/2-y,1/2+z
loop_
_atom_site_type_symbol
_atom_site_label
_atom_site_fract_x
_atom_site_fract_y
_atom_site_fract_z
Si Si1 0.933302 0.783449 0.420533
Si Si2 0.735514 0.262353 0.691348
Si Si3 0.854859 0.031190 0.439872
Si Si4 0.934390 0.725782 0.540485
Si Si5 0.500000 0.310692 0.750000
Si Si6 0.103689 0.306428 0.304554
Si Si7 0.757157 0.492873 0.373887
Si Si8 0.610931 0.000588 0.396649
O O1 0.932009 0.747168 0.480355
O O2 0.909158 0.652396 0.393172
O O3 0.000000 0.809463 0.406521
O O4 0.893664 0.913586 0.415811
O O5 0.750276 0.236628 0.750000
O O6 0.665339 0.263649 0.687272
O O7 0.760036 0.400308 0.671266
O O8 0.755213 0.147474 0.652941
O O9 0.889080 0.170236 0.435523
O O10 0.793301 0.032741 0.412402
O O11 0.848468 0.000000 0.500000
O O12 0.918018 0.577444 0.556848
O O13 0.000000 0.756273 0.556848
O O14 0.448665 0.293963 0.793726
O O15 0.108849 0.380287 0.250000
O O16 0.093015 0.412535 0.348130
O O17 0.819665 0.491502 0.400268
#
# Coordination Sequence:
#
# PCOD9473449 Si02
#       8
#    16  16  16  16   4  16  16  16
#     4  10  21  35  54  79 109 143 181 223 275 327
#     4  10  20  38  58  82 109 141 180 227 274 319
#     4  10  21  38  55  76 110 150 183 222 270 323
#     4  10  21  36  56  78 105 143 189 227 266 320
#     4   8  16  32  52  76 110 134 180 212 266 322
#     4   8  18  31  51  78 106 135 172 213 268 319
#     4  11  22  37  57  84 111 144 188 223 267 336
#     4  11  21  34  53  82 111 138 175 230 275 313
#
# _framework density 18.934539999999998
#
# number of rings (size 3 to 8) (size 9 to 14) (size 15 to 20)
#    0.414    1.655    0.000    4.138    1.931    4.414 
#    0.000    3.448    0.000    0.000    0.000    0.000 
#    0.000    4.414    0.000    0.000    0.000    0.000 
#
# Total GULP energy -322996.796212 kJ/mol
# GULP energy per Si atom -5568.910280 kJ/mol
# Density = 1.889144 g / cm^3
# Si number density = 18.934540 Si / 1000 Ang^3
#
#
#
# Elastic Constant Matrix: (Units=GPa)
#
#
# Indices 1 2 3 4 5 6 
#
# 1 69.7083 -11.8175 17.9370 0.0000 0.0000 0.0000
# 2 -11.8175 35.8028 -9.6169 0.0000 0.0000 0.0000
# 3 17.9370 -9.6169 30.2505 0.0000 0.0000 0.0000
# 4 0.0000 0.0000 0.0000 12.3108 0.0000 0.0000
# 5 0.0000 0.0000 0.0000 0.0000 -8.3544 0.0000
# 6 0.0000 0.0000 0.0000 0.0000 0.0000 9.2881
#
#
#
# Elastic Compliance Matrix: (Units=1/GPa)
#
#
# Indices 1 2 3 4 5 6 
#
# 1 0.017262 0.003224 -0.009211 0.000000 0.000000 0.000000
# 2 0.003224 0.031141 0.007988 0.000000 0.000000 0.000000
# 3 -0.009211 0.007988 0.041058 0.000000 0.000000 0.000000
# 4 0.000000 0.000000 0.000000 0.081229 0.000000 0.000000
# 5 0.000000 0.000000 0.000000 0.000000 -0.119698 0.000000
# 6 0.000000 0.000000 0.000000 0.000000 0.000000 0.107664
#
#
# Mechanical properties :
#
#
# Convention : Reuss Voigt Hill
#
# Bulk Modulus (GPa) = 10.69933 14.30741 12.50337
# Shear Modulus (GPa) = 26.90940 11.93285 19.42112
#
# Velocity S-wave (km/s) = 3.77394 2.51313 3.20613
# Velocity P-wave (km/s) = 4.96520 3.99922 4.50816
#
# Compressibility (1/GPa) = 0.09346377
#
# Stress axis : x y z
#
# Youngs Moduli (GPa) = 57.93055 32.11240 24.35563
#
# Poissons Ratio (x) = -0.10352 0.22433
# Poissons Ratio (y) = -0.18675 -0.19456
# Poissons Ratio (z) = 0.53358 -0.25653
#
# Static dielectric constant tensor:
#      x y z
#    x 1.654090 0.000000 0.000000 
#    y 0.000000 1.639040 0.000000 
#    z 0.000000 0.000000 1.690190 
# 
# From -- ./inp_files/74352.got.cif
#   From: 2010.05.17/outbox.cif.g08.bks.cpg/sg63_38_cif.got.tgz:74352.got - 2010.06.03 15:47:04.
