data_PCOD9473600
_publ_section_title
;
Structure prediction by ZEFSAII (Michael W. Deem and Ramdas Pophale) SiO2 
 PCOD9473600
Probable space group: C M C M
;
_chemical_formula_sum "Si O2"
_cell_formula_units_Z 80
_cell_length_a 15.514248
_cell_length_b 11.958796
_cell_length_c 23.932101
_cell_angle_alpha 90.000000
_cell_angle_beta 90.000000
_cell_angle_gamma 90.000000
_cell_volume 4440.164027
_symmetry_space_group_name_H-M "C M C M"
_symmetry_group_IT_number 63
_symmetry_cell_setting 'orthorhombic'
loop_
_space_group_symop_operation_xyz
x,y,z
-x,-y,1/2+z
x,-y,-z
-x,y,1/2-z
-x,-y,-z
x,y,1/2-z
-x,y,z
x,-y,1/2+z
1/2+x,1/2+y,z
1/2-x,1/2-y,1/2+z
1/2+x,1/2-y,-z
1/2-x,1/2+y,1/2-z
1/2-x,1/2-y,-z
1/2+x,1/2+y,1/2-z
1/2-x,1/2+y,z
1/2+x,1/2-y,1/2+z
loop_
_atom_site_type_symbol
_atom_site_label
_atom_site_fract_x
_atom_site_fract_y
_atom_site_fract_z
Si Si1 0.164972 0.890438 0.127792
Si Si2 0.500000 0.725901 0.817151
Si Si3 0.500000 0.983889 0.682328
Si Si4 0.599465 0.634267 0.510184
Si Si5 0.348710 0.152109 0.682868
Si Si6 0.101600 0.138284 0.387944
O O1 0.157410 0.845157 0.064188
O O2 0.254618 0.865592 0.157284
O O3 0.085043 0.835825 0.160583
O O4 0.150711 0.023974 0.125213
O O5 0.500000 0.723772 0.750000
O O6 0.500000 0.855567 0.836379
O O7 0.500000 0.981856 0.750000
O O8 0.415241 0.053921 0.665749
O O9 0.599481 0.500000 0.500000
O O10 0.500000 0.666208 0.522907
O O11 0.625810 0.682439 0.450023
O O12 0.345026 0.155477 0.750000
O O13 0.383653 0.268112 0.658126
O O14 0.000000 0.110171 0.391408
#
# Coordination Sequence:
#
# PCOD9473600 Si02
#       6
#    16   8   8  16  16  16
#     4  11  21  37  60  91 117 148 192 242 287 347
#     4  11  22  37  57  83 119 159 187 230 295 351
#     4   9  22  43  56  71 114 163 193 227 286 346
#     4   8  15  33  60  86 115 147 184 236 299 341
#     4  11  24  39  58  84 117 156 194 238 290 342
#     4  10  20  39  65  88 112 150 198 246 286 337
#
# _framework density 18.017351999999999
#
# number of rings (size 3 to 8) (size 9 to 14) (size 15 to 20)
#    0.000    2.000    3.000    1.800    2.800    2.400 
#    0.000    0.000    0.000    1.200    0.000    0.000 
#    0.000    0.000    0.000    0.000    0.000    0.000 
#
# Total GULP energy -223136.772277 kJ/mol
# GULP energy per Si atom -5578.419307 kJ/mol
# Density = 1.797634 g / cm^3
# Si number density = 18.017352 Si / 1000 Ang^3
#
#
#
# Elastic Constant Matrix: (Units=GPa)
#
#
# Indices 1 2 3 4 5 6 
#
# 1 95.3196 18.0450 40.4659 0.0000 0.0000 0.0000
# 2 18.0450 59.1020 27.0201 0.0000 0.0000 0.0000
# 3 40.4659 27.0201 99.2942 0.0000 0.0000 0.0000
# 4 0.0000 0.0000 0.0000 20.4828 0.0000 0.0000
# 5 0.0000 0.0000 0.0000 0.0000 14.2985 0.0000
# 6 0.0000 0.0000 0.0000 0.0000 0.0000 51.2898
#
#
#
# Elastic Compliance Matrix: (Units=1/GPa)
#
#
# Indices 1 2 3 4 5 6 
#
# 1 0.012842 -0.001745 -0.004758 0.000000 0.000000 0.000000
# 2 -0.001745 0.019561 -0.004612 0.000000 0.000000 0.000000
# 3 -0.004758 -0.004612 0.013265 0.000000 0.000000 0.000000
# 4 0.000000 0.000000 0.000000 0.048821 0.000000 0.000000
# 5 0.000000 0.000000 0.000000 0.000000 0.069937 0.000000
# 6 0.000000 0.000000 0.000000 0.000000 0.000000 0.019497
#
#
# Mechanical properties :
#
#
# Convention : Reuss Voigt Hill
#
# Bulk Modulus (GPa) = 42.66764 47.19753 44.93258
# Shear Modulus (GPa) = 23.36807 28.42654 25.89730
#
# Velocity S-wave (km/s) = 3.60526 3.97638 3.79536
# Velocity P-wave (km/s) = 6.40807 6.88001 6.64823
#
# Compressibility (1/GPa) = 0.02343697
#
# Stress axis : x y z
#
# Youngs Moduli (GPa) = 77.87235 51.12173 75.38481
#
# Poissons Ratio (x) = 0.08922 0.35871
# Poissons Ratio (y) = 0.13591 0.34765
# Poissons Ratio (z) = 0.37055 0.23576
#
# Static dielectric constant tensor:
#      x y z
#    x 1.599420 0.000000 0.000000 
#    y 0.000000 1.604620 0.000000 
#    z 0.000000 0.000000 1.645890 
# 
# From -- ./inp_files/62597.got.cif
#   From: 2010.05.17/outbox.cif.g08.bks.cpg/sg63_32_cif.got.tgz:62597.got - 2010.06.03 15:47:04.
