data_PCOD9473671
_publ_section_title
;
Structure prediction by ZEFSAII (Michael W. Deem and Ramdas Pophale) SiO2 
 PCOD9473671
Probable space group: C M C M
;
_chemical_formula_sum "Si O2"
_cell_formula_units_Z 96
_cell_length_a 23.887185
_cell_length_b 7.086151
_cell_length_c 22.798462
_cell_angle_alpha 90.000000
_cell_angle_beta 90.000000
_cell_angle_gamma 90.000000
_cell_volume 3859.054623
_symmetry_space_group_name_H-M "C M C M"
_symmetry_group_IT_number 63
_symmetry_cell_setting 'orthorhombic'
loop_
_space_group_symop_operation_xyz
x,y,z
-x,-y,1/2+z
x,-y,-z
-x,y,1/2-z
-x,-y,-z
x,y,1/2-z
-x,y,z
x,-y,1/2+z
1/2+x,1/2+y,z
1/2-x,1/2-y,1/2+z
1/2+x,1/2-y,-z
1/2-x,1/2+y,1/2-z
1/2-x,1/2-y,-z
1/2+x,1/2+y,1/2-z
1/2-x,1/2+y,z
1/2+x,1/2-y,1/2+z
loop_
_atom_site_type_symbol
_atom_site_label
_atom_site_fract_x
_atom_site_fract_y
_atom_site_fract_z
Si Si1 0.649912 0.025918 0.680725
Si Si2 0.284965 0.256067 0.405896
Si Si3 0.562451 0.834072 0.100827
Si Si4 0.058446 0.979740 0.315885
Si Si5 0.172124 0.711166 0.977842
Si Si6 0.319437 0.472596 0.685850
O O1 0.651687 0.973148 0.750000
O O2 0.685377 0.902666 0.634475
O O3 0.588101 0.029611 0.651074
O O4 0.668137 0.249814 0.679059
O O5 0.224664 0.230099 0.437495
O O6 0.326021 0.316227 0.459772
O O7 0.217978 0.928445 0.361291
O O8 0.500000 0.889634 0.080046
O O9 0.556666 0.635144 0.133936
O O10 0.611942 0.804158 0.053228
O O11 0.057693 0.068231 0.250000
O O12 0.121874 0.911465 0.318240
O O13 0.000000 0.867095 0.319930
O O14 0.186338 0.500000 0.000000
O O15 0.294257 0.498590 0.750000
#
# Coordination Sequence:
#
# PCOD9473671 Si02
#       6
#    16  16  16  16  16  16
#     4  10  21  43  73 108 144 179 232 296 363 438
#     4  11  24  45  72  97 144 189 237 289 365 434
#     4  10  20  40  70  99 139 191 246 299 360 434
#     4   8  15  32  61  94 131 174 218 273 342 416
#     4  11  25  46  66  98 139 196 245 301 360 428
#     4   9  19  38  70 106 141 181 226 288 361 429
#
# _framework density 24.876559
#
# number of rings (size 3 to 8) (size 9 to 14) (size 15 to 20)
#    0.000    2.167    1.667    2.000    0.000    6.667 
#    0.000    7.500    0.000    7.000    0.000    0.000 
#    0.000    0.000    0.000    0.000    0.000    0.000 
#
# Total GULP energy -267759.253783 kJ/mol
# GULP energy per Si atom -5578.317787 kJ/mol
# Density = 2.481994 g / cm^3
# Si number density = 24.876559 Si / 1000 Ang^3
#
#
#
# Elastic Constant Matrix: (Units=GPa)
#
#
# Indices 1 2 3 4 5 6 
#
# 1 213.5792 35.6107 103.3767 0.0000 0.0000 0.0000
# 2 35.6107 57.5099 43.6678 0.0000 0.0000 0.0000
# 3 103.3767 43.6678 204.0241 0.0000 0.0000 0.0000
# 4 0.0000 0.0000 0.0000 47.7648 0.0000 0.0000
# 5 0.0000 0.0000 0.0000 0.0000 -8.7327 0.0000
# 6 0.0000 0.0000 0.0000 0.0000 0.0000 21.2952
#
#
#
# Elastic Compliance Matrix: (Units=1/GPa)
#
#
# Indices 1 2 3 4 5 6 
#
# 1 0.006352 -0.001778 -0.002838 0.000000 0.000000 0.000000
# 2 -0.001778 0.021261 -0.003649 0.000000 0.000000 0.000000
# 3 -0.002838 -0.003649 0.007120 0.000000 0.000000 0.000000
# 4 0.000000 0.000000 0.000000 0.020936 0.000000 0.000000
# 5 0.000000 0.000000 0.000000 0.000000 -0.114513 0.000000
# 6 0.000000 0.000000 0.000000 0.000000 0.000000 0.046959
#
#
# Mechanical properties :
#
#
# Convention : Reuss Voigt Hill
#
# Bulk Modulus (GPa) = 54.93997 93.38039 74.16018
# Shear Modulus (GPa) = 466.67043 31.56267 249.11655
#
# Velocity S-wave (km/s) = 13.71137 3.56585 10.01791
# Velocity P-wave (km/s) = 16.51672 7.38733 12.79403
#
# Compressibility (1/GPa) = 0.01820169
#
# Stress axis : x y z
#
# Youngs Moduli (GPa) = 157.42400 47.03555 140.44128
#
# Poissons Ratio (x) = 0.08365 0.39857
# Poissons Ratio (y) = 0.27998 0.51251
# Poissons Ratio (z) = 0.44676 0.17165
#
# Static dielectric constant tensor:
#      x y z
#    x 2.098760 0.000000 0.000000 
#    y 0.000000 2.083240 0.000000 
#    z 0.000000 0.000000 2.028870 
# 
# From -- ./inp_files/64980.got.cif
#   From: 2010.05.17/outbox.cif.g08.bks.cpg/sg63_33_cif.got.tgz:64980.got - 2010.06.03 15:47:04.
