data_PCOD9473026
_publ_section_title
;
Structure prediction by ZEFSAII (Michael W. Deem and Ramdas Pophale) SiO2 
 PCOD9473026
Probable space group: C M C M
;
_chemical_formula_sum "Si O2"
_cell_formula_units_Z 104
_cell_length_a 20.399451
_cell_length_b 18.971457
_cell_length_c 15.196574
_cell_angle_alpha 90.000000
_cell_angle_beta 90.000000
_cell_angle_gamma 90.000000
_cell_volume 5881.185187
_symmetry_space_group_name_H-M "C M C M"
_symmetry_group_IT_number 63
_symmetry_cell_setting 'orthorhombic'
loop_
_space_group_symop_operation_xyz
x,y,z
-x,-y,1/2+z
x,-y,-z
-x,y,1/2-z
-x,-y,-z
x,y,1/2-z
-x,y,z
x,-y,1/2+z
1/2+x,1/2+y,z
1/2-x,1/2-y,1/2+z
1/2+x,1/2-y,-z
1/2-x,1/2+y,1/2-z
1/2-x,1/2-y,-z
1/2+x,1/2+y,1/2-z
1/2-x,1/2+y,z
1/2+x,1/2-y,1/2+z
loop_
_atom_site_type_symbol
_atom_site_label
_atom_site_fract_x
_atom_site_fract_y
_atom_site_fract_z
Si Si1 0.305240 0.681024 0.349893
Si Si2 0.077670 0.854894 0.972855
Si Si3 0.147998 0.000000 0.500000
Si Si4 0.836565 0.659571 0.851285
Si Si5 0.922878 0.696434 0.483278
Si Si6 0.242935 0.479046 0.353607
Si Si7 0.828815 0.617937 0.145460
O O1 0.305000 0.655419 0.250000
O O2 0.373677 0.658369 0.391363
O O3 0.300780 0.765137 0.351565
O O4 0.239171 0.651000 0.391273
O O5 0.088062 0.781418 0.026450
O O6 0.000000 0.858853 0.953266
O O7 0.103711 0.929636 0.008872
O O8 0.196640 0.000127 0.584265
O O9 0.859641 0.647303 0.750000
O O10 0.786476 0.597433 0.874764
O O11 0.892714 0.669700 0.923980
O O12 0.887080 0.652751 0.407667
O O13 0.000000 0.684976 0.482616
O O14 0.261251 0.480974 0.250000
O O15 0.183927 0.534972 0.365923
O O16 0.835166 0.632450 0.250000
#
# Coordination Sequence:
#
# PCOD9473026 Si02
#       7
#    16  16   8  16  16  16  16
#     4   9  18  34  56  82 105 141 189 231 273 318
#     4  10  22  36  53  81 114 148 184 222 268 327
#     4  12  21  34  58  78 115 154 180 220 273 326
#     4   9  19  34  56  82 111 141 180 229 278 323
#     4  10  22  38  56  80 111 146 186 227 274 326
#     4  10  21  36  55  86 115 140 180 230 279 326
#     4  10  20  36  57  80 110 143 186 231 270 322
#
# _framework density 17.683509999999998
#
# number of rings (size 3 to 8) (size 9 to 14) (size 15 to 20)
#    0.000    2.154    1.538    1.154    2.154    2.154 
#    0.000    4.615    0.000    5.077    0.000    0.000 
#    0.000    0.000    0.000    0.000    0.000    0.000 
#
# Total GULP energy -289683.146148 kJ/mol
# GULP energy per Si atom -5570.829734 kJ/mol
# Density = 1.764326 g / cm^3
# Si number density = 17.683510 Si / 1000 Ang^3
#
#
#
# Elastic Constant Matrix: (Units=GPa)
#
#
# Indices 1 2 3 4 5 6 
#
# 1 57.6593 36.0874 19.4366 0.0000 0.0000 0.0000
# 2 36.0874 80.8828 26.5273 0.0000 0.0000 0.0000
# 3 19.4366 26.5273 45.5824 0.0000 0.0000 0.0000
# 4 0.0000 0.0000 0.0000 17.1440 0.0000 0.0000
# 5 0.0000 0.0000 0.0000 0.0000 6.8846 0.0000
# 6 0.0000 0.0000 0.0000 0.0000 0.0000 33.2852
#
#
#
# Elastic Compliance Matrix: (Units=1/GPa)
#
#
# Indices 1 2 3 4 5 6 
#
# 1 0.025005 -0.009466 -0.005153 0.000000 0.000000 0.000000
# 2 -0.009466 0.018864 -0.006941 0.000000 0.000000 0.000000
# 3 -0.005153 -0.006941 0.028175 0.000000 0.000000 0.000000
# 4 0.000000 0.000000 0.000000 0.058329 0.000000 0.000000
# 5 0.000000 0.000000 0.000000 0.000000 0.145251 0.000000
# 6 0.000000 0.000000 0.000000 0.000000 0.000000 0.030043
#
#
# Mechanical properties :
#
#
# Convention : Reuss Voigt Hill
#
# Bulk Modulus (GPa) = 34.57575 38.69190 36.63383
# Shear Modulus (GPa) = 13.94968 18.26765 16.10866
#
# Velocity S-wave (km/s) = 2.81170 3.21757 3.02146
# Velocity P-wave (km/s) = 5.48961 5.97757 5.73878
#
# Compressibility (1/GPa) = 0.02892200
#
# Stress axis : x y z
#
# Youngs Moduli (GPa) = 39.99172 53.01160 35.49201
#
# Poissons Ratio (x) = 0.50183 0.18290
# Poissons Ratio (y) = 0.37858 0.24637
# Poissons Ratio (z) = 0.20609 0.36798
#
# Static dielectric constant tensor:
#      x y z
#    x 1.563180 0.000000 0.000000 
#    y 0.000000 1.641320 0.000000 
#    z 0.000000 0.000000 1.621910 
# 
# From -- ./inp_files/35641.got.cif
#   From: 2010.05.17/outbox.cif.g08.bks.cpg/sg63_18_cif.got.tgz:35641.got - 2010.06.03 15:47:04.
