data_PCOD9473531
_publ_section_title
;
Structure prediction by ZEFSAII (Michael W. Deem and Ramdas Pophale) SiO2 
 PCOD9473531
Probable space group: C M C M
;
_chemical_formula_sum "Si O2"
_cell_formula_units_Z 80
_cell_length_a 8.463214
_cell_length_b 25.564760
_cell_length_c 18.978073
_cell_angle_alpha 90.000000
_cell_angle_beta 90.000000
_cell_angle_gamma 90.000000
_cell_volume 4106.096534
_symmetry_space_group_name_H-M "C M C M"
_symmetry_group_IT_number 63
_symmetry_cell_setting 'orthorhombic'
loop_
_space_group_symop_operation_xyz
x,y,z
-x,-y,1/2+z
x,-y,-z
-x,y,1/2-z
-x,-y,-z
x,y,1/2-z
-x,y,z
x,-y,1/2+z
1/2+x,1/2+y,z
1/2-x,1/2-y,1/2+z
1/2+x,1/2-y,-z
1/2-x,1/2+y,1/2-z
1/2-x,1/2-y,-z
1/2+x,1/2+y,1/2-z
1/2-x,1/2+y,z
1/2+x,1/2-y,1/2+z
loop_
_atom_site_type_symbol
_atom_site_label
_atom_site_fract_x
_atom_site_fract_y
_atom_site_fract_z
Si Si1 0.192581 0.321094 0.830225
Si Si2 0.188779 0.015650 0.669928
Si Si3 0.690817 0.920279 0.577077
Si Si4 0.310019 0.725711 0.926683
Si Si5 0.810556 0.391975 0.420011
O O1 0.247338 0.326520 0.750000
O O2 0.244401 0.369352 0.878969
O O3 0.238549 0.266390 0.865711
O O4 0.000000 0.322333 0.829616
O O5 0.246056 0.006574 0.750000
O O6 0.253159 0.971800 0.616954
O O7 0.000000 0.012964 0.670108
O O8 0.241562 0.071860 0.641051
O O9 0.500000 0.920445 0.576625
O O10 0.742817 0.914698 0.496148
O O11 0.500000 0.723257 0.928378
O O12 0.242520 0.668004 0.915948
O O13 0.250000 0.750000 0.000000
O O14 0.000000 0.394481 0.417831
#
# Coordination Sequence:
#
# PCOD9473531 Si02
#       5
#    16  16  16  16  16
#     4   9  18  34  58  87 118 154 196 241 294 353
#     4  11  25  42  59  86 123 160 199 245 301 361
#     4  10  20  38  63  89 117 153 200 249 297 358
#     4  11  21  37  60  88 122 161 201 245 296 354
#     4  11  23  40  63  91 118 154 205 251 299 362
#
# _framework density 19.483224
#
# number of rings (size 3 to 8) (size 9 to 14) (size 15 to 20)
#    0.000    1.600    2.000    3.000    0.000    7.200 
#    0.000    2.000    0.000    3.000    0.000    0.000 
#    0.000    0.000    0.000    0.000    0.000    0.000 
#
# Total GULP energy -223567.320498 kJ/mol
# GULP energy per Si atom -5589.183012 kJ/mol
# Density = 1.943888 g / cm^3
# Si number density = 19.483224 Si / 1000 Ang^3
#
#
#
# Elastic Constant Matrix: (Units=GPa)
#
#
# Indices 1 2 3 4 5 6 
#
# 1 12.1934 -5.2328 3.5330 0.0000 0.0000 0.0000
# 2 -5.2328 92.2864 -4.6085 0.0000 0.0000 0.0000
# 3 3.5330 -4.6085 42.1124 0.0000 0.0000 0.0000
# 4 0.0000 0.0000 0.0000 24.7143 0.0000 0.0000
# 5 0.0000 0.0000 0.0000 0.0000 22.0796 0.0000
# 6 0.0000 0.0000 0.0000 0.0000 0.0000 37.2970
#
#
#
# Elastic Compliance Matrix: (Units=1/GPa)
#
#
# Indices 1 2 3 4 5 6 
#
# 1 0.085903 0.004536 -0.006710 0.000000 0.000000 0.000000
# 2 0.004536 0.011135 0.000838 0.000000 0.000000 0.000000
# 3 -0.006710 0.000838 0.024401 0.000000 0.000000 0.000000
# 4 0.000000 0.000000 0.000000 0.040462 0.000000 0.000000
# 5 0.000000 0.000000 0.000000 0.000000 0.045291 0.000000
# 6 0.000000 0.000000 0.000000 0.000000 0.000000 0.026812
#
#
# Mechanical properties :
#
#
# Convention : Reuss Voigt Hill
#
# Bulk Modulus (GPa) = 8.42000 14.88617 11.65309
# Shear Modulus (GPa) = 18.09857 27.01155 22.55506
#
# Velocity S-wave (km/s) = 3.05114 3.72748 3.40614
# Velocity P-wave (km/s) = 4.09190 5.11689 4.63283
#
# Compressibility (1/GPa) = 0.11876486
#
# Stress axis : x y z
#
# Youngs Moduli (GPa) = 11.64107 89.80803 40.98247
#
# Poissons Ratio (x) = -0.40735 0.27501
# Poissons Ratio (y) = -0.05280 -0.03434
# Poissons Ratio (z) = 0.07812 -0.07526
#
# Static dielectric constant tensor:
#      x y z
#    x 1.672750 0.000000 0.000000 
#    y 0.000000 1.649880 0.000000 
#    z 0.000000 0.000000 1.673910 
# 
# From -- ./inp_files/40525.got.cif
#   From: 2010.05.17/outbox.cif.g08.bks.cpg/sg63_21_cif.got.tgz:40525.got - 2010.06.03 15:47:04.
