data_PCOD9473409
_publ_section_title
;
Structure prediction by ZEFSAII (Michael W. Deem and Ramdas Pophale) SiO2 
 PCOD9473409
Probable space group: C M C M
;
_chemical_formula_sum "Si O2"
_cell_formula_units_Z 96
_cell_length_a 17.183308
_cell_length_b 17.093923
_cell_length_c 14.525738
_cell_angle_alpha 90.000000
_cell_angle_beta 90.000000
_cell_angle_gamma 90.000000
_cell_volume 4266.647112
_symmetry_space_group_name_H-M "C M C M"
_symmetry_group_IT_number 63
_symmetry_cell_setting 'orthorhombic'
loop_
_space_group_symop_operation_xyz
x,y,z
-x,-y,1/2+z
x,-y,-z
-x,y,1/2-z
-x,-y,-z
x,y,1/2-z
-x,y,z
x,-y,1/2+z
1/2+x,1/2+y,z
1/2-x,1/2-y,1/2+z
1/2+x,1/2-y,-z
1/2-x,1/2+y,1/2-z
1/2-x,1/2-y,-z
1/2+x,1/2+y,1/2-z
1/2-x,1/2+y,z
1/2+x,1/2-y,1/2+z
loop_
_atom_site_type_symbol
_atom_site_label
_atom_site_fract_x
_atom_site_fract_y
_atom_site_fract_z
Si Si1 0.778762 0.722919 0.856880
Si Si2 0.914172 0.039357 0.138771
Si Si3 0.750000 0.601816 0.141587
Si Si4 0.917611 0.726652 0.998867
Si Si5 0.416035 0.056562 0.412954
Si Si6 0.375724 0.358727 0.357785
O O1 0.802912 0.724788 0.750000
O O2 0.737060 0.806117 0.878168
O O3 0.849775 0.720035 0.925304
O O4 0.717387 0.653001 0.868322
O O5 0.916242 0.052202 0.250000
O O6 0.903493 0.946426 0.125573
O O7 0.000000 0.063556 0.103083
O O8 0.834457 0.077890 0.100277
O O9 0.738081 0.596083 0.250000
O O10 0.827880 0.551652 0.124986
O O11 0.000000 0.735400 0.948581
O O12 0.919578 0.646027 0.054595
O O13 0.909766 0.797375 0.070564
O O14 0.500000 0.041641 0.362731
O O15 0.417267 0.000000 0.500000
O O16 0.393230 0.338927 0.250000
#
# Coordination Sequence:
#
# PCOD9473409 Si02
#       6
#    16  16  16  16  16  16
#     4  10  22  39  60  88 118 156 205 249 299 365
#     4   9  19  35  57  88 124 159 196 242 301 369
#     4  10  21  38  62  89 118 159 202 246 307 365
#     4  11  23  38  60  88 120 159 199 250 314 365
#     4  10  23  40  57  83 117 157 204 253 308 364
#     4  10  20  37  62  91 120 154 200 251 302 361
#
# _framework density 22.500101999999998
#
# number of rings (size 3 to 8) (size 9 to 14) (size 15 to 20)
#    0.000    2.000    1.667    1.000    2.333    2.333 
#    0.000    3.333    0.000    5.500    0.000    0.000 
#    0.000    0.000    0.000    0.000    0.000    0.000 
#
# Total GULP energy -267848.102131 kJ/mol
# GULP energy per Si atom -5580.168794 kJ/mol
# Density = 2.244889 g / cm^3
# Si number density = 22.500102 Si / 1000 Ang^3
#
#
#
# Elastic Constant Matrix: (Units=GPa)
#
#
# Indices 1 2 3 4 5 6 
#
# 1 194.6974 17.3940 30.7383 0.0000 0.0000 0.0000
# 2 17.3940 39.3510 2.2150 0.0000 0.0000 0.0000
# 3 30.7383 2.2150 29.8737 0.0000 0.0000 0.0000
# 4 0.0000 0.0000 0.0000 17.2244 0.0000 0.0000
# 5 0.0000 0.0000 0.0000 0.0000 20.1644 0.0000
# 6 0.0000 0.0000 0.0000 0.0000 0.0000 26.5501
#
#
#
# Elastic Compliance Matrix: (Units=1/GPa)
#
#
# Indices 1 2 3 4 5 6 
#
# 1 0.006360 -0.002453 -0.006362 0.000000 0.000000 0.000000
# 2 -0.002453 0.026465 0.000562 0.000000 0.000000 0.000000
# 3 -0.006362 0.000562 0.039979 0.000000 0.000000 0.000000
# 4 0.000000 0.000000 0.000000 0.058057 0.000000 0.000000
# 5 0.000000 0.000000 0.000000 0.000000 0.049592 0.000000
# 6 0.000000 0.000000 0.000000 0.000000 0.000000 0.037665
#
#
# Mechanical properties :
#
#
# Convention : Reuss Voigt Hill
#
# Bulk Modulus (GPa) = 17.76290 40.51297 29.13794
# Shear Modulus (GPa) = 19.73247 27.02611 23.37929
#
# Velocity S-wave (km/s) = 2.96462 3.46953 3.22697
# Velocity P-wave (km/s) = 4.43062 5.83909 5.18292
#
# Compressibility (1/GPa) = 0.05629711
#
# Stress axis : x y z
#
# Youngs Moduli (GPa) = 157.23934 37.78580 25.01331
#
# Poissons Ratio (x) = 0.09269 0.15913
# Poissons Ratio (y) = 0.38572 -0.01405
# Poissons Ratio (z) = 1.00035 -0.02123
#
# Static dielectric constant tensor:
#      x y z
#    x 1.954400 0.000000 0.000000 
#    y 0.000000 1.803710 0.000000 
#    z 0.000000 0.000000 1.832260 
# 
# From -- ./inp_files/31923.got.cif
#   From: 2010.05.17/outbox.cif.g08.bks.cpg/sg63_16_cif.got.tgz:31923.got - 2010.06.03 15:47:04.
