data_PCOD9473642
_publ_section_title
;
Structure prediction by ZEFSAII (Michael W. Deem and Ramdas Pophale) SiO2 
 PCOD9473642
Probable space group: C M C M
;
_chemical_formula_sum "Si O2"
_cell_formula_units_Z 64
_cell_length_a 10.580017
_cell_length_b 9.772121
_cell_length_c 32.806562
_cell_angle_alpha 90.000000
_cell_angle_beta 90.000000
_cell_angle_gamma 90.000000
_cell_volume 3391.844407
_symmetry_space_group_name_H-M "C M C M"
_symmetry_group_IT_number 63
_symmetry_cell_setting 'orthorhombic'
loop_
_space_group_symop_operation_xyz
x,y,z
-x,-y,1/2+z
x,-y,-z
-x,y,1/2-z
-x,-y,-z
x,y,1/2-z
-x,y,z
x,-y,1/2+z
1/2+x,1/2+y,z
1/2-x,1/2-y,1/2+z
1/2+x,1/2-y,-z
1/2-x,1/2+y,1/2-z
1/2-x,1/2-y,-z
1/2+x,1/2+y,1/2-z
1/2-x,1/2+y,z
1/2+x,1/2-y,1/2+z
loop_
_atom_site_type_symbol
_atom_site_label
_atom_site_fract_x
_atom_site_fract_y
_atom_site_fract_z
Si Si1 0.767820 0.245799 0.155483
Si Si2 0.752773 0.005292 0.595885
Si Si3 0.500000 0.868603 0.928143
Si Si4 0.000000 0.068107 0.543969
Si Si5 0.500000 0.819993 0.832022
Si Si6 0.500000 0.869680 0.201682
O O1 0.777363 0.099261 0.133351
O O2 0.772815 0.351415 0.117890
O O3 0.632776 0.249300 0.178552
O O4 0.878955 0.287748 0.185377
O O5 0.629639 0.955118 0.570662
O O6 0.875518 0.020089 0.568161
O O7 0.500000 0.734453 0.956190
O O8 0.500000 0.815210 0.881337
O O9 0.000000 0.000000 0.500000
O O10 0.500000 0.977484 0.817685
O O11 0.500000 0.882318 0.250000
#
# Coordination Sequence:
#
# PCOD9473642 Si02
#       6
#    16  16   8   8   8   8
#     4  11  20  41  70  91 120 170 218 247 309 382
#     4  11  20  41  70  90 122 170 213 256 301 386
#     4  10  20  40  62  92 125 158 222 247 304 376
#     4  12  25  40  62 100 133 158 205 276 320 356
#     4  10  20  40  67  88 126 165 213 255 306 371
#     4  12  25  40  62 100 131 156 205 272 316 356
#
# _framework density 18.868791999999999
#
# number of rings (size 3 to 8) (size 9 to 14) (size 15 to 20)
#    0.000    1.000   10.000    0.750    0.000    2.000 
#    0.000    0.625    0.000    0.000    0.000    0.000 
#    0.000    0.000    0.000    0.000    0.000    0.000 
#
# Total GULP energy -178596.893058 kJ/mol
# GULP energy per Si atom -5581.152908 kJ/mol
# Density = 1.882585 g / cm^3
# Si number density = 18.868792 Si / 1000 Ang^3
#
#
#
# Elastic Constant Matrix: (Units=GPa)
#
#
# Indices 1 2 3 4 5 6 
#
# 1 171.7606 21.5298 3.7770 0.0000 0.0000 0.0000
# 2 21.5298 33.3475 -22.3976 0.0000 0.0000 0.0000
# 3 3.7770 -22.3976 26.6637 0.0000 0.0000 0.0000
# 4 0.0000 0.0000 0.0000 12.4498 0.0000 0.0000
# 5 0.0000 0.0000 0.0000 0.0000 -0.2717 0.0000
# 6 0.0000 0.0000 0.0000 0.0000 0.0000 18.6547
#
#
#
# Elastic Compliance Matrix: (Units=1/GPa)
#
#
# Indices 1 2 3 4 5 6 
#
# 1 0.007738 -0.013152 -0.012143 0.000000 0.000000 0.000000
# 2 -0.013152 0.091161 0.078438 0.000000 0.000000 0.000000
# 3 -0.012143 0.078438 0.105112 0.000000 0.000000 0.000000
# 4 0.000000 0.000000 0.000000 0.080323 0.000000 0.000000
# 5 0.000000 0.000000 0.000000 0.000000 -3.679965 0.000000
# 6 0.000000 0.000000 0.000000 0.000000 0.000000 0.053606
#
#
# Mechanical properties :
#
#
# Convention : Reuss Voigt Hill
#
# Bulk Modulus (GPa) = 3.22272 26.39892 14.81082
# Shear Modulus (GPa) = -1.49482 21.42406 9.96462
#
# Velocity S-wave (km/s) = -0.89103 3.37326 2.30054
# Velocity P-wave (km/s) = 0.80814 5.40305 3.86304
#
# Compressibility (1/GPa) = 0.31029669
#
# Stress axis : x y z
#
# Youngs Moduli (GPa) = 129.23873 10.96965 9.51362
#
# Poissons Ratio (x) = 0.14427 0.11553
# Poissons Ratio (y) = 1.69970 -0.74623
# Poissons Ratio (z) = 1.56941 -0.86044
#
# Static dielectric constant tensor:
#      x y z
#    x 1.711060 0.000000 0.000000 
#    y 0.000000 1.654920 0.000000 
#    z 0.000000 0.000000 1.610090 
# 
# From -- ./inp_files/72402.got.cif
#   From: 2010.05.17/outbox.cif.g08.bks.cpg/sg63_37_cif.got.tgz:72402.got - 2010.06.03 15:47:04.
