data_PCOD9473532
_publ_section_title
;
Structure prediction by ZEFSAII (Michael W. Deem and Ramdas Pophale) SiO2 
 PCOD9473532
Probable space group: C M C M
;
_chemical_formula_sum "Si O2"
_cell_formula_units_Z 64
_cell_length_a 8.514064
_cell_length_b 14.788918
_cell_length_c 25.369150
_cell_angle_alpha 90.000000
_cell_angle_beta 90.000000
_cell_angle_gamma 90.000000
_cell_volume 3194.325936
_symmetry_space_group_name_H-M "C M C M"
_symmetry_group_IT_number 63
_symmetry_cell_setting 'orthorhombic'
loop_
_space_group_symop_operation_xyz
x,y,z
-x,-y,1/2+z
x,-y,-z
-x,y,1/2-z
-x,-y,-z
x,y,1/2-z
-x,y,z
x,-y,1/2+z
1/2+x,1/2+y,z
1/2-x,1/2-y,1/2+z
1/2+x,1/2-y,-z
1/2-x,1/2+y,1/2-z
1/2-x,1/2-y,-z
1/2+x,1/2+y,1/2-z
1/2-x,1/2+y,z
1/2+x,1/2-y,1/2+z
loop_
_atom_site_type_symbol
_atom_site_label
_atom_site_fract_x
_atom_site_fract_y
_atom_site_fract_z
Si Si1 0.820694 0.356283 0.750000
Si Si2 0.680494 0.635663 0.750000
Si Si3 0.313610 0.514328 0.439789
Si Si4 0.314621 0.865369 0.363124
Si Si5 0.188574 0.663080 0.136589
O O1 0.822093 0.245981 0.750000
O O2 0.751950 0.378626 0.692696
O O3 0.000000 0.390324 0.750000
O O4 0.500000 0.605242 0.750000
O O5 0.765556 0.608075 0.696370
O O6 0.262335 0.500000 0.500000
O O7 0.500000 0.531229 0.439614
O O8 0.274857 0.426506 0.405163
O O9 0.228995 0.597240 0.410907
O O10 0.500000 0.877141 0.369534
O O11 0.266294 0.760844 0.370146
O O12 0.000000 0.674839 0.141291
#
# Coordination Sequence:
#
# PCOD9473532 Si02
#       5
#     8   8  16  16  16
#     4   7  14  30  55  86 116 146 180 225 283 346
#     4   9  17  34  59  88 122 156 192 235 287 348
#     4  11  25  43  60  82 115 157 206 253 296 348
#     4  11  22  38  62  91 122 156 194 239 296 355
#     4  10  20  38  63  89 120 155 192 239 296 354
#
# _framework density 20.035526000000001
#
# number of rings (size 3 to 8) (size 9 to 14) (size 15 to 20)
#    0.000    2.000    0.000    5.625    0.000    4.000 
#    0.000    5.625    0.000    0.000    0.000    0.000 
#    0.000    0.000    0.000    0.000    0.000    0.000 
#
# Total GULP energy -178770.118994 kJ/mol
# GULP energy per Si atom -5586.566219 kJ/mol
# Density = 1.998992 g / cm^3
# Si number density = 20.035526 Si / 1000 Ang^3
#
#
#
# Elastic Constant Matrix: (Units=GPa)
#
#
# Indices 1 2 3 4 5 6 
#
# 1 30.9359 -19.8034 -6.3630 0.0000 0.0000 0.0000
# 2 -19.8034 54.5629 28.8482 0.0000 0.0000 0.0000
# 3 -6.3630 28.8482 148.2416 0.0000 0.0000 0.0000
# 4 0.0000 0.0000 0.0000 25.7098 0.0000 0.0000
# 5 0.0000 0.0000 0.0000 0.0000 28.6178 0.0000
# 6 0.0000 0.0000 0.0000 0.0000 0.0000 27.3800
#
#
#
# Elastic Compliance Matrix: (Units=1/GPa)
#
#
# Indices 1 2 3 4 5 6 
#
# 1 0.042334 0.016056 -0.001308 0.000000 0.000000 0.000000
# 2 0.016056 0.026519 -0.004472 0.000000 0.000000 0.000000
# 3 -0.001308 -0.004472 0.007560 0.000000 0.000000 0.000000
# 4 0.000000 0.000000 0.000000 0.038896 0.000000 0.000000
# 5 0.000000 0.000000 0.000000 0.000000 0.034943 0.000000
# 6 0.000000 0.000000 0.000000 0.000000 0.000000 0.036523
#
#
# Mechanical properties :
#
#
# Convention : Reuss Voigt Hill
#
# Bulk Modulus (GPa) = 10.31267 26.56712 18.43989
# Shear Modulus (GPa) = 25.18343 31.74544 28.46443
#
# Velocity S-wave (km/s) = 3.54918 3.98484 3.77330
# Velocity P-wave (km/s) = 4.68550 5.87033 5.31106
#
# Compressibility (1/GPa) = 0.09696814
#
# Stress axis : x y z
#
# Youngs Moduli (GPa) = 23.62149 37.70842 132.27868
#
# Poissons Ratio (x) = -0.60546 0.17295
# Poissons Ratio (y) = -0.37928 0.59149
# Poissons Ratio (z) = 0.03089 0.16861
#
# Static dielectric constant tensor:
#      x y z
#    x 1.675160 0.000000 0.000000 
#    y 0.000000 1.710510 0.000000 
#    z 0.000000 0.000000 1.707590 
# 
# From -- ./inp_files/59091.got.cif
#   From: 2010.05.17/outbox.cif.g08.bks.cpg/sg63_30_cif.got.tgz:59091.got - 2010.06.03 15:47:04.
