data_PCOD9473011
_publ_section_title
;
Structure prediction by ZEFSAII (Michael W. Deem and Ramdas Pophale) SiO2 
 PCOD9473011
Probable space group: C M C M
;
_chemical_formula_sum "Si O2"
_cell_formula_units_Z 116
_cell_length_a 8.049131
_cell_length_b 25.799548
_cell_length_c 30.707040
_cell_angle_alpha 90.000000
_cell_angle_beta 90.000000
_cell_angle_gamma 90.000000
_cell_volume 6376.744961
_symmetry_space_group_name_H-M "C M C M"
_symmetry_group_IT_number 63
_symmetry_cell_setting 'orthorhombic'
loop_
_space_group_symop_operation_xyz
x,y,z
-x,-y,1/2+z
x,-y,-z
-x,y,1/2-z
-x,-y,-z
x,y,1/2-z
-x,y,z
x,-y,1/2+z
1/2+x,1/2+y,z
1/2-x,1/2-y,1/2+z
1/2+x,1/2-y,-z
1/2-x,1/2+y,1/2-z
1/2-x,1/2-y,-z
1/2+x,1/2+y,1/2-z
1/2-x,1/2+y,z
1/2+x,1/2-y,1/2+z
loop_
_atom_site_type_symbol
_atom_site_label
_atom_site_fract_x
_atom_site_fract_y
_atom_site_fract_z
Si Si1 0.500000 0.233698 0.750000
Si Si2 0.306526 0.671290 0.050932
Si Si3 0.808366 0.369905 0.039779
Si Si4 0.697960 0.114194 0.201649
Si Si5 0.699288 0.236780 0.186046
Si Si6 0.300376 0.014935 0.548607
Si Si7 0.310183 0.725404 0.912344
Si Si8 0.803775 0.921857 0.890141
O O1 0.651999 0.236450 0.712830
O O2 0.500000 0.680591 0.061018
O O3 0.218222 0.726276 0.055569
O O4 0.233969 0.628853 0.084694
O O5 0.289280 0.647626 0.003089
O O6 0.749360 0.425685 0.056900
O O7 0.796458 0.324016 0.074464
O O8 0.000000 0.376211 0.025935
O O9 0.764943 0.101499 0.250000
O O10 0.500000 0.107670 0.202784
O O11 0.728885 0.175224 0.192967
O O12 0.761580 0.081835 0.160675
O O13 0.500000 0.246066 0.197378
O O14 0.718748 0.252702 0.135858
O O15 0.500000 0.013002 0.547663
O O16 0.239835 0.000000 0.500000
O O17 0.248228 0.973462 0.584583
O O18 0.500000 0.708121 0.915551
O O19 0.000000 0.918056 0.894728
#
# Coordination Sequence:
#
# PCOD9473011 Si02
#       8
#     4  16  16  16  16  16  16  16
#     4  12  22  32  64  82 120 160 186 256 288 354
#     4  11  22  35  54  82 118 155 194 235 288 345
#     4  11  23  38  58  81 110 152 201 244 287 349
#     4  10  20  36  56  82 117 152 188 238 292 353
#     4  10  22  36  55  87 119 156 197 236 296 360
#     4  10  21  39  60  81 109 151 197 239 290 346
#     4  11  23  38  56  81 120 157 192 238 288 351
#     4  11  23  34  56  88 117 149 191 242 291 348
#
# _framework density 18.191099999999999
#
# number of rings (size 3 to 8) (size 9 to 14) (size 15 to 20)
#    0.000    1.379    3.448    2.276    2.897    2.759 
#    0.000    0.000    0.000    0.000    1.793    0.000 
#    0.000    0.000    0.000    0.000    0.000    0.000 
#
# Total GULP energy -323134.734705 kJ/mol
# GULP energy per Si atom -5571.288529 kJ/mol
# Density = 1.814970 g / cm^3
# Si number density = 18.191100 Si / 1000 Ang^3
#
#
#
# Elastic Constant Matrix: (Units=GPa)
#
#
# Indices 1 2 3 4 5 6 
#
# 1 44.4088 8.0135 12.2932 0.0000 0.0000 0.0000
# 2 8.0135 101.6425 45.7845 0.0000 0.0000 0.0000
# 3 12.2932 45.7845 108.7923 0.0000 0.0000 0.0000
# 4 0.0000 0.0000 0.0000 -13.6821 0.0000 0.0000
# 5 0.0000 0.0000 0.0000 0.0000 37.0900 0.0000
# 6 0.0000 0.0000 0.0000 0.0000 0.0000 19.8346
#
#
#
# Elastic Compliance Matrix: (Units=1/GPa)
#
#
# Indices 1 2 3 4 5 6 
#
# 1 0.023298 -0.000803 -0.002295 0.000000 0.000000 0.000000
# 2 -0.000803 0.012167 -0.005030 0.000000 0.000000 0.000000
# 3 -0.002295 -0.005030 0.011568 0.000000 0.000000 0.000000
# 4 0.000000 0.000000 0.000000 -0.073088 0.000000 0.000000
# 5 0.000000 0.000000 0.000000 0.000000 0.026961 0.000000
# 6 0.000000 0.000000 0.000000 0.000000 0.000000 0.050417
#
#
# Mechanical properties :
#
#
# Convention : Reuss Voigt Hill
#
# Bulk Modulus (GPa) = 32.49053 43.00289 37.74671
# Shear Modulus (GPa) = 64.23572 21.23200 42.73386
#
# Velocity S-wave (km/s) = 5.94880 3.42008 4.85207
# Velocity P-wave (km/s) = 8.06745 6.26792 7.22394
#
# Compressibility (1/GPa) = 0.03077820
#
# Stress axis : x y z
#
# Youngs Moduli (GPa) = 42.92177 82.18691 86.44635
#
# Poissons Ratio (x) = 0.06602 0.19836
# Poissons Ratio (y) = 0.03448 0.43481
# Poissons Ratio (z) = 0.09849 0.41338
#
# Static dielectric constant tensor:
#      x y z
#    x 1.637470 0.000000 0.000000 
#    y 0.000000 1.617370 0.000000 
#    z 0.000000 0.000000 1.651540 
# 
# From -- ./inp_files/72131.got.cif
#   From: 2010.05.17/outbox.cif.g08.bks.cpg/sg63_37_cif.got.tgz:72131.got - 2010.06.03 15:47:04.
