data_PCOD9473734
_publ_section_title
;
Structure prediction by ZEFSAII (Michael W. Deem and Ramdas Pophale) SiO2 
 PCOD9473734
Probable space group: C M C M
;
_chemical_formula_sum "Si O2"
_cell_formula_units_Z 88
_cell_length_a 17.931839
_cell_length_b 14.210759
_cell_length_c 14.779264
_cell_angle_alpha 90.000000
_cell_angle_beta 90.000000
_cell_angle_gamma 90.000000
_cell_volume 3766.126576
_symmetry_space_group_name_H-M "C M C M"
_symmetry_group_IT_number 63
_symmetry_cell_setting 'orthorhombic'
loop_
_space_group_symop_operation_xyz
x,y,z
-x,-y,1/2+z
x,-y,-z
-x,y,1/2-z
-x,-y,-z
x,y,1/2-z
-x,y,z
x,-y,1/2+z
1/2+x,1/2+y,z
1/2-x,1/2-y,1/2+z
1/2+x,1/2-y,-z
1/2-x,1/2+y,1/2-z
1/2-x,1/2-y,-z
1/2+x,1/2+y,1/2-z
1/2-x,1/2+y,z
1/2+x,1/2-y,1/2+z
loop_
_atom_site_type_symbol
_atom_site_label
_atom_site_fract_x
_atom_site_fract_y
_atom_site_fract_z
Si Si1 0.918116 0.508035 0.358231
Si Si2 0.578773 0.310925 0.539802
Si Si3 0.218180 0.798944 0.850219
Si Si4 0.888337 0.269099 0.853435
Si Si5 0.639567 0.500000 0.500000
Si Si6 0.753801 0.523287 0.644712
O O1 0.918893 0.492759 0.250000
O O2 0.908538 0.620832 0.369500
O O3 0.839325 0.463028 0.388070
O O4 0.000000 0.478873 0.394059
O O5 0.500000 0.280104 0.581148
O O6 0.654076 0.269015 0.581559
O O7 0.576939 0.288589 0.434046
O O8 0.590063 0.422832 0.549930
O O9 0.189235 0.778724 0.750000
O O10 0.299297 0.755383 0.860369
O O11 0.236947 0.910551 0.854325
O O12 0.910038 0.246779 0.750000
O O13 0.693853 0.554121 0.570453
O O14 0.745674 0.554558 0.750000
#
# Coordination Sequence:
#
# PCOD9473734 Si02
#       6
#    16  16  16  16   8  16
#     4   8  13  24  45  71  93 109 134 183 241 286
#     4  11  21  31  46  68  95 126 158 193 229 264
#     4   8  16  32  51  68  87 115 153 192 230 277
#     4   9  17  30  49  73  97 117 141 181 237 294
#     4  10  21  34  43  58  90 130 170 196 213 252
#     4   8  15  29  47  63  83 117 155 188 225 270
#
# _framework density 23.366182999999999
#
# number of rings (size 3 to 8) (size 9 to 14) (size 15 to 20)
#    0.000    3.091    0.000    3.545    0.000    2.182 
#    0.000    0.455    0.000    3.273    0.000    1.273 
#    0.000    2.909    0.000    0.000    0.000    0.000 
#
# Total GULP energy -245504.017900 kJ/mol
# GULP energy per Si atom -5579.636770 kJ/mol
# Density = 2.331300 g / cm^3
# Si number density = 23.366183 Si / 1000 Ang^3
#
#
#
# Elastic Constant Matrix: (Units=GPa)
#
#
# Indices 1 2 3 4 5 6 
#
# 1 174.4351 -3.9067 49.3410 0.0000 0.0000 0.0000
# 2 -3.9067 43.2400 2.7258 0.0000 0.0000 0.0000
# 3 49.3410 2.7258 72.0551 0.0000 0.0000 0.0000
# 4 0.0000 0.0000 0.0000 14.7482 0.0000 0.0000
# 5 0.0000 0.0000 0.0000 0.0000 -65.8591 0.0000
# 6 0.0000 0.0000 0.0000 0.0000 0.0000 -32.5064
#
#
#
# Elastic Compliance Matrix: (Units=1/GPa)
#
#
# Indices 1 2 3 4 5 6 
#
# 1 0.007149 0.000957 -0.004932 0.000000 0.000000 0.000000
# 2 0.000957 0.023310 -0.001537 0.000000 0.000000 0.000000
# 3 -0.004932 -0.001537 0.017314 0.000000 0.000000 0.000000
# 4 0.000000 0.000000 0.000000 0.067805 0.000000 0.000000
# 5 0.000000 0.000000 0.000000 0.000000 -0.015184 0.000000
# 6 0.000000 0.000000 0.000000 0.000000 0.000000 -0.030763
#
#
# Mechanical properties :
#
#
# Convention : Reuss Voigt Hill
#
# Bulk Modulus (GPa) = 27.21166 42.89449 35.05308
# Shear Modulus (GPa) = 53.81891 -0.61879 26.60006
#
# Velocity S-wave (km/s) = 4.80446 -0.51517 3.37768
# Velocity P-wave (km/s) = 6.51522 4.24776 5.49962
#
# Compressibility (1/GPa) = 0.03674895
#
# Stress axis : x y z
#
# Youngs Moduli (GPa) = 139.87526 42.89988 57.75830
#
# Poissons Ratio (x) = -0.04105 0.28485
# Poissons Ratio (y) = -0.13384 0.08877
# Poissons Ratio (z) = 0.68983 0.06594
#
# Static dielectric constant tensor:
#      x y z
#    x 1.921400 0.000000 0.000000 
#    y 0.000000 1.905040 0.000000 
#    z 0.000000 0.000000 1.916900 
# 
# From -- ./inp_files/34138.got.cif
#   From: 2010.05.17/outbox.cif.g08.bks.cpg/sg63_18_cif.got.tgz:34138.got - 2010.06.03 15:47:04.
