data_PCOD9473492
_publ_section_title
;
Structure prediction by ZEFSAII (Michael W. Deem and Ramdas Pophale) SiO2 
 PCOD9473492
Probable space group: C M C M
;
_chemical_formula_sum "Si O2"
_cell_formula_units_Z 80
_cell_length_a 8.487364
_cell_length_b 23.691580
_cell_length_c 20.956737
_cell_angle_alpha 90.000000
_cell_angle_beta 90.000000
_cell_angle_gamma 90.000000
_cell_volume 4213.961044
_symmetry_space_group_name_H-M "C M C M"
_symmetry_group_IT_number 63
_symmetry_cell_setting 'orthorhombic'
loop_
_space_group_symop_operation_xyz
x,y,z
-x,-y,1/2+z
x,-y,-z
-x,y,1/2-z
-x,-y,-z
x,y,1/2-z
-x,y,z
x,-y,1/2+z
1/2+x,1/2+y,z
1/2-x,1/2-y,1/2+z
1/2+x,1/2-y,-z
1/2-x,1/2+y,1/2-z
1/2-x,1/2-y,-z
1/2+x,1/2+y,1/2-z
1/2-x,1/2+y,z
1/2+x,1/2-y,1/2+z
loop_
_atom_site_type_symbol
_atom_site_label
_atom_site_fract_x
_atom_site_fract_y
_atom_site_fract_z
Si Si1 0.310986 0.816811 0.750000
Si Si2 0.690896 0.617547 0.876479
Si Si3 0.810734 0.881146 0.625219
Si Si4 0.307862 0.314707 0.250000
Si Si5 0.811255 0.499125 0.574888
Si Si6 0.189651 0.813061 0.999438
O O1 0.500000 0.815750 0.750000
O O2 0.253029 0.850727 0.811910
O O3 0.256045 0.750980 0.750000
O O4 0.500000 0.614577 0.875606
O O5 0.741427 0.650381 0.812677
O O6 0.755297 0.555104 0.888523
O O7 0.741843 0.653961 0.937630
O O8 0.757046 0.845129 0.563889
O O9 0.000000 0.881380 0.627803
O O10 0.752756 0.944344 0.611474
O O11 0.500000 0.313359 0.250000
O O12 0.756662 0.500000 0.500000
O O13 0.000000 0.497169 0.573948
O O14 0.000000 0.812846 0.999539
O O15 0.250000 0.750000 0.000000
#
# Coordination Sequence:
#
# PCOD9473492 Si02
#       6
#     8  16  16   8  16  16
#     4  11  23  42  65  90 125 162 200 251 304 363
#     4  10  20  38  61  87 119 160 204 248 303 364
#     4  11  23  40  62  89 121 162 206 251 306 367
#     4   9  20  38  63  90 121 160 200 245 300 361
#     4  11  23  39  61  90 122 158 204 259 312 360
#     4  10  21  35  57  86 118 157 204 254 304 360
#
# _framework density 18.984513
#
# number of rings (size 3 to 8) (size 9 to 14) (size 15 to 20)
#    0.000    1.600    2.000    2.700    0.000    5.600 
#    0.000    5.500    0.000    0.000    0.000    0.000 
#    0.000    0.000    0.000    0.000    0.000    0.000 
#
# Total GULP energy -223487.938751 kJ/mol
# GULP energy per Si atom -5587.198469 kJ/mol
# Density = 1.894130 g / cm^3
# Si number density = 18.984513 Si / 1000 Ang^3
#
#
#
# Elastic Constant Matrix: (Units=GPa)
#
#
# Indices 1 2 3 4 5 6 
#
# 1 30.6991 37.2816 38.8254 0.0000 0.0000 0.0000
# 2 37.2816 233.8211 128.0574 0.0000 0.0000 0.0000
# 3 38.8254 128.0574 208.8956 0.0000 0.0000 0.0000
# 4 0.0000 0.0000 0.0000 47.1087 0.0000 0.0000
# 5 0.0000 0.0000 0.0000 0.0000 10.1895 0.0000
# 6 0.0000 0.0000 0.0000 0.0000 0.0000 34.5512
#
#
#
# Elastic Compliance Matrix: (Units=1/GPa)
#
#
# Indices 1 2 3 4 5 6 
#
# 1 0.044817 -0.003890 -0.005945 0.000000 0.000000 0.000000
# 2 -0.003890 0.006776 -0.003431 0.000000 0.000000 0.000000
# 3 -0.005945 -0.003431 0.007995 0.000000 0.000000 0.000000
# 4 0.000000 0.000000 0.000000 0.021227 0.000000 0.000000
# 5 0.000000 0.000000 0.000000 0.000000 0.098140 0.000000
# 6 0.000000 0.000000 0.000000 0.000000 0.000000 0.028943
#
#
# Mechanical properties :
#
#
# Convention : Reuss Voigt Hill
#
# Bulk Modulus (GPa) = 30.25119 97.97162 64.11141
# Shear Modulus (GPa) = 20.37084 36.31999 28.34541
#
# Velocity S-wave (km/s) = 3.27926 4.37869 3.86823
# Velocity P-wave (km/s) = 5.50521 8.79102 7.33448
#
# Compressibility (1/GPa) = 0.03305655
#
# Stress axis : x y z
#
# Youngs Moduli (GPa) = 22.31294 147.58034 125.07461
#
# Poissons Ratio (x) = 0.57407 0.74359
# Poissons Ratio (y) = 0.08679 0.42911
# Poissons Ratio (z) = 0.13265 0.50632
#
# Static dielectric constant tensor:
#      x y z
#    x 1.655010 0.000000 0.000000 
#    y 0.000000 1.637310 0.000000 
#    z 0.000000 0.000000 1.647130 
# 
# From -- ./inp_files/50971.got.cif
#   From: 2010.05.17/outbox.cif.g08.bks.cpg/sg63_26_cif.got.tgz:50971.got - 2010.06.03 15:47:04.
