data_PCOD9473495
_publ_section_title
;
Structure prediction by ZEFSAII (Michael W. Deem and Ramdas Pophale) SiO2 
 PCOD9473495
Probable space group: C M C M
;
_chemical_formula_sum "Si O2"
_cell_formula_units_Z 88
_cell_length_a 11.765552
_cell_length_b 13.494725
_cell_length_c 30.158125
_cell_angle_alpha 90.000000
_cell_angle_beta 90.000000
_cell_angle_gamma 90.000000
_cell_volume 4788.292624
_symmetry_space_group_name_H-M "C M C M"
_symmetry_group_IT_number 63
_symmetry_cell_setting 'orthorhombic'
loop_
_space_group_symop_operation_xyz
x,y,z
-x,-y,1/2+z
x,-y,-z
-x,y,1/2-z
-x,-y,-z
x,y,1/2-z
-x,y,z
x,-y,1/2+z
1/2+x,1/2+y,z
1/2-x,1/2-y,1/2+z
1/2+x,1/2-y,-z
1/2-x,1/2+y,1/2-z
1/2-x,1/2-y,-z
1/2+x,1/2+y,1/2-z
1/2-x,1/2+y,z
1/2+x,1/2-y,1/2+z
loop_
_atom_site_type_symbol
_atom_site_label
_atom_site_fract_x
_atom_site_fract_y
_atom_site_fract_z
Si Si1 0.136751 0.121512 0.624244
Si Si2 0.000000 0.424054 0.961287
Si Si3 0.230468 0.744977 0.698841
Si Si4 0.742245 0.598191 0.371002
Si Si5 0.000000 0.620713 0.702690
Si Si6 0.290904 0.776239 0.950445
Si Si7 0.500000 0.953585 0.868584
O O1 0.184634 0.183635 0.666525
O O2 0.170615 0.181898 0.579349
O O3 0.000000 0.113230 0.626258
O O4 0.196441 0.013358 0.624802
O O5 0.106423 0.351725 0.959355
O O6 0.000000 0.493171 0.918192
O O7 0.000000 0.500000 0.000000
O O8 0.269843 0.756922 0.750000
O O9 0.202664 0.847240 0.673507
O O10 0.112780 0.685327 0.699945
O O11 0.712756 0.661617 0.415350
O O12 0.880338 0.602670 0.365440
O O13 0.000000 0.567328 0.750000
O O14 0.000000 0.540764 0.665233
O O15 0.250000 0.750000 0.000000
#
# Coordination Sequence:
#
# PCOD9473495 Si02
#       7
#    16   8  16  16   8  16   8
#     4  11  23  43  62  89 129 163 204 256 311 370
#     4  10  22  36  61  88 114 149 205 253 297 356
#     4  10  23  40  62  92 124 163 207 252 305 364
#     4  10  23  39  63  87 120 161 205 253 305 365
#     4  10  20  38  61  89 121 152 202 256 294 357
#     4  10  23  41  60  87 119 157 203 252 305 364
#     4  10  20  40  62  84 113 157 209 251 298 357
#
# _framework density 18.378159
#
# number of rings (size 3 to 8) (size 9 to 14) (size 15 to 20)
#    0.000    1.818    2.727    0.000   10.182    1.818 
#    1.636    0.909    0.000    0.000    0.000    0.000 
#    0.000    0.000    0.000    0.000    0.000    0.000 
#
# Total GULP energy -245035.267255 kJ/mol
# GULP energy per Si atom -5568.983347 kJ/mol
# Density = 1.833633 g / cm^3
# Si number density = 18.378159 Si / 1000 Ang^3
#
#
#
# Elastic Constant Matrix: (Units=GPa)
#
#
# Indices 1 2 3 4 5 6 
#
# 1 69.0952 27.2738 45.2212 0.0000 0.0000 0.0000
# 2 27.2738 124.3604 85.8679 0.0000 0.0000 0.0000
# 3 45.2212 85.8679 203.0075 0.0000 0.0000 0.0000
# 4 0.0000 0.0000 0.0000 33.0767 0.0000 0.0000
# 5 0.0000 0.0000 0.0000 0.0000 15.8390 0.0000
# 6 0.0000 0.0000 0.0000 0.0000 0.0000 9.1826
#
#
#
# Elastic Compliance Matrix: (Units=1/GPa)
#
#
# Indices 1 2 3 4 5 6 
#
# 1 0.017162 -0.001588 -0.003151 0.000000 0.000000 0.000000
# 2 -0.001588 0.011505 -0.004513 0.000000 0.000000 0.000000
# 3 -0.003151 -0.004513 0.007537 0.000000 0.000000 0.000000
# 4 0.000000 0.000000 0.000000 0.030233 0.000000 0.000000
# 5 0.000000 0.000000 0.000000 0.000000 0.063135 0.000000
# 6 0.000000 0.000000 0.000000 0.000000 0.000000 0.108902
#
#
# Mechanical properties :
#
#
# Convention : Reuss Voigt Hill
#
# Bulk Modulus (GPa) = 56.49708 79.24323 67.87016
# Shear Modulus (GPa) = 19.02020 27.49301 23.25661
#
# Velocity S-wave (km/s) = 3.22053 3.87196 3.56117
# Velocity P-wave (km/s) = 6.68111 7.94992 7.34297
#
# Compressibility (1/GPa) = 0.01770003
#
# Stress axis : x y z
#
# Youngs Moduli (GPa) = 58.26817 86.91578 132.68378
#
# Poissons Ratio (x) = 0.13802 0.41812
# Poissons Ratio (y) = 0.09253 0.59878
# Poissons Ratio (z) = 0.18362 0.39223
#
# Static dielectric constant tensor:
#      x y z
#    x 1.638880 0.000000 0.000000 
#    y 0.000000 1.624340 0.000000 
#    z 0.000000 0.000000 1.650580 
# 
# From -- ./inp_files/72658.got.cif
#   From: 2010.05.17/outbox.cif.g08.bks.cpg/sg63_37_cif.got.tgz:72658.got - 2010.06.03 15:47:04.
