data_PCOD9473500
_publ_section_title
;
Structure prediction by ZEFSAII (Michael W. Deem and Ramdas Pophale) SiO2 
 PCOD9473500
Probable space group: C M C M
;
_chemical_formula_sum "Si O2"
_cell_formula_units_Z 112
_cell_length_a 14.190637
_cell_length_b 15.127540
_cell_length_c 26.140626
_cell_angle_alpha 90.000000
_cell_angle_beta 90.000000
_cell_angle_gamma 90.000000
_cell_volume 5611.593253
_symmetry_space_group_name_H-M "C M C M"
_symmetry_group_IT_number 63
_symmetry_cell_setting 'orthorhombic'
loop_
_space_group_symop_operation_xyz
x,y,z
-x,-y,1/2+z
x,-y,-z
-x,y,1/2-z
-x,-y,-z
x,y,1/2-z
-x,y,z
x,-y,1/2+z
1/2+x,1/2+y,z
1/2-x,1/2-y,1/2+z
1/2+x,1/2-y,-z
1/2-x,1/2+y,1/2-z
1/2-x,1/2-y,-z
1/2+x,1/2+y,1/2-z
1/2-x,1/2+y,z
1/2+x,1/2-y,1/2+z
loop_
_atom_site_type_symbol
_atom_site_label
_atom_site_fract_x
_atom_site_fract_y
_atom_site_fract_z
Si Si1 0.266087 0.019631 0.371454
Si Si2 0.887448 0.424897 0.961840
Si Si3 0.608381 0.569298 0.046895
Si Si4 0.500000 0.406680 0.311539
Si Si5 0.000000 0.883153 0.688019
Si Si6 0.204678 0.824771 0.810145
Si Si7 0.113915 0.776333 0.026123
Si Si8 0.310513 0.334395 0.135217
O O1 0.353490 0.052218 0.405061
O O2 0.177988 0.039481 0.409139
O O3 0.251038 0.080163 0.322190
O O4 0.261204 0.916356 0.360579
O O5 0.859340 0.326313 0.978393
O O6 0.000000 0.427475 0.963706
O O7 0.849066 0.500000 0.000000
O O8 0.500000 0.572112 0.064369
O O9 0.612478 0.500000 0.000000
O O10 0.634869 0.664115 0.023138
O O11 0.500000 0.396691 0.250000
O O12 0.500000 0.511884 0.323484
O O13 0.593568 0.362907 0.335563
O O14 0.903909 0.834954 0.671826
O O15 0.000000 0.880069 0.750000
O O16 0.206431 0.805497 0.750000
O O17 0.262601 0.751609 0.840728
O O18 0.162190 0.815858 0.076492
O O19 0.000000 0.781867 0.033477
#
# Coordination Sequence:
#
# PCOD9473500 Si02
#       8
#    16  16  16   8   8  16  16  16
#     4  12  24  38  66  96 123 171 216 271 323 391
#     4  10  23  43  62  83 123 173 219 261 313 389
#     4  10  21  34  58  97 136 160 195 258 329 394
#     4  11  22  38  68  99 128 166 219 276 332 389
#     4   9  20  42  68  90 126 170 210 270 332 384
#     4  11  25  44  65  95 132 170 216 273 333 390
#     4  10  20  38  61  91 127 163 201 257 322 386
#     4  12  23  38  64 100 129 167 216 270 327 395
#
# _framework density 19.958682
#
# number of rings (size 3 to 8) (size 9 to 14) (size 15 to 20)
#    0.000    1.286    5.000    0.857    2.000    2.286 
#    1.286    0.000    0.000    0.000    0.000    0.000 
#    0.000    0.000    0.000    0.000    0.000    0.000 
#
# Total GULP energy -313196.248426 kJ/mol
# GULP energy per Si atom -5592.790150 kJ/mol
# Density = 1.991326 g / cm^3
# Si number density = 19.958682 Si / 1000 Ang^3
#
#
#
# Elastic Constant Matrix: (Units=GPa)
#
#
# Indices 1 2 3 4 5 6 
#
# 1 57.6794 18.3902 -0.3615 0.0000 0.0000 0.0000
# 2 18.3902 108.6156 -0.7671 0.0000 0.0000 0.0000
# 3 -0.3615 -0.7671 44.1798 0.0000 0.0000 0.0000
# 4 0.0000 0.0000 0.0000 27.0612 0.0000 0.0000
# 5 0.0000 0.0000 0.0000 0.0000 21.9051 0.0000
# 6 0.0000 0.0000 0.0000 0.0000 0.0000 22.0740
#
#
#
# Elastic Compliance Matrix: (Units=1/GPa)
#
#
# Indices 1 2 3 4 5 6 
#
# 1 0.018327 -0.003102 0.000096 0.000000 0.000000 0.000000
# 2 -0.003102 0.009733 0.000144 0.000000 0.000000 0.000000
# 3 0.000096 0.000144 0.022638 0.000000 0.000000 0.000000
# 4 0.000000 0.000000 0.000000 0.036953 0.000000 0.000000
# 5 0.000000 0.000000 0.000000 0.000000 0.045651 0.000000
# 6 0.000000 0.000000 0.000000 0.000000 0.000000 0.045302
#
#
# Mechanical properties :
#
#
# Convention : Reuss Voigt Hill
#
# Bulk Modulus (GPa) = 22.23569 27.22202 24.72885
# Shear Modulus (GPa) = 25.08514 27.08894 26.08704
#
# Velocity S-wave (km/s) = 3.54906 3.68809 3.61924
# Velocity P-wave (km/s) = 5.28767 5.63957 5.46645
#
# Compressibility (1/GPa) = 0.04497275
#
# Stress axis : x y z
#
# Youngs Moduli (GPa) = 54.56448 102.74249 44.17343
#
# Poissons Ratio (x) = 0.31874 -0.00424
# Poissons Ratio (y) = 0.16928 -0.00634
# Poissons Ratio (z) = -0.00524 -0.01475
#
# Static dielectric constant tensor:
#      x y z
#    x 1.719670 0.000000 0.000000 
#    y 0.000000 1.703910 0.000000 
#    z 0.000000 0.000000 1.682940 
# 
# From -- ./inp_files/69456.got.cif
#   From: 2010.05.17/outbox.cif.g08.bks.cpg/sg63_35_cif.got.tgz:69456.got - 2010.06.03 15:47:04.
