data_PCOD9473605
_publ_section_title
;
Structure prediction by ZEFSAII (Michael W. Deem and Ramdas Pophale) SiO2 
 PCOD9473605
Probable space group: C M C M
;
_chemical_formula_sum "Si O2"
_cell_formula_units_Z 88
_cell_length_a 23.788556
_cell_length_b 5.812689
_cell_length_c 27.702800
_cell_angle_alpha 90.000000
_cell_angle_beta 90.000000
_cell_angle_gamma 90.000000
_cell_volume 3830.617906
_symmetry_space_group_name_H-M "C M C M"
_symmetry_group_IT_number 63
_symmetry_cell_setting 'orthorhombic'
loop_
_space_group_symop_operation_xyz
x,y,z
-x,-y,1/2+z
x,-y,-z
-x,y,1/2-z
-x,-y,-z
x,y,1/2-z
-x,y,z
x,-y,1/2+z
1/2+x,1/2+y,z
1/2-x,1/2-y,1/2+z
1/2+x,1/2-y,-z
1/2-x,1/2+y,1/2-z
1/2-x,1/2-y,-z
1/2+x,1/2+y,1/2-z
1/2-x,1/2+y,z
1/2+x,1/2-y,1/2+z
loop_
_atom_site_type_symbol
_atom_site_label
_atom_site_fract_x
_atom_site_fract_y
_atom_site_fract_z
Si Si1 0.000000 0.855862 0.048994
Si Si2 0.000000 0.387044 0.697562
Si Si3 0.500000 0.080656 0.909551
Si Si4 0.387313 0.408207 0.197078
Si Si5 0.271088 0.806838 0.692716
Si Si6 0.398771 0.591884 0.403452
Si Si7 0.774809 0.990154 0.557773
O O1 0.000000 0.589764 0.046210
O O2 0.944056 0.898845 0.080943
O O3 0.000000 0.000000 0.000000
O O4 0.054226 0.224060 0.697103
O O5 0.000000 0.514522 0.750000
O O6 0.000000 0.522709 0.647624
O O7 0.560938 0.198096 0.915627
O O8 0.377720 0.513934 0.250000
O O9 0.337790 0.225249 0.188360
O O10 0.386722 0.584742 0.153409
O O11 0.256418 0.810686 0.750000
O O12 0.247606 0.558386 0.673933
O O13 0.340065 0.556401 0.429843
O O14 0.742878 0.752016 0.574465
O O15 0.767224 0.000000 0.500000
#
# Coordination Sequence:
#
# PCOD9473605 Si02
#       7
#     8   8   8  16  16  16  16
#     4  11  24  46  68  97 134 171 226 292 364 421
#     4  10  20  39  65  93 137 185 229 284 345 417
#     4  11  24  42  68 102 134 179 236 288 350 425
#     4  10  21  39  63  92 134 179 226 283 344 414
#     4   9  19  36  57  85 122 167 221 275 327 387
#     4  11  24  41  68 101 135 183 229 294 349 424
#     4  10  24  46  72 105 142 186 235 290 359 430
#
# _framework density 22.972794
#
# number of rings (size 3 to 8) (size 9 to 14) (size 15 to 20)
#    0.000    1.818    1.818    1.091    2.545    5.091 
#    3.273    3.636    0.000    0.000    0.000    0.000 
#    0.000    0.000    0.000    0.000    0.000    0.000 
#
# Total GULP energy -245212.438441 kJ/mol
# GULP energy per Si atom -5573.009965 kJ/mol
# Density = 2.292051 g / cm^3
# Si number density = 22.972794 Si / 1000 Ang^3
#
#
#
# Elastic Constant Matrix: (Units=GPa)
#
#
# Indices 1 2 3 4 5 6 
#
# 1 144.0807 56.6375 11.3977 0.0000 0.0000 0.0000
# 2 56.6375 127.5090 65.9771 0.0000 0.0000 0.0000
# 3 11.3977 65.9771 81.4119 0.0000 0.0000 0.0000
# 4 0.0000 0.0000 0.0000 31.6856 0.0000 0.0000
# 5 0.0000 0.0000 0.0000 0.0000 61.2520 0.0000
# 6 0.0000 0.0000 0.0000 0.0000 0.0000 157.6051
#
#
#
# Elastic Compliance Matrix: (Units=1/GPa)
#
#
# Indices 1 2 3 4 5 6 
#
# 1 0.008917 -0.005709 0.003378 0.000000 0.000000 0.000000
# 2 -0.005709 0.017161 -0.013108 0.000000 0.000000 0.000000
# 3 0.003378 -0.013108 0.022433 0.000000 0.000000 0.000000
# 4 0.000000 0.000000 0.000000 0.031560 0.000000 0.000000
# 5 0.000000 0.000000 0.000000 0.000000 0.016326 0.000000
# 6 0.000000 0.000000 0.000000 0.000000 0.000000 0.006345
#
#
# Mechanical properties :
#
#
# Convention : Reuss Voigt Hill
#
# Bulk Modulus (GPa) = 56.70937 69.00292 62.85615
# Shear Modulus (GPa) = 35.84257 64.70783 50.27520
#
# Velocity S-wave (km/s) = 3.95424 5.31303 4.68318
# Velocity P-wave (km/s) = 6.75182 8.23042 7.52751
#
# Compressibility (1/GPa) = 0.01763377
#
# Stress axis : x y z
#
# Youngs Moduli (GPa) = 112.13908 58.27154 44.57652
#
# Poissons Ratio (x) = 0.33267 -0.15059
# Poissons Ratio (y) = 0.64020 0.58432
# Poissons Ratio (z) = -0.37883 0.76384
#
# Static dielectric constant tensor:
#      x y z
#    x 1.786570 0.000000 0.000000 
#    y 0.000000 1.975070 0.000000 
#    z 0.000000 0.000000 1.894330 
# 
# From -- ./inp_files/74259.got.cif
#   From: 2010.05.17/outbox.cif.g08.bks.cpg/sg63_38_cif.got.tgz:74259.got - 2010.06.03 15:47:04.
