data_PCOD9473120
_publ_section_title
;
Structure prediction by ZEFSAII (Michael W. Deem and Ramdas Pophale) SiO2 
 PCOD9473120
Probable space group: C M C M
;
_chemical_formula_sum "Si O2"
_cell_formula_units_Z 72
_cell_length_a 29.584059
_cell_length_b 14.233944
_cell_length_c 8.947167
_cell_angle_alpha 90.000000
_cell_angle_beta 90.000000
_cell_angle_gamma 90.000000
_cell_volume 3767.632690
_symmetry_space_group_name_H-M "C M C M"
_symmetry_group_IT_number 63
_symmetry_cell_setting 'orthorhombic'
loop_
_space_group_symop_operation_xyz
x,y,z
-x,-y,1/2+z
x,-y,-z
-x,y,1/2-z
-x,-y,-z
x,y,1/2-z
-x,y,z
x,-y,1/2+z
1/2+x,1/2+y,z
1/2-x,1/2-y,1/2+z
1/2+x,1/2-y,-z
1/2-x,1/2+y,1/2-z
1/2-x,1/2-y,-z
1/2+x,1/2+y,1/2-z
1/2-x,1/2+y,z
1/2+x,1/2-y,1/2+z
loop_
_atom_site_type_symbol
_atom_site_label
_atom_site_fract_x
_atom_site_fract_y
_atom_site_fract_z
Si Si1 0.085559 0.202832 0.570452
Si Si2 0.947481 0.595385 0.071727
Si Si3 0.273250 0.100315 0.071294
Si Si4 0.312584 0.696841 0.570413
Si Si5 0.500000 0.601789 0.427808
O O1 0.078934 0.192641 0.750000
O O2 0.080853 0.313086 0.534399
O O3 0.136002 0.170564 0.533029
O O4 0.045006 0.152621 0.486475
O O5 0.947611 0.585101 0.250000
O O6 0.000000 0.609586 0.024032
O O7 0.930351 0.500000 0.000000
O O8 0.273037 0.090266 0.250000
O O9 0.303495 0.192712 0.034069
O O10 0.223932 0.132415 0.011988
O O11 0.286150 0.000000 0.000000
O O12 0.306484 0.687808 0.750000
O O13 0.500000 0.500000 0.500000
O O14 0.500000 0.597692 0.250000
#
# Coordination Sequence:
#
# PCOD9473120 Si02
#       5
#    16  16  16  16   8
#     4  10  20  39  61  82 113 150 190 237 285 329
#     4   9  17  30  50  76 107 142 178 219 269 322
#     4  10  20  36  58  85 117 150 186 230 284 340
#     4   9  20  37  59  85 112 148 191 234 282 336
#     4  12  26  42  61  84 111 148 193 236 284 334
#
# _framework density 19.110143000000001
#
# number of rings (size 3 to 8) (size 9 to 14) (size 15 to 20)
#    0.000    2.222    1.111    1.667    0.000    4.444 
#    0.000    0.000    0.000    0.000    0.000    0.000 
#    0.000    0.000    0.000    0.000    0.000    0.000 
#
# Total GULP energy -200932.812053 kJ/mol
# GULP energy per Si atom -5581.467001 kJ/mol
# Density = 1.906665 g / cm^3
# Si number density = 19.110143 Si / 1000 Ang^3
#
#
#
# Elastic Constant Matrix: (Units=GPa)
#
#
# Indices 1 2 3 4 5 6 
#
# 1 94.5926 12.8564 37.1503 0.0000 0.0000 0.0000
# 2 12.8564 63.1488 25.3637 0.0000 0.0000 0.0000
# 3 37.1503 25.3637 39.2868 0.0000 0.0000 0.0000
# 4 0.0000 0.0000 0.0000 37.7257 0.0000 0.0000
# 5 0.0000 0.0000 0.0000 0.0000 18.9080 0.0000
# 6 0.0000 0.0000 0.0000 0.0000 0.0000 5.3958
#
#
#
# Elastic Compliance Matrix: (Units=1/GPa)
#
#
# Indices 1 2 3 4 5 6 
#
# 1 0.017601 0.004187 -0.019347 0.000000 0.000000 0.000000
# 2 0.004187 0.022376 -0.018405 0.000000 0.000000 0.000000
# 3 -0.019347 -0.018405 0.055632 0.000000 0.000000 0.000000
# 4 0.000000 0.000000 0.000000 0.026507 0.000000 0.000000
# 5 0.000000 0.000000 0.000000 0.000000 0.052888 0.000000
# 6 0.000000 0.000000 0.000000 0.000000 0.000000 0.185329
#
#
# Mechanical properties :
#
#
# Convention : Reuss Voigt Hill
#
# Bulk Modulus (GPa) = 35.11528 38.64100 36.87814
# Shear Modulus (GPa) = 11.44281 20.51641 15.97961
#
# Velocity S-wave (km/s) = 2.44966 3.28012 2.89482
# Velocity P-wave (km/s) = 5.13967 5.88299 5.52385
#
# Compressibility (1/GPa) = 0.02847763
#
# Stress axis : x y z
#
# Youngs Moduli (GPa) = 56.81517 44.69147 17.97541
#
# Poissons Ratio (x) = -0.18714 0.34777
# Poissons Ratio (y) = -0.23791 0.33085
# Poissons Ratio (z) = 1.09921 0.82257
#
# Static dielectric constant tensor:
#      x y z
#    x 1.698060 0.000000 0.000000 
#    y 0.000000 1.632510 0.000000 
#    z 0.000000 0.000000 1.636780 
# 
# From -- ./inp_files/13935.got.cif
#   From: 2010.05.17/outbox.cif.g08.bks.cpg/sg63_7_cif.got.tgz:13935.got - 2010.06.03 15:47:04.
