data_PCOD9473391
_publ_section_title
;
Structure prediction by ZEFSAII (Michael W. Deem and Ramdas Pophale) SiO2 
 PCOD9473391
Probable space group: C M C M
;
_chemical_formula_sum "Si O2"
_cell_formula_units_Z 72
_cell_length_a 19.639333
_cell_length_b 19.947324
_cell_length_c 9.212689
_cell_angle_alpha 90.000000
_cell_angle_beta 90.000000
_cell_angle_gamma 90.000000
_cell_volume 3609.090617
_symmetry_space_group_name_H-M "C M C M"
_symmetry_group_IT_number 63
_symmetry_cell_setting 'orthorhombic'
loop_
_space_group_symop_operation_xyz
x,y,z
-x,-y,1/2+z
x,-y,-z
-x,y,1/2-z
-x,-y,-z
x,y,1/2-z
-x,y,z
x,-y,1/2+z
1/2+x,1/2+y,z
1/2-x,1/2-y,1/2+z
1/2+x,1/2-y,-z
1/2-x,1/2+y,1/2-z
1/2-x,1/2-y,-z
1/2+x,1/2+y,1/2-z
1/2-x,1/2+y,z
1/2+x,1/2-y,1/2+z
loop_
_atom_site_type_symbol
_atom_site_label
_atom_site_fract_x
_atom_site_fract_y
_atom_site_fract_z
Si Si1 0.078238 0.299083 0.579848
Si Si2 0.699767 0.301063 0.078657
Si Si3 0.651968 0.427215 0.924443
Si Si4 0.000000 0.070672 0.421295
Si Si5 0.083170 0.433358 0.083338
O O1 0.078229 0.317914 0.750000
O O2 0.126682 0.235699 0.563466
O O3 0.103442 0.363669 0.491039
O O4 0.000000 0.284338 0.537373
O O5 0.714406 0.308201 0.250000
O O6 0.750000 0.250000 0.000000
O O7 0.699710 0.372238 0.998212
O O8 0.661159 0.432105 0.750000
O O9 0.574370 0.400617 0.954385
O O10 0.658788 0.500000 0.000000
O O11 0.000000 0.059136 0.250000
O O12 0.000000 0.000000 0.500000
O O13 0.104636 0.435470 0.250000
O O14 0.000000 0.434041 0.079199
O O15 0.106528 0.500000 0.000000
#
# Coordination Sequence:
#
# PCOD9473391 Si02
#       5
#    16  16  16   8  16
#     4   9  19  36  57  82 111 146 190 238 290 349
#     4  11  24  41  61  85 119 160 199 244 300 360
#     4  10  20  37  61  90 123 159 201 248 301 361
#     4   8  16  30  52  86 122 154 189 238 295 352
#     4   9  16  27  47  76 109 144 181 227 280 332
#
# _framework density 19.949624
#
# number of rings (size 3 to 8) (size 9 to 14) (size 15 to 20)
#    0.000    2.444    0.000    2.000    1.556    5.333 
#    0.000    1.111    0.000    5.333    0.000    0.000 
#    0.000    0.000    0.000    0.000    0.000    0.000 
#
# Total GULP energy -200784.958515 kJ/mol
# GULP energy per Si atom -5577.359959 kJ/mol
# Density = 1.990422 g / cm^3
# Si number density = 19.949624 Si / 1000 Ang^3
#
#
#
# Elastic Constant Matrix: (Units=GPa)
#
#
# Indices 1 2 3 4 5 6 
#
# 1 38.3682 32.5188 41.7274 0.0000 0.0000 0.0000
# 2 32.5188 130.5053 100.0566 0.0000 0.0000 0.0000
# 3 41.7274 100.0566 112.8687 0.0000 0.0000 0.0000
# 4 0.0000 0.0000 0.0000 36.1389 0.0000 0.0000
# 5 0.0000 0.0000 0.0000 0.0000 19.8919 0.0000
# 6 0.0000 0.0000 0.0000 0.0000 0.0000 24.9977
#
#
#
# Elastic Compliance Matrix: (Units=1/GPa)
#
#
# Indices 1 2 3 4 5 6 
#
# 1 0.044517 0.004762 -0.020679 0.000000 0.000000 0.000000
# 2 0.004762 0.024429 -0.023417 0.000000 0.000000 0.000000
# 3 -0.020679 -0.023417 0.037263 0.000000 0.000000 0.000000
# 4 0.000000 0.000000 0.000000 0.027671 0.000000 0.000000
# 5 0.000000 0.000000 0.000000 0.000000 0.050272 0.000000
# 6 0.000000 0.000000 0.000000 0.000000 0.000000 0.040004
#
#
# Mechanical properties :
#
#
# Convention : Reuss Voigt Hill
#
# Bulk Modulus (GPa) = 36.30851 70.03864 53.17357
# Shear Modulus (GPa) = 16.02542 23.36833 19.69688
#
# Velocity S-wave (km/s) = 2.83732 3.42624 3.14559
# Velocity P-wave (km/s) = 5.38270 7.12994 6.31702
#
# Compressibility (1/GPa) = 0.02754175
#
# Stress axis : x y z
#
# Youngs Moduli (GPa) = 22.46332 40.93478 26.83598
#
# Poissons Ratio (x) = -0.19493 0.55495
# Poissons Ratio (y) = -0.10697 0.62841
# Poissons Ratio (z) = 0.46452 0.95855
#
# Static dielectric constant tensor:
#      x y z
#    x 1.782300 0.000000 0.000000 
#    y 0.000000 1.663840 0.000000 
#    z 0.000000 0.000000 1.663410 
# 
# From -- ./inp_files/7842.got.cif
#   From: 2010.05.17/outbox.cif.g08.bks.cpg/sg63_4_cif.got.tgz:7842.got - 2010.06.03 15:47:04.
