data_PCOD9473665
_publ_section_title
;
Structure prediction by ZEFSAII (Michael W. Deem and Ramdas Pophale) SiO2 
 PCOD9473665
Probable space group: C M C M
;
_chemical_formula_sum "Si O2"
_cell_formula_units_Z 88
_cell_length_a 17.241106
_cell_length_b 9.213733
_cell_length_c 30.293733
_cell_angle_alpha 90.000000
_cell_angle_beta 90.000000
_cell_angle_gamma 90.000000
_cell_volume 4812.309359
_symmetry_space_group_name_H-M "C M C M"
_symmetry_group_IT_number 63
_symmetry_cell_setting 'orthorhombic'
loop_
_space_group_symop_operation_xyz
x,y,z
-x,-y,1/2+z
x,-y,-z
-x,y,1/2-z
-x,-y,-z
x,y,1/2-z
-x,y,z
x,-y,1/2+z
1/2+x,1/2+y,z
1/2-x,1/2-y,1/2+z
1/2+x,1/2-y,-z
1/2-x,1/2+y,1/2-z
1/2-x,1/2-y,-z
1/2+x,1/2+y,1/2-z
1/2-x,1/2+y,z
1/2+x,1/2-y,1/2+z
loop_
_atom_site_type_symbol
_atom_site_label
_atom_site_fract_x
_atom_site_fract_y
_atom_site_fract_z
Si Si1 0.589865 0.605675 0.629534
Si Si2 0.690451 0.254608 0.059869
Si Si3 0.348973 0.173688 0.300868
Si Si4 0.910623 0.356171 0.199726
Si Si5 0.300536 0.670842 0.139236
Si Si6 0.264939 0.000000 0.500000
O O1 0.500000 0.564794 0.627760
O O2 0.615242 0.707039 0.588556
O O3 0.608976 0.696515 0.673590
O O4 0.647824 0.469327 0.628935
O O5 0.760045 0.231594 0.095217
O O6 0.712951 0.389831 0.028860
O O7 0.686378 0.107346 0.031506
O O8 0.332913 0.210433 0.250000
O O9 0.269855 0.138525 0.327097
O O10 0.400643 0.029217 0.302246
O O11 0.888984 0.311552 0.250000
O O12 0.855328 0.284880 0.163876
O O13 0.000000 0.315759 0.192464
#
# Coordination Sequence:
#
# PCOD9473665 Si02
#       6
#    16  16  16  16  16   8
#     4  11  23  38  57  88 125 152 187 239 298 350
#     4  10  21  39  64  91 110 152 188 240 288 352
#     4  10  21  37  57  82 114 157 202 239 274 328
#     4  10  21  36  54  80 116 155 192 232 278 327
#     4  11  21  36  59  87 113 152 194 237 281 338
#     4  10  20  40  68  86 114 142 200 236 292 352
#
# _framework density 18.286439000000001
#
# number of rings (size 3 to 8) (size 9 to 14) (size 15 to 20)
#    0.000    1.636    1.818    3.818    2.545    4.000 
#    0.000    0.909    0.000    0.000    0.000    0.000 
#    0.000    0.000    0.000    0.000    0.000    0.000 
#
# Total GULP energy -245682.264611 kJ/mol
# GULP energy per Si atom -5583.687832 kJ/mol
# Density = 1.824482 g / cm^3
# Si number density = 18.286439 Si / 1000 Ang^3
#
#
#
# Elastic Constant Matrix: (Units=GPa)
#
#
# Indices 1 2 3 4 5 6 
#
# 1 84.6639 15.7784 33.7840 0.0000 0.0000 0.0000
# 2 15.7784 72.9246 38.5532 0.0000 0.0000 0.0000
# 3 33.7840 38.5532 111.4513 0.0000 0.0000 0.0000
# 4 0.0000 0.0000 0.0000 36.9101 0.0000 0.0000
# 5 0.0000 0.0000 0.0000 0.0000 6.4155 0.0000
# 6 0.0000 0.0000 0.0000 0.0000 0.0000 -8.5577
#
#
#
# Elastic Compliance Matrix: (Units=1/GPa)
#
#
# Indices 1 2 3 4 5 6 
#
# 1 0.013488 -0.000926 -0.003768 0.000000 0.000000 0.000000
# 2 -0.000926 0.016845 -0.005546 0.000000 0.000000 0.000000
# 3 -0.003768 -0.005546 0.012033 0.000000 0.000000 0.000000
# 4 0.000000 0.000000 0.000000 0.027093 0.000000 0.000000
# 5 0.000000 0.000000 0.000000 0.000000 0.155871 0.000000
# 6 0.000000 0.000000 0.000000 0.000000 0.000000 -0.116854
#
#
# Mechanical properties :
#
#
# Convention : Reuss Voigt Hill
#
# Bulk Modulus (GPa) = 45.69332 49.47456 47.58394
# Shear Modulus (GPa) = 36.69633 19.01519 27.85576
#
# Velocity S-wave (km/s) = 4.48454 3.22817 3.90718
# Velocity P-wave (km/s) = 7.20115 6.40382 6.81415
#
# Compressibility (1/GPa) = 0.02188503
#
# Stress axis : x y z
#
# Youngs Moduli (GPa) = 74.14203 59.36328 83.10232
#
# Poissons Ratio (x) = 0.05498 0.31314
# Poissons Ratio (y) = 0.06867 0.46092
# Poissons Ratio (z) = 0.27937 0.32925
#
# Static dielectric constant tensor:
#      x y z
#    x 1.602230 0.000000 0.000000 
#    y 0.000000 1.635510 0.000000 
#    z 0.000000 0.000000 1.636960 
# 
# From -- ./inp_files/73786.got.cif
#   From: 2010.05.17/outbox.cif.g08.bks.cpg/sg63_37_cif.got.tgz:73786.got - 2010.06.03 15:47:04.
