data_PCOD9473082
_publ_section_title
;
Structure prediction by ZEFSAII (Michael W. Deem and Ramdas Pophale) SiO2 
 PCOD9473082
Probable space group: C M C M
;
_chemical_formula_sum "Si O2"
_cell_formula_units_Z 80
_cell_length_a 7.389524
_cell_length_b 15.764151
_cell_length_c 28.891937
_cell_angle_alpha 90.000000
_cell_angle_beta 90.000000
_cell_angle_gamma 90.000000
_cell_volume 3365.609380
_symmetry_space_group_name_H-M "C M C M"
_symmetry_group_IT_number 63
_symmetry_cell_setting 'orthorhombic'
loop_
_space_group_symop_operation_xyz
x,y,z
-x,-y,1/2+z
x,-y,-z
-x,y,1/2-z
-x,-y,-z
x,y,1/2-z
-x,y,z
x,-y,1/2+z
1/2+x,1/2+y,z
1/2-x,1/2-y,1/2+z
1/2+x,1/2-y,-z
1/2-x,1/2+y,1/2-z
1/2-x,1/2-y,-z
1/2+x,1/2+y,1/2-z
1/2-x,1/2+y,z
1/2+x,1/2-y,1/2+z
loop_
_atom_site_type_symbol
_atom_site_label
_atom_site_fract_x
_atom_site_fract_y
_atom_site_fract_z
Si Si1 0.719777 0.616889 0.038811
Si Si2 0.781159 0.538040 0.198663
Si Si3 0.212546 0.808894 0.631451
Si Si4 0.781163 0.079205 0.939420
Si Si5 0.204605 0.637765 0.837579
O O1 0.500000 0.620394 0.038645
O O2 0.787177 0.677210 0.079773
O O3 0.765595 0.519779 0.052672
O O4 0.777778 0.628856 0.985801
O O5 0.725188 0.565026 0.250000
O O6 0.725318 0.604158 0.159615
O O7 0.786833 0.943173 0.187951
O O8 0.000000 0.535346 0.197166
O O9 0.290588 0.730852 0.660839
O O10 0.000000 0.789413 0.625842
O O11 0.702346 0.111871 0.891719
O O12 0.000000 0.083874 0.936065
O O13 0.000000 0.645665 0.818925
#
# Coordination Sequence:
#
# PCOD9473082 Si02
#       5
#    16  16  16  16  16
#     4   8  15  29  51  78 107 143 182 219 256 301
#     4  10  22  40  57  75 105 139 170 216 278 327
#     4  10  20  36  58  82 107 139 182 221 257 315
#     4   9  16  30  53  77 107 148 184 213 255 311
#     4  10  21  35  54  82 112 138 171 221 273 315
#
# _framework density 23.769842000000001
#
# number of rings (size 3 to 8) (size 9 to 14) (size 15 to 20)
#    0.000    2.600    2.000    1.200    0.000    2.800 
#    0.000    5.000    0.000    0.000    0.000    0.000 
#    0.000    0.000    0.000    0.000    0.000    0.000 
#
# Total GULP energy -223416.964552 kJ/mol
# GULP energy per Si atom -5585.424114 kJ/mol
# Density = 2.371574 g / cm^3
# Si number density = 23.769842 Si / 1000 Ang^3
#
#
#
# Elastic Constant Matrix: (Units=GPa)
#
#
# Indices 1 2 3 4 5 6 
#
# 1 86.9368 -4.9752 -11.1630 0.0000 0.0000 0.0000
# 2 -4.9752 58.8974 -7.6785 0.0000 0.0000 0.0000
# 3 -11.1630 -7.6785 68.7926 0.0000 0.0000 0.0000
# 4 0.0000 0.0000 0.0000 18.2235 0.0000 0.0000
# 5 0.0000 0.0000 0.0000 0.0000 -0.3027 0.0000
# 6 0.0000 0.0000 0.0000 0.0000 0.0000 -12.0492
#
#
#
# Elastic Compliance Matrix: (Units=1/GPa)
#
#
# Indices 1 2 3 4 5 6 
#
# 1 0.011840 0.001269 0.002063 0.000000 0.000000 0.000000
# 2 0.001269 0.017365 0.002144 0.000000 0.000000 0.000000
# 3 0.002063 0.002144 0.015111 0.000000 0.000000 0.000000
# 4 0.000000 0.000000 0.000000 0.054874 0.000000 0.000000
# 5 0.000000 0.000000 0.000000 0.000000 -3.303655 0.000000
# 6 0.000000 0.000000 0.000000 0.000000 0.000000 -0.082993
#
#
# Mechanical properties :
#
#
# Convention : Reuss Voigt Hill
#
# Bulk Modulus (GPa) = 18.09342 18.55482 18.32412
# Shear Modulus (GPa) = -1.52440 17.07056 7.77308
#
# Velocity S-wave (km/s) = -0.80169 2.68276 1.81032
# Velocity P-wave (km/s) = 2.60221 4.17364 3.47784
#
# Compressibility (1/GPa) = 0.05526871
#
# Stress axis : x y z
#
# Youngs Moduli (GPa) = 84.45856 57.58573 66.17893
#
# Poissons Ratio (x) = -0.07308 -0.13652
# Poissons Ratio (y) = -0.10719 -0.14190
# Poissons Ratio (z) = -0.17423 -0.12348
#
# Static dielectric constant tensor:
#      x y z
#    x 1.919410 0.000000 0.000000 
#    y 0.000000 1.927790 0.000000 
#    z 0.000000 0.000000 1.882870 
# 
# From -- ./inp_files/71769.got.cif
#   From: 2010.05.17/outbox.cif.g08.bks.cpg/sg63_36_cif.got.tgz:71769.got - 2010.06.03 15:47:04.
