data_PCOD9473888
_publ_section_title
;
Structure prediction by ZEFSAII (Michael W. Deem and Ramdas Pophale) SiO2 
 PCOD9473888
Probable space group: C M C M
;
_chemical_formula_sum "Si O2"
_cell_formula_units_Z 96
_cell_length_a 8.884838
_cell_length_b 20.742337
_cell_length_c 30.449912
_cell_angle_alpha 90.000000
_cell_angle_beta 90.000000
_cell_angle_gamma 90.000000
_cell_volume 5611.684439
_symmetry_space_group_name_H-M "C M C M"
_symmetry_group_IT_number 63
_symmetry_cell_setting 'orthorhombic'
loop_
_space_group_symop_operation_xyz
x,y,z
-x,-y,1/2+z
x,-y,-z
-x,y,1/2-z
-x,-y,-z
x,y,1/2-z
-x,y,z
x,-y,1/2+z
1/2+x,1/2+y,z
1/2-x,1/2-y,1/2+z
1/2+x,1/2-y,-z
1/2-x,1/2+y,1/2-z
1/2-x,1/2-y,-z
1/2+x,1/2+y,1/2-z
1/2-x,1/2+y,z
1/2+x,1/2-y,1/2+z
loop_
_atom_site_type_symbol
_atom_site_label
_atom_site_fract_x
_atom_site_fract_y
_atom_site_fract_z
Si Si1 0.181069 0.799288 0.864534
Si Si2 0.679798 0.944841 0.198707
Si Si3 0.683276 0.552670 0.465171
Si Si4 0.318563 0.448683 0.864236
Si Si5 0.179894 0.806760 0.301230
Si Si6 0.681399 0.699679 0.033727
O O1 0.219923 0.873944 0.854728
O O2 0.257864 0.749481 0.831934
O O3 0.222226 0.786559 0.915481
O O4 0.000000 0.793578 0.861114
O O5 0.718485 0.956352 0.250000
O O6 0.500000 0.941437 0.194998
O O7 0.750104 0.875816 0.186221
O O8 0.743510 0.001466 0.168625
O O9 0.736890 0.500000 0.500000
O O10 0.500000 0.552319 0.465862
O O11 0.726264 0.538164 0.414877
O O12 0.729221 0.625913 0.475973
O O13 0.500000 0.454354 0.861508
O O14 0.219805 0.794876 0.250000
O O15 0.000000 0.810323 0.304508
O O16 0.500000 0.701886 0.031058
O O17 0.750000 0.750000 0.000000
#
# Coordination Sequence:
#
# PCOD9473888 Si02
#       6
#    16  16  16  16  16  16
#     4   9  19  35  52  73 105 140 171 207 254 306
#     4  10  21  36  53  74 103 136 166 203 255 308
#     4   8  15  30  51  73  98 129 165 203 243 289
#     4   9  18  33  53  76 102 134 171 208 246 294
#     4  10  21  36  54  76 100 128 169 217 257 301
#     4   9  18  32  50  74 103 133 167 207 249 296
#
# _framework density 17.107163
#
# number of rings (size 3 to 8) (size 9 to 14) (size 15 to 20)
#    0.000    2.833    0.000    3.000    0.000    5.333 
#    0.000    7.500    0.000    1.000    0.000    0.000 
#    0.000    0.000    0.000    0.000    0.000    0.000 
#
# Total GULP energy -267662.976205 kJ/mol
# GULP energy per Si atom -5576.312004 kJ/mol
# Density = 1.706823 g / cm^3
# Si number density = 17.107163 Si / 1000 Ang^3
#
#
#
# Elastic Constant Matrix: (Units=GPa)
#
#
# Indices 1 2 3 4 5 6 
#
# 1 27.9918 53.7334 45.5632 0.0000 0.0000 0.0000
# 2 53.7334 167.9281 128.0676 0.0000 0.0000 0.0000
# 3 45.5632 128.0676 118.4004 0.0000 0.0000 0.0000
# 4 0.0000 0.0000 0.0000 42.9600 0.0000 0.0000
# 5 0.0000 0.0000 0.0000 0.0000 29.4746 0.0000
# 6 0.0000 0.0000 0.0000 0.0000 0.0000 32.5329
#
#
#
# Elastic Compliance Matrix: (Units=1/GPa)
#
#
# Indices 1 2 3 4 5 6 
#
# 1 0.102202 -0.015468 -0.022599 0.000000 0.000000 0.000000
# 2 -0.015468 0.036350 -0.033365 0.000000 0.000000 0.000000
# 3 -0.022599 -0.033365 0.053232 0.000000 0.000000 0.000000
# 4 0.000000 0.000000 0.000000 0.023277 0.000000 0.000000
# 5 0.000000 0.000000 0.000000 0.000000 0.033928 0.000000
# 6 0.000000 0.000000 0.000000 0.000000 0.000000 0.030738
#
#
# Mechanical properties :
#
#
# Convention : Reuss Voigt Hill
#
# Bulk Modulus (GPa) = 20.44162 85.44983 52.94573
# Shear Modulus (GPa) = 11.39215 26.79057 19.09136
#
# Velocity S-wave (km/s) = 2.58336 3.96162 3.34426
# Velocity P-wave (km/s) = 4.56874 8.42521 6.77708
#
# Compressibility (1/GPa) = 0.04891979
#
# Stress axis : x y z
#
# Youngs Moduli (GPa) = 9.78452 27.51044 18.78559
#
# Poissons Ratio (x) = 0.42552 0.42454
# Poissons Ratio (y) = 0.15134 0.62679
# Poissons Ratio (z) = 0.22112 0.91790
#
# Static dielectric constant tensor:
#      x y z
#    x 1.574500 0.000000 0.000000 
#    y 0.000000 1.555950 0.000000 
#    z 0.000000 0.000000 1.566360 
# 
# From -- ./inp_files/66958.got.cif
#   From: 2010.05.17/outbox.cif.g08.bks.cpg/sg63_34_cif.got.tgz:66958.got - 2010.06.03 15:47:04.
