data_PCOD9473838
_publ_section_title
;
Structure prediction by ZEFSAII (Michael W. Deem and Ramdas Pophale) SiO2 
 PCOD9473838
Probable space group: C M C M
;
_chemical_formula_sum "Si O2"
_cell_formula_units_Z 112
_cell_length_a 14.255291
_cell_length_b 23.292989
_cell_length_c 17.211808
_cell_angle_alpha 90.000000
_cell_angle_beta 90.000000
_cell_angle_gamma 90.000000
_cell_volume 5715.152214
_symmetry_space_group_name_H-M "C M C M"
_symmetry_group_IT_number 63
_symmetry_cell_setting 'orthorhombic'
loop_
_space_group_symop_operation_xyz
x,y,z
-x,-y,1/2+z
x,-y,-z
-x,y,1/2-z
-x,-y,-z
x,y,1/2-z
-x,y,z
x,-y,1/2+z
1/2+x,1/2+y,z
1/2-x,1/2-y,1/2+z
1/2+x,1/2-y,-z
1/2-x,1/2+y,1/2-z
1/2-x,1/2-y,-z
1/2+x,1/2+y,1/2-z
1/2-x,1/2+y,z
1/2+x,1/2-y,1/2+z
loop_
_atom_site_type_symbol
_atom_site_label
_atom_site_fract_x
_atom_site_fract_y
_atom_site_fract_z
Si Si1 0.392954 0.725700 0.566896
Si Si2 0.811407 0.763093 0.893399
Si Si3 0.141760 0.638737 0.837783
Si Si4 0.604375 0.378476 0.841321
Si Si5 0.197986 0.006940 0.156192
Si Si6 0.363024 0.613390 0.661135
Si Si7 0.398532 0.022576 0.911759
O O1 0.500000 0.749877 0.571674
O O2 0.302050 0.755051 0.608696
O O3 0.354139 0.726256 0.479136
O O4 0.398842 0.661983 0.603411
O O5 0.861176 0.705184 0.862286
O O6 0.839382 0.819899 0.848404
O O7 0.104964 0.630375 0.750000
O O8 0.251947 0.624963 0.834615
O O9 0.103195 0.591730 0.898170
O O10 0.595264 0.390774 0.750000
O O11 0.500000 0.371499 0.874685
O O12 0.657201 0.433541 0.875093
O O13 0.198679 0.005706 0.250000
O O14 0.133207 0.952471 0.133443
O O15 0.305027 0.999414 0.129659
O O16 0.398298 0.619116 0.750000
O O17 0.500000 0.002768 0.880070
O O18 0.393640 0.000000 0.000000
#
# Coordination Sequence:
#
# PCOD9473838 Si02
#       7
#    16  16  16  16  16  16  16
#     4  10  21  35  54  81 111 146 185 227 282 341
#     4  10  21  38  57  80 115 149 184 235 282 328
#     4   9  18  35  59  82 105 142 191 235 276 325
#     4  10  21  37  57  80 107 143 186 231 282 338
#     4   9  19  36  57  81 110 145 188 235 280 331
#     4   8  16  33  55  78 105 138 179 229 279 329
#     4  10  21  35  54  83 117 150 184 227 282 337
#
# _framework density 19.597028999999999
#
# number of rings (size 3 to 8) (size 9 to 14) (size 15 to 20)
#    0.000    2.571    0.000    2.143    0.000    8.286 
#    0.000    3.571    0.000    3.000    0.000    0.000 
#    0.000    0.000    0.000    0.000    0.000    0.000 
#
# Total GULP energy -311751.075586 kJ/mol
# GULP energy per Si atom -5566.983493 kJ/mol
# Density = 1.955243 g / cm^3
# Si number density = 19.597029 Si / 1000 Ang^3
#
#
#
# Elastic Constant Matrix: (Units=GPa)
#
#
# Indices 1 2 3 4 5 6 
#
# 1 149.1752 55.3478 16.6231 0.0000 0.0000 0.0000
# 2 55.3478 151.1761 42.0399 0.0000 0.0000 0.0000
# 3 16.6231 42.0399 47.9828 0.0000 0.0000 0.0000
# 4 0.0000 0.0000 0.0000 24.4771 0.0000 0.0000
# 5 0.0000 0.0000 0.0000 0.0000 40.5137 0.0000
# 6 0.0000 0.0000 0.0000 0.0000 0.0000 9.3373
#
#
#
# Elastic Compliance Matrix: (Units=1/GPa)
#
#
# Indices 1 2 3 4 5 6 
#
# 1 0.007760 -0.002768 -0.000263 0.000000 0.000000 0.000000
# 2 -0.002768 0.009733 -0.007569 0.000000 0.000000 0.000000
# 3 -0.000263 -0.007569 0.027563 0.000000 0.000000 0.000000
# 4 0.000000 0.000000 0.000000 0.040855 0.000000 0.000000
# 5 0.000000 0.000000 0.000000 0.000000 0.024683 0.000000
# 6 0.000000 0.000000 0.000000 0.000000 0.000000 0.107097
#
#
# Mechanical properties :
#
#
# Convention : Reuss Voigt Hill
#
# Bulk Modulus (GPa) = 41.91717 64.03950 52.97834
# Shear Modulus (GPa) = 20.25591 30.48718 25.37154
#
# Velocity S-wave (km/s) = 3.21849 3.94852 3.60205
# Velocity P-wave (km/s) = 5.93696 7.31689 6.66275
#
# Compressibility (1/GPa) = 0.02385657
#
# Stress axis : x y z
#
# Youngs Moduli (GPa) = 128.86977 102.74533 36.28030
#
# Poissons Ratio (x) = 0.28437 0.00955
# Poissons Ratio (y) = 0.35668 0.27459
# Poissons Ratio (z) = 0.03394 0.77763
#
# Static dielectric constant tensor:
#      x y z
#    x 1.719510 0.000000 0.000000 
#    y 0.000000 1.708210 0.000000 
#    z 0.000000 0.000000 1.768870 
# 
# From -- ./inp_files/32265.got.cif
#   From: 2010.05.17/outbox.cif.g08.bks.cpg/sg63_17_cif.got.tgz:32265.got - 2010.06.03 15:47:04.
