data_PCOD9473661
_publ_section_title
;
Structure prediction by ZEFSAII (Michael W. Deem and Ramdas Pophale) SiO2 
 PCOD9473661
Probable space group: C M C M
;
_chemical_formula_sum "Si O2"
_cell_formula_units_Z 60
_cell_length_a 24.343920
_cell_length_b 7.817657
_cell_length_c 14.451980
_cell_angle_alpha 90.000000
_cell_angle_beta 90.000000
_cell_angle_gamma 90.000000
_cell_volume 2750.391238
_symmetry_space_group_name_H-M "C M C M"
_symmetry_group_IT_number 63
_symmetry_cell_setting 'orthorhombic'
loop_
_space_group_symop_operation_xyz
x,y,z
-x,-y,1/2+z
x,-y,-z
-x,y,1/2-z
-x,-y,-z
x,y,1/2-z
-x,y,z
x,-y,1/2+z
1/2+x,1/2+y,z
1/2-x,1/2-y,1/2+z
1/2+x,1/2-y,-z
1/2-x,1/2+y,1/2-z
1/2-x,1/2-y,-z
1/2+x,1/2+y,1/2-z
1/2-x,1/2+y,z
1/2+x,1/2-y,1/2+z
loop_
_atom_site_type_symbol
_atom_site_label
_atom_site_fract_x
_atom_site_fract_y
_atom_site_fract_z
Si Si1 0.077990 0.350688 0.572643
Si Si2 0.314708 0.648364 0.358137
Si Si3 0.598330 0.500000 0.000000
Si Si4 0.192779 0.444061 0.858026
Si Si5 0.500000 0.889287 0.750000
O O1 0.065312 0.500000 0.500000
O O2 0.143911 0.352080 0.588714
O O3 0.047553 0.386061 0.668292
O O4 0.064624 0.163813 0.533657
O O5 0.319102 0.597136 0.250000
O O6 0.362462 0.563889 0.417140
O O7 0.254024 0.595554 0.391912
O O8 0.318193 0.853529 0.362789
O O9 0.191431 0.391059 0.750000
#
# Coordination Sequence:
#
# PCOD9473661 Si02
#       5
#    16  16   8  16   4
#     4  12  26  49  74 107 136 185 240 296 356 417
#     4  10  22  37  63 109 149 189 228 277 340 434
#     4  12  26  41  74 106 146 183 232 284 354 434
#     4  10  20  40  67 101 148 190 228 277 350 417
#     4  12  30  54  82  96 138 182 240 314 368 406
#
# _framework density 21.815078
#
# number of rings (size 3 to 8) (size 9 to 14) (size 15 to 20)
#    0.000    1.067    4.000    2.000    3.733    4.800 
#    0.000    1.333    0.000    0.000    0.000    0.000 
#    0.000    0.000    0.000    0.000    0.000    0.000 
#
# Total GULP energy -167483.732101 kJ/mol
# GULP energy per Si atom -5582.791070 kJ/mol
# Density = 2.176543 g / cm^3
# Si number density = 21.815078 Si / 1000 Ang^3
#
#
#
# Elastic Constant Matrix: (Units=GPa)
#
#
# Indices 1 2 3 4 5 6 
#
# 1 90.6399 8.8960 47.6892 0.0000 0.0000 0.0000
# 2 8.8960 110.5476 48.7928 0.0000 0.0000 0.0000
# 3 47.6892 48.7928 151.1113 0.0000 0.0000 0.0000
# 4 0.0000 0.0000 0.0000 21.6305 0.0000 0.0000
# 5 0.0000 0.0000 0.0000 0.0000 212.1831 0.0000
# 6 0.0000 0.0000 0.0000 0.0000 0.0000 -29.7062
#
#
#
# Elastic Compliance Matrix: (Units=1/GPa)
#
#
# Indices 1 2 3 4 5 6 
#
# 1 0.013308 0.000913 -0.004495 0.000000 0.000000 0.000000
# 2 0.000913 0.010612 -0.003715 0.000000 0.000000 0.000000
# 3 -0.004495 -0.003715 0.009236 0.000000 0.000000 0.000000
# 4 0.000000 0.000000 0.000000 0.046231 0.000000 0.000000
# 5 0.000000 0.000000 0.000000 0.000000 0.004713 0.000000
# 6 0.000000 0.000000 0.000000 0.000000 0.000000 -0.033663
#
#
# Mechanical properties :
#
#
# Convention : Reuss Voigt Hill
#
# Bulk Modulus (GPa) = 53.87160 62.56164 58.21662
# Shear Modulus (GPa) = 70.20861 57.28289 63.74575
#
# Velocity S-wave (km/s) = 5.67921 5.12985 5.41151
# Velocity P-wave (km/s) = 8.23121 7.98922 8.11112
#
# Compressibility (1/GPa) = 0.01856266
#
# Stress axis : x y z
#
# Youngs Moduli (GPa) = 75.14368 94.23332 108.27772
#
# Poissons Ratio (x) = -0.08602 0.48666
# Poissons Ratio (y) = -0.06860 0.40221
# Poissons Ratio (z) = 0.33774 0.35004
#
# Static dielectric constant tensor:
#      x y z
#    x 1.773700 0.000000 0.000000 
#    y 0.000000 1.795850 0.000000 
#    z 0.000000 0.000000 1.785740 
# 
# From -- ./inp_files/36118.got.cif
#   From: 2010.05.17/outbox.cif.g08.bks.cpg/sg63_19_cif.got.tgz:36118.got - 2010.06.03 15:47:04.
