data_PCOD9473089
_publ_section_title
;
Structure prediction by ZEFSAII (Michael W. Deem and Ramdas Pophale) SiO2 
 PCOD9473089
Probable space group: C M C M
;
_chemical_formula_sum "Si O2"
_cell_formula_units_Z 96
_cell_length_a 30.790517
_cell_length_b 19.839139
_cell_length_c 7.791227
_cell_angle_alpha 90.000000
_cell_angle_beta 90.000000
_cell_angle_gamma 90.000000
_cell_volume 4759.328252
_symmetry_space_group_name_H-M "C M C M"
_symmetry_group_IT_number 63
_symmetry_cell_setting 'orthorhombic'
loop_
_space_group_symop_operation_xyz
x,y,z
-x,-y,1/2+z
x,-y,-z
-x,y,1/2-z
-x,-y,-z
x,y,1/2-z
-x,y,z
x,-y,1/2+z
1/2+x,1/2+y,z
1/2-x,1/2-y,1/2+z
1/2+x,1/2-y,-z
1/2-x,1/2+y,1/2-z
1/2-x,1/2-y,-z
1/2+x,1/2+y,1/2-z
1/2-x,1/2+y,z
1/2+x,1/2-y,1/2+z
loop_
_atom_site_type_symbol
_atom_site_label
_atom_site_fract_x
_atom_site_fract_y
_atom_site_fract_z
Si Si1 0.873120 0.676193 0.544528
Si Si2 0.800891 0.921462 0.956513
Si Si3 0.049323 0.421334 0.456894
Si Si4 0.548577 0.428447 0.955924
Si Si5 0.119260 0.828213 0.539369
Si Si6 0.772603 0.322275 0.545054
O O1 0.878648 0.677280 0.750000
O O2 0.910182 0.624409 0.479562
O O3 0.880037 0.752033 0.477857
O O4 0.821908 0.664982 0.513365
O O5 0.801121 0.917769 0.750000
O O6 0.840828 0.875011 0.016822
O O7 0.757881 0.883022 0.019366
O O8 0.803887 0.000000 0.000000
O O9 0.056322 0.500000 0.500000
O O10 0.048499 0.415675 0.250000
O O11 0.000000 0.403002 0.517546
O O12 0.546356 0.424769 0.750000
O O13 0.500000 0.428521 0.027372
O O14 0.576173 0.366192 0.017029
O O15 0.569825 0.500000 0.000000
O O16 0.120500 0.826631 0.750000
O O17 0.773171 0.323817 0.750000
O O18 0.750000 0.250000 0.500000
#
# Coordination Sequence:
#
# PCOD9473089 Si02
#       6
#    16  16  16  16  16  16
#     4  10  20  36  58  82 111 144 183 229 277 332
#     4  10  21  36  54  77 105 139 178 221 268 321
#     4   9  19  36  59  85 114 151 191 235 289 346
#     4   9  17  29  47  70  97 132 170 210 255 302
#     4   9  17  32  51  73 104 136 171 217 264 313
#     4  11  22  38  58  80 110 147 187 230 283 337
#
# _framework density 20.170915000000001
#
# number of rings (size 3 to 8) (size 9 to 14) (size 15 to 20)
#    0.000    2.333    1.667    1.000    0.000    3.333 
#    0.000    7.500    0.000    0.000    0.000    4.667 
#    0.000    0.000    0.000    0.000    0.000    0.000 
#
# Total GULP energy -267631.201564 kJ/mol
# GULP energy per Si atom -5575.650033 kJ/mol
# Density = 2.012500 g / cm^3
# Si number density = 20.170915 Si / 1000 Ang^3
#
#
#
# Elastic Constant Matrix: (Units=GPa)
#
#
# Indices 1 2 3 4 5 6 
#
# 1 167.4194 110.9492 7.1776 0.0000 0.0000 0.0000
# 2 110.9492 161.5816 6.4003 0.0000 0.0000 0.0000
# 3 7.1776 6.4003 26.7100 0.0000 0.0000 0.0000
# 4 0.0000 0.0000 0.0000 24.3933 0.0000 0.0000
# 5 0.0000 0.0000 0.0000 0.0000 19.3864 0.0000
# 6 0.0000 0.0000 0.0000 0.0000 0.0000 47.0280
#
#
#
# Elastic Compliance Matrix: (Units=1/GPa)
#
#
# Indices 1 2 3 4 5 6 
#
# 1 0.010996 -0.007504 -0.001157 0.000000 0.000000 0.000000
# 2 -0.007504 0.011370 -0.000708 0.000000 0.000000 0.000000
# 3 -0.001157 -0.000708 0.037920 0.000000 0.000000 0.000000
# 4 0.000000 0.000000 0.000000 0.040995 0.000000 0.000000
# 5 0.000000 0.000000 0.000000 0.000000 0.051583 0.000000
# 6 0.000000 0.000000 0.000000 0.000000 0.000000 0.021264
#
#
# Mechanical properties :
#
#
# Convention : Reuss Voigt Hill
#
# Bulk Modulus (GPa) = 24.06889 67.19612 45.63250
# Shear Modulus (GPa) = 24.18811 33.57380 28.88096
#
# Velocity S-wave (km/s) = 3.46664 4.08421 3.78803
# Velocity P-wave (km/s) = 5.28979 7.45833 6.46562
#
# Compressibility (1/GPa) = 0.04154741
#
# Stress axis : x y z
#
# Youngs Moduli (GPa) = 90.94401 87.95302 26.37162
#
# Poissons Ratio (x) = 0.66003 0.03050
# Poissons Ratio (y) = 0.68248 0.01867
# Poissons Ratio (z) = 0.10518 0.06226
#
# Static dielectric constant tensor:
#      x y z
#    x 1.759460 0.000000 0.000000 
#    y 0.000000 1.698830 0.000000 
#    z 0.000000 0.000000 1.752200 
# 
# From -- ./inp_files/12309.got.cif
#   From: 2010.05.17/outbox.cif.g08.bks.cpg/sg63_7_cif.got.tgz:12309.got - 2010.06.03 15:47:04.
