data_PCOD9473657
_publ_section_title
;
Structure prediction by ZEFSAII (Michael W. Deem and Ramdas Pophale) SiO2 
 PCOD9473657
Probable space group: C M C M
;
_chemical_formula_sum "Si O2"
_cell_formula_units_Z 72
_cell_length_a 17.079559
_cell_length_b 8.100085
_cell_length_c 22.542638
_cell_angle_alpha 90.000000
_cell_angle_beta 90.000000
_cell_angle_gamma 90.000000
_cell_volume 3118.681084
_symmetry_space_group_name_H-M "C M C M"
_symmetry_group_IT_number 63
_symmetry_cell_setting 'orthorhombic'
loop_
_space_group_symop_operation_xyz
x,y,z
-x,-y,1/2+z
x,-y,-z
-x,y,1/2-z
-x,-y,-z
x,y,1/2-z
-x,y,z
x,-y,1/2+z
1/2+x,1/2+y,z
1/2-x,1/2-y,1/2+z
1/2+x,1/2-y,-z
1/2-x,1/2+y,1/2-z
1/2-x,1/2-y,-z
1/2+x,1/2+y,1/2-z
1/2-x,1/2+y,z
1/2+x,1/2-y,1/2+z
loop_
_atom_site_type_symbol
_atom_site_label
_atom_site_fract_x
_atom_site_fract_y
_atom_site_fract_z
Si Si1 0.500000 0.717521 0.250000
Si Si2 0.000000 0.280324 0.750000
Si Si3 0.651175 0.863162 0.426067
Si Si4 0.909847 0.176974 0.534703
Si Si5 0.191905 0.002761 0.121613
Si Si6 0.000000 0.529701 0.857475
Si Si7 0.856433 0.032534 0.750000
O O1 0.500000 0.819187 0.310725
O O2 0.580512 0.615775 0.250000
O O3 0.000000 0.379541 0.811748
O O4 0.917932 0.182622 0.750000
O O5 0.635180 0.807356 0.493618
O O6 0.728350 0.967643 0.413325
O O7 0.663257 0.687511 0.392258
O O8 0.576146 0.952690 0.398422
O O9 0.869343 0.131074 0.596028
O O10 0.000000 0.225080 0.541065
O O11 0.908159 0.000000 0.500000
O O12 0.196181 0.975443 0.191537
#
# Coordination Sequence:
#
# PCOD9473657 Si02
#       7
#     4   4  16  16  16   8   8
#     4  10  20  40  66  92 120 172 224 250 310 398
#     4  10  28  40  66  92 140 168 220 274 322 386
#     4  11  23  43  68  97 132 171 220 273 325 387
#     4   9  19  38  67  98 127 170 219 267 324 389
#     4  11  25  39  68  97 138 170 219 267 330 385
#     4  11  22  44  67  92 129 176 216 266 327 386
#     4  11  24  42  64  96 133 173 217 264 325 389
#
# _framework density 23.086682
#
# number of rings (size 3 to 8) (size 9 to 14) (size 15 to 20)
#    0.000    1.556    3.333    0.667    7.778    2.667 
#    0.000    0.000    0.000    2.667    0.000    0.000 
#    0.000    0.000    0.000    0.000    0.000    0.000 
#
# Total GULP energy -201657.862950 kJ/mol
# GULP energy per Si atom -5601.607304 kJ/mol
# Density = 2.303414 g / cm^3
# Si number density = 23.086682 Si / 1000 Ang^3
#
#
#
# Elastic Constant Matrix: (Units=GPa)
#
#
# Indices 1 2 3 4 5 6 
#
# 1 108.4607 19.6983 22.5230 0.0000 0.0000 0.0000
# 2 19.6983 77.6276 17.4920 0.0000 0.0000 0.0000
# 3 22.5230 17.4920 130.9365 0.0000 0.0000 0.0000
# 4 0.0000 0.0000 0.0000 39.1732 0.0000 0.0000
# 5 0.0000 0.0000 0.0000 0.0000 37.7193 0.0000
# 6 0.0000 0.0000 0.0000 0.0000 0.0000 45.2677
#
#
#
# Elastic Compliance Matrix: (Units=1/GPa)
#
#
# Indices 1 2 3 4 5 6 
#
# 1 0.009912 -0.002197 -0.001412 0.000000 0.000000 0.000000
# 2 -0.002197 0.013769 -0.001461 0.000000 0.000000 0.000000
# 3 -0.001412 -0.001461 0.008075 0.000000 0.000000 0.000000
# 4 0.000000 0.000000 0.000000 0.025528 0.000000 0.000000
# 5 0.000000 0.000000 0.000000 0.000000 0.026512 0.000000
# 6 0.000000 0.000000 0.000000 0.000000 0.000000 0.022091
#
#
# Mechanical properties :
#
#
# Convention : Reuss Voigt Hill
#
# Bulk Modulus (GPa) = 46.26198 48.49461 47.37830
# Shear Modulus (GPa) = 40.57387 41.58613 41.08000
#
# Velocity S-wave (km/s) = 4.19675 4.24878 4.22285
# Velocity P-wave (km/s) = 6.60042 6.71718 6.65906
#
# Compressibility (1/GPa) = 0.02161602
#
# Stress axis : x y z
#
# Youngs Moduli (GPa) = 100.88686 72.62756 123.83404
#
# Poissons Ratio (x) = 0.15958 0.17479
# Poissons Ratio (y) = 0.22167 0.18098
# Poissons Ratio (z) = 0.14240 0.10614
#
# Static dielectric constant tensor:
#      x y z
#    x 1.790190 0.000000 0.000000 
#    y 0.000000 1.902850 0.000000 
#    z 0.000000 0.000000 1.808930 
# 
# From -- ./inp_files/69117.got.cif
#   From: 2010.05.17/outbox.cif.g08.bks.cpg/sg63_35_cif.got.tgz:69117.got - 2010.06.03 15:47:04.
