data_PCOD9473776
_publ_section_title
;
Structure prediction by ZEFSAII (Michael W. Deem and Ramdas Pophale) SiO2 
 PCOD9473776
Probable space group: C M C M
;
_chemical_formula_sum "Si O2"
_cell_formula_units_Z 72
_cell_length_a 11.066961
_cell_length_b 25.790578
_cell_length_c 13.923039
_cell_angle_alpha 90.000000
_cell_angle_beta 90.000000
_cell_angle_gamma 90.000000
_cell_volume 3973.960028
_symmetry_space_group_name_H-M "C M C M"
_symmetry_group_IT_number 63
_symmetry_cell_setting 'orthorhombic'
loop_
_space_group_symop_operation_xyz
x,y,z
-x,-y,1/2+z
x,-y,-z
-x,y,1/2-z
-x,-y,-z
x,y,1/2-z
-x,y,z
x,-y,1/2+z
1/2+x,1/2+y,z
1/2-x,1/2-y,1/2+z
1/2+x,1/2-y,-z
1/2-x,1/2+y,1/2-z
1/2-x,1/2-y,-z
1/2+x,1/2+y,1/2-z
1/2-x,1/2+y,z
1/2+x,1/2-y,1/2+z
loop_
_atom_site_type_symbol
_atom_site_label
_atom_site_fract_x
_atom_site_fract_y
_atom_site_fract_z
Si Si1 0.642890 0.664280 0.250000
Si Si2 0.861721 0.048905 0.750000
Si Si3 0.208459 0.556862 0.250000
Si Si4 0.639508 0.715786 0.458979
Si Si5 0.372398 0.941985 0.540283
Si Si6 0.865480 0.104698 0.951658
O O1 0.500000 0.653327 0.250000
O O2 0.711252 0.609289 0.250000
O O3 0.666792 0.695747 0.349569
O O4 0.845634 0.084547 0.843792
O O5 0.000000 0.030811 0.750000
O O6 0.782257 0.997229 0.750000
O O7 0.131243 0.557071 0.154220
O O8 0.500000 0.737599 0.457948
O O9 0.750000 0.750000 0.500000
O O10 0.634071 0.665724 0.528640
O O11 0.500000 0.917614 0.506876
O O12 0.247893 0.916221 0.509700
O O13 0.369370 0.000000 0.500000
O O14 0.000000 0.085565 0.982516
#
# Coordination Sequence:
#
# PCOD9473776 Si02
#       6
#     8   8   8  16  16  16
#     4  10  21  38  62  93 123 151 195 251 304 355
#     4  10  21  34  58  93 123 157 201 241 286 349
#     4  12  20  36  60  90 121 162 197 242 295 352
#     4  10  22  41  64  89 119 154 197 252 305 357
#     4  11  23  37  55  85 124 161 198 243 293 352
#     4  10  21  39  60  86 118 155 200 248 293 348
#
# _framework density 18.117947000000001
#
# number of rings (size 3 to 8) (size 9 to 14) (size 15 to 20)
#    0.000    1.556    4.444    0.667    0.000    3.111 
#    0.000    2.222    0.000    0.000    0.000    0.000 
#    0.000    0.000    0.000    0.000    0.000    0.000 
#
# Total GULP energy -200512.705989 kJ/mol
# GULP energy per Si atom -5569.797389 kJ/mol
# Density = 1.807671 g / cm^3
# Si number density = 18.117947 Si / 1000 Ang^3
#
#
#
# Elastic Constant Matrix: (Units=GPa)
#
#
# Indices 1 2 3 4 5 6 
#
# 1 166.7325 70.4588 75.2817 0.0000 0.0000 0.0000
# 2 70.4588 71.0091 39.2839 0.0000 0.0000 0.0000
# 3 75.2817 39.2839 98.9707 0.0000 0.0000 0.0000
# 4 0.0000 0.0000 0.0000 23.0881 0.0000 0.0000
# 5 0.0000 0.0000 0.0000 0.0000 38.2624 0.0000
# 6 0.0000 0.0000 0.0000 0.0000 0.0000 -326.9312
#
#
#
# Elastic Compliance Matrix: (Units=1/GPa)
#
#
# Indices 1 2 3 4 5 6 
#
# 1 0.012538 -0.009181 -0.005893 0.000000 0.000000 0.000000
# 2 -0.009181 0.024768 -0.002848 0.000000 0.000000 0.000000
# 3 -0.005893 -0.002848 0.015717 0.000000 0.000000 0.000000
# 4 0.000000 0.000000 0.000000 0.043312 0.000000 0.000000
# 5 0.000000 0.000000 0.000000 0.000000 0.026135 0.000000
# 6 0.000000 0.000000 0.000000 0.000000 0.000000 -0.003059
#
#
# Mechanical properties :
#
#
# Convention : Reuss Voigt Hill
#
# Bulk Modulus (GPa) = 58.20770 78.52902 68.36836
# Shear Modulus (GPa) = 31.05966 -43.00363 -5.97198
#
# Velocity S-wave (km/s) = 4.14491 -4.87718 -1.81751
# Velocity P-wave (km/s) = 7.42320 3.42366 5.78037
#
# Compressibility (1/GPa) = 0.01717986
#
# Stress axis : x y z
#
# Youngs Moduli (GPa) = 79.75743 40.37529 63.62648
#
# Poissons Ratio (x) = 0.37067 0.37495
# Poissons Ratio (y) = 0.73223 0.18118
# Poissons Ratio (z) = 0.47001 0.11497
#
# Static dielectric constant tensor:
#      x y z
#    x 1.667970 0.000000 0.000000 
#    y 0.000000 1.613330 0.000000 
#    z 0.000000 0.000000 1.634040 
# 
# From -- ./inp_files/17650.got.cif
#   From: 2010.05.17/outbox.cif.g08.bks.cpg/sg63_9_cif.got.tgz:17650.got - 2010.06.03 15:47:04.
