data_PCOD9473753
_publ_section_title
;
Structure prediction by ZEFSAII (Michael W. Deem and Ramdas Pophale) SiO2 
 PCOD9473753
Probable space group: C M C M
;
_chemical_formula_sum "Si O2"
_cell_formula_units_Z 96
_cell_length_a 14.644153
_cell_length_b 12.725090
_cell_length_c 26.915574
_cell_angle_alpha 90.000000
_cell_angle_beta 90.000000
_cell_angle_gamma 90.000000
_cell_volume 5015.667822
_symmetry_space_group_name_H-M "C M C M"
_symmetry_group_IT_number 63
_symmetry_cell_setting 'orthorhombic'
loop_
_space_group_symop_operation_xyz
x,y,z
-x,-y,1/2+z
x,-y,-z
-x,y,1/2-z
-x,-y,-z
x,y,1/2-z
-x,y,z
x,-y,1/2+z
1/2+x,1/2+y,z
1/2-x,1/2-y,1/2+z
1/2+x,1/2-y,-z
1/2-x,1/2+y,1/2-z
1/2-x,1/2-y,-z
1/2+x,1/2+y,1/2-z
1/2-x,1/2+y,z
1/2+x,1/2-y,1/2+z
loop_
_atom_site_type_symbol
_atom_site_label
_atom_site_fract_x
_atom_site_fract_y
_atom_site_fract_z
Si Si1 0.831143 0.246615 0.426237
Si Si2 0.102445 0.016007 0.440964
Si Si3 0.397757 0.113923 0.009564
Si Si4 0.649851 0.854883 0.617824
Si Si5 0.258723 0.930523 0.130160
Si Si6 0.602078 0.325695 0.308389
O O1 0.890715 0.139948 0.426616
O O2 0.842992 0.297193 0.480478
O O3 0.734109 0.204376 0.408426
O O4 0.834823 0.346568 0.388638
O O5 0.000000 0.977467 0.427818
O O6 0.112561 0.000000 0.500000
O O7 0.184905 0.956011 0.413682
O O8 0.500000 0.115459 0.987291
O O9 0.406485 0.123522 0.068314
O O10 0.354652 0.000000 0.000000
O O11 0.606751 0.779192 0.658312
O O12 0.688874 0.961645 0.640961
O O13 0.190233 0.891678 0.173302
O O14 0.610562 0.303628 0.250000
O O15 0.500000 0.373776 0.315956
#
# Coordination Sequence:
#
# PCOD9473753 Si02
#       6
#    16  16  16  16  16  16
#     4  10  21  34  51  74 110 147 182 220 263 318
#     4  10  22  34  49  76 110 147 183 220 263 315
#     4  11  21  32  50  78 114 152 185 215 262 325
#     4  10  21  35  57  80 108 143 184 230 271 324
#     4  10  21  36  58  79 106 143 183 224 268 326
#     4  10  22  40  60  82 108 139 180 233 287 331
#
# _framework density 19.140021999999998
#
# number of rings (size 3 to 8) (size 9 to 14) (size 15 to 20)
#    0.000    1.833    1.667    2.000    9.333    0.667 
#    0.000    0.000    0.000    0.000    0.000    0.000 
#    0.000   16.000    0.000    0.000    0.000    0.000 
#
# Total GULP energy -267307.809361 kJ/mol
# GULP energy per Si atom -5568.912695 kJ/mol
# Density = 1.909646 g / cm^3
# Si number density = 19.140022 Si / 1000 Ang^3
#
#
#
# Elastic Constant Matrix: (Units=GPa)
#
#
# Indices 1 2 3 4 5 6 
#
# 1 56.9431 11.6750 21.8852 0.0000 0.0000 0.0000
# 2 11.6750 71.6185 17.7468 0.0000 0.0000 0.0000
# 3 21.8852 17.7468 103.6026 0.0000 0.0000 0.0000
# 4 0.0000 0.0000 0.0000 18.6310 0.0000 0.0000
# 5 0.0000 0.0000 0.0000 0.0000 23.0927 0.0000
# 6 0.0000 0.0000 0.0000 0.0000 0.0000 16.7168
#
#
#
# Elastic Compliance Matrix: (Units=1/GPa)
#
#
# Indices 1 2 3 4 5 6 
#
# 1 0.019454 -0.002248 -0.003724 0.000000 0.000000 0.000000
# 2 -0.002248 0.014842 -0.002067 0.000000 0.000000 0.000000
# 3 -0.003724 -0.002067 0.010793 0.000000 0.000000 0.000000
# 4 0.000000 0.000000 0.000000 0.053674 0.000000 0.000000
# 5 0.000000 0.000000 0.000000 0.000000 0.043304 0.000000
# 6 0.000000 0.000000 0.000000 0.000000 0.000000 0.059820
#
#
# Mechanical properties :
#
#
# Convention : Reuss Voigt Hill
#
# Bulk Modulus (GPa) = 34.47279 37.19759 35.83519
# Shear Modulus (GPa) = 21.96489 23.74524 22.85507
#
# Velocity S-wave (km/s) = 3.39128 3.52605 3.45932
# Velocity P-wave (km/s) = 5.77792 6.00450 5.89230
#
# Compressibility (1/GPa) = 0.02900839
#
# Stress axis : x y z
#
# Youngs Moduli (GPa) = 51.40394 67.37774 92.65158
#
# Poissons Ratio (x) = 0.15149 0.34506
# Poissons Ratio (y) = 0.11558 0.19155
# Poissons Ratio (z) = 0.19144 0.13930
#
# Static dielectric constant tensor:
#      x y z
#    x 1.703380 0.000000 0.000000 
#    y 0.000000 1.751990 0.000000 
#    z 0.000000 0.000000 1.636450 
# 
# From -- ./inp_files/63715.got.cif
#   From: 2010.05.17/outbox.cif.g08.bks.cpg/sg63_32_cif.got.tgz:63715.got - 2010.06.03 15:47:04.
