data_PCOD9473398
_publ_section_title
;
Structure prediction by ZEFSAII (Michael W. Deem and Ramdas Pophale) SiO2 
 PCOD9473398
Probable space group: C M C M
;
_chemical_formula_sum "Si O2"
_cell_formula_units_Z 96
_cell_length_a 11.643108
_cell_length_b 19.133088
_cell_length_c 21.125073
_cell_angle_alpha 90.000000
_cell_angle_beta 90.000000
_cell_angle_gamma 90.000000
_cell_volume 4706.003147
_symmetry_space_group_name_H-M "C M C M"
_symmetry_group_IT_number 63
_symmetry_cell_setting 'orthorhombic'
loop_
_space_group_symop_operation_xyz
x,y,z
-x,-y,1/2+z
x,-y,-z
-x,y,1/2-z
-x,-y,-z
x,y,1/2-z
-x,y,z
x,-y,1/2+z
1/2+x,1/2+y,z
1/2-x,1/2-y,1/2+z
1/2+x,1/2-y,-z
1/2-x,1/2+y,1/2-z
1/2-x,1/2-y,-z
1/2+x,1/2+y,1/2-z
1/2-x,1/2+y,z
1/2+x,1/2-y,1/2+z
loop_
_atom_site_type_symbol
_atom_site_label
_atom_site_fract_x
_atom_site_fract_y
_atom_site_fract_z
Si Si1 0.370774 0.041816 0.674786
Si Si2 0.872055 0.735812 0.919921
Si Si3 0.296755 0.636189 0.999714
Si Si4 0.372892 0.100570 0.102031
Si Si5 0.313549 0.756976 0.674889
Si Si6 0.375136 0.604272 0.869269
O O1 0.371766 0.047363 0.750000
O O2 0.500000 0.066749 0.652883
O O3 0.249147 0.075366 0.653273
O O4 0.364957 0.961640 0.652050
O O5 0.794645 0.682567 0.959855
O O6 0.815669 0.747098 0.851383
O O7 0.000000 0.710603 0.916041
O O8 0.866242 0.808507 0.958217
O O9 0.369044 0.599600 0.945442
O O10 0.223275 0.591037 0.048627
O O11 0.500000 0.099310 0.072824
O O12 0.357991 0.175195 0.136937
O O13 0.322729 0.765449 0.750000
O O14 0.374211 0.685620 0.652501
O O15 0.500000 0.574591 0.847739
#
# Coordination Sequence:
#
# PCOD9473398 Si02
#       6
#    16  16  16  16  16  16
#     4  10  23  42  61  84 117 155 192 235 290 345
#     4   9  17  31  51  77 116 154 181 228 294 348
#     4   9  19  33  53  83 112 143 190 237 283 339
#     4  10  20  37  62  86 111 147 191 241 290 339
#     4  10  21  35  56  87 114 144 194 245 284 332
#     4  11  23  39  61  87 118 156 194 236 286 344
#
# _framework density 20.399476
#
# number of rings (size 3 to 8) (size 9 to 14) (size 15 to 20)
#    0.000    2.167    0.000    3.500    0.000    7.333 
#    0.000    6.667    0.000    4.000    0.000    0.000 
#    0.000    0.000    0.000    0.000    0.000    0.000 
#
# Total GULP energy -267571.701280 kJ/mol
# GULP energy per Si atom -5574.410443 kJ/mol
# Density = 2.035305 g / cm^3
# Si number density = 20.399476 Si / 1000 Ang^3
#
#
#
# Elastic Constant Matrix: (Units=GPa)
#
#
# Indices 1 2 3 4 5 6 
#
# 1 167.9456 42.2835 32.4135 0.0000 0.0000 0.0000
# 2 42.2835 66.6055 8.9830 0.0000 0.0000 0.0000
# 3 32.4135 8.9830 88.5180 0.0000 0.0000 0.0000
# 4 0.0000 0.0000 0.0000 14.7224 0.0000 0.0000
# 5 0.0000 0.0000 0.0000 0.0000 10.1381 0.0000
# 6 0.0000 0.0000 0.0000 0.0000 0.0000 11.1033
#
#
#
# Elastic Compliance Matrix: (Units=1/GPa)
#
#
# Indices 1 2 3 4 5 6 
#
# 1 0.007523 -0.004465 -0.002302 0.000000 0.000000 0.000000
# 2 -0.004465 0.017873 -0.000179 0.000000 0.000000 0.000000
# 3 -0.002302 -0.000179 0.012158 0.000000 0.000000 0.000000
# 4 0.000000 0.000000 0.000000 0.067924 0.000000 0.000000
# 5 0.000000 0.000000 0.000000 0.000000 0.098638 0.000000
# 6 0.000000 0.000000 0.000000 0.000000 0.000000 0.090063
#
#
# Mechanical properties :
#
#
# Convention : Reuss Voigt Hill
#
# Bulk Modulus (GPa) = 42.26109 54.49213 48.37661
# Shear Modulus (GPa) = 15.82497 23.15203 19.48850
#
# Velocity S-wave (km/s) = 2.78826 3.37253 3.09422
# Velocity P-wave (km/s) = 5.57921 6.47578 6.04414
#
# Compressibility (1/GPa) = 0.02366243
#
# Stress axis : x y z
#
# Youngs Moduli (GPa) = 132.93057 55.95156 82.25010
#
# Poissons Ratio (x) = 0.24984 0.18930
# Poissons Ratio (y) = 0.59357 0.01469
# Poissons Ratio (z) = 0.30594 0.01000
#
# Static dielectric constant tensor:
#      x y z
#    x 1.780750 0.000000 0.000000 
#    y 0.000000 1.732720 0.000000 
#    z 0.000000 0.000000 1.709910 
# 
# From -- ./inp_files/52877.got.cif
#   From: 2010.05.17/outbox.cif.g08.bks.cpg/sg63_27_cif.got.tgz:52877.got - 2010.06.03 15:47:04.
