data_PCOD9473792
_publ_section_title
;
Structure prediction by ZEFSAII (Michael W. Deem and Ramdas Pophale) SiO2 
 PCOD9473792
Probable space group: C M C M
;
_chemical_formula_sum "Si O2"
_cell_formula_units_Z 64
_cell_length_a 12.838455
_cell_length_b 13.074695
_cell_length_c 15.075285
_cell_angle_alpha 90.000000
_cell_angle_beta 90.000000
_cell_angle_gamma 90.000000
_cell_volume 2530.520507
_symmetry_space_group_name_H-M "C M C M"
_symmetry_group_IT_number 63
_symmetry_cell_setting 'orthorhombic'
loop_
_space_group_symop_operation_xyz
x,y,z
-x,-y,1/2+z
x,-y,-z
-x,y,1/2-z
-x,-y,-z
x,y,1/2-z
-x,y,z
x,-y,1/2+z
1/2+x,1/2+y,z
1/2-x,1/2-y,1/2+z
1/2+x,1/2-y,-z
1/2-x,1/2+y,1/2-z
1/2-x,1/2-y,-z
1/2+x,1/2+y,1/2-z
1/2-x,1/2+y,z
1/2+x,1/2-y,1/2+z
loop_
_atom_site_type_symbol
_atom_site_label
_atom_site_fract_x
_atom_site_fract_y
_atom_site_fract_z
Si Si1 0.656810 0.494096 0.102216
Si Si2 0.158396 0.213232 0.386411
Si Si3 0.886411 0.770663 0.098409
Si Si4 0.112557 0.444463 0.351518
O O1 0.623532 0.601294 0.144360
O O2 0.617660 0.385763 0.137208
O O3 0.782707 0.482786 0.102411
O O4 0.622938 0.500000 0.000000
O O5 0.131667 0.220122 0.491754
O O6 0.282959 0.214419 0.370442
O O7 0.117798 0.320308 0.350091
O O8 0.000000 0.725560 0.115920
O O9 0.117165 0.480091 0.250000
O O10 0.000000 0.473202 0.390384
#
# Coordination Sequence:
#
# PCOD9473792 Si02
#       4
#    16  16  16  16
#     4   9  19  33  51  76 100 127 164 205 247 289
#     4   9  18  31  49  72  97 128 161 196 243 292
#     4   9  17  30  49  75 102 124 155 200 244 290
#     4  10  21  35  50  71 100 132 166 205 248 296
#
# _framework density 25.291238
#
# number of rings (size 3 to 8) (size 9 to 14) (size 15 to 20)
#    0.000    2.750    0.000    2.250    0.000    8.000 
#    0.000    0.000    0.000   12.000    0.000    0.000 
#    0.000    0.000    0.000    0.000    0.000    0.000 
#
# Total GULP energy -178682.033050 kJ/mol
# GULP energy per Si atom -5583.813533 kJ/mol
# Density = 2.523367 g / cm^3
# Si number density = 25.291238 Si / 1000 Ang^3
#
#
#
# Elastic Constant Matrix: (Units=GPa)
#
#
# Indices 1 2 3 4 5 6 
#
# 1 204.4676 2.7786 -9.7009 0.0000 0.0000 0.0000
# 2 2.7786 128.2320 0.5890 0.0000 0.0000 0.0000
# 3 -9.7009 0.5890 55.7503 0.0000 0.0000 0.0000
# 4 0.0000 0.0000 0.0000 48.2767 0.0000 0.0000
# 5 0.0000 0.0000 0.0000 0.0000 1.0445 0.0000
# 6 0.0000 0.0000 0.0000 0.0000 0.0000 -23.1389
#
#
#
# Elastic Compliance Matrix: (Units=1/GPa)
#
#
# Indices 1 2 3 4 5 6 
#
# 1 0.004933 -0.000111 0.000860 0.000000 0.000000 0.000000
# 2 -0.000111 0.007801 -0.000102 0.000000 0.000000 0.000000
# 3 0.000860 -0.000102 0.018088 0.000000 0.000000 0.000000
# 4 0.000000 0.000000 0.000000 0.020714 0.000000 0.000000
# 5 0.000000 0.000000 0.000000 0.000000 0.957403 0.000000
# 6 0.000000 0.000000 0.000000 0.000000 0.000000 -0.043217
#
#
# Mechanical properties :
#
#
# Convention : Reuss Voigt Hill
#
# Bulk Modulus (GPa) = 31.13708 41.75370 36.44539
# Shear Modulus (GPa) = 5.12750 31.55535 18.34143
#
# Velocity S-wave (km/s) = 1.42541 3.53608 2.69589
# Velocity P-wave (km/s) = 3.87907 5.76340 4.91243
#
# Compressibility (1/GPa) = 0.03211605
#
# Stress axis : x y z
#
# Youngs Moduli (GPa) = 202.71483 128.18487 55.28599
#
# Poissons Ratio (x) = 0.01421 -0.04752
# Poissons Ratio (y) = 0.02247 0.00562
# Poissons Ratio (z) = -0.17424 0.01304
#
# Static dielectric constant tensor:
#      x y z
#    x 1.994450 0.000000 0.000000 
#    y 0.000000 1.979920 0.000000 
#    z 0.000000 0.000000 1.900490 
# 
# From -- ./inp_files/41498.got.cif
#   From: 2010.05.17/outbox.cif.g08.bks.cpg/sg63_21_cif.got.tgz:41498.got - 2010.06.03 15:47:04.
