data_PCOD9473749
_publ_section_title
;
Structure prediction by ZEFSAII (Michael W. Deem and Ramdas Pophale) SiO2 
 PCOD9473749
Probable space group: C M C M
;
_chemical_formula_sum "Si O2"
_cell_formula_units_Z 120
_cell_length_a 25.323744
_cell_length_b 24.331654
_cell_length_c 10.118151
_cell_angle_alpha 90.000000
_cell_angle_beta 90.000000
_cell_angle_gamma 90.000000
_cell_volume 6234.486703
_symmetry_space_group_name_H-M "C M C M"
_symmetry_group_IT_number 63
_symmetry_cell_setting 'orthorhombic'
loop_
_space_group_symop_operation_xyz
x,y,z
-x,-y,1/2+z
x,-y,-z
-x,y,1/2-z
-x,-y,-z
x,y,1/2-z
-x,y,z
x,-y,1/2+z
1/2+x,1/2+y,z
1/2-x,1/2-y,1/2+z
1/2+x,1/2-y,-z
1/2-x,1/2+y,1/2-z
1/2-x,1/2-y,-z
1/2+x,1/2+y,1/2-z
1/2-x,1/2+y,z
1/2+x,1/2-y,1/2+z
loop_
_atom_site_type_symbol
_atom_site_label
_atom_site_fract_x
_atom_site_fract_y
_atom_site_fract_z
Si Si1 0.908204 0.549156 0.097719
Si Si2 0.387043 0.500000 0.500000
Si Si3 0.288314 0.093133 0.096905
Si Si4 0.437241 0.614119 0.406866
Si Si5 0.207484 0.061277 0.889346
Si Si6 0.944099 0.330405 0.909773
Si Si7 0.330563 0.791722 0.910400
Si Si8 0.855649 0.826529 0.097895
O O1 0.919696 0.534858 0.250000
O O2 0.846306 0.566113 0.090155
O O3 0.938988 0.604868 0.063487
O O4 0.919886 0.500000 0.000000
O O5 0.420471 0.551541 0.446904
O O6 0.344679 0.476031 0.396345
O O7 0.271748 0.094428 0.250000
O O8 0.295626 0.156275 0.046197
O O9 0.246893 0.059671 0.011285
O O10 0.426479 0.621652 0.250000
O O11 0.500000 0.621119 0.429026
O O12 0.402131 0.654868 0.498079
O O13 0.235656 0.051749 0.750000
O O14 0.183789 0.122494 0.895450
O O15 0.943570 0.325025 0.750000
O O16 0.890611 0.302792 0.957133
O O17 0.000000 0.308424 0.959447
O O18 0.329066 0.796124 0.750000
O O19 0.323394 0.728021 0.943980
O O20 0.875737 0.817390 0.250000
#
# Coordination Sequence:
#
# PCOD9473749 Si02
#       8
#    16   8  16  16  16  16  16  16
#     4   9  18  31  46  68  96 126 160 201 245 292
#     4  10  21  38  56  74 102 142 181 214 254 310
#     4   9  19  34  51  72  99 134 171 208 254 308
#     4  10  21  37  57  81 109 141 176 214 262 316
#     4  10  21  34  50  75 103 129 167 216 258 302
#     4   8  14  26  46  71  96 123 160 202 242 288
#     4   8  15  31  52  73 101 134 170 209 251 302
#     4   9  19  35  54  78 106 134 169 214 256 299
#
# _framework density 19.247776000000002
#
# number of rings (size 3 to 8) (size 9 to 14) (size 15 to 20)
#    0.000    2.933    0.000    2.200    0.933    5.333 
#    0.000    2.000    0.000    0.800    0.000    0.000 
#    0.000    0.000    0.000    0.000    0.000    0.000 
#
# Total GULP energy -334157.656083 kJ/mol
# GULP energy per Si atom -5569.294268 kJ/mol
# Density = 1.920397 g / cm^3
# Si number density = 19.247776 Si / 1000 Ang^3
#
#
#
# Elastic Constant Matrix: (Units=GPa)
#
#
# Indices 1 2 3 4 5 6 
#
# 1 50.5239 -6.9685 18.6306 0.0000 0.0000 0.0000
# 2 -6.9685 75.1446 9.3785 0.0000 0.0000 0.0000
# 3 18.6306 9.3785 59.4608 0.0000 0.0000 0.0000
# 4 0.0000 0.0000 0.0000 14.8631 0.0000 0.0000
# 5 0.0000 0.0000 0.0000 0.0000 11.9552 0.0000
# 6 0.0000 0.0000 0.0000 0.0000 0.0000 6.1477
#
#
#
# Elastic Compliance Matrix: (Units=1/GPa)
#
#
# Indices 1 2 3 4 5 6 
#
# 1 0.023066 0.003102 -0.007716 0.000000 0.000000 0.000000
# 2 0.003102 0.013992 -0.003179 0.000000 0.000000 0.000000
# 3 -0.007716 -0.003179 0.019737 0.000000 0.000000 0.000000
# 4 0.000000 0.000000 0.000000 0.067281 0.000000 0.000000
# 5 0.000000 0.000000 0.000000 0.000000 0.083646 0.000000
# 6 0.000000 0.000000 0.000000 0.000000 0.000000 0.162662
#
#
# Mechanical properties :
#
#
# Convention : Reuss Voigt Hill
#
# Bulk Modulus (GPa) = 24.26685 25.24561 24.75623
# Shear Modulus (GPa) = 12.50920 17.53244 15.02082
#
# Velocity S-wave (km/s) = 2.55209 3.02136 2.79658
# Velocity P-wave (km/s) = 4.61727 5.03151 4.82883
#
# Compressibility (1/GPa) = 0.04120847
#
# Stress axis : x y z
#
# Youngs Moduli (GPa) = 43.35407 71.46902 50.66646
#
# Poissons Ratio (x) = -0.22170 0.39096
# Poissons Ratio (y) = -0.13449 0.16106
# Poissons Ratio (z) = 0.33454 0.22719
#
# Static dielectric constant tensor:
#      x y z
#    x 1.661910 0.000000 0.000000 
#    y 0.000000 1.708060 0.000000 
#    z 0.000000 0.000000 1.675180 
# 
# From -- ./inp_files/13196.got.cif
#   From: 2010.05.17/outbox.cif.g08.bks.cpg/sg63_7_cif.got.tgz:13196.got - 2010.06.03 15:47:04.
