data_PCOD9473242
_publ_section_title
;
Structure prediction by ZEFSAII (Michael W. Deem and Ramdas Pophale) SiO2 
 PCOD9473242
Probable space group: C M C M
;
_chemical_formula_sum "Si O2"
_cell_formula_units_Z 96
_cell_length_a 21.486076
_cell_length_b 15.356001
_cell_length_c 12.811637
_cell_angle_alpha 90.000000
_cell_angle_beta 90.000000
_cell_angle_gamma 90.000000
_cell_volume 4227.074132
_symmetry_space_group_name_H-M "C M C M"
_symmetry_group_IT_number 63
_symmetry_cell_setting 'orthorhombic'
loop_
_space_group_symop_operation_xyz
x,y,z
-x,-y,1/2+z
x,-y,-z
-x,y,1/2-z
-x,-y,-z
x,y,1/2-z
-x,y,z
x,-y,1/2+z
1/2+x,1/2+y,z
1/2-x,1/2-y,1/2+z
1/2+x,1/2-y,-z
1/2-x,1/2+y,1/2-z
1/2-x,1/2-y,-z
1/2+x,1/2+y,1/2-z
1/2-x,1/2+y,z
1/2+x,1/2-y,1/2+z
loop_
_atom_site_type_symbol
_atom_site_label
_atom_site_fract_x
_atom_site_fract_y
_atom_site_fract_z
Si Si1 0.199272 0.067364 0.870328
Si Si2 0.500000 0.233653 0.866377
Si Si3 0.500000 0.907617 0.946507
Si Si4 0.378404 0.829280 0.583659
Si Si5 0.069866 0.135686 0.626076
Si Si6 0.240937 0.872518 0.583880
Si Si7 0.365233 0.235632 0.864472
O O1 0.204966 0.097696 0.750000
O O2 0.126603 0.072968 0.904118
O O3 0.223050 0.968902 0.878639
O O4 0.235361 0.123572 0.957111
O O5 0.500000 0.191241 0.750000
O O6 0.500000 0.165632 0.961375
O O7 0.433719 0.281930 0.870500
O O8 0.564486 0.891277 0.886071
O O9 0.500000 0.000000 0.000000
O O10 0.402500 0.732341 0.608069
O O11 0.309566 0.848417 0.623378
O O12 0.368652 0.832388 0.458234
O O13 0.063497 0.124761 0.750000
O O14 0.000000 0.126989 0.580644
O O15 0.189491 0.803825 0.619450
O O16 0.359304 0.195649 0.750000
#
# Coordination Sequence:
#
# PCOD9473242 Si02
#       7
#    16   8   8  16  16  16  16
#     4  10  23  41  60  87 130 167 202 254 309 373
#     4   8  18  38  60  86 122 157 203 250 292 364
#     4  10  22  38  64  85 115 160 196 251 320 365
#     4  11  22  40  64  89 122 159 210 260 312 368
#     4  10  21  41  67  93 121 162 213 259 309 369
#     4  11  23  39  60  93 126 164 207 249 313 378
#     4  10  20  36  61  92 123 162 209 253 304 363
#
# _framework density 22.710743999999998
#
# number of rings (size 3 to 8) (size 9 to 14) (size 15 to 20)
#    0.000    1.833    2.500    1.000    2.333    2.000 
#    1.500    1.667    0.000    0.000    0.000    0.000 
#    0.000    0.000    0.000    0.000    0.000    0.000 
#
# Total GULP energy -267865.759130 kJ/mol
# GULP energy per Si atom -5580.536649 kJ/mol
# Density = 2.265905 g / cm^3
# Si number density = 22.710744 Si / 1000 Ang^3
#
#
#
# Elastic Constant Matrix: (Units=GPa)
#
#
# Indices 1 2 3 4 5 6 
#
# 1 245.7412 40.3333 8.8743 0.0000 0.0000 0.0000
# 2 40.3333 25.1799 -10.9594 0.0000 0.0000 0.0000
# 3 8.8743 -10.9594 73.0829 0.0000 0.0000 0.0000
# 4 0.0000 0.0000 0.0000 17.0379 0.0000 0.0000
# 5 0.0000 0.0000 0.0000 0.0000 15.1690 0.0000
# 6 0.0000 0.0000 0.0000 0.0000 0.0000 28.0439
#
#
#
# Elastic Compliance Matrix: (Units=1/GPa)
#
#
# Indices 1 2 3 4 5 6 
#
# 1 0.005851 -0.010357 -0.002264 0.000000 0.000000 0.000000
# 2 -0.010357 0.060822 0.010378 0.000000 0.000000 0.000000
# 3 -0.002264 0.010378 0.015514 0.000000 0.000000 0.000000
# 4 0.000000 0.000000 0.000000 0.058693 0.000000 0.000000
# 5 0.000000 0.000000 0.000000 0.000000 0.065924 0.000000
# 6 0.000000 0.000000 0.000000 0.000000 0.000000 0.035658
#
#
# Mechanical properties :
#
#
# Convention : Reuss Voigt Hill
#
# Bulk Modulus (GPa) = 12.86968 46.72227 29.79597
# Shear Modulus (GPa) = 18.32519 32.43387 25.37953
#
# Velocity S-wave (km/s) = 2.84367 3.78316 3.34655
# Velocity P-wave (km/s) = 4.05722 6.30083 5.29913
#
# Compressibility (1/GPa) = 0.07770202
#
# Stress axis : x y z
#
# Youngs Moduli (GPa) = 170.91011 16.44142 64.45663
#
# Poissons Ratio (x) = 0.17029 0.14591
# Poissons Ratio (y) = 1.77019 -0.66896
# Poissons Ratio (z) = 0.38688 -0.17064
#
# Static dielectric constant tensor:
#      x y z
#    x 1.940860 0.000000 0.000000 
#    y 0.000000 1.787790 0.000000 
#    z 0.000000 0.000000 1.757200 
# 
# From -- ./inp_files/35414.got.cif
#   From: 2010.05.17/outbox.cif.g08.bks.cpg/sg63_18_cif.got.tgz:35414.got - 2010.06.03 15:47:04.
