data_PCOD9473027
_publ_section_title
;
Structure prediction by ZEFSAII (Michael W. Deem and Ramdas Pophale) SiO2 
 PCOD9473027
Probable space group: C M C M
;
_chemical_formula_sum "Si O2"
_cell_formula_units_Z 80
_cell_length_a 12.866927
_cell_length_b 11.189040
_cell_length_c 25.142346
_cell_angle_alpha 90.000000
_cell_angle_beta 90.000000
_cell_angle_gamma 90.000000
_cell_volume 3619.707371
_symmetry_space_group_name_H-M "C M C M"
_symmetry_group_IT_number 63
_symmetry_cell_setting 'orthorhombic'
loop_
_space_group_symop_operation_xyz
x,y,z
-x,-y,1/2+z
x,-y,-z
-x,y,1/2-z
-x,-y,-z
x,y,1/2-z
-x,y,z
x,-y,1/2+z
1/2+x,1/2+y,z
1/2-x,1/2-y,1/2+z
1/2+x,1/2-y,-z
1/2-x,1/2+y,1/2-z
1/2-x,1/2-y,-z
1/2+x,1/2+y,1/2-z
1/2-x,1/2+y,z
1/2+x,1/2-y,1/2+z
loop_
_atom_site_type_symbol
_atom_site_label
_atom_site_fract_x
_atom_site_fract_y
_atom_site_fract_z
Si Si1 0.655286 0.167530 0.113119
Si Si2 0.342784 0.957160 0.189333
Si Si3 0.113679 0.251054 0.110266
Si Si4 0.826968 0.636644 0.502346
Si Si5 0.886316 0.117356 0.690561
O O1 0.782269 0.171032 0.108327
O O2 0.614340 0.151520 0.053580
O O3 0.624058 0.288911 0.142775
O O4 0.620893 0.062293 0.151538
O O5 0.376516 0.967351 0.250000
O O6 0.375073 0.832397 0.162729
O O7 0.216522 0.961819 0.188490
O O8 0.000000 0.191794 0.108983
O O9 0.119313 0.339908 0.058995
O O10 0.784784 0.500000 0.500000
O O11 0.750000 0.750000 0.500000
O O12 0.881201 0.176115 0.750000
O O13 0.000000 0.058757 0.687400
#
# Coordination Sequence:
#
# PCOD9473027 Si02
#       5
#    16  16  16  16  16
#     4  10  20  36  59  81 114 151 192 240 296 351
#     4  10  20  36  57  80 111 152 192 237 292 350
#     4  10  22  38  57  85 118 152 194 243 296 356
#     4  10  20  38  63  86 117 156 198 243 301 355
#     4   9  19  35  54  80 111 145 190 240 289 346
#
# _framework density 22.101234000000002
#
# number of rings (size 3 to 8) (size 9 to 14) (size 15 to 20)
#    0.000    2.200    2.000    0.600    0.000    4.000 
#    0.000    0.000    0.000    2.400    0.000    0.000 
#    0.000    0.000    0.000    0.000    0.000    0.000 
#
# Total GULP energy -222929.796431 kJ/mol
# GULP energy per Si atom -5573.244911 kJ/mol
# Density = 2.205093 g / cm^3
# Si number density = 22.101234 Si / 1000 Ang^3
#
#
#
# Elastic Constant Matrix: (Units=GPa)
#
#
# Indices 1 2 3 4 5 6 
#
# 1 151.2125 7.3778 0.0100 0.0000 0.0000 0.0000
# 2 7.3778 63.4469 30.5817 0.0000 0.0000 0.0000
# 3 0.0100 30.5817 182.8745 0.0000 0.0000 0.0000
# 4 0.0000 0.0000 0.0000 38.4479 0.0000 0.0000
# 5 0.0000 0.0000 0.0000 0.0000 -11.7704 0.0000
# 6 0.0000 0.0000 0.0000 0.0000 0.0000 -8.9583
#
#
#
# Elastic Compliance Matrix: (Units=1/GPa)
#
#
# Indices 1 2 3 4 5 6 
#
# 1 0.006654 -0.000841 0.000140 0.000000 0.000000 0.000000
# 2 -0.000841 0.017249 -0.002885 0.000000 0.000000 0.000000
# 3 0.000140 -0.002885 0.005951 0.000000 0.000000 0.000000
# 4 0.000000 0.000000 0.000000 0.026009 0.000000 0.000000
# 5 0.000000 0.000000 0.000000 0.000000 -0.084959 0.000000
# 6 0.000000 0.000000 0.000000 0.000000 0.000000 -0.111628
#
#
# Mechanical properties :
#
#
# Convention : Reuss Voigt Hill
#
# Bulk Modulus (GPa) = 44.08578 52.60808 48.34693
# Shear Modulus (GPa) = -39.68514 27.51481 -6.08516
#
# Velocity S-wave (km/s) = -4.24206 3.53221 -1.66111
# Velocity P-wave (km/s) = 2.00073 6.36319 4.27126
#
# Compressibility (1/GPa) = 0.02268305
#
# Stress axis : x y z
#
# Youngs Moduli (GPa) = 150.27978 57.97298 168.05042
#
# Poissons Ratio (x) = 0.04878 -0.02359
# Poissons Ratio (y) = 0.12645 0.48475
# Poissons Ratio (z) = -0.02109 0.16722
#
# Static dielectric constant tensor:
#      x y z
#    x 1.900270 0.000000 0.000000 
#    y 0.000000 1.762960 0.000000 
#    z 0.000000 0.000000 1.820830 
# 
# From -- ./inp_files/62545.got.cif
#   From: 2010.05.17/outbox.cif.g08.bks.cpg/sg63_32_cif.got.tgz:62545.got - 2010.06.03 15:47:04.
