data_PCOD9473523
_publ_section_title
;
Structure prediction by ZEFSAII (Michael W. Deem and Ramdas Pophale) SiO2 
 PCOD9473523
Probable space group: C M C M
;
_chemical_formula_sum "Si O2"
_cell_formula_units_Z 64
_cell_length_a 8.242186
_cell_length_b 31.311950
_cell_length_c 12.463020
_cell_angle_alpha 90.000000
_cell_angle_beta 90.000000
_cell_angle_gamma 90.000000
_cell_volume 3216.442691
_symmetry_space_group_name_H-M "C M C M"
_symmetry_group_IT_number 63
_symmetry_cell_setting 'orthorhombic'
loop_
_space_group_symop_operation_xyz
x,y,z
-x,-y,1/2+z
x,-y,-z
-x,y,1/2-z
-x,-y,-z
x,y,1/2-z
-x,y,z
x,-y,1/2+z
1/2+x,1/2+y,z
1/2-x,1/2-y,1/2+z
1/2+x,1/2-y,-z
1/2-x,1/2+y,1/2-z
1/2-x,1/2-y,-z
1/2+x,1/2+y,1/2-z
1/2-x,1/2+y,z
1/2+x,1/2-y,1/2+z
loop_
_atom_site_type_symbol
_atom_site_label
_atom_site_fract_x
_atom_site_fract_y
_atom_site_fract_z
Si Si1 0.307728 0.703126 0.967259
Si Si2 0.315686 0.165420 0.750000
Si Si3 0.196762 0.950647 0.481668
Si Si4 0.813784 0.075035 0.750000
Si Si5 0.305797 0.871832 0.874686
O O1 0.500000 0.702989 0.948413
O O2 0.216821 0.691277 0.857635
O O3 0.250000 0.750000 0.000000
O O4 0.267635 0.667160 0.056401
O O5 0.500000 0.149041 0.750000
O O6 0.193898 0.125845 0.750000
O O7 0.259174 0.939300 0.362631
O O8 0.261355 0.916408 0.567107
O O9 0.000000 0.946586 0.483431
O O10 0.237688 0.000000 0.500000
O O11 0.000000 0.059479 0.750000
O O12 0.252272 0.871453 0.750000
O O13 0.500000 0.867091 0.876663
#
# Coordination Sequence:
#
# PCOD9473523 Si02
#       5
#    16   8  16   8  16
#     4  12  26  45  69  97 130 169 216 267 321 384
#     4  12  24  42  68  97 130 169 214 264 323 383
#     4  10  22  39  64  95 128 168 215 267 322 385
#     4  10  20  38  62  93 128 165 214 268 319 375
#     4  11  25  44  64  92 131 170 213 267 324 386
#
# _framework density 19.897756999999999
#
# number of rings (size 3 to 8) (size 9 to 14) (size 15 to 20)
#    0.000    1.000    2.500    4.125    3.500    2.500 
#    0.000    0.000    0.000    0.000    0.000    0.000 
#    0.000    0.000    0.000    0.000    0.000    0.000 
#
# Total GULP energy -178854.036766 kJ/mol
# GULP energy per Si atom -5589.188649 kJ/mol
# Density = 1.985247 g / cm^3
# Si number density = 19.897757 Si / 1000 Ang^3
#
#
#
# Elastic Constant Matrix: (Units=GPa)
#
#
# Indices 1 2 3 4 5 6 
#
# 1 56.8890 -1.4567 6.9773 0.0000 0.0000 0.0000
# 2 -1.4567 131.1109 65.8496 0.0000 0.0000 0.0000
# 3 6.9773 65.8496 173.3030 0.0000 0.0000 0.0000
# 4 0.0000 0.0000 0.0000 41.1204 0.0000 0.0000
# 5 0.0000 0.0000 0.0000 0.0000 30.1227 0.0000
# 6 0.0000 0.0000 0.0000 0.0000 0.0000 27.9432
#
#
#
# Elastic Compliance Matrix: (Units=1/GPa)
#
#
# Indices 1 2 3 4 5 6 
#
# 1 0.017715 0.000686 -0.000974 0.000000 0.000000 0.000000
# 2 0.000686 0.009453 -0.003619 0.000000 0.000000 0.000000
# 3 -0.000974 -0.003619 0.007185 0.000000 0.000000 0.000000
# 4 0.000000 0.000000 0.000000 0.024319 0.000000 0.000000
# 5 0.000000 0.000000 0.000000 0.000000 0.033198 0.000000
# 6 0.000000 0.000000 0.000000 0.000000 0.000000 0.035787
#
#
# Mechanical properties :
#
#
# Convention : Reuss Voigt Hill
#
# Bulk Modulus (GPa) = 37.68200 56.00482 46.84341
# Shear Modulus (GPa) = 34.64620 39.16608 36.90614
#
# Velocity S-wave (km/s) = 4.17731 4.44144 4.31140
# Velocity P-wave (km/s) = 6.49965 7.38304 6.95538
#
# Compressibility (1/GPa) = 0.02653787
#
# Stress axis : x y z
#
# Youngs Moduli (GPa) = 56.44904 105.79203 139.18550
#
# Poissons Ratio (x) = -0.07257 0.13555
# Poissons Ratio (y) = -0.03872 0.50375
# Poissons Ratio (z) = 0.05497 0.38289
#
# Static dielectric constant tensor:
#      x y z
#    x 1.701960 0.000000 0.000000 
#    y 0.000000 1.716270 0.000000 
#    z 0.000000 0.000000 1.686250 
# 
# From -- ./inp_files/16246.got.cif
#   From: 2010.05.17/outbox.cif.g08.bks.cpg/sg63_9_cif.got.tgz:16246.got - 2010.06.03 15:47:04.
