data_PCOD9473320
_publ_section_title
;
Structure prediction by ZEFSAII (Michael W. Deem and Ramdas Pophale) SiO2 
 PCOD9473320
Probable space group: C M C M
;
_chemical_formula_sum "Si O2"
_cell_formula_units_Z 80
_cell_length_a 25.536287
_cell_length_b 5.282194
_cell_length_c 24.956512
_cell_angle_alpha 90.000000
_cell_angle_beta 90.000000
_cell_angle_gamma 90.000000
_cell_volume 3366.324556
_symmetry_space_group_name_H-M "C M C M"
_symmetry_group_IT_number 63
_symmetry_cell_setting 'orthorhombic'
loop_
_space_group_symop_operation_xyz
x,y,z
-x,-y,1/2+z
x,-y,-z
-x,y,1/2-z
-x,-y,-z
x,y,1/2-z
-x,y,z
x,-y,1/2+z
1/2+x,1/2+y,z
1/2-x,1/2-y,1/2+z
1/2+x,1/2-y,-z
1/2-x,1/2+y,1/2-z
1/2-x,1/2-y,-z
1/2+x,1/2+y,1/2-z
1/2-x,1/2+y,z
1/2+x,1/2-y,1/2+z
loop_
_atom_site_type_symbol
_atom_site_label
_atom_site_fract_x
_atom_site_fract_y
_atom_site_fract_z
Si Si1 0.057640 0.111303 0.692603
Si Si2 0.165504 0.154935 0.552042
Si Si3 0.719212 0.931931 0.864021
Si Si4 0.126803 0.759850 0.864301
Si Si5 0.059214 0.403463 0.920146
O O1 0.063045 0.245561 0.750000
O O2 0.058687 0.276516 0.638951
O O3 0.000000 0.987697 0.692510
O O4 0.101988 0.904184 0.684829
O O5 0.205758 0.369956 0.572842
O O6 0.106871 0.274482 0.547274
O O7 0.179944 0.000000 0.500000
O O8 0.161748 0.950979 0.600469
O O9 0.746445 0.672988 0.846803
O O10 0.660978 0.018530 0.846956
O O11 0.080263 0.681365 0.905159
O O12 0.000000 0.391600 0.941475
#
# Coordination Sequence:
#
# PCOD9473320 Si02
#       5
#    16  16  16  16  16
#     4   9  18  34  59  91 123 154 191 240 300 364
#     4  10  22  38  56  84 120 160 210 260 308 366
#     4  11  22  40  62  88 117 157 202 254 309 357
#     4  10  20  37  58  85 119 156 198 249 305 363
#     4   9  19  34  54  83 122 162 200 244 301 368
#
# _framework density 23.764792
#
# number of rings (size 3 to 8) (size 9 to 14) (size 15 to 20)
#    0.000    2.200    2.000    0.600    0.000    6.000 
#    0.000    3.000    0.000    1.200    0.000    0.000 
#    0.000    0.000    0.000    0.000    0.000    0.000 
#
# Total GULP energy -222943.482525 kJ/mol
# GULP energy per Si atom -5573.587063 kJ/mol
# Density = 2.371070 g / cm^3
# Si number density = 23.764792 Si / 1000 Ang^3
#
#
#
# Elastic Constant Matrix: (Units=GPa)
#
#
# Indices 1 2 3 4 5 6 
#
# 1 28.1395 32.8548 -6.2591 0.0000 0.0000 0.0000
# 2 32.8548 101.5837 12.4594 0.0000 0.0000 0.0000
# 3 -6.2591 12.4594 72.8530 0.0000 0.0000 0.0000
# 4 0.0000 0.0000 0.0000 15.7011 0.0000 0.0000
# 5 0.0000 0.0000 0.0000 0.0000 13.6691 0.0000
# 6 0.0000 0.0000 0.0000 0.0000 0.0000 44.2611
#
#
#
# Elastic Compliance Matrix: (Units=1/GPa)
#
#
# Indices 1 2 3 4 5 6 
#
# 1 0.062386 -0.021281 0.008999 0.000000 0.000000 0.000000
# 2 -0.021281 0.017314 -0.004789 0.000000 0.000000 0.000000
# 3 0.008999 -0.004789 0.015319 0.000000 0.000000 0.000000
# 4 0.000000 0.000000 0.000000 0.063690 0.000000 0.000000
# 5 0.000000 0.000000 0.000000 0.000000 0.073158 0.000000
# 6 0.000000 0.000000 0.000000 0.000000 0.000000 0.022593
#
#
# Mechanical properties :
#
#
# Convention : Reuss Voigt Hill
#
# Bulk Modulus (GPa) = 16.42664 31.18736 23.80700
# Shear Modulus (GPa) = 16.18677 25.62768 20.90722
#
# Velocity S-wave (km/s) = 2.61267 3.28745 2.96929
# Velocity P-wave (km/s) = 4.00357 5.24991 4.66852
#
# Compressibility (1/GPa) = 0.06087673
#
# Stress axis : x y z
#
# Youngs Moduli (GPa) = 16.02921 57.75546 65.28035
#
# Poissons Ratio (x) = 1.22910 -0.58748
# Poissons Ratio (y) = 0.34112 0.31266
# Poissons Ratio (z) = -0.14425 0.27662
#
# Static dielectric constant tensor:
#      x y z
#    x 1.985300 0.000000 0.000000 
#    y 0.000000 1.993870 0.000000 
#    z 0.000000 0.000000 1.893090 
# 
# From -- ./inp_files/70896.got.cif
#   From: 2010.05.17/outbox.cif.g08.bks.cpg/sg63_36_cif.got.tgz:70896.got - 2010.06.03 15:47:04.
