data_PCOD9473470
_publ_section_title
;
Structure prediction by ZEFSAII (Michael W. Deem and Ramdas Pophale) SiO2 
 PCOD9473470
Probable space group: C M C M
;
_chemical_formula_sum "Si O2"
_cell_formula_units_Z 64
_cell_length_a 7.611668
_cell_length_b 38.188642
_cell_length_c 9.982871
_cell_angle_alpha 90.000000
_cell_angle_beta 90.000000
_cell_angle_gamma 90.000000
_cell_volume 2901.813598
_symmetry_space_group_name_H-M "C M C M"
_symmetry_group_IT_number 63
_symmetry_cell_setting 'orthorhombic'
loop_
_space_group_symop_operation_xyz
x,y,z
-x,-y,1/2+z
x,-y,-z
-x,y,1/2-z
-x,-y,-z
x,y,1/2-z
-x,y,z
x,-y,1/2+z
1/2+x,1/2+y,z
1/2-x,1/2-y,1/2+z
1/2+x,1/2-y,-z
1/2-x,1/2+y,1/2-z
1/2-x,1/2-y,-z
1/2+x,1/2+y,1/2-z
1/2-x,1/2+y,z
1/2+x,1/2-y,1/2+z
loop_
_atom_site_type_symbol
_atom_site_label
_atom_site_fract_x
_atom_site_fract_y
_atom_site_fract_z
Si Si1 0.791423 0.030034 0.598028
Si Si2 0.787428 0.591102 0.101952
Si Si3 0.214947 0.275030 0.750000
Si Si4 0.710355 0.304932 0.250000
Si Si5 0.793101 0.668744 0.039248
O O1 0.720328 0.030163 0.750000
O O2 0.768238 0.066294 0.518896
O O3 0.000000 0.023714 0.609293
O O4 0.717002 0.000000 0.500000
O O5 0.731152 0.578271 0.250000
O O6 0.000000 0.591554 0.101175
O O7 0.722545 0.630912 0.082012
O O8 0.277190 0.235170 0.750000
O O9 0.274498 0.297966 0.622684
O O10 0.000000 0.273070 0.750000
O O11 0.500000 0.304097 0.250000
O O12 0.769331 0.324395 0.116607
O O13 0.000000 0.667355 0.070374
#
# Coordination Sequence:
#
# PCOD9473470 Si02
#       5
#    16  16   8   8  16
#     4  10  22  40  62  88 119 155 189 224 275 337
#     4  10  21  38  61  86 112 148 195 240 282 332
#     4   9  18  37  61  81 108 149 196 241 286 339
#     4  11  23  35  53  85 118 147 188 243 292 341
#     4  10  20  38  60  81 110 153 195 235 287 344
#
# _framework density 22.055173
#
# number of rings (size 3 to 8) (size 9 to 14) (size 15 to 20)
#    0.000    2.000    1.250    1.875    1.750    3.500 
#    0.000    1.875    0.000    0.000    0.000    0.000 
#    0.000    0.000    0.000    0.000    0.000    0.000 
#
# Total GULP energy -178802.404626 kJ/mol
# GULP energy per Si atom -5587.575145 kJ/mol
# Density = 2.200497 g / cm^3
# Si number density = 22.055173 Si / 1000 Ang^3
#
#
#
# Elastic Constant Matrix: (Units=GPa)
#
#
# Indices 1 2 3 4 5 6 
#
# 1 44.8727 0.4386 -3.0610 0.0000 0.0000 0.0000
# 2 0.4386 96.2202 55.9329 0.0000 0.0000 0.0000
# 3 -3.0610 55.9329 196.0313 0.0000 0.0000 0.0000
# 4 0.0000 0.0000 0.0000 36.0586 0.0000 0.0000
# 5 0.0000 0.0000 0.0000 0.0000 -18.5174 0.0000
# 6 0.0000 0.0000 0.0000 0.0000 0.0000 25.6381
#
#
#
# Elastic Compliance Matrix: (Units=1/GPa)
#
#
# Indices 1 2 3 4 5 6 
#
# 1 0.022320 -0.000365 0.000453 0.000000 0.000000 0.000000
# 2 -0.000365 0.012465 -0.003562 0.000000 0.000000 0.000000
# 3 0.000453 -0.003562 0.006125 0.000000 0.000000 0.000000
# 4 0.000000 0.000000 0.000000 0.027733 0.000000 0.000000
# 5 0.000000 0.000000 0.000000 0.000000 -0.054003 0.000000
# 6 0.000000 0.000000 0.000000 0.000000 0.000000 0.039004
#
#
# Mechanical properties :
#
#
# Convention : Reuss Voigt Hill
#
# Bulk Modulus (GPa) = 29.44593 49.30502 39.37547
# Shear Modulus (GPa) = 69.52852 27.55677 48.54264
#
# Velocity S-wave (km/s) = 5.62079 3.53859 4.69653
# Velocity P-wave (km/s) = 7.45012 6.25294 6.87763
#
# Compressibility (1/GPa) = 0.03396055
#
# Stress axis : x y z
#
# Youngs Moduli (GPa) = 44.80345 80.22264 163.27241
#
# Poissons Ratio (x) = 0.02927 -0.07390
# Poissons Ratio (y) = 0.01635 0.58164
# Poissons Ratio (z) = -0.02028 0.28578
#
# Static dielectric constant tensor:
#      x y z
#    x 1.839560 0.000000 0.000000 
#    y 0.000000 1.791750 0.000000 
#    z 0.000000 0.000000 1.770120 
# 
# From -- ./inp_files/3205.got.cif
#   From: 2010.05.17/outbox.cif.g08.bks.cpg/sg63_2_cif.got.tgz:3205.got - 2010.06.03 15:47:04.
