data_PCOD9473294
_publ_section_title
;
Structure prediction by ZEFSAII (Michael W. Deem and Ramdas Pophale) SiO2 
 PCOD9473294
Probable space group: C M C M
;
_chemical_formula_sum "Si O2"
_cell_formula_units_Z 72
_cell_length_a 18.388388
_cell_length_b 24.374230
_cell_length_c 7.865126
_cell_angle_alpha 90.000000
_cell_angle_beta 90.000000
_cell_angle_gamma 90.000000
_cell_volume 3525.171483
_symmetry_space_group_name_H-M "C M C M"
_symmetry_group_IT_number 63
_symmetry_cell_setting 'orthorhombic'
loop_
_space_group_symop_operation_xyz
x,y,z
-x,-y,1/2+z
x,-y,-z
-x,y,1/2-z
-x,-y,-z
x,y,1/2-z
-x,y,z
x,-y,1/2+z
1/2+x,1/2+y,z
1/2-x,1/2-y,1/2+z
1/2+x,1/2-y,-z
1/2-x,1/2+y,1/2-z
1/2-x,1/2-y,-z
1/2+x,1/2+y,1/2-z
1/2-x,1/2+y,z
1/2+x,1/2-y,1/2+z
loop_
_atom_site_type_symbol
_atom_site_label
_atom_site_fract_x
_atom_site_fract_y
_atom_site_fract_z
Si Si1 0.000000 0.936074 0.048165
Si Si2 0.784920 0.563600 0.455501
Si Si3 0.855102 0.870873 0.952733
Si Si4 0.582313 0.135299 0.453484
Si Si5 0.415830 0.742037 0.044520
O O1 0.000000 0.931429 0.250000
O O2 0.927961 0.906040 0.980989
O O3 0.000000 0.000000 0.000000
O O4 0.780210 0.500000 0.500000
O O5 0.784876 0.567368 0.250000
O O6 0.714942 0.597166 0.520826
O O7 0.858958 0.592044 0.518903
O O8 0.845028 0.865791 0.750000
O O9 0.869139 0.809379 0.019245
O O10 0.578154 0.128812 0.250000
O O11 0.500000 0.129233 0.522265
O O12 0.607444 0.197559 0.488156
O O13 0.415619 0.741156 0.250000
O O14 0.500000 0.734427 0.989206
#
# Coordination Sequence:
#
# PCOD9473294 Si02
#       5
#     8  16  16  16  16
#     4  12  24  36  54  80 110 148 191 226 269 322
#     4  10  22  38  56  78 108 146 186 230 279 326
#     4  10  20  37  57  79 111 147 183 226 274 323
#     4   9  19  36  56  80 111 144 179 226 281 330
#     4   9  17  32  55  81 109 142 179 220 270 327
#
# _framework density 20.424537999999998
#
# number of rings (size 3 to 8) (size 9 to 14) (size 15 to 20)
#    0.000    2.222    1.111    1.667    0.000    5.778 
#    0.000    0.000    0.000    0.000    0.000    0.000 
#    0.000    0.000    0.000    0.000    0.000    0.000 
#
# Total GULP energy -201012.866843 kJ/mol
# GULP energy per Si atom -5583.690746 kJ/mol
# Density = 2.037805 g / cm^3
# Si number density = 20.424538 Si / 1000 Ang^3
#
#
#
# Elastic Constant Matrix: (Units=GPa)
#
#
# Indices 1 2 3 4 5 6 
#
# 1 123.2197 77.5485 2.9817 0.0000 0.0000 0.0000
# 2 77.5485 100.1497 0.4188 0.0000 0.0000 0.0000
# 3 2.9817 0.4188 19.0426 0.0000 0.0000 0.0000
# 4 0.0000 0.0000 0.0000 32.1242 0.0000 0.0000
# 5 0.0000 0.0000 0.0000 0.0000 -0.5176 0.0000
# 6 0.0000 0.0000 0.0000 0.0000 0.0000 46.2886
#
#
#
# Elastic Compliance Matrix: (Units=1/GPa)
#
#
# Indices 1 2 3 4 5 6 
#
# 1 0.015923 -0.012321 -0.002222 0.000000 0.000000 0.000000
# 2 -0.012321 0.019519 0.001500 0.000000 0.000000 0.000000
# 3 -0.002222 0.001500 0.052829 0.000000 0.000000 0.000000
# 4 0.000000 0.000000 0.000000 0.031129 0.000000 0.000000
# 5 0.000000 0.000000 0.000000 0.000000 -1.932084 0.000000
# 6 0.000000 0.000000 0.000000 0.000000 0.000000 0.021604
#
#
# Mechanical properties :
#
#
# Convention : Reuss Voigt Hill
#
# Bulk Modulus (GPa) = 16.08100 44.92331 30.50216
# Shear Modulus (GPa) = -2.86653 26.34324 11.73835
#
# Velocity S-wave (km/s) = -1.18597 3.59525 2.39993
# Velocity P-wave (km/s) = 2.45257 6.26713 4.75879
#
# Compressibility (1/GPa) = 0.06218517
#
# Stress axis : x y z
#
# Youngs Moduli (GPa) = 62.80097 51.23237 18.92904
#
# Poissons Ratio (x) = 0.63121 0.04207
# Poissons Ratio (y) = 0.77374 -0.02839
# Poissons Ratio (z) = 0.13956 -0.07684
#
# Static dielectric constant tensor:
#      x y z
#    x 1.427550 0.000000 0.000000 
#    y 0.000000 1.694950 0.000000 
#    z 0.000000 0.000000 1.735450 
# 
# From -- ./inp_files/4661.got.cif
#   From: 2010.05.17/outbox.cif.g08.bks.cpg/sg63_3_cif.got.tgz:4661.got - 2010.06.03 15:47:04.
