data_PCOD9473825
_publ_section_title
;
Structure prediction by ZEFSAII (Michael W. Deem and Ramdas Pophale) SiO2 
 PCOD9473825
Probable space group: C M C M
;
_chemical_formula_sum "Si O2"
_cell_formula_units_Z 112
_cell_length_a 13.808869
_cell_length_b 29.125665
_cell_length_c 14.671671
_cell_angle_alpha 90.000000
_cell_angle_beta 90.000000
_cell_angle_gamma 90.000000
_cell_volume 5900.835929
_symmetry_space_group_name_H-M "C M C M"
_symmetry_group_IT_number 63
_symmetry_cell_setting 'orthorhombic'
loop_
_space_group_symop_operation_xyz
x,y,z
-x,-y,1/2+z
x,-y,-z
-x,y,1/2-z
-x,-y,-z
x,y,1/2-z
-x,y,z
x,-y,1/2+z
1/2+x,1/2+y,z
1/2-x,1/2-y,1/2+z
1/2+x,1/2-y,-z
1/2-x,1/2+y,1/2-z
1/2-x,1/2-y,-z
1/2+x,1/2+y,1/2-z
1/2-x,1/2+y,z
1/2+x,1/2-y,1/2+z
loop_
_atom_site_type_symbol
_atom_site_label
_atom_site_fract_x
_atom_site_fract_y
_atom_site_fract_z
Si Si1 0.615407 0.438208 0.851927
Si Si2 0.890798 0.515900 0.396013
Si Si3 0.114244 0.216723 0.514357
Si Si4 0.204489 0.966431 0.147561
Si Si5 0.772556 0.287662 0.860979
Si Si6 0.386051 0.388514 0.030208
Si Si7 0.388547 0.880279 0.640681
O O1 0.655500 0.429988 0.750000
O O2 0.500000 0.441704 0.844760
O O3 0.653090 0.487090 0.887193
O O4 0.634507 0.398679 0.924066
O O5 0.893619 0.500000 0.500000
O O6 0.816100 0.481335 0.350410
O O7 0.857237 0.568926 0.390948
O O8 0.000000 0.514742 0.358770
O O9 0.155715 0.251059 0.590729
O O10 0.173845 0.219412 0.419096
O O11 0.128489 0.164704 0.549553
O O12 0.000000 0.224136 0.499565
O O13 0.168485 0.958554 0.250000
O O14 0.179308 0.922924 0.087606
O O15 0.764079 0.282941 0.750000
O O16 0.819836 0.337587 0.881865
O O17 0.500000 0.399795 0.046195
O O18 0.391833 0.882468 0.750000
O O19 0.500000 0.872691 0.608148
#
# Coordination Sequence:
#
# PCOD9473825 Si02
#       7
#    16  16  16  16  16  16  16
#     4   9  18  32  51  78 111 147 192 240 285 337
#     4  10  21  35  53  80 112 149 194 247 304 352
#     4  10  23  41  62  93 126 156 195 247 302 360
#     4  11  22  33  51  77 111 158 203 241 282 336
#     4  10  22  40  66  94 120 155 199 247 303 364
#     4  10  21  37  57  82 117 157 193 234 287 348
#     4   9  18  34  58  86 113 145 193 250 302 354
#
# _framework density 18.980362
#
# number of rings (size 3 to 8) (size 9 to 14) (size 15 to 20)
#    0.000    2.143    0.000    2.571    4.000    5.143 
#    0.000    2.857    0.000    0.000    0.000    2.000 
#    0.000    0.000    0.000    0.000    0.000    0.000 
#
# Total GULP energy -312501.185487 kJ/mol
# GULP energy per Si atom -5580.378312 kJ/mol
# Density = 1.893716 g / cm^3
# Si number density = 18.980362 Si / 1000 Ang^3
#
#
#
# Elastic Constant Matrix: (Units=GPa)
#
#
# Indices 1 2 3 4 5 6 
#
# 1 108.3233 69.6908 38.5844 0.0000 0.0000 0.0000
# 2 69.6908 124.8819 50.5855 0.0000 0.0000 0.0000
# 3 38.5844 50.5855 77.2006 0.0000 0.0000 0.0000
# 4 0.0000 0.0000 0.0000 21.0124 0.0000 0.0000
# 5 0.0000 0.0000 0.0000 0.0000 12.9274 0.0000
# 6 0.0000 0.0000 0.0000 0.0000 0.0000 29.8312
#
#
#
# Elastic Compliance Matrix: (Units=1/GPa)
#
#
# Indices 1 2 3 4 5 6 
#
# 1 0.014806 -0.007167 -0.002703 0.000000 0.000000 0.000000
# 2 -0.007167 0.014371 -0.005834 0.000000 0.000000 0.000000
# 3 -0.002703 -0.005834 0.018127 0.000000 0.000000 0.000000
# 4 0.000000 0.000000 0.000000 0.047591 0.000000 0.000000
# 5 0.000000 0.000000 0.000000 0.000000 0.077355 0.000000
# 6 0.000000 0.000000 0.000000 0.000000 0.000000 0.033522
#
#
# Mechanical properties :
#
#
# Convention : Reuss Voigt Hill
#
# Bulk Modulus (GPa) = 62.91773 69.79192 66.35483
# Shear Modulus (GPa) = 20.62033 22.85719 21.73876
#
# Velocity S-wave (km/s) = 3.29964 3.47400 3.38794
# Velocity P-wave (km/s) = 6.90924 7.27613 7.09506
#
# Compressibility (1/GPa) = 0.01589377
#
# Stress axis : x y z
#
# Youngs Moduli (GPa) = 67.54124 69.58697 55.16580
#
# Poissons Ratio (x) = 0.49875 0.14914
# Poissons Ratio (y) = 0.48409 0.32184
# Poissons Ratio (z) = 0.18260 0.40597
#
# Static dielectric constant tensor:
#      x y z
#    x 1.713370 0.000000 0.000000 
#    y 0.000000 1.635610 0.000000 
#    z 0.000000 0.000000 1.581950 
# 
# From -- ./inp_files/32550.got.cif
#   From: 2010.05.17/outbox.cif.g08.bks.cpg/sg63_17_cif.got.tgz:32550.got - 2010.06.03 15:47:04.
