data_PCOD9473106
_publ_section_title
;
Structure prediction by ZEFSAII (Michael W. Deem and Ramdas Pophale) SiO2 
 PCOD9473106
Probable space group: C M C M
;
_chemical_formula_sum "Si O2"
_cell_formula_units_Z 72
_cell_length_a 24.316930
_cell_length_b 9.887241
_cell_length_c 13.976991
_cell_angle_alpha 90.000000
_cell_angle_beta 90.000000
_cell_angle_gamma 90.000000
_cell_volume 3360.450869
_symmetry_space_group_name_H-M "C M C M"
_symmetry_group_IT_number 63
_symmetry_cell_setting 'orthorhombic'
loop_
_space_group_symop_operation_xyz
x,y,z
-x,-y,1/2+z
x,-y,-z
-x,y,1/2-z
-x,-y,-z
x,y,1/2-z
-x,y,z
x,-y,1/2+z
1/2+x,1/2+y,z
1/2-x,1/2-y,1/2+z
1/2+x,1/2-y,-z
1/2-x,1/2+y,1/2-z
1/2-x,1/2-y,-z
1/2+x,1/2+y,1/2-z
1/2-x,1/2+y,z
1/2+x,1/2-y,1/2+z
loop_
_atom_site_type_symbol
_atom_site_label
_atom_site_fract_x
_atom_site_fract_y
_atom_site_fract_z
Si Si1 0.405182 0.500000 0.500000
Si Si2 0.691204 0.422959 0.361397
Si Si3 0.064473 0.556192 0.358472
Si Si4 0.096914 0.286794 0.041910
Si Si5 0.714212 0.727571 0.136304
O O1 0.364821 0.558786 0.581548
O O2 0.431603 0.361627 0.539070
O O3 0.679333 0.399851 0.250000
O O4 0.721658 0.567024 0.371610
O O5 0.732493 0.308717 0.396873
O O6 0.084280 0.574245 0.250000
O O7 0.069661 0.399992 0.390660
O O8 0.095521 0.646151 0.436780
O O9 0.000000 0.593306 0.363261
O O10 0.158454 0.265895 0.081776
O O11 0.706583 0.758551 0.250000
#
# Coordination Sequence:
#
# PCOD9473106 Si02
#       5
#     8  16  16  16  16
#     4  10  22  34  53  84 116 148 179 220 272 322
#     4   9  19  34  49  72 111 152 188 224 260 302
#     4  10  22  41  62  82 105 136 176 223 275 332
#     4  10  20  36  58  84 111 140 179 225 271 323
#     4   9  18  32  51  76 108 148 188 223 261 307
#
# _framework density 21.425695000000001
#
# number of rings (size 3 to 8) (size 9 to 14) (size 15 to 20)
#    0.000    2.444    0.000    2.000    0.000   10.667 
#    0.000    4.444    0.000    2.667    0.000    0.000 
#    0.000    0.000    0.000    0.000    0.000    0.000 
#
# Total GULP energy -201077.616448 kJ/mol
# GULP energy per Si atom -5585.489346 kJ/mol
# Density = 2.137693 g / cm^3
# Si number density = 21.425695 Si / 1000 Ang^3
#
#
#
# Elastic Constant Matrix: (Units=GPa)
#
#
# Indices 1 2 3 4 5 6 
#
# 1 32.3345 15.6934 14.0329 0.0000 0.0000 0.0000
# 2 15.6934 93.6179 19.9132 0.0000 0.0000 0.0000
# 3 14.0329 19.9132 105.3576 0.0000 0.0000 0.0000
# 4 0.0000 0.0000 0.0000 26.3017 0.0000 0.0000
# 5 0.0000 0.0000 0.0000 0.0000 11.3119 0.0000
# 6 0.0000 0.0000 0.0000 0.0000 0.0000 7.2817
#
#
#
# Elastic Compliance Matrix: (Units=1/GPa)
#
#
# Indices 1 2 3 4 5 6 
#
# 1 0.034998 -0.005080 -0.003701 0.000000 0.000000 0.000000
# 2 -0.005080 0.011866 -0.001566 0.000000 0.000000 0.000000
# 3 -0.003701 -0.001566 0.010281 0.000000 0.000000 0.000000
# 4 0.000000 0.000000 0.000000 0.038020 0.000000 0.000000
# 5 0.000000 0.000000 0.000000 0.000000 0.088402 0.000000
# 6 0.000000 0.000000 0.000000 0.000000 0.000000 0.137330
#
#
# Mechanical properties :
#
#
# Convention : Reuss Voigt Hill
#
# Bulk Modulus (GPa) = 27.43426 36.73212 32.08319
# Shear Modulus (GPa) = 14.13458 21.09045 17.61251
#
# Velocity S-wave (km/s) = 2.57125 3.14084 2.87021
# Velocity P-wave (km/s) = 4.65267 5.50766 5.09812
#
# Compressibility (1/GPa) = 0.03645078
#
# Stress axis : x y z
#
# Youngs Moduli (GPa) = 28.57268 84.27177 97.27132
#
# Poissons Ratio (x) = 0.42806 0.36005
# Poissons Ratio (y) = 0.14514 0.15235
# Poissons Ratio (z) = 0.10576 0.13199
#
# Static dielectric constant tensor:
#      x y z
#    x 1.739330 0.000000 0.000000 
#    y 0.000000 1.803420 0.000000 
#    z 0.000000 0.000000 1.823510 
# 
# From -- ./inp_files/38325.got.cif
#   From: 2010.05.17/outbox.cif.g08.bks.cpg/sg63_20_cif.got.tgz:38325.got - 2010.06.03 15:47:04.
