data_PCOD9473750
_publ_section_title
;
Structure prediction by ZEFSAII (Michael W. Deem and Ramdas Pophale) SiO2 
 PCOD9473750
Probable space group: C M C M
;
_chemical_formula_sum "Si O2"
_cell_formula_units_Z 80
_cell_length_a 9.050301
_cell_length_b 22.647278
_cell_length_c 23.424035
_cell_angle_alpha 90.000000
_cell_angle_beta 90.000000
_cell_angle_gamma 90.000000
_cell_volume 4801.099902
_symmetry_space_group_name_H-M "C M C M"
_symmetry_group_IT_number 63
_symmetry_cell_setting 'orthorhombic'
loop_
_space_group_symop_operation_xyz
x,y,z
-x,-y,1/2+z
x,-y,-z
-x,y,1/2-z
-x,-y,-z
x,y,1/2-z
-x,y,z
x,-y,1/2+z
1/2+x,1/2+y,z
1/2-x,1/2-y,1/2+z
1/2+x,1/2-y,-z
1/2-x,1/2+y,1/2-z
1/2-x,1/2-y,-z
1/2+x,1/2+y,1/2-z
1/2-x,1/2+y,z
1/2+x,1/2-y,1/2+z
loop_
_atom_site_type_symbol
_atom_site_label
_atom_site_fract_x
_atom_site_fract_y
_atom_site_fract_z
Si Si1 0.174805 0.537889 0.250000
Si Si2 0.175022 0.644311 0.597374
Si Si3 0.823413 0.322510 0.750000
Si Si4 0.176515 0.219598 0.133807
Si Si5 0.825978 0.059416 0.686657
Si Si6 0.677812 0.811036 0.978236
O O1 0.203550 0.607059 0.250000
O O2 0.246650 0.503579 0.303792
O O3 0.000000 0.527813 0.250000
O O4 0.203856 0.711313 0.618908
O O5 0.260762 0.598494 0.636546
O O6 0.210647 0.643580 0.529696
O O7 0.000000 0.633964 0.603525
O O8 0.749421 0.295533 0.806170
O O9 0.000000 0.312583 0.750000
O O10 0.251344 0.180595 0.083749
O O11 0.000000 0.210792 0.134321
O O12 0.802246 0.088475 0.750000
O O13 0.000000 0.051158 0.679355
O O14 0.500000 0.805109 0.974410
O O15 0.750000 0.750000 0.000000
#
# Coordination Sequence:
#
# PCOD9473750 Si02
#       6
#     8  16   8  16  16  16
#     4   9  19  36  53  68  93 130 168 205 254 303
#     4   9  18  31  50  75 104 135 163 196 244 295
#     4  11  23  36  53  74  97 132 170 209 250 295
#     4  10  21  34  50  75 105 138 169 201 247 297
#     4   9  19  31  48  75  99 125 162 205 249 290
#     4   9  17  31  49  72 102 136 170 202 242 296
#
# _framework density 16.662849000000001
#
# number of rings (size 3 to 8) (size 9 to 14) (size 15 to 20)
#    0.600    2.000    0.000    3.300    1.400    6.400 
#    0.000    0.000    0.000    1.200    0.000    8.400 
#    0.000    0.000    0.000    0.000    0.000    0.000 
#
# Total GULP energy -222675.918325 kJ/mol
# GULP energy per Si atom -5566.897958 kJ/mol
# Density = 1.662492 g / cm^3
# Si number density = 16.662849 Si / 1000 Ang^3
#
#
#
# Elastic Constant Matrix: (Units=GPa)
#
#
# Indices 1 2 3 4 5 6 
#
# 1 67.2638 31.8239 56.2562 0.0000 0.0000 0.0000
# 2 31.8239 28.5736 27.0672 0.0000 0.0000 0.0000
# 3 56.2562 27.0672 136.3454 0.0000 0.0000 0.0000
# 4 0.0000 0.0000 0.0000 -9.0625 0.0000 0.0000
# 5 0.0000 0.0000 0.0000 0.0000 34.8509 0.0000
# 6 0.0000 0.0000 0.0000 0.0000 0.0000 19.7915
#
#
#
# Elastic Compliance Matrix: (Units=1/GPa)
#
#
# Indices 1 2 3 4 5 6 
#
# 1 0.038968 -0.034695 -0.009191 0.000000 0.000000 0.000000
# 2 -0.034695 0.073993 -0.000374 0.000000 0.000000 0.000000
# 3 -0.009191 -0.000374 0.011201 0.000000 0.000000 0.000000
# 4 0.000000 0.000000 0.000000 -0.110345 0.000000 0.000000
# 5 0.000000 0.000000 0.000000 0.000000 0.028694 0.000000
# 6 0.000000 0.000000 0.000000 0.000000 0.000000 0.050527
#
#
# Mechanical properties :
#
#
# Convention : Reuss Voigt Hill
#
# Bulk Modulus (GPa) = 28.05605 51.38637 39.72121
# Shear Modulus (GPa) = 25.84817 16.91836 21.38327
#
# Velocity S-wave (km/s) = 3.94286 3.18989 3.58619
# Velocity P-wave (km/s) = 6.13206 6.66881 6.40606
#
# Compressibility (1/GPa) = 0.03564294
#
# Stress axis : x y z
#
# Youngs Moduli (GPa) = 25.66185 13.51479 89.28043
#
# Poissons Ratio (x) = 0.46889 0.82055
# Poissons Ratio (y) = 0.89033 0.03339
# Poissons Ratio (z) = 0.23585 0.00505
#
# Static dielectric constant tensor:
#      x y z
#    x 1.551060 0.000000 0.000000 
#    y 0.000000 1.542140 0.000000 
#    z 0.000000 0.000000 1.599980 
# 
# From -- ./inp_files/51231.got.cif
#   From: 2010.05.17/outbox.cif.g08.bks.cpg/sg63_26_cif.got.tgz:51231.got - 2010.06.03 15:47:04.
