data_PCOD9473243
_publ_section_title
;
Structure prediction by ZEFSAII (Michael W. Deem and Ramdas Pophale) SiO2 
 PCOD9473243
Probable space group: C M C M
;
_chemical_formula_sum "Si O2"
_cell_formula_units_Z 112
_cell_length_a 13.686452
_cell_length_b 13.744968
_cell_length_c 26.436436
_cell_angle_alpha 90.000000
_cell_angle_beta 90.000000
_cell_angle_gamma 90.000000
_cell_volume 4973.218237
_symmetry_space_group_name_H-M "C M C M"
_symmetry_group_IT_number 63
_symmetry_cell_setting 'orthorhombic'
loop_
_space_group_symop_operation_xyz
x,y,z
-x,-y,1/2+z
x,-y,-z
-x,y,1/2-z
-x,-y,-z
x,y,1/2-z
-x,y,z
x,-y,1/2+z
1/2+x,1/2+y,z
1/2-x,1/2-y,1/2+z
1/2+x,1/2-y,-z
1/2-x,1/2+y,1/2-z
1/2-x,1/2-y,-z
1/2+x,1/2+y,1/2-z
1/2-x,1/2+y,z
1/2+x,1/2-y,1/2+z
loop_
_atom_site_type_symbol
_atom_site_label
_atom_site_fract_x
_atom_site_fract_y
_atom_site_fract_z
Si Si1 0.386852 0.322270 0.899948
Si Si2 0.117499 0.538442 0.445487
Si Si3 0.383560 0.385396 0.006413
Si Si4 0.699622 0.658097 0.693458
Si Si5 0.387975 0.106288 0.641428
Si Si6 0.616718 0.746039 0.904200
Si Si7 0.116737 0.054795 0.305967
O O1 0.500000 0.356966 0.904098
O O2 0.342972 0.339464 0.954999
O O3 0.389826 0.209196 0.887541
O O4 0.344416 0.382748 0.852979
O O5 0.154507 0.500000 0.500000
O O6 0.150564 0.473641 0.398074
O O7 0.131881 0.651109 0.432001
O O8 0.000000 0.523180 0.446949
O O9 0.500000 0.362973 0.008739
O O10 0.373674 0.500000 0.000000
O O11 0.345923 0.338287 0.057887
O O12 0.683720 0.695613 0.750000
O O13 0.811258 0.623474 0.685886
O O14 0.669582 0.731413 0.649163
O O15 0.637110 0.559174 0.686594
O O16 0.500000 0.083934 0.656880
O O17 0.500000 0.736313 0.895230
O O18 0.155543 0.082403 0.250000
O O19 0.000000 0.070597 0.304340
#
# Coordination Sequence:
#
# PCOD9473243 Si02
#       7
#    16  16  16  16  16  16  16
#     4   9  17  32  56  84 115 150 186 228 281 340
#     4   9  18  37  64  89 119 161 203 245 296 356
#     4   9  16  28  52  87 123 152 178 221 285 352
#     4  11  24  40  59  84 115 152 196 248 302 356
#     4  10  22  40  59  80 110 151 200 247 290 344
#     4  10  20  36  61  92 124 158 197 242 299 365
#     4   9  18  34  57  84 114 149 188 233 291 357
#
# _framework density 22.520629
#
# number of rings (size 3 to 8) (size 9 to 14) (size 15 to 20)
#    0.000    2.429    0.000    2.143    0.000    8.571 
#    0.000    8.571    0.000    2.571    0.000    0.000 
#    0.000    0.000    0.000    0.000    0.000    0.000 
#
# Total GULP energy -312925.306105 kJ/mol
# GULP energy per Si atom -5587.951895 kJ/mol
# Density = 2.246937 g / cm^3
# Si number density = 22.520629 Si / 1000 Ang^3
#
#
#
# Elastic Constant Matrix: (Units=GPa)
#
#
# Indices 1 2 3 4 5 6 
#
# 1 76.3590 -10.3658 25.4606 0.0000 0.0000 0.0000
# 2 -10.3658 43.4640 45.7078 0.0000 0.0000 0.0000
# 3 25.4606 45.7078 151.1224 0.0000 0.0000 0.0000
# 4 0.0000 0.0000 0.0000 -144.1328 0.0000 0.0000
# 5 0.0000 0.0000 0.0000 0.0000 16.8704 0.0000
# 6 0.0000 0.0000 0.0000 0.0000 0.0000 13.3169
#
#
#
# Elastic Compliance Matrix: (Units=1/GPa)
#
#
# Indices 1 2 3 4 5 6 
#
# 1 0.016378 0.009983 -0.005779 0.000000 0.000000 0.000000
# 2 0.009983 0.039824 -0.013727 0.000000 0.000000 0.000000
# 3 -0.005779 -0.013727 0.011743 0.000000 0.000000 0.000000
# 4 0.000000 0.000000 0.000000 -0.006938 0.000000 0.000000
# 5 0.000000 0.000000 0.000000 0.000000 0.059275 0.000000
# 6 0.000000 0.000000 0.000000 0.000000 0.000000 0.075093
#
#
# Mechanical properties :
#
#
# Convention : Reuss Voigt Hill
#
# Bulk Modulus (GPa) = 20.45012 43.61673 32.03343
# Shear Modulus (GPa) = 21.67136 -8.77957 6.44589
#
# Velocity S-wave (km/s) = 3.10544 -1.97659 1.69364
# Velocity P-wave (km/s) = 4.68601 3.76833 4.25200
#
# Compressibility (1/GPa) = 0.04889947
#
# Stress axis : x y z
#
# Youngs Moduli (GPa) = 61.05719 25.11052 85.16062
#
# Poissons Ratio (x) = -0.25068 0.49212
# Poissons Ratio (y) = -0.60954 1.16899
# Poissons Ratio (z) = 0.35284 0.34469
#
# Static dielectric constant tensor:
#      x y z
#    x 1.910040 0.000000 0.000000 
#    y 0.000000 1.815490 0.000000 
#    z 0.000000 0.000000 1.834780 
# 
# From -- ./inp_files/62989.got.cif
#   From: 2010.05.17/outbox.cif.g08.bks.cpg/sg63_32_cif.got.tgz:62989.got - 2010.06.03 15:47:04.
