data_PCOD9473078
_publ_section_title
;
Structure prediction by ZEFSAII (Michael W. Deem and Ramdas Pophale) SiO2 
 PCOD9473078
Probable space group: C M C M
;
_chemical_formula_sum "Si O2"
_cell_formula_units_Z 80
_cell_length_a 13.792659
_cell_length_b 16.809596
_cell_length_c 18.817419
_cell_angle_alpha 90.000000
_cell_angle_beta 90.000000
_cell_angle_gamma 90.000000
_cell_volume 4362.800259
_symmetry_space_group_name_H-M "C M C M"
_symmetry_group_IT_number 63
_symmetry_cell_setting 'orthorhombic'
loop_
_space_group_symop_operation_xyz
x,y,z
-x,-y,1/2+z
x,-y,-z
-x,y,1/2-z
-x,-y,-z
x,y,1/2-z
-x,y,z
x,-y,1/2+z
1/2+x,1/2+y,z
1/2-x,1/2-y,1/2+z
1/2+x,1/2-y,-z
1/2-x,1/2+y,1/2-z
1/2-x,1/2-y,-z
1/2+x,1/2+y,1/2-z
1/2-x,1/2+y,z
1/2+x,1/2-y,1/2+z
loop_
_atom_site_type_symbol
_atom_site_label
_atom_site_fract_x
_atom_site_fract_y
_atom_site_fract_z
Si Si1 0.610693 0.447212 0.165101
Si Si2 0.234401 0.790865 0.167165
Si Si3 0.886992 0.234502 0.447868
Si Si4 0.208528 0.064519 0.062087
Si Si5 0.612340 0.836746 0.592803
O O1 0.610801 0.457079 0.250000
O O2 0.500000 0.430343 0.142189
O O3 0.680246 0.372935 0.148572
O O4 0.650514 0.525115 0.126807
O O5 0.262292 0.792499 0.250000
O O6 0.323559 0.773941 0.114592
O O7 0.157638 0.720148 0.152817
O O8 0.843459 0.146646 0.459910
O O9 0.878911 0.286196 0.519532
O O10 0.000000 0.229068 0.428952
O O11 0.317356 0.088045 0.084398
O O12 0.208064 0.000000 0.000000
O O13 0.500000 0.855213 0.604860
#
# Coordination Sequence:
#
# PCOD9473078 Si02
#       5
#    16  16  16  16  16
#     4  10  21  36  54  78 108 140 173 214 268 323
#     4  10  20  36  58  81 107 140 180 223 264 314
#     4  10  21  37  57  80 108 143 181 222 266 315
#     4  11  21  34  54  81 109 137 174 219 267 317
#     4  10  21  37  56  78 106 142 183 222 262 314
#
# _framework density 18.336846000000001
#
# number of rings (size 3 to 8) (size 9 to 14) (size 15 to 20)
#    0.000    1.800    0.000    6.000    0.000    8.400 
#    0.000    1.000    0.000    1.200    0.000    0.000 
#    0.000    0.000    0.000    0.000    0.000    0.000 
#
# Total GULP energy -223466.563337 kJ/mol
# GULP energy per Si atom -5586.664083 kJ/mol
# Density = 1.829511 g / cm^3
# Si number density = 18.336846 Si / 1000 Ang^3
#
#
#
# Elastic Constant Matrix: (Units=GPa)
#
#
# Indices 1 2 3 4 5 6 
#
# 1 96.4065 19.9999 -2.6022 0.0000 0.0000 0.0000
# 2 19.9999 56.5096 7.7411 0.0000 0.0000 0.0000
# 3 -2.6022 7.7411 24.0330 0.0000 0.0000 0.0000
# 4 0.0000 0.0000 0.0000 26.0621 0.0000 0.0000
# 5 0.0000 0.0000 0.0000 0.0000 21.4850 0.0000
# 6 0.0000 0.0000 0.0000 0.0000 0.0000 17.8133
#
#
#
# Elastic Compliance Matrix: (Units=1/GPa)
#
#
# Indices 1 2 3 4 5 6 
#
# 1 0.011353 -0.004380 0.002640 0.000000 0.000000 0.000000
# 2 -0.004380 0.020202 -0.006982 0.000000 0.000000 0.000000
# 3 0.002640 -0.006982 0.044144 0.000000 0.000000 0.000000
# 4 0.000000 0.000000 0.000000 0.038370 0.000000 0.000000
# 5 0.000000 0.000000 0.000000 0.000000 0.046544 0.000000
# 6 0.000000 0.000000 0.000000 0.000000 0.000000 0.056138
#
#
# Mechanical properties :
#
#
# Convention : Reuss Voigt Hill
#
# Bulk Modulus (GPa) = 17.16536 25.24742 21.20639
# Shear Modulus (GPa) = 19.71513 23.19277 21.45395
#
# Velocity S-wave (km/s) = 3.28253 3.56029 3.42422
# Velocity P-wave (km/s) = 4.87320 5.54071 5.21764
#
# Compressibility (1/GPa) = 0.05825686
#
# Stress axis : x y z
#
# Youngs Moduli (GPa) = 88.08589 49.49885 22.65305
#
# Poissons Ratio (x) = 0.21678 -0.05980
# Poissons Ratio (y) = 0.38578 0.15815
# Poissons Ratio (z) = -0.23254 0.34558
#
# Static dielectric constant tensor:
#      x y z
#    x 1.628570 0.000000 0.000000 
#    y 0.000000 1.611060 0.000000 
#    z 0.000000 0.000000 1.630890 
# 
# From -- ./inp_files/43974.got.cif
#   From: 2010.05.17/outbox.cif.g08.bks.cpg/sg63_22_cif.got.tgz:43974.got - 2010.06.03 15:47:04.
