data_PCOD9473582
_publ_section_title
;
Structure prediction by ZEFSAII (Michael W. Deem and Ramdas Pophale) SiO2 
 PCOD9473582
Probable space group: C M C M
;
_chemical_formula_sum "Si O2"
_cell_formula_units_Z 104
_cell_length_a 21.584407
_cell_length_b 27.028736
_cell_length_c 9.301170
_cell_angle_alpha 90.000000
_cell_angle_beta 90.000000
_cell_angle_gamma 90.000000
_cell_volume 5426.295495
_symmetry_space_group_name_H-M "C M C M"
_symmetry_group_IT_number 63
_symmetry_cell_setting 'orthorhombic'
loop_
_space_group_symop_operation_xyz
x,y,z
-x,-y,1/2+z
x,-y,-z
-x,y,1/2-z
-x,-y,-z
x,y,1/2-z
-x,y,z
x,-y,1/2+z
1/2+x,1/2+y,z
1/2-x,1/2-y,1/2+z
1/2+x,1/2-y,-z
1/2-x,1/2+y,1/2-z
1/2-x,1/2-y,-z
1/2+x,1/2+y,1/2-z
1/2-x,1/2+y,z
1/2+x,1/2-y,1/2+z
loop_
_atom_site_type_symbol
_atom_site_label
_atom_site_fract_x
_atom_site_fract_y
_atom_site_fract_z
Si Si1 0.000000 0.948367 0.418615
Si Si2 0.572445 0.269752 0.580151
Si Si3 0.902123 0.886514 0.584907
Si Si4 0.833254 0.610370 0.078942
Si Si5 0.574150 0.949824 0.084276
Si Si6 0.784039 0.049543 0.081323
Si Si7 0.191111 0.724713 0.421944
O O1 0.058167 0.916861 0.472031
O O2 0.000000 0.956140 0.250000
O O3 0.000000 0.000000 0.500000
O O4 0.579092 0.257008 0.750000
O O5 0.500000 0.260596 0.539996
O O6 0.586108 0.328486 0.567526
O O7 0.625735 0.243487 0.487555
O O8 0.920756 0.899111 0.750000
O O9 0.832336 0.905419 0.567124
O O10 0.843875 0.605079 0.250000
O O11 0.781909 0.570368 0.032617
O O12 0.808436 0.665562 0.055155
O O13 0.894308 0.596703 0.991882
O O14 0.593468 0.953655 0.250000
O O15 0.500000 0.945408 0.079025
O O16 0.591147 0.000000 0.000000
O O17 0.780325 0.037704 0.250000
O O18 0.803460 0.000000 0.000000
O O19 0.193863 0.734116 0.250000
O O20 0.250000 0.750000 0.500000
#
# Coordination Sequence:
#
# PCOD9473582 Si02
#       7
#     8  16  16  16  16  16  16
#     4  12  24  36  54  82 116 152 196 246 291 342
#     4  10  21  40  66  91 120 161 205 250 309 376
#     4  10  20  39  61  82 114 157 198 237 292 355
#     4  10  22  40  60  84 115 155 198 245 299 357
#     4  10  21  37  59  88 121 157 196 239 290 356
#     4  10  21  36  57  83 114 150 193 239 288 349
#     4  11  24  42  64  90 122 159 207 262 315 370
#
# _framework density 19.165929999999999
#
# number of rings (size 3 to 8) (size 9 to 14) (size 15 to 20)
#    0.000    1.692    0.769    3.462    0.000    9.846 
#    0.000    4.615    0.000    0.000    0.000    0.000 
#    0.000    0.000    0.000    0.000    0.000    0.000 
#
# Total GULP energy -290391.571301 kJ/mol
# GULP energy per Si atom -5584.453294 kJ/mol
# Density = 1.912231 g / cm^3
# Si number density = 19.165930 Si / 1000 Ang^3
#
#
#
# Elastic Constant Matrix: (Units=GPa)
#
#
# Indices 1 2 3 4 5 6 
#
# 1 91.9908 32.6115 46.2658 0.0000 0.0000 0.0000
# 2 32.6115 51.9081 39.2798 0.0000 0.0000 0.0000
# 3 46.2658 39.2798 84.5332 0.0000 0.0000 0.0000
# 4 0.0000 0.0000 0.0000 33.0961 0.0000 0.0000
# 5 0.0000 0.0000 0.0000 0.0000 28.2273 0.0000
# 6 0.0000 0.0000 0.0000 0.0000 0.0000 35.2122
#
#
#
# Elastic Compliance Matrix: (Units=1/GPa)
#
#
# Indices 1 2 3 4 5 6 
#
# 1 0.015873 -0.005241 -0.006252 0.000000 0.000000 0.000000
# 2 -0.005241 0.031443 -0.011742 0.000000 0.000000 0.000000
# 3 -0.006252 -0.011742 0.020708 0.000000 0.000000 0.000000
# 4 0.000000 0.000000 0.000000 0.030215 0.000000 0.000000
# 5 0.000000 0.000000 0.000000 0.000000 0.035427 0.000000
# 6 0.000000 0.000000 0.000000 0.000000 0.000000 0.028399
#
#
# Mechanical properties :
#
#
# Convention : Reuss Voigt Hill
#
# Bulk Modulus (GPa) = 46.39693 51.63848 49.01770
# Shear Modulus (GPa) = 23.17819 26.65876 24.91847
#
# Velocity S-wave (km/s) = 3.48133 3.73358 3.60966
# Velocity P-wave (km/s) = 6.35769 6.75185 6.55773
#
# Compressibility (1/GPa) = 0.02155315
#
# Stress axis : x y z
#
# Youngs Moduli (GPa) = 62.99943 31.80347 48.29148
#
# Poissons Ratio (x) = 0.16669 0.30192
# Poissons Ratio (y) = 0.33020 0.56704
# Poissons Ratio (z) = 0.39388 0.37343
#
# Static dielectric constant tensor:
#      x y z
#    x 1.695090 0.000000 0.000000 
#    y 0.000000 1.660220 0.000000 
#    z 0.000000 0.000000 1.639400 
# 
# From -- ./inp_files/8801.got.cif
#   From: 2010.05.17/outbox.cif.g08.bks.cpg/sg63_5_cif.got.tgz:8801.got - 2010.06.03 15:47:04.
