data_PCOD9473285
_publ_section_title
;
Structure prediction by ZEFSAII (Michael W. Deem and Ramdas Pophale) SiO2 
 PCOD9473285
Probable space group: C M C M
;
_chemical_formula_sum "Si O2"
_cell_formula_units_Z 64
_cell_length_a 15.080384
_cell_length_b 25.616189
_cell_length_c 8.505093
_cell_angle_alpha 90.000000
_cell_angle_beta 90.000000
_cell_angle_gamma 90.000000
_cell_volume 3285.534153
_symmetry_space_group_name_H-M "C M C M"
_symmetry_group_IT_number 63
_symmetry_cell_setting 'orthorhombic'
loop_
_space_group_symop_operation_xyz
x,y,z
-x,-y,1/2+z
x,-y,-z
-x,y,1/2-z
-x,-y,-z
x,y,1/2-z
-x,y,z
x,-y,1/2+z
1/2+x,1/2+y,z
1/2-x,1/2-y,1/2+z
1/2+x,1/2-y,-z
1/2-x,1/2+y,1/2-z
1/2-x,1/2-y,-z
1/2+x,1/2+y,1/2-z
1/2-x,1/2+y,z
1/2+x,1/2-y,1/2+z
loop_
_atom_site_type_symbol
_atom_site_label
_atom_site_fract_x
_atom_site_fract_y
_atom_site_fract_z
Si Si1 0.500000 0.941358 0.940424
Si Si2 0.648775 0.252468 0.061209
Si Si3 0.145278 0.137079 0.438258
Si Si4 0.000000 0.058736 0.936678
Si Si5 0.649347 0.862116 0.558764
O O1 0.500000 0.941838 0.750000
O O2 0.414055 0.908518 0.993770
O O3 0.500000 0.000000 0.000000
O O4 0.646808 0.256007 0.250000
O O5 0.612808 0.195400 0.014621
O O6 0.750000 0.250000 0.000000
O O7 0.611041 0.305932 0.992349
O O8 0.143672 0.135478 0.250000
O O9 0.084975 0.091227 0.504336
O O10 0.248171 0.132326 0.491616
O O11 0.000000 0.057537 0.750000
O O12 0.000000 0.000000 0.000000
O O13 0.650379 0.862624 0.750000
#
# Coordination Sequence:
#
# PCOD9473285 Si02
#       5
#     8  16  16   8  16
#     4  10  20  37  54  75 105 142 186 228 263 312
#     4   9  16  30  53  83 113 147 186 227 276 334
#     4  10  20  37  58  84 115 147 180 226 281 337
#     4  12  26  43  60  81 107 144 190 236 283 340
#     4   8  17  33  56  81 112 149 183 220 272 328
#
# _framework density 19.479329
#
# number of rings (size 3 to 8) (size 9 to 14) (size 15 to 20)
#    0.000    2.500    0.000    4.125    0.000    2.000 
#    0.000   12.500    0.000    0.000    0.000    0.000 
#    0.000    0.000    0.000    0.000    0.000    0.000 
#
# Total GULP energy -178516.911662 kJ/mol
# GULP energy per Si atom -5578.653489 kJ/mol
# Density = 1.943499 g / cm^3
# Si number density = 19.479329 Si / 1000 Ang^3
#
#
#
# Elastic Constant Matrix: (Units=GPa)
#
#
# Indices 1 2 3 4 5 6 
#
# 1 112.7665 95.7853 27.6248 0.0000 0.0000 0.0000
# 2 95.7853 233.5681 49.7896 0.0000 0.0000 0.0000
# 3 27.6248 49.7896 66.8684 0.0000 0.0000 0.0000
# 4 0.0000 0.0000 0.0000 39.4021 0.0000 0.0000
# 5 0.0000 0.0000 0.0000 0.0000 15.8475 0.0000
# 6 0.0000 0.0000 0.0000 0.0000 0.0000 36.2584
#
#
#
# Elastic Compliance Matrix: (Units=1/GPa)
#
#
# Indices 1 2 3 4 5 6 
#
# 1 0.013781 -0.005275 -0.001765 0.000000 0.000000 0.000000
# 2 -0.005275 0.007109 -0.003114 0.000000 0.000000 0.000000
# 3 -0.001765 -0.003114 0.018002 0.000000 0.000000 0.000000
# 4 0.000000 0.000000 0.000000 0.025379 0.000000 0.000000
# 5 0.000000 0.000000 0.000000 0.000000 0.063102 0.000000
# 6 0.000000 0.000000 0.000000 0.000000 0.000000 0.027580
#
#
# Mechanical properties :
#
#
# Convention : Reuss Voigt Hill
#
# Bulk Modulus (GPa) = 53.81088 84.40029 69.10558
# Shear Modulus (GPa) = 27.55487 34.30180 30.92834
#
# Velocity S-wave (km/s) = 3.76516 4.20090 3.98898
# Velocity P-wave (km/s) = 6.82543 8.18244 7.53454
#
# Compressibility (1/GPa) = 0.01858360
#
# Stress axis : x y z
#
# Youngs Moduli (GPa) = 72.56227 140.67648 55.54813
#
# Poissons Ratio (x) = 0.74211 0.09806
# Poissons Ratio (y) = 0.38279 0.17295
# Poissons Ratio (z) = 0.12810 0.43801
#
# Static dielectric constant tensor:
#      x y z
#    x 1.705300 0.000000 0.000000 
#    y 0.000000 1.677720 0.000000 
#    z 0.000000 0.000000 1.661710 
# 
# From -- ./inp_files/4294.got.cif
#   From: 2010.05.17/outbox.cif.g08.bks.cpg/sg63_3_cif.got.tgz:4294.got - 2010.06.03 15:47:04.
