data_PCOD9473856
_publ_section_title
;
Structure prediction by ZEFSAII (Michael W. Deem and Ramdas Pophale) SiO2 
 PCOD9473856
Probable space group: C M C M
;
_chemical_formula_sum "Si O2"
_cell_formula_units_Z 104
_cell_length_a 7.489964
_cell_length_b 29.339516
_cell_length_c 20.301811
_cell_angle_alpha 90.000000
_cell_angle_beta 90.000000
_cell_angle_gamma 90.000000
_cell_volume 4461.361919
_symmetry_space_group_name_H-M "C M C M"
_symmetry_group_IT_number 63
_symmetry_cell_setting 'orthorhombic'
loop_
_space_group_symop_operation_xyz
x,y,z
-x,-y,1/2+z
x,-y,-z
-x,y,1/2-z
-x,-y,-z
x,y,1/2-z
-x,y,z
x,-y,1/2+z
1/2+x,1/2+y,z
1/2-x,1/2-y,1/2+z
1/2+x,1/2-y,-z
1/2-x,1/2+y,1/2-z
1/2-x,1/2-y,-z
1/2+x,1/2+y,1/2-z
1/2-x,1/2+y,z
1/2+x,1/2-y,1/2+z
loop_
_atom_site_type_symbol
_atom_site_label
_atom_site_fract_x
_atom_site_fract_y
_atom_site_fract_z
Si Si1 0.708408 0.275752 0.352121
Si Si2 0.716109 0.087512 0.876588
Si Si3 0.706772 0.489845 0.571459
Si Si4 0.711505 0.578216 0.321866
Si Si5 0.215756 0.323902 0.875180
Si Si6 0.740930 0.147278 0.750000
Si Si7 0.784360 0.666945 0.974444
O O1 0.500000 0.277598 0.331537
O O2 0.776776 0.224512 0.346582
O O3 0.796904 0.313918 0.307290
O O4 0.721427 0.291936 0.427746
O O5 0.500000 0.086602 0.873946
O O6 0.783807 0.036902 0.888722
O O7 0.776733 0.109918 0.808516
O O8 0.770567 0.120486 0.937173
O O9 0.789300 0.500000 0.500000
O O10 0.500000 0.476909 0.559097
O O11 0.787308 0.450188 0.616705
O O12 0.785629 0.566003 0.250000
O O13 0.500000 0.568261 0.320105
O O14 0.733514 0.631712 0.334721
O O15 0.000000 0.321269 0.876629
O O16 0.277986 0.329650 0.950691
O O17 0.000000 0.667987 0.974714
#
# Coordination Sequence:
#
# PCOD9473856 Si02
#       7
#    16  16  16  16  16   8  16
#     4  10  21  35  56  85 116 153 201 246 289 347
#     4  10  21  37  60  87 118 154 195 242 295 355
#     4  10  22  40  63  90 119 154 196 244 298 356
#     4  10  23  41  57  82 119 156 195 241 295 355
#     4  10  21  37  60  86 115 154 200 247 293 343
#     4  10  22  38  54  82 122 154 188 244 296 342
#     4   9  19  36  56  85 121 153 190 244 300 348
#
# _framework density 23.311268999999999
#
# number of rings (size 3 to 8) (size 9 to 14) (size 15 to 20)
#    0.000    2.154    0.000    1.846    2.154    6.154 
#    0.000    0.000    0.000    0.000    0.000    0.000 
#    0.000    0.000    0.000    0.000    0.000    0.000 
#
# Total GULP energy -289718.365355 kJ/mol
# GULP energy per Si atom -5571.507026 kJ/mol
# Density = 2.325821 g / cm^3
# Si number density = 23.311269 Si / 1000 Ang^3
#
#
#
# Elastic Constant Matrix: (Units=GPa)
#
#
# Indices 1 2 3 4 5 6 
#
# 1 67.1093 -19.1331 -3.6398 0.0000 0.0000 0.0000
# 2 -19.1331 102.6314 23.1657 0.0000 0.0000 0.0000
# 3 -3.6398 23.1657 138.9979 0.0000 0.0000 0.0000
# 4 0.0000 0.0000 0.0000 17.2222 0.0000 0.0000
# 5 0.0000 0.0000 0.0000 0.0000 -52.9643 0.0000
# 6 0.0000 0.0000 0.0000 0.0000 0.0000 -12.2753
#
#
#
# Elastic Compliance Matrix: (Units=1/GPa)
#
#
# Indices 1 2 3 4 5 6 
#
# 1 0.015738 0.002952 -0.000080 0.000000 0.000000 0.000000
# 2 0.002952 0.010678 -0.001702 0.000000 0.000000 0.000000
# 3 -0.000080 -0.001702 0.007476 0.000000 0.000000 0.000000
# 4 0.000000 0.000000 0.000000 0.058065 0.000000 0.000000
# 5 0.000000 0.000000 0.000000 0.000000 -0.018881 0.000000
# 6 0.000000 0.000000 0.000000 0.000000 0.000000 -0.081465
#
#
# Mechanical properties :
#
#
# Convention : Reuss Voigt Hill
#
# Bulk Modulus (GPa) = 27.59971 34.39156 30.99564
# Shear Modulus (GPa) = 3704.16919 10.95290 1857.56105
#
# Velocity S-wave (km/s) = 39.90555 2.16996 28.25918
# Velocity P-wave (km/s) = 46.20754 4.58950 32.83443
#
# Compressibility (1/GPa) = 0.03623226
#
# Stress axis : x y z
#
# Youngs Moduli (GPa) = 63.53891 93.64876 133.76176
#
# Poissons Ratio (x) = -0.27646 0.01068
# Poissons Ratio (y) = -0.18757 0.22771
# Poissons Ratio (z) = 0.00507 0.15942
#
# Static dielectric constant tensor:
#      x y z
#    x 1.939410 0.000000 0.000000 
#    y 0.000000 1.830530 0.000000 
#    z 0.000000 0.000000 1.876640 
# 
# From -- ./inp_files/51477.got.cif
#   From: 2010.05.17/outbox.cif.g08.bks.cpg/sg63_26_cif.got.tgz:51477.got - 2010.06.03 15:47:04.
