data_PCOD9473153
_publ_section_title
;
Structure prediction by ZEFSAII (Michael W. Deem and Ramdas Pophale) SiO2 
 PCOD9473153
Probable space group: C M C M
;
_chemical_formula_sum "Si O2"
_cell_formula_units_Z 80
_cell_length_a 24.483385
_cell_length_b 20.188496
_cell_length_c 7.665590
_cell_angle_alpha 90.000000
_cell_angle_beta 90.000000
_cell_angle_gamma 90.000000
_cell_volume 3788.968677
_symmetry_space_group_name_H-M "C M C M"
_symmetry_group_IT_number 63
_symmetry_cell_setting 'orthorhombic'
loop_
_space_group_symop_operation_xyz
x,y,z
-x,-y,1/2+z
x,-y,-z
-x,y,1/2-z
-x,-y,-z
x,y,1/2-z
-x,y,z
x,-y,1/2+z
1/2+x,1/2+y,z
1/2-x,1/2-y,1/2+z
1/2+x,1/2-y,-z
1/2-x,1/2+y,1/2-z
1/2-x,1/2-y,-z
1/2+x,1/2+y,1/2-z
1/2-x,1/2+y,z
1/2+x,1/2-y,1/2+z
loop_
_atom_site_type_symbol
_atom_site_label
_atom_site_fract_x
_atom_site_fract_y
_atom_site_fract_z
Si Si1 0.875615 0.306325 0.463616
Si Si2 0.342262 0.577723 0.957572
Si Si3 0.063158 0.174260 0.042180
Si Si4 0.744231 0.827647 0.040899
Si Si5 0.939735 0.568122 0.541023
O O1 0.872548 0.302200 0.250000
O O2 0.898934 0.235437 0.524737
O O3 0.817583 0.335878 0.523060
O O4 0.916863 0.362791 0.518830
O O5 0.341041 0.583370 0.750000
O O6 0.292414 0.624518 0.027715
O O7 0.336104 0.500000 0.000000
O O8 0.400382 0.608712 0.014411
O O9 0.058682 0.184115 0.250000
O O10 0.000000 0.172717 0.975899
O O11 0.744770 0.835840 0.250000
O O12 0.750000 0.750000 0.000000
O O13 0.908771 0.500000 0.500000
O O14 0.942313 0.572169 0.750000
O O15 0.000000 0.562201 0.464157
#
# Coordination Sequence:
#
# PCOD9473153 Si02
#       5
#    16  16  16  16  16
#     4   9  17  32  56  82 110 142 182 228 274 332
#     4  11  24  40  59  85 117 153 191 234 286 340
#     4  10  20  36  61  88 112 147 193 238 288 343
#     4  10  20  36  59  84 110 144 184 226 278 330
#     4   9  17  30  48  72 105 143 180 219 265 316
#
# _framework density 21.113925999999999
#
# number of rings (size 3 to 8) (size 9 to 14) (size 15 to 20)
#    0.000    2.200    2.000    1.200    0.000    4.800 
#    0.000    2.000    0.000    2.400    0.000    0.000 
#    0.000    0.000    0.000    0.000    0.000    0.000 
#
# Total GULP energy -222747.585328 kJ/mol
# GULP energy per Si atom -5568.689633 kJ/mol
# Density = 2.106587 g / cm^3
# Si number density = 21.113926 Si / 1000 Ang^3
#
#
#
# Elastic Constant Matrix: (Units=GPa)
#
#
# Indices 1 2 3 4 5 6 
#
# 1 145.4444 65.7382 6.0343 0.0000 0.0000 0.0000
# 2 65.7382 140.2648 -8.7111 0.0000 0.0000 0.0000
# 3 6.0343 -8.7111 40.4607 0.0000 0.0000 0.0000
# 4 0.0000 0.0000 0.0000 20.2783 0.0000 0.0000
# 5 0.0000 0.0000 0.0000 0.0000 9.5602 0.0000
# 6 0.0000 0.0000 0.0000 0.0000 0.0000 26.6036
#
#
#
# Elastic Compliance Matrix: (Units=1/GPa)
#
#
# Indices 1 2 3 4 5 6 
#
# 1 0.008923 -0.004322 -0.002261 0.000000 0.000000 0.000000
# 2 -0.004322 0.009320 0.002651 0.000000 0.000000 0.000000
# 3 -0.002261 0.002651 0.025623 0.000000 0.000000 0.000000
# 4 0.000000 0.000000 0.000000 0.049314 0.000000 0.000000
# 5 0.000000 0.000000 0.000000 0.000000 0.104600 0.000000
# 6 0.000000 0.000000 0.000000 0.000000 0.000000 0.037589
#
#
# Mechanical properties :
#
#
# Convention : Reuss Voigt Hill
#
# Bulk Modulus (GPa) = 27.77699 50.25473 39.01586
# Shear Modulus (GPa) = 19.58982 28.82898 24.20940
#
# Velocity S-wave (km/s) = 3.04931 3.69914 3.38983
# Velocity P-wave (km/s) = 5.05787 6.48832 5.81723
#
# Compressibility (1/GPa) = 0.03600103
#
# Stress axis : x y z
#
# Youngs Moduli (GPa) = 112.07081 107.29846 39.02680
#
# Poissons Ratio (x) = 0.46378 0.08825
# Poissons Ratio (y) = 0.48441 -0.10347
# Poissons Ratio (z) = 0.25343 -0.28447
#
# Static dielectric constant tensor:
#      x y z
#    x 2.131440 0.000000 0.000000 
#    y 0.000000 1.875100 0.000000 
#    z 0.000000 0.000000 1.807620 
# 
# From -- ./inp_files/12056.got.cif
#   From: 2010.05.17/outbox.cif.g08.bks.cpg/sg63_7_cif.got.tgz:12056.got - 2010.06.03 15:47:04.
