data_PCOD9473015
_publ_section_title
;
Structure prediction by ZEFSAII (Michael W. Deem and Ramdas Pophale) SiO2 
 PCOD9473015
Probable space group: C M C M
;
_chemical_formula_sum "Si O2"
_cell_formula_units_Z 80
_cell_length_a 12.375654
_cell_length_b 19.963732
_cell_length_c 18.210402
_cell_angle_alpha 90.000000
_cell_angle_beta 90.000000
_cell_angle_gamma 90.000000
_cell_volume 4499.139126
_symmetry_space_group_name_H-M "C M C M"
_symmetry_group_IT_number 63
_symmetry_cell_setting 'orthorhombic'
loop_
_space_group_symop_operation_xyz
x,y,z
-x,-y,1/2+z
x,-y,-z
-x,y,1/2-z
-x,-y,-z
x,y,1/2-z
-x,y,z
x,-y,1/2+z
1/2+x,1/2+y,z
1/2-x,1/2-y,1/2+z
1/2+x,1/2-y,-z
1/2-x,1/2+y,1/2-z
1/2-x,1/2-y,-z
1/2+x,1/2+y,1/2-z
1/2-x,1/2+y,z
1/2+x,1/2-y,1/2+z
loop_
_atom_site_type_symbol
_atom_site_label
_atom_site_fract_x
_atom_site_fract_y
_atom_site_fract_z
Si Si1 0.128455 0.169614 0.954247
Si Si2 0.784667 0.561575 0.593743
Si Si3 0.123123 0.577897 0.060118
Si Si4 0.251077 0.202004 0.103978
Si Si5 0.373601 0.109046 0.750000
Si Si6 0.374071 0.729595 0.250000
O O1 0.172378 0.097689 0.926674
O O2 0.191850 0.226479 0.908308
O O3 0.000000 0.175470 0.948829
O O4 0.170254 0.184381 0.036825
O O5 0.796589 0.481838 0.583784
O O6 0.862556 0.588368 0.527751
O O7 0.820870 0.581909 0.674989
O O8 0.157182 0.645419 0.100005
O O9 0.000000 0.558163 0.075465
O O10 0.185152 0.202663 0.178341
O O11 0.500000 0.090386 0.750000
O O12 0.365994 0.189540 0.750000
O O13 0.500000 0.711954 0.250000
#
# Coordination Sequence:
#
# PCOD9473015 Si02
#       6
#    16  16  16  16   8   8
#     4  10  20  37  58  81 111 151 190 230 278 334
#     4  10  20  36  56  86 114 146 191 233 277 342
#     4  10  20  37  60  85 115 148 185 238 284 329
#     4  10  21  37  56  84 112 145 191 233 278 339
#     4  11  20  33  56  82 112 147 183 232 282 333
#     4  11  22  37  56  84 116 147 185 236 288 331
#
# _framework density 17.781181
#
# number of rings (size 3 to 8) (size 9 to 14) (size 15 to 20)
#    0.000    1.800    2.000    3.600    0.000    0.800 
#    0.000   13.500    0.000    0.000    0.000    0.000 
#    0.000    0.000    0.000    0.000    0.000    0.000 
#
# Total GULP energy -223112.377557 kJ/mol
# GULP energy per Si atom -5577.809439 kJ/mol
# Density = 1.774071 g / cm^3
# Si number density = 17.781181 Si / 1000 Ang^3
#
#
#
# Elastic Constant Matrix: (Units=GPa)
#
#
# Indices 1 2 3 4 5 6 
#
# 1 96.6419 22.2375 49.7214 0.0000 0.0000 0.0000
# 2 22.2375 65.8229 30.6599 0.0000 0.0000 0.0000
# 3 49.7214 30.6599 122.7066 0.0000 0.0000 0.0000
# 4 0.0000 0.0000 0.0000 19.0850 0.0000 0.0000
# 5 0.0000 0.0000 0.0000 0.0000 13.6872 0.0000
# 6 0.0000 0.0000 0.0000 0.0000 0.0000 21.3520
#
#
#
# Elastic Compliance Matrix: (Units=1/GPa)
#
#
# Indices 1 2 3 4 5 6 
#
# 1 0.013362 -0.002255 -0.004851 0.000000 0.000000 0.000000
# 2 -0.002255 0.017574 -0.003477 0.000000 0.000000 0.000000
# 3 -0.004851 -0.003477 0.010984 0.000000 0.000000 0.000000
# 4 0.000000 0.000000 0.000000 0.052397 0.000000 0.000000
# 5 0.000000 0.000000 0.000000 0.000000 0.073061 0.000000
# 6 0.000000 0.000000 0.000000 0.000000 0.000000 0.046834
#
#
# Mechanical properties :
#
#
# Convention : Reuss Voigt Hill
#
# Bulk Modulus (GPa) = 48.18426 54.48988 51.33707
# Shear Modulus (GPa) = 20.63587 22.99500 21.81543
#
# Velocity S-wave (km/s) = 3.41037 3.60004 3.50649
# Velocity P-wave (km/s) = 6.53183 6.92760 6.73262
#
# Compressibility (1/GPa) = 0.02075367
#
# Stress axis : x y z
#
# Youngs Moduli (GPa) = 74.83860 56.90300 91.04089
#
# Poissons Ratio (x) = 0.12830 0.44164
# Poissons Ratio (y) = 0.16873 0.31659
# Poissons Ratio (z) = 0.36304 0.19788
#
# Static dielectric constant tensor:
#      x y z
#    x 1.581630 0.000000 0.000000 
#    y 0.000000 1.621670 0.000000 
#    z 0.000000 0.000000 1.594490 
# 
# From -- ./inp_files/42155.got.cif
#   From: 2010.05.17/outbox.cif.g08.bks.cpg/sg63_22_cif.got.tgz:42155.got - 2010.06.03 15:47:04.
