data_PCOD9473438
_publ_section_title
;
Structure prediction by ZEFSAII (Michael W. Deem and Ramdas Pophale) SiO2 
 PCOD9473438
Probable space group: C M C M
;
_chemical_formula_sum "Si O2"
_cell_formula_units_Z 116
_cell_length_a 17.919730
_cell_length_b 13.457974
_cell_length_c 25.240114
_cell_angle_alpha 90.000000
_cell_angle_beta 90.000000
_cell_angle_gamma 90.000000
_cell_volume 6086.988186
_symmetry_space_group_name_H-M "C M C M"
_symmetry_group_IT_number 63
_symmetry_cell_setting 'orthorhombic'
loop_
_space_group_symop_operation_xyz
x,y,z
-x,-y,1/2+z
x,-y,-z
-x,y,1/2-z
-x,-y,-z
x,y,1/2-z
-x,y,z
x,-y,1/2+z
1/2+x,1/2+y,z
1/2-x,1/2-y,1/2+z
1/2+x,1/2-y,-z
1/2-x,1/2+y,1/2-z
1/2-x,1/2-y,-z
1/2+x,1/2+y,1/2-z
1/2-x,1/2+y,z
1/2+x,1/2-y,1/2+z
loop_
_atom_site_type_symbol
_atom_site_label
_atom_site_fract_x
_atom_site_fract_y
_atom_site_fract_z
Si Si1 0.088990 0.257238 0.601236
Si Si2 0.083477 0.330334 0.118609
Si Si3 0.000000 0.125244 0.750000
Si Si4 0.089824 0.384835 0.499368
Si Si5 0.198443 0.663458 0.308856
Si Si6 0.205671 0.574697 0.691105
Si Si7 0.624050 0.580125 0.838907
Si Si8 0.128537 0.848742 0.813631
O O1 0.113606 0.315015 0.548141
O O2 0.138611 0.302319 0.648547
O O3 0.105354 0.139099 0.606963
O O4 0.000000 0.273006 0.608115
O O5 0.144612 0.392448 0.149599
O O6 0.083332 0.225677 0.149244
O O7 0.000000 0.374200 0.122200
O O8 0.104963 0.332391 0.056861
O O9 0.065161 0.119361 0.796148
O O10 0.117595 0.500000 0.500000
O O11 0.000000 0.391295 0.503984
O O12 0.177881 0.698645 0.250000
O O13 0.201266 0.544138 0.307320
O O14 0.285398 0.687267 0.319276
O O15 0.187567 0.613025 0.750000
O O16 0.290213 0.602797 0.676541
O O17 0.618818 0.460592 0.835206
O O18 0.110666 0.848938 0.750000
#
# Coordination Sequence:
#
# PCOD9473438 Si02
#       8
#    16  16   4  16  16  16  16  16
#     4  11  22  34  58  87 110 146 196 245 289 343
#     4  11  23  36  60  84 109 151 201 240 286 346
#     4  12  20  36  60  88 118 162 202 220 270 352
#     4   9  20  41  60  79 111 151 196 243 294 344
#     4   9  20  35  55  81 117 154 184 226 299 351
#     4  10  20  38  55  82 121 153 183 236 294 344
#     4  11  22  36  58  87 120 156 193 228 281 344
#     4  10  21  38  56  83 122 159 188 231 280 343
#
# _framework density 19.057044000000001
#
# number of rings (size 3 to 8) (size 9 to 14) (size 15 to 20)
#    0.000    1.793    2.069    2.897    1.931    4.138 
#    0.000    4.828    0.000    5.793    0.000    0.000 
#    0.000    0.000    0.000    0.000    0.000    0.000 
#
# Total GULP energy -322973.483650 kJ/mol
# GULP energy per Si atom -5568.508339 kJ/mol
# Density = 1.901367 g / cm^3
# Si number density = 19.057044 Si / 1000 Ang^3
#
#
#
# Elastic Constant Matrix: (Units=GPa)
#
#
# Indices 1 2 3 4 5 6 
#
# 1 101.2678 23.4856 57.3805 0.0000 0.0000 0.0000
# 2 23.4856 77.2623 36.2908 0.0000 0.0000 0.0000
# 3 57.3805 36.2908 114.3965 0.0000 0.0000 0.0000
# 4 0.0000 0.0000 0.0000 26.8541 0.0000 0.0000
# 5 0.0000 0.0000 0.0000 0.0000 18.7598 0.0000
# 6 0.0000 0.0000 0.0000 0.0000 0.0000 22.3273
#
#
#
# Elastic Compliance Matrix: (Units=1/GPa)
#
#
# Indices 1 2 3 4 5 6 
#
# 1 0.013877 -0.001115 -0.006607 0.000000 0.000000 0.000000
# 2 -0.001115 0.015299 -0.004294 0.000000 0.000000 0.000000
# 3 -0.006607 -0.004294 0.013418 0.000000 0.000000 0.000000
# 4 0.000000 0.000000 0.000000 0.037238 0.000000 0.000000
# 5 0.000000 0.000000 0.000000 0.000000 0.053305 0.000000
# 6 0.000000 0.000000 0.000000 0.000000 0.000000 0.044788
#
#
# Mechanical properties :
#
#
# Convention : Reuss Voigt Hill
#
# Bulk Modulus (GPa) = 53.87438 58.58227 56.22832
# Shear Modulus (GPa) = 24.02176 25.30622 24.66399
#
# Velocity S-wave (km/s) = 3.55423 3.64802 3.60143
# Velocity P-wave (km/s) = 6.72122 6.96787 6.84566
#
# Compressibility (1/GPa) = 0.01856170
#
# Stress axis : x y z
#
# Youngs Moduli (GPa) = 72.06165 65.36454 74.52801
#
# Poissons Ratio (x) = 0.07287 0.49240
# Poissons Ratio (y) = 0.08034 0.32003
# Poissons Ratio (z) = 0.47611 0.28068
#
# Static dielectric constant tensor:
#      x y z
#    x 1.656540 0.000000 0.000000 
#    y 0.000000 1.757980 0.000000 
#    z 0.000000 0.000000 1.655910 
# 
# From -- ./inp_files/63938.got.cif
#   From: 2010.05.17/outbox.cif.g08.bks.cpg/sg63_32_cif.got.tgz:63938.got - 2010.06.03 15:47:04.
