data_PCOD9473999
_publ_section_title
;
Structure prediction by ZEFSAII (Michael W. Deem and Ramdas Pophale) SiO2 
 PCOD9473999
Probable space group: C M C M
;
_chemical_formula_sum "Si O2"
_cell_formula_units_Z 116
_cell_length_a 17.409558
_cell_length_b 14.768996
_cell_length_c 23.465589
_cell_angle_alpha 90.000000
_cell_angle_beta 90.000000
_cell_angle_gamma 90.000000
_cell_volume 6033.511958
_symmetry_space_group_name_H-M "C M C M"
_symmetry_group_IT_number 63
_symmetry_cell_setting 'orthorhombic'
loop_
_space_group_symop_operation_xyz
x,y,z
-x,-y,1/2+z
x,-y,-z
-x,y,1/2-z
-x,-y,-z
x,y,1/2-z
-x,y,z
x,-y,1/2+z
1/2+x,1/2+y,z
1/2-x,1/2-y,1/2+z
1/2+x,1/2-y,-z
1/2-x,1/2+y,1/2-z
1/2-x,1/2-y,-z
1/2+x,1/2+y,1/2-z
1/2-x,1/2+y,z
1/2+x,1/2-y,1/2+z
loop_
_atom_site_type_symbol
_atom_site_label
_atom_site_fract_x
_atom_site_fract_y
_atom_site_fract_z
Si Si1 0.910169 0.865242 0.970559
Si Si2 0.000000 0.634507 0.250000
Si Si3 0.789192 0.804846 0.683332
Si Si4 0.411143 0.196430 0.609214
Si Si5 0.385731 0.833066 0.643962
Si Si6 0.315518 0.518989 0.380617
Si Si7 0.354317 0.002371 0.568784
Si Si8 0.913890 0.136024 0.898905
O O1 0.902836 0.764970 0.944210
O O2 0.862261 0.933431 0.932010
O O3 0.000000 0.889788 0.968088
O O4 0.885651 0.865855 0.035885
O O5 0.067232 0.637814 0.199695
O O6 0.786288 0.786977 0.750000
O O7 0.847276 0.734300 0.653139
O O8 0.703282 0.809277 0.657887
O O9 0.817623 0.906537 0.668934
O O10 0.500000 0.204765 0.629707
O O11 0.394917 0.094010 0.590328
O O12 0.390732 0.912214 0.596756
O O13 0.416720 0.738442 0.620968
O O14 0.231408 0.498173 0.404766
O O15 0.357224 0.426876 0.363555
O O16 0.353451 0.000000 0.500000
O O17 0.000000 0.097961 0.896439
#
# Coordination Sequence:
#
# PCOD9473999 Si02
#       8
#    16   4  16  16  16  16  16  16
#     4   9  18  34  58  85 126 158 189 245 304 376
#     4  12  24  48  62  84 124 162 212 254 302 356
#     4  10  22  44  63  84 117 159 207 256 298 357
#     4  10  22  39  60  90 120 158 202 248 306 357
#     4  11  24  42  65  88 121 162 205 257 305 362
#     4  10  21  36  58  91 126 160 199 246 313 366
#     4  11  23  40  63  94 127 162 205 257 311 371
#     4  11  20  34  58  92 117 155 198 240 308 372
#
# _framework density 19.225950999999998
#
# number of rings (size 3 to 8) (size 9 to 14) (size 15 to 20)
#    0.000    1.655    1.379    3.310    0.966    2.207 
#    2.483    6.897    0.000    0.000    0.000    0.000 
#    0.000    0.000    0.000    0.000    0.000    0.000 
#
# Total GULP energy -323220.010889 kJ/mol
# GULP energy per Si atom -5572.758808 kJ/mol
# Density = 1.918219 g / cm^3
# Si number density = 19.225951 Si / 1000 Ang^3
#
#
#
# Elastic Constant Matrix: (Units=GPa)
#
#
# Indices 1 2 3 4 5 6 
#
# 1 75.9894 32.4451 5.3224 0.0000 0.0000 0.0000
# 2 32.4451 111.8473 12.7867 0.0000 0.0000 0.0000
# 3 5.3224 12.7867 29.9449 0.0000 0.0000 0.0000
# 4 0.0000 0.0000 0.0000 1.0473 0.0000 0.0000
# 5 0.0000 0.0000 0.0000 0.0000 11.2823 0.0000
# 6 0.0000 0.0000 0.0000 0.0000 0.0000 32.7072
#
#
#
# Elastic Compliance Matrix: (Units=1/GPa)
#
#
# Indices 1 2 3 4 5 6 
#
# 1 0.015041 -0.004266 -0.000852 0.000000 0.000000 0.000000
# 2 -0.004266 0.010609 -0.003772 0.000000 0.000000 0.000000
# 3 -0.000852 -0.003772 0.035157 0.000000 0.000000 0.000000
# 4 0.000000 0.000000 0.000000 0.954859 0.000000 0.000000
# 5 0.000000 0.000000 0.000000 0.000000 0.088634 0.000000
# 6 0.000000 0.000000 0.000000 0.000000 0.000000 0.030574
#
#
# Mechanical properties :
#
#
# Convention : Reuss Voigt Hill
#
# Bulk Modulus (GPa) = 23.24086 35.43222 29.33654
# Shear Modulus (GPa) = 4.28450 20.15586 12.22018
#
# Velocity S-wave (km/s) = 1.49444 3.24136 2.52386
# Velocity P-wave (km/s) = 3.88488 5.69894 4.87700
#
# Compressibility (1/GPa) = 0.04302767
#
# Stress axis : x y z
#
# Youngs Moduli (GPa) = 66.48630 94.25604 28.44395
#
# Poissons Ratio (x) = 0.40207 0.02423
# Poissons Ratio (y) = 0.28361 0.10729
# Poissons Ratio (z) = 0.05664 0.35555
#
# Static dielectric constant tensor:
#      x y z
#    x 1.701540 0.000000 0.000000 
#    y 0.000000 1.683040 0.000000 
#    z 0.000000 0.000000 1.633420 
# 
# From -- ./inp_files/63939.got.cif
#   From: 2010.05.17/outbox.cif.g08.bks.cpg/sg63_32_cif.got.tgz:63939.got - 2010.06.03 15:47:04.
