data_PCOD9473376
_publ_section_title
;
Structure prediction by ZEFSAII (Michael W. Deem and Ramdas Pophale) SiO2 
 PCOD9473376
Probable space group: C M C M
;
_chemical_formula_sum "Si O2"
_cell_formula_units_Z 72
_cell_length_a 10.347494
_cell_length_b 15.464836
_cell_length_c 26.256859
_cell_angle_alpha 90.000000
_cell_angle_beta 90.000000
_cell_angle_gamma 90.000000
_cell_volume 4201.682908
_symmetry_space_group_name_H-M "C M C M"
_symmetry_group_IT_number 63
_symmetry_cell_setting 'orthorhombic'
loop_
_space_group_symop_operation_xyz
x,y,z
-x,-y,1/2+z
x,-y,-z
-x,y,1/2-z
-x,-y,-z
x,y,1/2-z
-x,y,z
x,-y,1/2+z
1/2+x,1/2+y,z
1/2-x,1/2-y,1/2+z
1/2+x,1/2-y,-z
1/2-x,1/2+y,1/2-z
1/2-x,1/2-y,-z
1/2+x,1/2+y,1/2-z
1/2-x,1/2+y,z
1/2+x,1/2-y,1/2+z
loop_
_atom_site_type_symbol
_atom_site_label
_atom_site_fract_x
_atom_site_fract_y
_atom_site_fract_z
Si Si1 0.655854 0.932518 0.809866
Si Si2 0.500000 0.567313 0.545684
Si Si3 0.647978 0.757879 0.865585
Si Si4 0.746400 0.923705 0.113946
Si Si5 0.000000 0.577785 0.540621
Si Si6 0.000000 0.731424 0.462734
O O1 0.683120 0.936474 0.750000
O O2 0.500000 0.940444 0.816946
O O3 0.692535 0.839470 0.833394
O O4 0.723937 0.007768 0.841476
O O5 0.500000 0.500000 0.500000
O O6 0.625668 0.557354 0.581042
O O7 0.500000 0.666651 0.525568
O O8 0.500000 0.734543 0.848713
O O9 0.734693 0.673191 0.864419
O O10 0.622093 0.784552 0.924748
O O11 0.625173 0.927787 0.076152
O O12 0.000000 0.500000 0.500000
O O13 0.000000 0.667350 0.509418
#
# Coordination Sequence:
#
# PCOD9473376 Si02
#       6
#    16   8  16  16   8   8
#     4  10  20  37  61  85 113 151 193 239 294 348
#     4  10  22  38  55  81 121 159 184 226 289 344
#     4   8  18  38  55  78 114 152 189 228 283 349
#     4  11  21  37  58  87 117 151 192 241 283 339
#     4  12  22  32  56  88 117 152 195 236 280 338
#     4   8  18  34  50  77 109 151 193 224 264 342
#
# _framework density 17.135991000000001
#
# number of rings (size 3 to 8) (size 9 to 14) (size 15 to 20)
#    0.667    1.556    2.222    2.000    0.000    6.222 
#    0.000    0.556    0.000    0.000    0.000    0.000 
#    0.000    0.000    0.000    0.000    0.000    0.000 
#
# Total GULP energy -200684.845658 kJ/mol
# GULP energy per Si atom -5574.579046 kJ/mol
# Density = 1.709699 g / cm^3
# Si number density = 17.135991 Si / 1000 Ang^3
#
#
#
# Elastic Constant Matrix: (Units=GPa)
#
#
# Indices 1 2 3 4 5 6 
#
# 1 88.9429 50.5356 46.1134 0.0000 0.0000 0.0000
# 2 50.5356 124.6796 101.6106 0.0000 0.0000 0.0000
# 3 46.1134 101.6106 117.4046 0.0000 0.0000 0.0000
# 4 0.0000 0.0000 0.0000 14.6998 0.0000 0.0000
# 5 0.0000 0.0000 0.0000 0.0000 16.9364 0.0000
# 6 0.0000 0.0000 0.0000 0.0000 0.0000 19.3318
#
#
#
# Elastic Compliance Matrix: (Units=1/GPa)
#
#
# Indices 1 2 3 4 5 6 
#
# 1 0.014758 -0.004269 -0.002102 0.000000 0.000000 0.000000
# 2 -0.004269 0.028454 -0.022950 0.000000 0.000000 0.000000
# 3 -0.002102 -0.022950 0.029206 0.000000 0.000000 0.000000
# 4 0.000000 0.000000 0.000000 0.068028 0.000000 0.000000
# 5 0.000000 0.000000 0.000000 0.000000 0.059044 0.000000
# 6 0.000000 0.000000 0.000000 0.000000 0.000000 0.051728
#
#
# Mechanical properties :
#
#
# Convention : Reuss Voigt Hill
#
# Bulk Modulus (GPa) = 72.58508 80.83846 76.71177
# Shear Modulus (GPa) = 15.90064 19.04479 17.47272
#
# Velocity S-wave (km/s) = 3.04946 3.33737 3.19666
# Velocity P-wave (km/s) = 7.40602 7.88212 7.64778
#
# Compressibility (1/GPa) = 0.01377694
#
# Stress axis : x y z
#
# Youngs Moduli (GPa) = 67.75765 35.14422 34.23981
#
# Poissons Ratio (x) = 0.15001 0.07199
# Poissons Ratio (y) = 0.28923 0.78580
# Poissons Ratio (z) = 0.14246 0.80655
#
# Static dielectric constant tensor:
#      x y z
#    x 1.578860 0.000000 0.000000 
#    y 0.000000 1.573670 0.000000 
#    z 0.000000 0.000000 1.576530 
# 
# From -- ./inp_files/66396.got.cif
#   From: 2010.05.17/outbox.cif.g08.bks.cpg/sg63_34_cif.got.tgz:66396.got - 2010.06.03 15:47:04.
