data_PCOD9473332
_publ_section_title
;
Structure prediction by ZEFSAII (Michael W. Deem and Ramdas Pophale) SiO2 
 PCOD9473332
Probable space group: C M C M
;
_chemical_formula_sum "Si O2"
_cell_formula_units_Z 96
_cell_length_a 17.164185
_cell_length_b 16.042151
_cell_length_c 14.789895
_cell_angle_alpha 90.000000
_cell_angle_beta 90.000000
_cell_angle_gamma 90.000000
_cell_volume 4072.404208
_symmetry_space_group_name_H-M "C M C M"
_symmetry_group_IT_number 63
_symmetry_cell_setting 'orthorhombic'
loop_
_space_group_symop_operation_xyz
x,y,z
-x,-y,1/2+z
x,-y,-z
-x,y,1/2-z
-x,-y,-z
x,y,1/2-z
-x,y,z
x,-y,1/2+z
1/2+x,1/2+y,z
1/2-x,1/2-y,1/2+z
1/2+x,1/2-y,-z
1/2-x,1/2+y,1/2-z
1/2-x,1/2-y,-z
1/2+x,1/2+y,1/2-z
1/2-x,1/2+y,z
1/2+x,1/2-y,1/2+z
loop_
_atom_site_type_symbol
_atom_site_label
_atom_site_fract_x
_atom_site_fract_y
_atom_site_fract_z
Si Si1 0.250913 0.407594 0.144703
Si Si2 0.917392 0.031991 0.899156
Si Si3 0.875059 0.146611 0.151862
Si Si4 0.784745 0.280400 0.853105
Si Si5 0.584813 0.068146 0.641201
Si Si6 0.416264 0.222670 0.503974
O O1 0.262259 0.425584 0.250000
O O2 0.336008 0.420261 0.103734
O O3 0.238678 0.307697 0.134871
O O4 0.173754 0.460301 0.117859
O O5 0.905715 0.946452 0.845446
O O6 0.000000 0.073338 0.872826
O O7 0.923995 0.000000 0.000000
O O8 0.892389 0.187204 0.250000
O O9 0.781517 0.149389 0.140733
O O10 0.907618 0.195754 0.066347
O O11 0.816300 0.280286 0.750000
O O12 0.848549 0.287132 0.930665
O O13 0.587755 0.085753 0.750000
O O14 0.500000 0.023212 0.627127
O O15 0.580960 0.147895 0.576314
O O16 0.500000 0.225325 0.456486
#
# Coordination Sequence:
#
# PCOD9473332 Si02
#       6
#    16  16  16  16  16  16
#     4  10  20  37  59  82 114 159 200 244 302 362
#     4  11  25  40  57  87 126 167 205 246 308 376
#     4  11  22  38  60  88 122 161 207 258 308 361
#     4  10  22  38  58  84 117 162 211 251 300 367
#     4   9  18  33  56  88 116 141 187 247 304 356
#     4  11  21  33  57  88 119 153 194 251 313 361
#
# _framework density 23.5733
#
# number of rings (size 3 to 8) (size 9 to 14) (size 15 to 20)
#    0.000    1.667    1.667    3.000    2.333    5.333 
#    0.000    1.667    0.000    1.500    0.000    2.333 
#    0.000    0.000    0.000    0.000    0.000    0.000 
#
# Total GULP energy -267685.458694 kJ/mol
# GULP energy per Si atom -5576.780389 kJ/mol
# Density = 2.351965 g / cm^3
# Si number density = 23.573300 Si / 1000 Ang^3
#
#
#
# Elastic Constant Matrix: (Units=GPa)
#
#
# Indices 1 2 3 4 5 6 
#
# 1 203.4194 12.9867 46.9150 0.0000 0.0000 0.0000
# 2 12.9867 13.0147 -2.8899 0.0000 0.0000 0.0000
# 3 46.9150 -2.8899 92.9841 0.0000 0.0000 0.0000
# 4 0.0000 0.0000 0.0000 18.6661 0.0000 0.0000
# 5 0.0000 0.0000 0.0000 0.0000 2.0766 0.0000
# 6 0.0000 0.0000 0.0000 0.0000 0.0000 20.1184
#
#
#
# Elastic Compliance Matrix: (Units=1/GPa)
#
#
# Indices 1 2 3 4 5 6 
#
# 1 0.006112 -0.006831 -0.003296 0.000000 0.000000 0.000000
# 2 -0.006831 0.085005 0.006089 0.000000 0.000000 0.000000
# 3 -0.003296 0.006089 0.012607 0.000000 0.000000 0.000000
# 4 0.000000 0.000000 0.000000 0.053573 0.000000 0.000000
# 5 0.000000 0.000000 0.000000 0.000000 0.481558 0.000000
# 6 0.000000 0.000000 0.000000 0.000000 0.000000 0.049706
#
#
# Mechanical properties :
#
#
# Convention : Reuss Voigt Hill
#
# Bulk Modulus (GPa) = 10.45519 47.04908 28.75213
# Shear Modulus (GPa) = 6.86323 24.99932 15.93128
#
# Velocity S-wave (km/s) = 1.70815 3.26005 2.60247
# Velocity P-wave (km/s) = 2.88707 5.84573 4.61019
#
# Compressibility (1/GPa) = 0.09564628
#
# Stress axis : x y z
#
# Youngs Moduli (GPa) = 163.60497 11.76406 79.32174
#
# Poissons Ratio (x) = 0.08036 0.26146
# Poissons Ratio (y) = 1.11760 -0.48296
# Poissons Ratio (z) = 0.53928 -0.07163
#
# Static dielectric constant tensor:
#      x y z
#    x 2.077680 0.000000 0.000000 
#    y 0.000000 1.921710 0.000000 
#    z 0.000000 0.000000 1.859190 
# 
# From -- ./inp_files/31941.got.cif
#   From: 2010.05.17/outbox.cif.g08.bks.cpg/sg63_16_cif.got.tgz:31941.got - 2010.06.03 15:47:04.
