data_PCOD9473694
_publ_section_title
;
Structure prediction by ZEFSAII (Michael W. Deem and Ramdas Pophale) SiO2 
 PCOD9473694
Probable space group: C M C M
;
_chemical_formula_sum "Si O2"
_cell_formula_units_Z 48
_cell_length_a 16.869060
_cell_length_b 29.618531
_cell_length_c 5.354870
_cell_angle_alpha 90.000000
_cell_angle_beta 90.000000
_cell_angle_gamma 90.000000
_cell_volume 2675.489986
_symmetry_space_group_name_H-M "C M C M"
_symmetry_group_IT_number 63
_symmetry_cell_setting 'orthorhombic'
loop_
_space_group_symop_operation_xyz
x,y,z
-x,-y,1/2+z
x,-y,-z
-x,y,1/2-z
-x,-y,-z
x,y,1/2-z
-x,y,z
x,-y,1/2+z
1/2+x,1/2+y,z
1/2-x,1/2-y,1/2+z
1/2+x,1/2-y,-z
1/2-x,1/2+y,1/2-z
1/2-x,1/2-y,-z
1/2+x,1/2+y,1/2-z
1/2-x,1/2+y,z
1/2+x,1/2-y,1/2+z
loop_
_atom_site_type_symbol
_atom_site_label
_atom_site_fract_x
_atom_site_fract_y
_atom_site_fract_z
Si Si1 0.816713 0.136042 0.750000
Si Si2 0.500000 0.032562 0.750000
Si Si3 0.409514 0.387558 0.750000
Si Si4 0.000000 0.027018 0.250000
Si Si5 0.299342 0.743005 0.750000
Si Si6 0.133585 0.387660 0.250000
Si Si7 0.407216 0.169165 0.250000
O O1 0.863006 0.123843 0.498852
O O2 0.817741 0.190264 0.750000
O O3 0.730133 0.112017 0.750000
O O4 0.422329 0.066818 0.750000
O O5 0.500000 0.000000 0.500000
O O6 0.500000 0.368037 0.750000
O O7 0.424445 0.440747 0.750000
O O8 0.000000 0.000000 0.500000
O O9 0.250000 0.750000 0.500000
O O10 0.364925 0.782248 0.750000
O O11 0.113594 0.359418 0.501305
O O12 0.500000 0.176789 0.250000
#
# Coordination Sequence:
#
# PCOD9473694 Si02
#       7
#     8   4   8   4   8   8   8
#     4  12  22  42  67  98 139 176 216 275 321 404
#     4  12  26  48  70  99 134 171 224 294 348 398
#     4  10  24  40  65  97 132 173 216 258 351 390
#     4  10  20  42  68  89 122 167 214 260 320 402
#     4  12  23  40  62  98 134 173 219 261 323 379
#     4  12  24  43  72  94 133 179 221 273 348 398
#     4  12  22  41  65 101 126 181 227 265 317 408
#
# _framework density 17.940639000000001
#
# number of rings (size 3 to 8) (size 9 to 14) (size 15 to 20)
#    0.500    0.000    5.000    4.500    0.000    1.333 
#    0.000    5.000    0.000    0.000    0.000    0.000 
#    0.000    0.000    0.000    0.000    0.000    0.000 
#
# Total GULP energy -133765.673086 kJ/mol
# GULP energy per Si atom -5573.569712 kJ/mol
# Density = 1.789981 g / cm^3
# Si number density = 17.940639 Si / 1000 Ang^3
#
#
#
# Elastic Constant Matrix: (Units=GPa)
#
#
# Indices 1 2 3 4 5 6 
#
# 1 178.2232 68.1136 98.2750 0.0000 0.0000 0.0000
# 2 68.1136 155.7625 92.1483 0.0000 0.0000 0.0000
# 3 98.2750 92.1483 221.2450 0.0000 0.0000 0.0000
# 4 0.0000 0.0000 0.0000 48.0894 0.0000 0.0000
# 5 0.0000 0.0000 0.0000 0.0000 43.8830 0.0000
# 6 0.0000 0.0000 0.0000 0.0000 0.0000 45.1036
#
#
#
# Elastic Compliance Matrix: (Units=1/GPa)
#
#
# Indices 1 2 3 4 5 6 
#
# 1 0.007796 -0.001805 -0.002711 0.000000 0.000000 0.000000
# 2 -0.001805 0.008937 -0.002920 0.000000 0.000000 0.000000
# 3 -0.002711 -0.002920 0.006940 0.000000 0.000000 0.000000
# 4 0.000000 0.000000 0.000000 0.020795 0.000000 0.000000
# 5 0.000000 0.000000 0.000000 0.000000 0.022788 0.000000
# 6 0.000000 0.000000 0.000000 0.000000 0.000000 0.022171
#
#
# Mechanical properties :
#
#
# Convention : Reuss Voigt Hill
#
# Bulk Modulus (GPa) = 113.63519 119.14494 116.39007
# Shear Modulus (GPa) = 46.62723 47.19477 46.91100
#
# Velocity S-wave (km/s) = 5.10354 5.13451 5.11905
# Velocity P-wave (km/s) = 9.90986 10.08493 9.99777
#
# Compressibility (1/GPa) = 0.00880009
#
# Stress axis : x y z
#
# Youngs Moduli (GPa) = 128.27575 111.89219 144.08392
#
# Poissons Ratio (x) = 0.20199 0.39060
# Poissons Ratio (y) = 0.23157 0.42079
# Poissons Ratio (z) = 0.34774 0.32678
#
# Static dielectric constant tensor:
#      x y z
#    x 1.622050 0.000000 0.000000 
#    y 0.000000 1.541750 0.000000 
#    z 0.000000 0.000000 1.491400 
# 
# From -- ./inp_files/563.got.cif
#   From: 2010.05.17/outbox.cif.g08.bks.cpg/sg63_1_cif.got.tgz:563.got - 2010.06.03 15:47:04.
