data_PCOD9473816
_publ_section_title
;
Structure prediction by ZEFSAII (Michael W. Deem and Ramdas Pophale) SiO2 
 PCOD9473816
Probable space group: C M C M
;
_chemical_formula_sum "Si O2"
_cell_formula_units_Z 96
_cell_length_a 18.334570
_cell_length_b 9.624100
_cell_length_c 26.290941
_cell_angle_alpha 90.000000
_cell_angle_beta 90.000000
_cell_angle_gamma 90.000000
_cell_volume 4639.134740
_symmetry_space_group_name_H-M "C M C M"
_symmetry_group_IT_number 63
_symmetry_cell_setting 'orthorhombic'
loop_
_space_group_symop_operation_xyz
x,y,z
-x,-y,1/2+z
x,-y,-z
-x,y,1/2-z
-x,-y,-z
x,y,1/2-z
-x,y,z
x,-y,1/2+z
1/2+x,1/2+y,z
1/2-x,1/2-y,1/2+z
1/2+x,1/2-y,-z
1/2-x,1/2+y,1/2-z
1/2-x,1/2-y,-z
1/2+x,1/2+y,1/2-z
1/2-x,1/2+y,z
1/2+x,1/2-y,1/2+z
loop_
_atom_site_type_symbol
_atom_site_label
_atom_site_fract_x
_atom_site_fract_y
_atom_site_fract_z
Si Si1 0.579359 0.445156 0.849000
Si Si2 0.659154 0.513355 0.560699
Si Si3 0.083227 0.361484 0.113341
Si Si4 0.703709 0.646443 0.689730
Si Si5 0.341506 0.959442 0.688536
Si Si6 0.774344 0.270112 0.058628
O O1 0.500000 0.474413 0.827462
O O2 0.586092 0.494641 0.907847
O O3 0.589989 0.279449 0.852533
O O4 0.641016 0.534519 0.822281
O O5 0.649232 0.500000 0.500000
O O6 0.704526 0.646737 0.578167
O O7 0.710278 0.384459 0.577038
O O8 0.094415 0.491247 0.151018
O O9 0.148968 0.348770 0.071446
O O10 0.000000 0.360725 0.092392
O O11 0.708410 0.657270 0.750000
O O12 0.779939 0.574722 0.675436
O O13 0.685837 0.804900 0.674615
O O14 0.356404 0.964208 0.750000
O O15 0.750000 0.250000 0.000000
#
# Coordination Sequence:
#
# PCOD9473816 Si02
#       6
#    16  16  16  16  16  16
#     4  10  21  35  52  78 110 145 185 229 281 337
#     4   9  18  33  54  77 102 136 180 230 278 332
#     4  10  21  36  55  81 114 151 192 236 285 343
#     4  10  21  37  57  82 112 148 192 239 284 335
#     4  10  21  37  58  83 113 149 190 237 285 336
#     4   9  18  34  55  77 103 139 183 231 283 334
#
# _framework density 20.693514
#
# number of rings (size 3 to 8) (size 9 to 14) (size 15 to 20)
#    0.000    2.333    0.000    2.000    0.000    7.667 
#    0.000    5.833    0.000    4.500    0.000    0.000 
#    0.000    0.000    0.000    0.000    0.000    0.000 
#
# Total GULP energy -267292.418937 kJ/mol
# GULP energy per Si atom -5568.592061 kJ/mol
# Density = 2.064641 g / cm^3
# Si number density = 20.693514 Si / 1000 Ang^3
#
#
#
# Elastic Constant Matrix: (Units=GPa)
#
#
# Indices 1 2 3 4 5 6 
#
# 1 85.8935 25.0862 9.1412 0.0000 0.0000 0.0000
# 2 25.0862 66.5319 12.4956 0.0000 0.0000 0.0000
# 3 9.1412 12.4956 48.2888 0.0000 0.0000 0.0000
# 4 0.0000 0.0000 0.0000 30.3850 0.0000 0.0000
# 5 0.0000 0.0000 0.0000 0.0000 21.0229 0.0000
# 6 0.0000 0.0000 0.0000 0.0000 0.0000 13.4895
#
#
#
# Elastic Compliance Matrix: (Units=1/GPa)
#
#
# Indices 1 2 3 4 5 6 
#
# 1 0.013157 -0.004723 -0.001269 0.000000 0.000000 0.000000
# 2 -0.004723 0.017493 -0.003633 0.000000 0.000000 0.000000
# 3 -0.001269 -0.003633 0.021889 0.000000 0.000000 0.000000
# 4 0.000000 0.000000 0.000000 0.032911 0.000000 0.000000
# 5 0.000000 0.000000 0.000000 0.000000 0.047567 0.000000
# 6 0.000000 0.000000 0.000000 0.000000 0.000000 0.074132
#
#
# Mechanical properties :
#
#
# Convention : Reuss Voigt Hill
#
# Bulk Modulus (GPa) = 30.03792 32.68445 31.36119
# Shear Modulus (GPa) = 21.05324 23.24556 22.14940
#
# Velocity S-wave (km/s) = 3.19311 3.35524 3.27518
# Velocity P-wave (km/s) = 5.30487 5.55329 5.43050
#
# Compressibility (1/GPa) = 0.03329126
#
# Stress axis : x y z
#
# Youngs Moduli (GPa) = 76.00748 57.16472 45.68529
#
# Poissons Ratio (x) = 0.26996 0.05795
# Poissons Ratio (y) = 0.35895 0.16596
# Poissons Ratio (z) = 0.09642 0.20766
#
# Static dielectric constant tensor:
#      x y z
#    x 1.757420 0.000000 0.000000 
#    y 0.000000 1.748710 0.000000 
#    z 0.000000 0.000000 1.838140 
# 
# From -- ./inp_files/70299.got.cif
#   From: 2010.05.17/outbox.cif.g08.bks.cpg/sg63_36_cif.got.tgz:70299.got - 2010.06.03 15:47:04.
