data_PCOD9473397
_publ_section_title
;
Structure prediction by ZEFSAII (Michael W. Deem and Ramdas Pophale) SiO2 
 PCOD9473397
Probable space group: C M C M
;
_chemical_formula_sum "Si O2"
_cell_formula_units_Z 88
_cell_length_a 16.441588
_cell_length_b 24.273574
_cell_length_c 12.371341
_cell_angle_alpha 90.000000
_cell_angle_beta 90.000000
_cell_angle_gamma 90.000000
_cell_volume 4937.353982
_symmetry_space_group_name_H-M "C M C M"
_symmetry_group_IT_number 63
_symmetry_cell_setting 'orthorhombic'
loop_
_space_group_symop_operation_xyz
x,y,z
-x,-y,1/2+z
x,-y,-z
-x,y,1/2-z
-x,-y,-z
x,y,1/2-z
-x,y,z
x,-y,1/2+z
1/2+x,1/2+y,z
1/2-x,1/2-y,1/2+z
1/2+x,1/2-y,-z
1/2-x,1/2+y,1/2-z
1/2-x,1/2-y,-z
1/2+x,1/2+y,1/2-z
1/2-x,1/2+y,z
1/2+x,1/2-y,1/2+z
loop_
_atom_site_type_symbol
_atom_site_label
_atom_site_fract_x
_atom_site_fract_y
_atom_site_fract_z
Si Si1 0.289571 0.500000 0.000000
Si Si2 0.000000 0.646820 0.628780
Si Si3 0.334748 0.707016 0.623170
Si Si4 0.594321 0.586545 0.620198
Si Si5 0.000000 0.442696 0.560360
Si Si6 0.176497 0.414481 0.873154
Si Si7 0.341814 0.191308 0.971606
O O1 0.346804 0.542245 0.934696
O O2 0.232601 0.462573 0.923006
O O3 0.000000 0.601099 0.536535
O O4 0.082199 0.680013 0.605636
O O5 0.000000 0.624502 0.750000
O O6 0.349055 0.717724 0.750000
O O7 0.376601 0.648800 0.594753
O O8 0.363037 0.757389 0.548867
O O9 0.238799 0.702189 0.597921
O O10 0.599752 0.580674 0.750000
O O11 0.500000 0.579039 0.588329
O O12 0.000000 0.500000 0.500000
O O13 0.082981 0.434532 0.625140
O O14 0.200709 0.401353 0.750000
O O15 0.177732 0.361119 0.951211
#
# Coordination Sequence:
#
# PCOD9473397 Si02
#       7
#     8   8  16  16   8  16  16
#     4  12  21  39  58  88 114 156 194 239 295 350
#     4  10  22  37  58  83 117 156 187 234 293 350
#     4  10  20  37  62  85 112 150 190 242 291 341
#     4  10  22  39  61  87 113 148 195 243 293 348
#     4  10  21  39  52  84 115 152 199 234 280 336
#     4  11  22  37  57  82 119 156 192 238 290 347
#     4  10  21  38  57  86 118 146 196 235 289 354
#
# _framework density 17.823312999999999
#
# number of rings (size 3 to 8) (size 9 to 14) (size 15 to 20)
#    0.000    1.636    2.727    2.182    1.273    0.727 
#    0.000    0.909    0.000    0.000    0.000    0.000 
#    0.000    0.000    0.000    0.000    0.000    0.000 
#
# Total GULP energy -245574.581407 kJ/mol
# GULP energy per Si atom -5581.240487 kJ/mol
# Density = 1.778275 g / cm^3
# Si number density = 17.823313 Si / 1000 Ang^3
#
#
#
# Elastic Constant Matrix: (Units=GPa)
#
#
# Indices 1 2 3 4 5 6 
#
# 1 86.1656 21.9263 21.5119 0.0000 0.0000 0.0000
# 2 21.9263 75.5328 13.4620 0.0000 0.0000 0.0000
# 3 21.5119 13.4620 65.6444 0.0000 0.0000 0.0000
# 4 0.0000 0.0000 0.0000 24.2678 0.0000 0.0000
# 5 0.0000 0.0000 0.0000 0.0000 16.0930 0.0000
# 6 0.0000 0.0000 0.0000 0.0000 0.0000 13.1574
#
#
#
# Elastic Compliance Matrix: (Units=1/GPa)
#
#
# Indices 1 2 3 4 5 6 
#
# 1 0.013351 -0.003213 -0.003716 0.000000 0.000000 0.000000
# 2 -0.003213 0.014515 -0.001924 0.000000 0.000000 0.000000
# 3 -0.003716 -0.001924 0.016846 0.000000 0.000000 0.000000
# 4 0.000000 0.000000 0.000000 0.041207 0.000000 0.000000
# 5 0.000000 0.000000 0.000000 0.000000 0.062139 0.000000
# 6 0.000000 0.000000 0.000000 0.000000 0.000000 0.076003
#
#
# Mechanical properties :
#
#
# Convention : Reuss Voigt Hill
#
# Bulk Modulus (GPa) = 37.02947 37.90482 37.46714
# Shear Modulus (GPa) = 19.93869 22.06647 21.00258
#
# Velocity S-wave (km/s) = 3.34831 3.52244 3.43647
# Velocity P-wave (km/s) = 5.98073 6.15277 6.06736
#
# Compressibility (1/GPa) = 0.02700552
#
# Stress axis : x y z
#
# Youngs Moduli (GPa) = 74.90058 68.89466 59.36169
#
# Poissons Ratio (x) = 0.22138 0.22060
# Poissons Ratio (y) = 0.24068 0.11419
# Poissons Ratio (z) = 0.27835 0.13253
#
# Static dielectric constant tensor:
#      x y z
#    x 1.603190 0.000000 0.000000 
#    y 0.000000 1.556170 0.000000 
#    z 0.000000 0.000000 1.576620 
# 
# From -- ./inp_files/19556.got.cif
#   From: 2010.05.17/outbox.cif.g08.bks.cpg/sg63_10_cif.got.tgz:19556.got - 2010.06.03 15:47:04.
