data_PCOD9473418
_publ_section_title
;
Structure prediction by ZEFSAII (Michael W. Deem and Ramdas Pophale) SiO2 
 PCOD9473418
Probable space group: C M C M
;
_chemical_formula_sum "Si O2"
_cell_formula_units_Z 116
_cell_length_a 25.497457
_cell_length_b 7.831911
_cell_length_c 25.462784
_cell_angle_alpha 90.000000
_cell_angle_beta 90.000000
_cell_angle_gamma 90.000000
_cell_volume 5084.760451
_symmetry_space_group_name_H-M "C M C M"
_symmetry_group_IT_number 63
_symmetry_cell_setting 'orthorhombic'
loop_
_space_group_symop_operation_xyz
x,y,z
-x,-y,1/2+z
x,-y,-z
-x,y,1/2-z
-x,-y,-z
x,y,1/2-z
-x,y,z
x,-y,1/2+z
1/2+x,1/2+y,z
1/2-x,1/2-y,1/2+z
1/2+x,1/2-y,-z
1/2-x,1/2+y,1/2-z
1/2-x,1/2-y,-z
1/2+x,1/2+y,1/2-z
1/2-x,1/2+y,z
1/2+x,1/2-y,1/2+z
loop_
_atom_site_type_symbol
_atom_site_label
_atom_site_fract_x
_atom_site_fract_y
_atom_site_fract_z
Si Si1 0.937358 0.204818 0.389804
Si Si2 0.202791 0.339812 0.534567
Si Si3 0.696171 0.915476 0.191817
Si Si4 0.277091 0.405166 0.868266
Si Si5 0.563103 0.415993 0.310058
Si Si6 0.088483 0.553478 0.340483
Si Si7 0.000000 0.500884 0.250000
Si Si8 0.138448 0.052313 0.942802
O O1 0.919245 0.401923 0.383658
O O2 0.000000 0.203472 0.397624
O O3 0.925668 0.100081 0.335428
O O4 0.909532 0.076662 0.431624
O O5 0.189245 0.500000 0.500000
O O6 0.250000 0.250000 0.500000
O O7 0.231537 0.380649 0.589092
O O8 0.146909 0.253068 0.549287
O O9 0.692939 0.843554 0.250000
O O10 0.696771 0.770438 0.147980
O O11 0.646602 0.034061 0.182025
O O12 0.750400 0.013499 0.182324
O O13 0.320712 0.515095 0.896594
O O14 0.583011 0.398447 0.250000
O O15 0.500000 0.402460 0.306595
O O16 0.579953 0.258170 0.347343
O O17 0.045662 0.506726 0.295949
O O18 0.160401 0.000000 0.000000
#
# Coordination Sequence:
#
# PCOD9473418 Si02
#       8
#    16  16  16  16  16  16   4  16
#     4  11  26  42  67 100 136 179 226 286 349 416
#     4  12  21  40  71  99 124 163 220 291 341 397
#     4  12  26  41  63  97 142 185 219 265 341 412
#     4  12  23  42  65  94 135 170 219 274 334 411
#     4  10  20  37  62  94 133 173 222 279 329 396
#     4  12  22  40  69  97 135 183 236 276 330 396
#     4  12  20  40  70 100 134 184 244 284 312 404
#     4  12  25  45  68  96 125 167 226 286 349 407
#
# _framework density 22.813265999999999
#
# number of rings (size 3 to 8) (size 9 to 14) (size 15 to 20)
#    0.000    0.414    8.276    0.414    2.897    0.276 
#    0.000    0.000    0.000    0.414    0.000    0.000 
#    0.000    0.000    0.000    0.000    0.000    0.000 
#
# Total GULP energy -322995.781591 kJ/mol
# GULP energy per Si atom -5568.892786 kJ/mol
# Density = 2.276134 g / cm^3
# Si number density = 22.813266 Si / 1000 Ang^3
#
#
#
# Elastic Constant Matrix: (Units=GPa)
#
#
# Indices 1 2 3 4 5 6 
#
# 1 69.7102 -4.9995 5.9141 0.0000 0.0000 0.0000
# 2 -4.9995 74.1831 -7.1502 0.0000 0.0000 0.0000
# 3 5.9141 -7.1502 44.3750 0.0000 0.0000 0.0000
# 4 0.0000 0.0000 0.0000 20.6552 0.0000 0.0000
# 5 0.0000 0.0000 0.0000 0.0000 14.9946 0.0000
# 6 0.0000 0.0000 0.0000 0.0000 0.0000 29.6789
#
#
#
# Elastic Compliance Matrix: (Units=1/GPa)
#
#
# Indices 1 2 3 4 5 6 
#
# 1 0.014557 0.000807 -0.001810 0.000000 0.000000 0.000000
# 2 0.000807 0.013738 0.002106 0.000000 0.000000 0.000000
# 3 -0.001810 0.002106 0.023116 0.000000 0.000000 0.000000
# 4 0.000000 0.000000 0.000000 0.048414 0.000000 0.000000
# 5 0.000000 0.000000 0.000000 0.000000 0.066691 0.000000
# 6 0.000000 0.000000 0.000000 0.000000 0.000000 0.033694
#
#
# Mechanical properties :
#
#
# Convention : Reuss Voigt Hill
#
# Bulk Modulus (GPa) = 18.65152 19.53300 19.09226
# Shear Modulus (GPa) = 23.16155 26.03267 24.59711
#
# Velocity S-wave (km/s) = 3.18978 3.38171 3.28715
# Velocity P-wave (km/s) = 4.66474 4.88146 4.77433
#
# Compressibility (1/GPa) = 0.05361494
#
# Stress axis : x y z
#
# Youngs Moduli (GPa) = 68.69783 72.79337 43.26045
#
# Poissons Ratio (x) = -0.05871 0.07830
# Poissons Ratio (y) = -0.05541 -0.09111
# Poissons Ratio (z) = 0.12435 -0.15331
#
# Static dielectric constant tensor:
#      x y z
#    x 2.016520 0.000000 0.000000 
#    y 0.000000 2.060150 0.000000 
#    z 0.000000 0.000000 1.903940 
# 
# From -- ./inp_files/65480.got.cif
#   From: 2010.05.17/outbox.cif.g08.bks.cpg/sg63_33_cif.got.tgz:65480.got - 2010.06.03 15:47:04.
