data_PCOD9473301
_publ_section_title
;
Structure prediction by ZEFSAII (Michael W. Deem and Ramdas Pophale) SiO2 
 PCOD9473301
Probable space group: C M C M
;
_chemical_formula_sum "Si O2"
_cell_formula_units_Z 96
_cell_length_a 8.788081
_cell_length_b 30.888104
_cell_length_c 19.742100
_cell_angle_alpha 90.000000
_cell_angle_beta 90.000000
_cell_angle_gamma 90.000000
_cell_volume 5358.936975
_symmetry_space_group_name_H-M "C M C M"
_symmetry_group_IT_number 63
_symmetry_cell_setting 'orthorhombic'
loop_
_space_group_symop_operation_xyz
x,y,z
-x,-y,1/2+z
x,-y,-z
-x,y,1/2-z
-x,-y,-z
x,y,1/2-z
-x,y,z
x,-y,1/2+z
1/2+x,1/2+y,z
1/2-x,1/2-y,1/2+z
1/2+x,1/2-y,-z
1/2-x,1/2+y,1/2-z
1/2-x,1/2-y,-z
1/2+x,1/2+y,1/2-z
1/2-x,1/2+y,z
1/2+x,1/2-y,1/2+z
loop_
_atom_site_type_symbol
_atom_site_label
_atom_site_fract_x
_atom_site_fract_y
_atom_site_fract_z
Si Si1 0.183543 0.868420 0.435057
Si Si2 0.316816 0.034649 0.171166
Si Si3 0.817744 0.886516 0.910265
Si Si4 0.816331 0.230909 0.930640
Si Si5 0.316123 0.194305 0.171749
Si Si6 0.683455 0.065034 0.827691
O O1 0.229888 0.881110 0.511454
O O2 0.231909 0.818835 0.421723
O O3 0.249029 0.901418 0.380484
O O4 0.000000 0.869866 0.431972
O O5 0.278503 0.043956 0.250000
O O6 0.500000 0.037985 0.165312
O O7 0.240081 0.068969 0.122135
O O8 0.273331 0.984837 0.156962
O O9 0.750979 0.846927 0.866893
O O10 0.000000 0.884679 0.907684
O O11 0.772128 0.262461 0.869192
O O12 0.000000 0.231288 0.935657
O O13 0.750000 0.250000 0.000000
O O14 0.267992 0.195385 0.250000
O O15 0.500000 0.191176 0.170277
O O16 0.730159 0.074348 0.750000
O O17 0.500000 0.066862 0.829944
#
# Coordination Sequence:
#
# PCOD9473301 Si02
#       6
#    16  16  16  16  16  16
#     4  10  22  37  55  82 114 147 181 223 277 332
#     4   9  19  37  58  79 108 146 186 228 274 326
#     4  11  22  35  53  82 116 146 181 225 275 330
#     4  10  20  37  58  79 108 147 186 224 271 326
#     4  10  21  36  56  82 109 143 188 231 272 325
#     4   9  20  39  60  82 108 141 186 234 274 322
#
# _framework density 17.914000000000001
#
# number of rings (size 3 to 8) (size 9 to 14) (size 15 to 20)
#    0.000    2.167    1.667    2.000    0.000    7.000 
#    0.000    6.667    0.000    0.000    0.000    0.000 
#    0.000    0.000    0.000    0.000    0.000    0.000 
#
# Total GULP energy -267973.953855 kJ/mol
# GULP energy per Si atom -5582.790705 kJ/mol
# Density = 1.787323 g / cm^3
# Si number density = 17.914000 Si / 1000 Ang^3
#
#
#
# Elastic Constant Matrix: (Units=GPa)
#
#
# Indices 1 2 3 4 5 6 
#
# 1 11.8068 38.8873 40.8138 0.0000 0.0000 0.0000
# 2 38.8873 180.1280 134.4968 0.0000 0.0000 0.0000
# 3 40.8138 134.4968 180.8094 0.0000 0.0000 0.0000
# 4 0.0000 0.0000 0.0000 39.9706 0.0000 0.0000
# 5 0.0000 0.0000 0.0000 0.0000 30.2238 0.0000
# 6 0.0000 0.0000 0.0000 0.0000 0.0000 27.6848
#
#
#
# Elastic Compliance Matrix: (Units=1/GPa)
#
#
# Indices 1 2 3 4 5 6 
#
# 1 0.593138 -0.063162 -0.086905 0.000000 0.000000 0.000000
# 2 -0.063162 0.019213 -0.000035 0.000000 0.000000 0.000000
# 3 -0.086905 -0.000035 0.025173 0.000000 0.000000 0.000000
# 4 0.000000 0.000000 0.000000 0.025018 0.000000 0.000000
# 5 0.000000 0.000000 0.000000 0.000000 0.033086 0.000000
# 6 0.000000 0.000000 0.000000 0.000000 0.000000 0.036121
#
#
# Mechanical properties :
#
#
# Convention : Reuss Voigt Hill
#
# Bulk Modulus (GPa) = 2.96452 89.01556 45.99004
# Shear Modulus (GPa) = 4.36913 30.14561 17.25737
#
# Velocity S-wave (km/s) = 1.56341 4.10664 3.10715
# Velocity P-wave (km/s) = 2.21753 8.50202 6.21296
#
# Compressibility (1/GPa) = 0.33732314
#
# Stress axis : x y z
#
# Youngs Moduli (GPa) = 1.68595 52.04754 39.72474
#
# Poissons Ratio (x) = 3.28740 3.45226
# Poissons Ratio (y) = 0.10649 0.00137
# Poissons Ratio (z) = 0.14652 0.00180
#
# Static dielectric constant tensor:
#      x y z
#    x 1.606270 0.000000 0.000000 
#    y 0.000000 1.594360 0.000000 
#    z 0.000000 0.000000 1.589680 
# 
# From -- ./inp_files/51416.got.cif
#   From: 2010.05.17/outbox.cif.g08.bks.cpg/sg63_26_cif.got.tgz:51416.got - 2010.06.03 15:47:04.
