data_PCOD9473929
_publ_section_title
;
Structure prediction by ZEFSAII (Michael W. Deem and Ramdas Pophale) SiO2 
 PCOD9473929
Probable space group: C M C M
;
_chemical_formula_sum "Si O2"
_cell_formula_units_Z 96
_cell_length_a 19.390405
_cell_length_b 11.506067
_cell_length_c 18.588924
_cell_angle_alpha 90.000000
_cell_angle_beta 90.000000
_cell_angle_gamma 90.000000
_cell_volume 4147.324627
_symmetry_space_group_name_H-M "C M C M"
_symmetry_group_IT_number 63
_symmetry_cell_setting 'orthorhombic'
loop_
_space_group_symop_operation_xyz
x,y,z
-x,-y,1/2+z
x,-y,-z
-x,y,1/2-z
-x,-y,-z
x,y,1/2-z
-x,y,z
x,-y,1/2+z
1/2+x,1/2+y,z
1/2-x,1/2-y,1/2+z
1/2+x,1/2-y,-z
1/2-x,1/2+y,1/2-z
1/2-x,1/2-y,-z
1/2+x,1/2+y,1/2-z
1/2-x,1/2+y,z
1/2+x,1/2-y,1/2+z
loop_
_atom_site_type_symbol
_atom_site_label
_atom_site_fract_x
_atom_site_fract_y
_atom_site_fract_z
Si Si1 0.423786 0.099052 0.665353
Si Si2 0.776497 0.685474 0.661716
Si Si3 0.416860 0.176227 0.329337
Si Si4 0.220052 0.939406 0.831485
Si Si5 0.078239 0.918938 0.891638
Si Si6 0.921751 0.824521 0.458938
O O1 0.428992 0.126864 0.750000
O O2 0.500000 0.118964 0.632888
O O3 0.408417 0.961401 0.661851
O O4 0.356220 0.164489 0.639477
O O5 0.773654 0.688213 0.750000
O O6 0.754094 0.815276 0.638006
O O7 0.738184 0.566589 0.636797
O O8 0.390235 0.212865 0.250000
O O9 0.500000 0.197175 0.326993
O O10 0.389546 0.242306 0.398939
O O11 0.246327 0.945178 0.750000
O O12 0.137426 0.923222 0.832811
O O13 0.000000 0.885564 0.869771
O O14 0.073714 0.049778 0.921891
O O15 0.104580 0.846567 0.961025
O O16 0.000000 0.781694 0.470948
#
# Coordination Sequence:
#
# PCOD9473929 Si02
#       6
#    16  16  16  16  16  16
#     4   8  14  26  47  76 105 131 166 216 271 325
#     4   9  19  35  53  76 109 147 182 219 273 332
#     4   8  13  22  42  75 107 133 167 211 259 316
#     4  10  21  36  55  79 108 145 186 228 274 326
#     4   9  18  32  51  76 106 143 184 226 276 326
#     4   8  15  29  48  72 108 149 179 213 271 332
#
# _framework density 23.147452000000001
#
# number of rings (size 3 to 8) (size 9 to 14) (size 15 to 20)
#    0.000    3.333    0.000    2.000    0.000    3.000 
#    0.000    6.667    0.000   10.000    0.000    4.667 
#    0.000    0.000    0.000    0.000    0.000    0.000 
#
# Total GULP energy -267385.023560 kJ/mol
# GULP energy per Si atom -5570.521324 kJ/mol
# Density = 2.309477 g / cm^3
# Si number density = 23.147452 Si / 1000 Ang^3
#
#
#
# Elastic Constant Matrix: (Units=GPa)
#
#
# Indices 1 2 3 4 5 6 
#
# 1 78.7339 49.3392 18.4632 0.0000 0.0000 0.0000
# 2 49.3392 145.0923 26.2201 0.0000 0.0000 0.0000
# 3 18.4632 26.2201 30.6164 0.0000 0.0000 0.0000
# 4 0.0000 0.0000 0.0000 23.7430 0.0000 0.0000
# 5 0.0000 0.0000 0.0000 0.0000 10.9611 0.0000
# 6 0.0000 0.0000 0.0000 0.0000 0.0000 17.0461
#
#
#
# Elastic Compliance Matrix: (Units=1/GPa)
#
#
# Indices 1 2 3 4 5 6 
#
# 1 0.017113 -0.004679 -0.006313 0.000000 0.000000 0.000000
# 2 -0.004679 0.009433 -0.005257 0.000000 0.000000 0.000000
# 3 -0.006313 -0.005257 0.040972 0.000000 0.000000 0.000000
# 4 0.000000 0.000000 0.000000 0.042118 0.000000 0.000000
# 5 0.000000 0.000000 0.000000 0.000000 0.091232 0.000000
# 6 0.000000 0.000000 0.000000 0.000000 0.000000 0.058664
#
#
# Mechanical properties :
#
#
# Convention : Reuss Voigt Hill
#
# Bulk Modulus (GPa) = 28.55520 49.16530 38.86025
# Shear Modulus (GPa) = 16.46341 21.04473 18.75407
#
# Velocity S-wave (km/s) = 2.66980 3.01850 2.84949
# Velocity P-wave (km/s) = 4.67619 5.78227 5.25839
#
# Compressibility (1/GPa) = 0.03501990
#
# Stress axis : x y z
#
# Youngs Moduli (GPa) = 58.43389 106.00890 24.40699
#
# Poissons Ratio (x) = 0.49597 0.15409
# Poissons Ratio (y) = 0.27338 0.12831
# Poissons Ratio (z) = 0.36892 0.55732
#
# Static dielectric constant tensor:
#      x y z
#    x 1.938280 0.000000 0.000000 
#    y 0.000000 1.928350 0.000000 
#    z 0.000000 0.000000 1.850580 
# 
# From -- ./inp_files/56559.got.cif
#   From: 2010.05.17/outbox.cif.g08.bks.cpg/sg63_29_cif.got.tgz:56559.got - 2010.06.03 15:47:04.
