data_PCOD9473411
_publ_section_title
;
Structure prediction by ZEFSAII (Michael W. Deem and Ramdas Pophale) SiO2 
 PCOD9473411
Probable space group: C M C M
;
_chemical_formula_sum "Si O2"
_cell_formula_units_Z 56
_cell_length_a 8.580560
_cell_length_b 22.346335
_cell_length_c 13.334806
_cell_angle_alpha 90.000000
_cell_angle_beta 90.000000
_cell_angle_gamma 90.000000
_cell_volume 2556.869952
_symmetry_space_group_name_H-M "C M C M"
_symmetry_group_IT_number 63
_symmetry_cell_setting 'orthorhombic'
loop_
_space_group_symop_operation_xyz
x,y,z
-x,-y,1/2+z
x,-y,-z
-x,y,1/2-z
-x,-y,-z
x,y,1/2-z
-x,y,z
x,-y,1/2+z
1/2+x,1/2+y,z
1/2-x,1/2-y,1/2+z
1/2+x,1/2-y,-z
1/2-x,1/2+y,1/2-z
1/2-x,1/2-y,-z
1/2+x,1/2+y,1/2-z
1/2-x,1/2+y,z
1/2+x,1/2-y,1/2+z
loop_
_atom_site_type_symbol
_atom_site_label
_atom_site_fract_x
_atom_site_fract_y
_atom_site_fract_z
Si Si1 0.000000 0.209138 0.129261
Si Si2 0.672462 0.891073 0.365529
Si Si3 0.000000 0.067759 0.368466
Si Si4 0.675240 0.270015 0.127824
Si Si5 0.251448 0.500000 0.000000
O O1 0.168357 0.234963 0.093966
O O2 0.000000 0.219026 0.250000
O O3 0.000000 0.138291 0.111822
O O4 0.702620 0.909057 0.250000
O O5 0.500000 0.862359 0.367615
O O6 0.795126 0.840159 0.394538
O O7 0.670098 0.948162 0.436609
O O8 0.145529 0.035878 0.419908
O O9 0.000000 0.058291 0.250000
O O10 0.675720 0.265565 0.250000
O O11 0.500000 0.251000 0.096573
#
# Coordination Sequence:
#
# PCOD9473411 Si02
#       5
#     8  16   8  16   8
#     4   9  17  37  61  87 122 158 200 251 312 374
#     4  10  20  37  62  91 125 163 204 255 310 364
#     4  10  23  41  62  87 124 167 203 254 315 365
#     4   9  17  31  59  92 119 156 205 252 305 368
#     4  11  23  38  60  88 124 160 216 252 300 370
#
# _framework density 21.901779000000001
#
# number of rings (size 3 to 8) (size 9 to 14) (size 15 to 20)
#    0.000    2.286    1.429    1.286    4.000    0.000 
#    0.000    4.286    0.000    6.857    0.000    0.000 
#    0.000    0.000    0.000    0.000    0.000    0.000 
#
# Total GULP energy -156364.918427 kJ/mol
# GULP energy per Si atom -5584.461372 kJ/mol
# Density = 2.185193 g / cm^3
# Si number density = 21.901779 Si / 1000 Ang^3
#
#
#
# Elastic Constant Matrix: (Units=GPa)
#
#
# Indices 1 2 3 4 5 6 
#
# 1 168.0013 73.0764 54.9602 0.0000 0.0000 0.0000
# 2 73.0764 104.1223 46.0409 0.0000 0.0000 0.0000
# 3 54.9602 46.0409 113.9623 0.0000 0.0000 0.0000
# 4 0.0000 0.0000 0.0000 30.1976 0.0000 0.0000
# 5 0.0000 0.0000 0.0000 0.0000 25.7000 0.0000
# 6 0.0000 0.0000 0.0000 0.0000 0.0000 43.5812
#
#
#
# Elastic Compliance Matrix: (Units=1/GPa)
#
#
# Indices 1 2 3 4 5 6 
#
# 1 0.008990 -0.005348 -0.002175 0.000000 0.000000 0.000000
# 2 -0.005348 0.014874 -0.003430 0.000000 0.000000 0.000000
# 3 -0.002175 -0.003430 0.011210 0.000000 0.000000 0.000000
# 4 0.000000 0.000000 0.000000 0.033115 0.000000 0.000000
# 5 0.000000 0.000000 0.000000 0.000000 0.038910 0.000000
# 6 0.000000 0.000000 0.000000 0.000000 0.000000 0.022946
#
#
# Mechanical properties :
#
#
# Convention : Reuss Voigt Hill
#
# Bulk Modulus (GPa) = 75.94290 81.58233 78.76261
# Shear Modulus (GPa) = 31.98157 34.02965 33.00561
#
# Velocity S-wave (km/s) = 3.82544 3.94603 3.88620
# Velocity P-wave (km/s) = 7.36624 7.62178 7.49510
#
# Compressibility (1/GPa) = 0.01316779
#
# Stress axis : x y z
#
# Youngs Moduli (GPa) = 111.23457 67.23141 89.20935
#
# Poissons Ratio (x) = 0.35953 0.19404
# Poissons Ratio (y) = 0.59485 0.30600
# Poissons Ratio (z) = 0.24195 0.23061
#
# Static dielectric constant tensor:
#      x y z
#    x 1.816590 0.000000 0.000000 
#    y 0.000000 1.735670 0.000000 
#    z 0.000000 0.000000 1.831670 
# 
# From -- ./inp_files/27291.got.cif
#   From: 2010.05.17/outbox.cif.g08.bks.cpg/sg63_14_cif.got.tgz:27291.got - 2010.06.03 15:47:04.
