data_PCOD9473635
_publ_section_title
;
Structure prediction by ZEFSAII (Michael W. Deem and Ramdas Pophale) SiO2 
 PCOD9473635
Probable space group: C M C M
;
_chemical_formula_sum "Si O2"
_cell_formula_units_Z 64
_cell_length_a 33.102656
_cell_length_b 10.237026
_cell_length_c 9.661702
_cell_angle_alpha 90.000000
_cell_angle_beta 90.000000
_cell_angle_gamma 90.000000
_cell_volume 3274.087528
_symmetry_space_group_name_H-M "C M C M"
_symmetry_group_IT_number 63
_symmetry_cell_setting 'orthorhombic'
loop_
_space_group_symop_operation_xyz
x,y,z
-x,-y,1/2+z
x,-y,-z
-x,y,1/2-z
-x,-y,-z
x,y,1/2-z
-x,y,z
x,-y,1/2+z
1/2+x,1/2+y,z
1/2-x,1/2-y,1/2+z
1/2+x,1/2-y,-z
1/2-x,1/2+y,1/2-z
1/2-x,1/2-y,-z
1/2+x,1/2+y,1/2-z
1/2-x,1/2+y,z
1/2+x,1/2-y,1/2+z
loop_
_atom_site_type_symbol
_atom_site_label
_atom_site_fract_x
_atom_site_fract_y
_atom_site_fract_z
Si Si1 0.671414 0.283372 0.469212
Si Si2 0.712728 0.558094 0.750000
Si Si3 0.796725 0.579471 0.250000
Si Si4 0.088652 0.862119 0.582782
Si Si5 0.000000 0.131815 0.411751
Si Si6 0.209255 0.716163 0.750000
O O1 0.684064 0.410299 0.379307
O O2 0.686023 0.157117 0.382251
O O3 0.624722 0.282927 0.511406
O O4 0.695431 0.284734 0.611567
O O5 0.747679 0.447605 0.750000
O O6 0.811356 0.571125 0.750000
O O7 0.756256 0.818627 0.250000
O O8 0.095657 0.877563 0.750000
O O9 0.043574 0.802867 0.563642
O O10 0.088708 0.000000 0.500000
O O11 0.000000 0.094701 0.250000
O O12 0.000000 0.000000 0.500000
#
# Coordination Sequence:
#
# PCOD9473635 Si02
#       6
#    16   8   8  16   8   8
#     4  11  20  41  57  84 112 149 197 240 278 342
#     4   9  23  38  55  78 113 153 199 240 288 325
#     4   9  23  38  58  76 111 157 193 236 287 330
#     4  10  21  37  59  90 118 148 182 228 292 347
#     4   8  16  34  58  84 119 145 172 220 287 365
#     4  10  20  40  57  79 108 151 200 240 289 325
#
# _framework density 19.547429999999999
#
# number of rings (size 3 to 8) (size 9 to 14) (size 15 to 20)
#    0.750    1.500    1.250    1.500    3.500    0.000 
#   13.500    0.000    0.000    0.000    0.000    5.250 
#    0.000    0.000    0.000    0.000    0.000    0.000 
#
# Total GULP energy -178242.822252 kJ/mol
# GULP energy per Si atom -5570.088195 kJ/mol
# Density = 1.950294 g / cm^3
# Si number density = 19.547430 Si / 1000 Ang^3
#
#
#
# Elastic Constant Matrix: (Units=GPa)
#
#
# Indices 1 2 3 4 5 6 
#
# 1 187.6871 29.5023 66.7869 0.0000 0.0000 0.0000
# 2 29.5023 60.6206 33.8471 0.0000 0.0000 0.0000
# 3 66.7869 33.8471 140.4146 0.0000 0.0000 0.0000
# 4 0.0000 0.0000 0.0000 40.8311 0.0000 0.0000
# 5 0.0000 0.0000 0.0000 0.0000 27.2185 0.0000
# 6 0.0000 0.0000 0.0000 0.0000 0.0000 22.0343
#
#
#
# Elastic Compliance Matrix: (Units=1/GPa)
#
#
# Indices 1 2 3 4 5 6 
#
# 1 0.006558 -0.001675 -0.002715 0.000000 0.000000 0.000000
# 2 -0.001675 0.019490 -0.003901 0.000000 0.000000 0.000000
# 3 -0.002715 -0.003901 0.009354 0.000000 0.000000 0.000000
# 4 0.000000 0.000000 0.000000 0.024491 0.000000 0.000000
# 5 0.000000 0.000000 0.000000 0.000000 0.036740 0.000000
# 6 0.000000 0.000000 0.000000 0.000000 0.000000 0.045384
#
#
# Mechanical properties :
#
#
# Convention : Reuss Voigt Hill
#
# Bulk Modulus (GPa) = 53.14237 72.11054 62.62646
# Shear Modulus (GPa) = 30.32671 35.25583 32.79127
#
# Velocity S-wave (km/s) = 3.94311 4.25149 4.10020
# Velocity P-wave (km/s) = 6.92649 7.81475 7.38399
#
# Compressibility (1/GPa) = 0.01881738
#
# Stress axis : x y z
#
# Youngs Moduli (GPa) = 152.49616 51.30950 106.91085
#
# Poissons Ratio (x) = 0.08596 0.29028
# Poissons Ratio (y) = 0.25549 0.41707
# Poissons Ratio (z) = 0.41406 0.20016
#
# Static dielectric constant tensor:
#      x y z
#    x 1.723890 0.000000 0.000000 
#    y 0.000000 1.798600 0.000000 
#    z 0.000000 0.000000 1.685860 
# 
# From -- ./inp_files/13798.got.cif
#   From: 2010.05.17/outbox.cif.g08.bks.cpg/sg63_7_cif.got.tgz:13798.got - 2010.06.03 15:47:04.
