data_PCOD9473050
_publ_section_title
;
Structure prediction by ZEFSAII (Michael W. Deem and Ramdas Pophale) SiO2 
 PCOD9473050
Probable space group: C M C M
;
_chemical_formula_sum "Si O2"
_cell_formula_units_Z 80
_cell_length_a 11.340488
_cell_length_b 23.665395
_cell_length_c 15.299626
_cell_angle_alpha 90.000000
_cell_angle_beta 90.000000
_cell_angle_gamma 90.000000
_cell_volume 4106.069686
_symmetry_space_group_name_H-M "C M C M"
_symmetry_group_IT_number 63
_symmetry_cell_setting 'orthorhombic'
loop_
_space_group_symop_operation_xyz
x,y,z
-x,-y,1/2+z
x,-y,-z
-x,y,1/2-z
-x,-y,-z
x,y,1/2-z
-x,y,z
x,-y,1/2+z
1/2+x,1/2+y,z
1/2-x,1/2-y,1/2+z
1/2+x,1/2-y,-z
1/2-x,1/2+y,1/2-z
1/2-x,1/2-y,-z
1/2+x,1/2+y,1/2-z
1/2-x,1/2+y,z
1/2+x,1/2-y,1/2+z
loop_
_atom_site_type_symbol
_atom_site_label
_atom_site_fract_x
_atom_site_fract_y
_atom_site_fract_z
Si Si1 0.631694 0.951902 0.849064
Si Si2 0.137715 0.736948 0.345559
Si Si3 0.635484 0.151433 0.015937
Si Si4 0.293578 0.634794 0.850408
Si Si5 0.628556 0.486385 0.396698
O O1 0.632088 0.928833 0.750000
O O2 0.500000 0.979088 0.861119
O O3 0.640710 0.902759 0.920539
O O4 0.748558 0.989751 0.858692
O O5 0.190309 0.722924 0.250000
O O6 0.190249 0.702418 0.426535
O O7 0.143839 0.804299 0.355347
O O8 0.000000 0.720391 0.342431
O O9 0.500000 0.165243 0.997446
O O10 0.695335 0.138371 0.924675
O O11 0.252706 0.627927 0.750000
O O12 0.368942 0.580104 0.875667
O O13 0.633390 0.500000 0.500000
O O14 0.500000 0.508832 0.365207
#
# Coordination Sequence:
#
# PCOD9473050 Si02
#       5
#    16  16  16  16  16
#     4  10  21  38  62  88 114 151 198 246 298 353
#     4   9  18  34  58  85 111 144 190 243 296 349
#     4  10  20  36  57  83 116 150 190 243 295 350
#     4  11  22  36  56  83 115 154 196 239 292 351
#     4  11  23  40  61  86 119 159 200 245 297 353
#
# _framework density 19.483353000000001
#
# number of rings (size 3 to 8) (size 9 to 14) (size 15 to 20)
#    0.000    1.800    2.000    2.400    0.000    6.400 
#    0.000    0.000    0.000    0.000    0.000    2.800 
#    0.000    0.000    0.000    0.000    0.000    0.000 
#
# Total GULP energy -222857.896951 kJ/mol
# GULP energy per Si atom -5571.447424 kJ/mol
# Density = 1.943901 g / cm^3
# Si number density = 19.483353 Si / 1000 Ang^3
#
#
#
# Elastic Constant Matrix: (Units=GPa)
#
#
# Indices 1 2 3 4 5 6 
#
# 1 103.5705 31.8559 59.4051 0.0000 0.0000 0.0000
# 2 31.8559 67.7903 38.7039 0.0000 0.0000 0.0000
# 3 59.4051 38.7039 157.5089 0.0000 0.0000 0.0000
# 4 0.0000 0.0000 0.0000 29.1592 0.0000 0.0000
# 5 0.0000 0.0000 0.0000 0.0000 7.6721 0.0000
# 6 0.0000 0.0000 0.0000 0.0000 0.0000 25.7375
#
#
#
# Elastic Compliance Matrix: (Units=1/GPa)
#
#
# Indices 1 2 3 4 5 6 
#
# 1 0.013148 -0.003894 -0.004002 0.000000 0.000000 0.000000
# 2 -0.003894 0.018312 -0.003031 0.000000 0.000000 0.000000
# 3 -0.004002 -0.003031 0.008603 0.000000 0.000000 0.000000
# 4 0.000000 0.000000 0.000000 0.034294 0.000000 0.000000
# 5 0.000000 0.000000 0.000000 0.000000 0.130342 0.000000
# 6 0.000000 0.000000 0.000000 0.000000 0.000000 0.038854
#
#
# Mechanical properties :
#
#
# Convention : Reuss Voigt Hill
#
# Bulk Modulus (GPa) = 54.91731 65.42215 60.16973
# Shear Modulus (GPa) = 18.41776 25.77410 22.09593
#
# Velocity S-wave (km/s) = 3.07792 3.64108 3.37128
# Velocity P-wave (km/s) = 6.39370 7.16436 6.78997
#
# Compressibility (1/GPa) = 0.01820920
#
# Stress axis : x y z
#
# Youngs Moduli (GPa) = 76.05484 54.60998 116.23693
#
# Poissons Ratio (x) = 0.21263 0.46520
# Poissons Ratio (y) = 0.29613 0.35233
# Poissons Ratio (z) = 0.30439 0.16553
#
# Static dielectric constant tensor:
#      x y z
#    x 1.706710 0.000000 0.000000 
#    y 0.000000 1.697880 0.000000 
#    z 0.000000 0.000000 1.703710 
# 
# From -- ./inp_files/29697.got.cif
#   From: 2010.05.17/outbox.cif.g08.bks.cpg/sg63_15_cif.got.tgz:29697.got - 2010.06.03 15:47:04.
