data_PCOD9473879
_publ_section_title
;
Structure prediction by ZEFSAII (Michael W. Deem and Ramdas Pophale) SiO2 
 PCOD9473879
Probable space group: C M C M
;
_chemical_formula_sum "Si O2"
_cell_formula_units_Z 96
_cell_length_a 22.541467
_cell_length_b 28.507032
_cell_length_c 8.130311
_cell_angle_alpha 90.000000
_cell_angle_beta 90.000000
_cell_angle_gamma 90.000000
_cell_volume 5224.459156
_symmetry_space_group_name_H-M "C M C M"
_symmetry_group_IT_number 63
_symmetry_cell_setting 'orthorhombic'
loop_
_space_group_symop_operation_xyz
x,y,z
-x,-y,1/2+z
x,-y,-z
-x,y,1/2-z
-x,-y,-z
x,y,1/2-z
-x,y,z
x,-y,1/2+z
1/2+x,1/2+y,z
1/2-x,1/2-y,1/2+z
1/2+x,1/2-y,-z
1/2-x,1/2+y,1/2-z
1/2-x,1/2-y,-z
1/2+x,1/2+y,1/2-z
1/2-x,1/2+y,z
1/2+x,1/2-y,1/2+z
loop_
_atom_site_type_symbol
_atom_site_label
_atom_site_fract_x
_atom_site_fract_y
_atom_site_fract_z
Si Si1 0.622132 0.770428 0.943562
Si Si2 0.750119 0.552419 0.551715
Si Si3 0.684127 0.857054 0.060242
Si Si4 0.000000 0.886359 0.450383
Si Si5 0.129260 0.899685 0.449425
Si Si6 0.000000 0.223315 0.950763
Si Si7 0.301289 0.688310 0.439897
O O1 0.625786 0.760842 0.750000
O O2 0.559007 0.750898 0.004004
O O3 0.635209 0.824986 0.973889
O O4 0.673372 0.739445 0.026575
O O5 0.764349 0.500000 0.500000
O O6 0.750095 0.555392 0.750000
O O7 0.796371 0.592103 0.491872
O O8 0.683300 0.566795 0.496314
O O9 0.667192 0.862181 0.250000
O O10 0.745657 0.827944 0.047011
O O11 0.061976 0.909791 0.503049
O O12 0.000000 0.886545 0.250000
O O13 0.000000 0.831357 0.501013
O O14 0.130168 0.898191 0.250000
O O15 0.146902 0.848386 0.514975
O O16 0.000000 0.223160 0.750000
O O17 0.283905 0.683485 0.250000
#
# Coordination Sequence:
#
# PCOD9473879 Si02
#       7
#    16  16  16   8  16   8  16
#     4  11  20  33  50  72 101 134 169 201 236 286
#     4   9  19  34  53  73  96 123 158 205 256 306
#     4  10  21  36  51  72  98 128 163 203 250 299
#     4   9  14  28  51  69  93 134 177 206 236 284
#     4   9  17  31  50  71  95 131 173 209 243 290
#     4   9  18  30  50  73  98 138 174 199 230 283
#     4  11  20  30  46  71 101 134 166 204 246 289
#
# _framework density 18.375108000000001
#
# number of rings (size 3 to 8) (size 9 to 14) (size 15 to 20)
#    0.000    2.167    1.667    4.000    0.000    3.333 
#    0.000    3.333    0.000    0.000    0.000    0.583 
#    0.000    0.000    0.000    0.000    0.000    0.000 
#
# Total GULP energy -267709.994459 kJ/mol
# GULP energy per Si atom -5577.291551 kJ/mol
# Density = 1.833329 g / cm^3
# Si number density = 18.375108 Si / 1000 Ang^3
#
#
#
# Elastic Constant Matrix: (Units=GPa)
#
#
# Indices 1 2 3 4 5 6 
#
# 1 25.7855 14.5331 -5.5202 0.0000 0.0000 0.0000
# 2 14.5331 94.7069 -1.9959 0.0000 0.0000 0.0000
# 3 -5.5202 -1.9959 17.9191 0.0000 0.0000 0.0000
# 4 0.0000 0.0000 0.0000 22.6357 0.0000 0.0000
# 5 0.0000 0.0000 0.0000 0.0000 7.5048 0.0000
# 6 0.0000 0.0000 0.0000 0.0000 0.0000 16.8848
#
#
#
# Elastic Compliance Matrix: (Units=1/GPa)
#
#
# Indices 1 2 3 4 5 6 
#
# 1 0.045383 -0.006685 0.013236 0.000000 0.000000 0.000000
# 2 -0.006685 0.011569 -0.000771 0.000000 0.000000 0.000000
# 3 0.013236 -0.000771 0.059798 0.000000 0.000000 0.000000
# 4 0.000000 0.000000 0.000000 0.044178 0.000000 0.000000
# 5 0.000000 0.000000 0.000000 0.000000 0.133248 0.000000
# 6 0.000000 0.000000 0.000000 0.000000 0.000000 0.059225
#
#
# Mechanical properties :
#
#
# Convention : Reuss Voigt Hill
#
# Bulk Modulus (GPa) = 7.79368 16.93840 12.36604
# Shear Modulus (GPa) = 13.00018 18.16468 15.58243
#
# Velocity S-wave (km/s) = 2.66275 3.14753 2.91524
# Velocity P-wave (km/s) = 3.70193 4.73787 4.25157
#
# Compressibility (1/GPa) = 0.12830912
#
# Stress axis : x y z
#
# Youngs Moduli (GPa) = 22.03473 86.44143 16.72299
#
# Poissons Ratio (x) = 0.57788 -0.22135
# Poissons Ratio (y) = 0.14731 0.01289
# Poissons Ratio (z) = -0.29165 0.06664
#
# Static dielectric constant tensor:
#      x y z
#    x 1.657240 0.000000 0.000000 
#    y 0.000000 1.637450 0.000000 
#    z 0.000000 0.000000 1.613340 
# 
# From -- ./inp_files/10793.got.cif
#   From: 2010.05.17/outbox.cif.g08.bks.cpg/sg63_6_cif.got.tgz:10793.got - 2010.06.03 15:47:04.
