data_PCOD9473337
_publ_section_title
;
Structure prediction by ZEFSAII (Michael W. Deem and Ramdas Pophale) SiO2 
 PCOD9473337
Probable space group: C M C M
;
_chemical_formula_sum "Si O2"
_cell_formula_units_Z 88
_cell_length_a 16.527052
_cell_length_b 11.584838
_cell_length_c 18.991000
_cell_angle_alpha 90.000000
_cell_angle_beta 90.000000
_cell_angle_gamma 90.000000
_cell_volume 3636.078012
_symmetry_space_group_name_H-M "C M C M"
_symmetry_group_IT_number 63
_symmetry_cell_setting 'orthorhombic'
loop_
_space_group_symop_operation_xyz
x,y,z
-x,-y,1/2+z
x,-y,-z
-x,y,1/2-z
-x,-y,-z
x,y,1/2-z
-x,y,z
x,-y,1/2+z
1/2+x,1/2+y,z
1/2-x,1/2-y,1/2+z
1/2+x,1/2-y,-z
1/2-x,1/2+y,1/2-z
1/2-x,1/2-y,-z
1/2+x,1/2+y,1/2-z
1/2-x,1/2+y,z
1/2+x,1/2-y,1/2+z
loop_
_atom_site_type_symbol
_atom_site_label
_atom_site_fract_x
_atom_site_fract_y
_atom_site_fract_z
Si Si1 0.175911 0.033955 0.829360
Si Si2 0.314727 0.353269 0.558482
Si Si3 0.662311 0.149682 0.829843
Si Si4 0.631564 0.841366 0.524656
Si Si5 0.594006 0.782986 0.674566
Si Si6 0.500000 0.902980 0.093504
O O1 0.156160 0.989660 0.750000
O O2 0.272564 0.047220 0.836035
O O3 0.142047 0.163587 0.832215
O O4 0.149845 0.957403 0.895807
O O5 0.309766 0.250170 0.616269
O O6 0.367791 0.294935 0.497344
O O7 0.226122 0.375885 0.525949
O O8 0.883216 0.337494 0.750000
O O9 0.572142 0.112198 0.847648
O O10 0.602959 0.856696 0.604252
O O11 0.571642 0.895295 0.468288
O O12 0.668672 0.193245 0.750000
O O13 0.500000 0.752761 0.677649
#
# Coordination Sequence:
#
# PCOD9473337 Si02
#       6
#    16  16  16  16  16   8
#     4  10  21  38  61  88 116 155 202 243 299 358
#     4  10  21  37  59  88 117 152 198 247 293 363
#     4  10  20  38  63  86 118 162 201 250 299 347
#     4  10  20  38  58  85 120 154 198 242 300 360
#     4  10  20  37  59  83 117 155 195 246 300 358
#     4  10  21  38  58  85 124 156 201 242 293 361
#
# _framework density 24.201900999999999
#
# number of rings (size 3 to 8) (size 9 to 14) (size 15 to 20)
#    0.000    2.000    2.727    0.818    0.000    1.455 
#    6.545    2.727    0.000    0.000    0.000    0.000 
#    0.000    0.000    0.000    0.000    0.000    0.000 
#
# Total GULP energy -244937.939953 kJ/mol
# GULP energy per Si atom -5566.771363 kJ/mol
# Density = 2.414682 g / cm^3
# Si number density = 24.201901 Si / 1000 Ang^3
#
#
#
# Elastic Constant Matrix: (Units=GPa)
#
#
# Indices 1 2 3 4 5 6 
#
# 1 74.7652 1.9499 -1.8757 0.0000 0.0000 0.0000
# 2 1.9499 42.3883 18.8237 0.0000 0.0000 0.0000
# 3 -1.8757 18.8237 149.7828 0.0000 0.0000 0.0000
# 4 0.0000 0.0000 0.0000 41.8045 0.0000 0.0000
# 5 0.0000 0.0000 0.0000 0.0000 41.9864 0.0000
# 6 0.0000 0.0000 0.0000 0.0000 0.0000 -5.0590
#
#
#
# Elastic Compliance Matrix: (Units=1/GPa)
#
#
# Indices 1 2 3 4 5 6 
#
# 1 0.013401 -0.000732 0.000260 0.000000 0.000000 0.000000
# 2 -0.000732 0.025026 -0.003154 0.000000 0.000000 0.000000
# 3 0.000260 -0.003154 0.007076 0.000000 0.000000 0.000000
# 4 0.000000 0.000000 0.000000 0.023921 0.000000 0.000000
# 5 0.000000 0.000000 0.000000 0.000000 0.023817 0.000000
# 6 0.000000 0.000000 0.000000 0.000000 0.000000 -0.197666
#
#
# Mechanical properties :
#
#
# Convention : Reuss Voigt Hill
#
# Bulk Modulus (GPa) = 26.14373 33.85912 30.00143
# Shear Modulus (GPa) = -59.22556 32.28227 -13.47165
#
# Velocity S-wave (km/s) = -4.95223 3.65619 -2.36187
# Velocity P-wave (km/s) = 4.67693 5.64307 2.23278
#
# Compressibility (1/GPa) = 0.03825009
#
# Stress axis : x y z
#
# Youngs Moduli (GPa) = 74.62236 39.95875 141.32302
#
# Poissons Ratio (x) = 0.02924 -0.03671
# Poissons Ratio (y) = 0.05461 0.44577
# Poissons Ratio (z) = -0.01939 0.12604
#
# Static dielectric constant tensor:
#      x y z
#    x 1.875560 0.000000 0.000000 
#    y 0.000000 2.031890 0.000000 
#    z 0.000000 0.000000 1.985030 
# 
# From -- ./inp_files/45517.got.cif
#   From: 2010.05.17/outbox.cif.g08.bks.cpg/sg63_23_cif.got.tgz:45517.got - 2010.06.03 15:47:04.
