data_PCOD9473864
_publ_section_title
;
Structure prediction by ZEFSAII (Michael W. Deem and Ramdas Pophale) SiO2 
 PCOD9473864
Probable space group: C M C M
;
_chemical_formula_sum "Si O2"
_cell_formula_units_Z 96
_cell_length_a 17.322858
_cell_length_b 11.920788
_cell_length_c 24.759127
_cell_angle_alpha 90.000000
_cell_angle_beta 90.000000
_cell_angle_gamma 90.000000
_cell_volume 5112.812160
_symmetry_space_group_name_H-M "C M C M"
_symmetry_group_IT_number 63
_symmetry_cell_setting 'orthorhombic'
loop_
_space_group_symop_operation_xyz
x,y,z
-x,-y,1/2+z
x,-y,-z
-x,y,1/2-z
-x,-y,-z
x,y,1/2-z
-x,y,z
x,-y,1/2+z
1/2+x,1/2+y,z
1/2-x,1/2-y,1/2+z
1/2+x,1/2-y,-z
1/2-x,1/2+y,1/2-z
1/2-x,1/2-y,-z
1/2+x,1/2+y,1/2-z
1/2-x,1/2+y,z
1/2+x,1/2-y,1/2+z
loop_
_atom_site_type_symbol
_atom_site_label
_atom_site_fract_x
_atom_site_fract_y
_atom_site_fract_z
Si Si1 0.702301 0.006279 0.687638
Si Si2 0.407860 0.208364 0.309685
Si Si3 0.413298 0.362268 0.090445
Si Si4 0.911905 0.300695 0.184807
Si Si5 0.793471 0.869884 0.992813
Si Si6 0.148752 0.915145 0.874072
O O1 0.725514 0.027509 0.750000
O O2 0.641460 0.904240 0.688133
O O3 0.776137 0.970890 0.653462
O O4 0.653642 0.111864 0.666342
O O5 0.393866 0.260575 0.250000
O O6 0.500000 0.186351 0.312919
O O7 0.385404 0.283043 0.360799
O O8 0.500000 0.328797 0.075625
O O9 0.411321 0.486355 0.114843
O O10 0.359096 0.364569 0.038638
O O11 0.910898 0.302633 0.250000
O O12 0.887199 0.180432 0.162890
O O13 0.000000 0.328892 0.168013
O O14 0.826061 0.868240 0.932209
O O15 0.750000 0.750000 0.000000
O O16 0.758895 0.000000 0.000000
#
# Coordination Sequence:
#
# PCOD9473864 Si02
#       6
#    16  16  16  16  16  16
#     4  10  21  35  57  86 119 156 198 247 300 360
#     4   9  18  34  58  84 114 154 195 239 294 359
#     4  10  22  40  60  86 119 156 197 243 298 364
#     4  10  22  39  58  85 123 162 200 247 306 366
#     4  10  23  40  63  87 117 157 197 251 305 355
#     4  11  23  36  60  86 116 151 203 244 297 358
#
# _framework density 18.77636
#
# number of rings (size 3 to 8) (size 9 to 14) (size 15 to 20)
#    0.000    2.000    0.000    2.500    7.000    7.000 
#    0.000    1.667    0.000    0.500    0.000    0.000 
#    0.000    0.000    0.000    0.000    0.000    0.000 
#
# Total GULP energy -267605.653332 kJ/mol
# GULP energy per Si atom -5575.117778 kJ/mol
# Density = 1.873362 g / cm^3
# Si number density = 18.776360 Si / 1000 Ang^3
#
#
#
# Elastic Constant Matrix: (Units=GPa)
#
#
# Indices 1 2 3 4 5 6 
#
# 1 65.4599 27.6466 43.5731 0.0000 0.0000 0.0000
# 2 27.6466 74.9055 16.4102 0.0000 0.0000 0.0000
# 3 43.5731 16.4102 57.2065 0.0000 0.0000 0.0000
# 4 0.0000 0.0000 0.0000 24.7188 0.0000 0.0000
# 5 0.0000 0.0000 0.0000 0.0000 -3.1297 0.0000
# 6 0.0000 0.0000 0.0000 0.0000 0.0000 14.2496
#
#
#
# Elastic Compliance Matrix: (Units=1/GPa)
#
#
# Indices 1 2 3 4 5 6 
#
# 1 0.034480 -0.007440 -0.024128 0.000000 0.000000 0.000000
# 2 -0.007440 0.015851 0.001120 0.000000 0.000000 0.000000
# 3 -0.024128 0.001120 0.035537 0.000000 0.000000 0.000000
# 4 0.000000 0.000000 0.000000 0.040455 0.000000 0.000000
# 5 0.000000 0.000000 0.000000 0.000000 -0.319515 0.000000
# 6 0.000000 0.000000 0.000000 0.000000 0.000000 0.070177
#
#
# Mechanical properties :
#
#
# Convention : Reuss Voigt Hill
#
# Bulk Modulus (GPa) = 40.04619 41.42572 40.73596
# Shear Modulus (GPa) = -92.94611 14.49720 -39.22445
#
# Velocity S-wave (km/s) = -7.04337 2.78168 -4.57555
# Velocity P-wave (km/s) = 6.69113 5.69452 2.48431
#
# Compressibility (1/GPa) = 0.02497116
#
# Stress axis : x y z
#
# Youngs Moduli (GPa) = 29.00265 63.08833 28.13948
#
# Poissons Ratio (x) = 0.46938 0.67896
# Poissons Ratio (y) = 0.21578 -0.03151
# Poissons Ratio (z) = 0.69978 -0.07066
#
# Static dielectric constant tensor:
#      x y z
#    x 1.773350 0.000000 0.000000 
#    y 0.000000 1.703970 0.000000 
#    z 0.000000 0.000000 1.642900 
# 
# From -- ./inp_files/63673.got.cif
#   From: 2010.05.17/outbox.cif.g08.bks.cpg/sg63_32_cif.got.tgz:63673.got - 2010.06.03 15:47:04.
