data_PCOD9473388
_publ_section_title
;
Structure prediction by ZEFSAII (Michael W. Deem and Ramdas Pophale) SiO2 
 PCOD9473388
Probable space group: C M C M
;
_chemical_formula_sum "Si O2"
_cell_formula_units_Z 80
_cell_length_a 10.441777
_cell_length_b 14.128036
_cell_length_c 27.194305
_cell_angle_alpha 90.000000
_cell_angle_beta 90.000000
_cell_angle_gamma 90.000000
_cell_volume 4011.752860
_symmetry_space_group_name_H-M "C M C M"
_symmetry_group_IT_number 63
_symmetry_cell_setting 'orthorhombic'
loop_
_space_group_symop_operation_xyz
x,y,z
-x,-y,1/2+z
x,-y,-z
-x,y,1/2-z
-x,-y,-z
x,y,1/2-z
-x,y,z
x,-y,1/2+z
1/2+x,1/2+y,z
1/2-x,1/2-y,1/2+z
1/2+x,1/2-y,-z
1/2-x,1/2+y,1/2-z
1/2-x,1/2-y,-z
1/2+x,1/2+y,1/2-z
1/2-x,1/2+y,z
1/2+x,1/2-y,1/2+z
loop_
_atom_site_type_symbol
_atom_site_label
_atom_site_fract_x
_atom_site_fract_y
_atom_site_fract_z
Si Si1 0.750255 0.906493 0.606455
Si Si2 0.000000 0.882349 0.545889
Si Si3 0.000000 0.343845 0.068067
Si Si4 0.500000 0.890848 0.543529
Si Si5 0.254980 0.317474 0.374112
Si Si6 0.500000 0.663892 0.562109
Si Si7 0.654655 0.462551 0.193224
O O1 0.625161 0.925154 0.573154
O O2 0.746491 0.796027 0.622843
O O3 0.873256 0.919242 0.571782
O O4 0.774825 0.968076 0.654939
O O5 0.000000 0.768082 0.554360
O O6 0.000000 0.893802 0.487838
O O7 0.125604 0.356248 0.101297
O O8 0.000000 0.400220 0.016094
O O9 0.500000 0.776274 0.550371
O O10 0.372602 0.353233 0.407333
O O11 0.287693 0.360033 0.321069
O O12 0.678602 0.486024 0.250000
O O13 0.500000 0.464867 0.185808
#
# Coordination Sequence:
#
# PCOD9473388 Si02
#       7
#    16   8   8   8  16   8  16
#     4  10  20  37  61  89 121 156 195 240 292 351
#     4   9  16  31  57  88 121 159 198 230 278 352
#     4   9  18  33  57  88 125 161 186 228 292 352
#     4   9  18  33  57  88 125 161 186 228 292 352
#     4  10  20  37  61  89 121 156 195 240 292 351
#     4   9  16  31  57  88 121 159 198 230 278 352
#     4  11  24  43  64  85 113 153 205 257 298 341
#
# _framework density 19.941407000000002
#
# number of rings (size 3 to 8) (size 9 to 14) (size 15 to 20)
#    0.000    2.200    2.000    1.200    0.000    6.400 
#    0.000    8.000    0.000    0.000    0.000    0.000 
#    0.000    0.000    0.000    0.000    0.000    0.000 
#
# Total GULP energy -223419.358524 kJ/mol
# GULP energy per Si atom -5585.483963 kJ/mol
# Density = 1.989602 g / cm^3
# Si number density = 19.941407 Si / 1000 Ang^3
#
#
#
# Elastic Constant Matrix: (Units=GPa)
#
#
# Indices 1 2 3 4 5 6 
#
# 1 171.9557 14.8975 67.0472 0.0000 0.0000 0.0000
# 2 14.8975 74.1805 20.7804 0.0000 0.0000 0.0000
# 3 67.0472 20.7804 130.0087 0.0000 0.0000 0.0000
# 4 0.0000 0.0000 0.0000 34.4067 0.0000 0.0000
# 5 0.0000 0.0000 0.0000 0.0000 22.3674 0.0000
# 6 0.0000 0.0000 0.0000 0.0000 0.0000 -4.0588
#
#
#
# Elastic Compliance Matrix: (Units=1/GPa)
#
#
# Indices 1 2 3 4 5 6 
#
# 1 0.007292 -0.000430 -0.003692 0.000000 0.000000 0.000000
# 2 -0.000430 0.014138 -0.002038 0.000000 0.000000 0.000000
# 3 -0.003692 -0.002038 0.009922 0.000000 0.000000 0.000000
# 4 0.000000 0.000000 0.000000 0.029064 0.000000 0.000000
# 5 0.000000 0.000000 0.000000 0.000000 0.044708 0.000000
# 6 0.000000 0.000000 0.000000 0.000000 0.000000 -0.246377
#
#
# Mechanical properties :
#
#
# Convention : Reuss Voigt Hill
#
# Bulk Modulus (GPa) = 52.54447 64.62169 58.58308
# Shear Modulus (GPa) = -40.78647 28.77103 -6.00772
#
# Velocity S-wave (km/s) = -4.52742 3.80251 -1.73759
# Velocity P-wave (km/s) = 0.96096 7.19409 5.04140
#
# Compressibility (1/GPa) = 0.01903150
#
# Stress axis : x y z
#
# Youngs Moduli (GPa) = 137.13183 70.73176 100.79104
#
# Poissons Ratio (x) = 0.03043 0.37211
# Poissons Ratio (y) = 0.05900 0.20540
# Poissons Ratio (z) = 0.50628 0.14414
#
# Static dielectric constant tensor:
#      x y z
#    x 1.667730 0.000000 0.000000 
#    y 0.000000 1.772690 0.000000 
#    z 0.000000 0.000000 1.663430 
# 
# From -- ./inp_files/66732.got.cif
#   From: 2010.05.17/outbox.cif.g08.bks.cpg/sg63_34_cif.got.tgz:66732.got - 2010.06.03 15:47:04.
