data_PCOD9473828
_publ_section_title
;
Structure prediction by ZEFSAII (Michael W. Deem and Ramdas Pophale) SiO2 
 PCOD9473828
Probable space group: C M C M
;
_chemical_formula_sum "Si O2"
_cell_formula_units_Z 80
_cell_length_a 7.894456
_cell_length_b 15.264907
_cell_length_c 31.223684
_cell_angle_alpha 90.000000
_cell_angle_beta 90.000000
_cell_angle_gamma 90.000000
_cell_volume 3762.707978
_symmetry_space_group_name_H-M "C M C M"
_symmetry_group_IT_number 63
_symmetry_cell_setting 'orthorhombic'
loop_
_space_group_symop_operation_xyz
x,y,z
-x,-y,1/2+z
x,-y,-z
-x,y,1/2-z
-x,-y,-z
x,y,1/2-z
-x,y,z
x,-y,1/2+z
1/2+x,1/2+y,z
1/2-x,1/2-y,1/2+z
1/2+x,1/2-y,-z
1/2-x,1/2+y,1/2-z
1/2-x,1/2-y,-z
1/2+x,1/2+y,1/2-z
1/2-x,1/2+y,z
1/2+x,1/2-y,1/2+z
loop_
_atom_site_type_symbol
_atom_site_label
_atom_site_fract_x
_atom_site_fract_y
_atom_site_fract_z
Si Si1 0.203814 0.365889 0.201450
Si Si2 0.198135 0.956949 0.545331
Si Si3 0.704989 0.785678 0.638582
Si Si4 0.186215 0.733979 0.452233
Si Si5 0.794970 0.488045 0.635067
O O1 0.268783 0.369450 0.250000
O O2 0.246037 0.275398 0.177768
O O3 0.265549 0.445285 0.171350
O O4 0.000000 0.373168 0.203217
O O5 0.312088 0.871381 0.550640
O O6 0.230416 0.013606 0.587685
O O7 0.000000 0.930930 0.544483
O O8 0.237488 0.000000 0.500000
O O9 0.500000 0.786859 0.635224
O O10 0.772564 0.744751 0.593401
O O11 0.760205 0.887044 0.643105
O O12 0.250000 0.750000 0.500000
O O13 0.000000 0.774147 0.451325
O O14 0.000000 0.489495 0.634471
#
# Coordination Sequence:
#
# PCOD9473828 Si02
#       5
#    16  16  16  16  16
#     4  10  22  39  60  87 115 147 192 241 292 347
#     4  10  21  35  53  81 115 150 188 234 283 336
#     4   9  20  38  58  82 114 149 189 235 285 342
#     4  10  21  36  55  81 114 151 191 234 284 344
#     4   9  20  39  59  81 112 153 193 235 286 345
#
# _framework density 21.261282000000001
#
# number of rings (size 3 to 8) (size 9 to 14) (size 15 to 20)
#    0.000    2.400    0.000    2.400    2.800    7.600 
#    0.000    2.000    0.000    0.000    0.000    0.000 
#    0.000    0.000    0.000    0.000    0.000    0.000 
#
# Total GULP energy -223063.686325 kJ/mol
# GULP energy per Si atom -5576.592158 kJ/mol
# Density = 2.121289 g / cm^3
# Si number density = 21.261282 Si / 1000 Ang^3
#
#
#
# Elastic Constant Matrix: (Units=GPa)
#
#
# Indices 1 2 3 4 5 6 
#
# 1 21.3912 2.2008 12.2651 0.0000 0.0000 0.0000
# 2 2.2008 77.8580 73.8027 0.0000 0.0000 0.0000
# 3 12.2651 73.8027 226.0818 0.0000 0.0000 0.0000
# 4 0.0000 0.0000 0.0000 37.4993 0.0000 0.0000
# 5 0.0000 0.0000 0.0000 0.0000 24.2904 0.0000
# 6 0.0000 0.0000 0.0000 0.0000 0.0000 20.7791
#
#
#
# Elastic Compliance Matrix: (Units=1/GPa)
#
#
# Indices 1 2 3 4 5 6 
#
# 1 0.048390 0.001623 -0.003155 0.000000 0.000000 0.000000
# 2 0.001623 0.018654 -0.006177 0.000000 0.000000 0.000000
# 3 -0.003155 -0.006177 0.006611 0.000000 0.000000 0.000000
# 4 0.000000 0.000000 0.000000 0.026667 0.000000 0.000000
# 5 0.000000 0.000000 0.000000 0.000000 0.041169 0.000000
# 6 0.000000 0.000000 0.000000 0.000000 0.000000 0.048125
#
#
# Mechanical properties :
#
#
# Convention : Reuss Voigt Hill
#
# Bulk Modulus (GPa) = 17.17164 55.76315 36.46739
# Shear Modulus (GPa) = 22.27701 32.31791 27.29746
#
# Velocity S-wave (km/s) = 3.24044 3.90299 3.58705
# Velocity P-wave (km/s) = 4.70050 6.82610 5.86047
#
# Compressibility (1/GPa) = 0.05823557
#
# Stress axis : x y z
#
# Youngs Moduli (GPa) = 20.66538 53.60879 151.26536
#
# Poissons Ratio (x) = -0.08700 0.47723
# Poissons Ratio (y) = -0.03354 0.93442
# Poissons Ratio (z) = 0.06520 0.33116
#
# Static dielectric constant tensor:
#      x y z
#    x 2.171320 0.000000 0.000000 
#    y 0.000000 1.736010 0.000000 
#    z 0.000000 0.000000 1.820080 
# 
# From -- ./inp_files/71584.got.cif
#   From: 2010.05.17/outbox.cif.g08.bks.cpg/sg63_36_cif.got.tgz:71584.got - 2010.06.03 15:47:04.
