data_PCOD9473008
_publ_section_title
;
Structure prediction by ZEFSAII (Michael W. Deem and Ramdas Pophale) SiO2 
 PCOD9473008
Probable space group: C M C M
;
_chemical_formula_sum "Si O2"
_cell_formula_units_Z 64
_cell_length_a 15.906298
_cell_length_b 11.756319
_cell_length_c 15.645282
_cell_angle_alpha 90.000000
_cell_angle_beta 90.000000
_cell_angle_gamma 90.000000
_cell_volume 2925.660121
_symmetry_space_group_name_H-M "C M C M"
_symmetry_group_IT_number 63
_symmetry_cell_setting 'orthorhombic'
loop_
_space_group_symop_operation_xyz
x,y,z
-x,-y,1/2+z
x,-y,-z
-x,y,1/2-z
-x,-y,-z
x,y,1/2-z
-x,y,z
x,-y,1/2+z
1/2+x,1/2+y,z
1/2-x,1/2-y,1/2+z
1/2+x,1/2-y,-z
1/2-x,1/2+y,1/2-z
1/2-x,1/2-y,-z
1/2+x,1/2+y,1/2-z
1/2-x,1/2+y,z
1/2+x,1/2-y,1/2+z
loop_
_atom_site_type_symbol
_atom_site_label
_atom_site_fract_x
_atom_site_fract_y
_atom_site_fract_z
Si Si1 0.727609 0.792950 0.750000
Si Si2 0.399080 0.984364 0.750000
Si Si3 0.410161 0.261616 0.942819
Si Si4 0.591740 0.650675 0.250000
Si Si5 0.215666 0.610657 0.885421
Si Si6 0.154703 0.000000 0.500000
O O1 0.640344 0.858398 0.750000
O O2 0.808265 0.881193 0.750000
O O3 0.739288 0.708193 0.670254
O O4 0.500000 0.991132 0.750000
O O5 0.355167 0.046214 0.669363
O O6 0.500000 0.214970 0.970096
O O7 0.411974 0.280606 0.839366
O O8 0.333973 0.176869 0.960333
O O9 0.396589 0.386125 0.981634
O O10 0.500000 0.585136 0.250000
O O11 0.284516 0.525613 0.920845
#
# Coordination Sequence:
#
# PCOD9473008 Si02
#       6
#     8   8  16   8  16   8
#     4   9  19  37  59  85 115 146 188 246 297 339
#     4  11  22  40  65  90 112 147 198 250 297 344
#     4  10  20  36  56  82 112 147 191 240 287 340
#     4   8  15  31  58  81 101 137 190 238 280 331
#     4  10  21  38  60  82 113 152 193 236 287 347
#     4  12  23  36  55  84 120 160 192 226 282 350
#
# _framework density 21.875404
#
# number of rings (size 3 to 8) (size 9 to 14) (size 15 to 20)
#    0.000    2.000    0.000    5.625    0.000    6.000 
#    0.000    7.500    0.000    3.000    0.000    0.000 
#    0.000    0.000    0.000    0.000    0.000    0.000 
#
# Total GULP energy -178380.951735 kJ/mol
# GULP energy per Si atom -5574.404742 kJ/mol
# Density = 2.182561 g / cm^3
# Si number density = 21.875404 Si / 1000 Ang^3
#
#
#
# Elastic Constant Matrix: (Units=GPa)
#
#
# Indices 1 2 3 4 5 6 
#
# 1 98.9539 22.3516 24.6604 0.0000 0.0000 0.0000
# 2 22.3516 56.2945 8.2439 0.0000 0.0000 0.0000
# 3 24.6604 8.2439 37.4514 0.0000 0.0000 0.0000
# 4 0.0000 0.0000 0.0000 8.7406 0.0000 0.0000
# 5 0.0000 0.0000 0.0000 0.0000 33.2944 0.0000
# 6 0.0000 0.0000 0.0000 0.0000 0.0000 32.2137
#
#
#
# Elastic Compliance Matrix: (Units=1/GPa)
#
#
# Indices 1 2 3 4 5 6 
#
# 1 0.012910 -0.004010 -0.007618 0.000000 0.000000 0.000000
# 2 -0.004010 0.019601 -0.001674 0.000000 0.000000 0.000000
# 3 -0.007618 -0.001674 0.032086 0.000000 0.000000 0.000000
# 4 0.000000 0.000000 0.000000 0.114408 0.000000 0.000000
# 5 0.000000 0.000000 0.000000 0.000000 0.030035 0.000000
# 6 0.000000 0.000000 0.000000 0.000000 0.000000 0.031043
#
#
# Mechanical properties :
#
#
# Convention : Reuss Voigt Hill
#
# Bulk Modulus (GPa) = 26.32102 33.69018 30.00560
# Shear Modulus (GPa) = 17.89856 24.01267 20.95561
#
# Velocity S-wave (km/s) = 2.86353 3.31675 3.09844
# Velocity P-wave (km/s) = 4.79494 5.48654 5.15236
#
# Compressibility (1/GPa) = 0.03799244
#
# Stress axis : x y z
#
# Youngs Moduli (GPa) = 77.45898 51.01743 31.16624
#
# Poissons Ratio (x) = 0.20460 0.23743
# Poissons Ratio (y) = 0.31063 0.05217
# Poissons Ratio (z) = 0.59009 0.08540
#
# Static dielectric constant tensor:
#      x y z
#    x 1.837480 0.000000 0.000000 
#    y 0.000000 1.808290 0.000000 
#    z 0.000000 0.000000 1.849260 
# 
# From -- ./inp_files/43512.got.cif
#   From: 2010.05.17/outbox.cif.g08.bks.cpg/sg63_22_cif.got.tgz:43512.got - 2010.06.03 15:47:04.
