data_PCOD9473084
_publ_section_title
;
Structure prediction by ZEFSAII (Michael W. Deem and Ramdas Pophale) SiO2 
 PCOD9473084
Probable space group: C M C M
;
_chemical_formula_sum "Si O2"
_cell_formula_units_Z 56
_cell_length_a 29.576545
_cell_length_b 9.221864
_cell_length_c 10.706396
_cell_angle_alpha 90.000000
_cell_angle_beta 90.000000
_cell_angle_gamma 90.000000
_cell_volume 2920.178883
_symmetry_space_group_name_H-M "C M C M"
_symmetry_group_IT_number 63
_symmetry_cell_setting 'orthorhombic'
loop_
_space_group_symop_operation_xyz
x,y,z
-x,-y,1/2+z
x,-y,-z
-x,y,1/2-z
-x,-y,-z
x,y,1/2-z
-x,y,z
x,-y,1/2+z
1/2+x,1/2+y,z
1/2-x,1/2-y,1/2+z
1/2+x,1/2-y,-z
1/2-x,1/2+y,1/2-z
1/2-x,1/2-y,-z
1/2+x,1/2+y,1/2-z
1/2-x,1/2+y,z
1/2+x,1/2-y,1/2+z
loop_
_atom_site_type_symbol
_atom_site_label
_atom_site_fract_x
_atom_site_fract_y
_atom_site_fract_z
Si Si1 0.823168 0.662801 0.528893
Si Si2 0.400074 0.378003 0.608400
Si Si3 0.500000 0.617329 0.390921
Si Si4 0.276200 0.606991 0.615739
O O1 0.837965 0.500000 0.500000
O O2 0.861977 0.757612 0.590408
O O3 0.776483 0.650265 0.606570
O O4 0.806284 0.751002 0.406874
O O5 0.395460 0.500000 0.500000
O O6 0.396347 0.438974 0.750000
O O7 0.450762 0.309986 0.597526
O O8 0.500000 0.500000 0.500000
O O9 0.500000 0.553240 0.250000
O O10 0.284818 0.500000 0.500000
O O11 0.285509 0.539355 0.750000
#
# Coordination Sequence:
#
# PCOD9473084 Si02
#       4
#    16  16   8  16
#     4  10  22  35  53  80 111 142 177 219 267 316
#     4  10  20  36  58  82 108 139 177 220 266 316
#     4   8  16  32  55  80 104 134 174 218 261 310
#     4  10  22  39  57  77 105 143 185 224 262 310
#
# _framework density 19.176905999999999
#
# number of rings (size 3 to 8) (size 9 to 14) (size 15 to 20)
#    0.000    2.286    0.000    1.714    0.000   17.143 
#    0.000    0.714    0.000    0.000    0.000    6.000 
#    0.000    0.000    0.000    0.000    0.000    0.000 
#
# Total GULP energy -156061.551897 kJ/mol
# GULP energy per Si atom -5573.626853 kJ/mol
# Density = 1.913326 g / cm^3
# Si number density = 19.176906 Si / 1000 Ang^3
#
#
#
# Elastic Constant Matrix: (Units=GPa)
#
#
# Indices 1 2 3 4 5 6 
#
# 1 128.6649 45.8384 32.9766 0.0000 0.0000 0.0000
# 2 45.8384 94.0073 49.1183 0.0000 0.0000 0.0000
# 3 32.9766 49.1183 147.8535 0.0000 0.0000 0.0000
# 4 0.0000 0.0000 0.0000 18.6420 0.0000 0.0000
# 5 0.0000 0.0000 0.0000 0.0000 -163.5061 0.0000
# 6 0.0000 0.0000 0.0000 0.0000 0.0000 22.5755
#
#
#
# Elastic Compliance Matrix: (Units=1/GPa)
#
#
# Indices 1 2 3 4 5 6 
#
# 1 0.009465 -0.004250 -0.000699 0.000000 0.000000 0.000000
# 2 -0.004250 0.014780 -0.003962 0.000000 0.000000 0.000000
# 3 -0.000699 -0.003962 0.008236 0.000000 0.000000 0.000000
# 4 0.000000 0.000000 0.000000 0.053642 0.000000 0.000000
# 5 0.000000 0.000000 0.000000 0.000000 -0.006116 0.000000
# 6 0.000000 0.000000 0.000000 0.000000 0.000000 0.044296
#
#
# Mechanical properties :
#
#
# Convention : Reuss Voigt Hill
#
# Bulk Modulus (GPa) = 68.22079 69.59914 68.90996
# Shear Modulus (GPa) = 34.01076 -8.28490 12.86293
#
# Velocity S-wave (km/s) = 4.21590 -2.08078 2.59270
# Velocity P-wave (km/s) = 7.70390 5.53165 6.70631
#
# Compressibility (1/GPa) = 0.01465829
#
# Stress axis : x y z
#
# Youngs Moduli (GPa) = 105.64709 67.65890 121.42313
#
# Poissons Ratio (x) = 0.28755 0.08490
# Poissons Ratio (y) = 0.44901 0.48110
# Poissons Ratio (z) = 0.07387 0.26807
#
# Static dielectric constant tensor:
#      x y z
#    x 1.715140 0.000000 0.000000 
#    y 0.000000 1.660390 0.000000 
#    z 0.000000 0.000000 1.714880 
# 
# From -- ./inp_files/24559.got.cif
#   From: 2010.05.17/outbox.cif.g08.bks.cpg/sg63_13_cif.got.tgz:24559.got - 2010.06.03 15:47:04.
