data_PCOD9473677
_publ_section_title
;
Structure prediction by ZEFSAII (Michael W. Deem and Ramdas Pophale) SiO2 
 PCOD9473677
Probable space group: C M C M
;
_chemical_formula_sum "Si O2"
_cell_formula_units_Z 92
_cell_length_a 19.773719
_cell_length_b 10.487309
_cell_length_c 23.773904
_cell_angle_alpha 90.000000
_cell_angle_beta 90.000000
_cell_angle_gamma 90.000000
_cell_volume 4930.068201
_symmetry_space_group_name_H-M "C M C M"
_symmetry_group_IT_number 63
_symmetry_cell_setting 'orthorhombic'
loop_
_space_group_symop_operation_xyz
x,y,z
-x,-y,1/2+z
x,-y,-z
-x,y,1/2-z
-x,-y,-z
x,y,1/2-z
-x,y,z
x,-y,1/2+z
1/2+x,1/2+y,z
1/2-x,1/2-y,1/2+z
1/2+x,1/2-y,-z
1/2-x,1/2+y,1/2-z
1/2-x,1/2-y,-z
1/2+x,1/2+y,1/2-z
1/2-x,1/2+y,z
1/2+x,1/2-y,1/2+z
loop_
_atom_site_type_symbol
_atom_site_label
_atom_site_fract_x
_atom_site_fract_y
_atom_site_fract_z
Si Si1 0.380642 0.397780 0.750000
Si Si2 0.151293 0.858962 0.978395
Si Si3 0.240434 0.907311 0.250000
Si Si4 0.345809 0.007241 0.842092
Si Si5 0.580535 0.260452 0.635049
Si Si6 0.500000 0.391724 0.250000
Si Si7 0.811748 0.615696 0.041009
Si Si8 0.124409 0.695735 0.250000
O O1 0.310084 0.472462 0.750000
O O2 0.389185 0.319257 0.807516
O O3 0.441151 0.498196 0.750000
O O4 0.112849 0.821874 0.921087
O O5 0.231617 0.863335 0.966748
O O6 0.147343 0.743574 0.023927
O O7 0.130890 0.000000 0.000000
O O8 0.287864 0.921840 0.194981
O O9 0.192919 0.782307 0.250000
O O10 0.399001 0.112574 0.862125
O O11 0.319169 0.934399 0.896335
O O12 0.375838 0.898704 0.802603
O O13 0.500000 0.278473 0.634792
O O14 0.559691 0.283786 0.250000
O O15 0.832513 0.500000 0.000000
#
# Coordination Sequence:
#
# PCOD9473677 Si02
#       8
#     8  16   8  16  16   4  16   8
#     4  11  22  43  66  92 129 170 209 267 331 391
#     4  10  23  40  67  95 128 167 218 278 328 389
#     4  10  24  39  64 100 127 160 213 275 333 379
#     4  11  24  39  65  95 129 168 214 274 329 394
#     4  12  25  42  66  92 134 177 220 262 330 412
#     4  10  22  44  60  88 130 170 216 254 314 408
#     4  10  20  41  64  95 128 167 212 273 339 379
#     4  10  25  39  64  94 131 166 214 268 328 391
#
# _framework density 18.661000000000001
#
# number of rings (size 3 to 8) (size 9 to 14) (size 15 to 20)
#    0.000    1.391    2.609    2.087    8.522    3.130 
#    0.000    1.739    0.000    0.000    0.000    0.000 
#    0.000    0.000    0.000    0.000    0.000    0.000 
#
# Total GULP energy -256249.565035 kJ/mol
# GULP energy per Si atom -5570.642718 kJ/mol
# Density = 1.861853 g / cm^3
# Si number density = 18.661000 Si / 1000 Ang^3
#
#
#
# Elastic Constant Matrix: (Units=GPa)
#
#
# Indices 1 2 3 4 5 6 
#
# 1 50.8711 37.0871 21.7909 0.0000 0.0000 0.0000
# 2 37.0871 138.5514 62.0563 0.0000 0.0000 0.0000
# 3 21.7909 62.0563 134.9071 0.0000 0.0000 0.0000
# 4 0.0000 0.0000 0.0000 4.9704 0.0000 0.0000
# 5 0.0000 0.0000 0.0000 0.0000 15.7114 0.0000
# 6 0.0000 0.0000 0.0000 0.0000 0.0000 11.1576
#
#
#
# Elastic Compliance Matrix: (Units=1/GPa)
#
#
# Indices 1 2 3 4 5 6 
#
# 1 0.024574 -0.006046 -0.001188 0.000000 0.000000 0.000000
# 2 -0.006046 0.010578 -0.003889 0.000000 0.000000 0.000000
# 3 -0.001188 -0.003889 0.009393 0.000000 0.000000 0.000000
# 4 0.000000 0.000000 0.000000 0.201191 0.000000 0.000000
# 5 0.000000 0.000000 0.000000 0.000000 0.063648 0.000000
# 6 0.000000 0.000000 0.000000 0.000000 0.000000 0.089625
#
#
# Mechanical properties :
#
#
# Convention : Reuss Voigt Hill
#
# Bulk Modulus (GPa) = 44.84528 62.91092 53.87810
# Shear Modulus (GPa) = 11.66349 19.92757 15.79553
#
# Velocity S-wave (km/s) = 2.50275 3.27138 2.91253
# Velocity P-wave (km/s) = 5.69521 6.93216 6.34391
#
# Compressibility (1/GPa) = 0.02229889
#
# Stress axis : x y z
#
# Youngs Moduli (GPa) = 40.69328 94.53801 106.45710
#
# Poissons Ratio (x) = 0.57154 0.12651
# Poissons Ratio (y) = 0.24602 0.41403
# Poissons Ratio (z) = 0.04836 0.36767
#
# Static dielectric constant tensor:
#      x y z
#    x 1.623300 0.000000 0.000000 
#    y 0.000000 1.657070 0.000000 
#    z 0.000000 0.000000 1.450450 
# 
# From -- ./inp_files/64497.got.cif
#   From: 2010.05.17/outbox.cif.g08.bks.cpg/sg63_33_cif.got.tgz:64497.got - 2010.06.03 15:47:04.
