data_PCOD9473717
_publ_section_title
;
Structure prediction by ZEFSAII (Michael W. Deem and Ramdas Pophale) SiO2 
 PCOD9473717
Probable space group: C M C M
;
_chemical_formula_sum "Si O2"
_cell_formula_units_Z 112
_cell_length_a 28.187077
_cell_length_b 14.745888
_cell_length_c 15.204482
_cell_angle_alpha 90.000000
_cell_angle_beta 90.000000
_cell_angle_gamma 90.000000
_cell_volume 6319.643818
_symmetry_space_group_name_H-M "C M C M"
_symmetry_group_IT_number 63
_symmetry_cell_setting 'orthorhombic'
loop_
_space_group_symop_operation_xyz
x,y,z
-x,-y,1/2+z
x,-y,-z
-x,y,1/2-z
-x,-y,-z
x,y,1/2-z
-x,y,z
x,-y,1/2+z
1/2+x,1/2+y,z
1/2-x,1/2-y,1/2+z
1/2+x,1/2-y,-z
1/2-x,1/2+y,1/2-z
1/2-x,1/2-y,-z
1/2+x,1/2+y,1/2-z
1/2-x,1/2+y,z
1/2+x,1/2-y,1/2+z
loop_
_atom_site_type_symbol
_atom_site_label
_atom_site_fract_x
_atom_site_fract_y
_atom_site_fract_z
Si Si1 0.214582 0.037798 0.351708
Si Si2 0.821180 0.519534 0.104494
Si Si3 0.817263 0.850475 0.352010
Si Si4 0.774487 0.755488 0.594397
Si Si5 0.056140 0.609283 0.502644
Si Si6 0.871048 0.344272 0.149601
Si Si7 0.618980 0.808748 0.644906
O O1 0.200632 0.047768 0.250000
O O2 0.214731 0.138666 0.389859
O O3 0.175691 0.295187 0.389973
O O4 0.187745 0.950862 0.392588
O O5 0.769122 0.507053 0.141937
O O6 0.856232 0.449561 0.149883
O O7 0.839136 0.619516 0.125248
O O8 0.820372 0.500000 0.000000
O O9 0.828988 0.864485 0.250000
O O10 0.767271 0.795301 0.351617
O O11 0.858956 0.786451 0.387565
O O12 0.750000 0.750000 0.500000
O O13 0.066098 0.500000 0.500000
O O14 0.085062 0.656301 0.582296
O O15 0.075686 0.654625 0.413192
O O16 0.000000 0.620198 0.512305
O O17 0.879955 0.313680 0.250000
O O18 0.609957 0.806529 0.750000
#
# Coordination Sequence:
#
# PCOD9473717 Si02
#       7
#    16  16  16  16  16  16  16
#     4  11  22  35  50  77 117 158 193 231 270 321
#     4  12  20  32  51  79 118 153 193 230 276 328
#     4  10  21  33  51  79 111 148 189 226 268 329
#     4  12  23  34  53  79 116 156 198 235 272 328
#     4  11  24  41  58  82 112 141 185 244 302 359
#     4  12  22  36  56  81 111 155 199 233 286 348
#     4  11  20  36  58  82 112 153 193 230 285 352
#
# _framework density 17.722517
#
# number of rings (size 3 to 8) (size 9 to 14) (size 15 to 20)
#    0.000    0.714    5.714    4.286    0.000    0.571 
#    0.000    1.429    0.000    0.000    0.000    2.000 
#    0.000    3.429    0.000    0.000    0.000    0.000 
#
# Total GULP energy -312378.687391 kJ/mol
# GULP energy per Si atom -5578.190846 kJ/mol
# Density = 1.768218 g / cm^3
# Si number density = 17.722517 Si / 1000 Ang^3
#
#
#
# Elastic Constant Matrix: (Units=GPa)
#
#
# Indices 1 2 3 4 5 6 
#
# 1 94.6067 35.4103 40.7420 0.0000 0.0000 0.0000
# 2 35.4103 124.8074 37.2626 0.0000 0.0000 0.0000
# 3 40.7420 37.2626 110.4779 0.0000 0.0000 0.0000
# 4 0.0000 0.0000 0.0000 21.3220 0.0000 0.0000
# 5 0.0000 0.0000 0.0000 0.0000 10.8064 0.0000
# 6 0.0000 0.0000 0.0000 0.0000 0.0000 25.7040
#
#
#
# Elastic Compliance Matrix: (Units=1/GPa)
#
#
# Indices 1 2 3 4 5 6 
#
# 1 0.013263 -0.002560 -0.004027 0.000000 0.000000 0.000000
# 2 -0.002560 0.009404 -0.002228 0.000000 0.000000 0.000000
# 3 -0.004027 -0.002228 0.011288 0.000000 0.000000 0.000000
# 4 0.000000 0.000000 0.000000 0.046900 0.000000 0.000000
# 5 0.000000 0.000000 0.000000 0.000000 0.092538 0.000000
# 6 0.000000 0.000000 0.000000 0.000000 0.000000 0.038904
#
#
# Mechanical properties :
#
#
# Convention : Reuss Voigt Hill
#
# Bulk Modulus (GPa) = 61.25986 61.85798 61.55892
# Shear Modulus (GPa) = 21.24320 25.99829 23.62075
#
# Velocity S-wave (km/s) = 3.46592 3.83425 3.65473
# Velocity P-wave (km/s) = 7.11744 7.38792 7.25394
#
# Compressibility (1/GPa) = 0.01632390
#
# Stress axis : x y z
#
# Youngs Moduli (GPa) = 75.39867 106.33929 88.58862
#
# Poissons Ratio (x) = 0.27228 0.35679
# Poissons Ratio (y) = 0.19306 0.19733
# Poissons Ratio (z) = 0.30366 0.23687
#
# Static dielectric constant tensor:
#      x y z
#    x 1.584530 0.000000 0.000000 
#    y 0.000000 1.663780 0.000000 
#    z 0.000000 0.000000 1.691110 
# 
# From -- ./inp_files/38559.got.cif
#   From: 2010.05.17/outbox.cif.g08.bks.cpg/sg63_20_cif.got.tgz:38559.got - 2010.06.03 15:47:04.
