data_PCOD9473482
_publ_section_title
;
Structure prediction by ZEFSAII (Michael W. Deem and Ramdas Pophale) SiO2 
 PCOD9473482
Probable space group: C M C M
;
_chemical_formula_sum "Si O2"
_cell_formula_units_Z 104
_cell_length_a 11.828530
_cell_length_b 19.233242
_cell_length_c 25.059560
_cell_angle_alpha 90.000000
_cell_angle_beta 90.000000
_cell_angle_gamma 90.000000
_cell_volume 5701.074458
_symmetry_space_group_name_H-M "C M C M"
_symmetry_group_IT_number 63
_symmetry_cell_setting 'orthorhombic'
loop_
_space_group_symop_operation_xyz
x,y,z
-x,-y,1/2+z
x,-y,-z
-x,y,1/2-z
-x,-y,-z
x,y,1/2-z
-x,y,z
x,-y,1/2+z
1/2+x,1/2+y,z
1/2-x,1/2-y,1/2+z
1/2+x,1/2-y,-z
1/2-x,1/2+y,1/2-z
1/2-x,1/2-y,-z
1/2+x,1/2+y,1/2-z
1/2-x,1/2+y,z
1/2+x,1/2-y,1/2+z
loop_
_atom_site_type_symbol
_atom_site_label
_atom_site_fract_x
_atom_site_fract_y
_atom_site_fract_z
Si Si1 0.365939 0.496555 0.114855
Si Si2 0.000000 0.473081 0.142504
Si Si3 0.365741 0.622381 0.530368
Si Si4 0.500000 0.113908 0.077763
Si Si5 0.243828 0.138782 0.414609
Si Si6 0.780060 0.405908 0.312103
Si Si7 0.000000 0.633850 0.544885
Si Si8 0.793293 0.707419 0.597827
O O1 0.500000 0.509290 0.115210
O O2 0.339343 0.449270 0.062335
O O3 0.298031 0.568646 0.114115
O O4 0.325230 0.448350 0.163479
O O5 0.110509 0.453611 0.176041
O O6 0.000000 0.548824 0.117538
O O7 0.000000 0.424869 0.089903
O O8 0.500000 0.625217 0.521542
O O9 0.300073 0.627710 0.475001
O O10 0.322107 0.684654 0.568087
O O11 0.621303 0.148428 0.087532
O O12 0.500000 0.101260 0.013759
O O13 0.193545 0.211029 0.393783
O O14 0.768301 0.391194 0.250000
O O15 0.797870 0.337007 0.347924
O O16 0.109384 0.680291 0.557763
#
# Coordination Sequence:
#
# PCOD9473482 Si02
#       8
#    16   8  16   8  16  16   8  16
#     4  10  22  39  58  87 115 150 195 242 286 340
#     4  10  20  38  60  90 114 147 189 241 290 339
#     4  10  21  36  57  81 119 163 194 224 277 342
#     4  12  23  33  59  88 122 156 185 228 286 342
#     4  12  23  35  56  85 125 156 189 230 287 346
#     4  10  21  42  66  82 106 146 199 249 295 342
#     4  10  21  35  55  86 123 156 197 226 272 344
#     4  10  23  36  55  87 117 155 195 237 282 343
#
# _framework density 18.242175
#
# number of rings (size 3 to 8) (size 9 to 14) (size 15 to 20)
#    0.000    1.538    3.077    1.846    3.231    2.769 
#    0.000    0.769    0.000    0.000    0.000    0.000 
#    0.000    0.000    0.000    0.000    0.000    0.000 
#
# Total GULP energy -290209.373047 kJ/mol
# GULP energy per Si atom -5580.949482 kJ/mol
# Density = 1.820065 g / cm^3
# Si number density = 18.242175 Si / 1000 Ang^3
#
#
#
# Elastic Constant Matrix: (Units=GPa)
#
#
# Indices 1 2 3 4 5 6 
#
# 1 66.7719 12.9024 21.1870 0.0000 0.0000 0.0000
# 2 12.9024 86.5392 31.3117 0.0000 0.0000 0.0000
# 3 21.1870 31.3117 79.8453 0.0000 0.0000 0.0000
# 4 0.0000 0.0000 0.0000 4.8623 0.0000 0.0000
# 5 0.0000 0.0000 0.0000 0.0000 14.3824 0.0000
# 6 0.0000 0.0000 0.0000 0.0000 0.0000 9.8269
#
#
#
# Elastic Compliance Matrix: (Units=1/GPa)
#
#
# Indices 1 2 3 4 5 6 
#
# 1 0.016430 -0.001016 -0.003961 0.000000 0.000000 0.000000
# 2 -0.001016 0.013529 -0.005036 0.000000 0.000000 0.000000
# 3 -0.003961 -0.005036 0.015550 0.000000 0.000000 0.000000
# 4 0.000000 0.000000 0.000000 0.205665 0.000000 0.000000
# 5 0.000000 0.000000 0.000000 0.000000 0.069529 0.000000
# 6 0.000000 0.000000 0.000000 0.000000 0.000000 0.101761
#
#
# Mechanical properties :
#
#
# Convention : Reuss Voigt Hill
#
# Bulk Modulus (GPa) = 39.24281 40.43985 39.84133
# Shear Modulus (GPa) = 11.08684 16.99801 14.04243
#
# Velocity S-wave (km/s) = 2.46795 3.05585 2.77750
# Velocity P-wave (km/s) = 5.44792 5.88790 5.67218
#
# Compressibility (1/GPa) = 0.02548238
#
# Stress axis : x y z
#
# Youngs Moduli (GPa) = 60.86578 73.91509 64.30834
#
# Poissons Ratio (x) = 0.07512 0.25473
# Poissons Ratio (y) = 0.06186 0.32384
# Poissons Ratio (z) = 0.24109 0.37222
#
# Static dielectric constant tensor:
#      x y z
#    x 1.663000 0.000000 0.000000 
#    y 0.000000 1.630800 0.000000 
#    z 0.000000 0.000000 1.595840 
# 
# From -- ./inp_files/68476.got.cif
#   From: 2010.05.17/outbox.cif.g08.bks.cpg/sg63_35_cif.got.tgz:68476.got - 2010.06.03 15:47:04.
