data_PCOD9473539
_publ_section_title
;
Structure prediction by ZEFSAII (Michael W. Deem and Ramdas Pophale) SiO2 
 PCOD9473539
Probable space group: C M C M
;
_chemical_formula_sum "Si O2"
_cell_formula_units_Z 96
_cell_length_a 20.283032
_cell_length_b 15.089849
_cell_length_c 15.300828
_cell_angle_alpha 90.000000
_cell_angle_beta 90.000000
_cell_angle_gamma 90.000000
_cell_volume 4683.092143
_symmetry_space_group_name_H-M "C M C M"
_symmetry_group_IT_number 63
_symmetry_cell_setting 'orthorhombic'
loop_
_space_group_symop_operation_xyz
x,y,z
-x,-y,1/2+z
x,-y,-z
-x,y,1/2-z
-x,-y,-z
x,y,1/2-z
-x,y,z
x,-y,1/2+z
1/2+x,1/2+y,z
1/2-x,1/2-y,1/2+z
1/2+x,1/2-y,-z
1/2-x,1/2+y,1/2-z
1/2-x,1/2-y,-z
1/2+x,1/2+y,1/2-z
1/2-x,1/2+y,z
1/2+x,1/2-y,1/2+z
loop_
_atom_site_type_symbol
_atom_site_label
_atom_site_fract_x
_atom_site_fract_y
_atom_site_fract_z
Si Si1 0.727615 0.144204 0.648919
Si Si2 0.076495 0.949683 0.250000
Si Si3 0.127225 0.820600 0.390523
Si Si4 0.664886 0.307769 0.584067
Si Si5 0.073284 0.629751 0.354279
Si Si6 0.422264 0.657304 0.250000
Si Si7 0.782696 0.562994 0.356027
O O1 0.703684 0.149186 0.750000
O O2 0.798754 0.190806 0.645164
O O3 0.686613 0.204779 0.582856
O O4 0.731815 0.040729 0.625132
O O5 0.103515 0.904484 0.336627
O O6 0.000000 0.933170 0.250000
O O7 0.089456 0.052428 0.250000
O O8 0.132606 0.834798 0.493291
O O9 0.084267 0.734422 0.369879
O O10 0.613790 0.310656 0.663313
O O11 0.727213 0.372075 0.604065
O O12 0.071742 0.614379 0.250000
O O13 0.141979 0.584714 0.384922
O O14 0.000000 0.603645 0.388517
O O15 0.500000 0.676328 0.250000
O O16 0.779005 0.574065 0.250000
#
# Coordination Sequence:
#
# PCOD9473539 Si02
#       7
#    16   8  16  16  16   8  16
#     4  11  21  39  66  94 129 168 215 272 322 387
#     4  11  24  43  66  95 127 165 217 272 331 394
#     4  12  23  38  65 101 125 164 218 275 334 380
#     4  12  24  43  64  95 134 169 219 271 324 392
#     4  10  20  38  63  93 130 166 213 276 331 381
#     4  11  26  45  64  89 132 181 215 260 330 400
#     4  10  21  38  65  97 126 170 218 269 326 383
#
# _framework density 20.499276999999999
#
# number of rings (size 3 to 8) (size 9 to 14) (size 15 to 20)
#    0.000    1.000    5.000    2.000    0.000    4.000 
#    0.000    2.500    0.000    1.000    0.000    0.000 
#    0.000    0.000    0.000    0.000    0.000    0.000 
#
# Total GULP energy -268115.958052 kJ/mol
# GULP energy per Si atom -5585.749126 kJ/mol
# Density = 2.045262 g / cm^3
# Si number density = 20.499277 Si / 1000 Ang^3
#
#
#
# Elastic Constant Matrix: (Units=GPa)
#
#
# Indices 1 2 3 4 5 6 
#
# 1 129.6925 13.0344 26.1561 0.0000 0.0000 0.0000
# 2 13.0344 72.7316 8.0428 0.0000 0.0000 0.0000
# 3 26.1561 8.0428 71.4830 0.0000 0.0000 0.0000
# 4 0.0000 0.0000 0.0000 160.4110 0.0000 0.0000
# 5 0.0000 0.0000 0.0000 0.0000 44.4977 0.0000
# 6 0.0000 0.0000 0.0000 0.0000 0.0000 21.8942
#
#
#
# Elastic Compliance Matrix: (Units=1/GPa)
#
#
# Indices 1 2 3 4 5 6 
#
# 1 0.008424 -0.001184 -0.002949 0.000000 0.000000 0.000000
# 2 -0.001184 0.014089 -0.001152 0.000000 0.000000 0.000000
# 3 -0.002949 -0.001152 0.015198 0.000000 0.000000 0.000000
# 4 0.000000 0.000000 0.000000 0.006234 0.000000 0.000000
# 5 0.000000 0.000000 0.000000 0.000000 0.022473 0.000000
# 6 0.000000 0.000000 0.000000 0.000000 0.000000 0.045674
#
#
# Mechanical properties :
#
#
# Convention : Reuss Voigt Hill
#
# Bulk Modulus (GPa) = 36.84446 40.93040 38.88743
# Shear Modulus (GPa) = 37.96232 60.47217 49.21725
#
# Velocity S-wave (km/s) = 4.30802 5.43725 4.90524
# Velocity P-wave (km/s) = 6.53896 7.70898 7.14795
#
# Compressibility (1/GPa) = 0.02714112
#
# Stress axis : x y z
#
# Youngs Moduli (GPa) = 118.70407 70.97891 65.79749
#
# Poissons Ratio (x) = 0.08401 0.19406
# Poissons Ratio (y) = 0.14050 0.07580
# Poissons Ratio (z) = 0.35010 0.08177
#
# Static dielectric constant tensor:
#      x y z
#    x 1.790380 0.000000 0.000000 
#    y 0.000000 1.702590 0.000000 
#    z 0.000000 0.000000 1.732680 
# 
# From -- ./inp_files/35433.got.cif
#   From: 2010.05.17/outbox.cif.g08.bks.cpg/sg63_18_cif.got.tgz:35433.got - 2010.06.03 15:47:04.
