data_PCOD9473022
_publ_section_title
;
Structure prediction by ZEFSAII (Michael W. Deem and Ramdas Pophale) SiO2 
 PCOD9473022
Probable space group: C M C M
;
_chemical_formula_sum "Si O2"
_cell_formula_units_Z 96
_cell_length_a 9.089479
_cell_length_b 30.410901
_cell_length_c 19.019122
_cell_angle_alpha 90.000000
_cell_angle_beta 90.000000
_cell_angle_gamma 90.000000
_cell_volume 5257.251363
_symmetry_space_group_name_H-M "C M C M"
_symmetry_group_IT_number 63
_symmetry_cell_setting 'orthorhombic'
loop_
_space_group_symop_operation_xyz
x,y,z
-x,-y,1/2+z
x,-y,-z
-x,y,1/2-z
-x,-y,-z
x,y,1/2-z
-x,y,z
x,-y,1/2+z
1/2+x,1/2+y,z
1/2-x,1/2-y,1/2+z
1/2+x,1/2-y,-z
1/2-x,1/2+y,1/2-z
1/2-x,1/2-y,-z
1/2+x,1/2+y,1/2-z
1/2-x,1/2+y,z
1/2+x,1/2-y,1/2+z
loop_
_atom_site_type_symbol
_atom_site_label
_atom_site_fract_x
_atom_site_fract_y
_atom_site_fract_z
Si Si1 0.324246 0.410504 0.066581
Si Si2 0.675431 0.512185 0.831648
Si Si3 0.675086 0.063174 0.423561
Si Si4 0.676014 0.690048 0.557257
Si Si5 0.826002 0.863638 0.668812
Si Si6 0.174858 0.775250 0.900919
O O1 0.500000 0.410370 0.051741
O O2 0.300377 0.439494 0.135915
O O3 0.276203 0.359728 0.072755
O O4 0.243515 0.433184 0.001123
O O5 0.718097 0.509032 0.750000
O O6 0.500000 0.502832 0.836349
O O7 0.760229 0.477680 0.880113
O O8 0.500000 0.061015 0.427097
O O9 0.729897 0.106137 0.381350
O O10 0.500000 0.691738 0.563854
O O11 0.745503 0.728667 0.603654
O O12 0.713146 0.702585 0.476405
O O13 0.806223 0.875951 0.750000
O O14 0.790653 0.812424 0.656181
O O15 0.000000 0.869344 0.650864
O O16 0.000000 0.767685 0.900585
#
# Coordination Sequence:
#
# PCOD9473022 Si02
#       6
#    16  16  16  16  16  16
#     4  10  20  38  61  83 109 144 189 233 270 322
#     4  10  22  40  61  82 107 145 188 227 273 331
#     4  12  24  36  55  84 115 144 181 230 284 334
#     4   9  17  31  53  79 107 138 175 221 269 312
#     4  10  20  36  57  79 109 150 191 229 274 332
#     4   9  17  31  51  77 108 140 178 220 266 320
#
# _framework density 18.260491999999999
#
# number of rings (size 3 to 8) (size 9 to 14) (size 15 to 20)
#    0.000    2.000    1.667    2.500    0.000    6.667 
#    0.000    0.833    0.000    1.000    0.000    0.000 
#    0.000    0.000    0.000    0.000    0.000    0.000 
#
# Total GULP energy -267950.779568 kJ/mol
# GULP energy per Si atom -5582.307908 kJ/mol
# Density = 1.821893 g / cm^3
# Si number density = 18.260492 Si / 1000 Ang^3
#
#
#
# Elastic Constant Matrix: (Units=GPa)
#
#
# Indices 1 2 3 4 5 6 
#
# 1 27.6367 35.0475 16.8116 0.0000 0.0000 0.0000
# 2 35.0475 117.7327 26.7194 0.0000 0.0000 0.0000
# 3 16.8116 26.7194 34.6631 0.0000 0.0000 0.0000
# 4 0.0000 0.0000 0.0000 15.6506 0.0000 0.0000
# 5 0.0000 0.0000 0.0000 0.0000 9.3670 0.0000
# 6 0.0000 0.0000 0.0000 0.0000 0.0000 28.6749
#
#
#
# Elastic Compliance Matrix: (Units=1/GPa)
#
#
# Indices 1 2 3 4 5 6 
#
# 1 0.069155 -0.015726 -0.021419 0.000000 0.000000 0.000000
# 2 -0.015726 0.013871 -0.003065 0.000000 0.000000 0.000000
# 3 -0.021419 -0.003065 0.041600 0.000000 0.000000 0.000000
# 4 0.000000 0.000000 0.000000 0.063895 0.000000 0.000000
# 5 0.000000 0.000000 0.000000 0.000000 0.106758 0.000000
# 6 0.000000 0.000000 0.000000 0.000000 0.000000 0.034874
#
#
# Mechanical properties :
#
#
# Convention : Reuss Voigt Hill
#
# Bulk Modulus (GPa) = 22.62068 37.46551 30.04310
# Shear Modulus (GPa) = 11.75619 17.50208 14.62913
#
# Velocity S-wave (km/s) = 2.54008 3.09927 2.83350
# Velocity P-wave (km/s) = 4.58447 5.77660 5.21471
#
# Compressibility (1/GPa) = 0.04420733
#
# Stress axis : x y z
#
# Youngs Moduli (GPa) = 14.46018 72.09398 24.03861
#
# Poissons Ratio (x) = 1.13373 0.51487
# Poissons Ratio (y) = 0.22740 0.07368
# Poissons Ratio (z) = 0.30972 0.22097
#
# Static dielectric constant tensor:
#      x y z
#    x 1.610330 0.000000 0.000000 
#    y 0.000000 1.643200 0.000000 
#    z 0.000000 0.000000 1.609240 
# 
# From -- ./inp_files/51292.got.cif
#   From: 2010.05.17/outbox.cif.g08.bks.cpg/sg63_26_cif.got.tgz:51292.got - 2010.06.03 15:47:04.
