data_PCOD9473035
_publ_section_title
;
Structure prediction by ZEFSAII (Michael W. Deem and Ramdas Pophale) SiO2 
 PCOD9473035
Probable space group: C M C M
;
_chemical_formula_sum "Si O2"
_cell_formula_units_Z 104
_cell_length_a 28.791329
_cell_length_b 9.331179
_cell_length_c 19.840498
_cell_angle_alpha 90.000000
_cell_angle_beta 90.000000
_cell_angle_gamma 90.000000
_cell_volume 5330.289555
_symmetry_space_group_name_H-M "C M C M"
_symmetry_group_IT_number 63
_symmetry_cell_setting 'orthorhombic'
loop_
_space_group_symop_operation_xyz
x,y,z
-x,-y,1/2+z
x,-y,-z
-x,y,1/2-z
-x,-y,-z
x,y,1/2-z
-x,y,z
x,-y,1/2+z
1/2+x,1/2+y,z
1/2-x,1/2-y,1/2+z
1/2+x,1/2-y,-z
1/2-x,1/2+y,1/2-z
1/2-x,1/2-y,-z
1/2+x,1/2+y,1/2-z
1/2-x,1/2+y,z
1/2+x,1/2-y,1/2+z
loop_
_atom_site_type_symbol
_atom_site_label
_atom_site_fract_x
_atom_site_fract_y
_atom_site_fract_z
Si Si1 0.671041 0.110615 0.750000
Si Si2 0.375161 0.649060 0.608547
Si Si3 0.216218 0.990970 0.602701
Si Si4 0.851567 0.290105 0.750000
Si Si5 0.448027 0.423708 0.573675
Si Si6 0.310243 0.173042 0.598835
Si Si7 0.779296 0.933339 0.250000
Si Si8 0.902440 0.654685 0.514572
O O1 0.668002 0.179278 0.824826
O O2 0.724896 0.069580 0.750000
O O3 0.644020 0.959978 0.750000
O O4 0.325748 0.592943 0.578837
O O5 0.370583 0.722938 0.681098
O O6 0.409087 0.512484 0.613174
O O7 0.394858 0.762193 0.555426
O O8 0.210661 0.828472 0.579529
O O9 0.267140 0.060795 0.594359
O O10 0.205619 0.989595 0.682718
O O11 0.798410 0.229477 0.750000
O O12 0.448558 0.500000 0.500000
O O13 0.500000 0.433461 0.601792
O O14 0.432322 0.261261 0.560987
O O15 0.352492 0.134227 0.550182
O O16 0.923588 0.500000 0.500000
#
# Coordination Sequence:
#
# PCOD9473035 Si02
#       8
#     8  16  16   8  16  16   8  16
#     4  10  21  32  56  78 118 158 212 250 290 355
#     4  10  21  40  60  84 120 151 206 251 302 368
#     4  10  21  34  52  78 115 159 201 248 295 349
#     4  10  20  36  57  81 111 158 194 252 308 351
#     4   9  19  40  66  87 110 147 193 248 301 354
#     4  11  23  35  54  81 119 166 206 246 298 356
#     4   8  19  28  50  71 105 146 204 242 277 332
#     4  11  23  38  57  87 125 158 199 251 303 364
#
# _framework density 19.511134999999999
#
# number of rings (size 3 to 8) (size 9 to 14) (size 15 to 20)
#    0.000    2.000    1.538    1.385   15.077    0.923 
#    0.000    0.385    0.000    0.000    0.000    1.077 
#    0.000    0.000    0.000    0.000    0.000    0.000 
#
# Total GULP energy -289995.506826 kJ/mol
# GULP energy per Si atom -5576.836670 kJ/mol
# Density = 1.946673 g / cm^3
# Si number density = 19.511135 Si / 1000 Ang^3
#
#
#
# Elastic Constant Matrix: (Units=GPa)
#
#
# Indices 1 2 3 4 5 6 
#
# 1 63.0723 10.5107 10.5906 0.0000 0.0000 0.0000
# 2 10.5107 93.2230 22.7782 0.0000 0.0000 0.0000
# 3 10.5906 22.7782 59.2680 0.0000 0.0000 0.0000
# 4 0.0000 0.0000 0.0000 6.9997 0.0000 0.0000
# 5 0.0000 0.0000 0.0000 0.0000 6.9145 0.0000
# 6 0.0000 0.0000 0.0000 0.0000 0.0000 18.0318
#
#
#
# Elastic Compliance Matrix: (Units=1/GPa)
#
#
# Indices 1 2 3 4 5 6 
#
# 1 0.016477 -0.001256 -0.002462 0.000000 0.000000 0.000000
# 2 -0.001256 0.011934 -0.004362 0.000000 0.000000 0.000000
# 3 -0.002462 -0.004362 0.018989 0.000000 0.000000 0.000000
# 4 0.000000 0.000000 0.000000 0.142864 0.000000 0.000000
# 5 0.000000 0.000000 0.000000 0.000000 0.144623 0.000000
# 6 0.000000 0.000000 0.000000 0.000000 0.000000 0.055458
#
#
# Mechanical properties :
#
#
# Convention : Reuss Voigt Hill
#
# Bulk Modulus (GPa) = 32.00958 33.70249 32.85604
# Shear Modulus (GPa) = 11.99273 17.83479 14.91376
#
# Velocity S-wave (km/s) = 2.48193 3.02666 2.76773
# Velocity P-wave (km/s) = 4.96535 5.43371 5.20480
#
# Compressibility (1/GPa) = 0.03124065
#
# Stress axis : x y z
#
# Youngs Moduli (GPa) = 60.68882 83.79076 52.66241
#
# Poissons Ratio (x) = 0.10527 0.12963
# Poissons Ratio (y) = 0.07625 0.22973
# Poissons Ratio (z) = 0.14939 0.36551
#
# Static dielectric constant tensor:
#      x y z
#    x 1.671470 0.000000 0.000000 
#    y 0.000000 1.715160 0.000000 
#    z 0.000000 0.000000 1.742370 
# 
# From -- ./inp_files/58241.got.cif
#   From: 2010.05.17/outbox.cif.g08.bks.cpg/sg63_30_cif.got.tgz:58241.got - 2010.06.03 15:47:04.
