data_PCOD9473266
_publ_section_title
;
Structure prediction by ZEFSAII (Michael W. Deem and Ramdas Pophale) SiO2 
 PCOD9473266
Probable space group: C M C M
;
_chemical_formula_sum "Si O2"
_cell_formula_units_Z 96
_cell_length_a 16.640758
_cell_length_b 11.626476
_cell_length_c 24.301500
_cell_angle_alpha 90.000000
_cell_angle_beta 90.000000
_cell_angle_gamma 90.000000
_cell_volume 4701.693186
_symmetry_space_group_name_H-M "C M C M"
_symmetry_group_IT_number 63
_symmetry_cell_setting 'orthorhombic'
loop_
_space_group_symop_operation_xyz
x,y,z
-x,-y,1/2+z
x,-y,-z
-x,y,1/2-z
-x,-y,-z
x,y,1/2-z
-x,y,z
x,-y,1/2+z
1/2+x,1/2+y,z
1/2-x,1/2-y,1/2+z
1/2+x,1/2-y,-z
1/2-x,1/2+y,1/2-z
1/2-x,1/2-y,-z
1/2+x,1/2+y,1/2-z
1/2-x,1/2+y,z
1/2+x,1/2-y,1/2+z
loop_
_atom_site_type_symbol
_atom_site_label
_atom_site_fract_x
_atom_site_fract_y
_atom_site_fract_z
Si Si1 0.089626 0.040205 0.093548
Si Si2 0.403094 0.361162 0.313051
Si Si3 0.742618 0.377474 0.971149
Si Si4 0.698692 0.149647 0.349375
Si Si5 0.876512 0.200458 0.310213
Si Si6 0.587060 0.032005 0.687100
O O1 0.151961 0.086073 0.048208
O O2 0.083284 0.139953 0.138668
O O3 0.000000 0.010405 0.073087
O O4 0.122957 0.939663 0.134485
O O5 0.377118 0.391958 0.250000
O O6 0.500000 0.363796 0.313260
O O7 0.368197 0.236764 0.327167
O O8 0.787908 0.350750 0.914290
O O9 0.771134 0.500000 0.000000
O O10 0.750000 0.250000 0.000000
O O11 0.781553 0.181334 0.319380
O O12 0.665497 0.023769 0.337743
O O13 0.899885 0.154604 0.250000
O O14 0.900481 0.332458 0.311917
O O15 0.584032 0.991445 0.750000
O O16 0.500000 0.004139 0.661171
#
# Coordination Sequence:
#
# PCOD9473266 Si02
#       6
#    16  16  16  16  16  16
#     4  10  22  39  64  91 123 160 203 259 322 387
#     4  10  20  36  62  99 137 169 202 247 312 396
#     4  11  26  46  68  90 121 164 222 284 334 376
#     4  11  23  37  63  87 123 163 215 261 316 376
#     4  10  21  34  56  90 128 165 200 242 301 382
#     4  10  21  37  58  88 128 168 201 241 307 390
#
# _framework density 20.418177
#
# number of rings (size 3 to 8) (size 9 to 14) (size 15 to 20)
#    0.000    1.667    0.000    4.000    9.333    3.333 
#    0.000    1.667    0.000    2.500    0.000    0.000 
#    0.000    0.000    0.000    0.000    0.000    0.000 
#
# Total GULP energy -267388.660153 kJ/mol
# GULP energy per Si atom -5570.597087 kJ/mol
# Density = 2.037170 g / cm^3
# Si number density = 20.418177 Si / 1000 Ang^3
#
#
#
# Elastic Constant Matrix: (Units=GPa)
#
#
# Indices 1 2 3 4 5 6 
#
# 1 55.7819 9.8190 16.5891 0.0000 0.0000 0.0000
# 2 9.8190 83.0357 32.5355 0.0000 0.0000 0.0000
# 3 16.5891 32.5355 82.5371 0.0000 0.0000 0.0000
# 4 0.0000 0.0000 0.0000 48.7151 0.0000 0.0000
# 5 0.0000 0.0000 0.0000 0.0000 62.7809 0.0000
# 6 0.0000 0.0000 0.0000 0.0000 0.0000 25.8316
#
#
#
# Elastic Compliance Matrix: (Units=1/GPa)
#
#
# Indices 1 2 3 4 5 6 
#
# 1 0.019122 -0.000893 -0.003491 0.000000 0.000000 0.000000
# 2 -0.000893 0.014285 -0.005451 0.000000 0.000000 0.000000
# 3 -0.003491 -0.005451 0.014966 0.000000 0.000000 0.000000
# 4 0.000000 0.000000 0.000000 0.020528 0.000000 0.000000
# 5 0.000000 0.000000 0.000000 0.000000 0.015928 0.000000
# 6 0.000000 0.000000 0.000000 0.000000 0.000000 0.038712
#
#
# Mechanical properties :
#
#
# Convention : Reuss Voigt Hill
#
# Bulk Modulus (GPa) = 34.84123 37.69355 36.26739
# Shear Modulus (GPa) = 32.72665 38.29292 35.50978
#
# Velocity S-wave (km/s) = 4.00787 4.33533 4.17481
# Velocity P-wave (km/s) = 6.20630 6.60007 6.40621
#
# Compressibility (1/GPa) = 0.02870162
#
# Stress axis : x y z
#
# Youngs Moduli (GPa) = 52.29447 70.00533 66.81655
#
# Poissons Ratio (x) = 0.06253 0.23328
# Poissons Ratio (y) = 0.04671 0.36424
# Poissons Ratio (z) = 0.18258 0.38162
#
# Static dielectric constant tensor:
#      x y z
#    x 1.855300 0.000000 0.000000 
#    y 0.000000 1.779410 0.000000 
#    z 0.000000 0.000000 1.723260 
# 
# From -- ./inp_files/63660.got.cif
#   From: 2010.05.17/outbox.cif.g08.bks.cpg/sg63_32_cif.got.tgz:63660.got - 2010.06.03 15:47:04.
