data_PCOD9473696
_publ_section_title
;
Structure prediction by ZEFSAII (Michael W. Deem and Ramdas Pophale) SiO2 
 PCOD9473696
Probable space group: C M C M
;
_chemical_formula_sum "Si O2"
_cell_formula_units_Z 108
_cell_length_a 16.105588
_cell_length_b 19.375858
_cell_length_c 13.771031
_cell_angle_alpha 90.000000
_cell_angle_beta 90.000000
_cell_angle_gamma 90.000000
_cell_volume 4297.382234
_symmetry_space_group_name_H-M "C M C M"
_symmetry_group_IT_number 63
_symmetry_cell_setting 'orthorhombic'
loop_
_space_group_symop_operation_xyz
x,y,z
-x,-y,1/2+z
x,-y,-z
-x,y,1/2-z
-x,-y,-z
x,y,1/2-z
-x,y,z
x,-y,1/2+z
1/2+x,1/2+y,z
1/2-x,1/2-y,1/2+z
1/2+x,1/2-y,-z
1/2-x,1/2+y,1/2-z
1/2-x,1/2-y,-z
1/2+x,1/2+y,1/2-z
1/2-x,1/2+y,z
1/2+x,1/2-y,1/2+z
loop_
_atom_site_type_symbol
_atom_site_label
_atom_site_fract_x
_atom_site_fract_y
_atom_site_fract_z
Si Si1 0.638303 0.439319 0.138022
Si Si2 0.835815 0.557587 0.860092
Si Si3 0.596231 0.404920 0.919369
Si Si4 0.656347 0.739299 0.380709
Si Si5 0.096448 0.262142 0.586813
Si Si6 0.402270 0.085383 0.071264
Si Si7 0.694089 0.710132 0.750000
Si Si8 0.000000 0.273714 0.250000
O O1 0.611562 0.424943 0.250000
O O2 0.737883 0.426488 0.138532
O O3 0.622458 0.521006 0.121187
O O4 0.603519 0.407963 0.037062
O O5 0.866590 0.575026 0.750000
O O6 0.850994 0.476046 0.879387
O O7 0.878106 0.589767 0.956399
O O8 0.500000 0.391544 0.894257
O O9 0.650717 0.343849 0.874286
O O10 0.651026 0.754513 0.492832
O O11 0.735549 0.771991 0.332155
O O12 0.573438 0.769212 0.332594
O O13 0.110012 0.341045 0.621970
O O14 0.123010 0.208564 0.666240
O O15 0.000000 0.255431 0.561632
O O16 0.500000 0.067576 0.076963
#
# Coordination Sequence:
#
# PCOD9473696 Si02
#       8
#    16  16  16  16  16  16   8   4
#     4  10  23  37  59  90 126 167 209 268 323 384
#     4  10  21  39  59  86 124 163 207 259 319 371
#     4  11  22  38  63  91 124 169 211 268 318 380
#     4  11  24  44  69  99 132 169 226 271 324 396
#     4  11  24  47  67  99 139 169 214 278 329 391
#     4  10  22  37  62  89 121 164 207 258 314 379
#     4  11  27  41  71 102 124 180 223 261 337 389
#     4  10  20  44  70  96 122 182 214 270 326 386
#
# _framework density 25.131578000000001
#
# number of rings (size 3 to 8) (size 9 to 14) (size 15 to 20)
#    0.000    1.481    1.481    4.222    7.259    2.370 
#    4.000    0.000    0.000    0.000    0.000    0.000 
#    0.000    0.000    0.000    0.000    0.000    0.000 
#
# Total GULP energy -300959.662845 kJ/mol
# GULP energy per Si atom -5573.327090 kJ/mol
# Density = 2.507438 g / cm^3
# Si number density = 25.131578 Si / 1000 Ang^3
#
#
#
# Elastic Constant Matrix: (Units=GPa)
#
#
# Indices 1 2 3 4 5 6 
#
# 1 58.7378 5.6087 10.3687 0.0000 0.0000 0.0000
# 2 5.6087 105.0498 18.1655 0.0000 0.0000 0.0000
# 3 10.3687 18.1655 162.7270 0.0000 0.0000 0.0000
# 4 0.0000 0.0000 0.0000 0.7652 0.0000 0.0000
# 5 0.0000 0.0000 0.0000 0.0000 46.5273 0.0000
# 6 0.0000 0.0000 0.0000 0.0000 0.0000 45.5061
#
#
#
# Elastic Compliance Matrix: (Units=1/GPa)
#
#
# Indices 1 2 3 4 5 6 
#
# 1 0.017276 -0.000746 -0.001017 0.000000 0.000000 0.000000
# 2 -0.000746 0.009739 -0.001040 0.000000 0.000000 0.000000
# 3 -0.001017 -0.001040 0.006326 0.000000 0.000000 0.000000
# 4 0.000000 0.000000 0.000000 1.306907 0.000000 0.000000
# 5 0.000000 0.000000 0.000000 0.000000 0.021493 0.000000
# 6 0.000000 0.000000 0.000000 0.000000 0.000000 0.021975
#
#
# Mechanical properties :
#
#
# Convention : Reuss Voigt Hill
#
# Bulk Modulus (GPa) = 36.05711 43.86670 39.96190
# Shear Modulus (GPa) = 3.57509 38.05117 20.81313
#
# Velocity S-wave (km/s) = 1.19400 3.89534 2.88091
# Velocity P-wave (km/s) = 4.03476 6.14201 5.19632
#
# Compressibility (1/GPa) = 0.02773378
#
# Stress axis : x y z
#
# Youngs Moduli (GPa) = 57.88482 102.68079 158.07412
#
# Poissons Ratio (x) = 0.07664 0.16083
# Poissons Ratio (y) = 0.04321 0.16434
# Poissons Ratio (z) = 0.05890 0.10675
#
# Static dielectric constant tensor:
#      x y z
#    x 1.889050 0.000000 0.000000 
#    y 0.000000 2.168680 0.000000 
#    z 0.000000 0.000000 1.986060 
# 
# From -- ./inp_files/32384.got.cif
#   From: 2010.05.17/outbox.cif.g08.bks.cpg/sg63_17_cif.got.tgz:32384.got - 2010.06.03 15:47:04.
