data_PCOD9473536
_publ_section_title
;
Structure prediction by ZEFSAII (Michael W. Deem and Ramdas Pophale) SiO2 
 PCOD9473536
Probable space group: C M C M
;
_chemical_formula_sum "Si O2"
_cell_formula_units_Z 116
_cell_length_a 26.865460
_cell_length_b 12.463881
_cell_length_c 17.485411
_cell_angle_alpha 90.000000
_cell_angle_beta 90.000000
_cell_angle_gamma 90.000000
_cell_volume 5854.953092
_symmetry_space_group_name_H-M "C M C M"
_symmetry_group_IT_number 63
_symmetry_cell_setting 'orthorhombic'
loop_
_space_group_symop_operation_xyz
x,y,z
-x,-y,1/2+z
x,-y,-z
-x,y,1/2-z
-x,-y,-z
x,y,1/2-z
-x,y,z
x,-y,1/2+z
1/2+x,1/2+y,z
1/2-x,1/2-y,1/2+z
1/2+x,1/2-y,-z
1/2-x,1/2+y,1/2-z
1/2-x,1/2-y,-z
1/2+x,1/2+y,1/2-z
1/2-x,1/2+y,z
1/2+x,1/2-y,1/2+z
loop_
_atom_site_type_symbol
_atom_site_label
_atom_site_fract_x
_atom_site_fract_y
_atom_site_fract_z
Si Si1 0.170113 0.184860 0.157210
Si Si2 0.907727 0.363688 0.128522
Si Si3 0.635047 0.085398 0.161534
Si Si4 0.346648 0.440782 0.157983
Si Si5 0.500000 0.861784 0.250000
Si Si6 0.555806 0.409909 0.435765
Si Si7 0.556510 0.838466 0.537632
Si Si8 0.221247 0.256002 0.842744
O O1 0.169595 0.187727 0.250000
O O2 0.122818 0.253033 0.131061
O O3 0.222409 0.233798 0.129481
O O4 0.167665 0.060745 0.133722
O O5 0.869891 0.457614 0.154396
O O6 0.955587 0.361930 0.183512
O O7 0.925147 0.385532 0.042355
O O8 0.625407 0.115130 0.250000
O O9 0.592568 0.131560 0.106775
O O10 0.687421 0.139700 0.139686
O O11 0.346838 0.437640 0.250000
O O12 0.401320 0.416981 0.126622
O O13 0.308457 0.349225 0.130655
O O14 0.564160 0.500000 0.500000
O O15 0.500000 0.426966 0.404044
O O16 0.557004 0.290729 0.470514
O O17 0.500000 0.872025 0.554593
O O18 0.223901 0.250411 0.750000
#
# Coordination Sequence:
#
# PCOD9473536 Si02
#       8
#    16  16  16  16   4  16  16  16
#     4  10  21  38  63  95 123 168 216 263 320 378
#     4  12  24  42  64  97 129 168 214 261 321 382
#     4  11  23  40  64  92 130 169 212 261 317 382
#     4  10  20  38  63  91 122 156 208 262 315 374
#     4  12  24  44  66  96 138 168 214 264 312 388
#     4  10  21  39  60  85 121 168 207 252 319 383
#     4  11  24  39  63  91 129 169 212 265 321 385
#     4   9  20  38  62  91 124 161 208 266 316 369
#
# _framework density 19.812283999999998
#
# number of rings (size 3 to 8) (size 9 to 14) (size 15 to 20)
#    0.000    1.517    3.448    1.241    2.897    1.103 
#    1.241    2.069    0.000    0.000    0.000    0.000 
#    0.000    0.000    0.000    0.000    0.000    0.000 
#
# Total GULP energy -323399.829335 kJ/mol
# GULP energy per Si atom -5575.859126 kJ/mol
# Density = 1.976719 g / cm^3
# Si number density = 19.812284 Si / 1000 Ang^3
#
#
#
# Elastic Constant Matrix: (Units=GPa)
#
#
# Indices 1 2 3 4 5 6 
#
# 1 102.1794 37.6480 20.7573 0.0000 0.0000 0.0000
# 2 37.6480 85.0464 2.7950 0.0000 0.0000 0.0000
# 3 20.7573 2.7950 55.4564 0.0000 0.0000 0.0000
# 4 0.0000 0.0000 0.0000 22.2236 0.0000 0.0000
# 5 0.0000 0.0000 0.0000 0.0000 3.4400 0.0000
# 6 0.0000 0.0000 0.0000 0.0000 0.0000 22.6325
#
#
#
# Elastic Compliance Matrix: (Units=1/GPa)
#
#
# Indices 1 2 3 4 5 6 
#
# 1 0.012718 -0.005482 -0.004484 0.000000 0.000000 0.000000
# 2 -0.005482 0.014141 0.001339 0.000000 0.000000 0.000000
# 3 -0.004484 0.001339 0.019643 0.000000 0.000000 0.000000
# 4 0.000000 0.000000 0.000000 0.044997 0.000000 0.000000
# 5 0.000000 0.000000 0.000000 0.000000 0.290700 0.000000
# 6 0.000000 0.000000 0.000000 0.000000 0.000000 0.044184
#
#
# Mechanical properties :
#
#
# Convention : Reuss Voigt Hill
#
# Bulk Modulus (GPa) = 34.19050 40.56477 37.37763
# Shear Modulus (GPa) = 11.02812 21.75800 16.39306
#
# Velocity S-wave (km/s) = 2.36186 3.31752 2.87961
# Velocity P-wave (km/s) = 4.97318 5.93242 5.47385
#
# Compressibility (1/GPa) = 0.02924789
#
# Stress axis : x y z
#
# Youngs Moduli (GPa) = 78.63127 70.71537 50.90875
#
# Poissons Ratio (x) = 0.38769 0.22827
# Poissons Ratio (y) = 0.43109 -0.06818
# Poissons Ratio (z) = 0.35257 -0.09471
#
# Static dielectric constant tensor:
#      x y z
#    x 1.671480 0.000000 0.000000 
#    y 0.000000 1.750390 0.000000 
#    z 0.000000 0.000000 1.672750 
# 
# From -- ./inp_files/49089.got.cif
#   From: 2010.05.17/outbox.cif.g08.bks.cpg/sg63_25_cif.got.tgz:49089.got - 2010.06.03 15:47:04.
