data_PCOD9473155
_publ_section_title
;
Structure prediction by ZEFSAII (Michael W. Deem and Ramdas Pophale) SiO2 
 PCOD9473155
Probable space group: C M C M
;
_chemical_formula_sum "Si O2"
_cell_formula_units_Z 96
_cell_length_a 8.837285
_cell_length_b 29.416839
_cell_length_c 20.776090
_cell_angle_alpha 90.000000
_cell_angle_beta 90.000000
_cell_angle_gamma 90.000000
_cell_volume 5401.056030
_symmetry_space_group_name_H-M "C M C M"
_symmetry_group_IT_number 63
_symmetry_cell_setting 'orthorhombic'
loop_
_space_group_symop_operation_xyz
x,y,z
-x,-y,1/2+z
x,-y,-z
-x,y,1/2-z
-x,-y,-z
x,y,1/2-z
-x,y,z
x,-y,1/2+z
1/2+x,1/2+y,z
1/2-x,1/2-y,1/2+z
1/2+x,1/2-y,-z
1/2-x,1/2+y,1/2-z
1/2-x,1/2-y,-z
1/2+x,1/2+y,1/2-z
1/2-x,1/2+y,z
1/2+x,1/2-y,1/2+z
loop_
_atom_site_type_symbol
_atom_site_label
_atom_site_fract_x
_atom_site_fract_y
_atom_site_fract_z
Si Si1 0.320241 0.871793 0.023833
Si Si2 0.681740 0.532677 0.939600
Si Si3 0.819707 0.777309 0.060351
Si Si4 0.180504 0.220940 0.324014
Si Si5 0.818448 0.966989 0.676257
Si Si6 0.679898 0.127416 0.370433
O O1 0.500000 0.866781 0.032694
O O2 0.263196 0.919430 0.051900
O O3 0.235690 0.829020 0.054627
O O4 0.289601 0.871741 0.947043
O O5 0.500000 0.539770 0.940128
O O6 0.723718 0.505859 0.874736
O O7 0.718612 0.500000 0.000000
O O8 0.760891 0.753735 0.125177
O O9 0.000000 0.774493 0.056941
O O10 0.750000 0.750000 0.000000
O O11 0.214946 0.232594 0.250000
O O12 0.236608 0.169878 0.338269
O O13 0.000000 0.223137 0.333342
O O14 0.784440 0.979170 0.750000
O O15 0.738279 0.920011 0.657772
O O16 0.000000 0.960186 0.670498
O O17 0.500000 0.131801 0.360807
#
# Coordination Sequence:
#
# PCOD9473155 Si02
#       6
#    16  16  16  16  16  16
#     4  11  23  38  59  89 120 153 197 246 296 348
#     4  10  20  36  59  84 112 151 197 241 289 349
#     4  12  24  40  64  90 120 158 201 248 297 353
#     4  11  24  41  62  89 123 161 199 243 299 360
#     4  10  21  37  57  83 117 154 193 241 298 355
#     4  11  22  35  57  88 122 156 193 243 298 356
#
# _framework density 17.774301000000001
#
# number of rings (size 3 to 8) (size 9 to 14) (size 15 to 20)
#    0.000    1.167    3.333    3.500    0.000    6.000 
#    0.000    0.833    0.000    3.000    0.000    0.000 
#    0.000    0.000    0.000    0.000    0.000    0.000 
#
# Total GULP energy -268399.581628 kJ/mol
# GULP energy per Si atom -5591.657951 kJ/mol
# Density = 1.773385 g / cm^3
# Si number density = 17.774301 Si / 1000 Ang^3
#
#
#
# Elastic Constant Matrix: (Units=GPa)
#
#
# Indices 1 2 3 4 5 6 
#
# 1 85.5431 68.6129 83.6525 0.0000 0.0000 0.0000
# 2 68.6129 135.6023 82.3817 0.0000 0.0000 0.0000
# 3 83.6525 82.3817 148.1385 0.0000 0.0000 0.0000
# 4 0.0000 0.0000 0.0000 9.4706 0.0000 0.0000
# 5 0.0000 0.0000 0.0000 0.0000 26.7433 0.0000
# 6 0.0000 0.0000 0.0000 0.0000 0.0000 36.9592
#
#
#
# Elastic Compliance Matrix: (Units=1/GPa)
#
#
# Indices 1 2 3 4 5 6 
#
# 1 0.030423 -0.007486 -0.013017 0.000000 0.000000 0.000000
# 2 -0.007486 0.012979 -0.002991 0.000000 0.000000 0.000000
# 3 -0.013017 -0.002991 0.015764 0.000000 0.000000 0.000000
# 4 0.000000 0.000000 0.000000 0.105589 0.000000 0.000000
# 5 0.000000 0.000000 0.000000 0.000000 0.037392 0.000000
# 6 0.000000 0.000000 0.000000 0.000000 0.000000 0.027057
#
#
# Mechanical properties :
#
#
# Convention : Reuss Voigt Hill
#
# Bulk Modulus (GPa) = 82.10222 93.17535 87.63878
# Shear Modulus (GPa) = 17.84106 23.61041 20.72574
#
# Velocity S-wave (km/s) = 3.17165 3.64860 3.41845
# Velocity P-wave (km/s) = 7.72685 8.38361 8.06192
#
# Compressibility (1/GPa) = 0.01217994
#
# Stress axis : x y z
#
# Youngs Moduli (GPa) = 32.86938 77.04675 63.43495
#
# Poissons Ratio (x) = 0.57675 0.82573
# Poissons Ratio (y) = 0.24605 0.18972
# Poissons Ratio (z) = 0.42786 0.23043
#
# Static dielectric constant tensor:
#      x y z
#    x 1.596360 0.000000 0.000000 
#    y 0.000000 1.566790 0.000000 
#    z 0.000000 0.000000 1.597580 
# 
# From -- ./inp_files/51313.got.cif
#   From: 2010.05.17/outbox.cif.g08.bks.cpg/sg63_26_cif.got.tgz:51313.got - 2010.06.03 15:47:04.
