data_PCOD9473832
_publ_section_title
;
Structure prediction by ZEFSAII (Michael W. Deem and Ramdas Pophale) SiO2 
 PCOD9473832
Probable space group: C M C M
;
_chemical_formula_sum "Si O2"
_cell_formula_units_Z 80
_cell_length_a 25.851891
_cell_length_b 11.707910
_cell_length_c 14.739167
_cell_angle_alpha 90.000000
_cell_angle_beta 90.000000
_cell_angle_gamma 90.000000
_cell_volume 4461.127452
_symmetry_space_group_name_H-M "C M C M"
_symmetry_group_IT_number 63
_symmetry_cell_setting 'orthorhombic'
loop_
_space_group_symop_operation_xyz
x,y,z
-x,-y,1/2+z
x,-y,-z
-x,y,1/2-z
-x,-y,-z
x,y,1/2-z
-x,y,z
x,-y,1/2+z
1/2+x,1/2+y,z
1/2-x,1/2-y,1/2+z
1/2+x,1/2-y,-z
1/2-x,1/2+y,1/2-z
1/2-x,1/2-y,-z
1/2+x,1/2+y,1/2-z
1/2-x,1/2+y,z
1/2+x,1/2-y,1/2+z
loop_
_atom_site_type_symbol
_atom_site_label
_atom_site_fract_x
_atom_site_fract_y
_atom_site_fract_z
Si Si1 0.649776 0.042929 0.858583
Si Si2 0.163173 0.715247 0.352765
Si Si3 0.630156 0.632052 0.476289
Si Si4 0.775668 0.746821 0.902565
Si Si5 0.439413 0.216639 0.857855
O O1 0.652359 0.035827 0.750000
O O2 0.696484 0.125999 0.886846
O O3 0.596677 0.108025 0.881647
O O4 0.653588 0.913039 0.890238
O O5 0.141346 0.728471 0.250000
O O6 0.141045 0.800294 0.429296
O O7 0.225159 0.730769 0.343790
O O8 0.626566 0.500000 0.500000
O O9 0.678386 0.660550 0.408312
O O10 0.581176 0.682946 0.422707
O O11 0.750000 0.750000 0.000000
O O12 0.430703 0.241637 0.750000
O O13 0.500000 0.194980 0.870137
#
# Coordination Sequence:
#
# PCOD9473832 Si02
#       5
#    16  16  16  16  16
#     4   9  18  34  53  78 106 137 184 232 270 327
#     4  10  21  35  54  78 113 153 184 224 279 333
#     4  10  22  36  53  83 115 145 186 234 274 332
#     4   9  19  30  49  74 106 144 182 217 265 320
#     4   9  19  38  62  83 105 141 187 236 289 336
#
# _framework density 17.932687000000001
#
# number of rings (size 3 to 8) (size 9 to 14) (size 15 to 20)
#    0.000    2.600    0.000    0.600    5.600    8.400 
#    0.000    2.000    0.000    1.800    0.000    0.000 
#    0.000    0.000    0.000    0.000    0.000    0.000 
#
# Total GULP energy -222771.133838 kJ/mol
# GULP energy per Si atom -5569.278346 kJ/mol
# Density = 1.789187 g / cm^3
# Si number density = 17.932687 Si / 1000 Ang^3
#
#
#
# Elastic Constant Matrix: (Units=GPa)
#
#
# Indices 1 2 3 4 5 6 
#
# 1 94.3178 57.5316 29.6829 0.0000 0.0000 0.0000
# 2 57.5316 179.9403 52.1991 0.0000 0.0000 0.0000
# 3 29.6829 52.1991 70.8958 0.0000 0.0000 0.0000
# 4 0.0000 0.0000 0.0000 23.9157 0.0000 0.0000
# 5 0.0000 0.0000 0.0000 0.0000 -58.5858 0.0000
# 6 0.0000 0.0000 0.0000 0.0000 0.0000 7.2987
#
#
#
# Elastic Compliance Matrix: (Units=1/GPa)
#
#
# Indices 1 2 3 4 5 6 
#
# 1 0.013718 -0.003459 -0.003197 0.000000 0.000000 0.000000
# 2 -0.003459 0.007939 -0.004397 0.000000 0.000000 0.000000
# 3 -0.003197 -0.004397 0.018681 0.000000 0.000000 0.000000
# 4 0.000000 0.000000 0.000000 0.041814 0.000000 0.000000
# 5 0.000000 0.000000 0.000000 0.000000 -0.017069 0.000000
# 6 0.000000 0.000000 0.000000 0.000000 0.000000 0.137010
#
#
# Mechanical properties :
#
#
# Convention : Reuss Voigt Hill
#
# Bulk Modulus (GPa) = 54.84657 69.33125 62.08891
# Shear Modulus (GPa) = 21.71306 8.24175 14.97740
#
# Velocity S-wave (km/s) = 3.48344 2.14614 2.89312
# Velocity P-wave (km/s) = 6.84326 6.69978 6.77190
#
# Compressibility (1/GPa) = 0.01823268
#
# Stress axis : x y z
#
# Youngs Moduli (GPa) = 72.89527 125.96415 53.52963
#
# Poissons Ratio (x) = 0.43567 0.17114
# Poissons Ratio (y) = 0.25212 0.23537
# Poissons Ratio (z) = 0.23305 0.55387
#
# Static dielectric constant tensor:
#      x y z
#    x 1.609230 0.000000 0.000000 
#    y 0.000000 1.586750 0.000000 
#    z 0.000000 0.000000 1.754990 
# 
# From -- ./inp_files/36442.got.cif
#   From: 2010.05.17/outbox.cif.g08.bks.cpg/sg63_19_cif.got.tgz:36442.got - 2010.06.03 15:47:04.
