data_PCOD9473787
_publ_section_title
;
Structure prediction by ZEFSAII (Michael W. Deem and Ramdas Pophale) SiO2 
 PCOD9473787
Probable space group: C M C M
;
_chemical_formula_sum "Si O2"
_cell_formula_units_Z 116
_cell_length_a 28.163760
_cell_length_b 28.761640
_cell_length_c 7.462389
_cell_angle_alpha 90.000000
_cell_angle_beta 90.000000
_cell_angle_gamma 90.000000
_cell_volume 6044.803185
_symmetry_space_group_name_H-M "C M C M"
_symmetry_group_IT_number 63
_symmetry_cell_setting 'orthorhombic'
loop_
_space_group_symop_operation_xyz
x,y,z
-x,-y,1/2+z
x,-y,-z
-x,y,1/2-z
-x,-y,-z
x,y,1/2-z
-x,y,z
x,-y,1/2+z
1/2+x,1/2+y,z
1/2-x,1/2-y,1/2+z
1/2+x,1/2-y,-z
1/2-x,1/2+y,1/2-z
1/2-x,1/2-y,-z
1/2+x,1/2+y,1/2-z
1/2-x,1/2+y,z
1/2+x,1/2-y,1/2+z
loop_
_atom_site_type_symbol
_atom_site_label
_atom_site_fract_x
_atom_site_fract_y
_atom_site_fract_z
Si Si1 0.138273 0.618891 0.970415
Si Si2 0.074887 0.945842 0.535548
Si Si3 0.289608 0.310990 0.531484
Si Si4 0.323762 0.590173 0.458287
Si Si5 0.277587 0.052329 0.538326
Si Si6 0.446059 0.053088 0.964498
Si Si7 0.819257 0.288108 0.459387
Si Si8 0.500000 0.587397 0.750000
O O1 0.138312 0.619059 0.750000
O O2 0.183965 0.589025 0.030310
O O3 0.091376 0.591332 0.029308
O O4 0.146219 0.671860 0.031660
O O5 0.068756 0.937656 0.750000
O O6 0.129367 0.935851 0.477737
O O7 0.041060 0.916240 0.408542
O O8 0.063597 0.000000 0.500000
O O9 0.289101 0.310592 0.750000
O O10 0.312402 0.358815 0.464936
O O11 0.234672 0.307222 0.474649
O O12 0.316231 0.264267 0.467504
O O13 0.333296 0.598513 0.250000
O O14 0.275426 0.561026 0.470205
O O15 0.275096 0.058688 0.750000
O O16 0.293270 0.000000 0.500000
O O17 0.448107 0.057938 0.750000
O O18 0.500000 0.058069 0.034169
O O19 0.430202 0.000000 0.000000
O O20 0.830882 0.283321 0.250000
#
# Coordination Sequence:
#
# PCOD9473787 Si02
#       8
#    16  16  16  16  16  16  16   4
#     4   9  17  29  45  71  97 129 168 205 251 302
#     4  11  23  37  57  82 109 139 179 226 270 319
#     4   9  17  30  49  71 102 131 164 207 253 298
#     4  10  21  35  49  74 105 136 167 206 256 309
#     4  11  21  31  46  65  99 137 167 199 243 305
#     4   9  17  30  47  66  94 126 166 212 253 291
#     4   9  16  29  48  72  97 131 167 207 250 304
#     4  12  24  40  62  82 108 138 182 228 268 318
#
# _framework density 19.190038999999999
#
# number of rings (size 3 to 8) (size 9 to 14) (size 15 to 20)
#    0.000    2.207    2.069    1.655    0.966    1.103 
#    0.000    1.379    0.000    0.000    1.793    0.000 
#    0.000    0.276    0.000    0.000    0.000    0.000 
#
# Total GULP energy -323021.103183 kJ/mol
# GULP energy per Si atom -5569.329365 kJ/mol
# Density = 1.914636 g / cm^3
# Si number density = 19.190039 Si / 1000 Ang^3
#
#
#
# Elastic Constant Matrix: (Units=GPa)
#
#
# Indices 1 2 3 4 5 6 
#
# 1 63.7566 7.3535 4.1201 0.0000 0.0000 0.0000
# 2 7.3535 78.9888 -6.0832 0.0000 0.0000 0.0000
# 3 4.1201 -6.0832 77.2594 0.0000 0.0000 0.0000
# 4 0.0000 0.0000 0.0000 5.2339 0.0000 0.0000
# 5 0.0000 0.0000 0.0000 0.0000 158.5484 0.0000
# 6 0.0000 0.0000 0.0000 0.0000 0.0000 11.5857
#
#
#
# Elastic Compliance Matrix: (Units=1/GPa)
#
#
# Indices 1 2 3 4 5 6 
#
# 1 0.015927 -0.001558 -0.000972 0.000000 0.000000 0.000000
# 2 -0.001558 0.012890 0.001098 0.000000 0.000000 0.000000
# 3 -0.000972 0.001098 0.013082 0.000000 0.000000 0.000000
# 4 0.000000 0.000000 0.000000 0.191063 0.000000 0.000000
# 5 0.000000 0.000000 0.000000 0.000000 0.006307 0.000000
# 6 0.000000 0.000000 0.000000 0.000000 0.000000 0.086313
#
#
# Mechanical properties :
#
#
# Convention : Reuss Voigt Hill
#
# Bulk Modulus (GPa) = 25.61799 25.64286 25.63042
# Shear Modulus (GPa) = 14.64315 49.38123 32.01219
#
# Velocity S-wave (km/s) = 2.76535 5.07825 4.08875
# Velocity P-wave (km/s) = 4.85539 6.91205 5.97291
#
# Compressibility (1/GPa) = 0.03903507
#
# Stress axis : x y z
#
# Youngs Moduli (GPa) = 62.78604 77.58201 76.44268
#
# Poissons Ratio (x) = 0.12084 0.07430
# Poissons Ratio (y) = 0.09780 -0.08393
# Poissons Ratio (z) = 0.06103 -0.08518
#
# Static dielectric constant tensor:
#      x y z
#    x 1.661600 0.000000 0.000000 
#    y 0.000000 1.686540 0.000000 
#    z 0.000000 0.000000 1.721100 
# 
# From -- ./inp_files/13374.got.cif
#   From: 2010.05.17/outbox.cif.g08.bks.cpg/sg63_7_cif.got.tgz:13374.got - 2010.06.03 15:47:04.
