data_PCOD9473871
_publ_section_title
;
Structure prediction by ZEFSAII (Michael W. Deem and Ramdas Pophale) SiO2 
 PCOD9473871
Probable space group: C M C M
;
_chemical_formula_sum "Si O2"
_cell_formula_units_Z 100
_cell_length_a 7.560638
_cell_length_b 30.107123
_cell_length_c 19.213581
_cell_angle_alpha 90.000000
_cell_angle_beta 90.000000
_cell_angle_gamma 90.000000
_cell_volume 4373.569348
_symmetry_space_group_name_H-M "C M C M"
_symmetry_group_IT_number 63
_symmetry_cell_setting 'orthorhombic'
loop_
_space_group_symop_operation_xyz
x,y,z
-x,-y,1/2+z
x,-y,-z
-x,y,1/2-z
-x,-y,-z
x,y,1/2-z
-x,y,z
x,-y,1/2+z
1/2+x,1/2+y,z
1/2-x,1/2-y,1/2+z
1/2+x,1/2-y,-z
1/2-x,1/2+y,1/2-z
1/2-x,1/2-y,-z
1/2+x,1/2+y,1/2-z
1/2-x,1/2+y,z
1/2+x,1/2-y,1/2+z
loop_
_atom_site_type_symbol
_atom_site_label
_atom_site_fract_x
_atom_site_fract_y
_atom_site_fract_z
Si Si1 0.284250 0.501591 0.580402
Si Si2 0.206027 0.268713 0.324519
Si Si3 0.787423 0.081476 0.170746
Si Si4 0.711130 0.179009 0.385711
Si Si5 0.701230 0.814529 0.459539
Si Si6 0.500000 0.622070 0.750000
Si Si7 0.804351 0.900700 0.110672
O O1 0.229808 0.500000 0.500000
O O2 0.500000 0.499742 0.582352
O O3 0.220537 0.459473 0.624361
O O4 0.232980 0.549384 0.611782
O O5 0.288091 0.281619 0.250000
O O6 0.213625 0.215871 0.333983
O O7 0.288056 0.288928 0.394651
O O8 0.000000 0.282630 0.322926
O O9 0.720587 0.079851 0.250000
O O10 0.748697 0.129015 0.136996
O O11 0.000000 0.077412 0.173821
O O12 0.500000 0.184425 0.385932
O O13 0.780622 0.188491 0.463828
O O14 0.500000 0.797745 0.465637
O O15 0.699411 0.865452 0.434567
O O16 0.652049 0.617211 0.687668
O O17 0.000000 0.903437 0.075580
#
# Coordination Sequence:
#
# PCOD9473871 Si02
#       7
#    16  16  16  16  16   4  16
#     4   9  17  30  52  82 111 145 188 230 274 321
#     4  10  22  39  60  82 108 141 183 226 271 329
#     4  10  21  35  58  83 110 149 193 230 274 329
#     4  11  23  39  57  82 114 145 181 229 280 328
#     4  10  22  39  59  83 111 147 184 222 274 334
#     4   8  20  32  52  84 116 144 176 232 288 312
#     4   9  19  33  55  80 116 142 181 228 275 321
#
# _framework density 22.864619000000001
#
# number of rings (size 3 to 8) (size 9 to 14) (size 15 to 20)
#    0.480    1.760    0.000    2.400    2.240    5.760 
#    0.000    0.800    0.000    2.880    0.000    0.000 
#    0.000    0.000    0.000    0.000    0.000    0.000 
#
# Total GULP energy -278658.561638 kJ/mol
# GULP energy per Si atom -5573.171233 kJ/mol
# Density = 2.281258 g / cm^3
# Si number density = 22.864619 Si / 1000 Ang^3
#
#
#
# Elastic Constant Matrix: (Units=GPa)
#
#
# Indices 1 2 3 4 5 6 
#
# 1 60.2120 -8.9062 5.8446 0.0000 0.0000 0.0000
# 2 -8.9062 110.7991 41.8997 0.0000 0.0000 0.0000
# 3 5.8446 41.8997 172.7737 0.0000 0.0000 0.0000
# 4 0.0000 0.0000 0.0000 27.3666 0.0000 0.0000
# 5 0.0000 0.0000 0.0000 0.0000 7.3918 0.0000
# 6 0.0000 0.0000 0.0000 0.0000 0.0000 496.3827
#
#
#
# Elastic Compliance Matrix: (Units=1/GPa)
#
#
# Indices 1 2 3 4 5 6 
#
# 1 0.016962 0.001740 -0.000996 0.000000 0.000000 0.000000
# 2 0.001740 0.010115 -0.002512 0.000000 0.000000 0.000000
# 3 -0.000996 -0.002512 0.006431 0.000000 0.000000 0.000000
# 4 0.000000 0.000000 0.000000 0.036541 0.000000 0.000000
# 5 0.000000 0.000000 0.000000 0.000000 0.135285 0.000000
# 6 0.000000 0.000000 0.000000 0.000000 0.000000 0.002015
#
#
# Mechanical properties :
#
#
# Convention : Reuss Voigt Hill
#
# Bulk Modulus (GPa) = 33.36389 46.82901 40.09645
# Shear Modulus (GPa) = 22.63725 126.55800 74.59762
#
# Velocity S-wave (km/s) = 3.14993 7.44790 5.71810
# Velocity P-wave (km/s) = 5.27759 9.72044 7.82113
#
# Compressibility (1/GPa) = 0.02997252
#
# Stress axis : x y z
#
# Youngs Moduli (GPa) = 58.95533 98.86211 155.50249
#
# Poissons Ratio (x) = -0.17202 0.15484
# Poissons Ratio (y) = -0.10258 0.39061
# Poissons Ratio (z) = 0.05871 0.24833
#
# Static dielectric constant tensor:
#      x y z
#    x 1.899640 0.000000 0.000000 
#    y 0.000000 1.853240 0.000000 
#    z 0.000000 0.000000 1.855330 
# 
# From -- ./inp_files/51502.got.cif
#   From: 2010.05.17/outbox.cif.g08.bks.cpg/sg63_26_cif.got.tgz:51502.got - 2010.06.03 15:47:04.
