data_PCOD9473781
_publ_section_title
;
Structure prediction by ZEFSAII (Michael W. Deem and Ramdas Pophale) SiO2 
 PCOD9473781
Probable space group: C M C M
;
_chemical_formula_sum "Si O2"
_cell_formula_units_Z 40
_cell_length_a 5.650026
_cell_length_b 14.013591
_cell_length_c 21.587012
_cell_angle_alpha 90.000000
_cell_angle_beta 90.000000
_cell_angle_gamma 90.000000
_cell_volume 1709.198163
_symmetry_space_group_name_H-M "C M C M"
_symmetry_group_IT_number 63
_symmetry_cell_setting 'orthorhombic'
loop_
_space_group_symop_operation_xyz
x,y,z
-x,-y,1/2+z
x,-y,-z
-x,y,1/2-z
-x,-y,-z
x,y,1/2-z
-x,y,z
x,-y,1/2+z
1/2+x,1/2+y,z
1/2-x,1/2-y,1/2+z
1/2+x,1/2-y,-z
1/2-x,1/2+y,1/2-z
1/2-x,1/2-y,-z
1/2+x,1/2+y,1/2-z
1/2-x,1/2+y,z
1/2+x,1/2-y,1/2+z
loop_
_atom_site_type_symbol
_atom_site_label
_atom_site_fract_x
_atom_site_fract_y
_atom_site_fract_z
Si Si1 0.500000 0.784548 0.324562
Si Si2 0.750358 0.135963 0.511303
Si Si3 0.500000 0.583446 0.394344
Si Si4 0.000000 0.112694 0.824859
O O1 0.500000 0.775371 0.250000
O O2 0.500000 0.681918 0.356947
O O3 0.750094 0.835441 0.341880
O O4 0.500000 0.109709 0.538910
O O5 0.750000 0.250000 0.500000
O O6 0.783363 0.088509 0.443651
O O7 0.000000 0.112940 0.543615
O O8 0.500000 0.495554 0.348764
O O9 0.000000 0.111233 0.750000
#
# Coordination Sequence:
#
# PCOD9473781 Si02
#       4
#     8  16   8   8
#     4  10  23  39  55  83 114 139 183 234 268 319
#     4   8  16  29  50  81 104 138 180 218 265 315
#     4  10  21  34  66  76 108 154 183 208 286 330
#     4  10  23  39  55  83 114 139 183 234 268 319
#
# _framework density 23.402787
#
# number of rings (size 3 to 8) (size 9 to 14) (size 15 to 20)
#    1.200    1.600    0.000    0.600    5.600    0.000 
#    0.000    6.000    0.000    7.200    0.000    0.000 
#    0.000    0.000    0.000    0.000    0.000    0.000 
#
# Total GULP energy -111684.225673 kJ/mol
# GULP energy per Si atom -5584.211284 kJ/mol
# Density = 2.334952 g / cm^3
# Si number density = 23.402787 Si / 1000 Ang^3
#
#
#
# Elastic Constant Matrix: (Units=GPa)
#
#
# Indices 1 2 3 4 5 6 
#
# 1 277.3639 79.9110 81.2928 0.0000 0.0000 0.0000
# 2 79.9110 158.5417 45.4969 0.0000 0.0000 0.0000
# 3 81.2928 45.4969 82.8778 0.0000 0.0000 0.0000
# 4 0.0000 0.0000 0.0000 49.3623 0.0000 0.0000
# 5 0.0000 0.0000 0.0000 0.0000 46.9537 0.0000
# 6 0.0000 0.0000 0.0000 0.0000 0.0000 31.8476
#
#
#
# Elastic Compliance Matrix: (Units=1/GPa)
#
#
# Indices 1 2 3 4 5 6 
#
# 1 0.005311 -0.001403 -0.004439 0.000000 0.000000 0.000000
# 2 -0.001403 0.007858 -0.002937 0.000000 0.000000 0.000000
# 3 -0.004439 -0.002937 0.018032 0.000000 0.000000 0.000000
# 4 0.000000 0.000000 0.000000 0.020258 0.000000 0.000000
# 5 0.000000 0.000000 0.000000 0.000000 0.021298 0.000000
# 6 0.000000 0.000000 0.000000 0.000000 0.000000 0.031400
#
#
# Mechanical properties :
#
#
# Convention : Reuss Voigt Hill
#
# Bulk Modulus (GPa) = 73.30198 103.57609 88.43904
# Shear Modulus (GPa) = 39.60026 46.43825 43.01926
#
# Velocity S-wave (km/s) = 4.11800 4.45939 4.29209
# Velocity P-wave (km/s) = 7.34850 8.41837 7.90156
#
# Compressibility (1/GPa) = 0.01364220
#
# Stress axis : x y z
#
# Youngs Moduli (GPa) = 188.30472 127.26592 55.45555
#
# Poissons Ratio (x) = 0.17854 0.24616
# Poissons Ratio (y) = 0.26417 0.16290
# Poissons Ratio (z) = 0.83585 0.37384
#
# Static dielectric constant tensor:
#      x y z
#    x 1.927080 0.000000 0.000000 
#    y 0.000000 1.875370 0.000000 
#    z 0.000000 0.000000 1.887640 
# 
# From -- ./inp_files/1193.got.cif
#   From: 2010.05.17/outbox.cif.g08.bks.cpg/sg63_1_cif.got.tgz:1193.got - 2010.06.03 15:47:04.
