data_PCOD9473134
_publ_section_title
;
Structure prediction by ZEFSAII (Michael W. Deem and Ramdas Pophale) SiO2 
 PCOD9473134
Probable space group: C M C M
;
_chemical_formula_sum "Si O2"
_cell_formula_units_Z 100
_cell_length_a 23.183470
_cell_length_b 26.566167
_cell_length_c 9.079988
_cell_angle_alpha 90.000000
_cell_angle_beta 90.000000
_cell_angle_gamma 90.000000
_cell_volume 5592.327705
_symmetry_space_group_name_H-M "C M C M"
_symmetry_group_IT_number 63
_symmetry_cell_setting 'orthorhombic'
loop_
_space_group_symop_operation_xyz
x,y,z
-x,-y,1/2+z
x,-y,-z
-x,y,1/2-z
-x,-y,-z
x,y,1/2-z
-x,y,z
x,-y,1/2+z
1/2+x,1/2+y,z
1/2-x,1/2-y,1/2+z
1/2+x,1/2-y,-z
1/2-x,1/2+y,1/2-z
1/2-x,1/2-y,-z
1/2+x,1/2+y,1/2-z
1/2-x,1/2+y,z
1/2+x,1/2-y,1/2+z
loop_
_atom_site_type_symbol
_atom_site_label
_atom_site_fract_x
_atom_site_fract_y
_atom_site_fract_z
Si Si1 0.295829 0.683055 0.576159
Si Si2 0.000000 0.443509 0.928685
Si Si3 0.827442 0.702677 0.075646
Si Si4 0.705121 0.047559 0.582525
Si Si5 0.500000 0.472778 0.250000
Si Si6 0.319305 0.414619 0.579359
Si Si7 0.099345 0.377085 0.079897
Si Si8 0.409253 0.500000 0.000000
O O1 0.286248 0.674494 0.750000
O O2 0.233516 0.685781 0.496305
O O3 0.326734 0.736887 0.557530
O O4 0.330974 0.637307 0.506044
O O5 0.000000 0.447358 0.750000
O O6 0.000000 0.500000 0.000000
O O7 0.054183 0.410718 0.988423
O O8 0.827054 0.691048 0.250000
O O9 0.880754 0.674617 0.997879
O O10 0.720733 0.034430 0.750000
O O11 0.761807 0.063343 0.495142
O O12 0.658468 0.091231 0.584285
O O13 0.678465 0.000000 0.500000
O O14 0.550283 0.476114 0.377029
O O15 0.308743 0.403746 0.750000
O O16 0.368769 0.455930 0.563150
O O17 0.080051 0.369993 0.250000
#
# Coordination Sequence:
#
# PCOD9473134 Si02
#       8
#    16   8  16  16   4  16  16   8
#     4  10  21  35  56  88 127 163 199 247 309 368
#     4  12  26  44  66  90 122 166 220 264 307 373
#     4  10  20  36  58  87 123 162 203 250 307 369
#     4  11  23  35  53  84 125 158 192 243 305 362
#     4  10  24  46  64  82 116 158 200 238 282 354
#     4  12  23  35  58  91 122 156 199 251 299 362
#     4  11  23  40  62  88 121 163 208 257 309 371
#     4  11  24  42  64  90 118 161 204 244 294 359
#
# _framework density 17.881640999999998
#
# number of rings (size 3 to 8) (size 9 to 14) (size 15 to 20)
#    0.000    1.120    3.200    3.600    2.240    5.120 
#    0.000    0.000    0.000    1.920    2.080    0.000 
#    0.000    0.000    0.000    0.000    0.000    0.000 
#
# Total GULP energy -278678.309495 kJ/mol
# GULP energy per Si atom -5573.566190 kJ/mol
# Density = 1.784094 g / cm^3
# Si number density = 17.881641 Si / 1000 Ang^3
#
#
#
# Elastic Constant Matrix: (Units=GPa)
#
#
# Indices 1 2 3 4 5 6 
#
# 1 74.2179 25.1254 34.2798 0.0000 0.0000 0.0000
# 2 25.1254 100.8330 53.0895 0.0000 0.0000 0.0000
# 3 34.2798 53.0895 152.3203 0.0000 0.0000 0.0000
# 4 0.0000 0.0000 0.0000 23.8729 0.0000 0.0000
# 5 0.0000 0.0000 0.0000 0.0000 39.3841 0.0000
# 6 0.0000 0.0000 0.0000 0.0000 0.0000 19.0420
#
#
#
# Elastic Compliance Matrix: (Units=1/GPa)
#
#
# Indices 1 2 3 4 5 6 
#
# 1 0.015529 -0.002486 -0.002629 0.000000 0.000000 0.000000
# 2 -0.002486 0.012544 -0.003813 0.000000 0.000000 0.000000
# 3 -0.002629 -0.003813 0.008486 0.000000 0.000000 0.000000
# 4 0.000000 0.000000 0.000000 0.041889 0.000000 0.000000
# 5 0.000000 0.000000 0.000000 0.000000 0.025391 0.000000
# 6 0.000000 0.000000 0.000000 0.000000 0.000000 0.052515
#
#
# Mechanical properties :
#
#
# Convention : Reuss Voigt Hill
#
# Bulk Modulus (GPa) = 53.46085 61.37341 57.41713
# Shear Modulus (GPa) = 27.70957 30.78490 29.24724
#
# Velocity S-wave (km/s) = 3.94078 4.15371 4.04864
# Velocity P-wave (km/s) = 7.11817 7.57634 7.35082
#
# Compressibility (1/GPa) = 0.01870528
#
# Stress axis : x y z
#
# Youngs Moduli (GPa) = 64.39399 79.71813 117.84724
#
# Poissons Ratio (x) = 0.19815 0.30977
# Poissons Ratio (y) = 0.16006 0.44932
# Poissons Ratio (z) = 0.16926 0.30394
#
# Static dielectric constant tensor:
#      x y z
#    x 1.585710 0.000000 0.000000 
#    y 0.000000 1.657860 0.000000 
#    z 0.000000 0.000000 1.624650 
# 
# From -- ./inp_files/8846.got.cif
#   From: 2010.05.17/outbox.cif.g08.bks.cpg/sg63_5_cif.got.tgz:8846.got - 2010.06.03 15:47:04.
