data_PCOD9473226
_publ_section_title
;
Structure prediction by ZEFSAII (Michael W. Deem and Ramdas Pophale) SiO2 
 PCOD9473226
Probable space group: C M C M
;
_chemical_formula_sum "Si O2"
_cell_formula_units_Z 80
_cell_length_a 10.410527
_cell_length_b 20.632255
_cell_length_c 20.492839
_cell_angle_alpha 90.000000
_cell_angle_beta 90.000000
_cell_angle_gamma 90.000000
_cell_volume 4401.711149
_symmetry_space_group_name_H-M "C M C M"
_symmetry_group_IT_number 63
_symmetry_cell_setting 'orthorhombic'
loop_
_space_group_symop_operation_xyz
x,y,z
-x,-y,1/2+z
x,-y,-z
-x,y,1/2-z
-x,-y,-z
x,y,1/2-z
-x,y,z
x,-y,1/2+z
1/2+x,1/2+y,z
1/2-x,1/2-y,1/2+z
1/2+x,1/2-y,-z
1/2-x,1/2+y,1/2-z
1/2-x,1/2-y,-z
1/2+x,1/2+y,1/2-z
1/2-x,1/2+y,z
1/2+x,1/2-y,1/2+z
loop_
_atom_site_type_symbol
_atom_site_label
_atom_site_fract_x
_atom_site_fract_y
_atom_site_fract_z
Si Si1 0.267084 0.604649 0.463497
Si Si2 0.000000 0.300509 0.170662
Si Si3 0.000000 0.203877 0.055721
Si Si4 0.653044 0.523146 0.908833
Si Si5 0.230736 0.139228 0.827300
Si Si6 0.000000 0.234905 0.829426
Si Si7 0.000000 0.678147 0.451925
O O1 0.374695 0.659302 0.453231
O O2 0.282211 0.547127 0.410648
O O3 0.299726 0.566761 0.530281
O O4 0.127798 0.636456 0.463962
O O5 0.127695 0.339809 0.150922
O O6 0.000000 0.290417 0.250000
O O7 0.000000 0.235768 0.127567
O O8 0.000000 0.260692 0.001450
O O9 0.500000 0.514375 0.914321
O O10 0.689038 0.568165 0.848661
O O11 0.231976 0.142027 0.750000
O O12 0.124022 0.191602 0.848053
O O13 0.000000 0.246327 0.750000
O O14 0.000000 0.296181 0.877112
#
# Coordination Sequence:
#
# PCOD9473226 Si02
#       7
#    16   8   8  16  16   8   8
#     4  11  23  37  58  85 112 148 185 229 289 328
#     4  10  22  37  55  87 121 146 182 235 285 327
#     4  12  20  38  59  82 115 154 190 223 276 341
#     4  11  20  39  60  79 112 146 188 238 279 331
#     4  10  20  36  61  85 108 148 193 231 275 328
#     4  10  20  37  59  83 115 152 186 227 275 331
#     4  12  24  36  57  90 115 144 192 233 274 343
#
# _framework density 18.17475
#
# number of rings (size 3 to 8) (size 9 to 14) (size 15 to 20)
#    0.000    1.200    3.000    4.800    0.000    2.400 
#    0.000    2.000    0.000    0.000    0.000    0.000 
#    0.000    0.000    0.000    0.000    0.000    0.000 
#
# Total GULP energy -223348.141182 kJ/mol
# GULP energy per Si atom -5583.703530 kJ/mol
# Density = 1.813338 g / cm^3
# Si number density = 18.174750 Si / 1000 Ang^3
#
#
#
# Elastic Constant Matrix: (Units=GPa)
#
#
# Indices 1 2 3 4 5 6 
#
# 1 167.1370 74.9835 24.5905 0.0000 0.0000 0.0000
# 2 74.9835 123.0530 23.8530 0.0000 0.0000 0.0000
# 3 24.5905 23.8530 21.7060 0.0000 0.0000 0.0000
# 4 0.0000 0.0000 0.0000 31.4091 0.0000 0.0000
# 5 0.0000 0.0000 0.0000 0.0000 -0.5385 0.0000
# 6 0.0000 0.0000 0.0000 0.0000 0.0000 -41.7003
#
#
#
# Elastic Compliance Matrix: (Units=1/GPa)
#
#
# Indices 1 2 3 4 5 6 
#
# 1 0.008656 -0.004287 -0.005095 0.000000 0.000000 0.000000
# 2 -0.004287 0.012449 -0.008824 0.000000 0.000000 0.000000
# 3 -0.005095 -0.008824 0.061540 0.000000 0.000000 0.000000
# 4 0.000000 0.000000 0.000000 0.031838 0.000000 0.000000
# 5 0.000000 0.000000 0.000000 0.000000 -1.856892 0.000000
# 6 0.000000 0.000000 0.000000 0.000000 0.000000 -0.023981
#
#
# Mechanical properties :
#
#
# Convention : Reuss Voigt Hill
#
# Bulk Modulus (GPa) = 21.62996 62.08334 41.85665
# Shear Modulus (GPa) = -2.91619 10.39865 3.74123
#
# Velocity S-wave (km/s) = -1.26807 2.39456 1.43630
# Velocity P-wave (km/s) = 3.12777 6.47136 5.08239
#
# Compressibility (1/GPa) = 0.04623217
#
# Stress axis : x y z
#
# Youngs Moduli (GPa) = 115.52600 80.32534 16.24968
#
# Poissons Ratio (x) = 0.34435 0.08280
# Poissons Ratio (y) = 0.49525 0.14339
# Poissons Ratio (z) = 0.58865 0.70880
#
# Static dielectric constant tensor:
#      x y z
#    x 1.631360 0.000000 0.000000 
#    y 0.000000 1.670740 0.000000 
#    z 0.000000 0.000000 1.689230 
# 
# From -- ./inp_files/59590.got.cif
#   From: 2010.05.17/outbox.cif.g08.bks.cpg/sg63_30_cif.got.tgz:59590.got - 2010.06.03 15:47:04.
