data_PCOD9473907
_publ_section_title
;
Structure prediction by ZEFSAII (Michael W. Deem and Ramdas Pophale) SiO2 
 PCOD9473907
Probable space group: C M C M
;
_chemical_formula_sum "Si O2"
_cell_formula_units_Z 80
_cell_length_a 7.392090
_cell_length_b 30.506982
_cell_length_c 15.866506
_cell_angle_alpha 90.000000
_cell_angle_beta 90.000000
_cell_angle_gamma 90.000000
_cell_volume 3578.061426
_symmetry_space_group_name_H-M "C M C M"
_symmetry_group_IT_number 63
_symmetry_cell_setting 'orthorhombic'
loop_
_space_group_symop_operation_xyz
x,y,z
-x,-y,1/2+z
x,-y,-z
-x,y,1/2-z
-x,-y,-z
x,y,1/2-z
-x,y,z
x,-y,1/2+z
1/2+x,1/2+y,z
1/2-x,1/2-y,1/2+z
1/2+x,1/2-y,-z
1/2-x,1/2+y,1/2-z
1/2-x,1/2-y,-z
1/2+x,1/2+y,1/2-z
1/2-x,1/2+y,z
1/2+x,1/2-y,1/2+z
loop_
_atom_site_type_symbol
_atom_site_label
_atom_site_fract_x
_atom_site_fract_y
_atom_site_fract_z
Si Si1 0.212166 0.951182 0.993398
Si Si2 0.290117 0.201254 0.606047
Si Si3 0.220863 0.109827 0.342914
Si Si4 0.219870 0.796416 0.593006
Si Si5 0.781148 0.606158 0.843134
O O1 0.225586 0.925183 0.080965
O O2 0.000000 0.956358 0.973372
O O3 0.286604 0.921039 0.918254
O O4 0.289895 0.000000 0.000000
O O5 0.500000 0.201831 0.632125
O O6 0.278376 0.198988 0.504352
O O7 0.215312 0.249405 0.627576
O O8 0.213827 0.155926 0.641260
O O9 0.275291 0.094958 0.250000
O O10 0.276921 0.160049 0.358778
O O11 0.000000 0.110330 0.345406
O O12 0.000000 0.795022 0.592669
O O13 0.725289 0.591293 0.750000
O O14 0.000000 0.607452 0.845304
#
# Coordination Sequence:
#
# PCOD9473907 Si02
#       5
#    16  16  16  16  16
#     4  10  21  37  57  79 103 134 174 222 270 311
#     4   9  17  29  48  74 103 135 171 211 253 302
#     4   9  17  30  50  76 103 130 166 213 261 309
#     4   9  16  28  49  74 100 134 174 212 255 306
#     4  10  21  36  54  78 109 142 175 212 258 315
#
# _framework density 22.358477000000001
#
# number of rings (size 3 to 8) (size 9 to 14) (size 15 to 20)
#    0.000    2.600    2.000    0.000    0.000    2.400 
#    0.000    6.000    0.000    2.400    0.000    5.600 
#    0.000    0.000    0.000    0.000    0.000    0.000 
#
# Total GULP energy -223344.559948 kJ/mol
# GULP energy per Si atom -5583.613999 kJ/mol
# Density = 2.230759 g / cm^3
# Si number density = 22.358477 Si / 1000 Ang^3
#
#
#
# Elastic Constant Matrix: (Units=GPa)
#
#
# Indices 1 2 3 4 5 6 
#
# 1 76.8279 2.7119 -14.4341 0.0000 0.0000 0.0000
# 2 2.7119 190.2179 94.7148 0.0000 0.0000 0.0000
# 3 -14.4341 94.7148 139.9537 0.0000 0.0000 0.0000
# 4 0.0000 0.0000 0.0000 -7.4220 0.0000 0.0000
# 5 0.0000 0.0000 0.0000 0.0000 20.1105 0.0000
# 6 0.0000 0.0000 0.0000 0.0000 0.0000 -24.5216
#
#
#
# Elastic Compliance Matrix: (Units=1/GPa)
#
#
# Indices 1 2 3 4 5 6 
#
# 1 0.013494 -0.001335 0.002295 0.000000 0.000000 0.000000
# 2 -0.001335 0.008061 -0.005593 0.000000 0.000000 0.000000
# 3 0.002295 -0.005593 0.011167 0.000000 0.000000 0.000000
# 4 0.000000 0.000000 0.000000 -0.134734 0.000000 0.000000
# 5 0.000000 0.000000 0.000000 0.000000 0.049725 0.000000
# 6 0.000000 0.000000 0.000000 0.000000 0.000000 -0.040780
#
#
# Mechanical properties :
#
#
# Convention : Reuss Voigt Hill
#
# Bulk Modulus (GPa) = 42.63175 63.66500 53.14837
# Shear Modulus (GPa) = -65.80546 19.23384 -23.28581
#
# Velocity S-wave (km/s) = -5.43101 2.93618 -3.23069
# Velocity P-wave (km/s) = 4.49656 6.32703 3.14740
#
# Compressibility (1/GPa) = 0.02345670
#
# Stress axis : x y z
#
# Youngs Moduli (GPa) = 74.10427 124.05148 89.54797
#
# Poissons Ratio (x) = 0.16565 -0.20555
# Poissons Ratio (y) = 0.09896 0.50086
# Poissons Ratio (z) = -0.17010 0.69384
#
# Static dielectric constant tensor:
#      x y z
#    x 1.711910 0.000000 0.000000 
#    y 0.000000 1.817300 0.000000 
#    z 0.000000 0.000000 1.781840 
# 
# From -- ./inp_files/30228.got.cif
#   From: 2010.05.17/outbox.cif.g08.bks.cpg/sg63_16_cif.got.tgz:30228.got - 2010.06.03 15:47:04.
