data_PCOD9473248
_publ_section_title
;
Structure prediction by ZEFSAII (Michael W. Deem and Ramdas Pophale) SiO2 
 PCOD9473248
Probable space group: C M C M
;
_chemical_formula_sum "Si O2"
_cell_formula_units_Z 88
_cell_length_a 35.199156
_cell_length_b 5.125318
_cell_length_c 24.974981
_cell_angle_alpha 90.000000
_cell_angle_beta 90.000000
_cell_angle_gamma 90.000000
_cell_volume 4505.658096
_symmetry_space_group_name_H-M "C M C M"
_symmetry_group_IT_number 63
_symmetry_cell_setting 'orthorhombic'
loop_
_space_group_symop_operation_xyz
x,y,z
-x,-y,1/2+z
x,-y,-z
-x,y,1/2-z
-x,-y,-z
x,y,1/2-z
-x,y,z
x,-y,1/2+z
1/2+x,1/2+y,z
1/2-x,1/2-y,1/2+z
1/2+x,1/2-y,-z
1/2-x,1/2+y,1/2-z
1/2-x,1/2-y,-z
1/2+x,1/2+y,1/2-z
1/2-x,1/2+y,z
1/2+x,1/2-y,1/2+z
loop_
_atom_site_type_symbol
_atom_site_label
_atom_site_fract_x
_atom_site_fract_y
_atom_site_fract_z
Si Si1 0.225494 0.311544 0.636825
Si Si2 0.608408 0.431909 0.635919
Si Si3 0.683068 0.796959 0.750000
Si Si4 0.146956 0.587167 0.408550
Si Si5 0.044020 0.854126 0.557599
Si Si6 0.370020 0.294853 0.750000
Si Si7 0.097832 0.500000 0.500000
O O1 0.259095 0.519921 0.630379
O O2 0.208179 0.335105 0.696701
O O3 0.191830 0.383873 0.595873
O O4 0.630396 0.704726 0.633406
O O5 0.568555 0.474575 0.605379
O O6 0.605755 0.337490 0.696552
O O7 0.633358 0.206464 0.605887
O O8 0.663560 0.512384 0.750000
O O9 0.650423 0.016346 0.750000
O O10 0.127256 0.669068 0.464843
O O11 0.068206 0.598190 0.544327
O O12 0.000000 0.815236 0.570120
O O13 0.046295 0.000000 0.500000
#
# Coordination Sequence:
#
# PCOD9473248 Si02
#       7
#    16  16   8  16  16   8   8
#     4  12  23  38  55  84 119 149 194 254 302 346
#     4  11  21  38  58  88 119 161 193 243 286 359
#     4  12  22  37  58  86 111 153 198 255 289 350
#     4  11  22  39  60  85 116 154 205 236 300 351
#     4  10  20  36  61  94 122 148 192 248 301 339
#     4  12  20  37  61  84 120 155 208 233 288 354
#     4  10  21  38  64  88 118 158 196 252 288 358
#
# _framework density 19.530998
#
# number of rings (size 3 to 8) (size 9 to 14) (size 15 to 20)
#    0.000    0.909    5.455    3.000    0.000    0.000 
#    0.000    1.364    0.000    0.000    0.000    3.818 
#    0.000    0.000    0.000    0.000    0.000    0.000 
#
# Total GULP energy -245371.305618 kJ/mol
# GULP energy per Si atom -5576.620582 kJ/mol
# Density = 1.948654 g / cm^3
# Si number density = 19.530998 Si / 1000 Ang^3
#
#
#
# Elastic Constant Matrix: (Units=GPa)
#
#
# Indices 1 2 3 4 5 6 
#
# 1 104.9709 0.8327 30.5276 0.0000 0.0000 0.0000
# 2 0.8327 58.8974 -7.0066 0.0000 0.0000 0.0000
# 3 30.5276 -7.0066 42.3856 0.0000 0.0000 0.0000
# 4 0.0000 0.0000 0.0000 22.1355 0.0000 0.0000
# 5 0.0000 0.0000 0.0000 0.0000 33.4587 0.0000
# 6 0.0000 0.0000 0.0000 0.0000 0.0000 20.5648
#
#
#
# Elastic Compliance Matrix: (Units=1/GPa)
#
#
# Indices 1 2 3 4 5 6 
#
# 1 0.012138 -0.001236 -0.008947 0.000000 0.000000 0.000000
# 2 -0.001236 0.017445 0.003774 0.000000 0.000000 0.000000
# 3 -0.008947 0.003774 0.030660 0.000000 0.000000 0.000000
# 4 0.000000 0.000000 0.000000 0.045176 0.000000 0.000000
# 5 0.000000 0.000000 0.000000 0.000000 0.029888 0.000000
# 6 0.000000 0.000000 0.000000 0.000000 0.000000 0.048627
#
#
# Mechanical properties :
#
#
# Convention : Reuss Voigt Hill
#
# Bulk Modulus (GPa) = 21.08525 28.32904 24.70715
# Shear Modulus (GPa) = 23.52273 27.35848 25.44061
#
# Velocity S-wave (km/s) = 3.47418 3.74675 3.61304
# Velocity P-wave (km/s) = 5.18772 5.76660 5.48480
#
# Compressibility (1/GPa) = 0.04742651
#
# Stress axis : x y z
#
# Youngs Moduli (GPa) = 82.38518 57.32266 32.61530
#
# Poissons Ratio (x) = 0.07085 0.29180
# Poissons Ratio (y) = 0.10182 -0.12309
# Poissons Ratio (z) = 0.73707 -0.21633
#
# Static dielectric constant tensor:
#      x y z
#    x 1.653410 0.000000 0.000000 
#    y 0.000000 1.739480 0.000000 
#    z 0.000000 0.000000 1.739450 
# 
# From -- ./inp_files/71059.got.cif
#   From: 2010.05.17/outbox.cif.g08.bks.cpg/sg63_36_cif.got.tgz:71059.got - 2010.06.03 15:47:04.
