data_PCOD9473960
_publ_section_title
;
Structure prediction by ZEFSAII (Michael W. Deem and Ramdas Pophale) SiO2 
 PCOD9473960
Probable space group: C M C M
;
_chemical_formula_sum "Si O2"
_cell_formula_units_Z 88
_cell_length_a 11.793139
_cell_length_b 27.877265
_cell_length_c 13.742187
_cell_angle_alpha 90.000000
_cell_angle_beta 90.000000
_cell_angle_gamma 90.000000
_cell_volume 4517.887734
_symmetry_space_group_name_H-M "C M C M"
_symmetry_group_IT_number 63
_symmetry_cell_setting 'orthorhombic'
loop_
_space_group_symop_operation_xyz
x,y,z
-x,-y,1/2+z
x,-y,-z
-x,y,1/2-z
-x,-y,-z
x,y,1/2-z
-x,y,z
x,-y,1/2+z
1/2+x,1/2+y,z
1/2-x,1/2-y,1/2+z
1/2+x,1/2-y,-z
1/2-x,1/2+y,1/2-z
1/2-x,1/2-y,-z
1/2+x,1/2+y,1/2-z
1/2-x,1/2+y,z
1/2+x,1/2-y,1/2+z
loop_
_atom_site_type_symbol
_atom_site_label
_atom_site_fract_x
_atom_site_fract_y
_atom_site_fract_z
Si Si1 0.869429 0.320668 0.867064
Si Si2 0.000000 0.163940 0.867357
Si Si3 0.309901 0.500000 0.000000
Si Si4 0.278570 0.277920 0.368688
Si Si5 0.365768 0.864759 0.356987
Si Si6 0.000000 0.050705 0.868685
Si Si7 0.365330 0.076363 0.040764
O O1 0.867865 0.320812 0.750000
O O2 0.788958 0.277123 0.900838
O O3 0.843606 0.374315 0.901459
O O4 0.000000 0.310054 0.896918
O O5 0.110693 0.192484 0.900776
O O6 0.000000 0.107818 0.890799
O O7 0.000000 0.166930 0.750000
O O8 0.391616 0.527250 0.923304
O O9 0.224252 0.465171 0.940647
O O10 0.278942 0.275610 0.250000
O O11 0.176066 0.313148 0.393795
O O12 0.315265 0.873335 0.250000
O O13 0.500000 0.862292 0.350341
O O14 0.341633 0.907519 0.429860
O O15 0.000000 0.044480 0.750000
O O16 0.500000 0.063976 0.052134
#
# Coordination Sequence:
#
# PCOD9473960 Si02
#       7
#    16   8   8  16  16   8  16
#     4   9  17  31  50  77 111 145 180 221 268 328
#     4   9  15  27  51  82 103 128 173 226 273 318
#     4  11  23  40  60  82 111 145 190 240 280 329
#     4   9  15  26  49  76 104 137 176 218 267 323
#     4   9  18  32  49  72 107 145 180 223 274 328
#     4  10  23  41  62  83 109 144 186 234 286 332
#     4  10  21  36  56  81 111 145 186 231 283 329
#
# _framework density 19.478128999999999
#
# number of rings (size 3 to 8) (size 9 to 14) (size 15 to 20)
#    0.000    2.545    0.909    1.364    0.000    3.636 
#    0.000    0.000    4.000    5.455    0.000    0.000 
#    0.000    0.000    0.000    0.000    0.000    0.000 
#
# Total GULP energy -245241.846530 kJ/mol
# GULP energy per Si atom -5573.678330 kJ/mol
# Density = 1.943380 g / cm^3
# Si number density = 19.478129 Si / 1000 Ang^3
#
#
#
# Elastic Constant Matrix: (Units=GPa)
#
#
# Indices 1 2 3 4 5 6 
#
# 1 59.4747 47.8490 3.8319 0.0000 0.0000 0.0000
# 2 47.8490 98.8717 1.1451 0.0000 0.0000 0.0000
# 3 3.8319 1.1451 30.9888 0.0000 0.0000 0.0000
# 4 0.0000 0.0000 0.0000 19.7353 0.0000 0.0000
# 5 0.0000 0.0000 0.0000 0.0000 11.5277 0.0000
# 6 0.0000 0.0000 0.0000 0.0000 0.0000 26.7003
#
#
#
# Elastic Compliance Matrix: (Units=1/GPa)
#
#
# Indices 1 2 3 4 5 6 
#
# 1 0.027800 -0.013420 -0.002942 0.000000 0.000000 0.000000
# 2 -0.013420 0.016596 0.001046 0.000000 0.000000 0.000000
# 3 -0.002942 0.001046 0.032595 0.000000 0.000000 0.000000
# 4 0.000000 0.000000 0.000000 0.050671 0.000000 0.000000
# 5 0.000000 0.000000 0.000000 0.000000 0.086748 0.000000
# 6 0.000000 0.000000 0.000000 0.000000 0.000000 0.037453
#
#
# Mechanical properties :
#
#
# Convention : Reuss Voigt Hill
#
# Bulk Modulus (GPa) = 21.57003 32.77636 27.17319
# Shear Modulus (GPa) = 16.78156 20.69328 18.73742
#
# Velocity S-wave (km/s) = 2.93842 3.26296 3.10493
# Velocity P-wave (km/s) = 4.75504 5.57312 5.18026
#
# Compressibility (1/GPa) = 0.04636063
#
# Stress axis : x y z
#
# Youngs Moduli (GPa) = 35.97141 60.25388 30.67974
#
# Poissons Ratio (x) = 0.80859 0.09025
# Poissons Ratio (y) = 0.48272 -0.03210
# Poissons Ratio (z) = 0.10582 -0.06303
#
# Static dielectric constant tensor:
#      x y z
#    x 1.696020 0.000000 0.000000 
#    y 0.000000 1.679350 0.000000 
#    z 0.000000 0.000000 1.764360 
# 
# From -- ./inp_files/30185.got.cif
#   From: 2010.05.17/outbox.cif.g08.bks.cpg/sg63_16_cif.got.tgz:30185.got - 2010.06.03 15:47:04.
