data_PCOD9473322
_publ_section_title
;
Structure prediction by ZEFSAII (Michael W. Deem and Ramdas Pophale) SiO2 
 PCOD9473322
Probable space group: C M C M
;
_chemical_formula_sum "Si O2"
_cell_formula_units_Z 96
_cell_length_a 19.929741
_cell_length_b 9.559317
_cell_length_c 26.382122
_cell_angle_alpha 90.000000
_cell_angle_beta 90.000000
_cell_angle_gamma 90.000000
_cell_volume 5026.182373
_symmetry_space_group_name_H-M "C M C M"
_symmetry_group_IT_number 63
_symmetry_cell_setting 'orthorhombic'
loop_
_space_group_symop_operation_xyz
x,y,z
-x,-y,1/2+z
x,-y,-z
-x,y,1/2-z
-x,-y,-z
x,y,1/2-z
-x,y,z
x,-y,1/2+z
1/2+x,1/2+y,z
1/2-x,1/2-y,1/2+z
1/2+x,1/2-y,-z
1/2-x,1/2+y,1/2-z
1/2-x,1/2-y,-z
1/2+x,1/2+y,1/2-z
1/2-x,1/2+y,z
1/2+x,1/2-y,1/2+z
loop_
_atom_site_type_symbol
_atom_site_label
_atom_site_fract_x
_atom_site_fract_y
_atom_site_fract_z
Si Si1 0.312347 0.890755 0.341250
Si Si2 0.923014 0.593726 0.192035
Si Si3 0.652760 0.350168 0.474113
Si Si4 0.694325 0.878439 0.458056
Si Si5 0.920079 0.869475 0.369354
Si Si6 0.819375 0.933632 0.689346
O O1 0.323222 0.918010 0.401128
O O2 0.308058 0.725810 0.329292
O O3 0.375229 0.961865 0.313994
O O4 0.245941 0.972406 0.323211
O O5 0.920856 0.642544 0.250000
O O6 0.901036 0.724055 0.157989
O O7 0.000000 0.558432 0.179303
O O8 0.651584 0.500000 0.500000
O O9 0.645144 0.237148 0.518470
O O10 0.728728 0.323637 0.453906
O O11 0.602621 0.351842 0.427400
O O12 0.694790 0.000000 0.500000
O O13 0.000000 0.888730 0.365005
O O14 0.879751 0.994033 0.341884
O O15 0.830980 0.934366 0.750000
#
# Coordination Sequence:
#
# PCOD9473322 Si02
#       6
#    16  16  16  16  16  16
#     4  12  24  41  64  93 126 162 205 264 312 371
#     4  10  22  41  63  87 120 163 205 248 307 371
#     4  10  20  37  58  87 120 158 200 247 305 366
#     4  10  21  35  62  88 120 157 198 248 308 372
#     4  11  23  41  65  91 125 166 210 259 308 369
#     4  12  25  40  61  92 125 163 210 259 313 368
#
# _framework density 19.099983999999999
#
# number of rings (size 3 to 8) (size 9 to 14) (size 15 to 20)
#    0.000    1.167    1.667    5.000    4.667    2.000 
#    0.000    0.833    0.000    3.000    0.000    0.000 
#    0.000    0.000    0.000    0.000    0.000    0.000 
#
# Total GULP energy -268122.002241 kJ/mol
# GULP energy per Si atom -5585.875047 kJ/mol
# Density = 1.905651 g / cm^3
# Si number density = 19.099984 Si / 1000 Ang^3
#
#
#
# Elastic Constant Matrix: (Units=GPa)
#
#
# Indices 1 2 3 4 5 6 
#
# 1 66.5008 52.0270 18.7323 0.0000 0.0000 0.0000
# 2 52.0270 110.9661 15.5065 0.0000 0.0000 0.0000
# 3 18.7323 15.5065 99.8221 0.0000 0.0000 0.0000
# 4 0.0000 0.0000 0.0000 31.3562 0.0000 0.0000
# 5 0.0000 0.0000 0.0000 0.0000 1693.8373 0.0000
# 6 0.0000 0.0000 0.0000 0.0000 0.0000 73.3129
#
#
#
# Elastic Compliance Matrix: (Units=1/GPa)
#
#
# Indices 1 2 3 4 5 6 
#
# 1 0.024532 -0.011100 -0.002879 0.000000 0.000000 0.000000
# 2 -0.011100 0.014234 -0.000128 0.000000 0.000000 0.000000
# 3 -0.002879 -0.000128 0.010578 0.000000 0.000000 0.000000
# 4 0.000000 0.000000 0.000000 0.031892 0.000000 0.000000
# 5 0.000000 0.000000 0.000000 0.000000 0.000590 0.000000
# 6 0.000000 0.000000 0.000000 0.000000 0.000000 0.013640
#
#
# Mechanical properties :
#
#
# Convention : Reuss Voigt Hill
#
# Bulk Modulus (GPa) = 47.32686 49.98006 48.65346
# Shear Modulus (GPa) = 38.24840 372.43618 205.34229
#
# Velocity S-wave (km/s) = 4.47982 13.97914 10.37991
# Velocity P-wave (km/s) = 7.18267 16.93456 13.00712
#
# Compressibility (1/GPa) = 0.02112965
#
# Stress axis : x y z
#
# Youngs Moduli (GPa) = 40.76235 70.25507 94.53523
#
# Poissons Ratio (x) = 0.77982 0.27221
# Poissons Ratio (y) = 0.45245 0.01212
# Poissons Ratio (z) = 0.11737 0.00900
#
# Static dielectric constant tensor:
#      x y z
#    x 1.654180 0.000000 0.000000 
#    y 0.000000 1.649190 0.000000 
#    z 0.000000 0.000000 1.501210 
# 
# From -- ./inp_files/70261.got.cif
#   From: 2010.05.17/outbox.cif.g08.bks.cpg/sg63_36_cif.got.tgz:70261.got - 2010.06.03 15:47:04.
