data_PCOD9473839
_publ_section_title
;
Structure prediction by ZEFSAII (Michael W. Deem and Ramdas Pophale) SiO2 
 PCOD9473839
Probable space group: C M C M
;
_chemical_formula_sum "Si O2"
_cell_formula_units_Z 80
_cell_length_a 13.449318
_cell_length_b 18.684087
_cell_length_c 15.066478
_cell_angle_alpha 90.000000
_cell_angle_beta 90.000000
_cell_angle_gamma 90.000000
_cell_volume 3786.028553
_symmetry_space_group_name_H-M "C M C M"
_symmetry_group_IT_number 63
_symmetry_cell_setting 'orthorhombic'
loop_
_space_group_symop_operation_xyz
x,y,z
-x,-y,1/2+z
x,-y,-z
-x,y,1/2-z
-x,-y,-z
x,y,1/2-z
-x,y,z
x,-y,1/2+z
1/2+x,1/2+y,z
1/2-x,1/2-y,1/2+z
1/2+x,1/2-y,-z
1/2-x,1/2+y,1/2-z
1/2-x,1/2-y,-z
1/2+x,1/2+y,1/2-z
1/2-x,1/2+y,z
1/2+x,1/2-y,1/2+z
loop_
_atom_site_type_symbol
_atom_site_label
_atom_site_fract_x
_atom_site_fract_y
_atom_site_fract_z
Si Si1 0.887274 0.758613 0.350956
Si Si2 0.615990 0.131603 0.652093
Si Si3 0.280514 0.984933 0.648195
Si Si4 0.385839 0.590409 0.573790
Si Si5 0.277608 0.150492 0.467638
O O1 0.876977 0.734771 0.250000
O O2 0.880746 0.844558 0.355850
O O3 0.807097 0.718991 0.411102
O O4 0.000000 0.740498 0.382036
O O5 0.653072 0.156921 0.750000
O O6 0.500000 0.147860 0.646980
O O7 0.670133 0.156944 0.563326
O O8 0.636135 0.046410 0.650652
O O9 0.258712 0.963587 0.750000
O O10 0.313174 0.918668 0.588195
O O11 0.184855 0.025890 0.605355
O O12 0.500000 0.569750 0.561760
O O13 0.336531 0.629489 0.488541
#
# Coordination Sequence:
#
# PCOD9473839 Si02
#       5
#    16  16  16  16  16
#     4  10  21  37  59  86 115 149 187 229 282 342
#     4   9  18  32  50  75 109 148 186 224 275 341
#     4  10  21  35  54  81 111 146 188 235 284 334
#     4  10  21  38  58  80 111 154 198 234 273 330
#     4  11  21  35  56  84 115 143 183 239 292 333
#
# _framework density 21.130322
#
# number of rings (size 3 to 8) (size 9 to 14) (size 15 to 20)
#    0.000    2.000    0.000    4.800    0.000    6.000 
#    0.000    2.000    0.000    1.800    0.000    2.800 
#    0.000    0.000    0.000    0.000    0.000    0.000 
#
# Total GULP energy -223223.730486 kJ/mol
# GULP energy per Si atom -5580.593262 kJ/mol
# Density = 2.108223 g / cm^3
# Si number density = 21.130322 Si / 1000 Ang^3
#
#
#
# Elastic Constant Matrix: (Units=GPa)
#
#
# Indices 1 2 3 4 5 6 
#
# 1 81.8710 19.3650 37.8523 0.0000 0.0000 0.0000
# 2 19.3650 86.7662 46.3418 0.0000 0.0000 0.0000
# 3 37.8523 46.3418 122.9220 0.0000 0.0000 0.0000
# 4 0.0000 0.0000 0.0000 22.7347 0.0000 0.0000
# 5 0.0000 0.0000 0.0000 0.0000 19.2562 0.0000
# 6 0.0000 0.0000 0.0000 0.0000 0.0000 10.4595
#
#
#
# Elastic Compliance Matrix: (Units=1/GPa)
#
#
# Indices 1 2 3 4 5 6 
#
# 1 0.014318 -0.001053 -0.004012 0.000000 0.000000 0.000000
# 2 -0.001053 0.014508 -0.005146 0.000000 0.000000 0.000000
# 3 -0.004012 -0.005146 0.011311 0.000000 0.000000 0.000000
# 4 0.000000 0.000000 0.000000 0.043986 0.000000 0.000000
# 5 0.000000 0.000000 0.000000 0.000000 0.051931 0.000000
# 6 0.000000 0.000000 0.000000 0.000000 0.000000 0.095607
#
#
# Mechanical properties :
#
#
# Convention : Reuss Voigt Hill
#
# Bulk Modulus (GPa) = 50.71922 55.40859 53.06391
# Shear Modulus (GPa) = 19.33082 23.02341 21.17712
#
# Velocity S-wave (km/s) = 3.02791 3.30448 3.16921
# Velocity P-wave (km/s) = 6.02324 6.39051 6.20960
#
# Compressibility (1/GPa) = 0.01971639
#
# Stress axis : x y z
#
# Youngs Moduli (GPa) = 69.84034 68.92556 88.41220
#
# Poissons Ratio (x) = 0.07256 0.35474
# Poissons Ratio (y) = 0.07352 0.45493
# Poissons Ratio (z) = 0.28022 0.35466
#
# Static dielectric constant tensor:
#      x y z
#    x 1.785180 0.000000 0.000000 
#    y 0.000000 1.759350 0.000000 
#    z 0.000000 0.000000 1.803680 
# 
# From -- ./inp_files/31634.got.cif
#   From: 2010.05.17/outbox.cif.g08.bks.cpg/sg63_16_cif.got.tgz:31634.got - 2010.06.03 15:47:04.
