data_PCOD9473030
_publ_section_title
;
Structure prediction by ZEFSAII (Michael W. Deem and Ramdas Pophale) SiO2 
 PCOD9473030
Probable space group: C M C M
;
_chemical_formula_sum "Si O2"
_cell_formula_units_Z 80
_cell_length_a 20.188712
_cell_length_b 25.796682
_cell_length_c 8.662741
_cell_angle_alpha 90.000000
_cell_angle_beta 90.000000
_cell_angle_gamma 90.000000
_cell_volume 4511.570962
_symmetry_space_group_name_H-M "C M C M"
_symmetry_group_IT_number 63
_symmetry_cell_setting 'orthorhombic'
loop_
_space_group_symop_operation_xyz
x,y,z
-x,-y,1/2+z
x,-y,-z
-x,y,1/2-z
-x,-y,-z
x,y,1/2-z
-x,y,z
x,-y,1/2+z
1/2+x,1/2+y,z
1/2-x,1/2-y,1/2+z
1/2+x,1/2-y,-z
1/2-x,1/2+y,1/2-z
1/2-x,1/2-y,-z
1/2+x,1/2+y,1/2-z
1/2-x,1/2+y,z
1/2+x,1/2-y,1/2+z
loop_
_atom_site_type_symbol
_atom_site_label
_atom_site_fract_x
_atom_site_fract_y
_atom_site_fract_z
Si Si1 0.500000 0.239699 0.423861
Si Si2 0.256802 0.554932 0.433087
Si Si3 0.000000 0.382950 0.575812
Si Si4 0.240929 0.167044 0.935215
Si Si5 0.145311 0.743830 0.564509
Si Si6 0.609811 0.947869 0.433075
O O1 0.500000 0.262127 0.250000
O O2 0.500000 0.177908 0.411615
O O3 0.570014 0.250519 0.507067
O O4 0.283837 0.500000 0.500000
O O5 0.264013 0.553787 0.250000
O O6 0.278640 0.610805 0.498186
O O7 0.179734 0.555605 0.482069
O O8 0.936624 0.401320 0.481268
O O9 0.000000 0.405298 0.750000
O O10 0.240300 0.163591 0.750000
O O11 0.313856 0.190852 0.979848
O O12 0.189116 0.209773 0.994294
O O13 0.146408 0.746133 0.750000
O O14 0.619369 0.950716 0.250000
O O15 0.577496 0.000000 0.500000
#
# Coordination Sequence:
#
# PCOD9473030 Si02
#       6
#     8  16   8  16  16  16
#     4  11  23  36  52  75 104 137 174 218 265 314
#     4  11  21  34  52  75 103 134 171 214 262 312
#     4  11  22  34  47  65  92 129 171 212 255 304
#     4  10  20  36  57  81 109 141 179 221 268 320
#     4  10  21  36  56  80 108 142 179 221 268 320
#     4  11  21  33  47  65  92 128 170 213 257 302
#
# _framework density 17.732182999999999
#
# number of rings (size 3 to 8) (size 9 to 14) (size 15 to 20)
#    0.000    1.400    0.000    8.100    0.000    7.200 
#    0.000    0.000    0.000    0.000    0.000    0.700 
#    0.000    0.000    0.000    0.000    0.000    0.000 
#
# Total GULP energy -223129.912618 kJ/mol
# GULP energy per Si atom -5578.247815 kJ/mol
# Density = 1.769182 g / cm^3
# Si number density = 17.732183 Si / 1000 Ang^3
#
#
#
# Elastic Constant Matrix: (Units=GPa)
#
#
# Indices 1 2 3 4 5 6 
#
# 1 71.3891 26.6282 28.6482 0.0000 0.0000 0.0000
# 2 26.6282 115.3675 45.9495 0.0000 0.0000 0.0000
# 3 28.6482 45.9495 118.4786 0.0000 0.0000 0.0000
# 4 0.0000 0.0000 0.0000 30.7603 0.0000 0.0000
# 5 0.0000 0.0000 0.0000 0.0000 33.5581 0.0000
# 6 0.0000 0.0000 0.0000 0.0000 0.0000 14.7696
#
#
#
# Elastic Compliance Matrix: (Units=1/GPa)
#
#
# Indices 1 2 3 4 5 6 
#
# 1 0.016131 -0.002566 -0.002905 0.000000 0.000000 0.000000
# 2 -0.002566 0.010660 -0.003514 0.000000 0.000000 0.000000
# 3 -0.002905 -0.003514 0.010506 0.000000 0.000000 0.000000
# 4 0.000000 0.000000 0.000000 0.032509 0.000000 0.000000
# 5 0.000000 0.000000 0.000000 0.000000 0.029799 0.000000
# 6 0.000000 0.000000 0.000000 0.000000 0.000000 0.067707
#
#
# Mechanical properties :
#
#
# Convention : Reuss Voigt Hill
#
# Bulk Modulus (GPa) = 51.74363 56.40968 54.07665
# Shear Modulus (GPa) = 26.07930 29.41823 27.74877
#
# Velocity S-wave (km/s) = 3.83917 4.07754 3.96015
# Velocity P-wave (km/s) = 6.99259 7.35184 7.17446
#
# Compressibility (1/GPa) = 0.01932605
#
# Stress axis : x y z
#
# Youngs Moduli (GPa) = 61.99349 93.81150 95.18797
#
# Poissons Ratio (x) = 0.24072 0.27654
# Poissons Ratio (y) = 0.15908 0.33446
# Poissons Ratio (z) = 0.18011 0.32962
#
# Static dielectric constant tensor:
#      x y z
#    x 2.890360 0.000000 0.000000 
#    y 0.000000 -0.075030 0.000000 
#    z 0.000000 0.000000 1.639920 
# 
# From -- ./inp_files/8082.got.cif
#   From: 2010.05.17/outbox.cif.g08.bks.cpg/sg63_5_cif.got.tgz:8082.got - 2010.06.03 15:47:04.
