data_PCOD9473925
_publ_section_title
;
Structure prediction by ZEFSAII (Michael W. Deem and Ramdas Pophale) SiO2 
 PCOD9473925
Probable space group: C M C M
;
_chemical_formula_sum "Si O2"
_cell_formula_units_Z 96
_cell_length_a 28.842600
_cell_length_b 20.503189
_cell_length_c 9.319687
_cell_angle_alpha 90.000000
_cell_angle_beta 90.000000
_cell_angle_gamma 90.000000
_cell_volume 5511.339303
_symmetry_space_group_name_H-M "C M C M"
_symmetry_group_IT_number 63
_symmetry_cell_setting 'orthorhombic'
loop_
_space_group_symop_operation_xyz
x,y,z
-x,-y,1/2+z
x,-y,-z
-x,y,1/2-z
-x,-y,-z
x,y,1/2-z
-x,y,z
x,-y,1/2+z
1/2+x,1/2+y,z
1/2-x,1/2-y,1/2+z
1/2+x,1/2-y,-z
1/2-x,1/2+y,1/2-z
1/2-x,1/2-y,-z
1/2+x,1/2+y,1/2-z
1/2-x,1/2+y,z
1/2+x,1/2-y,1/2+z
loop_
_atom_site_type_symbol
_atom_site_label
_atom_site_fract_x
_atom_site_fract_y
_atom_site_fract_z
Si Si1 0.788365 0.839720 0.421800
Si Si2 0.584097 0.812749 0.419245
Si Si3 0.445675 0.681135 0.579619
Si Si4 0.628761 0.568560 0.577545
Si Si5 0.690839 0.205734 0.581447
Si Si6 0.555044 0.938932 0.911303
O O1 0.793356 0.835367 0.250000
O O2 0.822603 0.897465 0.467885
O O3 0.733487 0.842285 0.455856
O O4 0.804553 0.771732 0.490752
O O5 0.573040 0.813519 0.250000
O O6 0.568715 0.744401 0.488893
O O7 0.639445 0.820872 0.437019
O O8 0.561424 0.872434 0.502433
O O9 0.439697 0.695467 0.750000
O O10 0.500000 0.666261 0.555659
O O11 0.412074 0.620529 0.545059
O O12 0.621980 0.500000 0.500000
O O13 0.629328 0.559179 0.750000
O O14 0.696344 0.222600 0.750000
O O15 0.574315 0.934670 0.750000
O O16 0.500000 0.949726 0.898217
O O17 0.574762 0.000000 0.000000
#
# Coordination Sequence:
#
# PCOD9473925 Si02
#       6
#    16  16  16  16  16  16
#     4   9  17  33  54  76 102 135 174 215 261 314
#     4  11  21  33  53  83 114 142 174 220 271 321
#     4  10  21  37  55  77 106 141 185 232 275 323
#     4  10  21  36  55  77 105 143 182 226 276 327
#     4   9  18  31  52  80 107 133 168 216 261 310
#     4  10  21  37  56  77 104 141 182 221 264 318
#
# _framework density 17.418634000000001
#
# number of rings (size 3 to 8) (size 9 to 14) (size 15 to 20)
#    0.000    2.167    1.667    1.500    0.000    5.667 
#    0.000    0.833    0.000    2.000    0.000    0.000 
#    0.000    0.000    0.000    0.000    0.000    0.000 
#
# Total GULP energy -267617.084221 kJ/mol
# GULP energy per Si atom -5575.355921 kJ/mol
# Density = 1.737899 g / cm^3
# Si number density = 17.418634 Si / 1000 Ang^3
#
#
#
# Elastic Constant Matrix: (Units=GPa)
#
#
# Indices 1 2 3 4 5 6 
#
# 1 72.2003 44.5324 41.7288 0.0000 0.0000 0.0000
# 2 44.5324 132.0858 63.8761 0.0000 0.0000 0.0000
# 3 41.7288 63.8761 68.7430 0.0000 0.0000 0.0000
# 4 0.0000 0.0000 0.0000 30.7575 0.0000 0.0000
# 5 0.0000 0.0000 0.0000 0.0000 18.8430 0.0000
# 6 0.0000 0.0000 0.0000 0.0000 0.0000 22.3959
#
#
#
# Elastic Compliance Matrix: (Units=1/GPa)
#
#
# Indices 1 2 3 4 5 6 
#
# 1 0.021545 -0.001706 -0.011494 0.000000 0.000000 0.000000
# 2 -0.001706 0.013884 -0.011866 0.000000 0.000000 0.000000
# 3 -0.011494 -0.011866 0.032550 0.000000 0.000000 0.000000
# 4 0.000000 0.000000 0.000000 0.032512 0.000000 0.000000
# 5 0.000000 0.000000 0.000000 0.000000 0.053070 0.000000
# 6 0.000000 0.000000 0.000000 0.000000 0.000000 0.044651
#
#
# Mechanical properties :
#
#
# Convention : Reuss Voigt Hill
#
# Bulk Modulus (GPa) = 56.02610 63.70039 59.86325
# Shear Modulus (GPa) = 19.66242 22.59206 21.12724
#
# Velocity S-wave (km/s) = 3.36343 3.60530 3.48646
# Velocity P-wave (km/s) = 6.87880 7.34715 7.11683
#
# Compressibility (1/GPa) = 0.01784882
#
# Stress axis : x y z
#
# Youngs Moduli (GPa) = 46.41401 72.02465 30.72236
#
# Poissons Ratio (x) = 0.12285 0.35311
# Poissons Ratio (y) = 0.07917 0.36455
# Poissons Ratio (z) = 0.53346 0.85463
#
# Static dielectric constant tensor:
#      x y z
#    x 1.628390 0.000000 0.000000 
#    y 0.000000 1.545140 0.000000 
#    z 0.000000 0.000000 1.593830 
# 
# From -- ./inp_files/12356.got.cif
#   From: 2010.05.17/outbox.cif.g08.bks.cpg/sg63_7_cif.got.tgz:12356.got - 2010.06.03 15:47:04.
