data_PCOD9473900
_publ_section_title
;
Structure prediction by ZEFSAII (Michael W. Deem and Ramdas Pophale) SiO2 
 PCOD9473900
Probable space group: C M C M
;
_chemical_formula_sum "Si O2"
_cell_formula_units_Z 80
_cell_length_a 27.363455
_cell_length_b 19.020512
_cell_length_c 8.975495
_cell_angle_alpha 90.000000
_cell_angle_beta 90.000000
_cell_angle_gamma 90.000000
_cell_volume 4671.448276
_symmetry_space_group_name_H-M "C M C M"
_symmetry_group_IT_number 63
_symmetry_cell_setting 'orthorhombic'
loop_
_space_group_symop_operation_xyz
x,y,z
-x,-y,1/2+z
x,-y,-z
-x,y,1/2-z
-x,-y,-z
x,y,1/2-z
-x,y,z
x,-y,1/2+z
1/2+x,1/2+y,z
1/2-x,1/2-y,1/2+z
1/2+x,1/2-y,-z
1/2-x,1/2+y,1/2-z
1/2-x,1/2-y,-z
1/2+x,1/2+y,1/2-z
1/2-x,1/2+y,z
1/2+x,1/2-y,1/2+z
loop_
_atom_site_type_symbol
_atom_site_label
_atom_site_fract_x
_atom_site_fract_y
_atom_site_fract_z
Si Si1 0.201227 0.719358 0.427982
Si Si2 0.942960 0.071945 0.429033
Si Si3 0.105805 0.782296 0.571896
Si Si4 0.652105 0.073496 0.428272
Si Si5 0.055582 0.364108 0.428148
O O1 0.204656 0.723137 0.250000
O O2 0.250000 0.750000 0.500000
O O3 0.154995 0.763286 0.486391
O O4 0.187830 0.638468 0.468496
O O5 0.940687 0.066730 0.250000
O O6 0.915321 0.142614 0.474003
O O7 0.000000 0.078879 0.471464
O O8 0.923789 0.000000 0.500000
O O9 0.115208 0.783668 0.750000
O O10 0.067746 0.718440 0.546560
O O11 0.650404 0.067960 0.250000
O O12 0.598135 0.093475 0.489081
O O13 0.667395 0.000000 0.500000
O O14 0.059639 0.376546 0.250000
O O15 0.000000 0.380286 0.474070
#
# Coordination Sequence:
#
# PCOD9473900 Si02
#       5
#    16  16  16  16  16
#     4  10  21  37  57  79 100 125 162 206 252 300
#     4   9  17  29  46  70 101 136 171 206 246 293
#     4   9  17  31  51  73  99 131 168 209 250 295
#     4  10  21  36  54  77 104 133 165 202 245 293
#     4   9  17  30  50  75 102 135 172 206 243 289
#
# _framework density 17.125309000000001
#
# number of rings (size 3 to 8) (size 9 to 14) (size 15 to 20)
#    0.000    2.600    0.000    1.800    0.000    6.400 
#    0.000    1.000    0.000    3.600    0.000    0.000 
#    0.000    0.000    0.000    0.000    0.000    0.000 
#
# Total GULP energy -223089.073771 kJ/mol
# GULP energy per Si atom -5577.226844 kJ/mol
# Density = 1.708633 g / cm^3
# Si number density = 17.125309 Si / 1000 Ang^3
#
#
#
# Elastic Constant Matrix: (Units=GPa)
#
#
# Indices 1 2 3 4 5 6 
#
# 1 99.9973 56.9796 40.5912 0.0000 0.0000 0.0000
# 2 56.9796 145.8984 49.1624 0.0000 0.0000 0.0000
# 3 40.5912 49.1624 36.3580 0.0000 0.0000 0.0000
# 4 0.0000 0.0000 0.0000 29.7433 0.0000 0.0000
# 5 0.0000 0.0000 0.0000 0.0000 25.3754 0.0000
# 6 0.0000 0.0000 0.0000 0.0000 0.0000 10.2494
#
#
#
# Elastic Compliance Matrix: (Units=1/GPa)
#
#
# Indices 1 2 3 4 5 6 
#
# 1 0.018307 -0.000482 -0.019786 0.000000 0.000000 0.000000
# 2 -0.000482 0.012604 -0.016504 0.000000 0.000000 0.000000
# 3 -0.019786 -0.016504 0.071910 0.000000 0.000000 0.000000
# 4 0.000000 0.000000 0.000000 0.033621 0.000000 0.000000
# 5 0.000000 0.000000 0.000000 0.000000 0.039408 0.000000
# 6 0.000000 0.000000 0.000000 0.000000 0.000000 0.097567
#
#
# Mechanical properties :
#
#
# Convention : Reuss Voigt Hill
#
# Bulk Modulus (GPa) = 34.15760 63.96892 49.06326
# Shear Modulus (GPa) = 14.01666 22.10832 18.06249
#
# Velocity S-wave (km/s) = 2.86401 3.59691 3.25118
# Velocity P-wave (km/s) = 5.56109 7.39492 6.54257
#
# Compressibility (1/GPa) = 0.02927606
#
# Stress axis : x y z
#
# Youngs Moduli (GPa) = 54.62491 79.34194 13.90634
#
# Poissons Ratio (x) = 0.03828 0.27515
# Poissons Ratio (y) = 0.02635 0.22951
# Poissons Ratio (z) = 1.08079 1.30944
#
# Static dielectric constant tensor:
#      x y z
#    x 1.552610 0.000000 0.000000 
#    y 0.000000 1.584170 0.000000 
#    z 0.000000 0.000000 1.572610 
# 
# From -- ./inp_files/11983.got.cif
#   From: 2010.05.17/outbox.cif.g08.bks.cpg/sg63_6_cif.got.tgz:11983.got - 2010.06.03 15:47:04.
