data_PCOD9473652
_publ_section_title
;
Structure prediction by ZEFSAII (Michael W. Deem and Ramdas Pophale) SiO2 
 PCOD9473652
Probable space group: C M C M
;
_chemical_formula_sum "Si O2"
_cell_formula_units_Z 76
_cell_length_a 8.121593
_cell_length_b 29.677445
_cell_length_c 16.370846
_cell_angle_alpha 90.000000
_cell_angle_beta 90.000000
_cell_angle_gamma 90.000000
_cell_volume 3945.834391
_symmetry_space_group_name_H-M "C M C M"
_symmetry_group_IT_number 63
_symmetry_cell_setting 'orthorhombic'
loop_
_space_group_symop_operation_xyz
x,y,z
-x,-y,1/2+z
x,-y,-z
-x,y,1/2-z
-x,-y,-z
x,y,1/2-z
-x,y,z
x,-y,1/2+z
1/2+x,1/2+y,z
1/2-x,1/2-y,1/2+z
1/2+x,1/2-y,-z
1/2-x,1/2+y,1/2-z
1/2-x,1/2-y,-z
1/2+x,1/2+y,1/2-z
1/2-x,1/2+y,z
1/2+x,1/2-y,1/2+z
loop_
_atom_site_type_symbol
_atom_site_label
_atom_site_fract_x
_atom_site_fract_y
_atom_site_fract_z
Si Si1 0.807663 0.772419 0.914123
Si Si2 0.000000 0.387595 0.416295
Si Si3 0.684584 0.628338 0.476191
Si Si4 0.316826 0.527149 0.413866
Si Si5 0.000000 0.516865 0.843064
Si Si6 0.500000 0.164896 0.750000
Si Si7 0.684340 0.271223 0.250000
O O1 0.797548 0.826454 0.923310
O O2 0.709176 0.756462 0.834367
O O3 0.000000 0.760141 0.902466
O O4 0.750000 0.750000 0.000000
O O5 0.164794 0.372421 0.461777
O O6 0.000000 0.441284 0.405229
O O7 0.000000 0.365430 0.329077
O O8 0.500000 0.630418 0.513924
O O9 0.693298 0.580663 0.429643
O O10 0.305573 0.500000 0.500000
O O11 0.500000 0.517088 0.380300
O O12 0.164552 0.511326 0.360138
O O13 0.000000 0.532854 0.750000
O O14 0.666177 0.193882 0.750000
O O15 0.500000 0.290651 0.250000
#
# Coordination Sequence:
#
# PCOD9473652 Si02
#       7
#    16   8  16  16   8   4   8
#     4  11  23  43  67  96 131 171 220 274 332 396
#     4  12  23  38  66  93 129 165 216 262 328 390
#     4  10  23  40  65  96 122 164 217 266 323 391
#     4  10  20  40  65  88 123 166 212 262 316 379
#     4  12  24  40  59  95 132 168 211 267 325 386
#     4  12  26  44  62  92 130 180 206 266 324 398
#     4  12  26  46  66  93 133 173 221 276 330 393
#
# _framework density 19.260818
#
# number of rings (size 3 to 8) (size 9 to 14) (size 15 to 20)
#    0.000    1.053    3.684    2.842    2.947    2.947 
#    1.895    0.000    0.000    0.000    0.000    0.000 
#    0.000    0.000    0.000    0.000    0.000    0.000 
#
# Total GULP energy -212222.349480 kJ/mol
# GULP energy per Si atom -5584.798671 kJ/mol
# Density = 1.921698 g / cm^3
# Si number density = 19.260818 Si / 1000 Ang^3
#
#
#
# Elastic Constant Matrix: (Units=GPa)
#
#
# Indices 1 2 3 4 5 6 
#
# 1 175.6319 34.1132 49.2605 0.0000 0.0000 0.0000
# 2 34.1132 91.3399 12.7824 0.0000 0.0000 0.0000
# 3 49.2605 12.7824 71.9326 0.0000 0.0000 0.0000
# 4 0.0000 0.0000 0.0000 -2.7649 0.0000 0.0000
# 5 0.0000 0.0000 0.0000 0.0000 35.7672 0.0000
# 6 0.0000 0.0000 0.0000 0.0000 0.0000 -610.7534
#
#
#
# Elastic Compliance Matrix: (Units=1/GPa)
#
#
# Indices 1 2 3 4 5 6 
#
# 1 0.007425 -0.002114 -0.004709 0.000000 0.000000 0.000000
# 2 -0.002114 0.011829 -0.000654 0.000000 0.000000 0.000000
# 3 -0.004709 -0.000654 0.017243 0.000000 0.000000 0.000000
# 4 0.000000 0.000000 0.000000 -0.361677 0.000000 0.000000
# 5 0.000000 0.000000 0.000000 0.000000 0.027959 0.000000
# 6 0.000000 0.000000 0.000000 0.000000 0.000000 -0.001637
#
#
# Mechanical properties :
#
#
# Convention : Reuss Voigt Hill
#
# Bulk Modulus (GPa) = 46.42020 59.02406 52.72213
# Shear Modulus (GPa) = -18.06863 -99.36701 -58.71782
#
# Velocity S-wave (km/s) = -3.06617 -7.19043 -5.52737
# Velocity P-wave (km/s) = 3.40852 6.18265 3.64741
#
# Compressibility (1/GPa) = 0.02154235
#
# Stress axis : x y z
#
# Youngs Moduli (GPa) = 134.67729 84.53626 57.99429
#
# Poissons Ratio (x) = 0.17872 0.27311
# Poissons Ratio (y) = 0.28472 0.03795
# Poissons Ratio (z) = 0.63422 0.05531
#
# Static dielectric constant tensor:
#      x y z
#    x 1.672180 0.000000 0.000000 
#    y 0.000000 1.671530 0.000000 
#    z 0.000000 0.000000 1.650650 
# 
# From -- ./inp_files/40767.got.cif
#   From: 2010.05.17/outbox.cif.g08.bks.cpg/sg63_21_cif.got.tgz:40767.got - 2010.06.03 15:47:04.
