data_PCOD9473380
_publ_section_title
;
Structure prediction by ZEFSAII (Michael W. Deem and Ramdas Pophale) SiO2 
 PCOD9473380
Probable space group: C M C M
;
_chemical_formula_sum "Si O2"
_cell_formula_units_Z 80
_cell_length_a 18.386531
_cell_length_b 9.074430
_cell_length_c 22.695622
_cell_angle_alpha 90.000000
_cell_angle_beta 90.000000
_cell_angle_gamma 90.000000
_cell_volume 3786.702992
_symmetry_space_group_name_H-M "C M C M"
_symmetry_group_IT_number 63
_symmetry_cell_setting 'orthorhombic'
loop_
_space_group_symop_operation_xyz
x,y,z
-x,-y,1/2+z
x,-y,-z
-x,y,1/2-z
-x,-y,-z
x,y,1/2-z
-x,y,z
x,-y,1/2+z
1/2+x,1/2+y,z
1/2-x,1/2-y,1/2+z
1/2+x,1/2-y,-z
1/2-x,1/2+y,1/2-z
1/2-x,1/2-y,-z
1/2+x,1/2+y,1/2-z
1/2-x,1/2+y,z
1/2+x,1/2-y,1/2+z
loop_
_atom_site_type_symbol
_atom_site_label
_atom_site_fract_x
_atom_site_fract_y
_atom_site_fract_z
Si Si1 0.420228 0.307415 0.154998
Si Si2 0.829957 0.674723 0.917668
Si Si3 0.289327 0.869058 0.866602
Si Si4 0.084196 0.833308 0.013943
Si Si5 0.363181 0.377941 0.815556
O O1 0.500000 0.254142 0.172834
O O2 0.408918 0.474411 0.175795
O O3 0.351988 0.207151 0.171456
O O4 0.416122 0.310130 0.083701
O O5 0.821207 0.504595 0.903070
O O6 0.866975 0.718895 0.978340
O O7 0.750689 0.750379 0.909091
O O8 0.876277 0.757228 0.866154
O O9 0.221491 0.922045 0.826800
O O10 0.000000 0.823288 0.993635
O O11 0.110106 0.000000 0.000000
O O12 0.372474 0.319114 0.750000
#
# Coordination Sequence:
#
# PCOD9473380 Si02
#       5
#    16  16  16  16  16
#     4  11  23  41  63  94 127 163 204 250 311 369
#     4  10  21  38  59  91 120 163 206 248 307 366
#     4  10  21  40  59  94 123 161 205 257 303 363
#     4  10  20  37  61  86 124 163 198 249 309 374
#     4  10  21  41  63  88 120 160 208 253 305 363
#
# _framework density 21.126559
#
# number of rings (size 3 to 8) (size 9 to 14) (size 15 to 20)
#    1.200    0.600    4.000    0.000    0.000    6.000 
#    3.600    2.000    0.000    0.000    0.000    2.800 
#    0.000    0.000    0.000    0.000    0.000    0.000 
#
# Total GULP energy -223224.392145 kJ/mol
# GULP energy per Si atom -5580.609804 kJ/mol
# Density = 2.107847 g / cm^3
# Si number density = 21.126559 Si / 1000 Ang^3
#
#
#
# Elastic Constant Matrix: (Units=GPa)
#
#
# Indices 1 2 3 4 5 6 
#
# 1 77.3329 3.3504 -2.7247 0.0000 0.0000 0.0000
# 2 3.3504 69.3388 -6.4888 0.0000 0.0000 0.0000
# 3 -2.7247 -6.4888 78.6714 0.0000 0.0000 0.0000
# 4 0.0000 0.0000 0.0000 -9.2441 0.0000 0.0000
# 5 0.0000 0.0000 0.0000 0.0000 -22.3972 0.0000
# 6 0.0000 0.0000 0.0000 0.0000 0.0000 28.5409
#
#
#
# Elastic Compliance Matrix: (Units=1/GPa)
#
#
# Indices 1 2 3 4 5 6 
#
# 1 0.012971 -0.000589 0.000401 0.000000 0.000000 0.000000
# 2 -0.000589 0.014561 0.001181 0.000000 0.000000 0.000000
# 3 0.000401 0.001181 0.012822 0.000000 0.000000 0.000000
# 4 0.000000 0.000000 0.000000 -0.108177 0.000000 0.000000
# 5 0.000000 0.000000 0.000000 0.000000 -0.044648 0.000000
# 6 0.000000 0.000000 0.000000 0.000000 0.000000 0.035037
#
#
# Mechanical properties :
#
#
# Convention : Reuss Voigt Hill
#
# Bulk Modulus (GPa) = 23.61949 23.73520 23.67734
# Shear Modulus (GPa) = -76.56329 14.79368 -30.88480
#
# Velocity S-wave (km/s) = -6.02652 2.64908 -3.82762
# Velocity P-wave (km/s) = 6.10090 4.54048 2.88141
#
# Compressibility (1/GPa) = 0.04233792
#
# Stress axis : x y z
#
# Youngs Moduli (GPa) = 77.09653 68.67714 77.98885
#
# Poissons Ratio (x) = 0.04047 -0.03125
# Poissons Ratio (y) = 0.04543 -0.09207
# Poissons Ratio (z) = -0.03089 -0.08108
#
# Static dielectric constant tensor:
#      x y z
#    x 1.792110 0.000000 0.000000 
#    y 0.000000 1.728070 0.000000 
#    z 0.000000 0.000000 1.790430 
# 
# From -- ./inp_files/69751.got.cif
#   From: 2010.05.17/outbox.cif.g08.bks.cpg/sg63_35_cif.got.tgz:69751.got - 2010.06.03 15:47:04.
