data_PCOD9473968
_publ_section_title
;
Structure prediction by ZEFSAII (Michael W. Deem and Ramdas Pophale) SiO2 
 PCOD9473968
Probable space group: C M C M
;
_chemical_formula_sum "Si O2"
_cell_formula_units_Z 80
_cell_length_a 15.476277
_cell_length_b 17.414169
_cell_length_c 14.778805
_cell_angle_alpha 90.000000
_cell_angle_beta 90.000000
_cell_angle_gamma 90.000000
_cell_volume 3982.984057
_symmetry_space_group_name_H-M "C M C M"
_symmetry_group_IT_number 63
_symmetry_cell_setting 'orthorhombic'
loop_
_space_group_symop_operation_xyz
x,y,z
-x,-y,1/2+z
x,-y,-z
-x,y,1/2-z
-x,-y,-z
x,y,1/2-z
-x,y,z
x,-y,1/2+z
1/2+x,1/2+y,z
1/2-x,1/2-y,1/2+z
1/2+x,1/2-y,-z
1/2-x,1/2+y,1/2-z
1/2-x,1/2-y,-z
1/2+x,1/2+y,1/2-z
1/2-x,1/2+y,z
1/2+x,1/2-y,1/2+z
loop_
_atom_site_type_symbol
_atom_site_label
_atom_site_fract_x
_atom_site_fract_y
_atom_site_fract_z
Si Si1 0.818520 0.961925 0.853282
Si Si2 0.664387 0.082708 0.488930
Si Si3 0.289995 0.370882 0.144097
Si Si4 0.898287 0.253717 0.959014
Si Si5 0.600106 0.695045 0.151482
O O1 0.784413 0.959913 0.750000
O O2 0.744590 0.936317 0.922616
O O3 0.890800 0.896735 0.858401
O O4 0.844806 0.049843 0.870106
O O5 0.705636 0.110563 0.584016
O O6 0.613650 0.155070 0.449446
O O7 0.618524 0.000000 0.500000
O O8 0.271195 0.363533 0.250000
O O9 0.341933 0.297696 0.108306
O O10 0.000000 0.234401 0.951920
O O11 0.864646 0.231172 0.059825
O O12 0.639337 0.715349 0.250000
O O13 0.500000 0.717175 0.154603
#
# Coordination Sequence:
#
# PCOD9473968 Si02
#       5
#    16  16  16  16  16
#     4   9  18  34  57  82 110 145 185 228 275 328
#     4  10  21  39  58  80 109 144 193 234 274 321
#     4  10  21  36  56  84 114 146 184 227 279 333
#     4  11  23  37  55  83 115 147 184 226 279 333
#     4   9  18  32  52  80 112 145 181 223 274 331
#
# _framework density 20.085443000000001
#
# number of rings (size 3 to 8) (size 9 to 14) (size 15 to 20)
#    0.000    2.200    2.000    0.600    0.000    3.200 
#    0.000    4.000    0.000    0.000    0.000    8.400 
#    0.000    0.000    0.000    0.000    0.000    0.000 
#
# Total GULP energy -222908.902881 kJ/mol
# GULP energy per Si atom -5572.722572 kJ/mol
# Density = 2.003973 g / cm^3
# Si number density = 20.085443 Si / 1000 Ang^3
#
#
#
# Elastic Constant Matrix: (Units=GPa)
#
#
# Indices 1 2 3 4 5 6 
#
# 1 23.5953 17.6891 15.1958 0.0000 0.0000 0.0000
# 2 17.6891 136.6167 27.6328 0.0000 0.0000 0.0000
# 3 15.1958 27.6328 103.2980 0.0000 0.0000 0.0000
# 4 0.0000 0.0000 0.0000 12.3777 0.0000 0.0000
# 5 0.0000 0.0000 0.0000 0.0000 1.3154 0.0000
# 6 0.0000 0.0000 0.0000 0.0000 0.0000 17.6762
#
#
#
# Elastic Compliance Matrix: (Units=1/GPa)
#
#
# Indices 1 2 3 4 5 6 
#
# 1 0.050192 -0.005292 -0.005968 0.000000 0.000000 0.000000
# 2 -0.005292 0.008296 -0.001441 0.000000 0.000000 0.000000
# 3 -0.005968 -0.001441 0.010944 0.000000 0.000000 0.000000
# 4 0.000000 0.000000 0.000000 0.080790 0.000000 0.000000
# 5 0.000000 0.000000 0.000000 0.000000 0.760224 0.000000
# 6 0.000000 0.000000 0.000000 0.000000 0.000000 0.056573
#
#
# Mechanical properties :
#
#
# Convention : Reuss Voigt Hill
#
# Bulk Modulus (GPa) = 22.71114 42.72727 32.71920
# Shear Modulus (GPa) = 4.96476 19.80670 12.38573
#
# Velocity S-wave (km/s) = 1.57391 3.14367 2.48594
# Velocity P-wave (km/s) = 3.82554 5.87331 4.95633
#
# Compressibility (1/GPa) = 0.04403126
#
# Stress axis : x y z
#
# Youngs Moduli (GPa) = 19.92351 120.53485 91.37345
#
# Poissons Ratio (x) = 0.63784 0.54532
# Poissons Ratio (y) = 0.10543 0.13166
# Poissons Ratio (z) = 0.11890 0.17368
#
# Static dielectric constant tensor:
#      x y z
#    x 1.688980 0.000000 0.000000 
#    y 0.000000 1.768050 0.000000 
#    z 0.000000 0.000000 1.744960 
# 
# From -- ./inp_files/35123.got.cif
#   From: 2010.05.17/outbox.cif.g08.bks.cpg/sg63_18_cif.got.tgz:35123.got - 2010.06.03 15:47:04.
