data_PCOD9473587
_publ_section_title
;
Structure prediction by ZEFSAII (Michael W. Deem and Ramdas Pophale) SiO2 
 PCOD9473587
Probable space group: C M C M
;
_chemical_formula_sum "Si O2"
_cell_formula_units_Z 116
_cell_length_a 22.335742
_cell_length_b 18.334845
_cell_length_c 15.433962
_cell_angle_alpha 90.000000
_cell_angle_beta 90.000000
_cell_angle_gamma 90.000000
_cell_volume 6320.552659
_symmetry_space_group_name_H-M "C M C M"
_symmetry_group_IT_number 63
_symmetry_cell_setting 'orthorhombic'
loop_
_space_group_symop_operation_xyz
x,y,z
-x,-y,1/2+z
x,-y,-z
-x,y,1/2-z
-x,-y,-z
x,y,1/2-z
-x,y,z
x,-y,1/2+z
1/2+x,1/2+y,z
1/2-x,1/2-y,1/2+z
1/2+x,1/2-y,-z
1/2-x,1/2+y,1/2-z
1/2-x,1/2-y,-z
1/2+x,1/2+y,1/2-z
1/2-x,1/2+y,z
1/2+x,1/2-y,1/2+z
loop_
_atom_site_type_symbol
_atom_site_label
_atom_site_fract_x
_atom_site_fract_y
_atom_site_fract_z
Si Si1 0.602825 0.764559 0.884287
Si Si2 0.069350 0.560767 0.854326
Si Si3 0.264262 0.288697 0.092258
Si Si4 0.500000 0.275807 0.250000
Si Si5 0.830682 0.180828 0.155654
Si Si6 0.264796 0.582499 0.021967
Si Si7 0.151073 0.577198 0.149050
Si Si8 0.570194 0.780062 0.084245
O O1 0.668097 0.727030 0.879227
O O2 0.552773 0.729024 0.824971
O O3 0.612478 0.848896 0.856943
O O4 0.583147 0.764570 0.984040
O O5 0.070277 0.568824 0.750000
O O6 0.110988 0.492393 0.875910
O O7 0.089899 0.637016 0.895126
O O8 0.000000 0.547189 0.880014
O O9 0.218357 0.246150 0.152723
O O10 0.250000 0.250000 0.000000
O O11 0.254642 0.372629 0.067093
O O12 0.828673 0.145450 0.250000
O O13 0.814486 0.124795 0.079075
O O14 0.892671 0.221586 0.138346
O O15 0.206033 0.584598 0.082956
O O16 0.280283 0.500000 0.000000
O O17 0.170446 0.569274 0.250000
O O18 0.500000 0.776526 0.103510
#
# Coordination Sequence:
#
# PCOD9473587 Si02
#       8
#    16  16  16   4  16  16  16  16
#     4  12  22  38  59  89 123 164 217 259 317 382
#     4   9  21  35  50  79 126 173 214 256 305 369
#     4  10  20  39  61  88 123 163 210 262 319 376
#     4  12  28  36  64  98 124 172 222 274 326 390
#     4  11  22  39  64  91 123 167 215 268 327 378
#     4  11  23  39  61  90 124 163 210 266 330 390
#     4  11  22  34  55  82 129 173 211 256 305 372
#     4  11  22  39  61  89 121 164 217 268 318 387
#
# _framework density 18.352824999999999
#
# number of rings (size 3 to 8) (size 9 to 14) (size 15 to 20)
#    0.000    1.241    6.897    0.828    5.793    0.828 
#    0.000    2.069    0.000    0.414    0.000    0.000 
#    0.000    0.000    0.000    0.000    0.000    0.000 
#
# Total GULP energy -323354.912811 kJ/mol
# GULP energy per Si atom -5575.084704 kJ/mol
# Density = 1.831105 g / cm^3
# Si number density = 18.352825 Si / 1000 Ang^3
#
#
#
# Elastic Constant Matrix: (Units=GPa)
#
#
# Indices 1 2 3 4 5 6 
#
# 1 91.0118 13.4867 11.2707 0.0000 0.0000 0.0000
# 2 13.4867 73.6100 3.2329 0.0000 0.0000 0.0000
# 3 11.2707 3.2329 54.5953 0.0000 0.0000 0.0000
# 4 0.0000 0.0000 0.0000 15.3569 0.0000 0.0000
# 5 0.0000 0.0000 0.0000 0.0000 17.5404 0.0000
# 6 0.0000 0.0000 0.0000 0.0000 0.0000 26.3788
#
#
#
# Elastic Compliance Matrix: (Units=1/GPa)
#
#
# Indices 1 2 3 4 5 6 
#
# 1 0.011568 -0.002020 -0.002268 0.000000 0.000000 0.000000
# 2 -0.002020 0.013973 -0.000410 0.000000 0.000000 0.000000
# 3 -0.002268 -0.000410 0.018809 0.000000 0.000000 0.000000
# 4 0.000000 0.000000 0.000000 0.065117 0.000000 0.000000
# 5 0.000000 0.000000 0.000000 0.000000 0.057011 0.000000
# 6 0.000000 0.000000 0.000000 0.000000 0.000000 0.037909
#
#
# Mechanical properties :
#
#
# Convention : Reuss Voigt Hill
#
# Bulk Modulus (GPa) = 28.61004 30.57753 29.59378
# Shear Modulus (GPa) = 22.17920 24.60367 23.39144
#
# Velocity S-wave (km/s) = 3.48011 3.66538 3.57395
# Velocity P-wave (km/s) = 5.63657 5.88307 5.76114
#
# Compressibility (1/GPa) = 0.03495277
#
# Stress axis : x y z
#
# Youngs Moduli (GPa) = 86.44676 71.56550 53.16543
#
# Poissons Ratio (x) = 0.14455 0.12060
# Poissons Ratio (y) = 0.17461 0.02182
# Poissons Ratio (z) = 0.19610 0.02937
#
# Static dielectric constant tensor:
#      x y z
#    x 1.632500 0.000000 0.000000 
#    y 0.000000 1.634890 0.000000 
#    z 0.000000 0.000000 1.669680 
# 
# From -- ./inp_files/37123.got.cif
#   From: 2010.05.17/outbox.cif.g08.bks.cpg/sg63_19_cif.got.tgz:37123.got - 2010.06.03 15:47:04.
