data_PCOD9473771
_publ_section_title
;
Structure prediction by ZEFSAII (Michael W. Deem and Ramdas Pophale) SiO2 
 PCOD9473771
Probable space group: C M C M
;
_chemical_formula_sum "Si O2"
_cell_formula_units_Z 88
_cell_length_a 24.289868
_cell_length_b 5.231942
_cell_length_c 36.437215
_cell_angle_alpha 90.000000
_cell_angle_beta 90.000000
_cell_angle_gamma 90.000000
_cell_volume 4630.557173
_symmetry_space_group_name_H-M "C M C M"
_symmetry_group_IT_number 63
_symmetry_cell_setting 'orthorhombic'
loop_
_space_group_symop_operation_xyz
x,y,z
-x,-y,1/2+z
x,-y,-z
-x,y,1/2-z
-x,-y,-z
x,y,1/2-z
-x,y,z
x,-y,1/2+z
1/2+x,1/2+y,z
1/2-x,1/2-y,1/2+z
1/2+x,1/2-y,-z
1/2-x,1/2+y,1/2-z
1/2-x,1/2-y,-z
1/2+x,1/2+y,1/2-z
1/2-x,1/2+y,z
1/2+x,1/2-y,1/2+z
loop_
_atom_site_type_symbol
_atom_site_label
_atom_site_fract_x
_atom_site_fract_y
_atom_site_fract_z
Si Si1 0.212811 0.500000 0.000000
Si Si2 0.434809 0.330495 0.880728
Si Si3 0.286581 0.181257 0.293439
Si Si4 0.063006 0.233827 0.522840
Si Si5 0.121600 0.656844 0.353590
Si Si6 0.862216 0.493130 0.427700
O O1 0.177104 0.479054 0.037376
O O2 0.250000 0.250000 0.000000
O O3 0.500000 0.345722 0.888165
O O4 0.410840 0.582496 0.861713
O O5 0.420429 0.082632 0.855386
O O6 0.398283 0.254793 0.916736
O O7 0.299502 0.178534 0.250000
O O8 0.248242 0.936611 0.301388
O O9 0.341134 0.171375 0.317893
O O10 0.064300 0.500000 0.500000
O O11 0.092947 0.298694 0.560071
O O12 0.000000 0.167536 0.530262
O O13 0.088296 0.000000 0.500000
O O14 0.161128 0.592633 0.389002
#
# Coordination Sequence:
#
# PCOD9473771 Si02
#       6
#     8  16  16  16  16  16
#     4  12  30  44  59  78 119 164 204 258 316 366
#     4  10  22  40  63  92 124 162 202 253 309 369
#     4  10  21  40  67  96 126 161 205 256 306 356
#     4  10  21  34  56  83 110 144 193 252 298 343
#     4  10  23  37  63  94 125 159 202 256 305 375
#     4  10  25  41  61  83 119 158 210 248 306 368
#
# _framework density 19.004194999999999
#
# number of rings (size 3 to 8) (size 9 to 14) (size 15 to 20)
#    1.091    0.727    0.909    2.182    6.364    1.455 
#    0.000    0.000    0.000    3.273    0.000    0.000 
#    0.000    0.000    0.000    0.000    0.000    0.000 
#
# Total GULP energy -245277.830989 kJ/mol
# GULP energy per Si atom -5574.496159 kJ/mol
# Density = 1.896094 g / cm^3
# Si number density = 19.004195 Si / 1000 Ang^3
#
#
#
# Elastic Constant Matrix: (Units=GPa)
#
#
# Indices 1 2 3 4 5 6 
#
# 1 97.6840 47.4051 50.6796 0.0000 0.0000 0.0000
# 2 47.4051 152.6223 37.0158 0.0000 0.0000 0.0000
# 3 50.6796 37.0158 74.8040 0.0000 0.0000 0.0000
# 4 0.0000 0.0000 0.0000 6.9214 0.0000 0.0000
# 5 0.0000 0.0000 0.0000 0.0000 17.7031 0.0000
# 6 0.0000 0.0000 0.0000 0.0000 0.0000 -2.0186
#
#
#
# Elastic Compliance Matrix: (Units=1/GPa)
#
#
# Indices 1 2 3 4 5 6 
#
# 1 0.016768 -0.002788 -0.009981 0.000000 0.000000 0.000000
# 2 -0.002788 0.007909 -0.002025 0.000000 0.000000 0.000000
# 3 -0.009981 -0.002025 0.021133 0.000000 0.000000 0.000000
# 4 0.000000 0.000000 0.000000 0.144480 0.000000 0.000000
# 5 0.000000 0.000000 0.000000 0.000000 0.056487 0.000000
# 6 0.000000 0.000000 0.000000 0.000000 0.000000 -0.495391
#
#
# Mechanical properties :
#
#
# Convention : Reuss Voigt Hill
#
# Bulk Modulus (GPa) = 61.64342 66.14570 63.89456
# Shear Modulus (GPa) = -23.40622 17.18848 -3.10887
#
# Velocity S-wave (km/s) = -3.51327 3.01068 -1.28040
# Velocity P-wave (km/s) = 4.00621 6.85325 5.61323
#
# Compressibility (1/GPa) = 0.01622233
#
# Stress axis : x y z
#
# Youngs Moduli (GPa) = 59.63707 126.43647 47.32045
#
# Poissons Ratio (x) = 0.35244 0.47230
# Poissons Ratio (y) = 0.16624 0.09583
# Poissons Ratio (z) = 0.59524 0.25606
#
# Static dielectric constant tensor:
#      x y z
#    x 1.656690 0.000000 0.000000 
#    y 0.000000 1.708540 0.000000 
#    z 0.000000 0.000000 1.697450 
# 
# From -- ./inp_files/74235.got.cif
#   From: 2010.05.17/outbox.cif.g08.bks.cpg/sg63_38_cif.got.tgz:74235.got - 2010.06.03 15:47:04.
