data_PCOD9473212
_publ_section_title
;
Structure prediction by ZEFSAII (Michael W. Deem and Ramdas Pophale) SiO2 
 PCOD9473212
Probable space group: C M C M
;
_chemical_formula_sum "Si O2"
_cell_formula_units_Z 96
_cell_length_a 23.518711
_cell_length_b 11.982813
_cell_length_c 17.500950
_cell_angle_alpha 90.000000
_cell_angle_beta 90.000000
_cell_angle_gamma 90.000000
_cell_volume 4932.123258
_symmetry_space_group_name_H-M "C M C M"
_symmetry_group_IT_number 63
_symmetry_cell_setting 'orthorhombic'
loop_
_space_group_symop_operation_xyz
x,y,z
-x,-y,1/2+z
x,-y,-z
-x,y,1/2-z
-x,-y,-z
x,y,1/2-z
-x,y,z
x,-y,1/2+z
1/2+x,1/2+y,z
1/2-x,1/2-y,1/2+z
1/2+x,1/2-y,-z
1/2-x,1/2+y,1/2-z
1/2-x,1/2-y,-z
1/2+x,1/2+y,1/2-z
1/2-x,1/2+y,z
1/2+x,1/2-y,1/2+z
loop_
_atom_site_type_symbol
_atom_site_label
_atom_site_fract_x
_atom_site_fract_y
_atom_site_fract_z
Si Si1 0.865750 0.161483 0.912364
Si Si2 0.733443 0.503192 0.091809
Si Si3 0.567266 0.468770 0.836692
Si Si4 0.565742 0.865377 0.657956
Si Si5 0.350194 0.943073 0.159002
Si Si6 0.145467 0.199121 0.407784
O O1 0.804786 0.107008 0.889335
O O2 0.908203 0.059605 0.894653
O O3 0.892435 0.267286 0.870000
O O4 0.863143 0.188896 0.001665
O O5 0.792446 0.505680 0.135595
O O6 0.696743 0.613363 0.110467
O O7 0.742587 0.500000 0.000000
O O8 0.586406 0.495628 0.750000
O O9 0.500000 0.470060 0.837951
O O10 0.591943 0.350805 0.862521
O O11 0.564421 0.860795 0.750000
O O12 0.500000 0.853399 0.631262
O O13 0.595488 0.982200 0.635919
O O14 0.352314 0.926386 0.250000
O O15 0.346130 0.825099 0.116959
#
# Coordination Sequence:
#
# PCOD9473212 Si02
#       6
#    16  16  16  16  16  16
#     4  10  21  38  63  93 116 157 202 251 309 357
#     4   9  22  40  63  88 121 156 194 253 314 366
#     4  10  20  36  60  88 122 161 199 248 306 359
#     4  10  23  42  61  87 125 166 209 253 301 359
#     4  11  25  40  61  88 119 164 205 249 303 366
#     4  10  23  40  59  90 124 156 199 252 309 364
#
# _framework density 19.464234000000001
#
# number of rings (size 3 to 8) (size 9 to 14) (size 15 to 20)
#    0.000    2.000    0.000    3.000    4.667    9.333 
#    0.000    2.500    0.000    0.000    0.000    0.000 
#    0.000    0.000    0.000    0.000    0.000    0.000 
#
# Total GULP energy -267951.385514 kJ/mol
# GULP energy per Si atom -5582.320532 kJ/mol
# Density = 1.941993 g / cm^3
# Si number density = 19.464234 Si / 1000 Ang^3
#
#
#
# Elastic Constant Matrix: (Units=GPa)
#
#
# Indices 1 2 3 4 5 6 
#
# 1 80.0374 32.6286 30.1848 0.0000 0.0000 0.0000
# 2 32.6286 100.0539 19.1286 0.0000 0.0000 0.0000
# 3 30.1848 19.1286 21.4077 0.0000 0.0000 0.0000
# 4 0.0000 0.0000 0.0000 -7.5628 0.0000 0.0000
# 5 0.0000 0.0000 0.0000 0.0000 64.7012 0.0000
# 6 0.0000 0.0000 0.0000 0.0000 0.0000 17.7528
#
#
#
# Elastic Compliance Matrix: (Units=1/GPa)
#
#
# Indices 1 2 3 4 5 6 
#
# 1 0.026960 -0.001839 -0.036371 0.000000 0.000000 0.000000
# 2 -0.001839 0.012179 -0.008290 0.000000 0.000000 0.000000
# 3 -0.036371 -0.008290 0.105403 0.000000 0.000000 0.000000
# 4 0.000000 0.000000 0.000000 -0.132226 0.000000 0.000000
# 5 0.000000 0.000000 0.000000 0.000000 0.015456 0.000000
# 6 0.000000 0.000000 0.000000 0.000000 0.000000 0.056329
#
#
# Mechanical properties :
#
#
# Convention : Reuss Voigt Hill
#
# Bulk Modulus (GPa) = 19.40146 40.59812 29.99979
# Shear Modulus (GPa) = 25.73571 22.94869 24.34220
#
# Velocity S-wave (km/s) = 3.64016 3.43741 3.54024
# Velocity P-wave (km/s) = 5.25900 6.05454 5.67074
#
# Compressibility (1/GPa) = 0.05154252
#
# Stress axis : x y z
#
# Youngs Moduli (GPa) = 37.09132 82.10775 9.48740
#
# Poissons Ratio (x) = 0.15096 0.34507
# Poissons Ratio (y) = 0.06819 0.07865
# Poissons Ratio (z) = 1.34906 0.68069
#
# Static dielectric constant tensor:
#      x y z
#    x 1.686440 0.000000 0.000000 
#    y 0.000000 1.683740 0.000000 
#    z 0.000000 0.000000 1.664310 
# 
# From -- ./inp_files/48008.got.cif
#   From: 2010.05.17/outbox.cif.g08.bks.cpg/sg63_25_cif.got.tgz:48008.got - 2010.06.03 15:47:04.
