data_PCOD9473693
_publ_section_title
;
Structure prediction by ZEFSAII (Michael W. Deem and Ramdas Pophale) SiO2 
 PCOD9473693
Probable space group: C M C M
;
_chemical_formula_sum "Si O2"
_cell_formula_units_Z 84
_cell_length_a 17.020355
_cell_length_b 13.038339
_cell_length_c 18.285892
_cell_angle_alpha 90.000000
_cell_angle_beta 90.000000
_cell_angle_gamma 90.000000
_cell_volume 4057.953191
_symmetry_space_group_name_H-M "C M C M"
_symmetry_group_IT_number 63
_symmetry_cell_setting 'orthorhombic'
loop_
_space_group_symop_operation_xyz
x,y,z
-x,-y,1/2+z
x,-y,-z
-x,y,1/2-z
-x,-y,-z
x,y,1/2-z
-x,y,z
x,-y,1/2+z
1/2+x,1/2+y,z
1/2-x,1/2-y,1/2+z
1/2+x,1/2-y,-z
1/2-x,1/2+y,1/2-z
1/2-x,1/2-y,-z
1/2+x,1/2+y,1/2-z
1/2-x,1/2+y,z
1/2+x,1/2-y,1/2+z
loop_
_atom_site_type_symbol
_atom_site_label
_atom_site_fract_x
_atom_site_fract_y
_atom_site_fract_z
Si Si1 0.165161 0.580098 0.331516
Si Si2 0.000000 0.328198 0.018295
Si Si3 0.208459 0.190482 0.663899
Si Si4 0.377012 0.732680 0.117050
Si Si5 0.000000 0.468073 0.616546
Si Si6 0.500000 0.764040 0.250000
Si Si7 0.185869 0.988691 0.586358
O O1 0.198386 0.562241 0.250000
O O2 0.162390 0.702386 0.342242
O O3 0.223771 0.533981 0.390951
O O4 0.079255 0.533320 0.337481
O O5 0.922950 0.266726 0.043989
O O6 0.000000 0.431522 0.066816
O O7 0.000000 0.368664 0.936089
O O8 0.220720 0.170479 0.750000
O O9 0.293058 0.212085 0.626560
O O10 0.166331 0.094884 0.626327
O O11 0.431769 0.759897 0.185472
O O12 0.361124 0.610686 0.114325
O O13 0.177560 0.000000 0.500000
#
# Coordination Sequence:
#
# PCOD9473693 Si02
#       7
#    16   8  16  16   8   4  16
#     4  10  23  41  63  92 125 165 207 270 321 383
#     4  10  24  38  61  92 123 166 202 262 317 380
#     4  10  21  39  66  91 122 162 213 261 316 376
#     4  10  22  42  64  92 130 159 214 265 319 379
#     4  11  23  40  65  89 130 161 213 259 331 380
#     4  10  20  42  66  92 118 172 204 262 316 368
#     4  11  25  38  66  95 127 169 211 259 323 384
#
# _framework density 20.700089999999999
#
# number of rings (size 3 to 8) (size 9 to 14) (size 15 to 20)
#    0.000    1.714    0.952    2.000   10.667    1.524 
#    6.857    3.810    0.000    0.000    0.000    0.000 
#    0.000    0.000    0.000    0.000    0.000    0.000 
#
# Total GULP energy -234265.084586 kJ/mol
# GULP energy per Si atom -5577.740109 kJ/mol
# Density = 2.065298 g / cm^3
# Si number density = 20.700090 Si / 1000 Ang^3
#
#
#
# Elastic Constant Matrix: (Units=GPa)
#
#
# Indices 1 2 3 4 5 6 
#
# 1 49.2156 -4.4167 -14.7233 0.0000 0.0000 0.0000
# 2 -4.4167 82.8042 -0.4208 0.0000 0.0000 0.0000
# 3 -14.7233 -0.4208 58.5448 0.0000 0.0000 0.0000
# 4 0.0000 0.0000 0.0000 22.1144 0.0000 0.0000
# 5 0.0000 0.0000 0.0000 0.0000 -0.3946 0.0000
# 6 0.0000 0.0000 0.0000 0.0000 0.0000 8.5030
#
#
#
# Elastic Compliance Matrix: (Units=1/GPa)
#
#
# Indices 1 2 3 4 5 6 
#
# 1 0.022092 0.001207 0.005564 0.000000 0.000000 0.000000
# 2 0.001207 0.012143 0.000391 0.000000 0.000000 0.000000
# 3 0.005564 0.000391 0.018483 0.000000 0.000000 0.000000
# 4 0.000000 0.000000 0.000000 0.045219 0.000000 0.000000
# 5 0.000000 0.000000 0.000000 0.000000 -2.534494 0.000000
# 6 0.000000 0.000000 0.000000 0.000000 0.000000 0.117606
#
#
# Mechanical properties :
#
#
# Convention : Reuss Voigt Hill
#
# Bulk Modulus (GPa) = 14.91614 16.82701 15.87157
# Shear Modulus (GPa) = -2.16363 20.05291 8.94464
#
# Velocity S-wave (km/s) = -1.02347 3.11583 2.08097
# Velocity P-wave (km/s) = 2.41346 4.59251 3.66851
#
# Compressibility (1/GPa) = 0.06704150
#
# Stress axis : x y z
#
# Youngs Moduli (GPa) = 45.26586 82.35181 54.10334
#
# Poissons Ratio (x) = -0.09937 -0.30106
# Poissons Ratio (y) = -0.05462 -0.02114
# Poissons Ratio (z) = -0.25188 -0.03218
#
# Static dielectric constant tensor:
#      x y z
#    x 1.721430 0.000000 0.000000 
#    y 0.000000 1.763480 0.000000 
#    z 0.000000 0.000000 1.724810 
# 
# From -- ./inp_files/55346.got.cif
#   From: 2010.05.17/outbox.cif.g08.bks.cpg/sg63_28_cif.got.tgz:55346.got - 2010.06.03 15:47:04.
