data_PCOD9473254
_publ_section_title
;
Structure prediction by ZEFSAII (Michael W. Deem and Ramdas Pophale) SiO2 
 PCOD9473254
Probable space group: C M C M
;
_chemical_formula_sum "Si O2"
_cell_formula_units_Z 76
_cell_length_a 24.938498
_cell_length_b 15.445750
_cell_length_c 9.492349
_cell_angle_alpha 90.000000
_cell_angle_beta 90.000000
_cell_angle_gamma 90.000000
_cell_volume 3656.394034
_symmetry_space_group_name_H-M "C M C M"
_symmetry_group_IT_number 63
_symmetry_cell_setting 'orthorhombic'
loop_
_space_group_symop_operation_xyz
x,y,z
-x,-y,1/2+z
x,-y,-z
-x,y,1/2-z
-x,-y,-z
x,y,1/2-z
-x,y,z
x,-y,1/2+z
1/2+x,1/2+y,z
1/2-x,1/2-y,1/2+z
1/2+x,1/2-y,-z
1/2-x,1/2+y,1/2-z
1/2-x,1/2-y,-z
1/2+x,1/2+y,1/2-z
1/2-x,1/2+y,z
1/2+x,1/2-y,1/2+z
loop_
_atom_site_type_symbol
_atom_site_label
_atom_site_fract_x
_atom_site_fract_y
_atom_site_fract_z
Si Si1 0.206527 0.500000 0.000000
Si Si2 0.902800 0.771634 0.539440
Si Si3 0.191866 0.377111 0.750000
Si Si4 0.743435 0.606715 0.750000
Si Si5 0.500000 0.307439 0.750000
Si Si6 0.805607 0.211479 0.250000
Si Si7 0.633111 0.310427 0.250000
Si Si8 0.935351 0.589507 0.419130
O O1 0.178919 0.432807 0.890378
O O2 0.239892 0.557072 0.890658
O O3 0.846152 0.790240 0.617215
O O4 0.901363 0.816466 0.388905
O O5 0.910480 0.669634 0.505517
O O6 0.952525 0.801965 0.630141
O O7 0.256589 0.357269 0.750000
O O8 0.162807 0.284239 0.750000
O O9 0.775632 0.696638 0.750000
O O10 0.680758 0.622163 0.750000
O O11 0.923492 0.500000 0.500000
O O12 0.923614 0.587940 0.250000
O O13 0.000000 0.601263 0.427647
#
# Coordination Sequence:
#
# PCOD9473254 Si02
#       8
#     8  16   8   8   4   8   8  16
#     4  10  20  36  62  82 118 152 192 238 298 320
#     4  11  21  37  55  82 108 160 192 246 274 343
#     4  10  21  40  57  88 118 154 191 247 279 360
#     4  10  21  40  57  85 119 153 186 246 278 359
#     4  10  24  36  56  76 120 138 190 248 286 318
#     4  10  22  37  58  81 123 160 193 225 310 340
#     4  11  22  38  61  82 117 155 197 228 306 339
#     4  10  21  35  52  71 106 154 195 242 290 325
#
# _framework density 20.785506000000002
#
# number of rings (size 3 to 8) (size 9 to 14) (size 15 to 20)
#    0.000    1.684    2.105    2.526    2.947    3.789 
#   11.368    0.000    0.000    0.000    0.000    0.000 
#    0.000  190.316    0.000    0.000    0.000    0.000 
#
# Total GULP energy -211835.341983 kJ/mol
# GULP energy per Si atom -5574.614263 kJ/mol
# Density = 2.073820 g / cm^3
# Si number density = 20.785506 Si / 1000 Ang^3
#
#
#
# Elastic Constant Matrix: (Units=GPa)
#
#
# Indices 1 2 3 4 5 6 
#
# 1 118.7476 5.6238 57.1847 0.0000 0.0000 0.0000
# 2 5.6238 20.0096 13.0120 0.0000 0.0000 0.0000
# 3 57.1847 13.0120 179.1750 0.0000 0.0000 0.0000
# 4 0.0000 0.0000 0.0000 13.0719 0.0000 0.0000
# 5 0.0000 0.0000 0.0000 0.0000 11.0160 0.0000
# 6 0.0000 0.0000 0.0000 0.0000 0.0000 17.7060
#
#
#
# Elastic Compliance Matrix: (Units=1/GPa)
#
#
# Indices 1 2 3 4 5 6 
#
# 1 0.009962 -0.000769 -0.003124 0.000000 0.000000 0.000000
# 2 -0.000769 0.052512 -0.003568 0.000000 0.000000 0.000000
# 3 -0.003124 -0.003568 0.006837 0.000000 0.000000 0.000000
# 4 0.000000 0.000000 0.000000 0.076500 0.000000 0.000000
# 5 0.000000 0.000000 0.000000 0.000000 0.090777 0.000000
# 6 0.000000 0.000000 0.000000 0.000000 0.000000 0.056478
#
#
# Mechanical properties :
#
#
# Convention : Reuss Voigt Hill
#
# Bulk Modulus (GPa) = 18.38552 52.17480 35.28016
# Shear Modulus (GPa) = 15.33190 24.49957 19.91573
#
# Velocity S-wave (km/s) = 2.71887 3.43692 3.09877
# Velocity P-wave (km/s) = 4.32677 6.39578 5.46017
#
# Compressibility (1/GPa) = 0.05439063
#
# Stress axis : x y z
#
# Youngs Moduli (GPa) = 100.38324 19.04311 146.25942
#
# Poissons Ratio (x) = 0.01464 0.45685
# Poissons Ratio (y) = 0.07715 0.52189
# Poissons Ratio (z) = 0.31355 0.06795
#
# Static dielectric constant tensor:
#      x y z
#    x 1.785390 0.000000 0.000000 
#    y 0.000000 1.743250 0.000000 
#    z 0.000000 0.000000 1.731300 
# 
# From -- ./inp_files/12166.got.cif
#   From: 2010.05.17/outbox.cif.g08.bks.cpg/sg63_7_cif.got.tgz:12166.got - 2010.06.03 15:47:04.
