data_PCOD9473724
_publ_section_title
;
Structure prediction by ZEFSAII (Michael W. Deem and Ramdas Pophale) SiO2 
 PCOD9473724
Probable space group: C M C M
;
_chemical_formula_sum "Si O2"
_cell_formula_units_Z 104
_cell_length_a 24.953399
_cell_length_b 9.907521
_cell_length_c 23.498517
_cell_angle_alpha 90.000000
_cell_angle_beta 90.000000
_cell_angle_gamma 90.000000
_cell_volume 5809.451992
_symmetry_space_group_name_H-M "C M C M"
_symmetry_group_IT_number 63
_symmetry_cell_setting 'orthorhombic'
loop_
_space_group_symop_operation_xyz
x,y,z
-x,-y,1/2+z
x,-y,-z
-x,y,1/2-z
-x,-y,-z
x,y,1/2-z
-x,y,z
x,-y,1/2+z
1/2+x,1/2+y,z
1/2-x,1/2-y,1/2+z
1/2+x,1/2-y,-z
1/2-x,1/2+y,1/2-z
1/2-x,1/2-y,-z
1/2+x,1/2+y,1/2-z
1/2-x,1/2+y,z
1/2+x,1/2-y,1/2+z
loop_
_atom_site_type_symbol
_atom_site_label
_atom_site_fract_x
_atom_site_fract_y
_atom_site_fract_z
Si Si1 0.677073 0.354668 0.750000
Si Si2 0.936786 0.771787 0.134975
Si Si3 0.724777 0.249726 0.436425
Si Si4 0.350630 0.043599 0.374593
Si Si5 0.664322 0.253835 0.626405
Si Si6 0.804318 0.391838 0.750000
Si Si7 0.119914 0.140440 0.750000
Si Si8 0.867544 0.029094 0.565883
O O1 0.663232 0.273313 0.693621
O O2 0.740218 0.390066 0.750000
O O3 0.642900 0.491186 0.750000
O O4 0.904012 0.633676 0.125447
O O5 0.915511 0.827836 0.195116
O O6 0.915755 0.881706 0.090035
O O7 0.000000 0.753854 0.134013
O O8 0.750000 0.250000 0.500000
O O9 0.690272 0.118168 0.418214
O O10 0.774225 0.255758 0.393600
O O11 0.685767 0.377880 0.427906
O O12 0.325554 0.047715 0.310225
O O13 0.360889 0.889037 0.390614
O O14 0.639970 0.387685 0.598068
O O15 0.829245 0.241247 0.750000
O O16 0.874553 0.000000 0.500000
#
# Coordination Sequence:
#
# PCOD9473724 Si02
#       8
#     8  16  16  16  16   8   8  16
#     4  12  23  33  57  91 133 154 186 244 304 359
#     4  10  22  44  66  82 110 156 212 266 311 362
#     4  11  22  37  56  86 128 171 202 230 285 370
#     4  10  23  37  57  89 118 159 208 243 306 362
#     4  12  23  36  58  89 132 160 192 248 304 368
#     4  10  21  33  54  85 126 163 192 231 295 373
#     4  10  21  38  61  90 117 159 207 243 299 380
#     4  11  23  40  59  92 122 159 211 249 299 368
#
# _framework density 17.901859000000002
#
# number of rings (size 3 to 8) (size 9 to 14) (size 15 to 20)
#    0.000    1.231    4.615    1.615    2.154    0.308 
#    0.000    0.769    0.000    0.923    0.000    0.000 
#    0.000    0.000    0.000    0.000    0.000    0.000 
#
# Total GULP energy -290480.991196 kJ/mol
# GULP energy per Si atom -5586.172908 kJ/mol
# Density = 1.786111 g / cm^3
# Si number density = 17.901859 Si / 1000 Ang^3
#
#
#
# Elastic Constant Matrix: (Units=GPa)
#
#
# Indices 1 2 3 4 5 6 
#
# 1 118.9416 57.7137 24.2364 0.0000 0.0000 0.0000
# 2 57.7137 158.5665 44.4172 0.0000 0.0000 0.0000
# 3 24.2364 44.4172 99.5057 0.0000 0.0000 0.0000
# 4 0.0000 0.0000 0.0000 32.8219 0.0000 0.0000
# 5 0.0000 0.0000 0.0000 0.0000 23.8361 0.0000
# 6 0.0000 0.0000 0.0000 0.0000 0.0000 7.5040
#
#
#
# Elastic Compliance Matrix: (Units=1/GPa)
#
#
# Indices 1 2 3 4 5 6 
#
# 1 0.010289 -0.003478 -0.000954 0.000000 0.000000 0.000000
# 2 -0.003478 0.008383 -0.002895 0.000000 0.000000 0.000000
# 3 -0.000954 -0.002895 0.011574 0.000000 0.000000 0.000000
# 4 0.000000 0.000000 0.000000 0.030467 0.000000 0.000000
# 5 0.000000 0.000000 0.000000 0.000000 0.041953 0.000000
# 6 0.000000 0.000000 0.000000 0.000000 0.000000 0.133262
#
#
# Mechanical properties :
#
#
# Convention : Reuss Voigt Hill
#
# Bulk Modulus (GPa) = 64.12855 69.97207 67.05031
# Shear Modulus (GPa) = 19.54802 29.54217 24.54510
#
# Velocity S-wave (km/s) = 3.30806 4.06671 3.70684
# Velocity P-wave (km/s) = 7.10571 7.82446 7.47373
#
# Compressibility (1/GPa) = 0.01559368
#
# Stress axis : x y z
#
# Youngs Moduli (GPa) = 97.18747 119.28479 86.39879
#
# Poissons Ratio (x) = 0.41486 0.08240
# Poissons Ratio (y) = 0.33801 0.25013
# Poissons Ratio (z) = 0.09269 0.34533
#
# Static dielectric constant tensor:
#      x y z
#    x 1.573420 0.000000 0.000000 
#    y 0.000000 1.623340 0.000000 
#    z 0.000000 0.000000 1.611870 
# 
# From -- ./inp_files/65459.got.cif
#   From: 2010.05.17/outbox.cif.g08.bks.cpg/sg63_33_cif.got.tgz:65459.got - 2010.06.03 15:47:04.
