data_PCOD9473047
_publ_section_title
;
Structure prediction by ZEFSAII (Michael W. Deem and Ramdas Pophale) SiO2 
 PCOD9473047
Probable space group: C M C M
;
_chemical_formula_sum "Si O2"
_cell_formula_units_Z 96
_cell_length_a 25.086127
_cell_length_b 18.229054
_cell_length_c 10.967670
_cell_angle_alpha 90.000000
_cell_angle_beta 90.000000
_cell_angle_gamma 90.000000
_cell_volume 5015.475610
_symmetry_space_group_name_H-M "C M C M"
_symmetry_group_IT_number 63
_symmetry_cell_setting 'orthorhombic'
loop_
_space_group_symop_operation_xyz
x,y,z
-x,-y,1/2+z
x,-y,-z
-x,y,1/2-z
-x,-y,-z
x,y,1/2-z
-x,y,z
x,-y,1/2+z
1/2+x,1/2+y,z
1/2-x,1/2-y,1/2+z
1/2+x,1/2-y,-z
1/2-x,1/2+y,1/2-z
1/2-x,1/2-y,-z
1/2+x,1/2+y,1/2-z
1/2-x,1/2+y,z
1/2+x,1/2-y,1/2+z
loop_
_atom_site_type_symbol
_atom_site_label
_atom_site_fract_x
_atom_site_fract_y
_atom_site_fract_z
Si Si1 0.868252 0.348292 0.115932
Si Si2 0.733305 0.953457 0.377805
Si Si3 0.212301 0.780097 0.610972
Si Si4 0.059252 0.838684 0.392395
Si Si5 0.937903 0.661607 0.113575
Si Si6 0.834748 0.087091 0.514615
O O1 0.894666 0.353271 0.250000
O O2 0.817019 0.400661 0.117413
O O3 0.841560 0.268288 0.103317
O O4 0.904661 0.366646 0.000876
O O5 0.730973 0.995848 0.250000
O O6 0.788887 0.909458 0.382364
O O7 0.732281 0.000000 0.500000
O O8 0.233918 0.770732 0.750000
O O9 0.250000 0.750000 0.500000
O O10 0.194250 0.864250 0.589510
O O11 0.060798 0.859929 0.250000
O O12 0.063950 0.750349 0.395218
O O13 0.109180 0.875926 0.456196
O O14 0.000000 0.857650 0.440844
O O15 0.918330 0.641197 0.250000
O O16 0.000000 0.640358 0.105253
O O17 0.843818 0.000000 0.500000
#
# Coordination Sequence:
#
# PCOD9473047 Si02
#       6
#    16  16  16  16  16  16
#     4  10  20  36  57  83 114 147 189 234 286 347
#     4  10  22  38  56  83 115 150 189 234 290 353
#     4  11  23  39  57  83 117 152 194 242 290 346
#     4   9  18  33  53  76 105 146 194 237 276 324
#     4   9  18  33  56  86 113 144 191 236 279 336
#     4  11  22  36  56  81 115 153 191 238 288 341
#
# _framework density 19.140758000000002
#
# number of rings (size 3 to 8) (size 9 to 14) (size 15 to 20)
#    0.000    2.000    3.333    1.500    0.000    6.000 
#    0.000    0.000    0.000    1.000    0.000    0.000 
#    0.000    0.000    0.000    0.000    0.000    0.000 
#
# Total GULP energy -267219.078757 kJ/mol
# GULP energy per Si atom -5567.064141 kJ/mol
# Density = 1.909719 g / cm^3
# Si number density = 19.140758 Si / 1000 Ang^3
#
#
#
# Elastic Constant Matrix: (Units=GPa)
#
#
# Indices 1 2 3 4 5 6 
#
# 1 100.0067 14.4669 69.5388 0.0000 0.0000 0.0000
# 2 14.4669 31.1259 20.2403 0.0000 0.0000 0.0000
# 3 69.5388 20.2403 158.6509 0.0000 0.0000 0.0000
# 4 0.0000 0.0000 0.0000 19.8518 0.0000 0.0000
# 5 0.0000 0.0000 0.0000 0.0000 -65.7794 0.0000
# 6 0.0000 0.0000 0.0000 0.0000 0.0000 22.2213
#
#
#
# Elastic Compliance Matrix: (Units=1/GPa)
#
#
# Indices 1 2 3 4 5 6 
#
# 1 0.014613 -0.002865 -0.006040 0.000000 0.000000 0.000000
# 2 -0.002865 0.035595 -0.003286 0.000000 0.000000 0.000000
# 3 -0.006040 -0.003286 0.009370 0.000000 0.000000 0.000000
# 4 0.000000 0.000000 0.000000 0.050373 0.000000 0.000000
# 5 0.000000 0.000000 0.000000 0.000000 -0.015202 0.000000
# 6 0.000000 0.000000 0.000000 0.000000 0.000000 0.045002
#
#
# Mechanical properties :
#
#
# Convention : Reuss Voigt Hill
#
# Bulk Modulus (GPa) = 28.41024 55.36395 41.88709
# Shear Modulus (GPa) = 28.43099 7.62790 18.02945
#
# Velocity S-wave (km/s) = 3.85822 1.99845 3.07243
# Velocity P-wave (km/s) = 5.89261 5.85769 5.87518
#
# Compressibility (1/GPa) = 0.03519857
#
# Stress axis : x y z
#
# Youngs Moduli (GPa) = 68.43002 28.09344 106.72761
#
# Poissons Ratio (x) = 0.08048 0.64462
# Poissons Ratio (y) = 0.19603 0.35066
# Poissons Ratio (z) = 0.41330 0.09230
#
# Static dielectric constant tensor:
#      x y z
#    x 1.667360 0.000000 0.000000 
#    y 0.000000 1.704230 0.000000 
#    z 0.000000 0.000000 1.712970 
# 
# From -- ./inp_files/12379.got.cif
#   From: 2010.05.17/outbox.cif.g08.bks.cpg/sg63_7_cif.got.tgz:12379.got - 2010.06.03 15:47:04.
