data_PCOD9473345
_publ_section_title
;
Structure prediction by ZEFSAII (Michael W. Deem and Ramdas Pophale) SiO2 
 PCOD9473345
Probable space group: C M C M
;
_chemical_formula_sum "Si O2"
_cell_formula_units_Z 116
_cell_length_a 18.310657
_cell_length_b 13.313723
_cell_length_c 25.441162
_cell_angle_alpha 90.000000
_cell_angle_beta 90.000000
_cell_angle_gamma 90.000000
_cell_volume 6202.123184
_symmetry_space_group_name_H-M "C M C M"
_symmetry_group_IT_number 63
_symmetry_cell_setting 'orthorhombic'
loop_
_space_group_symop_operation_xyz
x,y,z
-x,-y,1/2+z
x,-y,-z
-x,y,1/2-z
-x,-y,-z
x,y,1/2-z
-x,y,z
x,-y,1/2+z
1/2+x,1/2+y,z
1/2-x,1/2-y,1/2+z
1/2+x,1/2-y,-z
1/2-x,1/2+y,1/2-z
1/2-x,1/2-y,-z
1/2+x,1/2+y,1/2-z
1/2-x,1/2+y,z
1/2+x,1/2-y,1/2+z
loop_
_atom_site_type_symbol
_atom_site_label
_atom_site_fract_x
_atom_site_fract_y
_atom_site_fract_z
Si Si1 0.829265 0.316391 0.117149
Si Si2 0.080233 0.304815 0.656658
Si Si3 0.330714 0.618673 0.188429
Si Si4 0.583731 0.512074 0.100227
Si Si5 0.325658 0.008802 0.309981
Si Si6 0.916698 0.785566 0.967782
Si Si7 0.170082 0.813714 0.428493
Si Si8 0.500000 0.287220 0.250000
O O1 0.824820 0.225475 0.159180
O O2 0.834584 0.419664 0.148681
O O3 0.895646 0.292398 0.077927
O O4 0.755922 0.315170 0.082097
O O5 0.114266 0.405075 0.681069
O O6 0.134247 0.259493 0.614423
O O7 0.062721 0.226521 0.703518
O O8 0.000000 0.326724 0.633234
O O9 0.347831 0.629518 0.250000
O O10 0.390437 0.554623 0.156399
O O11 0.253472 0.561042 0.183631
O O12 0.500000 0.476375 0.102026
O O13 0.588267 0.604728 0.059556
O O14 0.636174 0.423312 0.082315
O O15 0.330750 0.971064 0.250000
O O16 0.000000 0.772449 0.986485
O O17 0.858864 0.780866 0.014720
#
# Coordination Sequence:
#
# PCOD9473345 Si02
#       8
#    16  16  16  16  16  16  16   4
#     4  11  23  38  62  91 116 157 201 244 295 358
#     4  10  20  37  59  85 121 152 200 240 294 349
#     4  10  21  38  57  85 122 155 191 241 293 349
#     4  10  21  39  60  87 118 157 202 245 297 358
#     4  11  20  38  60  85 122 158 193 233 292 358
#     4  10  23  42  62  83 120 158 203 254 296 348
#     4  12  21  38  62  92 117 158 197 249 305 361
#     4   8  20  40  52  92 116 166 194 244 292 356
#
# _framework density 18.703271999999998
#
# number of rings (size 3 to 8) (size 9 to 14) (size 15 to 20)
#    0.414    1.103    3.448    2.483    0.000    1.931 
#    2.483    0.690    0.000    4.138    0.000    0.000 
#    0.000    0.000    0.000    0.000    0.000    0.000 
#
# Total GULP energy -323218.909301 kJ/mol
# GULP energy per Si atom -5572.739816 kJ/mol
# Density = 1.866070 g / cm^3
# Si number density = 18.703272 Si / 1000 Ang^3
#
#
#
# Elastic Constant Matrix: (Units=GPa)
#
#
# Indices 1 2 3 4 5 6 
#
# 1 39.4678 -7.7262 5.6819 0.0000 0.0000 0.0000
# 2 -7.7262 15.8670 17.7848 0.0000 0.0000 0.0000
# 3 5.6819 17.7848 71.8007 0.0000 0.0000 0.0000
# 4 0.0000 0.0000 0.0000 23.2975 0.0000 0.0000
# 5 0.0000 0.0000 0.0000 0.0000 24.2052 0.0000
# 6 0.0000 0.0000 0.0000 0.0000 0.0000 9.8316
#
#
#
# Elastic Compliance Matrix: (Units=1/GPa)
#
#
# Indices 1 2 3 4 5 6 
#
# 1 0.031506 0.025107 -0.008712 0.000000 0.000000 0.000000
# 2 0.025107 0.107254 -0.028553 0.000000 0.000000 0.000000
# 3 -0.008712 -0.028553 0.021689 0.000000 0.000000 0.000000
# 4 0.000000 0.000000 0.000000 0.042923 0.000000 0.000000
# 5 0.000000 0.000000 0.000000 0.000000 0.041313 0.000000
# 6 0.000000 0.000000 0.000000 0.000000 0.000000 0.101713
#
#
# Mechanical properties :
#
#
# Convention : Reuss Voigt Hill
#
# Bulk Modulus (GPa) = 7.34580 17.62406 12.48493
# Shear Modulus (GPa) = 12.01653 18.89319 15.45486
#
# Velocity S-wave (km/s) = 2.53747 3.18174 2.87769
# Velocity P-wave (km/s) = 3.53852 4.78972 4.21085
#
# Compressibility (1/GPa) = 0.13613214
#
# Stress axis : x y z
#
# Youngs Moduli (GPa) = 31.73975 9.32367 46.10542
#
# Poissons Ratio (x) = -0.23409 0.40167
# Poissons Ratio (y) = -0.79688 1.31646
# Poissons Ratio (z) = 0.27652 0.26622
#
# Static dielectric constant tensor:
#      x y z
#    x 1.641440 0.000000 0.000000 
#    y 0.000000 1.630700 0.000000 
#    z 0.000000 0.000000 1.637730 
# 
# From -- ./inp_files/70014.got.cif
#   From: 2010.05.17/outbox.cif.g08.bks.cpg/sg63_36_cif.got.tgz:70014.got - 2010.06.03 15:47:04.
