data_PCOD9473353
_publ_section_title
;
Structure prediction by ZEFSAII (Michael W. Deem and Ramdas Pophale) SiO2 
 PCOD9473353
Probable space group: C M C M
;
_chemical_formula_sum "Si O2"
_cell_formula_units_Z 80
_cell_length_a 7.697148
_cell_length_b 21.000534
_cell_length_c 23.235719
_cell_angle_alpha 90.000000
_cell_angle_beta 90.000000
_cell_angle_gamma 90.000000
_cell_volume 3755.919634
_symmetry_space_group_name_H-M "C M C M"
_symmetry_group_IT_number 63
_symmetry_cell_setting 'orthorhombic'
loop_
_space_group_symop_operation_xyz
x,y,z
-x,-y,1/2+z
x,-y,-z
-x,y,1/2-z
-x,-y,-z
x,y,1/2-z
-x,y,z
x,-y,1/2+z
1/2+x,1/2+y,z
1/2-x,1/2-y,1/2+z
1/2+x,1/2-y,-z
1/2-x,1/2+y,1/2-z
1/2-x,1/2-y,-z
1/2+x,1/2+y,1/2-z
1/2-x,1/2+y,z
1/2+x,1/2-y,1/2+z
loop_
_atom_site_type_symbol
_atom_site_label
_atom_site_fract_x
_atom_site_fract_y
_atom_site_fract_z
Si Si1 0.706088 0.734179 0.122998
Si Si2 0.286319 0.056045 0.250000
Si Si3 0.711422 0.865708 0.430473
Si Si4 0.797935 0.488292 0.365267
Si Si5 0.292298 0.203109 0.250000
Si Si6 0.705564 0.606834 0.062503
O O1 0.500000 0.732704 0.111747
O O2 0.774193 0.796877 0.091119
O O3 0.733482 0.736003 0.191221
O O4 0.776523 0.667622 0.098006
O O5 0.500000 0.057688 0.250000
O O6 0.225408 0.019748 0.307239
O O7 0.229191 0.129619 0.250000
O O8 0.500000 0.865851 0.429039
O O9 0.764704 0.880308 0.495538
O O10 0.776107 0.922392 0.389126
O O11 0.786956 0.541757 0.414656
O O12 0.000000 0.475684 0.352624
O O13 0.500000 0.201951 0.250000
O O14 0.500000 0.601003 0.073268
#
# Coordination Sequence:
#
# PCOD9473353 Si02
#       6
#    16   8  16  16   8  16
#     4  10  22  39  58  84 115 149 187 230 281 333
#     4   9  18  34  57  83 107 136 182 231 273 323
#     4  10  22  38  58  83 113 150 190 232 278 330
#     4  10  20  37  60  84 110 145 190 234 276 329
#     4  11  21  36  61  87 111 144 186 233 279 333
#     4  11  22  36  57  83 116 152 186 230 281 334
#
# _framework density 21.299710999999999
#
# number of rings (size 3 to 8) (size 9 to 14) (size 15 to 20)
#    0.000    1.800    2.000    2.100    0.000    5.600 
#    0.000    3.500    0.000    0.000    0.000    0.000 
#    0.000    0.000    0.000    0.000    0.000    0.000 
#
# Total GULP energy -223548.922680 kJ/mol
# GULP energy per Si atom -5588.723067 kJ/mol
# Density = 2.125123 g / cm^3
# Si number density = 21.299711 Si / 1000 Ang^3
#
#
#
# Elastic Constant Matrix: (Units=GPa)
#
#
# Indices 1 2 3 4 5 6 
#
# 1 33.7583 -1.5958 -17.3626 0.0000 0.0000 0.0000
# 2 -1.5958 60.1564 -16.6608 0.0000 0.0000 0.0000
# 3 -17.3626 -16.6608 67.4584 0.0000 0.0000 0.0000
# 4 0.0000 0.0000 0.0000 115.4814 0.0000 0.0000
# 5 0.0000 0.0000 0.0000 0.0000 22.3722 0.0000
# 6 0.0000 0.0000 0.0000 0.0000 0.0000 7.5234
#
#
#
# Elastic Compliance Matrix: (Units=1/GPa)
#
#
# Indices 1 2 3 4 5 6 
#
# 1 0.034878 0.003662 0.009881 0.000000 0.000000 0.000000
# 2 0.003662 0.018228 0.005445 0.000000 0.000000 0.000000
# 3 0.009881 0.005445 0.018712 0.000000 0.000000 0.000000
# 4 0.000000 0.000000 0.000000 0.008659 0.000000 0.000000
# 5 0.000000 0.000000 0.000000 0.000000 0.044698 0.000000
# 6 0.000000 0.000000 0.000000 0.000000 0.000000 0.132918
#
#
# Mechanical properties :
#
#
# Convention : Reuss Voigt Hill
#
# Bulk Modulus (GPa) = 9.10800 10.01495 9.56147
# Shear Modulus (GPa) = 19.47678 42.20823 30.84250
#
# Velocity S-wave (km/s) = 3.02721 4.45638 3.80942
# Velocity P-wave (km/s) = 4.06252 5.58491 4.88341
#
# Compressibility (1/GPa) = 0.10979364
#
# Stress axis : x y z
#
# Youngs Moduli (GPa) = 28.67164 54.85950 53.44184
#
# Poissons Ratio (x) = -0.20089 -0.52808
# Poissons Ratio (y) = -0.10499 -0.29097
# Poissons Ratio (z) = -0.28331 -0.29869
#
# Static dielectric constant tensor:
#      x y z
#    x 1.802280 0.000000 0.000000 
#    y 0.000000 1.759240 0.000000 
#    z 0.000000 0.000000 1.732560 
# 
# From -- ./inp_files/59529.got.cif
#   From: 2010.05.17/outbox.cif.g08.bks.cpg/sg63_30_cif.got.tgz:59529.got - 2010.06.03 15:47:04.
