data_PCOD9473479
_publ_section_title
;
Structure prediction by ZEFSAII (Michael W. Deem and Ramdas Pophale) SiO2 
 PCOD9473479
Probable space group: C M C M
;
_chemical_formula_sum "Si O2"
_cell_formula_units_Z 112
_cell_length_a 28.274547
_cell_length_b 12.240098
_cell_length_c 15.482922
_cell_angle_alpha 90.000000
_cell_angle_beta 90.000000
_cell_angle_gamma 90.000000
_cell_volume 5358.379597
_symmetry_space_group_name_H-M "C M C M"
_symmetry_group_IT_number 63
_symmetry_cell_setting 'orthorhombic'
loop_
_space_group_symop_operation_xyz
x,y,z
-x,-y,1/2+z
x,-y,-z
-x,y,1/2-z
-x,-y,-z
x,y,1/2-z
-x,y,z
x,-y,1/2+z
1/2+x,1/2+y,z
1/2-x,1/2-y,1/2+z
1/2+x,1/2-y,-z
1/2-x,1/2+y,1/2-z
1/2-x,1/2-y,-z
1/2+x,1/2+y,1/2-z
1/2-x,1/2+y,z
1/2+x,1/2-y,1/2+z
loop_
_atom_site_type_symbol
_atom_site_label
_atom_site_fract_x
_atom_site_fract_y
_atom_site_fract_z
Si Si1 0.191759 0.185105 0.149651
Si Si2 0.641800 0.954540 0.909738
Si Si3 0.845256 0.962880 0.400814
Si Si4 0.052656 0.319585 0.522074
Si Si5 0.948363 0.929287 0.087832
Si Si6 0.205589 0.743213 0.147179
Si Si7 0.896111 0.678389 0.848986
O O1 0.191600 0.217631 0.250000
O O2 0.241034 0.227932 0.112807
O O3 0.144059 0.239366 0.114269
O O4 0.186245 0.055324 0.143888
O O5 0.676987 0.868152 0.868484
O O6 0.627744 0.058759 0.853051
O O7 0.593401 0.892471 0.935660
O O8 0.662334 0.000000 0.000000
O O9 0.899258 0.959930 0.365880
O O10 0.821589 0.844928 0.393998
O O11 0.847820 0.000000 0.500000
O O12 0.055799 0.197197 0.559597
O O13 0.062482 0.317809 0.419334
O O14 0.000000 0.361668 0.539824
O O15 0.000000 0.944621 0.131020
O O16 0.949746 0.000000 0.000000
O O17 0.207273 0.763130 0.250000
O O18 0.909092 0.704840 0.750000
#
# Coordination Sequence:
#
# PCOD9473479 Si02
#       7
#    16  16  16  16  16  16  16
#     4  10  24  41  60  86 123 164 201 247 309 366
#     4  10  22  38  61  87 117 157 201 253 303 360
#     4  11  22  38  64  93 125 158 206 259 306 363
#     4  10  20  38  60  87 119 152 197 247 304 365
#     4   9  17  32  59  89 118 154 195 243 303 362
#     4  11  24  42  62  87 123 168 206 247 312 373
#     4  10  21  38  58  84 120 156 198 247 296 360
#
# _framework density 20.901841000000001
#
# number of rings (size 3 to 8) (size 9 to 14) (size 15 to 20)
#    0.000    1.857    1.429    2.571    4.000    4.000 
#    0.000    0.000    0.000    4.714    0.000    0.000 
#    0.000    0.000    0.000    0.000    0.000    0.000 
#
# Total GULP energy -312700.993627 kJ/mol
# GULP energy per Si atom -5583.946315 kJ/mol
# Density = 2.085427 g / cm^3
# Si number density = 20.901841 Si / 1000 Ang^3
#
#
#
# Elastic Constant Matrix: (Units=GPa)
#
#
# Indices 1 2 3 4 5 6 
#
# 1 78.2406 10.9312 2.9764 0.0000 0.0000 0.0000
# 2 10.9312 75.5271 -10.8121 0.0000 0.0000 0.0000
# 3 2.9764 -10.8121 42.0620 0.0000 0.0000 0.0000
# 4 0.0000 0.0000 0.0000 18.7094 0.0000 0.0000
# 5 0.0000 0.0000 0.0000 0.0000 6.9809 0.0000
# 6 0.0000 0.0000 0.0000 0.0000 0.0000 12.1469
#
#
#
# Elastic Compliance Matrix: (Units=1/GPa)
#
#
# Indices 1 2 3 4 5 6 
#
# 1 0.013132 -0.002111 -0.001472 0.000000 0.000000 0.000000
# 2 -0.002111 0.014086 0.003770 0.000000 0.000000 0.000000
# 3 -0.001472 0.003770 0.024848 0.000000 0.000000 0.000000
# 4 0.000000 0.000000 0.000000 0.053449 0.000000 0.000000
# 5 0.000000 0.000000 0.000000 0.000000 0.143248 0.000000
# 6 0.000000 0.000000 0.000000 0.000000 0.000000 0.082326
#
#
# Mechanical properties :
#
#
# Convention : Reuss Voigt Hill
#
# Bulk Modulus (GPa) = 19.06983 22.44675 20.75829
# Shear Modulus (GPa) = 14.35982 20.41639 17.38811
#
# Velocity S-wave (km/s) = 2.62394 3.12873 2.88739
# Velocity P-wave (km/s) = 4.28058 4.88000 4.59008
#
# Compressibility (1/GPa) = 0.05243887
#
# Stress axis : x y z
#
# Youngs Moduli (GPa) = 76.14947 70.99469 40.24520
#
# Poissons Ratio (x) = 0.14989 0.05924
# Poissons Ratio (y) = 0.16078 -0.15173
# Poissons Ratio (z) = 0.11209 -0.26766
#
# Static dielectric constant tensor:
#      x y z
#    x 1.773670 0.000000 0.000000 
#    y 0.000000 1.741730 0.000000 
#    z 0.000000 0.000000 1.408760 
# 
# From -- ./inp_files/38498.got.cif
#   From: 2010.05.17/outbox.cif.g08.bks.cpg/sg63_20_cif.got.tgz:38498.got - 2010.06.03 15:47:04.
