data_PCOD9473180
_publ_section_title
;
Structure prediction by ZEFSAII (Michael W. Deem and Ramdas Pophale) SiO2 
 PCOD9473180
Probable space group: C M C M
;
_chemical_formula_sum "Si O2"
_cell_formula_units_Z 84
_cell_length_a 12.758896
_cell_length_b 23.772269
_cell_length_c 14.771350
_cell_angle_alpha 90.000000
_cell_angle_beta 90.000000
_cell_angle_gamma 90.000000
_cell_volume 4480.267265
_symmetry_space_group_name_H-M "C M C M"
_symmetry_group_IT_number 63
_symmetry_cell_setting 'orthorhombic'
loop_
_space_group_symop_operation_xyz
x,y,z
-x,-y,1/2+z
x,-y,-z
-x,y,1/2-z
-x,-y,-z
x,y,1/2-z
-x,y,z
x,-y,1/2+z
1/2+x,1/2+y,z
1/2-x,1/2-y,1/2+z
1/2+x,1/2-y,-z
1/2-x,1/2+y,1/2-z
1/2-x,1/2-y,-z
1/2+x,1/2+y,1/2-z
1/2-x,1/2+y,z
1/2+x,1/2-y,1/2+z
loop_
_atom_site_type_symbol
_atom_site_label
_atom_site_fract_x
_atom_site_fract_y
_atom_site_fract_z
Si Si1 0.000000 0.022049 0.250000
Si Si2 0.838347 0.982542 0.397355
Si Si3 0.373970 0.239209 0.148542
Si Si4 0.284176 0.363355 0.144666
Si Si5 0.882468 0.467064 0.856503
Si Si6 0.622704 0.858189 0.515464
O O1 0.091522 0.017828 0.171129
O O2 0.857462 0.916598 0.378352
O O3 0.859002 0.000000 0.500000
O O4 0.714914 0.992872 0.377438
O O5 0.338179 0.222599 0.250000
O O6 0.500000 0.236534 0.148496
O O7 0.339535 0.303156 0.133158
O O8 0.337435 0.195469 0.072920
O O9 0.253046 0.368561 0.250000
O O10 0.188761 0.365257 0.074861
O O11 0.879150 0.451955 0.750000
O O12 0.868828 0.412353 0.919262
O O13 0.000000 0.490541 0.874576
O O14 0.500000 0.850344 0.494807
#
# Coordination Sequence:
#
# PCOD9473180 Si02
#       6
#     4  16  16  16  16  16
#     4  12  26  44  62  82 124 164 218 250 292 354
#     4  12  24  41  62  89 120 164 205 253 302 355
#     4   9  19  35  59  86 113 149 197 246 297 353
#     4  11  22  36  58  84 118 157 198 245 297 353
#     4  10  20  37  63  90 121 153 194 250 310 369
#     4  10  20  36  59  88 118 151 193 246 304 364
#
# _framework density 18.748881000000001
#
# number of rings (size 3 to 8) (size 9 to 14) (size 15 to 20)
#    0.000    1.524    3.810    1.429    1.333    3.810 
#    0.000    0.000    0.000    0.000    0.000    0.000 
#    0.000    0.000    0.000    0.000    0.000    0.000 
#
# Total GULP energy -233992.337105 kJ/mol
# GULP energy per Si atom -5571.246122 kJ/mol
# Density = 1.870621 g / cm^3
# Si number density = 18.748881 Si / 1000 Ang^3
#
#
#
# Elastic Constant Matrix: (Units=GPa)
#
#
# Indices 1 2 3 4 5 6 
#
# 1 57.6254 8.2030 33.3207 0.0000 0.0000 0.0000
# 2 8.2030 54.6238 25.5785 0.0000 0.0000 0.0000
# 3 33.3207 25.5785 148.6941 0.0000 0.0000 0.0000
# 4 0.0000 0.0000 0.0000 27.3973 0.0000 0.0000
# 5 0.0000 0.0000 0.0000 0.0000 43.7049 0.0000
# 6 0.0000 0.0000 0.0000 0.0000 0.0000 -583.6156
#
#
#
# Elastic Compliance Matrix: (Units=1/GPa)
#
#
# Indices 1 2 3 4 5 6 
#
# 1 0.019985 -0.000983 -0.004309 0.000000 0.000000 0.000000
# 2 -0.000983 0.019959 -0.003213 0.000000 0.000000 0.000000
# 3 -0.004309 -0.003213 0.008244 0.000000 0.000000 0.000000
# 4 0.000000 0.000000 0.000000 0.036500 0.000000 0.000000
# 5 0.000000 0.000000 0.000000 0.000000 0.022881 0.000000
# 6 0.000000 0.000000 0.000000 0.000000 0.000000 -0.001713
#
#
# Mechanical properties :
#
#
# Convention : Reuss Voigt Hill
#
# Bulk Modulus (GPa) = 32.07524 43.90531 37.99027
# Shear Modulus (GPa) = 37.52093 -89.57995 -26.02951
#
# Velocity S-wave (km/s) = 4.47837 -6.91972 -3.73006
# Velocity P-wave (km/s) = 6.62465 6.35413 1.32496
#
# Compressibility (1/GPa) = 0.03117670
#
# Stress axis : x y z
#
# Youngs Moduli (GPa) = 50.03698 50.10202 121.30624
#
# Poissons Ratio (x) = 0.04927 0.52275
# Poissons Ratio (y) = 0.04920 0.38976
# Poissons Ratio (z) = 0.21563 0.16098
#
# Static dielectric constant tensor:
#      x y z
#    x 1.648730 0.000000 0.000000 
#    y 0.000000 1.660730 0.000000 
#    z 0.000000 0.000000 1.646390 
# 
# From -- ./inp_files/29871.got.cif
#   From: 2010.05.17/outbox.cif.g08.bks.cpg/sg63_15_cif.got.tgz:29871.got - 2010.06.03 15:47:04.
