data_PCOD9473393
_publ_section_title
;
Structure prediction by ZEFSAII (Michael W. Deem and Ramdas Pophale) SiO2 
 PCOD9473393
Probable space group: C M C M
;
_chemical_formula_sum "Si O2"
_cell_formula_units_Z 64
_cell_length_a 15.400846
_cell_length_b 13.222595
_cell_length_c 16.163215
_cell_angle_alpha 90.000000
_cell_angle_beta 90.000000
_cell_angle_gamma 90.000000
_cell_volume 3291.463353
_symmetry_space_group_name_H-M "C M C M"
_symmetry_group_IT_number 63
_symmetry_cell_setting 'orthorhombic'
loop_
_space_group_symop_operation_xyz
x,y,z
-x,-y,1/2+z
x,-y,-z
-x,y,1/2-z
-x,-y,-z
x,y,1/2-z
-x,y,z
x,-y,1/2+z
1/2+x,1/2+y,z
1/2-x,1/2-y,1/2+z
1/2+x,1/2-y,-z
1/2-x,1/2+y,1/2-z
1/2-x,1/2-y,-z
1/2+x,1/2+y,1/2-z
1/2-x,1/2+y,z
1/2+x,1/2-y,1/2+z
loop_
_atom_site_type_symbol
_atom_site_label
_atom_site_fract_x
_atom_site_fract_y
_atom_site_fract_z
Si Si1 0.500000 0.743913 0.843849
Si Si2 0.000000 0.119149 0.011321
Si Si3 0.671873 0.148947 0.092967
Si Si4 0.097803 0.456462 0.346365
Si Si5 0.650884 0.249847 0.586735
O O1 0.500000 0.704947 0.750000
O O2 0.587591 0.808215 0.859268
O O3 0.500000 0.664122 0.918449
O O4 0.082556 0.164292 0.060329
O O5 0.000000 0.000000 0.000000
O O6 0.762179 0.198373 0.120857
O O7 0.664247 0.028850 0.105315
O O8 0.665652 0.186219 0.998286
O O9 0.100845 0.484743 0.250000
O O10 0.115953 0.337547 0.354010
O O11 0.000000 0.474049 0.379079
#
# Coordination Sequence:
#
# PCOD9473393 Si02
#       5
#     8   8  16  16  16
#     4  10  20  37  61  91 119 153 208 267 313 362
#     4  10  22  41  63  85 123 167 210 253 307 382
#     4  10  21  36  62  90 119 158 206 257 304 369
#     4  11  22  37  61  91 123 160 204 256 313 371
#     4  10  22  39  60  89 122 162 206 255 308 368
#
# _framework density 19.444237999999999
#
# number of rings (size 3 to 8) (size 9 to 14) (size 15 to 20)
#    0.000    1.750    2.500    1.500    0.000    9.000 
#    0.000    1.250    0.000    0.000    0.000    0.000 
#    0.000    0.000    0.000    0.000    0.000    0.000 
#
# Total GULP energy -178524.184285 kJ/mol
# GULP energy per Si atom -5578.880759 kJ/mol
# Density = 1.939998 g / cm^3
# Si number density = 19.444238 Si / 1000 Ang^3
#
#
#
# Elastic Constant Matrix: (Units=GPa)
#
#
# Indices 1 2 3 4 5 6 
#
# 1 129.5325 67.4287 31.9318 0.0000 0.0000 0.0000
# 2 67.4287 157.9579 23.3515 0.0000 0.0000 0.0000
# 3 31.9318 23.3515 48.6943 0.0000 0.0000 0.0000
# 4 0.0000 0.0000 0.0000 20.6234 0.0000 0.0000
# 5 0.0000 0.0000 0.0000 0.0000 9.4205 0.0000
# 6 0.0000 0.0000 0.0000 0.0000 0.0000 28.6281
#
#
#
# Elastic Compliance Matrix: (Units=1/GPa)
#
#
# Indices 1 2 3 4 5 6 
#
# 1 0.011100 -0.003942 -0.005389 0.000000 0.000000 0.000000
# 2 -0.003942 0.008214 -0.001354 0.000000 0.000000 0.000000
# 3 -0.005389 -0.001354 0.024719 0.000000 0.000000 0.000000
# 4 0.000000 0.000000 0.000000 0.048489 0.000000 0.000000
# 5 0.000000 0.000000 0.000000 0.000000 0.106152 0.000000
# 6 0.000000 0.000000 0.000000 0.000000 0.000000 0.034931
#
#
# Mechanical properties :
#
#
# Convention : Reuss Voigt Hill
#
# Bulk Modulus (GPa) = 44.12274 64.62319 54.37296
# Shear Modulus (GPa) = 19.04552 25.96592 22.50572
#
# Velocity S-wave (km/s) = 3.13308 3.65828 3.40582
# Velocity P-wave (km/s) = 5.98577 7.15202 6.59473
#
# Compressibility (1/GPa) = 0.02266405
#
# Stress axis : x y z
#
# Youngs Moduli (GPa) = 90.08615 121.74833 40.45405
#
# Poissons Ratio (x) = 0.47992 0.21800
# Poissons Ratio (y) = 0.35511 0.05477
# Poissons Ratio (z) = 0.48547 0.16484
#
# Static dielectric constant tensor:
#      x y z
#    x 1.697430 0.000000 0.000000 
#    y 0.000000 1.701760 0.000000 
#    z 0.000000 0.000000 1.692140 
# 
# From -- ./inp_files/43495.got.cif
#   From: 2010.05.17/outbox.cif.g08.bks.cpg/sg63_22_cif.got.tgz:43495.got - 2010.06.03 15:47:04.
