data_PCOD9473921
_publ_section_title
;
Structure prediction by ZEFSAII (Michael W. Deem and Ramdas Pophale) SiO2 
 PCOD9473921
Probable space group: C M C M
;
_chemical_formula_sum "Si O2"
_cell_formula_units_Z 96
_cell_length_a 14.345676
_cell_length_b 23.208849
_cell_length_c 14.516478
_cell_angle_alpha 90.000000
_cell_angle_beta 90.000000
_cell_angle_gamma 90.000000
_cell_volume 4833.212402
_symmetry_space_group_name_H-M "C M C M"
_symmetry_group_IT_number 63
_symmetry_cell_setting 'orthorhombic'
loop_
_space_group_symop_operation_xyz
x,y,z
-x,-y,1/2+z
x,-y,-z
-x,y,1/2-z
-x,-y,-z
x,y,1/2-z
-x,y,z
x,-y,1/2+z
1/2+x,1/2+y,z
1/2-x,1/2-y,1/2+z
1/2+x,1/2-y,-z
1/2-x,1/2+y,1/2-z
1/2-x,1/2-y,-z
1/2+x,1/2+y,1/2-z
1/2-x,1/2+y,z
1/2+x,1/2-y,1/2+z
loop_
_atom_site_type_symbol
_atom_site_label
_atom_site_fract_x
_atom_site_fract_y
_atom_site_fract_z
Si Si1 0.698676 0.145608 0.970606
Si Si2 0.300465 0.034129 0.640255
Si Si3 0.111285 0.590165 0.142269
Si Si4 0.897146 0.015089 0.139531
Si Si5 0.895489 0.861745 0.959035
Si Si6 0.390398 0.244453 0.646011
O O1 0.664777 0.090112 0.912639
O O2 0.661156 0.203414 0.925500
O O3 0.662540 0.133926 0.073934
O O4 0.810505 0.145574 0.971612
O O5 0.306441 0.043525 0.750000
O O6 0.354539 0.974815 0.619512
O O7 0.192236 0.022590 0.614543
O O8 0.134620 0.600025 0.250000
O O9 0.000000 0.594074 0.131435
O O10 0.893550 0.023387 0.250000
O O11 0.888302 0.076685 0.090866
O O12 0.000000 0.990893 0.116442
O O13 0.884039 0.810729 0.884623
O O14 0.000000 0.856418 0.998266
O O15 0.355378 0.236342 0.750000
O O16 0.500000 0.229323 0.644350
#
# Coordination Sequence:
#
# PCOD9473921 Si02
#       6
#    16  16  16  16  16  16
#     4  12  22  36  59  87 116 152 189 243 293 350
#     4  10  21  36  54  82 117 152 190 231 284 346
#     4  10  22  38  55  79 113 153 195 237 287 348
#     4   9  17  32  55  82 112 147 187 231 279 335
#     4  10  21  36  57  84 115 151 194 241 288 339
#     4  10  22  40  61  86 114 149 197 248 294 343
#
# _framework density 19.862566000000001
#
# number of rings (size 3 to 8) (size 9 to 14) (size 15 to 20)
#    0.000    1.833    1.667    2.500    0.000    5.333 
#    0.000    3.333    0.000    1.500    0.000    2.333 
#    0.000    0.000    0.000    0.000    0.000    0.000 
#
# Total GULP energy -268244.263788 kJ/mol
# GULP energy per Si atom -5588.422162 kJ/mol
# Density = 1.981736 g / cm^3
# Si number density = 19.862566 Si / 1000 Ang^3
#
#
#
# Elastic Constant Matrix: (Units=GPa)
#
#
# Indices 1 2 3 4 5 6 
#
# 1 59.9033 10.9708 18.8853 0.0000 0.0000 0.0000
# 2 10.9708 38.2641 21.9738 0.0000 0.0000 0.0000
# 3 18.8853 21.9738 62.2761 0.0000 0.0000 0.0000
# 4 0.0000 0.0000 0.0000 23.0300 0.0000 0.0000
# 5 0.0000 0.0000 0.0000 0.0000 21.6646 0.0000
# 6 0.0000 0.0000 0.0000 0.0000 0.0000 24.7357
#
#
#
# Elastic Compliance Matrix: (Units=1/GPa)
#
#
# Indices 1 2 3 4 5 6 
#
# 1 0.018668 -0.002635 -0.004731 0.000000 0.000000 0.000000
# 2 -0.002635 0.033147 -0.010897 0.000000 0.000000 0.000000
# 3 -0.004731 -0.010897 0.021337 0.000000 0.000000 0.000000
# 4 0.000000 0.000000 0.000000 0.043422 0.000000 0.000000
# 5 0.000000 0.000000 0.000000 0.000000 0.046158 0.000000
# 6 0.000000 0.000000 0.000000 0.000000 0.000000 0.040427
#
#
# Mechanical properties :
#
#
# Convention : Reuss Voigt Hill
#
# Bulk Modulus (GPa) = 27.30315 29.34482 28.32399
# Shear Modulus (GPa) = 19.84957 21.12697 20.48827
#
# Velocity S-wave (km/s) = 3.16467 3.26491 3.21518
# Velocity P-wave (km/s) = 5.20859 5.38692 5.29851
#
# Compressibility (1/GPa) = 0.03662580
#
# Stress axis : x y z
#
# Youngs Moduli (GPa) = 53.56829 30.16831 46.86664
#
# Poissons Ratio (x) = 0.07950 0.22173
# Poissons Ratio (y) = 0.14117 0.51069
# Poissons Ratio (z) = 0.25344 0.32874
#
# Static dielectric constant tensor:
#      x y z
#    x 1.718550 0.000000 0.000000 
#    y 0.000000 1.660310 0.000000 
#    z 0.000000 0.000000 1.698390 
# 
# From -- ./inp_files/31847.got.cif
#   From: 2010.05.17/outbox.cif.g08.bks.cpg/sg63_16_cif.got.tgz:31847.got - 2010.06.03 15:47:04.
