data_PCOD9473309
_publ_section_title
;
Structure prediction by ZEFSAII (Michael W. Deem and Ramdas Pophale) SiO2 
 PCOD9473309
Probable space group: C M C M
;
_chemical_formula_sum "Si O2"
_cell_formula_units_Z 96
_cell_length_a 8.899742
_cell_length_b 20.443530
_cell_length_c 28.910728
_cell_angle_alpha 90.000000
_cell_angle_beta 90.000000
_cell_angle_gamma 90.000000
_cell_volume 5260.079796
_symmetry_space_group_name_H-M "C M C M"
_symmetry_group_IT_number 63
_symmetry_cell_setting 'orthorhombic'
loop_
_space_group_symop_operation_xyz
x,y,z
-x,-y,1/2+z
x,-y,-z
-x,y,1/2-z
-x,-y,-z
x,y,1/2-z
-x,y,z
x,-y,1/2+z
1/2+x,1/2+y,z
1/2-x,1/2-y,1/2+z
1/2+x,1/2-y,-z
1/2-x,1/2+y,1/2-z
1/2-x,1/2-y,-z
1/2+x,1/2+y,1/2-z
1/2-x,1/2+y,z
1/2+x,1/2-y,1/2+z
loop_
_atom_site_type_symbol
_atom_site_label
_atom_site_fract_x
_atom_site_fract_y
_atom_site_fract_z
Si Si1 0.819622 0.195554 0.467292
Si Si2 0.679775 0.502702 0.695443
Si Si3 0.319031 0.256195 0.866464
Si Si4 0.819343 0.396339 0.376886
Si Si5 0.673934 0.135486 0.194602
Si Si6 0.181352 0.068053 0.976205
O O1 0.750000 0.250000 0.500000
O O2 0.773827 0.210292 0.414957
O O3 0.777709 0.125713 0.488224
O O4 0.000000 0.200792 0.468841
O O5 0.717931 0.512178 0.750000
O O6 0.500000 0.505351 0.690953
O O7 0.754362 0.557020 0.662991
O O8 0.737464 0.430553 0.681279
O O9 0.500000 0.259466 0.862176
O O10 0.276900 0.179668 0.867928
O O11 0.244481 0.299675 0.827063
O O12 0.756045 0.418535 0.426691
O O13 0.000000 0.400131 0.377472
O O14 0.681351 0.139866 0.250000
O O15 0.500000 0.128941 0.180828
O O16 0.000000 0.068353 0.969908
O O17 0.224093 0.000000 0.000000
#
# Coordination Sequence:
#
# PCOD9473309 Si02
#       6
#    16  16  16  16  16  16
#     4  10  20  37  58  82 116 154 193 238 288 346
#     4  10  22  41  64  87 115 153 194 239 296 357
#     4  10  22  38  58  86 120 158 197 237 289 348
#     4  11  23  39  59  87 121 156 198 246 292 345
#     4  10  22  40  62  90 120 150 192 242 291 348
#     4  10  22  38  58  85 116 155 199 246 294 345
#
# _framework density 18.250674
#
# number of rings (size 3 to 8) (size 9 to 14) (size 15 to 20)
#    0.000    1.833    1.667    1.500    2.333    5.000 
#    0.000    3.333    0.000    0.000    0.000    0.000 
#    0.000    0.000    0.000    0.000    0.000    0.000 
#
# Total GULP energy -268063.513503 kJ/mol
# GULP energy per Si atom -5584.656531 kJ/mol
# Density = 1.820913 g / cm^3
# Si number density = 18.250674 Si / 1000 Ang^3
#
#
#
# Elastic Constant Matrix: (Units=GPa)
#
#
# Indices 1 2 3 4 5 6 
#
# 1 46.0322 61.2697 44.4198 0.0000 0.0000 0.0000
# 2 61.2697 190.2883 80.2171 0.0000 0.0000 0.0000
# 3 44.4198 80.2171 73.3961 0.0000 0.0000 0.0000
# 4 0.0000 0.0000 0.0000 41.6007 0.0000 0.0000
# 5 0.0000 0.0000 0.0000 0.0000 31.7369 0.0000
# 6 0.0000 0.0000 0.0000 0.0000 0.0000 32.1270
#
#
#
# Elastic Compliance Matrix: (Units=1/GPa)
#
#
# Indices 1 2 3 4 5 6 
#
# 1 0.056909 -0.007055 -0.026731 0.000000 0.000000 0.000000
# 2 -0.007055 0.010620 -0.007337 0.000000 0.000000 0.000000
# 3 -0.026731 -0.007337 0.037821 0.000000 0.000000 0.000000
# 4 0.000000 0.000000 0.000000 0.024038 0.000000 0.000000
# 5 0.000000 0.000000 0.000000 0.000000 0.031509 0.000000
# 6 0.000000 0.000000 0.000000 0.000000 0.000000 0.031126
#
#
# Mechanical properties :
#
#
# Convention : Reuss Voigt Hill
#
# Bulk Modulus (GPa) = 43.28235 75.72553 59.50394
# Shear Modulus (GPa) = 17.73231 29.34690 23.53961
#
# Velocity S-wave (km/s) = 3.12043 4.01433 3.59527
# Velocity P-wave (km/s) = 6.06216 7.94156 7.06463
#
# Compressibility (1/GPa) = 0.02310411
#
# Stress axis : x y z
#
# Youngs Moduli (GPa) = 17.57183 94.16445 26.44026
#
# Poissons Ratio (x) = 0.66435 0.70677
# Poissons Ratio (y) = 0.12397 0.19399
# Poissons Ratio (z) = 0.46971 0.69086
#
# Static dielectric constant tensor:
#      x y z
#    x 1.616560 0.000000 0.000000 
#    y 0.000000 1.587940 0.000000 
#    z 0.000000 0.000000 1.598260 
# 
# From -- ./inp_files/66950.got.cif
#   From: 2010.05.17/outbox.cif.g08.bks.cpg/sg63_34_cif.got.tgz:66950.got - 2010.06.03 15:47:04.
