data_PCOD9473955
_publ_section_title
;
Structure prediction by ZEFSAII (Michael W. Deem and Ramdas Pophale) SiO2 
 PCOD9473955
Probable space group: C M C M
;
_chemical_formula_sum "Si O2"
_cell_formula_units_Z 60
_cell_length_a 20.102882
_cell_length_b 16.908273
_cell_length_c 7.481620
_cell_angle_alpha 90.000000
_cell_angle_beta 90.000000
_cell_angle_gamma 90.000000
_cell_volume 2543.040173
_symmetry_space_group_name_H-M "C M C M"
_symmetry_group_IT_number 63
_symmetry_cell_setting 'orthorhombic'
loop_
_space_group_symop_operation_xyz
x,y,z
-x,-y,1/2+z
x,-y,-z
-x,y,1/2-z
-x,-y,-z
x,y,1/2-z
-x,y,z
x,-y,1/2+z
1/2+x,1/2+y,z
1/2-x,1/2-y,1/2+z
1/2+x,1/2-y,-z
1/2-x,1/2+y,1/2-z
1/2-x,1/2-y,-z
1/2+x,1/2+y,1/2-z
1/2-x,1/2+y,z
1/2+x,1/2-y,1/2+z
loop_
_atom_site_type_symbol
_atom_site_label
_atom_site_fract_x
_atom_site_fract_y
_atom_site_fract_z
Si Si1 0.263373 0.912740 0.460342
Si Si2 0.500000 0.092425 0.464835
Si Si3 0.119023 0.698473 0.042154
Si Si4 0.612812 0.381019 0.469485
Si Si5 0.500000 0.427531 0.750000
O O1 0.262357 0.901638 0.250000
O O2 0.309258 0.842413 0.530705
O O3 0.186901 0.909712 0.518550
O O4 0.291608 0.000000 0.500000
O O5 0.500000 0.097975 0.250000
O O6 0.435100 0.138098 0.535652
O O7 0.500000 0.000000 0.500000
O O8 0.103181 0.706325 0.250000
O O9 0.112637 0.787788 0.977354
O O10 0.602571 0.389134 0.250000
O O11 0.557909 0.421438 0.591709
#
# Coordination Sequence:
#
# PCOD9473955 Si02
#       5
#    16   8  16  16   4
#     4  11  24  41  66  94 134 173 221 274 332 394
#     4  10  21  36  55  87 128 169 207 256 319 384
#     4  10  21  40  65  92 132 174 216 267 325 389
#     4  10  24  44  67 100 133 168 224 281 329 394
#     4  12  24  40  76  92 130 168 222 266 348 388
#
# _framework density 23.593807999999999
#
# number of rings (size 3 to 8) (size 9 to 14) (size 15 to 20)
#    0.000    1.600    0.000    3.600    5.600    5.333 
#    2.400    0.667    0.000    0.000    0.000    0.000 
#    0.000    0.000    0.000    0.000    0.000    0.000 
#
# Total GULP energy -167253.172464 kJ/mol
# GULP energy per Si atom -5575.105749 kJ/mol
# Density = 2.354011 g / cm^3
# Si number density = 23.593808 Si / 1000 Ang^3
#
#
#
# Elastic Constant Matrix: (Units=GPa)
#
#
# Indices 1 2 3 4 5 6 
#
# 1 119.1154 38.2421 27.8579 0.0000 0.0000 0.0000
# 2 38.2421 146.0371 22.8094 0.0000 0.0000 0.0000
# 3 27.8579 22.8094 88.9241 0.0000 0.0000 0.0000
# 4 0.0000 0.0000 0.0000 11.6014 0.0000 0.0000
# 5 0.0000 0.0000 0.0000 0.0000 52.7915 0.0000
# 6 0.0000 0.0000 0.0000 0.0000 0.0000 29.7348
#
#
#
# Elastic Compliance Matrix: (Units=1/GPa)
#
#
# Indices 1 2 3 4 5 6 
#
# 1 0.009663 -0.002143 -0.002477 0.000000 0.000000 0.000000
# 2 -0.002143 0.007609 -0.001280 0.000000 0.000000 0.000000
# 3 -0.002477 -0.001280 0.012350 0.000000 0.000000 0.000000
# 4 0.000000 0.000000 0.000000 0.086197 0.000000 0.000000
# 5 0.000000 0.000000 0.000000 0.000000 0.018942 0.000000
# 6 0.000000 0.000000 0.000000 0.000000 0.000000 0.033631
#
#
# Mechanical properties :
#
#
# Convention : Reuss Voigt Hill
#
# Bulk Modulus (GPa) = 56.11773 59.09950 57.60862
# Shear Modulus (GPa) = 26.86250 36.50335 31.68292
#
# Velocity S-wave (km/s) = 3.37789 3.93766 3.66847
# Velocity P-wave (km/s) = 6.24901 6.76585 6.51255
#
# Compressibility (1/GPa) = 0.01781968
#
# Stress axis : x y z
#
# Youngs Moduli (GPa) = 103.49029 131.42656 80.97150
#
# Poissons Ratio (x) = 0.28170 0.20059
# Poissons Ratio (y) = 0.22182 0.10366
# Poissons Ratio (z) = 0.25638 0.16825
#
# Static dielectric constant tensor:
#      x y z
#    x 1.895230 0.000000 0.000000 
#    y 0.000000 1.910260 0.000000 
#    z 0.000000 0.000000 1.899720 
# 
# From -- ./inp_files/5583.got.cif
#   From: 2010.05.17/outbox.cif.g08.bks.cpg/sg63_3_cif.got.tgz:5583.got - 2010.06.03 15:47:04.
