data_PCOD9473659
_publ_section_title
;
Structure prediction by ZEFSAII (Michael W. Deem and Ramdas Pophale) SiO2 
 PCOD9473659
Probable space group: C M C M
;
_chemical_formula_sum "Si O2"
_cell_formula_units_Z 84
_cell_length_a 11.770447
_cell_length_b 14.027045
_cell_length_c 22.998801
_cell_angle_alpha 90.000000
_cell_angle_beta 90.000000
_cell_angle_gamma 90.000000
_cell_volume 3797.207604
_symmetry_space_group_name_H-M "C M C M"
_symmetry_group_IT_number 63
_symmetry_cell_setting 'orthorhombic'
loop_
_space_group_symop_operation_xyz
x,y,z
-x,-y,1/2+z
x,-y,-z
-x,y,1/2-z
-x,-y,-z
x,y,1/2-z
-x,y,z
x,-y,1/2+z
1/2+x,1/2+y,z
1/2-x,1/2-y,1/2+z
1/2+x,1/2-y,-z
1/2-x,1/2+y,1/2-z
1/2-x,1/2-y,-z
1/2+x,1/2+y,1/2-z
1/2-x,1/2+y,z
1/2+x,1/2-y,1/2+z
loop_
_atom_site_type_symbol
_atom_site_label
_atom_site_fract_x
_atom_site_fract_y
_atom_site_fract_z
Si Si1 0.805998 0.102616 0.155094
Si Si2 0.131301 0.590332 0.535495
Si Si3 0.687183 0.599884 0.626447
Si Si4 0.629734 0.088901 0.250000
Si Si5 0.126797 0.290098 0.925151
Si Si6 0.131055 0.819706 0.250000
Si Si7 0.000000 0.845103 0.750000
O O1 0.703824 0.060333 0.194889
O O2 0.734307 0.168434 0.110804
O O3 0.898547 0.149081 0.198381
O O4 0.858088 0.007885 0.126126
O O5 0.180060 0.500000 0.500000
O O6 0.190940 0.599553 0.596475
O O7 0.140939 0.679376 0.491897
O O8 0.000000 0.571102 0.545409
O O9 0.623559 0.678294 0.587550
O O10 0.684707 0.640550 0.691511
O O11 0.500000 0.056682 0.250000
O O12 0.630616 0.205218 0.250000
O O13 0.000000 0.328367 0.906632
O O14 0.000000 0.853173 0.250000
#
# Coordination Sequence:
#
# PCOD9473659 Si02
#       7
#    16  16  16   8  16   8   4
#     4  11  23  41  66  96 137 186 223 282 345 411
#     4  10  22  44  71 101 141 183 228 294 357 410
#     4  12  24  40  71 105 134 181 234 285 344 414
#     4  10  20  40  66  97 132 178 237 284 332 409
#     4  11  23  44  76 103 131 179 242 291 342 415
#     4  11  23  39  68 100 132 176 226 283 336 406
#     4  10  26  44  60  90 154 190 220 282 364 406
#
# _framework density 22.12152
#
# number of rings (size 3 to 8) (size 9 to 14) (size 15 to 20)
#    0.000    1.143    3.810    2.857    4.000    0.762 
#    1.714    0.476    6.286    3.429    0.000    0.000 
#    0.000    0.000    0.000    0.000    0.000    0.000 
#
# Total GULP energy -233912.759417 kJ/mol
# GULP energy per Si atom -5569.351415 kJ/mol
# Density = 2.207117 g / cm^3
# Si number density = 22.121520 Si / 1000 Ang^3
#
#
#
# Elastic Constant Matrix: (Units=GPa)
#
#
# Indices 1 2 3 4 5 6 
#
# 1 133.5504 17.0751 61.1363 0.0000 0.0000 0.0000
# 2 17.0751 72.0323 9.3386 0.0000 0.0000 0.0000
# 3 61.1363 9.3386 99.5883 0.0000 0.0000 0.0000
# 4 0.0000 0.0000 0.0000 38.7745 0.0000 0.0000
# 5 0.0000 0.0000 0.0000 0.0000 56.3213 0.0000
# 6 0.0000 0.0000 0.0000 0.0000 0.0000 10.4390
#
#
#
# Elastic Compliance Matrix: (Units=1/GPa)
#
#
# Indices 1 2 3 4 5 6 
#
# 1 0.010614 -0.001692 -0.006357 0.000000 0.000000 0.000000
# 2 -0.001692 0.014323 -0.000304 0.000000 0.000000 0.000000
# 3 -0.006357 -0.000304 0.013973 0.000000 0.000000 0.000000
# 4 0.000000 0.000000 0.000000 0.025790 0.000000 0.000000
# 5 0.000000 0.000000 0.000000 0.000000 0.017755 0.000000
# 6 0.000000 0.000000 0.000000 0.000000 0.000000 0.095795
#
#
# Mechanical properties :
#
#
# Convention : Reuss Voigt Hill
#
# Bulk Modulus (GPa) = 45.03967 53.36342 49.20155
# Shear Modulus (GPa) = 24.70854 35.61501 30.16177
#
# Velocity S-wave (km/s) = 3.34570 4.01680 3.69651
# Velocity P-wave (km/s) = 5.94384 6.75930 6.36464
#
# Compressibility (1/GPa) = 0.02220265
#
# Stress axis : x y z
#
# Youngs Moduli (GPa) = 94.21151 69.81678 71.56833
#
# Poissons Ratio (x) = 0.11812 0.45499
# Poissons Ratio (y) = 0.15940 0.02179
# Poissons Ratio (z) = 0.59894 0.02126
#
# Static dielectric constant tensor:
#      x y z
#    x 1.831170 0.000000 0.000000 
#    y 0.000000 1.886190 0.000000 
#    z 0.000000 0.000000 1.824750 
# 
# From -- ./inp_files/61301.got.cif
#   From: 2010.05.17/outbox.cif.g08.bks.cpg/sg63_31_cif.got.tgz:61301.got - 2010.06.03 15:47:04.
