data_PCOD9473639
_publ_section_title
;
Structure prediction by ZEFSAII (Michael W. Deem and Ramdas Pophale) SiO2 
 PCOD9473639
Probable space group: C M C M
;
_chemical_formula_sum "Si O2"
_cell_formula_units_Z 88
_cell_length_a 24.956299
_cell_length_b 6.032036
_cell_length_c 24.247621
_cell_angle_alpha 90.000000
_cell_angle_beta 90.000000
_cell_angle_gamma 90.000000
_cell_volume 3650.171251
_symmetry_space_group_name_H-M "C M C M"
_symmetry_group_IT_number 63
_symmetry_cell_setting 'orthorhombic'
loop_
_space_group_symop_operation_xyz
x,y,z
-x,-y,1/2+z
x,-y,-z
-x,y,1/2-z
-x,-y,-z
x,y,1/2-z
-x,y,z
x,-y,1/2+z
1/2+x,1/2+y,z
1/2-x,1/2-y,1/2+z
1/2+x,1/2-y,-z
1/2-x,1/2+y,1/2-z
1/2-x,1/2-y,-z
1/2+x,1/2+y,1/2-z
1/2-x,1/2+y,z
1/2+x,1/2-y,1/2+z
loop_
_atom_site_type_symbol
_atom_site_label
_atom_site_fract_x
_atom_site_fract_y
_atom_site_fract_z
Si Si1 0.801747 0.376480 0.556377
Si Si2 0.063027 0.674133 0.314123
Si Si3 0.620498 0.191498 0.626557
Si Si4 0.000000 0.746642 0.475755
Si Si5 0.604418 0.615628 0.581899
Si Si6 0.268118 0.326292 0.837352
O O1 0.786473 0.500000 0.500000
O O2 0.845134 0.524305 0.589219
O O3 0.839254 0.159472 0.552096
O O4 0.754746 0.329645 0.599649
O O5 0.074845 0.702866 0.250000
O O6 0.078480 0.427817 0.334171
O O7 0.100460 0.821104 0.353264
O O8 0.000000 0.719674 0.322907
O O9 0.592916 0.355861 0.583723
O O10 0.668058 0.306886 0.661214
O O11 0.000000 0.500000 0.500000
O O12 0.055845 0.750520 0.443062
O O13 0.000000 0.000000 0.500000
O O14 0.251589 0.577293 0.816001
#
# Coordination Sequence:
#
# PCOD9473639 Si02
#       6
#    16  16  16   8  16  16
#     4  10  22  38  61  92 138 182 233 275 333 398
#     4  10  23  44  70  97 130 170 229 295 362 421
#     4  10  23  38  64  95 129 174 221 287 348 405
#     4  12  30  44  67  98 143 196 236 274 338 420
#     4  11  23  42  64  95 136 181 233 286 346 414
#     4  10  20  40  61  94 131 177 221 275 333 393
#
# _framework density 24.108460000000001
#
# number of rings (size 3 to 8) (size 9 to 14) (size 15 to 20)
#    0.000    1.636    2.727    0.545    8.909    3.636 
#    0.000    1.818    0.000    9.818    0.000    0.000 
#    0.000    0.000    0.000    0.000    0.000    0.000 
#
# Total GULP energy -245306.144010 kJ/mol
# GULP energy per Si atom -5575.139637 kJ/mol
# Density = 2.405359 g / cm^3
# Si number density = 24.108460 Si / 1000 Ang^3
#
#
#
# Elastic Constant Matrix: (Units=GPa)
#
#
# Indices 1 2 3 4 5 6 
#
# 1 57.8905 16.6170 8.5800 0.0000 0.0000 0.0000
# 2 16.6170 134.4444 22.0227 0.0000 0.0000 0.0000
# 3 8.5800 22.0227 79.9483 0.0000 0.0000 0.0000
# 4 0.0000 0.0000 0.0000 6.3123 0.0000 0.0000
# 5 0.0000 0.0000 0.0000 0.0000 13.8239 0.0000
# 6 0.0000 0.0000 0.0000 0.0000 0.0000 46.1017
#
#
#
# Elastic Compliance Matrix: (Units=1/GPa)
#
#
# Indices 1 2 3 4 5 6 
#
# 1 0.018055 -0.002005 -0.001385 0.000000 0.000000 0.000000
# 2 -0.002005 0.008012 -0.001992 0.000000 0.000000 0.000000
# 3 -0.001385 -0.001992 0.013205 0.000000 0.000000 0.000000
# 4 0.000000 0.000000 0.000000 0.158421 0.000000 0.000000
# 5 0.000000 0.000000 0.000000 0.000000 0.072339 0.000000
# 6 0.000000 0.000000 0.000000 0.000000 0.000000 0.021691
#
#
# Mechanical properties :
#
#
# Convention : Reuss Voigt Hill
#
# Bulk Modulus (GPa) = 35.07735 40.74697 37.91216
# Shear Modulus (GPa) = 16.02615 28.25180 22.13897
#
# Velocity S-wave (km/s) = 2.58108 3.42696 3.03365
# Velocity P-wave (km/s) = 4.84396 5.70938 5.29438
#
# Compressibility (1/GPa) = 0.02850843
#
# Stress axis : x y z
#
# Youngs Moduli (GPa) = 55.38715 124.81178 75.72628
#
# Poissons Ratio (x) = 0.25020 0.10491
# Poissons Ratio (y) = 0.11103 0.15084
# Poissons Ratio (z) = 0.07674 0.24861
#
# Static dielectric constant tensor:
#      x y z
#    x 1.886910 0.000000 0.000000 
#    y 0.000000 2.166490 0.000000 
#    z 0.000000 0.000000 1.943960 
# 
# From -- ./inp_files/65704.got.cif
#   From: 2010.05.17/outbox.cif.g08.bks.cpg/sg63_33_cif.got.tgz:65704.got - 2010.06.03 15:47:04.
