data_PCOD9473744
_publ_section_title
;
Structure prediction by ZEFSAII (Michael W. Deem and Ramdas Pophale) SiO2 
 PCOD9473744
Probable space group: C M C M
;
_chemical_formula_sum "Si O2"
_cell_formula_units_Z 88
_cell_length_a 24.799010
_cell_length_b 13.684297
_cell_length_c 14.523125
_cell_angle_alpha 90.000000
_cell_angle_beta 90.000000
_cell_angle_gamma 90.000000
_cell_volume 4928.524394
_symmetry_space_group_name_H-M "C M C M"
_symmetry_group_IT_number 63
_symmetry_cell_setting 'orthorhombic'
loop_
_space_group_symop_operation_xyz
x,y,z
-x,-y,1/2+z
x,-y,-z
-x,y,1/2-z
-x,-y,-z
x,y,1/2-z
-x,y,z
x,-y,1/2+z
1/2+x,1/2+y,z
1/2-x,1/2-y,1/2+z
1/2+x,1/2-y,-z
1/2-x,1/2+y,1/2-z
1/2-x,1/2-y,-z
1/2+x,1/2+y,1/2-z
1/2-x,1/2+y,z
1/2+x,1/2-y,1/2+z
loop_
_atom_site_type_symbol
_atom_site_label
_atom_site_fract_x
_atom_site_fract_y
_atom_site_fract_z
Si Si1 0.405602 0.000000 0.500000
Si Si2 0.667380 0.722985 0.138590
Si Si3 0.779321 0.810421 0.356607
Si Si4 0.560076 0.160032 0.641492
Si Si5 0.164532 0.622787 0.144619
Si Si6 0.723890 0.527458 0.102444
O O1 0.437113 0.071000 0.569740
O O2 0.370457 0.065336 0.429534
O O3 0.668413 0.717789 0.250000
O O4 0.718585 0.789867 0.107325
O O5 0.609819 0.769297 0.115895
O O6 0.680435 0.614160 0.103564
O O7 0.776440 0.782326 0.250000
O O8 0.821929 0.731756 0.393156
O O9 0.794613 0.923204 0.360002
O O10 0.568215 0.130544 0.750000
O O11 0.500000 0.204288 0.636274
O O12 0.142270 0.624045 0.250000
O O13 0.222748 0.569461 0.149696
O O14 0.740281 0.500000 0.000000
#
# Coordination Sequence:
#
# PCOD9473744 Si02
#       6
#     8  16  16  16  16  16
#     4  12  21  34  58  82 108 140 171 220 264 324
#     4   9  19  34  53  74 104 141 177 218 264 310
#     4   9  18  32  49  72 110 146 172 205 253 313
#     4  10  22  39  58  80 104 135 179 229 275 315
#     4  10  21  34  49  78 114 147 175 207 255 317
#     4  11  20  29  50  79 111 146 180 209 252 314
#
# _framework density 17.855242000000001
#
# number of rings (size 3 to 8) (size 9 to 14) (size 15 to 20)
#    0.000    2.000    0.909    4.636    2.545    2.909 
#    0.000    0.000    0.000    0.545    0.000    0.000 
#    0.000    0.000    0.000    0.000    0.000    0.000 
#
# Total GULP energy -245181.706928 kJ/mol
# GULP energy per Si atom -5572.311521 kJ/mol
# Density = 1.781460 g / cm^3
# Si number density = 17.855242 Si / 1000 Ang^3
#
#
#
# Elastic Constant Matrix: (Units=GPa)
#
#
# Indices 1 2 3 4 5 6 
#
# 1 82.1780 45.7495 20.5820 0.0000 0.0000 0.0000
# 2 45.7495 121.5070 14.0343 0.0000 0.0000 0.0000
# 3 20.5820 14.0343 72.8473 0.0000 0.0000 0.0000
# 4 0.0000 0.0000 0.0000 50.5843 0.0000 0.0000
# 5 0.0000 0.0000 0.0000 0.0000 -1.3518 0.0000
# 6 0.0000 0.0000 0.0000 0.0000 0.0000 18.7014
#
#
#
# Elastic Compliance Matrix: (Units=1/GPa)
#
#
# Indices 1 2 3 4 5 6 
#
# 1 0.016216 -0.005703 -0.003483 0.000000 0.000000 0.000000
# 2 -0.005703 0.010423 -0.000397 0.000000 0.000000 0.000000
# 3 -0.003483 -0.000397 0.014788 0.000000 0.000000 0.000000
# 4 0.000000 0.000000 0.000000 0.019769 0.000000 0.000000
# 5 0.000000 0.000000 0.000000 0.000000 -0.739739 0.000000
# 6 0.000000 0.000000 0.000000 0.000000 0.000000 0.053472
#
#
# Mechanical properties :
#
#
# Convention : Reuss Voigt Hill
#
# Bulk Modulus (GPa) = 44.92093 48.58487 46.75290
# Shear Modulus (GPa) = -8.35443 26.66455 9.15506
#
# Velocity S-wave (km/s) = -2.16544 3.86861 2.26683
# Velocity P-wave (km/s) = 4.35440 6.87200 5.75262
#
# Compressibility (1/GPa) = 0.02226134
#
# Stress axis : x y z
#
# Youngs Moduli (GPa) = 61.66687 95.93973 67.62330
#
# Poissons Ratio (x) = 0.54718 0.23552
# Poissons Ratio (y) = 0.35171 0.02682
# Poissons Ratio (z) = 0.21478 0.03805
#
# Static dielectric constant tensor:
#      x y z
#    x 1.597360 0.000000 0.000000 
#    y 0.000000 1.658970 0.000000 
#    z 0.000000 0.000000 1.646200 
# 
# From -- ./inp_files/37837.got.cif
#   From: 2010.05.17/outbox.cif.g08.bks.cpg/sg63_19_cif.got.tgz:37837.got - 2010.06.03 15:47:04.
