data_PCOD9473002
_publ_section_title
;
Structure prediction by ZEFSAII (Michael W. Deem and Ramdas Pophale) SiO2 
 PCOD9473002
Probable space group: C M C M
;
_chemical_formula_sum "Si O2"
_cell_formula_units_Z 64
_cell_length_a 13.615014
_cell_length_b 6.911852
_cell_length_c 23.315019
_cell_angle_alpha 90.000000
_cell_angle_beta 90.000000
_cell_angle_gamma 90.000000
_cell_volume 2194.058971
_symmetry_space_group_name_H-M "C M C M"
_symmetry_group_IT_number 63
_symmetry_cell_setting 'orthorhombic'
loop_
_space_group_symop_operation_xyz
x,y,z
-x,-y,1/2+z
x,-y,-z
-x,y,1/2-z
-x,-y,-z
x,y,1/2-z
-x,y,z
x,-y,1/2+z
1/2+x,1/2+y,z
1/2-x,1/2-y,1/2+z
1/2+x,1/2-y,-z
1/2-x,1/2+y,1/2-z
1/2-x,1/2-y,-z
1/2+x,1/2+y,1/2-z
1/2-x,1/2+y,z
1/2+x,1/2-y,1/2+z
loop_
_atom_site_type_symbol
_atom_site_label
_atom_site_fract_x
_atom_site_fract_y
_atom_site_fract_z
Si Si1 0.891138 0.919803 0.567661
Si Si2 0.862092 0.989692 0.189715
Si Si3 0.130422 0.460437 0.684467
Si Si4 0.657104 0.125218 0.056086
O O1 0.897519 0.894773 0.636042
O O2 0.881663 0.153320 0.555632
O O3 0.000000 0.857166 0.546945
O O4 0.777581 0.854425 0.556074
O O5 0.892887 0.070820 0.250000
O O6 0.890792 0.767889 0.186827
O O7 0.745026 0.990765 0.187138
O O8 0.098295 0.523771 0.750000
O O9 0.116835 0.480751 0.614122
O O10 0.630675 0.000000 0.000000
#
# Coordination Sequence:
#
# PCOD9473002 Si02
#       4
#    16  16  16  16
#     4  10  21  36  55  80 109 143 182 223 271 323
#     4   8  14  26  46  72 100 132 173 217 261 314
#     4   8  14  26  46  72 102 136 172 214 264 312
#     4  10  20  36  56  80 112 144 180 226 270 320
#
# _framework density 29.169681000000001
#
# number of rings (size 3 to 8) (size 9 to 14) (size 15 to 20)
#    0.000    3.000    0.000    0.750    0.000    1.500 
#    0.000    1.250    0.000    0.000    0.000    0.000 
#    0.000   72.000    0.000    0.000    0.000    0.000 
#
# Total GULP energy -178422.994993 kJ/mol
# GULP energy per Si atom -5575.718594 kJ/mol
# Density = 2.910329 g / cm^3
# Si number density = 29.169681 Si / 1000 Ang^3
#
#
#
# Elastic Constant Matrix: (Units=GPa)
#
#
# Indices 1 2 3 4 5 6 
#
# 1 231.5047 23.7259 60.1114 0.0000 0.0000 0.0000
# 2 23.7259 141.4830 19.4383 0.0000 0.0000 0.0000
# 3 60.1114 19.4383 269.1032 0.0000 0.0000 0.0000
# 4 0.0000 0.0000 0.0000 8.0337 0.0000 0.0000
# 5 0.0000 0.0000 0.0000 0.0000 -103.7965 0.0000
# 6 0.0000 0.0000 0.0000 0.0000 0.0000 -17.7706
#
#
#
# Elastic Compliance Matrix: (Units=1/GPa)
#
#
# Indices 1 2 3 4 5 6 
#
# 1 0.004643 -0.000642 -0.000991 0.000000 0.000000 0.000000
# 2 -0.000642 0.007228 -0.000379 0.000000 0.000000 0.000000
# 3 -0.000991 -0.000379 0.003965 0.000000 0.000000 0.000000
# 4 0.000000 0.000000 0.000000 0.124475 0.000000 0.000000
# 5 0.000000 0.000000 0.000000 0.000000 -0.009634 0.000000
# 6 0.000000 0.000000 0.000000 0.000000 0.000000 -0.056273
#
#
# Mechanical properties :
#
#
# Convention : Reuss Voigt Hill
#
# Bulk Modulus (GPa) = 84.66172 94.29356 89.47764
# Shear Modulus (GPa) = 60.70644 13.21436 36.96040
#
# Velocity S-wave (km/s) = 4.56691 2.13073 3.56347
# Velocity P-wave (km/s) = 7.54293 6.20076 6.90453
#
# Compressibility (1/GPa) = 0.01181171
#
# Stress axis : x y z
#
# Youngs Moduli (GPa) = 215.39495 138.35592 252.22712
#
# Poissons Ratio (x) = 0.08888 0.24987
# Poissons Ratio (y) = 0.13838 0.09549
# Poissons Ratio (z) = 0.21338 0.05238
#
# Static dielectric constant tensor:
#      x y z
#    x 2.139610 0.000000 0.000000 
#    y 0.000000 2.257950 0.000000 
#    z 0.000000 0.000000 2.433510 
# 
# From -- ./inp_files/60842.got.cif
#   From: 2010.05.17/outbox.cif.g08.bks.cpg/sg63_31_cif.got.tgz:60842.got - 2010.06.03 15:47:04.
