data_PCOD9473286
_publ_section_title
;
Structure prediction by ZEFSAII (Michael W. Deem and Ramdas Pophale) SiO2 
 PCOD9473286
Probable space group: C M C M
;
_chemical_formula_sum "Si O2"
_cell_formula_units_Z 84
_cell_length_a 7.752344
_cell_length_b 19.824835
_cell_length_c 29.706857
_cell_angle_alpha 90.000000
_cell_angle_beta 90.000000
_cell_angle_gamma 90.000000
_cell_volume 4565.615383
_symmetry_space_group_name_H-M "C M C M"
_symmetry_group_IT_number 63
_symmetry_cell_setting 'orthorhombic'
loop_
_space_group_symop_operation_xyz
x,y,z
-x,-y,1/2+z
x,-y,-z
-x,y,1/2-z
-x,-y,-z
x,y,1/2-z
-x,y,z
x,-y,1/2+z
1/2+x,1/2+y,z
1/2-x,1/2-y,1/2+z
1/2+x,1/2-y,-z
1/2-x,1/2+y,1/2-z
1/2-x,1/2-y,-z
1/2+x,1/2+y,1/2-z
1/2-x,1/2+y,z
1/2+x,1/2-y,1/2+z
loop_
_atom_site_type_symbol
_atom_site_label
_atom_site_fract_x
_atom_site_fract_y
_atom_site_fract_z
Si Si1 0.192847 0.373669 0.175421
Si Si2 0.200229 0.378731 0.920521
Si Si3 0.208111 0.877983 0.476116
Si Si4 0.290619 0.729477 0.597959
Si Si5 0.300419 0.525152 0.897306
Si Si6 0.000000 0.873513 0.250000
O O1 0.221188 0.312432 0.140077
O O2 0.205452 0.440788 0.144408
O O3 0.346975 0.373499 0.210897
O O4 0.000000 0.369032 0.194553
O O5 0.269446 0.306499 0.904277
O O6 0.287468 0.445273 0.900946
O O7 0.000000 0.382604 0.907757
O O8 0.214623 0.379844 0.974566
O O9 0.255574 0.811535 0.447437
O O10 0.260081 0.940555 0.444089
O O11 0.000000 0.879911 0.481470
O O12 0.500000 0.729086 0.600112
O O13 0.500000 0.545872 0.892544
#
# Coordination Sequence:
#
# PCOD9473286 Si02
#       6
#    16  16  16  16  16   4
#     4  11  22  39  67  94 112 147 189 233 294 357
#     4  11  21  30  50  82 116 164 201 239 283 338
#     4   9  18  32  50  72 112 162 209 243 283 323
#     4   9  19  37  53  78 121 157 191 246 291 330
#     4  10  20  37  54  78 119 157 193 246 289 332
#     4  12  22  44  68  94 118 136 180 250 296 350
#
# _framework density 18.398396999999999
#
# number of rings (size 3 to 8) (size 9 to 14) (size 15 to 20)
#    0.000    1.905    1.905    3.714    0.000    7.619 
#    0.000    0.000    0.000    1.143    0.000    0.000 
#    0.000    0.000    0.000    0.000    0.000    0.000 
#
# Total GULP energy -233974.884351 kJ/mol
# GULP energy per Si atom -5570.830580 kJ/mol
# Density = 1.835652 g / cm^3
# Si number density = 18.398397 Si / 1000 Ang^3
#
#
#
# Elastic Constant Matrix: (Units=GPa)
#
#
# Indices 1 2 3 4 5 6 
#
# 1 90.0830 13.3295 30.9942 0.0000 0.0000 0.0000
# 2 13.3295 126.0542 33.7530 0.0000 0.0000 0.0000
# 3 30.9942 33.7530 97.3065 0.0000 0.0000 0.0000
# 4 0.0000 0.0000 0.0000 -2.8368 0.0000 0.0000
# 5 0.0000 0.0000 0.0000 0.0000 16.8488 0.0000
# 6 0.0000 0.0000 0.0000 0.0000 0.0000 19.2959
#
#
#
# Elastic Compliance Matrix: (Units=1/GPa)
#
#
# Indices 1 2 3 4 5 6 
#
# 1 0.012476 -0.000281 -0.003876 0.000000 0.000000 0.000000
# 2 -0.000281 0.008752 -0.002946 0.000000 0.000000 0.000000
# 3 -0.003876 -0.002946 0.012533 0.000000 0.000000 0.000000
# 4 0.000000 0.000000 0.000000 -0.352510 0.000000 0.000000
# 5 0.000000 0.000000 0.000000 0.000000 0.059352 0.000000
# 6 0.000000 0.000000 0.000000 0.000000 0.000000 0.051824
#
#
# Mechanical properties :
#
#
# Convention : Reuss Voigt Hill
#
# Bulk Modulus (GPa) = 51.14109 52.17745 51.65927
# Shear Modulus (GPa) = -26.75977 22.35271 -2.20353
#
# Velocity S-wave (km/s) = -3.81788 3.48936 -1.09557
# Velocity P-wave (km/s) = 2.90205 6.68248 5.15157
#
# Compressibility (1/GPa) = 0.01955375
#
# Stress axis : x y z
#
# Youngs Moduli (GPa) = 80.15253 114.26331 79.78662
#
# Poissons Ratio (x) = 0.03215 0.30928
# Poissons Ratio (y) = 0.02255 0.23506
# Poissons Ratio (z) = 0.31070 0.33663
#
# Static dielectric constant tensor:
#      x y z
#    x 1.668630 0.000000 0.000000 
#    y 0.000000 1.643270 0.000000 
#    z 0.000000 0.000000 1.588600 
# 
# From -- ./inp_files/66794.got.cif
#   From: 2010.05.17/outbox.cif.g08.bks.cpg/sg63_34_cif.got.tgz:66794.got - 2010.06.03 15:47:04.
