data_PCOD9473964
_publ_section_title
;
Structure prediction by ZEFSAII (Michael W. Deem and Ramdas Pophale) SiO2 
 PCOD9473964
Probable space group: C M C M
;
_chemical_formula_sum "Si O2"
_cell_formula_units_Z 96
_cell_length_a 11.646354
_cell_length_b 23.898861
_cell_length_c 18.414206
_cell_angle_alpha 90.000000
_cell_angle_beta 90.000000
_cell_angle_gamma 90.000000
_cell_volume 5125.310577
_symmetry_space_group_name_H-M "C M C M"
_symmetry_group_IT_number 63
_symmetry_cell_setting 'orthorhombic'
loop_
_space_group_symop_operation_xyz
x,y,z
-x,-y,1/2+z
x,-y,-z
-x,y,1/2-z
-x,-y,-z
x,y,1/2-z
-x,y,z
x,-y,1/2+z
1/2+x,1/2+y,z
1/2-x,1/2-y,1/2+z
1/2+x,1/2-y,-z
1/2-x,1/2+y,1/2-z
1/2-x,1/2-y,-z
1/2+x,1/2+y,1/2-z
1/2-x,1/2+y,z
1/2+x,1/2-y,1/2+z
loop_
_atom_site_type_symbol
_atom_site_label
_atom_site_fract_x
_atom_site_fract_y
_atom_site_fract_z
Si Si1 0.363142 0.480782 0.168102
Si Si2 0.199139 0.875110 0.428414
Si Si3 0.860819 0.905136 0.590049
Si Si4 0.740168 0.197073 0.167001
Si Si5 0.126273 0.753787 0.042696
Si Si6 0.635323 0.816510 0.170054
O O1 0.315755 0.478817 0.250000
O O2 0.500000 0.487164 0.173692
O O3 0.341923 0.424455 0.123587
O O4 0.324406 0.535749 0.124400
O O5 0.192906 0.896289 0.510598
O O6 0.126840 0.817450 0.427773
O O7 0.318998 0.854280 0.395177
O O8 0.816036 0.854846 0.640319
O O9 0.000000 0.903122 0.583368
O O10 0.701904 0.189426 0.250000
O O11 0.641249 0.210265 0.108585
O O12 0.816095 0.253724 0.163814
O O13 0.000000 0.745312 0.006280
O O14 0.250000 0.750000 0.000000
O O15 0.675059 0.837611 0.250000
O O16 0.500000 0.814682 0.169787
#
# Coordination Sequence:
#
# PCOD9473964 Si02
#       6
#    16  16  16  16  16  16
#     4  10  21  36  56  82 113 152 197 244 297 357
#     4  11  21  35  57  86 117 151 191 246 304 357
#     4  11  21  35  55  84 119 157 197 245 302 360
#     4  10  21  37  57  85 118 157 199 245 295 354
#     4  11  23  39  61  91 126 164 200 245 302 363
#     4   9  19  35  56  83 115 154 199 246 296 355
#
# _framework density 18.730571000000001
#
# number of rings (size 3 to 8) (size 9 to 14) (size 15 to 20)
#    0.000    1.667    1.667    3.500    0.000    6.667 
#    0.000    0.000    0.000    3.000    0.000    0.000 
#    0.000    0.000    0.000    0.000    0.000    0.000 
#
# Total GULP energy -267593.791285 kJ/mol
# GULP energy per Si atom -5574.870652 kJ/mol
# Density = 1.868794 g / cm^3
# Si number density = 18.730571 Si / 1000 Ang^3
#
#
#
# Elastic Constant Matrix: (Units=GPa)
#
#
# Indices 1 2 3 4 5 6 
#
# 1 81.1997 19.0436 27.1923 0.0000 0.0000 0.0000
# 2 19.0436 104.3760 42.9238 0.0000 0.0000 0.0000
# 3 27.1923 42.9238 111.0913 0.0000 0.0000 0.0000
# 4 0.0000 0.0000 0.0000 20.6305 0.0000 0.0000
# 5 0.0000 0.0000 0.0000 0.0000 24.6588 0.0000
# 6 0.0000 0.0000 0.0000 0.0000 0.0000 14.3296
#
#
#
# Elastic Compliance Matrix: (Units=1/GPa)
#
#
# Indices 1 2 3 4 5 6 
#
# 1 0.013566 -0.001319 -0.002811 0.000000 0.000000 0.000000
# 2 -0.001319 0.011519 -0.004128 0.000000 0.000000 0.000000
# 3 -0.002811 -0.004128 0.011285 0.000000 0.000000 0.000000
# 4 0.000000 0.000000 0.000000 0.048472 0.000000 0.000000
# 5 0.000000 0.000000 0.000000 0.000000 0.040553 0.000000
# 6 0.000000 0.000000 0.000000 0.000000 0.000000 0.069785
#
#
# Mechanical properties :
#
#
# Convention : Reuss Voigt Hill
#
# Bulk Modulus (GPa) = 50.36838 52.77625 51.57232
# Shear Modulus (GPa) = 22.90278 25.75761 24.33020
#
# Velocity S-wave (km/s) = 3.50058 3.71234 3.60801
# Velocity P-wave (km/s) = 6.57937 6.82737 6.70452
#
# Compressibility (1/GPa) = 0.01985373
#
# Stress axis : x y z
#
# Youngs Moduli (GPa) = 73.71359 86.81323 88.61660
#
# Poissons Ratio (x) = 0.11452 0.24909
# Poissons Ratio (y) = 0.09724 0.36580
# Poissons Ratio (z) = 0.20720 0.35835
#
# Static dielectric constant tensor:
#      x y z
#    x 1.654640 0.000000 0.000000 
#    y 0.000000 1.637590 0.000000 
#    z 0.000000 0.000000 1.723380 
# 
# From -- ./inp_files/42469.got.cif
#   From: 2010.05.17/outbox.cif.g08.bks.cpg/sg63_22_cif.got.tgz:42469.got - 2010.06.03 15:47:04.
