data_PCOD9473818
_publ_section_title
;
Structure prediction by ZEFSAII (Michael W. Deem and Ramdas Pophale) SiO2 
 PCOD9473818
Probable space group: C M C M
;
_chemical_formula_sum "Si O2"
_cell_formula_units_Z 112
_cell_length_a 24.693971
_cell_length_b 12.527371
_cell_length_c 18.689237
_cell_angle_alpha 90.000000
_cell_angle_beta 90.000000
_cell_angle_gamma 90.000000
_cell_volume 5781.525487
_symmetry_space_group_name_H-M "C M C M"
_symmetry_group_IT_number 63
_symmetry_cell_setting 'orthorhombic'
loop_
_space_group_symop_operation_xyz
x,y,z
-x,-y,1/2+z
x,-y,-z
-x,y,1/2-z
-x,-y,-z
x,y,1/2-z
-x,y,z
x,-y,1/2+z
1/2+x,1/2+y,z
1/2-x,1/2-y,1/2+z
1/2+x,1/2-y,-z
1/2-x,1/2+y,1/2-z
1/2-x,1/2-y,-z
1/2+x,1/2+y,1/2-z
1/2-x,1/2+y,z
1/2+x,1/2-y,1/2+z
loop_
_atom_site_type_symbol
_atom_site_label
_atom_site_fract_x
_atom_site_fract_y
_atom_site_fract_z
Si Si1 0.636911 0.079924 0.438418
Si Si2 0.936140 0.313777 0.829990
Si Si3 0.208785 0.543031 0.671226
Si Si4 0.200041 0.219621 0.949341
Si Si5 0.061700 0.066703 0.836337
Si Si6 0.221010 0.782618 0.834787
Si Si7 0.677637 0.501420 0.113839
O O1 0.591113 0.102593 0.381211
O O2 0.653887 0.195864 0.468212
O O3 0.620504 0.000000 0.500000
O O4 0.685975 0.023650 0.394995
O O5 0.913476 0.321293 0.750000
O O6 0.928628 0.191322 0.854498
O O7 0.000000 0.330524 0.827026
O O8 0.190734 0.507186 0.750000
O O9 0.192992 0.666664 0.661488
O O10 0.274120 0.535167 0.667913
O O11 0.220466 0.257854 0.870108
O O12 0.186376 0.093360 0.945861
O O13 0.250000 0.250000 0.000000
O O14 0.061674 0.059123 0.750000
O O15 0.114766 0.007009 0.864724
O O16 0.000000 0.037276 0.859896
O O17 0.223668 0.810903 0.750000
O O18 0.192051 0.872312 0.883579
#
# Coordination Sequence:
#
# PCOD9473818 Si02
#       7
#    16  16  16  16  16  16  16
#     4  12  22  36  55  79 117 152 188 228 277 340
#     4   9  19  36  58  84 110 140 184 237 289 333
#     4  10  21  35  52  81 117 149 185 228 278 341
#     4  11  24  37  52  80 117 152 188 228 278 338
#     4   9  17  30  51  82 112 135 174 231 282 329
#     4  10  21  35  53  79 111 145 189 232 274 336
#     4  11  19  34  56  79 110 148 183 226 286 335
#
# _framework density 19.372050000000002
#
# number of rings (size 3 to 8) (size 9 to 14) (size 15 to 20)
#    0.000    1.714    2.857    4.286    0.000    2.000 
#    0.000    0.000    0.000    0.857    0.000    7.000 
#    0.000    0.000    0.000    0.000    0.000    0.000 
#
# Total GULP energy -311755.753659 kJ/mol
# GULP energy per Si atom -5567.067030 kJ/mol
# Density = 1.932796 g / cm^3
# Si number density = 19.372050 Si / 1000 Ang^3
#
#
#
# Elastic Constant Matrix: (Units=GPa)
#
#
# Indices 1 2 3 4 5 6 
#
# 1 70.8162 32.0858 3.9898 0.0000 0.0000 0.0000
# 2 32.0858 118.1985 19.8358 0.0000 0.0000 0.0000
# 3 3.9898 19.8358 30.1656 0.0000 0.0000 0.0000
# 4 0.0000 0.0000 0.0000 16.5246 0.0000 0.0000
# 5 0.0000 0.0000 0.0000 0.0000 26.2575 0.0000
# 6 0.0000 0.0000 0.0000 0.0000 0.0000 21.1084
#
#
#
# Elastic Compliance Matrix: (Units=1/GPa)
#
#
# Indices 1 2 3 4 5 6 
#
# 1 0.016120 -0.004517 0.000838 0.000000 0.000000 0.000000
# 2 -0.004517 0.010775 -0.006488 0.000000 0.000000 0.000000
# 3 0.000838 -0.006488 0.037306 0.000000 0.000000 0.000000
# 4 0.000000 0.000000 0.000000 0.060516 0.000000 0.000000
# 5 0.000000 0.000000 0.000000 0.000000 0.038084 0.000000
# 6 0.000000 0.000000 0.000000 0.000000 0.000000 0.047375
#
#
# Mechanical properties :
#
#
# Convention : Reuss Voigt Hill
#
# Bulk Modulus (GPa) = 22.79579 36.77813 29.78696
# Shear Modulus (GPa) = 20.39717 23.66269 22.02993
#
# Velocity S-wave (km/s) = 3.24839 3.49877 3.37590
# Velocity P-wave (km/s) = 5.08550 5.94544 5.53220
#
# Compressibility (1/GPa) = 0.04386775
#
# Stress axis : x y z
#
# Youngs Moduli (GPa) = 62.03374 92.80574 26.80547
#
# Poissons Ratio (x) = 0.41916 -0.02246
# Poissons Ratio (y) = 0.28018 0.17391
# Poissons Ratio (z) = -0.05197 0.60212
#
# Static dielectric constant tensor:
#      x y z
#    x 1.671660 0.000000 0.000000 
#    y 0.000000 1.749980 0.000000 
#    z 0.000000 0.000000 1.744190 
# 
# From -- ./inp_files/57643.got.cif
#   From: 2010.05.17/outbox.cif.g08.bks.cpg/sg63_29_cif.got.tgz:57643.got - 2010.06.03 15:47:04.
