data_PCOD9473284
_publ_section_title
;
Structure prediction by ZEFSAII (Michael W. Deem and Ramdas Pophale) SiO2 
 PCOD9473284
Probable space group: C M C M
;
_chemical_formula_sum "Si O2"
_cell_formula_units_Z 104
_cell_length_a 8.138401
_cell_length_b 27.244833
_cell_length_c 26.936600
_cell_angle_alpha 90.000000
_cell_angle_beta 90.000000
_cell_angle_gamma 90.000000
_cell_volume 5972.635513
_symmetry_space_group_name_H-M "C M C M"
_symmetry_group_IT_number 63
_symmetry_cell_setting 'orthorhombic'
loop_
_space_group_symop_operation_xyz
x,y,z
-x,-y,1/2+z
x,-y,-z
-x,y,1/2-z
-x,-y,-z
x,y,1/2-z
-x,y,z
x,-y,1/2+z
1/2+x,1/2+y,z
1/2-x,1/2-y,1/2+z
1/2+x,1/2-y,-z
1/2-x,1/2+y,1/2-z
1/2-x,1/2-y,-z
1/2+x,1/2+y,1/2-z
1/2-x,1/2+y,z
1/2+x,1/2-y,1/2+z
loop_
_atom_site_type_symbol
_atom_site_label
_atom_site_fract_x
_atom_site_fract_y
_atom_site_fract_z
Si Si1 0.194422 0.402296 0.809735
Si Si2 0.500000 0.472859 0.947899
Si Si3 0.181262 0.589774 0.464326
Si Si4 0.000000 0.029037 0.308465
Si Si5 0.500000 0.439696 0.130548
Si Si6 0.810918 0.730486 0.946527
Si Si7 0.682545 0.376365 0.063300
Si Si8 0.189250 0.320817 0.889584
O O1 0.204752 0.394824 0.750000
O O2 0.331476 0.442939 0.824885
O O3 0.234707 0.353305 0.841505
O O4 0.000000 0.414354 0.820726
O O5 0.666794 0.442023 0.945737
O O6 0.500000 0.514720 0.907158
O O7 0.500000 0.500000 0.000000
O O8 0.199915 0.598943 0.523158
O O9 0.194862 0.641555 0.435951
O O10 0.000000 0.569190 0.453357
O O11 0.000000 0.035292 0.250000
O O12 0.000000 0.970833 0.319729
O O13 0.655003 0.405817 0.114620
O O14 0.720997 0.680583 0.931038
O O15 0.788843 0.773254 0.905991
O O16 0.000000 0.717769 0.952540
O O17 0.750000 0.750000 0.000000
O O18 0.500000 0.380086 0.039379
O O19 0.000000 0.305285 0.883203
#
# Coordination Sequence:
#
# PCOD9473284 Si02
#       8
#    16   8  16   8   8  16  16  16
#     4   9  19  37  60  88 121 145 177 232 291 351
#     4  12  20  36  48  76 106 152 180 218 283 328
#     4  11  21  33  51  75 110 146 187 225 270 335
#     4  10  20  38  66  92 110 146 192 234 291 354
#     4  10  22  38  58  74 114 148 188 238 289 324
#     4  12  23  33  52  79 109 151 202 236 280 330
#     4  10  20  37  51  68 107 148 184 234 272 314
#     4  10  21  34  53  82 110 147 187 231 285 343
#
# _framework density 17.412748000000001
#
# number of rings (size 3 to 8) (size 9 to 14) (size 15 to 20)
#    0.462    1.077    3.846    2.769    2.154    0.308 
#    0.000    1.538    0.000    0.923    0.000    0.000 
#    0.000    0.000    0.000    0.000    0.000    0.000 
#
# Total GULP energy -289659.053587 kJ/mol
# GULP energy per Si atom -5570.366415 kJ/mol
# Density = 1.737312 g / cm^3
# Si number density = 17.412748 Si / 1000 Ang^3
#
#
#
# Elastic Constant Matrix: (Units=GPa)
#
#
# Indices 1 2 3 4 5 6 
#
# 1 97.1577 46.7589 15.0009 0.0000 0.0000 0.0000
# 2 46.7589 94.4253 17.4429 0.0000 0.0000 0.0000
# 3 15.0009 17.4429 45.0295 0.0000 0.0000 0.0000
# 4 0.0000 0.0000 0.0000 24.9882 0.0000 0.0000
# 5 0.0000 0.0000 0.0000 0.0000 11.3788 0.0000
# 6 0.0000 0.0000 0.0000 0.0000 0.0000 27.9623
#
#
#
# Elastic Compliance Matrix: (Units=1/GPa)
#
#
# Indices 1 2 3 4 5 6 
#
# 1 0.013692 -0.006395 -0.002084 0.000000 0.000000 0.000000
# 2 -0.006395 0.014394 -0.003445 0.000000 0.000000 0.000000
# 3 -0.002084 -0.003445 0.024236 0.000000 0.000000 0.000000
# 4 0.000000 0.000000 0.000000 0.040019 0.000000 0.000000
# 5 0.000000 0.000000 0.000000 0.000000 0.087883 0.000000
# 6 0.000000 0.000000 0.000000 0.000000 0.000000 0.035762
#
#
# Mechanical properties :
#
#
# Convention : Reuss Voigt Hill
#
# Bulk Modulus (GPa) = 35.12045 43.89087 39.50566
# Shear Modulus (GPa) = 20.05402 23.35985 21.70694
#
# Velocity S-wave (km/s) = 3.39733 3.66667 3.53457
# Velocity P-wave (km/s) = 5.96677 6.57167 6.27651
#
# Compressibility (1/GPa) = 0.02847344
#
# Stress axis : x y z
#
# Youngs Moduli (GPa) = 73.03447 69.47475 41.26013
#
# Poissons Ratio (x) = 0.44431 0.08599
# Poissons Ratio (y) = 0.46708 0.14215
# Poissons Ratio (z) = 0.15220 0.23935
#
# Static dielectric constant tensor:
#      x y z
#    x 1.503470 0.000000 0.000000 
#    y 0.000000 1.959660 0.000000 
#    z 0.000000 0.000000 0.872090 
# 
# From -- ./inp_files/67567.got.cif
#   From: 2010.05.17/outbox.cif.g08.bks.cpg/sg63_34_cif.got.tgz:67567.got - 2010.06.03 15:47:04.
