data_PCOD9473213
_publ_section_title
;
Structure prediction by ZEFSAII (Michael W. Deem and Ramdas Pophale) SiO2 
 PCOD9473213
Probable space group: C M C M
;
_chemical_formula_sum "Si O2"
_cell_formula_units_Z 96
_cell_length_a 21.277251
_cell_length_b 8.195920
_cell_length_c 25.947567
_cell_angle_alpha 90.000000
_cell_angle_beta 90.000000
_cell_angle_gamma 90.000000
_cell_volume 4524.909207
_symmetry_space_group_name_H-M "C M C M"
_symmetry_group_IT_number 63
_symmetry_cell_setting 'orthorhombic'
loop_
_space_group_symop_operation_xyz
x,y,z
-x,-y,1/2+z
x,-y,-z
-x,y,1/2-z
-x,-y,-z
x,y,1/2-z
-x,y,z
x,-y,1/2+z
1/2+x,1/2+y,z
1/2-x,1/2-y,1/2+z
1/2+x,1/2-y,-z
1/2-x,1/2+y,1/2-z
1/2-x,1/2-y,-z
1/2+x,1/2+y,1/2-z
1/2-x,1/2+y,z
1/2+x,1/2-y,1/2+z
loop_
_atom_site_type_symbol
_atom_site_label
_atom_site_fract_x
_atom_site_fract_y
_atom_site_fract_z
Si Si1 0.779231 0.709908 0.191245
Si Si2 0.928116 0.434764 0.093729
Si Si3 0.849415 0.640231 0.808055
Si Si4 0.430119 0.411850 0.944967
Si Si5 0.192075 0.931685 0.095014
Si Si6 0.189384 0.394905 0.551292
O O1 0.789303 0.772001 0.250000
O O2 0.810804 0.531711 0.189665
O O3 0.703649 0.721011 0.183447
O O4 0.806432 0.827840 0.147408
O O5 0.901914 0.366749 0.148099
O O6 0.925013 0.284259 0.053448
O O7 0.878247 0.568460 0.076245
O O8 0.000000 0.490269 0.097328
O O9 0.874526 0.656570 0.750000
O O10 0.500000 0.446616 0.923408
O O11 0.372292 0.473364 0.911526
O O12 0.426494 0.500000 0.000000
O O13 0.195798 0.798470 0.048523
O O14 0.253316 0.042343 0.086958
O O15 0.192527 0.500000 0.500000
#
# Coordination Sequence:
#
# PCOD9473213 Si02
#       6
#    16  16  16  16  16  16
#     4  10  20  36  60  89 116 149 193 242 302 357
#     4  11  23  40  60  85 119 162 205 248 302 359
#     4  10  21  39  61  90 120 154 197 248 305 358
#     4  10  23  42  62  85 120 163 202 244 299 361
#     4  12  21  38  61  88 120 153 194 251 303 354
#     4  12  24  37  59  90 120 156 200 251 299 355
#
# _framework density 21.215895
#
# number of rings (size 3 to 8) (size 9 to 14) (size 15 to 20)
#    0.000    1.167    3.333    3.000    2.333    1.333 
#    0.000    0.000    0.000    1.500    0.000    0.000 
#    0.000    0.000    0.000    0.000    0.000    0.000 
#
# Total GULP energy -268388.864132 kJ/mol
# GULP energy per Si atom -5591.434669 kJ/mol
# Density = 2.116761 g / cm^3
# Si number density = 21.215895 Si / 1000 Ang^3
#
#
#
# Elastic Constant Matrix: (Units=GPa)
#
#
# Indices 1 2 3 4 5 6 
#
# 1 156.8457 43.8136 28.7826 0.0000 0.0000 0.0000
# 2 43.8136 57.3401 -18.4291 0.0000 0.0000 0.0000
# 3 28.7826 -18.4291 55.4093 0.0000 0.0000 0.0000
# 4 0.0000 0.0000 0.0000 29.6207 0.0000 0.0000
# 5 0.0000 0.0000 0.0000 0.0000 25.7412 0.0000
# 6 0.0000 0.0000 0.0000 0.0000 0.0000 31.0131
#
#
#
# Elastic Compliance Matrix: (Units=1/GPa)
#
#
# Indices 1 2 3 4 5 6 
#
# 1 0.011596 -0.012088 -0.010044 0.000000 0.000000 0.000000
# 2 -0.012088 0.032129 0.016966 0.000000 0.000000 0.000000
# 3 -0.010044 0.016966 0.028908 0.000000 0.000000 0.000000
# 4 0.000000 0.000000 0.000000 0.033760 0.000000 0.000000
# 5 0.000000 0.000000 0.000000 0.000000 0.038848 0.000000
# 6 0.000000 0.000000 0.000000 0.000000 0.000000 0.032244
#
#
# Mechanical properties :
#
#
# Convention : Reuss Voigt Hill
#
# Bulk Modulus (GPa) = 16.05166 41.99217 29.02191
# Shear Modulus (GPa) = 23.97098 31.63684 27.80391
#
# Velocity S-wave (km/s) = 3.36498 3.86578 3.62404
# Velocity P-wave (km/s) = 4.76233 6.30566 5.58754
#
# Compressibility (1/GPa) = 0.06229884
#
# Stress axis : x y z
#
# Youngs Moduli (GPa) = 86.23913 31.12429 34.59289
#
# Poissons Ratio (x) = 0.37624 0.34745
# Poissons Ratio (y) = 1.04249 -0.58689
# Poissons Ratio (z) = 0.86619 -0.52804
#
# Static dielectric constant tensor:
#      x y z
#    x 1.731710 0.000000 0.000000 
#    y 0.000000 1.773940 0.000000 
#    z 0.000000 0.000000 1.829940 
# 
# From -- ./inp_files/70249.got.cif
#   From: 2010.05.17/outbox.cif.g08.bks.cpg/sg63_36_cif.got.tgz:70249.got - 2010.06.03 15:47:04.
