data_PCOD9473977
_publ_section_title
;
Structure prediction by ZEFSAII (Michael W. Deem and Ramdas Pophale) SiO2 
 PCOD9473977
Probable space group: C M C M
;
_chemical_formula_sum "Si O2"
_cell_formula_units_Z 80
_cell_length_a 8.764151
_cell_length_b 27.969925
_cell_length_c 16.296808
_cell_angle_alpha 90.000000
_cell_angle_beta 90.000000
_cell_angle_gamma 90.000000
_cell_volume 3994.879669
_symmetry_space_group_name_H-M "C M C M"
_symmetry_group_IT_number 63
_symmetry_cell_setting 'orthorhombic'
loop_
_space_group_symop_operation_xyz
x,y,z
-x,-y,1/2+z
x,-y,-z
-x,y,1/2-z
-x,-y,-z
x,y,1/2-z
-x,y,z
x,-y,1/2+z
1/2+x,1/2+y,z
1/2-x,1/2-y,1/2+z
1/2+x,1/2-y,-z
1/2-x,1/2+y,1/2-z
1/2-x,1/2-y,-z
1/2+x,1/2+y,1/2-z
1/2-x,1/2+y,z
1/2+x,1/2-y,1/2+z
loop_
_atom_site_type_symbol
_atom_site_label
_atom_site_fract_x
_atom_site_fract_y
_atom_site_fract_z
Si Si1 0.185113 0.452459 0.250000
Si Si2 0.319940 0.782019 0.572713
Si Si3 0.681292 0.386986 0.912185
Si Si4 0.317029 0.064407 0.250000
Si Si5 0.825381 0.188037 0.844346
Si Si6 0.679899 0.900331 0.083208
O O1 0.222370 0.508258 0.250000
O O2 0.237254 0.428299 0.164458
O O3 0.000000 0.447105 0.250000
O O4 0.500000 0.790876 0.559619
O O5 0.250000 0.750000 0.500000
O O6 0.235934 0.831810 0.585035
O O7 0.302637 0.744616 0.647355
O O8 0.500000 0.389078 0.908696
O O9 0.752113 0.411397 0.831980
O O10 0.739512 0.410845 0.997036
O O11 0.500000 0.068994 0.250000
O O12 0.810692 0.174077 0.750000
O O13 0.712978 0.155353 0.896581
O O14 0.000000 0.178257 0.872393
O O15 0.500000 0.908673 0.074214
#
# Coordination Sequence:
#
# PCOD9473977 Si02
#       6
#     8  16  16   8  16  16
#     4   9  22  43  70 101 126 155 210 272 325 387
#     4  11  22  37  60  90 127 172 217 260 310 373
#     4  12  26  44  63  94 133 171 216 264 318 385
#     4  11  25  49  72  91 122 167 216 270 327 385
#     4  10  21  36  56  89 129 167 208 258 314 374
#     4  11  21  39  67  98 128 166 212 263 322 382
#
# _framework density 20.025635000000001
#
# number of rings (size 3 to 8) (size 9 to 14) (size 15 to 20)
#    0.000    1.200    3.000    3.300    1.400    1.600 
#    0.000    8.000    0.000    0.000    0.000    0.000 
#    0.000    0.000    0.000    0.000    0.000    0.000 
#
# Total GULP energy -223468.907419 kJ/mol
# GULP energy per Si atom -5586.722685 kJ/mol
# Density = 1.998006 g / cm^3
# Si number density = 20.025635 Si / 1000 Ang^3
#
#
#
# Elastic Constant Matrix: (Units=GPa)
#
#
# Indices 1 2 3 4 5 6 
#
# 1 106.6610 47.5356 66.8079 0.0000 0.0000 0.0000
# 2 47.5356 115.6897 82.2481 0.0000 0.0000 0.0000
# 3 66.8079 82.2481 168.2022 0.0000 0.0000 0.0000
# 4 0.0000 0.0000 0.0000 28.5053 0.0000 0.0000
# 5 0.0000 0.0000 0.0000 0.0000 30.4501 0.0000
# 6 0.0000 0.0000 0.0000 0.0000 0.0000 22.9836
#
#
#
# Elastic Compliance Matrix: (Units=1/GPa)
#
#
# Indices 1 2 3 4 5 6 
#
# 1 0.012954 -0.002552 -0.003897 0.000000 0.000000 0.000000
# 2 -0.002552 0.013753 -0.005711 0.000000 0.000000 0.000000
# 3 -0.003897 -0.005711 0.010286 0.000000 0.000000 0.000000
# 4 0.000000 0.000000 0.000000 0.035081 0.000000 0.000000
# 5 0.000000 0.000000 0.000000 0.000000 0.032841 0.000000
# 6 0.000000 0.000000 0.000000 0.000000 0.000000 0.043509
#
#
# Mechanical properties :
#
#
# Convention : Reuss Voigt Hill
#
# Bulk Modulus (GPa) = 78.91660 87.08178 82.99919
# Shear Modulus (GPa) = 28.25363 29.31855 28.78609
#
# Velocity S-wave (km/s) = 3.76023 3.83044 3.79550
# Velocity P-wave (km/s) = 7.63844 7.94623 7.79386
#
# Compressibility (1/GPa) = 0.01267161
#
# Stress axis : x y z
#
# Youngs Moduli (GPa) = 77.19686 72.71303 97.22041
#
# Poissons Ratio (x) = 0.18555 0.37890
# Poissons Ratio (y) = 0.19700 0.55525
# Poissons Ratio (z) = 0.30086 0.41528
#
# Static dielectric constant tensor:
#      x y z
#    x 1.692620 0.000000 0.000000 
#    y 0.000000 1.694560 0.000000 
#    z 0.000000 0.000000 1.747990 
# 
# From -- ./inp_files/40639.got.cif
#   From: 2010.05.17/outbox.cif.g08.bks.cpg/sg63_21_cif.got.tgz:40639.got - 2010.06.03 15:47:04.
