data_PCOD9473584
_publ_section_title
;
Structure prediction by ZEFSAII (Michael W. Deem and Ramdas Pophale) SiO2 
 PCOD9473584
Probable space group: C M C M
;
_chemical_formula_sum "Si O2"
_cell_formula_units_Z 68
_cell_length_a 17.766091
_cell_length_b 22.700507
_cell_length_c 7.674068
_cell_angle_alpha 90.000000
_cell_angle_beta 90.000000
_cell_angle_gamma 90.000000
_cell_volume 3094.946046
_symmetry_space_group_name_H-M "C M C M"
_symmetry_group_IT_number 63
_symmetry_cell_setting 'orthorhombic'
loop_
_space_group_symop_operation_xyz
x,y,z
-x,-y,1/2+z
x,-y,-z
-x,y,1/2-z
-x,-y,-z
x,y,1/2-z
-x,y,z
x,-y,1/2+z
1/2+x,1/2+y,z
1/2-x,1/2-y,1/2+z
1/2+x,1/2-y,-z
1/2-x,1/2+y,1/2-z
1/2-x,1/2-y,-z
1/2+x,1/2+y,1/2-z
1/2-x,1/2+y,z
1/2+x,1/2-y,1/2+z
loop_
_atom_site_type_symbol
_atom_site_label
_atom_site_fract_x
_atom_site_fract_y
_atom_site_fract_z
Si Si1 0.833807 0.774649 0.957045
Si Si2 0.417166 0.158453 0.457508
Si Si3 0.634685 0.591869 0.036600
Si Si4 0.699264 0.936521 0.958456
Si Si5 0.500000 0.500000 0.500000
O O1 0.835082 0.778980 0.750000
O O2 0.858628 0.839555 0.019803
O O3 0.750000 0.750000 0.000000
O O4 0.891850 0.725186 0.016268
O O5 0.420200 0.147874 0.250000
O O6 0.500000 0.147424 0.530302
O O7 0.352777 0.115502 0.528968
O O8 0.628974 0.590387 0.250000
O O9 0.715220 0.566492 0.977240
O O10 0.566219 0.551137 0.975793
O O11 0.704508 0.929358 0.750000
O O12 0.665952 0.000000 0.000000
#
# Coordination Sequence:
#
# PCOD9473584 Si02
#       5
#    16  16  16  16   4
#     4  11  22  40  66  93 125 167 214 264 324 386
#     4  10  22  41  62  89 126 164 207 261 320 380
#     4  10  22  39  59  85 123 164 206 255 315 379
#     4  10  20  39  61  85 118 161 203 252 311 373
#     4  12  22  40  60  86 122 172 216 256 318 388
#
# _framework density 21.971302999999999
#
# number of rings (size 3 to 8) (size 9 to 14) (size 15 to 20)
#    0.000    1.647    3.529    1.059    1.647    1.882 
#    0.000    4.706    0.000    0.000    0.000    0.000 
#    0.000    0.000    0.000    0.000    0.000    0.000 
#
# Total GULP energy -189332.382523 kJ/mol
# GULP energy per Si atom -5568.599486 kJ/mol
# Density = 2.192130 g / cm^3
# Si number density = 21.971303 Si / 1000 Ang^3
#
#
#
# Elastic Constant Matrix: (Units=GPa)
#
#
# Indices 1 2 3 4 5 6 
#
# 1 189.8630 96.6114 12.7328 0.0000 0.0000 0.0000
# 2 96.6114 192.3838 -13.3357 0.0000 0.0000 0.0000
# 3 12.7328 -13.3357 34.3154 0.0000 0.0000 0.0000
# 4 0.0000 0.0000 0.0000 11.1944 0.0000 0.0000
# 5 0.0000 0.0000 0.0000 0.0000 -0.8291 0.0000
# 6 0.0000 0.0000 0.0000 0.0000 0.0000 176.3327
#
#
#
# Elastic Compliance Matrix: (Units=1/GPa)
#
#
# Indices 1 2 3 4 5 6 
#
# 1 0.007690 -0.004172 -0.004475 0.000000 0.000000 0.000000
# 2 -0.004172 0.007605 0.004504 0.000000 0.000000 0.000000
# 3 -0.004475 0.004504 0.032552 0.000000 0.000000 0.000000
# 4 0.000000 0.000000 0.000000 0.089331 0.000000 0.000000
# 5 0.000000 0.000000 0.000000 0.000000 -1.206174 0.000000
# 6 0.000000 0.000000 0.000000 0.000000 0.000000 0.005671
#
#
# Mechanical properties :
#
#
# Convention : Reuss Voigt Hill
#
# Bulk Modulus (GPa) = 25.27741 67.61990 46.44866
# Shear Modulus (GPa) = -4.79915 58.70986 26.95536
#
# Velocity S-wave (km/s) = -1.47953 5.17486 3.50643
# Velocity P-wave (km/s) = 2.93445 8.15775 6.13025
#
# Compressibility (1/GPa) = 0.03956101
#
# Stress axis : x y z
#
# Youngs Moduli (GPa) = 130.04079 131.48965 30.72011
#
# Poissons Ratio (x) = 0.54856 0.13746
# Poissons Ratio (y) = 0.54252 -0.13835
# Poissons Ratio (z) = 0.58189 -0.59217
#
# Static dielectric constant tensor:
#      x y z
#    x 1.787260 0.000000 0.000000 
#    y 0.000000 1.816300 0.000000 
#    z 0.000000 0.000000 1.599580 
# 
# From -- ./inp_files/5888.got.cif
#   From: 2010.05.17/outbox.cif.g08.bks.cpg/sg63_3_cif.got.tgz:5888.got - 2010.06.03 15:47:04.
