data_PCOD9473189
_publ_section_title
;
Structure prediction by ZEFSAII (Michael W. Deem and Ramdas Pophale) SiO2 
 PCOD9473189
Probable space group: C M C M
;
_chemical_formula_sum "Si O2"
_cell_formula_units_Z 96
_cell_length_a 10.906220
_cell_length_b 17.718525
_cell_length_c 25.975955
_cell_angle_alpha 90.000000
_cell_angle_beta 90.000000
_cell_angle_gamma 90.000000
_cell_volume 5019.648918
_symmetry_space_group_name_H-M "C M C M"
_symmetry_group_IT_number 63
_symmetry_cell_setting 'orthorhombic'
loop_
_space_group_symop_operation_xyz
x,y,z
-x,-y,1/2+z
x,-y,-z
-x,y,1/2-z
-x,-y,-z
x,y,1/2-z
-x,y,z
x,-y,1/2+z
1/2+x,1/2+y,z
1/2-x,1/2-y,1/2+z
1/2+x,1/2-y,-z
1/2-x,1/2+y,1/2-z
1/2-x,1/2-y,-z
1/2+x,1/2+y,1/2-z
1/2-x,1/2+y,z
1/2+x,1/2-y,1/2+z
loop_
_atom_site_type_symbol
_atom_site_label
_atom_site_fract_x
_atom_site_fract_y
_atom_site_fract_z
Si Si1 0.140236 0.707950 0.862239
Si Si2 0.500000 0.608384 0.460999
Si Si3 0.500000 0.437035 0.077550
Si Si4 0.357778 0.806331 0.250000
Si Si5 0.641629 0.042737 0.448599
Si Si6 0.237178 0.049270 0.860094
Si Si7 0.149183 0.063953 0.750000
Si Si8 0.246658 0.199304 0.449198
O O1 0.149236 0.737714 0.803764
O O2 0.167603 0.618552 0.857581
O O3 0.237610 0.746903 0.899749
O O4 0.000000 0.717662 0.880772
O O5 0.500000 0.601814 0.522578
O O6 0.500000 0.526329 0.435275
O O7 0.621172 0.652309 0.446328
O O8 0.618732 0.418864 0.110518
O O9 0.500000 0.839817 0.250000
O O10 0.238858 0.861868 0.250000
O O11 0.500000 0.020468 0.444946
O O12 0.653903 0.132822 0.452905
O O13 0.693182 0.000000 0.500000
O O14 0.708863 0.014395 0.397348
O O15 0.191456 0.025070 0.803443
O O16 0.000000 0.075862 0.750000
O O17 0.250000 0.250000 0.500000
#
# Coordination Sequence:
#
# PCOD9473189 Si02
#       8
#    16   8   8   8  16  16   8  16
#     4  10  20  38  60  86 115 153 199 249 293 355
#     4  11  22  36  56  82 119 156 194 242 303 364
#     4  11  20  35  58  84 118 155 195 238 300 368
#     4   8  18  36  61  84 115 161 209 245 303 366
#     4  11  24  42  62  87 121 160 203 248 304 369
#     4  11  21  38  62  87 121 158 201 248 306 362
#     4  10  20  36  59  96 125 153 205 265 313 362
#     4  12  24  37  57  85 121 156 199 246 300 360
#
# _framework density 19.124842999999998
#
# number of rings (size 3 to 8) (size 9 to 14) (size 15 to 20)
#    0.000    1.333    3.333    3.500    1.167    2.000 
#    1.500    0.833    0.000    1.000    0.000    0.000 
#    0.000    0.000    0.000    0.000    0.000    0.000 
#
# Total GULP energy -267607.173736 kJ/mol
# GULP energy per Si atom -5575.149453 kJ/mol
# Density = 1.908131 g / cm^3
# Si number density = 19.124843 Si / 1000 Ang^3
#
#
#
# Elastic Constant Matrix: (Units=GPa)
#
#
# Indices 1 2 3 4 5 6 
#
# 1 73.0114 -0.4528 27.4648 0.0000 0.0000 0.0000
# 2 -0.4528 52.5743 43.8272 0.0000 0.0000 0.0000
# 3 27.4648 43.8272 147.8194 0.0000 0.0000 0.0000
# 4 0.0000 0.0000 0.0000 23.6516 0.0000 0.0000
# 5 0.0000 0.0000 0.0000 0.0000 32.0386 0.0000
# 6 0.0000 0.0000 0.0000 0.0000 0.0000 25.7483
#
#
#
# Elastic Compliance Matrix: (Units=1/GPa)
#
#
# Indices 1 2 3 4 5 6 
#
# 1 0.015142 0.003289 -0.003788 0.000000 0.000000 0.000000
# 2 0.003289 0.025980 -0.008314 0.000000 0.000000 0.000000
# 3 -0.003788 -0.008314 0.009934 0.000000 0.000000 0.000000
# 4 0.000000 0.000000 0.000000 0.042280 0.000000 0.000000
# 5 0.000000 0.000000 0.000000 0.000000 0.031212 0.000000
# 6 0.000000 0.000000 0.000000 0.000000 0.000000 0.038838
#
#
# Mechanical properties :
#
#
# Convention : Reuss Voigt Hill
#
# Bulk Modulus (GPa) = 29.91490 46.12040 38.01765
# Shear Modulus (GPa) = 26.02058 29.79208 27.90633
#
# Velocity S-wave (km/s) = 3.69258 3.95114 3.82405
# Velocity P-wave (km/s) = 5.81860 6.70695 6.27850
#
# Compressibility (1/GPa) = 0.03342816
#
# Stress axis : x y z
#
# Youngs Moduli (GPa) = 66.04155 38.49181 100.66593
#
# Poissons Ratio (x) = -0.12658 0.38136
# Poissons Ratio (y) = -0.21718 0.83691
# Poissons Ratio (z) = 0.25019 0.32001
#
# Static dielectric constant tensor:
#      x y z
#    x 1.683770 0.000000 0.000000 
#    y 0.000000 1.673990 0.000000 
#    z 0.000000 0.000000 1.687290 
# 
# From -- ./inp_files/61582.got.cif
#   From: 2010.05.17/outbox.cif.g08.bks.cpg/sg63_31_cif.got.tgz:61582.got - 2010.06.03 15:47:04.
