data_PCOD9473336
_publ_section_title
;
Structure prediction by ZEFSAII (Michael W. Deem and Ramdas Pophale) SiO2 
 PCOD9473336
Probable space group: C M C M
;
_chemical_formula_sum "Si O2"
_cell_formula_units_Z 80
_cell_length_a 27.918143
_cell_length_b 9.170686
_cell_length_c 14.156936
_cell_angle_alpha 90.000000
_cell_angle_beta 90.000000
_cell_angle_gamma 90.000000
_cell_volume 3624.579416
_symmetry_space_group_name_H-M "C M C M"
_symmetry_group_IT_number 63
_symmetry_cell_setting 'orthorhombic'
loop_
_space_group_symop_operation_xyz
x,y,z
-x,-y,1/2+z
x,-y,-z
-x,y,1/2-z
-x,-y,-z
x,y,1/2-z
-x,y,z
x,-y,1/2+z
1/2+x,1/2+y,z
1/2-x,1/2-y,1/2+z
1/2+x,1/2-y,-z
1/2-x,1/2+y,1/2-z
1/2-x,1/2-y,-z
1/2+x,1/2+y,1/2-z
1/2-x,1/2+y,z
1/2+x,1/2-y,1/2+z
loop_
_atom_site_type_symbol
_atom_site_label
_atom_site_fract_x
_atom_site_fract_y
_atom_site_fract_z
Si Si1 0.945166 0.787088 0.065365
Si Si2 0.353414 0.868277 0.576154
Si Si3 0.686826 0.328469 0.924333
Si Si4 0.081618 0.891193 0.859365
Si Si5 0.766452 0.530790 0.646361
O O1 0.906616 0.673479 0.105951
O O2 0.932917 0.944137 0.111721
O O3 0.000000 0.750761 0.084773
O O4 0.938315 0.799789 0.950292
O O5 0.332921 0.722334 0.525985
O O6 0.357097 0.000000 0.500000
O O7 0.313089 0.926412 0.645571
O O8 0.638928 0.367394 0.866681
O O9 0.725607 0.452792 0.912447
O O10 0.714363 0.184597 0.889081
O O11 0.066856 0.860305 0.750000
O O12 0.746599 0.549306 0.750000
#
# Coordination Sequence:
#
# PCOD9473336 Si02
#       5
#    16  16  16  16  16
#     4  10  22  38  59  88 115 148 201 249 292 350
#     4   9  21  40  57  79 115 156 193 238 298 347
#     4  10  22  38  57  83 118 158 198 236 287 353
#     4  10  20  37  59  83 117 153 189 242 298 348
#     4  11  21  35  56  85 117 154 197 239 286 350
#
# _framework density 22.071527
#
# number of rings (size 3 to 8) (size 9 to 14) (size 15 to 20)
#    0.000    2.000    0.000    3.600    2.800    2.800 
#    7.200    0.000    0.000    0.000    0.000    2.800 
#    0.000    0.000    0.000    0.000    0.000    0.000 
#
# Total GULP energy -223316.222445 kJ/mol
# GULP energy per Si atom -5582.905561 kJ/mol
# Density = 2.202129 g / cm^3
# Si number density = 22.071527 Si / 1000 Ang^3
#
#
#
# Elastic Constant Matrix: (Units=GPa)
#
#
# Indices 1 2 3 4 5 6 
#
# 1 159.7751 51.4676 6.8244 0.0000 0.0000 0.0000
# 2 51.4676 41.1341 7.1371 0.0000 0.0000 0.0000
# 3 6.8244 7.1371 48.2415 0.0000 0.0000 0.0000
# 4 0.0000 0.0000 0.0000 3.1699 0.0000 0.0000
# 5 0.0000 0.0000 0.0000 0.0000 11.6959 0.0000
# 6 0.0000 0.0000 0.0000 0.0000 0.0000 21.9071
#
#
#
# Elastic Compliance Matrix: (Units=1/GPa)
#
#
# Indices 1 2 3 4 5 6 
#
# 1 0.010495 -0.013213 0.000470 0.000000 0.000000 0.000000
# 2 -0.013213 0.041586 -0.004283 0.000000 0.000000 0.000000
# 3 0.000470 -0.004283 0.021296 0.000000 0.000000 0.000000
# 4 0.000000 0.000000 0.000000 0.315468 0.000000 0.000000
# 5 0.000000 0.000000 0.000000 0.000000 0.085500 0.000000
# 6 0.000000 0.000000 0.000000 0.000000 0.000000 0.045647
#
#
# Mechanical properties :
#
#
# Convention : Reuss Voigt Hill
#
# Bulk Modulus (GPa) = 25.42908 42.22321 33.82615
# Shear Modulus (GPa) = 8.81595 19.60268 14.20932
#
# Velocity S-wave (km/s) = 2.00073 2.98341 2.54004
# Velocity P-wave (km/s) = 4.10895 5.57129 4.89504
#
# Compressibility (1/GPa) = 0.03932506
#
# Stress axis : x y z
#
# Youngs Moduli (GPa) = 95.28366 24.04635 46.95663
#
# Poissons Ratio (x) = 0.31773 -0.02208
# Poissons Ratio (y) = 1.25899 0.20113
# Poissons Ratio (z) = -0.04480 0.10300
#
# Static dielectric constant tensor:
#      x y z
#    x 1.829970 0.000000 0.000000 
#    y 0.000000 1.810500 0.000000 
#    z 0.000000 0.000000 1.832470 
# 
# From -- ./inp_files/49415.got.cif
#   From: 2010.05.17/outbox.cif.g08.bks.cpg/sg63_25_cif.got.tgz:49415.got - 2010.06.03 15:47:04.
