data_PCOD9473546
_publ_section_title
;
Structure prediction by ZEFSAII (Michael W. Deem and Ramdas Pophale) SiO2 
 PCOD9473546
Probable space group: C M C M
;
_chemical_formula_sum "Si O2"
_cell_formula_units_Z 96
_cell_length_a 15.179371
_cell_length_b 23.623760
_cell_length_c 14.849412
_cell_angle_alpha 90.000000
_cell_angle_beta 90.000000
_cell_angle_gamma 90.000000
_cell_volume 5324.907336
_symmetry_space_group_name_H-M "C M C M"
_symmetry_group_IT_number 63
_symmetry_cell_setting 'orthorhombic'
loop_
_space_group_symop_operation_xyz
x,y,z
-x,-y,1/2+z
x,-y,-z
-x,y,1/2-z
-x,-y,-z
x,y,1/2-z
-x,y,z
x,-y,1/2+z
1/2+x,1/2+y,z
1/2-x,1/2-y,1/2+z
1/2+x,1/2-y,-z
1/2-x,1/2+y,1/2-z
1/2-x,1/2-y,-z
1/2+x,1/2+y,1/2-z
1/2-x,1/2+y,z
1/2+x,1/2-y,1/2+z
loop_
_atom_site_type_symbol
_atom_site_label
_atom_site_fract_x
_atom_site_fract_y
_atom_site_fract_z
Si Si1 0.807511 0.607589 0.146837
Si Si2 0.000000 0.280237 0.006425
Si Si3 0.500000 0.870285 0.648457
Si Si4 0.800106 0.308258 0.021848
Si Si5 0.500000 0.431885 0.849775
Si Si6 0.000000 0.146294 0.973291
Si Si7 0.321470 0.494932 0.607461
Si Si8 0.172433 0.876615 0.352856
O O1 0.793508 0.628502 0.250000
O O2 0.749756 0.552099 0.133201
O O3 0.911159 0.594785 0.135571
O O4 0.789708 0.653236 0.068492
O O5 0.903491 0.297460 0.045146
O O6 0.000000 0.213121 0.992549
O O7 0.000000 0.315528 0.913813
O O8 0.500000 0.849108 0.750000
O O9 0.749565 0.340220 0.101674
O O10 0.750000 0.250000 0.000000
O O11 0.500000 0.404943 0.750000
O O12 0.585291 0.471304 0.858936
O O13 0.500000 0.387972 0.932636
O O14 0.913923 0.130799 0.915148
O O15 0.325222 0.500000 0.500000
O O16 0.303384 0.557104 0.644777
O O17 0.154901 0.859294 0.250000
#
# Coordination Sequence:
#
# PCOD9473546 Si02
#       8
#    16   8   8  16   8   8  16  16
#     4  10  20  38  64  90 120 157 201 255 311 367
#     4  10  22  39  63  86 125 163 203 255 305 357
#     4   8  18  36  61  92 118 151 204 259 307 354
#     4  11  22  41  61  89 126 162 208 258 307 371
#     4  12  24  39  62  92 127 166 203 250 314 379
#     4  12  22  41  62  92 129 162 212 258 308 368
#     4  12  22  41  62  89 127 163 205 256 311 372
#     4  12  25  40  63  93 126 166 209 258 314 370
#
# _framework density 18.028483000000001
#
# number of rings (size 3 to 8) (size 9 to 14) (size 15 to 20)
#    0.000    1.000    5.000    2.500    0.000    1.333 
#    0.000    2.500    0.000    0.000    0.000    0.000 
#    0.000    0.000    0.000    0.000    0.000    0.000 
#
# Total GULP energy -267906.612352 kJ/mol
# GULP energy per Si atom -5581.387757 kJ/mol
# Density = 1.798745 g / cm^3
# Si number density = 18.028483 Si / 1000 Ang^3
#
#
#
# Elastic Constant Matrix: (Units=GPa)
#
#
# Indices 1 2 3 4 5 6 
#
# 1 120.3378 70.7077 47.3454 0.0000 0.0000 0.0000
# 2 70.7077 119.1719 35.3053 0.0000 0.0000 0.0000
# 3 47.3454 35.3053 130.8042 0.0000 0.0000 0.0000
# 4 0.0000 0.0000 0.0000 1.3917 0.0000 0.0000
# 5 0.0000 0.0000 0.0000 0.0000 21.9904 0.0000
# 6 0.0000 0.0000 0.0000 0.0000 0.0000 19.9682
#
#
#
# Elastic Compliance Matrix: (Units=1/GPa)
#
#
# Indices 1 2 3 4 5 6 
#
# 1 0.013775 -0.007278 -0.003022 0.000000 0.000000 0.000000
# 2 -0.007278 0.012966 -0.000865 0.000000 0.000000 0.000000
# 3 -0.003022 -0.000865 0.008972 0.000000 0.000000 0.000000
# 4 0.000000 0.000000 0.000000 0.718537 0.000000 0.000000
# 5 0.000000 0.000000 0.000000 0.000000 0.045474 0.000000
# 6 0.000000 0.000000 0.000000 0.000000 0.000000 0.050080
#
#
# Mechanical properties :
#
#
# Convention : Reuss Voigt Hill
#
# Bulk Modulus (GPa) = 74.71909 75.22563 74.97236
# Shear Modulus (GPa) = 5.70389 23.13377 14.41883
#
# Velocity S-wave (km/s) = 1.78064 3.58603 2.83111
# Velocity P-wave (km/s) = 6.76480 7.67872 7.23621
#
# Compressibility (1/GPa) = 0.01338346
#
# Stress axis : x y z
#
# Youngs Moduli (GPa) = 72.59467 77.12602 111.45480
#
# Poissons Ratio (x) = 0.56132 0.33677
# Poissons Ratio (y) = 0.52834 0.09644
# Poissons Ratio (z) = 0.21935 0.06674
#
# Static dielectric constant tensor:
#      x y z
#    x 1.642300 0.000000 0.000000 
#    y 0.000000 1.586450 0.000000 
#    z 0.000000 0.000000 1.631110 
# 
# From -- ./inp_files/32030.got.cif
#   From: 2010.05.17/outbox.cif.g08.bks.cpg/sg63_17_cif.got.tgz:32030.got - 2010.06.03 15:47:04.
