data_PCOD9473727
_publ_section_title
;
Structure prediction by ZEFSAII (Michael W. Deem and Ramdas Pophale) SiO2 
 PCOD9473727
Probable space group: C M C M
;
_chemical_formula_sum "Si O2"
_cell_formula_units_Z 76
_cell_length_a 22.421598
_cell_length_b 10.754962
_cell_length_c 14.161473
_cell_angle_alpha 90.000000
_cell_angle_beta 90.000000
_cell_angle_gamma 90.000000
_cell_volume 3414.946236
_symmetry_space_group_name_H-M "C M C M"
_symmetry_group_IT_number 63
_symmetry_cell_setting 'orthorhombic'
loop_
_space_group_symop_operation_xyz
x,y,z
-x,-y,1/2+z
x,-y,-z
-x,y,1/2-z
-x,-y,-z
x,y,1/2-z
-x,y,z
x,-y,1/2+z
1/2+x,1/2+y,z
1/2-x,1/2-y,1/2+z
1/2+x,1/2-y,-z
1/2-x,1/2+y,1/2-z
1/2-x,1/2-y,-z
1/2+x,1/2+y,1/2-z
1/2-x,1/2+y,z
1/2+x,1/2-y,1/2+z
loop_
_atom_site_type_symbol
_atom_site_label
_atom_site_fract_x
_atom_site_fract_y
_atom_site_fract_z
Si Si1 0.500000 0.574301 0.855822
Si Si2 0.303452 0.370698 0.250000
Si Si3 0.388289 0.228690 0.896223
Si Si4 0.097287 0.500000 0.500000
Si Si5 0.702959 0.661312 0.250000
Si Si6 0.500000 0.787982 0.250000
Si Si7 0.878114 0.095970 0.564913
Si Si8 0.500000 0.876629 0.861738
O O1 0.500000 0.525209 0.750000
O O2 0.561375 0.530155 0.899825
O O3 0.500000 0.725805 0.856176
O O4 0.281002 0.514959 0.250000
O O5 0.256096 0.260402 0.250000
O O6 0.343884 0.358785 0.343499
O O7 0.366703 0.094563 0.933965
O O8 0.339103 0.304315 0.838466
O O9 0.447114 0.213583 0.832830
O O10 0.399010 0.298706 0.994032
O O11 0.055177 0.570915 0.423124
O O12 0.841902 0.000000 0.500000
O O13 0.500000 0.921832 0.750000
#
# Coordination Sequence:
#
# PCOD9473727 Si02
#       8
#     8   8  16   8   8   4  16   8
#     4  11  21  39  63 105 144 189 220 277 355 438
#     4  12  28  53  77 104 143 191 247 323 367 431
#     4  11  24  44  71 109 142 194 239 296 371 444
#     4  11  22  36  62  98 142 188 238 279 350 424
#     4  11  28  53  77 104 138 188 252 308 382 430
#     4  10  22  42  72 102 160 192 236 296 360 446
#     4  12  24  46  71 103 149 184 236 293 365 445
#     4  10  21  33  55  91 147 185 224 272 334 410
#
# _framework density 22.255109000000001
#
# number of rings (size 3 to 8) (size 9 to 14) (size 15 to 20)
#    0.000    0.842    5.263    2.211    4.421    2.526 
#    3.789    0.000    0.000    0.000    0.000    0.000 
#    0.000    0.000    0.000    0.000    0.000    0.000 
#
# Total GULP energy -211743.622962 kJ/mol
# GULP energy per Si atom -5572.200604 kJ/mol
# Density = 2.220446 g / cm^3
# Si number density = 22.255109 Si / 1000 Ang^3
#
#
#
# Elastic Constant Matrix: (Units=GPa)
#
#
# Indices 1 2 3 4 5 6 
#
# 1 75.3263 17.1940 48.2658 0.0000 0.0000 0.0000
# 2 17.1940 87.1992 42.2731 0.0000 0.0000 0.0000
# 3 48.2658 42.2731 198.0350 0.0000 0.0000 0.0000
# 4 0.0000 0.0000 0.0000 23.2677 0.0000 0.0000
# 5 0.0000 0.0000 0.0000 0.0000 31.9191 0.0000
# 6 0.0000 0.0000 0.0000 0.0000 0.0000 18.6454
#
#
#
# Elastic Compliance Matrix: (Units=1/GPa)
#
#
# Indices 1 2 3 4 5 6 
#
# 1 0.015884 -0.001400 -0.003572 0.000000 0.000000 0.000000
# 2 -0.001400 0.012915 -0.002416 0.000000 0.000000 0.000000
# 3 -0.003572 -0.002416 0.006436 0.000000 0.000000 0.000000
# 4 0.000000 0.000000 0.000000 0.042978 0.000000 0.000000
# 5 0.000000 0.000000 0.000000 0.000000 0.031329 0.000000
# 6 0.000000 0.000000 0.000000 0.000000 0.000000 0.053632
#
#
# Mechanical properties :
#
#
# Convention : Reuss Voigt Hill
#
# Bulk Modulus (GPa) = 48.87875 64.00291 56.44083
# Shear Modulus (GPa) = 27.06048 31.62161 29.34105
#
# Velocity S-wave (km/s) = 3.49079 3.77353 3.63491
# Velocity P-wave (km/s) = 6.18531 6.91428 6.55993
#
# Compressibility (1/GPa) = 0.02045879
#
# Stress axis : x y z
#
# Youngs Moduli (GPa) = 62.95530 77.42838 155.37681
#
# Poissons Ratio (x) = 0.10841 0.55508
# Poissons Ratio (y) = 0.08815 0.37534
# Poissons Ratio (z) = 0.22491 0.18704
#
# Static dielectric constant tensor:
#      x y z
#    x 1.757820 0.000000 0.000000 
#    y 0.000000 2.167600 0.000000 
#    z 0.000000 0.000000 1.842810 
# 
# From -- ./inp_files/36565.got.cif
#   From: 2010.05.17/outbox.cif.g08.bks.cpg/sg63_19_cif.got.tgz:36565.got - 2010.06.03 15:47:04.
