data_PCOD9473117
_publ_section_title
;
Structure prediction by ZEFSAII (Michael W. Deem and Ramdas Pophale) SiO2 
 PCOD9473117
Probable space group: C M C M
;
_chemical_formula_sum "Si O2"
_cell_formula_units_Z 116
_cell_length_a 28.940045
_cell_length_b 25.879351
_cell_length_c 8.222756
_cell_angle_alpha 90.000000
_cell_angle_beta 90.000000
_cell_angle_gamma 90.000000
_cell_volume 6158.429673
_symmetry_space_group_name_H-M "C M C M"
_symmetry_group_IT_number 63
_symmetry_cell_setting 'orthorhombic'
loop_
_space_group_symop_operation_xyz
x,y,z
-x,-y,1/2+z
x,-y,-z
-x,y,1/2-z
-x,-y,-z
x,y,1/2-z
-x,y,z
x,-y,1/2+z
1/2+x,1/2+y,z
1/2-x,1/2-y,1/2+z
1/2+x,1/2-y,-z
1/2-x,1/2+y,1/2-z
1/2-x,1/2-y,-z
1/2+x,1/2+y,1/2-z
1/2-x,1/2+y,z
1/2+x,1/2-y,1/2+z
loop_
_atom_site_type_symbol
_atom_site_label
_atom_site_fract_x
_atom_site_fract_y
_atom_site_fract_z
Si Si1 0.928443 0.867655 0.052712
Si Si2 0.624612 0.164914 0.556669
Si Si3 0.346307 0.553699 0.940436
Si Si4 0.947160 0.748964 0.056554
Si Si5 0.775804 0.699413 0.941397
Si Si6 0.249923 0.908912 0.558014
Si Si7 0.349745 0.944514 0.557079
Si Si8 0.000000 0.887318 0.750000
O O1 0.942646 0.875023 0.250000
O O2 0.880760 0.898566 0.034273
O O3 0.925699 0.805761 0.029856
O O4 0.960524 0.885831 0.900820
O O5 0.628490 0.161352 0.750000
O O6 0.583026 0.202954 0.514819
O O7 0.672671 0.189322 0.489047
O O8 0.621973 0.106338 0.493113
O O9 0.337204 0.549524 0.750000
O O10 0.368268 0.500000 0.000000
O O11 0.297151 0.561367 0.025414
O O12 0.949044 0.741354 0.250000
O O13 0.000000 0.750261 0.993420
O O14 0.780847 0.704519 0.750000
O O15 0.750000 0.750000 0.000000
O O16 0.747447 0.647747 0.980336
O O17 0.255654 0.902314 0.750000
O O18 0.296960 0.935584 0.493323
O O19 0.347768 0.946007 0.750000
O O20 0.367290 0.000000 0.500000
#
# Coordination Sequence:
#
# PCOD9473117 Si02
#       8
#    16  16  16  16  16  16  16   4
#     4  10  24  42  63  91 120 152 199 250 310 370
#     4  10  22  36  56  87 117 151 197 243 288 353
#     4  11  24  41  61  85 121 154 197 252 301 358
#     4  10  21  40  63  86 119 153 193 246 302 360
#     4  10  21  36  52  79 119 158 196 238 292 351
#     4  10  21  36  57  84 114 156 202 242 289 351
#     4  10  20  36  58  84 118 157 198 241 288 342
#     4  12  22  40  74  86 114 156 196 254 310 376
#
# _framework density 18.835971000000001
#
# number of rings (size 3 to 8) (size 9 to 14) (size 15 to 20)
#    0.000    1.793    0.690    2.690    4.828    4.690 
#    0.000    0.345    0.000    0.414    0.000    0.000 
#    0.000    0.000    0.000    0.000    0.000    0.000 
#
# Total GULP energy -322903.827586 kJ/mol
# GULP energy per Si atom -5567.307372 kJ/mol
# Density = 1.879310 g / cm^3
# Si number density = 18.835971 Si / 1000 Ang^3
#
#
#
# Elastic Constant Matrix: (Units=GPa)
#
#
# Indices 1 2 3 4 5 6 
#
# 1 53.8132 53.2099 10.4434 0.0000 0.0000 0.0000
# 2 53.2099 137.9302 14.2860 0.0000 0.0000 0.0000
# 3 10.4434 14.2860 53.4029 0.0000 0.0000 0.0000
# 4 0.0000 0.0000 0.0000 31.3429 0.0000 0.0000
# 5 0.0000 0.0000 0.0000 0.0000 28.1318 0.0000
# 6 0.0000 0.0000 0.0000 0.0000 0.0000 -7.6137
#
#
#
# Elastic Compliance Matrix: (Units=1/GPa)
#
#
# Indices 1 2 3 4 5 6 
#
# 1 0.030471 -0.011455 -0.002895 0.000000 0.000000 0.000000
# 2 -0.011455 0.011763 -0.000907 0.000000 0.000000 0.000000
# 3 -0.002895 -0.000907 0.019534 0.000000 0.000000 0.000000
# 4 0.000000 0.000000 0.000000 0.031905 0.000000 0.000000
# 5 0.000000 0.000000 0.000000 0.000000 0.035547 0.000000
# 6 0.000000 0.000000 0.000000 0.000000 0.000000 -0.131341
#
#
# Mechanical properties :
#
#
# Convention : Reuss Voigt Hill
#
# Bulk Modulus (GPa) = 31.99401 44.55832 38.27616
# Shear Modulus (GPa) = 128.83024 21.51932 75.17478
#
# Velocity S-wave (km/s) = 8.27915 3.38369 6.32431
# Velocity P-wave (km/s) = 10.41225 6.24285 8.58452
#
# Compressibility (1/GPa) = 0.03125585
#
# Stress axis : x y z
#
# Youngs Moduli (GPa) = 32.81768 85.01166 51.19241
#
# Poissons Ratio (x) = 0.97383 0.14818
# Poissons Ratio (y) = 0.37594 0.04641
# Poissons Ratio (z) = 0.09499 0.07707
#
# Static dielectric constant tensor:
#      x y z
#    x 1.712750 0.000000 0.000000 
#    y 0.000000 1.648890 0.000000 
#    z 0.000000 0.000000 1.667550 
# 
# From -- ./inp_files/12927.got.cif
#   From: 2010.05.17/outbox.cif.g08.bks.cpg/sg63_7_cif.got.tgz:12927.got - 2010.06.03 15:47:04.
