data_PCOD9473824
_publ_section_title
;
Structure prediction by ZEFSAII (Michael W. Deem and Ramdas Pophale) SiO2 
 PCOD9473824
Probable space group: C M C M
;
_chemical_formula_sum "Si O2"
_cell_formula_units_Z 96
_cell_length_a 16.043985
_cell_length_b 17.562689
_cell_length_c 15.169897
_cell_angle_alpha 90.000000
_cell_angle_beta 90.000000
_cell_angle_gamma 90.000000
_cell_volume 4274.505598
_symmetry_space_group_name_H-M "C M C M"
_symmetry_group_IT_number 63
_symmetry_cell_setting 'orthorhombic'
loop_
_space_group_symop_operation_xyz
x,y,z
-x,-y,1/2+z
x,-y,-z
-x,y,1/2-z
-x,-y,-z
x,y,1/2-z
-x,y,z
x,-y,1/2+z
1/2+x,1/2+y,z
1/2-x,1/2-y,1/2+z
1/2+x,1/2-y,-z
1/2-x,1/2+y,1/2-z
1/2-x,1/2-y,-z
1/2+x,1/2+y,1/2-z
1/2-x,1/2+y,z
1/2+x,1/2-y,1/2+z
loop_
_atom_site_type_symbol
_atom_site_label
_atom_site_fract_x
_atom_site_fract_y
_atom_site_fract_z
Si Si1 0.720795 0.837784 0.350238
Si Si2 0.407643 0.344550 0.121470
Si Si3 0.596052 0.866486 0.647779
Si Si4 0.911607 0.981121 0.897163
Si Si5 0.232454 0.489437 0.854757
Si Si6 0.593772 0.241640 0.977471
O O1 0.687958 0.837816 0.250000
O O2 0.818352 0.816173 0.345706
O O3 0.721521 0.924231 0.389628
O O4 0.665247 0.783478 0.411097
O O5 0.500000 0.314416 0.149103
O O6 0.409218 0.433631 0.144203
O O7 0.403365 0.327310 0.016095
O O8 0.615121 0.842492 0.750000
O O9 0.500000 0.891610 0.648500
O O10 0.602894 0.805437 0.569243
O O11 0.656630 0.935152 0.622819
O O12 0.820393 0.950003 0.877483
O O13 0.000000 0.944424 0.870287
O O14 0.914771 0.000000 0.000000
O O15 0.232849 0.499195 0.750000
O O16 0.500000 0.227361 0.942692
#
# Coordination Sequence:
#
# PCOD9473824 Si02
#       6
#    16  16  16  16  16  16
#     4  10  21  35  53  80 111 144 181 219 265 321
#     4   9  19  36  56  78 104 136 178 226 271 317
#     4   9  19  35  54  79 109 141 182 227 269 315
#     4   9  18  32  54  79 101 133 173 218 271 323
#     4   9  19  33  51  76 106 141 177 222 270 312
#     4  10  21  36  56  80 109 147 181 219 269 319
#
# _framework density 22.458738
#
# number of rings (size 3 to 8) (size 9 to 14) (size 15 to 20)
#    0.000    2.667    0.000    0.500    4.667    2.333 
#    0.000    8.333    0.000    0.000    0.000    4.667 
#    0.000    0.000    0.000    0.000    0.000    0.000 
#
# Total GULP energy -267545.382654 kJ/mol
# GULP energy per Si atom -5573.862139 kJ/mol
# Density = 2.240762 g / cm^3
# Si number density = 22.458738 Si / 1000 Ang^3
#
#
#
# Elastic Constant Matrix: (Units=GPa)
#
#
# Indices 1 2 3 4 5 6 
#
# 1 133.8460 42.6937 47.0943 0.0000 0.0000 0.0000
# 2 42.6937 45.0893 10.6969 0.0000 0.0000 0.0000
# 3 47.0943 10.6969 67.3277 0.0000 0.0000 0.0000
# 4 0.0000 0.0000 0.0000 15.9958 0.0000 0.0000
# 5 0.0000 0.0000 0.0000 0.0000 5.5013 0.0000
# 6 0.0000 0.0000 0.0000 0.0000 0.0000 20.5483
#
#
#
# Elastic Compliance Matrix: (Units=1/GPa)
#
#
# Indices 1 2 3 4 5 6 
#
# 1 0.013826 -0.011220 -0.007888 0.000000 0.000000 0.000000
# 2 -0.011220 0.032152 0.002740 0.000000 0.000000 0.000000
# 3 -0.007888 0.002740 0.019935 0.000000 0.000000 0.000000
# 4 0.000000 0.000000 0.000000 0.062516 0.000000 0.000000
# 5 0.000000 0.000000 0.000000 0.000000 0.181774 0.000000
# 6 0.000000 0.000000 0.000000 0.000000 0.000000 0.048666
#
#
# Mechanical properties :
#
#
# Convention : Reuss Voigt Hill
#
# Bulk Modulus (GPa) = 30.14211 49.69253 39.91732
# Shear Modulus (GPa) = 12.41731 18.12763 15.27247
#
# Velocity S-wave (km/s) = 2.35392 2.84413 2.61056
# Velocity P-wave (km/s) = 4.56488 5.74104 5.18641
#
# Compressibility (1/GPa) = 0.03317618
#
# Stress axis : x y z
#
# Youngs Moduli (GPa) = 72.33001 31.10249 50.16299
#
# Poissons Ratio (x) = 0.34896 0.39569
# Poissons Ratio (y) = 0.81151 -0.13743
# Poissons Ratio (z) = 0.57055 -0.08521
#
# Static dielectric constant tensor:
#      x y z
#    x 1.843610 0.000000 0.000000 
#    y 0.000000 1.971250 0.000000 
#    z 0.000000 0.000000 1.838980 
# 
# From -- ./inp_files/31898.got.cif
#   From: 2010.05.17/outbox.cif.g08.bks.cpg/sg63_16_cif.got.tgz:31898.got - 2010.06.03 15:47:04.
