data_PCOD9473944
_publ_section_title
;
Structure prediction by ZEFSAII (Michael W. Deem and Ramdas Pophale) SiO2 
 PCOD9473944
Probable space group: C M C M
;
_chemical_formula_sum "Si O2"
_cell_formula_units_Z 80
_cell_length_a 8.973230
_cell_length_b 25.691022
_cell_length_c 18.778154
_cell_angle_alpha 90.000000
_cell_angle_beta 90.000000
_cell_angle_gamma 90.000000
_cell_volume 4328.955058
_symmetry_space_group_name_H-M "C M C M"
_symmetry_group_IT_number 63
_symmetry_cell_setting 'orthorhombic'
loop_
_space_group_symop_operation_xyz
x,y,z
-x,-y,1/2+z
x,-y,-z
-x,y,1/2-z
-x,-y,-z
x,y,1/2-z
-x,y,z
x,-y,1/2+z
1/2+x,1/2+y,z
1/2-x,1/2-y,1/2+z
1/2+x,1/2-y,-z
1/2-x,1/2+y,1/2-z
1/2-x,1/2-y,-z
1/2+x,1/2+y,1/2-z
1/2-x,1/2+y,z
1/2+x,1/2-y,1/2+z
loop_
_atom_site_type_symbol
_atom_site_label
_atom_site_fract_x
_atom_site_fract_y
_atom_site_fract_z
Si Si1 0.677459 0.192101 0.581940
Si Si2 0.320903 0.993030 0.082679
Si Si3 0.322567 0.313501 0.571113
Si Si4 0.678174 0.398180 0.332466
Si Si5 0.321253 0.901196 0.666644
O O1 0.500000 0.184200 0.581933
O O2 0.707887 0.253486 0.592270
O O3 0.742969 0.177323 0.504613
O O4 0.753299 0.155873 0.640289
O O5 0.500000 0.985540 0.086048
O O6 0.283661 0.045257 0.126237
O O7 0.242764 0.943925 0.118548
O O8 0.279736 0.000000 0.000000
O O9 0.500000 0.319261 0.562478
O O10 0.260530 0.353654 0.628456
O O11 0.717886 0.407691 0.250000
O O12 0.500000 0.396470 0.338520
O O13 0.283828 0.904733 0.750000
O O14 0.500000 0.893902 0.660401
#
# Coordination Sequence:
#
# PCOD9473944 Si02
#       5
#    16  16  16  16  16
#     4  10  21  38  60  84 112 149 190 231 280 338
#     4  10  21  38  61  86 111 145 190 234 278 335
#     4  10  21  37  59  86 114 146 188 237 283 330
#     4  11  24  39  57  85 118 150 187 234 286 335
#     4  10  21  36  55  82 117 154 189 228 279 338
#
# _framework density 18.48021
#
# number of rings (size 3 to 8) (size 9 to 14) (size 15 to 20)
#    0.000    1.800    0.000    3.600    0.000    8.800 
#    0.000    4.000    0.000    0.000    0.000    0.000 
#    0.000    0.000    0.000    0.000    0.000    0.000 
#
# Total GULP energy -223580.682334 kJ/mol
# GULP energy per Si atom -5589.517058 kJ/mol
# Density = 1.843815 g / cm^3
# Si number density = 18.480210 Si / 1000 Ang^3
#
#
#
# Elastic Constant Matrix: (Units=GPa)
#
#
# Indices 1 2 3 4 5 6 
#
# 1 39.8600 38.8793 41.8903 0.0000 0.0000 0.0000
# 2 38.8793 67.9863 48.0677 0.0000 0.0000 0.0000
# 3 41.8903 48.0677 98.0737 0.0000 0.0000 0.0000
# 4 0.0000 0.0000 0.0000 -37.4050 0.0000 0.0000
# 5 0.0000 0.0000 0.0000 0.0000 30.6809 0.0000
# 6 0.0000 0.0000 0.0000 0.0000 0.0000 36.1442
#
#
#
# Elastic Compliance Matrix: (Units=1/GPa)
#
#
# Indices 1 2 3 4 5 6 
#
# 1 0.069494 -0.028700 -0.015616 0.000000 0.000000 0.000000
# 2 -0.028700 0.034362 -0.004582 0.000000 0.000000 0.000000
# 3 -0.015616 -0.004582 0.019113 0.000000 0.000000 0.000000
# 4 0.000000 0.000000 0.000000 -0.026734 0.000000 0.000000
# 5 0.000000 0.000000 0.000000 0.000000 0.032594 0.000000
# 6 0.000000 0.000000 0.000000 0.000000 0.000000 0.027667
#
#
# Mechanical properties :
#
#
# Convention : Reuss Voigt Hill
#
# Bulk Modulus (GPa) = 39.73037 51.51052 45.62045
# Shear Modulus (GPa) = 19.03442 11.02287 15.02864
#
# Velocity S-wave (km/s) = 3.21283 2.44492 2.85481
# Velocity P-wave (km/s) = 5.94210 5.99200 5.96710
#
# Compressibility (1/GPa) = 0.02516966
#
# Stress axis : x y z
#
# Youngs Moduli (GPa) = 14.38979 29.10225 52.32152
#
# Poissons Ratio (x) = 0.83524 0.81707
# Poissons Ratio (y) = 0.41299 0.23976
# Poissons Ratio (z) = 0.22472 0.13336
#
# Static dielectric constant tensor:
#      x y z
#    x 1.617380 0.000000 0.000000 
#    y 0.000000 1.614050 0.000000 
#    z 0.000000 0.000000 1.610240 
# 
# From -- ./inp_files/40511.got.cif
#   From: 2010.05.17/outbox.cif.g08.bks.cpg/sg63_21_cif.got.tgz:40511.got - 2010.06.03 15:47:04.
