data_PCOD9473579
_publ_section_title
;
Structure prediction by ZEFSAII (Michael W. Deem and Ramdas Pophale) SiO2 
 PCOD9473579
Probable space group: C M C M
;
_chemical_formula_sum "Si O2"
_cell_formula_units_Z 72
_cell_length_a 10.055281
_cell_length_b 26.701277
_cell_length_c 14.338532
_cell_angle_alpha 90.000000
_cell_angle_beta 90.000000
_cell_angle_gamma 90.000000
_cell_volume 3849.735871
_symmetry_space_group_name_H-M "C M C M"
_symmetry_group_IT_number 63
_symmetry_cell_setting 'orthorhombic'
loop_
_space_group_symop_operation_xyz
x,y,z
-x,-y,1/2+z
x,-y,-z
-x,y,1/2-z
-x,-y,-z
x,y,1/2-z
-x,y,z
x,-y,1/2+z
1/2+x,1/2+y,z
1/2-x,1/2-y,1/2+z
1/2+x,1/2-y,-z
1/2-x,1/2+y,1/2-z
1/2-x,1/2-y,-z
1/2+x,1/2+y,1/2-z
1/2-x,1/2+y,z
1/2+x,1/2-y,1/2+z
loop_
_atom_site_type_symbol
_atom_site_label
_atom_site_fract_x
_atom_site_fract_y
_atom_site_fract_z
Si Si1 0.833741 0.908828 0.250000
Si Si2 0.500000 0.280554 0.365088
Si Si3 0.000000 0.432785 0.862878
Si Si4 0.783436 0.050320 0.444216
Si Si5 0.355722 0.518332 0.250000
Si Si6 0.228706 0.146986 0.935867
Si Si7 0.500000 0.827645 0.541983
O O1 0.769949 0.882676 0.339003
O O2 0.000000 0.900310 0.250000
O O3 0.778342 0.966090 0.250000
O O4 0.500000 0.283609 0.250000
O O5 0.373736 0.308675 0.411967
O O6 0.500000 0.223707 0.400734
O O7 0.127854 0.453055 0.917791
O O8 0.000000 0.442225 0.750000
O O9 0.000000 0.373371 0.884012
O O10 0.843309 0.049904 0.341867
O O11 0.817208 0.102002 0.495123
O O12 0.823890 0.000000 0.500000
O O13 0.500000 0.495634 0.250000
O O14 0.368120 0.166336 0.977739
#
# Coordination Sequence:
#
# PCOD9473579 Si02
#       7
#     8   8   8  16   8  16   8
#     4  11  20  39  61  92 124 169 210 247 301 374
#     4  12  23  44  69  87 118 167 214 256 316 378
#     4  10  20  39  59  82 118 157 198 246 305 375
#     4  11  22  37  59  89 124 160 200 249 302 366
#     4  11  24  35  57  90 128 170 209 240 304 361
#     4  11  22  40  65  91 124 160 208 256 308 366
#     4  10  25  40  63  93 120 155 207 265 319 356
#
# _framework density 18.702582
#
# number of rings (size 3 to 8) (size 9 to 14) (size 15 to 20)
#    0.000    1.111    5.556    1.333    1.556    0.889 
#    0.000    1.111    0.000    0.000    0.000    0.000 
#    0.000    0.000    0.000    0.000    0.000    0.000 
#
# Total GULP energy -200428.089520 kJ/mol
# GULP energy per Si atom -5567.446931 kJ/mol
# Density = 1.866001 g / cm^3
# Si number density = 18.702582 Si / 1000 Ang^3
#
#
#
# Elastic Constant Matrix: (Units=GPa)
#
#
# Indices 1 2 3 4 5 6 
#
# 1 66.7710 28.0417 29.7169 0.0000 0.0000 0.0000
# 2 28.0417 111.8568 67.8855 0.0000 0.0000 0.0000
# 3 29.7169 67.8855 155.5997 0.0000 0.0000 0.0000
# 4 0.0000 0.0000 0.0000 124.2609 0.0000 0.0000
# 5 0.0000 0.0000 0.0000 0.0000 19.1949 0.0000
# 6 0.0000 0.0000 0.0000 0.0000 0.0000 10.5391
#
#
#
# Elastic Compliance Matrix: (Units=1/GPa)
#
#
# Indices 1 2 3 4 5 6 
#
# 1 0.017143 -0.003143 -0.001903 0.000000 0.000000 0.000000
# 2 -0.003143 0.012736 -0.004956 0.000000 0.000000 0.000000
# 3 -0.001903 -0.004956 0.008952 0.000000 0.000000 0.000000
# 4 0.000000 0.000000 0.000000 0.008048 0.000000 0.000000
# 5 0.000000 0.000000 0.000000 0.000000 0.052097 0.000000
# 6 0.000000 0.000000 0.000000 0.000000 0.000000 0.094885
#
#
# Mechanical properties :
#
#
# Convention : Reuss Voigt Hill
#
# Bulk Modulus (GPa) = 53.11315 65.05730 59.08523
# Shear Modulus (GPa) = 22.71274 44.70454 33.70864
#
# Velocity S-wave (km/s) = 3.48863 4.89436 4.25002
# Velocity P-wave (km/s) = 6.68490 8.17315 7.46620
#
# Compressibility (1/GPa) = 0.01882773
#
# Stress axis : x y z
#
# Youngs Moduli (GPa) = 58.33159 78.51904 111.70118
#
# Poissons Ratio (x) = 0.24677 0.21256
# Poissons Ratio (y) = 0.18333 0.55361
# Poissons Ratio (z) = 0.11100 0.38915
#
# Static dielectric constant tensor:
#      x y z
#    x 1.921830 0.000000 0.000000 
#    y 0.000000 1.650610 0.000000 
#    z 0.000000 0.000000 1.644420 
# 
# From -- ./inp_files/17675.got.cif
#   From: 2010.05.17/outbox.cif.g08.bks.cpg/sg63_9_cif.got.tgz:17675.got - 2010.06.03 15:47:04.
