data_PCOD9473386
_publ_section_title
;
Structure prediction by ZEFSAII (Michael W. Deem and Ramdas Pophale) SiO2 
 PCOD9473386
Probable space group: C M C M
;
_chemical_formula_sum "Si O2"
_cell_formula_units_Z 112
_cell_length_a 23.989679
_cell_length_b 13.024915
_cell_length_c 14.728872
_cell_angle_alpha 90.000000
_cell_angle_beta 90.000000
_cell_angle_gamma 90.000000
_cell_volume 4602.235336
_symmetry_space_group_name_H-M "C M C M"
_symmetry_group_IT_number 63
_symmetry_cell_setting 'orthorhombic'
loop_
_space_group_symop_operation_xyz
x,y,z
-x,-y,1/2+z
x,-y,-z
-x,y,1/2-z
-x,-y,-z
x,y,1/2-z
-x,y,z
x,-y,1/2+z
1/2+x,1/2+y,z
1/2-x,1/2-y,1/2+z
1/2+x,1/2-y,-z
1/2-x,1/2+y,1/2-z
1/2-x,1/2-y,-z
1/2+x,1/2+y,1/2-z
1/2-x,1/2+y,z
1/2+x,1/2-y,1/2+z
loop_
_atom_site_type_symbol
_atom_site_label
_atom_site_fract_x
_atom_site_fract_y
_atom_site_fract_z
Si Si1 0.062112 0.427945 0.359244
Si Si2 0.934820 0.775390 0.976709
Si Si3 0.264429 0.204330 0.645157
Si Si4 0.631389 0.687978 0.853249
Si Si5 0.609161 0.452732 0.651819
Si Si6 0.718526 0.408672 0.928333
Si Si7 0.826129 0.486047 0.855359
O O1 0.067200 0.415050 0.250000
O O2 0.070266 0.318282 0.406260
O O3 0.111083 0.504062 0.387482
O O4 0.000000 0.465692 0.379994
O O5 0.914046 0.879594 0.926656
O O6 0.000000 0.786481 0.000084
O O7 0.898389 0.753275 0.065705
O O8 0.271077 0.241063 0.750000
O O9 0.198367 0.182803 0.633145
O O10 0.288948 0.285730 0.573452
O O11 0.297959 0.098593 0.638353
O O12 0.622212 0.725358 0.750000
O O13 0.603529 0.574478 0.859908
O O14 0.585972 0.421815 0.750000
O O15 0.675987 0.439235 0.650600
O O16 0.783925 0.415694 0.908943
O O17 0.706293 0.500000 0.000000
O O18 0.825002 0.454847 0.750000
#
# Coordination Sequence:
#
# PCOD9473386 Si02
#       7
#    16  16  16  16  16  16  16
#     4   9  19  36  59  88 120 154 197 256 317 363
#     4  11  23  38  61  89 121 161 212 260 306 371
#     4  10  21  38  59  84 121 164 204 256 312 371
#     4  10  22  39  59  82 122 168 204 252 315 375
#     4  11  22  39  58  84 125 164 205 259 313 367
#     4  12  24  35  59  93 125 163 207 260 312 379
#     4  10  20  37  61  88 120 163 206 249 311 376
#
# _framework density 24.336002000000001
#
# number of rings (size 3 to 8) (size 9 to 14) (size 15 to 20)
#    0.000    1.571    1.429    3.857    2.000    4.000 
#    0.000    1.429    0.000    1.286    0.000    2.000 
#    0.000    0.000    0.000    0.000    0.000    0.000 
#
# Total GULP energy -313174.257351 kJ/mol
# GULP energy per Si atom -5592.397453 kJ/mol
# Density = 2.428061 g / cm^3
# Si number density = 24.336002 Si / 1000 Ang^3
#
#
#
# Elastic Constant Matrix: (Units=GPa)
#
#
# Indices 1 2 3 4 5 6 
#
# 1 112.6879 4.9371 23.7719 0.0000 0.0000 0.0000
# 2 4.9371 79.8067 12.4648 0.0000 0.0000 0.0000
# 3 23.7719 12.4648 107.4054 0.0000 0.0000 0.0000
# 4 0.0000 0.0000 0.0000 11.9178 0.0000 0.0000
# 5 0.0000 0.0000 0.0000 0.0000 28.6610 0.0000
# 6 0.0000 0.0000 0.0000 0.0000 0.0000 34.1887
#
#
#
# Elastic Compliance Matrix: (Units=1/GPa)
#
#
# Indices 1 2 3 4 5 6 
#
# 1 0.009314 -0.000259 -0.002031 0.000000 0.000000 0.000000
# 2 -0.000259 0.012769 -0.001425 0.000000 0.000000 0.000000
# 3 -0.002031 -0.001425 0.009925 0.000000 0.000000 0.000000
# 4 0.000000 0.000000 0.000000 0.083908 0.000000 0.000000
# 5 0.000000 0.000000 0.000000 0.000000 0.034891 0.000000
# 6 0.000000 0.000000 0.000000 0.000000 0.000000 0.029249
#
#
# Mechanical properties :
#
#
# Convention : Reuss Voigt Hill
#
# Bulk Modulus (GPa) = 40.68605 42.47196 41.57900
# Shear Modulus (GPa) = 25.55206 32.20191 28.87699
#
# Velocity S-wave (km/s) = 3.24384 3.64156 3.44844
# Velocity P-wave (km/s) = 5.54840 5.93055 5.74266
#
# Compressibility (1/GPa) = 0.02457845
#
# Stress axis : x y z
#
# Youngs Moduli (GPa) = 107.36598 78.31591 100.75112
#
# Poissons Ratio (x) = 0.02028 0.20466
# Poissons Ratio (y) = 0.02780 0.14353
# Poissons Ratio (z) = 0.21810 0.11157
#
# Static dielectric constant tensor:
#      x y z
#    x 1.919960 0.000000 0.000000 
#    y 0.000000 1.948580 0.000000 
#    z 0.000000 0.000000 1.988240 
# 
# From -- ./inp_files/36880.got.cif
#   From: 2010.05.17/outbox.cif.g08.bks.cpg/sg63_19_cif.got.tgz:36880.got - 2010.06.03 15:47:04.
