data_PCOD9473516
_publ_section_title
;
Structure prediction by ZEFSAII (Michael W. Deem and Ramdas Pophale) SiO2 
 PCOD9473516
Probable space group: C M C M
;
_chemical_formula_sum "Si O2"
_cell_formula_units_Z 96
_cell_length_a 23.977723
_cell_length_b 25.956936
_cell_length_c 8.639448
_cell_angle_alpha 90.000000
_cell_angle_beta 90.000000
_cell_angle_gamma 90.000000
_cell_volume 5377.090674
_symmetry_space_group_name_H-M "C M C M"
_symmetry_group_IT_number 63
_symmetry_cell_setting 'orthorhombic'
loop_
_space_group_symop_operation_xyz
x,y,z
-x,-y,1/2+z
x,-y,-z
-x,y,1/2-z
-x,-y,-z
x,y,1/2-z
-x,y,z
x,-y,1/2+z
1/2+x,1/2+y,z
1/2-x,1/2-y,1/2+z
1/2+x,1/2-y,-z
1/2-x,1/2+y,1/2-z
1/2-x,1/2-y,-z
1/2+x,1/2+y,1/2-z
1/2-x,1/2+y,z
1/2+x,1/2-y,1/2+z
loop_
_atom_site_type_symbol
_atom_site_label
_atom_site_fract_x
_atom_site_fract_y
_atom_site_fract_z
Si Si1 0.690528 0.943609 0.436056
Si Si2 0.618511 0.845530 0.436558
Si Si3 0.812393 0.248716 0.935336
Si Si4 0.500000 0.307470 0.436038
Si Si5 0.116752 0.846152 0.565067
Si Si6 0.680607 0.443118 0.436193
Si Si7 0.500000 0.814466 0.564146
O O1 0.689253 0.946039 0.250000
O O2 0.648772 0.898494 0.485393
O O3 0.754743 0.931401 0.480542
O O4 0.676451 0.000000 0.500000
O O5 0.619079 0.842737 0.250000
O O6 0.653673 0.797958 0.503758
O O7 0.555726 0.839952 0.497059
O O8 0.811981 0.248490 0.750000
O O9 0.750000 0.250000 0.000000
O O10 0.843250 0.197936 0.996360
O O11 0.500000 0.310949 0.250000
O O12 0.555162 0.333780 0.503050
O O13 0.500000 0.246533 0.477019
O O14 0.117426 0.843851 0.750000
O O15 0.140134 0.900614 0.506960
O O16 0.668215 0.500000 0.500000
O O17 0.676908 0.442537 0.250000
O O18 0.500000 0.817964 0.750000
#
# Coordination Sequence:
#
# PCOD9473516 Si02
#       7
#    16  16  16   8  16  16   8
#     4   9  20  37  60  88 118 154 194 239 293 350
#     4  11  22  38  60  87 118 154 197 245 297 353
#     4  12  24  38  57  86 120 155 193 241 298 356
#     4  11  23  41  62  85 117 158 202 246 297 353
#     4  12  24  39  61  89 119 156 200 245 298 356
#     4  10  20  38  62  89 123 159 198 244 296 356
#     4  11  23  39  60  85 115 158 203 244 296 354
#
# _framework density 17.853521000000001
#
# number of rings (size 3 to 8) (size 9 to 14) (size 15 to 20)
#    0.000    1.167    1.667    5.500    0.000    4.000 
#    0.000    0.833    0.000    0.000    0.000    0.000 
#    0.000    0.000    0.000    0.000    0.000    0.000 
#
# Total GULP energy -268415.109629 kJ/mol
# GULP energy per Si atom -5591.981451 kJ/mol
# Density = 1.781289 g / cm^3
# Si number density = 17.853521 Si / 1000 Ang^3
#
#
#
# Elastic Constant Matrix: (Units=GPa)
#
#
# Indices 1 2 3 4 5 6 
#
# 1 165.1911 95.0449 60.8050 0.0000 0.0000 0.0000
# 2 95.0449 139.6392 56.3257 0.0000 0.0000 0.0000
# 3 60.8050 56.3257 105.1352 0.0000 0.0000 0.0000
# 4 0.0000 0.0000 0.0000 34.1962 0.0000 0.0000
# 5 0.0000 0.0000 0.0000 0.0000 38.7602 0.0000
# 6 0.0000 0.0000 0.0000 0.0000 0.0000 55.9542
#
#
#
# Elastic Compliance Matrix: (Units=1/GPa)
#
#
# Indices 1 2 3 4 5 6 
#
# 1 0.010596 -0.006047 -0.002889 0.000000 0.000000 0.000000
# 2 -0.006047 0.012586 -0.003246 0.000000 0.000000 0.000000
# 3 -0.002889 -0.003246 0.012921 0.000000 0.000000 0.000000
# 4 0.000000 0.000000 0.000000 0.029243 0.000000 0.000000
# 5 0.000000 0.000000 0.000000 0.000000 0.025800 0.000000
# 6 0.000000 0.000000 0.000000 0.000000 0.000000 0.017872
#
#
# Mechanical properties :
#
#
# Convention : Reuss Voigt Hill
#
# Bulk Modulus (GPa) = 85.17331 92.70185 88.93758
# Shear Modulus (GPa) = 36.41803 38.96810 37.69306
#
# Velocity S-wave (km/s) = 4.52134 4.67696 4.59981
# Velocity P-wave (km/s) = 8.66412 9.01119 8.83936
#
# Compressibility (1/GPa) = 0.01174077
#
# Stress axis : x y z
#
# Youngs Moduli (GPa) = 94.37442 79.45045 77.39270
#
# Poissons Ratio (x) = 0.48044 0.22356
# Poissons Ratio (y) = 0.57069 0.25120
# Poissons Ratio (z) = 0.27261 0.25788
#
# Static dielectric constant tensor:
#      x y z
#    x 1.594030 0.000000 0.000000 
#    y 0.000000 1.594320 0.000000 
#    z 0.000000 0.000000 1.593630 
# 
# From -- ./inp_files/10543.got.cif
#   From: 2010.05.17/outbox.cif.g08.bks.cpg/sg63_6_cif.got.tgz:10543.got - 2010.06.03 15:47:04.
