data_PCOD9473003
_publ_section_title
;
Structure prediction by ZEFSAII (Michael W. Deem and Ramdas Pophale) SiO2 
 PCOD9473003
Probable space group: C M C M
;
_chemical_formula_sum "Si O2"
_cell_formula_units_Z 88
_cell_length_a 31.581600
_cell_length_b 18.153340
_cell_length_c 8.645428
_cell_angle_alpha 90.000000
_cell_angle_beta 90.000000
_cell_angle_gamma 90.000000
_cell_volume 4956.523490
_symmetry_space_group_name_H-M "C M C M"
_symmetry_group_IT_number 63
_symmetry_cell_setting 'orthorhombic'
loop_
_space_group_symop_operation_xyz
x,y,z
-x,-y,1/2+z
x,-y,-z
-x,y,1/2-z
-x,-y,-z
x,y,1/2-z
-x,y,z
x,-y,1/2+z
1/2+x,1/2+y,z
1/2-x,1/2-y,1/2+z
1/2+x,1/2-y,-z
1/2-x,1/2+y,1/2-z
1/2-x,1/2-y,-z
1/2+x,1/2+y,1/2-z
1/2-x,1/2+y,z
1/2+x,1/2-y,1/2+z
loop_
_atom_site_type_symbol
_atom_site_label
_atom_site_fract_x
_atom_site_fract_y
_atom_site_fract_z
Si Si1 0.333572 0.076023 0.935517
Si Si2 0.914542 0.646934 0.065395
Si Si3 0.883412 0.197821 0.064367
Si Si4 0.500000 0.917908 0.434994
Si Si5 0.548361 0.417116 0.435835
Si Si6 0.203714 0.264730 0.064253
O O1 0.337003 0.072625 0.750000
O O2 0.309197 0.151378 0.977463
O O3 0.379435 0.088361 0.011263
O O4 0.314890 0.000000 0.000000
O O5 0.914469 0.653338 0.250000
O O6 0.903002 0.724634 0.988524
O O7 0.959141 0.622107 0.001131
O O8 0.883916 0.191767 0.250000
O O9 0.833914 0.208244 0.014166
O O10 0.913614 0.134326 0.996659
O O11 0.500000 0.918263 0.250000
O O12 0.500000 0.000000 0.500000
O O13 0.553210 0.500000 0.500000
O O14 0.550025 0.418327 0.250000
O O15 0.500000 0.392223 0.479911
O O16 0.204770 0.261129 0.250000
O O17 0.250000 0.250000 0.000000
#
# Coordination Sequence:
#
# PCOD9473003 Si02
#       6
#    16  16  16   8  16  16
#     4  10  20  36  56  81 109 141 181 224 273 331
#     4  11  22  36  54  78 107 143 184 226 269 320
#     4  10  21  38  58  83 113 148 187 229 281 338
#     4  12  24  38  52  72 105 144 181 224 270 314
#     4  10  21  37  58  85 116 151 193 239 289 345
#     4   9  20  37  58  83 112 144 184 232 283 341
#
# _framework density 17.754380000000001
#
# number of rings (size 3 to 8) (size 9 to 14) (size 15 to 20)
#    0.000    1.818    0.000    5.727    1.273    5.455 
#    0.000    0.909    0.000    2.182    0.000    0.000 
#    0.000    0.000    0.000    0.000    0.000    0.000 
#
# Total GULP energy -245506.299296 kJ/mol
# GULP energy per Si atom -5579.688620 kJ/mol
# Density = 1.771397 g / cm^3
# Si number density = 17.754380 Si / 1000 Ang^3
#
#
#
# Elastic Constant Matrix: (Units=GPa)
#
#
# Indices 1 2 3 4 5 6 
#
# 1 165.3773 68.7930 36.1820 0.0000 0.0000 0.0000
# 2 68.7930 89.2500 22.7293 0.0000 0.0000 0.0000
# 3 36.1820 22.7293 50.6738 0.0000 0.0000 0.0000
# 4 0.0000 0.0000 0.0000 36.3979 0.0000 0.0000
# 5 0.0000 0.0000 0.0000 0.0000 32.9243 0.0000
# 6 0.0000 0.0000 0.0000 0.0000 0.0000 17.4825
#
#
#
# Elastic Compliance Matrix: (Units=1/GPa)
#
#
# Indices 1 2 3 4 5 6 
#
# 1 0.009561 -0.006357 -0.003975 0.000000 0.000000 0.000000
# 2 -0.006357 0.016876 -0.003031 0.000000 0.000000 0.000000
# 3 -0.003975 -0.003031 0.023932 0.000000 0.000000 0.000000
# 4 0.000000 0.000000 0.000000 0.027474 0.000000 0.000000
# 5 0.000000 0.000000 0.000000 0.000000 0.030373 0.000000
# 6 0.000000 0.000000 0.000000 0.000000 0.000000 0.057200
#
#
# Mechanical properties :
#
#
# Convention : Reuss Voigt Hill
#
# Bulk Modulus (GPa) = 42.29565 62.30106 52.29835
# Shear Modulus (GPa) = 24.99717 29.20073 27.09895
#
# Velocity S-wave (km/s) = 3.75633 4.05990 3.91106
# Velocity P-wave (km/s) = 6.53358 7.55935 7.06511
#
# Compressibility (1/GPa) = 0.02364309
#
# Stress axis : x y z
#
# Youngs Moduli (GPa) = 104.59283 59.25489 41.78535
#
# Poissons Ratio (x) = 0.37669 0.16611
# Poissons Ratio (y) = 0.66490 0.12664
# Poissons Ratio (z) = 0.41578 0.17958
#
# Static dielectric constant tensor:
#      x y z
#    x 1.602160 0.000000 0.000000 
#    y 0.000000 1.590950 0.000000 
#    z 0.000000 0.000000 1.593900 
# 
# From -- ./inp_files/14148.got.cif
#   From: 2010.05.17/outbox.cif.g08.bks.cpg/sg63_8_cif.got.tgz:14148.got - 2010.06.03 15:47:04.
