data_PCOD9473093
_publ_section_title
;
Structure prediction by ZEFSAII (Michael W. Deem and Ramdas Pophale) SiO2 
 PCOD9473093
Probable space group: C M C M
;
_chemical_formula_sum "Si O2"
_cell_formula_units_Z 96
_cell_length_a 7.695521
_cell_length_b 25.092597
_cell_length_c 22.451119
_cell_angle_alpha 90.000000
_cell_angle_beta 90.000000
_cell_angle_gamma 90.000000
_cell_volume 4335.324710
_symmetry_space_group_name_H-M "C M C M"
_symmetry_group_IT_number 63
_symmetry_cell_setting 'orthorhombic'
loop_
_space_group_symop_operation_xyz
x,y,z
-x,-y,1/2+z
x,-y,-z
-x,y,1/2-z
-x,-y,-z
x,y,1/2-z
-x,y,z
x,-y,1/2+z
1/2+x,1/2+y,z
1/2-x,1/2-y,1/2+z
1/2+x,1/2-y,-z
1/2-x,1/2+y,1/2-z
1/2-x,1/2-y,-z
1/2+x,1/2+y,1/2-z
1/2-x,1/2+y,z
1/2+x,1/2-y,1/2+z
loop_
_atom_site_type_symbol
_atom_site_label
_atom_site_fract_x
_atom_site_fract_y
_atom_site_fract_z
Si Si1 0.797348 0.691444 0.184495
Si Si2 0.708737 0.256379 0.070437
Si Si3 0.698069 0.426720 0.839539
Si Si4 0.710698 0.376606 0.418727
Si Si5 0.202995 0.555049 0.470742
Si Si6 0.211918 0.955148 0.185054
O O1 0.722378 0.706594 0.250000
O O2 0.725019 0.716240 0.122434
O O3 0.788387 0.627468 0.179525
O O4 0.000000 0.707154 0.186241
O O5 0.500000 0.253075 0.072089
O O6 0.764280 0.315785 0.089421
O O7 0.750000 0.250000 0.000000
O O8 0.500000 0.423322 0.818283
O O9 0.700680 0.430428 0.910824
O O10 0.772826 0.483792 0.819896
O O11 0.500000 0.377993 0.419534
O O12 0.776493 0.398820 0.481232
O O13 0.772212 0.417203 0.367777
O O14 0.268214 0.500000 0.500000
O O15 0.000000 0.547549 0.455998
O O16 0.257389 0.933696 0.250000
O O17 0.000000 0.957386 0.180974
#
# Coordination Sequence:
#
# PCOD9473093 Si02
#       6
#    16  16  16  16  16  16
#     4  10  22  40  60  85 120 160 200 244 297 356
#     4  10  22  39  60  85 113 150 196 244 294 347
#     4  11  21  35  58  85 116 150 191 238 285 342
#     4  10  20  36  58  83 110 144 188 234 285 339
#     4  11  22  35  54  82 117 151 186 228 286 355
#     4   9  18  32  52  80 111 140 175 225 279 331
#
# _framework density 22.143668999999999
#
# number of rings (size 3 to 8) (size 9 to 14) (size 15 to 20)
#    0.000    1.833    1.667    2.500    0.000    6.333 
#    0.000    3.333    0.000    1.500    0.000    2.333 
#    0.000    0.000    0.000    0.000    0.000    0.000 
#
# Total GULP energy -268071.209681 kJ/mol
# GULP energy per Si atom -5584.816868 kJ/mol
# Density = 2.209327 g / cm^3
# Si number density = 22.143669 Si / 1000 Ang^3
#
#
#
# Elastic Constant Matrix: (Units=GPa)
#
#
# Indices 1 2 3 4 5 6 
#
# 1 40.9085 7.6238 11.7375 0.0000 0.0000 0.0000
# 2 7.6238 106.3716 58.8812 0.0000 0.0000 0.0000
# 3 11.7375 58.8812 191.3149 0.0000 0.0000 0.0000
# 4 0.0000 0.0000 0.0000 2.7097 0.0000 0.0000
# 5 0.0000 0.0000 0.0000 0.0000 -37.3347 0.0000
# 6 0.0000 0.0000 0.0000 0.0000 0.0000 16.6562
#
#
#
# Elastic Compliance Matrix: (Units=1/GPa)
#
#
# Indices 1 2 3 4 5 6 
#
# 1 0.024996 -0.001136 -0.001184 0.000000 0.000000 0.000000
# 2 -0.001136 0.011383 -0.003434 0.000000 0.000000 0.000000
# 3 -0.001184 -0.003434 0.006356 0.000000 0.000000 0.000000
# 4 0.000000 0.000000 0.000000 0.369046 0.000000 0.000000
# 5 0.000000 0.000000 0.000000 0.000000 -0.026785 0.000000
# 6 0.000000 0.000000 0.000000 0.000000 0.000000 0.060038
#
#
# Mechanical properties :
#
#
# Convention : Reuss Voigt Hill
#
# Bulk Modulus (GPa) = 32.02228 55.00887 43.51557
# Shear Modulus (GPa) = 10.70774 13.76307 12.23540
#
# Velocity S-wave (km/s) = 2.20138 2.49577 2.35318
# Velocity P-wave (km/s) = 4.57755 5.76202 5.20360
#
# Compressibility (1/GPa) = 0.03122826
#
# Stress axis : x y z
#
# Youngs Moduli (GPa) = 40.00606 87.84933 157.32156
#
# Poissons Ratio (x) = 0.09981 0.18625
# Poissons Ratio (y) = 0.04545 0.54019
# Poissons Ratio (z) = 0.04736 0.30165
#
# Static dielectric constant tensor:
#      x y z
#    x 1.841530 0.000000 0.000000 
#    y 0.000000 1.793210 0.000000 
#    z 0.000000 0.000000 1.838240 
# 
# From -- ./inp_files/51340.got.cif
#   From: 2010.05.17/outbox.cif.g08.bks.cpg/sg63_26_cif.got.tgz:51340.got - 2010.06.03 15:47:04.
