data_PCOD9473255
_publ_section_title
;
Structure prediction by ZEFSAII (Michael W. Deem and Ramdas Pophale) SiO2 
 PCOD9473255
Probable space group: C M C M
;
_chemical_formula_sum "Si O2"
_cell_formula_units_Z 64
_cell_length_a 10.168522
_cell_length_b 35.020269
_cell_length_c 9.738381
_cell_angle_alpha 90.000000
_cell_angle_beta 90.000000
_cell_angle_gamma 90.000000
_cell_volume 3467.880087
_symmetry_space_group_name_H-M "C M C M"
_symmetry_group_IT_number 63
_symmetry_cell_setting 'orthorhombic'
loop_
_space_group_symop_operation_xyz
x,y,z
-x,-y,1/2+z
x,-y,-z
-x,y,1/2-z
-x,-y,-z
x,y,1/2-z
-x,y,z
x,-y,1/2+z
1/2+x,1/2+y,z
1/2-x,1/2-y,1/2+z
1/2+x,1/2-y,-z
1/2-x,1/2+y,1/2-z
1/2-x,1/2-y,-z
1/2+x,1/2+y,1/2-z
1/2-x,1/2+y,z
1/2+x,1/2-y,1/2+z
loop_
_atom_site_type_symbol
_atom_site_label
_atom_site_fract_x
_atom_site_fract_y
_atom_site_fract_z
Si Si1 0.500000 0.540444 0.081783
Si Si2 0.654063 0.663114 0.541660
Si Si3 0.657005 0.729531 0.750000
Si Si4 0.500000 0.037487 0.909385
Si Si5 0.226084 0.920583 0.407501
Si Si6 0.347903 0.698458 0.250000
O O1 0.500000 0.462680 0.750000
O O2 0.374479 0.563298 0.021022
O O3 0.500000 0.500000 0.000000
O O4 0.500000 0.655322 0.572072
O O5 0.687338 0.701843 0.621942
O O6 0.729458 0.625238 0.584244
O O7 0.669677 0.672473 0.382978
O O8 0.500000 0.738301 0.750000
O O9 0.746225 0.766761 0.750000
O O10 0.500000 0.026027 0.750000
O O11 0.631260 0.061790 0.933052
O O12 0.500000 0.000000 0.000000
O O13 0.184981 0.930939 0.250000
O O14 0.500000 0.712668 0.250000
#
# Coordination Sequence:
#
# PCOD9473255 Si02
#       6
#     8  16   8   8  16   8
#     4  12  26  40  66 100 127 160 208 257 308 375
#     4  10  20  36  62  87 122 159 202 251 316 359
#     4  10  20  38  60  86 117 164 202 244 309 374
#     4  10  24  44  64  90 125 166 206 251 314 375
#     4  11  22  41  66  92 127 166 212 257 312 374
#     4  10  22  38  56  86 123 158 200 258 301 368
#
# _framework density 18.455078
#
# number of rings (size 3 to 8) (size 9 to 14) (size 15 to 20)
#    0.000    1.500    2.500    2.625    1.750    3.000 
#    4.500    0.000    0.000    0.000    0.000    0.000 
#    0.000    0.000    0.000    0.000    0.000    0.000 
#
# Total GULP energy -178651.775240 kJ/mol
# GULP energy per Si atom -5582.867976 kJ/mol
# Density = 1.841307 g / cm^3
# Si number density = 18.455078 Si / 1000 Ang^3
#
#
#
# Elastic Constant Matrix: (Units=GPa)
#
#
# Indices 1 2 3 4 5 6 
#
# 1 104.2212 62.6455 58.6216 0.0000 0.0000 0.0000
# 2 62.6455 106.0949 32.1537 0.0000 0.0000 0.0000
# 3 58.6216 32.1537 132.2499 0.0000 0.0000 0.0000
# 4 0.0000 0.0000 0.0000 -2.9272 0.0000 0.0000
# 5 0.0000 0.0000 0.0000 0.0000 35.5769 0.0000
# 6 0.0000 0.0000 0.0000 0.0000 0.0000 39.9192
#
#
#
# Elastic Compliance Matrix: (Units=1/GPa)
#
#
# Indices 1 2 3 4 5 6 
#
# 1 0.018380 -0.009050 -0.005947 0.000000 0.000000 0.000000
# 2 -0.009050 0.014632 0.000454 0.000000 0.000000 0.000000
# 3 -0.005947 0.000454 0.010087 0.000000 0.000000 0.000000
# 4 0.000000 0.000000 0.000000 -0.341618 0.000000 0.000000
# 5 0.000000 0.000000 0.000000 0.000000 0.028108 0.000000
# 6 0.000000 0.000000 0.000000 0.000000 0.000000 0.025051
#
#
# Mechanical properties :
#
#
# Convention : Reuss Voigt Hill
#
# Bulk Modulus (GPa) = 71.36247 72.15640 71.75944
# Shear Modulus (GPa) = -23.62905 27.12347 1.74721
#
# Velocity S-wave (km/s) = -3.58209 3.83783 0.97406
# Velocity P-wave (km/s) = 4.65228 7.66954 6.34293
#
# Compressibility (1/GPa) = 0.01401297
#
# Stress axis : x y z
#
# Youngs Moduli (GPa) = 54.40713 68.34408 99.13801
#
# Poissons Ratio (x) = 0.61855 0.58955
# Poissons Ratio (y) = 0.49241 -0.04504
# Poissons Ratio (z) = 0.32354 -0.03105
#
# Static dielectric constant tensor:
#      x y z
#    x 1.627810 0.000000 0.000000 
#    y 0.000000 1.611020 0.000000 
#    z 0.000000 0.000000 1.654090 
# 
# From -- ./inp_files/3213.got.cif
#   From: 2010.05.17/outbox.cif.g08.bks.cpg/sg63_2_cif.got.tgz:3213.got - 2010.06.03 15:47:04.
