data_PCOD9473405
_publ_section_title
;
Structure prediction by ZEFSAII (Michael W. Deem and Ramdas Pophale) SiO2 
 PCOD9473405
Probable space group: C M C M
;
_chemical_formula_sum "Si O2"
_cell_formula_units_Z 80
_cell_length_a 7.791603
_cell_length_b 29.652987
_cell_length_c 17.768536
_cell_angle_alpha 90.000000
_cell_angle_beta 90.000000
_cell_angle_gamma 90.000000
_cell_volume 4105.319006
_symmetry_space_group_name_H-M "C M C M"
_symmetry_group_IT_number 63
_symmetry_cell_setting 'orthorhombic'
loop_
_space_group_symop_operation_xyz
x,y,z
-x,-y,1/2+z
x,-y,-z
-x,y,1/2-z
-x,-y,-z
x,y,1/2-z
-x,y,z
x,-y,1/2+z
1/2+x,1/2+y,z
1/2-x,1/2-y,1/2+z
1/2+x,1/2-y,-z
1/2-x,1/2+y,1/2-z
1/2-x,1/2-y,-z
1/2+x,1/2+y,1/2-z
1/2-x,1/2+y,z
1/2+x,1/2-y,1/2+z
loop_
_atom_site_type_symbol
_atom_site_label
_atom_site_fract_x
_atom_site_fract_y
_atom_site_fract_z
Si Si1 0.500000 0.660817 0.159334
Si Si2 0.500000 0.235833 0.658701
Si Si3 0.293438 0.420085 0.437741
Si Si4 0.199504 0.168684 0.839877
Si Si5 0.792150 0.002292 0.334684
Si Si6 0.190124 0.598838 0.106409
O O1 0.500000 0.659701 0.250000
O O2 0.500000 0.712622 0.132782
O O3 0.334276 0.634217 0.130091
O O4 0.500000 0.237387 0.750000
O O5 0.668515 0.207574 0.636575
O O6 0.500000 0.423435 0.449186
O O7 0.262296 0.377364 0.383910
O O8 0.236123 0.465512 0.395737
O O9 0.210245 0.412259 0.518240
O O10 0.218332 0.161244 0.750000
O O11 0.000000 0.180634 0.853845
O O12 0.747291 0.987693 0.250000
O O13 0.721026 0.051666 0.351084
O O14 0.000000 0.005112 0.338834
O O15 0.000000 0.615950 0.122816
#
# Coordination Sequence:
#
# PCOD9473405 Si02
#       6
#     8   8  16  16  16  16
#     4  11  24  46  67  85 116 159 206 258 303 358
#     4   9  20  38  64  91 116 153 203 252 310 358
#     4  10  20  37  62  89 127 164 198 239 305 363
#     4   9  18  35  61  92 123 154 196 251 301 359
#     4  10  20  37  62  91 122 163 207 247 293 355
#     4  12  25  40  61  88 124 162 205 248 302 354
#
# _framework density 19.486915
#
# number of rings (size 3 to 8) (size 9 to 14) (size 15 to 20)
#    0.000    1.800    2.000    1.800    1.400    8.000 
#    0.000    3.000    0.000    0.000    0.000    0.000 
#    0.000    0.000    0.000    0.000    0.000    0.000 
#
# Total GULP energy -223566.571312 kJ/mol
# GULP energy per Si atom -5589.164283 kJ/mol
# Density = 1.944256 g / cm^3
# Si number density = 19.486915 Si / 1000 Ang^3
#
#
#
# Elastic Constant Matrix: (Units=GPa)
#
#
# Indices 1 2 3 4 5 6 
#
# 1 85.8578 37.0882 14.0305 0.0000 0.0000 0.0000
# 2 37.0882 73.6231 -6.0742 0.0000 0.0000 0.0000
# 3 14.0305 -6.0742 47.8509 0.0000 0.0000 0.0000
# 4 0.0000 0.0000 0.0000 -3.4850 0.0000 0.0000
# 5 0.0000 0.0000 0.0000 0.0000 7.6721 0.0000
# 6 0.0000 0.0000 0.0000 0.0000 0.0000 -16.1907
#
#
#
# Elastic Compliance Matrix: (Units=1/GPa)
#
#
# Indices 1 2 3 4 5 6 
#
# 1 0.016392 -0.008746 -0.005917 0.000000 0.000000 0.000000
# 2 -0.008746 0.018393 0.004899 0.000000 0.000000 0.000000
# 3 -0.005917 0.004899 0.023255 0.000000 0.000000 0.000000
# 4 0.000000 0.000000 0.000000 -0.286945 0.000000 0.000000
# 5 0.000000 0.000000 0.000000 0.000000 0.130342 0.000000
# 6 0.000000 0.000000 0.000000 0.000000 0.000000 -0.061764
#
#
# Mechanical properties :
#
#
# Convention : Reuss Voigt Hill
#
# Bulk Modulus (GPa) = 25.96506 33.04676 29.50591
# Shear Modulus (GPa) = -39.07345 8.41845 -15.32750
#
# Velocity S-wave (km/s) = -4.48271 2.08073 -2.80760
# Velocity P-wave (km/s) = 3.66600 4.77156 2.15966
#
# Compressibility (1/GPa) = 0.03851329
#
# Stress axis : x y z
#
# Youngs Moduli (GPa) = 61.00575 54.36969 43.00159
#
# Poissons Ratio (x) = 0.47550 0.25442
# Poissons Ratio (y) = 0.53354 -0.21067
# Poissons Ratio (z) = 0.36094 -0.26636
#
# Static dielectric constant tensor:
#      x y z
#    x 1.708260 0.000000 0.000000 
#    y 0.000000 1.638610 0.000000 
#    z 0.000000 0.000000 1.670670 
# 
# From -- ./inp_files/40609.got.cif
#   From: 2010.05.17/outbox.cif.g08.bks.cpg/sg63_21_cif.got.tgz:40609.got - 2010.06.03 15:47:04.
