data_PCOD9473493
_publ_section_title
;
Structure prediction by ZEFSAII (Michael W. Deem and Ramdas Pophale) SiO2 
 PCOD9473493
Probable space group: C M C M
;
_chemical_formula_sum "Si O2"
_cell_formula_units_Z 96
_cell_length_a 25.793881
_cell_length_b 24.118035
_cell_length_c 8.634833
_cell_angle_alpha 90.000000
_cell_angle_beta 90.000000
_cell_angle_gamma 90.000000
_cell_volume 5371.709963
_symmetry_space_group_name_H-M "C M C M"
_symmetry_group_IT_number 63
_symmetry_cell_setting 'orthorhombic'
loop_
_space_group_symop_operation_xyz
x,y,z
-x,-y,1/2+z
x,-y,-z
-x,y,1/2-z
-x,-y,-z
x,y,1/2-z
-x,y,z
x,-y,1/2+z
1/2+x,1/2+y,z
1/2-x,1/2-y,1/2+z
1/2+x,1/2-y,-z
1/2-x,1/2+y,1/2-z
1/2-x,1/2-y,-z
1/2+x,1/2+y,1/2-z
1/2-x,1/2+y,z
1/2+x,1/2-y,1/2+z
loop_
_atom_site_type_symbol
_atom_site_label
_atom_site_fract_x
_atom_site_fract_y
_atom_site_fract_z
Si Si1 0.595456 0.133932 0.436634
Si Si2 0.189047 0.938952 0.936367
Si Si3 0.191509 0.560354 0.063868
Si Si4 0.000000 0.062134 0.064627
Si Si5 0.938700 0.248548 0.064151
Si Si6 0.403393 0.368169 0.434868
Si Si7 0.500000 0.062251 0.564261
O O1 0.592241 0.134861 0.250000
O O2 0.650284 0.106748 0.483354
O O3 0.586579 0.195280 0.501283
O O4 0.550102 0.094969 0.502566
O O5 0.185487 0.939254 0.750000
O O6 0.248977 0.928518 0.982623
O O7 0.150176 0.894051 0.005213
O O8 0.174953 0.000000 0.000000
O O9 0.190688 0.557185 0.250000
O O10 0.176344 0.500000 0.000000
O O11 0.000000 0.061406 0.250000
O O12 0.949639 0.094636 0.004631
O O13 0.000000 0.000000 0.000000
O O14 0.934963 0.246645 0.250000
O O15 0.000000 0.248660 0.023390
O O16 0.912592 0.194202 0.992800
O O17 0.405641 0.370337 0.250000
O O18 0.500000 0.061905 0.750000
O O19 0.500000 0.000000 0.500000
#
# Coordination Sequence:
#
# PCOD9473493 Si02
#       7
#    16  16  16   8  16  16   8
#     4  11  22  38  60  87 117 152 195 242 291 346
#     4  10  20  38  61  87 120 155 193 238 289 346
#     4   9  20  37  60  88 118 154 194 238 290 345
#     4  12  24  39  58  85 118 152 188 234 290 346
#     4  11  23  40  61  85 115 155 198 239 290 347
#     4  12  24  39  60  87 116 151 195 240 289 344
#     4  12  24  37  54  83 118 154 192 238 294 350
#
# _framework density 17.871403999999998
#
# number of rings (size 3 to 8) (size 9 to 14) (size 15 to 20)
#    0.000    1.167    1.667    5.500    0.000    4.000 
#    0.000    0.833    0.000    0.000    0.000    0.000 
#    0.000    0.000    0.000    0.000    0.000    0.000 
#
# Total GULP energy -268404.876289 kJ/mol
# GULP energy per Si atom -5591.768256 kJ/mol
# Density = 1.783073 g / cm^3
# Si number density = 17.871404 Si / 1000 Ang^3
#
#
#
# Elastic Constant Matrix: (Units=GPa)
#
#
# Indices 1 2 3 4 5 6 
#
# 1 119.3963 101.5803 52.3949 0.0000 0.0000 0.0000
# 2 101.5803 196.0739 66.5012 0.0000 0.0000 0.0000
# 3 52.3949 66.5012 103.7165 0.0000 0.0000 0.0000
# 4 0.0000 0.0000 0.0000 36.5810 0.0000 0.0000
# 5 0.0000 0.0000 0.0000 0.0000 6.3501 0.0000
# 6 0.0000 0.0000 0.0000 0.0000 0.0000 -40.7186
#
#
#
# Elastic Compliance Matrix: (Units=1/GPa)
#
#
# Indices 1 2 3 4 5 6 
#
# 1 0.015923 -0.007055 -0.003520 0.000000 0.000000 0.000000
# 2 -0.007055 0.009644 -0.002619 0.000000 0.000000 0.000000
# 3 -0.003520 -0.002619 0.013099 0.000000 0.000000 0.000000
# 4 0.000000 0.000000 0.000000 0.027337 0.000000 0.000000
# 5 0.000000 0.000000 0.000000 0.000000 0.157477 0.000000
# 6 0.000000 0.000000 0.000000 0.000000 0.000000 -0.024559
#
#
# Mechanical properties :
#
#
# Convention : Reuss Voigt Hill
#
# Bulk Modulus (GPa) = 81.45555 95.57106 88.51331
# Shear Modulus (GPa) = 21.79589 13.68986 17.74287
#
# Velocity S-wave (km/s) = 3.49606 2.77071 3.15430
# Velocity P-wave (km/s) = 7.87237 7.98930 7.93105
#
# Compressibility (1/GPa) = 0.01227663
#
# Stress axis : x y z
#
# Youngs Moduli (GPa) = 62.80383 103.69643 76.34020
#
# Poissons Ratio (x) = 0.73160 0.26872
# Poissons Ratio (y) = 0.44309 0.19995
# Poissons Ratio (z) = 0.22107 0.27160
#
# Static dielectric constant tensor:
#      x y z
#    x 1.607280 0.000000 0.000000 
#    y 0.000000 1.572440 0.000000 
#    z 0.000000 0.000000 1.597750 
# 
# From -- ./inp_files/10534.got.cif
#   From: 2010.05.17/outbox.cif.g08.bks.cpg/sg63_6_cif.got.tgz:10534.got - 2010.06.03 15:47:04.
