data_PCOD9473909
_publ_section_title
;
Structure prediction by ZEFSAII (Michael W. Deem and Ramdas Pophale) SiO2 
 PCOD9473909
Probable space group: C M C M
;
_chemical_formula_sum "Si O2"
_cell_formula_units_Z 96
_cell_length_a 19.305397
_cell_length_b 31.467069
_cell_length_c 8.666549
_cell_angle_alpha 90.000000
_cell_angle_beta 90.000000
_cell_angle_gamma 90.000000
_cell_volume 5264.792101
_symmetry_space_group_name_H-M "C M C M"
_symmetry_group_IT_number 63
_symmetry_cell_setting 'orthorhombic'
loop_
_space_group_symop_operation_xyz
x,y,z
-x,-y,1/2+z
x,-y,-z
-x,y,1/2-z
-x,-y,-z
x,y,1/2-z
-x,y,z
x,-y,1/2+z
1/2+x,1/2+y,z
1/2-x,1/2-y,1/2+z
1/2+x,1/2-y,-z
1/2-x,1/2+y,1/2-z
1/2-x,1/2-y,-z
1/2+x,1/2+y,1/2-z
1/2-x,1/2+y,z
1/2+x,1/2-y,1/2+z
loop_
_atom_site_type_symbol
_atom_site_label
_atom_site_fract_x
_atom_site_fract_y
_atom_site_fract_z
Si Si1 0.919643 0.046510 0.934846
Si Si2 0.580905 0.799346 0.063933
Si Si3 0.579225 0.297319 0.562218
Si Si4 0.080435 0.453770 0.434758
Si Si5 0.169106 0.623584 0.434738
Si Si6 0.670718 0.623338 0.063131
O O1 0.915557 0.045657 0.750000
O O2 0.000000 0.055258 0.979027
O O3 0.870194 0.082708 0.000674
O O4 0.901737 0.000000 0.000000
O O5 0.586482 0.801811 0.250000
O O6 0.500000 0.807485 0.025477
O O7 0.597257 0.750852 0.015641
O O8 0.630195 0.834094 0.990146
O O9 0.579170 0.297297 0.750000
O O10 0.500000 0.306365 0.513563
O O11 0.631261 0.333880 0.510763
O O12 0.099670 0.500000 0.500000
O O13 0.084027 0.454572 0.250000
O O14 0.128770 0.416878 0.498588
O O15 0.000000 0.445652 0.479192
O O16 0.167306 0.621685 0.250000
O O17 0.249230 0.623479 0.484973
O O18 0.668478 0.622334 0.250000
#
# Coordination Sequence:
#
# PCOD9473909 Si02
#       6
#    16  16  16  16  16  16
#     4  10  21  37  58  83 108 137 176 220 265 313
#     4   9  18  34  56  79 102 135 181 225 265 314
#     4   8  15  31  56  80 101 133 179 224 263 309
#     4  10  21  38  60  82 103 133 175 220 266 317
#     4  11  23  35  50  78 113 145 177 215 262 315
#     4  10  21  36  54  78 109 145 181 216 260 315
#
# _framework density 18.234338999999999
#
# number of rings (size 3 to 8) (size 9 to 14) (size 15 to 20)
#    0.000    2.333    0.000    3.500    0.000    7.667 
#    0.000    0.833    0.000    1.000    0.000    0.000 
#    0.000    0.000    0.000    0.000    0.000    0.000 
#
# Total GULP energy -267990.245554 kJ/mol
# GULP energy per Si atom -5583.130116 kJ/mol
# Density = 1.819284 g / cm^3
# Si number density = 18.234339 Si / 1000 Ang^3
#
#
#
# Elastic Constant Matrix: (Units=GPa)
#
#
# Indices 1 2 3 4 5 6 
#
# 1 147.6301 142.6037 41.7808 0.0000 0.0000 0.0000
# 2 142.6037 190.9020 40.9864 0.0000 0.0000 0.0000
# 3 41.7808 40.9864 24.5736 0.0000 0.0000 0.0000
# 4 0.0000 0.0000 0.0000 22.7771 0.0000 0.0000
# 5 0.0000 0.0000 0.0000 0.0000 23.5022 0.0000
# 6 0.0000 0.0000 0.0000 0.0000 0.0000 -15.6134
#
#
#
# Elastic Compliance Matrix: (Units=1/GPa)
#
#
# Indices 1 2 3 4 5 6 
#
# 1 0.030117 -0.017921 -0.021315 0.000000 0.000000 0.000000
# 2 -0.017921 0.018824 -0.000927 0.000000 0.000000 0.000000
# 3 -0.021315 -0.000927 0.078482 0.000000 0.000000 0.000000
# 4 0.000000 0.000000 0.000000 0.043904 0.000000 0.000000
# 5 0.000000 0.000000 0.000000 0.000000 0.042549 0.000000
# 6 0.000000 0.000000 0.000000 0.000000 0.000000 -0.064048
#
#
# Mechanical properties :
#
#
# Convention : Reuss Voigt Hill
#
# Bulk Modulus (GPa) = 21.23329 90.42752 55.83040
# Shear Modulus (GPa) = 20.33717 15.31550 17.82634
#
# Velocity S-wave (km/s) = 3.34327 2.90129 3.13009
# Velocity P-wave (km/s) = 5.15492 7.80531 6.61423
#
# Compressibility (1/GPa) = 0.04709587
#
# Stress axis : x y z
#
# Youngs Moduli (GPa) = 33.20382 53.12255 12.74176
#
# Poissons Ratio (x) = 0.95201 0.27160
# Poissons Ratio (y) = 0.59505 0.01182
# Poissons Ratio (z) = 0.70775 0.04927
#
# Static dielectric constant tensor:
#      x y z
#    x 1.610690 0.000000 0.000000 
#    y 0.000000 1.599650 0.000000 
#    z 0.000000 0.000000 1.619350 
# 
# From -- ./inp_files/8518.got.cif
#   From: 2010.05.17/outbox.cif.g08.bks.cpg/sg63_5_cif.got.tgz:8518.got - 2010.06.03 15:47:04.
