data_PCOD9473880
_publ_section_title
;
Structure prediction by ZEFSAII (Michael W. Deem and Ramdas Pophale) SiO2 
 PCOD9473880
Probable space group: C M C M
;
_chemical_formula_sum "Si O2"
_cell_formula_units_Z 104
_cell_length_a 27.256048
_cell_length_b 21.858637
_cell_length_c 9.291352
_cell_angle_alpha 90.000000
_cell_angle_beta 90.000000
_cell_angle_gamma 90.000000
_cell_volume 5535.602245
_symmetry_space_group_name_H-M "C M C M"
_symmetry_group_IT_number 63
_symmetry_cell_setting 'orthorhombic'
loop_
_space_group_symop_operation_xyz
x,y,z
-x,-y,1/2+z
x,-y,-z
-x,y,1/2-z
-x,-y,-z
x,y,1/2-z
-x,y,z
x,-y,1/2+z
1/2+x,1/2+y,z
1/2-x,1/2-y,1/2+z
1/2+x,1/2-y,-z
1/2-x,1/2+y,1/2-z
1/2-x,1/2-y,-z
1/2+x,1/2+y,1/2-z
1/2-x,1/2+y,z
1/2+x,1/2-y,1/2+z
loop_
_atom_site_type_symbol
_atom_site_label
_atom_site_fract_x
_atom_site_fract_y
_atom_site_fract_z
Si Si1 0.123436 0.312325 0.421793
Si Si2 0.557555 0.391284 0.915632
Si Si3 0.213439 0.090367 0.585266
Si Si4 0.629659 0.500000 0.500000
Si Si5 0.798961 0.773915 0.075527
Si Si6 0.941526 0.769254 0.086513
Si Si7 0.177347 0.560410 0.922499
O O1 0.124592 0.303116 0.250000
O O2 0.159176 0.266540 0.505840
O O3 0.072838 0.289186 0.490259
O O4 0.143796 0.380302 0.450169
O O5 0.559298 0.370567 0.750000
O O6 0.500000 0.406957 0.948095
O O7 0.593008 0.449952 0.931080
O O8 0.573241 0.334347 0.015350
O O9 0.226288 0.102829 0.750000
O O10 0.195539 0.155444 0.528713
O O11 0.266347 0.071345 0.521619
O O12 0.169503 0.041814 0.583375
O O13 0.797342 0.768332 0.250000
O O14 0.750000 0.750000 0.000000
O O15 0.922003 0.764832 0.250000
O O16 0.000000 0.772125 0.093485
O O17 0.178510 0.550706 0.750000
O O18 0.158425 0.500000 0.000000
#
# Coordination Sequence:
#
# PCOD9473880 Si02
#       7
#    16  16  16   8  16  16  16
#     4  11  22  38  61  88 119 153 193 241 299 362
#     4  10  22  39  58  83 116 155 201 252 304 355
#     4  10  21  36  51  74 113 152 192 242 290 337
#     4  12  21  34  56  82 114 158 207 248 290 344
#     4  11  21  36  56  80 114 154 200 252 302 353
#     4  10  22  41  65  92 119 150 193 245 303 363
#     4  10  21  39  57  81 115 155 194 233 282 346
#
# _framework density 18.787476999999999
#
# number of rings (size 3 to 8) (size 9 to 14) (size 15 to 20)
#    0.000    1.538    2.308    3.000    0.000    4.615 
#    0.000    3.846    0.000    0.462    0.000    0.000 
#    0.000    0.000    0.000    0.000    0.000    0.000 
#
# Total GULP energy -289769.715651 kJ/mol
# GULP energy per Si atom -5572.494532 kJ/mol
# Density = 1.874472 g / cm^3
# Si number density = 18.787477 Si / 1000 Ang^3
#
#
#
# Elastic Constant Matrix: (Units=GPa)
#
#
# Indices 1 2 3 4 5 6 
#
# 1 64.0438 38.8104 27.3407 0.0000 0.0000 0.0000
# 2 38.8104 151.6140 65.4156 0.0000 0.0000 0.0000
# 3 27.3407 65.4156 86.2083 0.0000 0.0000 0.0000
# 4 0.0000 0.0000 0.0000 26.9844 0.0000 0.0000
# 5 0.0000 0.0000 0.0000 0.0000 19.4904 0.0000
# 6 0.0000 0.0000 0.0000 0.0000 0.0000 33.6954
#
#
#
# Elastic Compliance Matrix: (Units=1/GPa)
#
#
# Indices 1 2 3 4 5 6 
#
# 1 0.019167 -0.003395 -0.003502 0.000000 0.000000 0.000000
# 2 -0.003395 0.010408 -0.006821 0.000000 0.000000 0.000000
# 3 -0.003502 -0.006821 0.017886 0.000000 0.000000 0.000000
# 4 0.000000 0.000000 0.000000 0.037058 0.000000 0.000000
# 5 0.000000 0.000000 0.000000 0.000000 0.051307 0.000000
# 6 0.000000 0.000000 0.000000 0.000000 0.000000 0.029678
#
#
# Mechanical properties :
#
#
# Convention : Reuss Voigt Hill
#
# Bulk Modulus (GPa) = 49.93946 62.77772 56.35859
# Shear Modulus (GPa) = 25.04815 27.38733 26.21774
#
# Velocity S-wave (km/s) = 3.65531 3.82218 3.73968
# Velocity P-wave (km/s) = 6.66739 7.27777 6.97926
#
# Compressibility (1/GPa) = 0.02002425
#
# Stress axis : x y z
#
# Youngs Moduli (GPa) = 52.17290 96.08304 55.90912
#
# Poissons Ratio (x) = 0.32623 0.19582
# Poissons Ratio (y) = 0.17714 0.38134
# Poissons Ratio (z) = 0.18273 0.65535
#
# Static dielectric constant tensor:
#      x y z
#    x 1.921680 0.000000 0.000000 
#    y 0.000000 1.597410 0.000000 
#    z 0.000000 0.000000 1.638940 
# 
# From -- ./inp_files/12607.got.cif
#   From: 2010.05.17/outbox.cif.g08.bks.cpg/sg63_7_cif.got.tgz:12607.got - 2010.06.03 15:47:04.
