data_PCOD9473297
_publ_section_title
;
Structure prediction by ZEFSAII (Michael W. Deem and Ramdas Pophale) SiO2 
 PCOD9473297
Probable space group: C M C M
;
_chemical_formula_sum "Si O2"
_cell_formula_units_Z 112
_cell_length_a 14.322798
_cell_length_b 13.066120
_cell_length_c 31.955765
_cell_angle_alpha 90.000000
_cell_angle_beta 90.000000
_cell_angle_gamma 90.000000
_cell_volume 5980.310429
_symmetry_space_group_name_H-M "C M C M"
_symmetry_group_IT_number 63
_symmetry_cell_setting 'orthorhombic'
loop_
_space_group_symop_operation_xyz
x,y,z
-x,-y,1/2+z
x,-y,-z
-x,y,1/2-z
-x,-y,-z
x,y,1/2-z
-x,y,z
x,-y,1/2+z
1/2+x,1/2+y,z
1/2-x,1/2-y,1/2+z
1/2+x,1/2-y,-z
1/2-x,1/2+y,1/2-z
1/2-x,1/2-y,-z
1/2+x,1/2+y,1/2-z
1/2-x,1/2+y,z
1/2+x,1/2-y,1/2+z
loop_
_atom_site_type_symbol
_atom_site_label
_atom_site_fract_x
_atom_site_fract_y
_atom_site_fract_z
Si Si1 0.107633 0.423634 0.946263
Si Si2 0.223608 0.064239 0.565306
Si Si3 0.610835 0.359509 0.586195
Si Si4 0.607497 0.146536 0.150761
Si Si5 0.610157 0.285727 0.006191
Si Si6 0.389864 0.937888 0.200603
Si Si7 0.726251 0.210122 0.642945
O O1 0.180670 0.514320 0.951070
O O2 0.116222 0.384990 0.898159
O O3 0.128953 0.326263 0.975252
O O4 0.000000 0.455599 0.952724
O O5 0.171188 0.131631 0.530799
O O6 0.246181 0.134158 0.605220
O O7 0.158134 0.969435 0.578959
O O8 0.500000 0.368769 0.592655
O O9 0.626545 0.296328 0.543114
O O10 0.660754 0.297995 0.623097
O O11 0.500000 0.177109 0.157774
O O12 0.680510 0.235587 0.159264
O O13 0.627942 0.046815 0.178462
O O14 0.500000 0.306901 0.013775
O O15 0.372231 0.943255 0.250000
O O16 0.500000 0.915549 0.194085
O O17 0.328356 0.853179 0.177756
#
# Coordination Sequence:
#
# PCOD9473297 Si02
#       7
#    16  16  16  16  16  16  16
#     4  10  20  37  57  81 112 151 197 247 288 335
#     4  12  21  35  57  83 111 152 198 243 291 340
#     4  11  24  38  54  82 118 158 201 248 293 345
#     4  10  20  39  62  86 119 153 193 236 284 347
#     4  10  22  39  56  77 114 161 206 247 291 339
#     4  10  22  41  66  92 117 147 183 229 290 359
#     4  12  22  38  61  91 117 151 192 243 295 344
#
# _framework density 18.728124000000001
#
# number of rings (size 3 to 8) (size 9 to 14) (size 15 to 20)
#    0.000    1.286    4.286    1.286    0.000    6.286 
#    0.000    0.000    0.000    5.143    0.000    0.000 
#    0.000    0.000    0.000    0.000    0.000    0.000 
#
# Total GULP energy -313463.911614 kJ/mol
# GULP energy per Si atom -5597.569850 kJ/mol
# Density = 1.868550 g / cm^3
# Si number density = 18.728124 Si / 1000 Ang^3
#
#
#
# Elastic Constant Matrix: (Units=GPa)
#
#
# Indices 1 2 3 4 5 6 
#
# 1 124.0677 91.5846 32.5896 0.0000 0.0000 0.0000
# 2 91.5846 106.9673 43.5313 0.0000 0.0000 0.0000
# 3 32.5896 43.5313 39.7947 0.0000 0.0000 0.0000
# 4 0.0000 0.0000 0.0000 7.9657 0.0000 0.0000
# 5 0.0000 0.0000 0.0000 0.0000 20.9667 0.0000
# 6 0.0000 0.0000 0.0000 0.0000 0.0000 44.0338
#
#
#
# Elastic Compliance Matrix: (Units=1/GPa)
#
#
# Indices 1 2 3 4 5 6 
#
# 1 0.022391 -0.021103 0.004748 0.000000 0.000000 0.000000
# 2 -0.021103 0.036739 -0.022906 0.000000 0.000000 0.000000
# 3 0.004748 -0.022906 0.046298 0.000000 0.000000 0.000000
# 4 0.000000 0.000000 0.000000 0.125538 0.000000 0.000000
# 5 0.000000 0.000000 0.000000 0.000000 0.047695 0.000000
# 6 0.000000 0.000000 0.000000 0.000000 0.000000 0.022710
#
#
# Mechanical properties :
#
#
# Convention : Reuss Voigt Hill
#
# Bulk Modulus (GPa) = 37.16862 67.36009 52.26436
# Shear Modulus (GPa) = 12.85804 21.46819 17.16312
#
# Velocity S-wave (km/s) = 2.62308 3.38939 3.03055
# Velocity P-wave (km/s) = 5.39106 7.16678 6.34138
#
# Compressibility (1/GPa) = 0.02690441
#
# Stress axis : x y z
#
# Youngs Moduli (GPa) = 44.66109 27.21924 21.59918
#
# Poissons Ratio (x) = 0.57441 -0.10254
# Poissons Ratio (y) = 0.94248 0.49476
# Poissons Ratio (z) = -0.21203 0.62349
#
# Static dielectric constant tensor:
#      x y z
#    x 1.663290 0.000000 0.000000 
#    y 0.000000 1.624730 0.000000 
#    z 0.000000 0.000000 1.626330 
# 
# From -- ./inp_files/73398.got.cif
#   From: 2010.05.17/outbox.cif.g08.bks.cpg/sg63_37_cif.got.tgz:73398.got - 2010.06.03 15:47:04.
