data_PCOD9473191
_publ_section_title
;
Structure prediction by ZEFSAII (Michael W. Deem and Ramdas Pophale) SiO2 
 PCOD9473191
Probable space group: C M C M
;
_chemical_formula_sum "Si O2"
_cell_formula_units_Z 88
_cell_length_a 17.873756
_cell_length_b 9.063012
_cell_length_c 27.474444
_cell_angle_alpha 90.000000
_cell_angle_beta 90.000000
_cell_angle_gamma 90.000000
_cell_volume 4450.586973
_symmetry_space_group_name_H-M "C M C M"
_symmetry_group_IT_number 63
_symmetry_cell_setting 'orthorhombic'
loop_
_space_group_symop_operation_xyz
x,y,z
-x,-y,1/2+z
x,-y,-z
-x,y,1/2-z
-x,-y,-z
x,y,1/2-z
-x,y,z
x,-y,1/2+z
1/2+x,1/2+y,z
1/2-x,1/2-y,1/2+z
1/2+x,1/2-y,-z
1/2-x,1/2+y,1/2-z
1/2-x,1/2-y,-z
1/2+x,1/2+y,1/2-z
1/2-x,1/2+y,z
1/2+x,1/2-y,1/2+z
loop_
_atom_site_type_symbol
_atom_site_label
_atom_site_fract_x
_atom_site_fract_y
_atom_site_fract_z
Si Si1 0.793528 0.009352 0.572614
Si Si2 0.346736 0.799736 0.462367
Si Si3 0.272891 0.982038 0.676691
Si Si4 0.586509 0.761193 0.566526
Si Si5 0.792510 0.789340 0.250000
Si Si6 0.916777 0.558411 0.872205
O O1 0.724758 0.097872 0.548594
O O2 0.763622 0.949492 0.624340
O O3 0.860340 0.125508 0.580017
O O4 0.821047 0.869639 0.542102
O O5 0.383258 0.822234 0.514888
O O6 0.403176 0.836010 0.418397
O O7 0.217988 0.082795 0.707877
O O8 0.349280 0.073260 0.665581
O O9 0.293916 0.839110 0.707394
O O10 0.500000 0.716304 0.561097
O O11 0.589589 0.892927 0.605593
O O12 0.000000 0.579068 0.852151
#
# Coordination Sequence:
#
# PCOD9473191 Si02
#       6
#    16  16  16  16   8  16
#     4  11  22  37  58  82 113 150 192 238 280 333
#     4  11  22  36  56  83 116 154 196 234 269 323
#     4  10  20  37  59  85 107 139 183 232 290 343
#     4  11  23  37  54  81 118 158 194 230 275 327
#     4  10  20  36  60  82 106 132 176 234 284 342
#     4  10  21  38  59  83 116 151 186 232 282 334
#
# _framework density 19.772670999999999
#
# number of rings (size 3 to 8) (size 9 to 14) (size 15 to 20)
#    0.000    1.455    0.000    7.636    0.000    6.545 
#    0.000    1.818    0.000    2.182    0.000    6.364 
#    0.000    0.000    0.000    0.000    0.000    0.000 
#
# Total GULP energy -245006.346495 kJ/mol
# GULP energy per Si atom -5568.326057 kJ/mol
# Density = 1.972767 g / cm^3
# Si number density = 19.772671 Si / 1000 Ang^3
#
#
#
# Elastic Constant Matrix: (Units=GPa)
#
#
# Indices 1 2 3 4 5 6 
#
# 1 85.1307 -4.6635 4.0419 0.0000 0.0000 0.0000
# 2 -4.6635 38.6382 -18.8137 0.0000 0.0000 0.0000
# 3 4.0419 -18.8137 51.5190 0.0000 0.0000 0.0000
# 4 0.0000 0.0000 0.0000 13.4182 0.0000 0.0000
# 5 0.0000 0.0000 0.0000 0.0000 2.3099 0.0000
# 6 0.0000 0.0000 0.0000 0.0000 0.0000 23.5385
#
#
#
# Elastic Compliance Matrix: (Units=1/GPa)
#
#
# Indices 1 2 3 4 5 6 
#
# 1 0.011835 0.001187 -0.000495 0.000000 0.000000 0.000000
# 2 0.001187 0.031598 0.011446 0.000000 0.000000 0.000000
# 3 -0.000495 0.011446 0.023629 0.000000 0.000000 0.000000
# 4 0.000000 0.000000 0.000000 0.074526 0.000000 0.000000
# 5 0.000000 0.000000 0.000000 0.000000 0.432910 0.000000
# 6 0.000000 0.000000 0.000000 0.000000 0.000000 0.042484
#
#
# Mechanical properties :
#
#
# Convention : Reuss Voigt Hill
#
# Bulk Modulus (GPa) = 10.94835 15.15748 13.05292
# Shear Modulus (GPa) = 8.02374 20.83486 14.42930
#
# Velocity S-wave (km/s) = 2.01663 3.24963 2.70434
# Velocity P-wave (km/s) = 3.31233 4.66504 4.04562
#
# Compressibility (1/GPa) = 0.09133800
#
# Stress axis : x y z
#
# Youngs Moduli (GPa) = 84.49374 31.64802 42.32120
#
# Poissons Ratio (x) = -0.03758 0.02094
# Poissons Ratio (y) = -0.10034 -0.48439
# Poissons Ratio (z) = 0.04181 -0.36223
#
# Static dielectric constant tensor:
#      x y z
#    x 1.728720 0.000000 0.000000 
#    y 0.000000 1.699030 0.000000 
#    z 0.000000 0.000000 1.697220 
# 
# From -- ./inp_files/73778.got.cif
#   From: 2010.05.17/outbox.cif.g08.bks.cpg/sg63_37_cif.got.tgz:73778.got - 2010.06.03 15:47:04.
