data_PCOD9473692
_publ_section_title
;
Structure prediction by ZEFSAII (Michael W. Deem and Ramdas Pophale) SiO2 
 PCOD9473692
Probable space group: C M C M
;
_chemical_formula_sum "Si O2"
_cell_formula_units_Z 72
_cell_length_a 13.740943
_cell_length_b 29.604040
_cell_length_c 8.859618
_cell_angle_alpha 90.000000
_cell_angle_beta 90.000000
_cell_angle_gamma 90.000000
_cell_volume 3603.981203
_symmetry_space_group_name_H-M "C M C M"
_symmetry_group_IT_number 63
_symmetry_cell_setting 'orthorhombic'
loop_
_space_group_symop_operation_xyz
x,y,z
-x,-y,1/2+z
x,-y,-z
-x,y,1/2-z
-x,-y,-z
x,y,1/2-z
-x,y,z
x,-y,1/2+z
1/2+x,1/2+y,z
1/2-x,1/2-y,1/2+z
1/2+x,1/2-y,-z
1/2-x,1/2+y,1/2-z
1/2-x,1/2-y,-z
1/2+x,1/2+y,1/2-z
1/2-x,1/2+y,z
1/2+x,1/2-y,1/2+z
loop_
_atom_site_type_symbol
_atom_site_label
_atom_site_fract_x
_atom_site_fract_y
_atom_site_fract_z
Si Si1 0.782663 0.297653 0.566341
Si Si2 0.683301 0.039374 0.420281
Si Si3 0.000000 0.327382 0.930476
Si Si4 0.162673 0.115681 0.422420
Si Si5 0.000000 0.424502 0.075514
Si Si6 0.000000 0.948378 0.069423
O O1 0.781674 0.297453 0.750000
O O2 0.750000 0.250000 0.500000
O O3 0.703731 0.336280 0.519600
O O4 0.894917 0.307812 0.517627
O O5 0.655406 0.027522 0.250000
O O6 0.740826 0.085581 0.413049
O O7 0.593469 0.047336 0.529150
O O8 0.745030 0.000000 0.500000
O O9 0.000000 0.323167 0.750000
O O10 0.000000 0.379529 0.976215
O O11 0.124757 0.121356 0.250000
O O12 0.089526 0.083929 0.515795
O O13 0.000000 0.412643 0.250000
O O14 0.000000 0.953480 0.250000
O O15 0.000000 0.000000 0.000000
#
# Coordination Sequence:
#
# PCOD9473692 Si02
#       6
#    16  16   8  16   8   8
#     4  10  22  41  67  96 128 166 212 266 323 384
#     4  11  22  38  59  86 123 163 205 250 303 366
#     4  10  20  42  66  88 123 167 207 251 314 369
#     4  10  22  42  66  90 123 166 211 264 323 381
#     4  12  23  35  57  89 122 159 201 245 297 360
#     4  12  26  43  66  95 130 170 218 274 331 397
#
# _framework density 19.977906000000001
#
# number of rings (size 3 to 8) (size 9 to 14) (size 15 to 20)
#    0.000    1.333    2.222    3.667    0.000    6.222 
#    0.000    2.222    0.000    0.000    0.000    0.000 
#    0.000    0.000    0.000    0.000    0.000    0.000 
#
# Total GULP energy -200714.052550 kJ/mol
# GULP energy per Si atom -5575.390349 kJ/mol
# Density = 1.993244 g / cm^3
# Si number density = 19.977906 Si / 1000 Ang^3
#
#
#
# Elastic Constant Matrix: (Units=GPa)
#
#
# Indices 1 2 3 4 5 6 
#
# 1 101.7882 53.9566 28.2141 0.0000 0.0000 0.0000
# 2 53.9566 168.6722 20.3815 0.0000 0.0000 0.0000
# 3 28.2141 20.3815 33.7425 0.0000 0.0000 0.0000
# 4 0.0000 0.0000 0.0000 37.9673 0.0000 0.0000
# 5 0.0000 0.0000 0.0000 0.0000 7.6718 0.0000
# 6 0.0000 0.0000 0.0000 0.0000 0.0000 24.9459
#
#
#
# Elastic Compliance Matrix: (Units=1/GPa)
#
#
# Indices 1 2 3 4 5 6 
#
# 1 0.014392 -0.003398 -0.009982 0.000000 0.000000 0.000000
# 2 -0.003398 0.007198 -0.001506 0.000000 0.000000 0.000000
# 3 -0.009982 -0.001506 0.038893 0.000000 0.000000 0.000000
# 4 0.000000 0.000000 0.000000 0.026338 0.000000 0.000000
# 5 0.000000 0.000000 0.000000 0.000000 0.130347 0.000000
# 6 0.000000 0.000000 0.000000 0.000000 0.000000 0.040087
#
#
# Mechanical properties :
#
#
# Convention : Reuss Voigt Hill
#
# Bulk Modulus (GPa) = 32.56246 56.58967 44.57607
# Shear Modulus (GPa) = 16.82010 27.56038 22.19024
#
# Velocity S-wave (km/s) = 2.90476 3.71825 3.33639
# Velocity P-wave (km/s) = 5.25212 6.84262 6.09944
#
# Compressibility (1/GPa) = 0.03071021
#
# Stress axis : x y z
#
# Youngs Moduli (GPa) = 69.48187 138.93496 25.71189
#
# Poissons Ratio (x) = 0.47207 0.25665
# Poissons Ratio (y) = 0.23608 0.03873
# Poissons Ratio (z) = 0.69356 0.20930
#
# Static dielectric constant tensor:
#      x y z
#    x 1.765370 0.000000 0.000000 
#    y 0.000000 1.715260 0.000000 
#    z 0.000000 0.000000 1.701480 
# 
# From -- ./inp_files/4714.got.cif
#   From: 2010.05.17/outbox.cif.g08.bks.cpg/sg63_3_cif.got.tgz:4714.got - 2010.06.03 15:47:04.
