data_PCOD9473849
_publ_section_title
;
Structure prediction by ZEFSAII (Michael W. Deem and Ramdas Pophale) SiO2 
 PCOD9473849
Probable space group: C M C M
;
_chemical_formula_sum "Si O2"
_cell_formula_units_Z 104
_cell_length_a 24.884177
_cell_length_b 11.665372
_cell_length_c 17.890738
_cell_angle_alpha 90.000000
_cell_angle_beta 90.000000
_cell_angle_gamma 90.000000
_cell_volume 5193.380348
_symmetry_space_group_name_H-M "C M C M"
_symmetry_group_IT_number 63
_symmetry_cell_setting 'orthorhombic'
loop_
_space_group_symop_operation_xyz
x,y,z
-x,-y,1/2+z
x,-y,-z
-x,y,1/2-z
-x,-y,-z
x,y,1/2-z
-x,y,z
x,-y,1/2+z
1/2+x,1/2+y,z
1/2-x,1/2-y,1/2+z
1/2+x,1/2-y,-z
1/2-x,1/2+y,1/2-z
1/2-x,1/2-y,-z
1/2+x,1/2+y,1/2-z
1/2-x,1/2+y,z
1/2+x,1/2-y,1/2+z
loop_
_atom_site_type_symbol
_atom_site_label
_atom_site_fract_x
_atom_site_fract_y
_atom_site_fract_z
Si Si1 0.276053 0.039713 0.888335
Si Si2 0.209920 0.288843 0.250000
Si Si3 0.850254 0.703270 0.544189
Si Si4 0.855028 0.052061 0.250000
Si Si5 0.172907 0.803021 0.250000
Si Si6 0.844378 0.040076 0.083199
Si Si7 0.862987 0.344491 0.621690
Si Si8 0.061189 0.461095 0.087713
O O1 0.291351 0.126951 0.821129
O O2 0.302545 0.110612 0.955933
O O3 0.213300 0.020567 0.902582
O O4 0.309297 0.923228 0.875803
O O5 0.171062 0.178949 0.250000
O O6 0.270118 0.240343 0.250000
O O7 0.832734 0.825329 0.572954
O O8 0.868989 0.711126 0.459227
O O9 0.899227 0.647386 0.590823
O O10 0.877219 0.036284 0.163355
O O11 0.817375 0.938541 0.250000
O O12 0.140897 0.757471 0.179413
O O13 0.865076 0.000000 0.000000
O O14 0.911208 0.435002 0.632304
O O15 0.000000 0.438612 0.108964
O O16 0.062303 0.500000 0.000000
#
# Coordination Sequence:
#
# PCOD9473849 Si02
#       8
#    16   8  16   8   8  16  16  16
#     4  11  21  35  52  78 116 158 204 242 287 351
#     4  12  23  36  53  74 114 170 217 240 290 348
#     4  10  21  35  55  86 118 151 203 248 300 367
#     4  12  24  40  50  76 112 162 209 244 291 347
#     4  12  23  36  50  72 117 154 194 248 289 351
#     4  12  23  36  56  81 118 169 207 248 294 355
#     4  10  21  36  55  85 114 147 195 251 304 360
#     4   8  16  36  64  90 116 144 186 254 320 365
#
# _framework density 20.025492
#
# number of rings (size 3 to 8) (size 9 to 14) (size 15 to 20)
#    0.000    1.385    3.077    4.615    0.000    1.231 
#    0.000    0.385    0.000    0.462    0.000    2.154 
#    0.000    0.000    0.000    0.000    0.000    0.000 
#
# Total GULP energy -289604.866310 kJ/mol
# GULP energy per Si atom -5569.324352 kJ/mol
# Density = 1.997991 g / cm^3
# Si number density = 20.025492 Si / 1000 Ang^3
#
#
#
# Elastic Constant Matrix: (Units=GPa)
#
#
# Indices 1 2 3 4 5 6 
#
# 1 50.6356 -3.7618 11.2839 0.0000 0.0000 0.0000
# 2 -3.7618 73.3059 27.9473 0.0000 0.0000 0.0000
# 3 11.2839 27.9473 105.3716 0.0000 0.0000 0.0000
# 4 0.0000 0.0000 0.0000 34.1650 0.0000 0.0000
# 5 0.0000 0.0000 0.0000 0.0000 8.4566 0.0000
# 6 0.0000 0.0000 0.0000 0.0000 0.0000 5.3934
#
#
#
# Elastic Compliance Matrix: (Units=1/GPa)
#
#
# Indices 1 2 3 4 5 6 
#
# 1 0.020519 0.002103 -0.002755 0.000000 0.000000 0.000000
# 2 0.002103 0.015392 -0.004308 0.000000 0.000000 0.000000
# 3 -0.002755 -0.004308 0.010928 0.000000 0.000000 0.000000
# 4 0.000000 0.000000 0.000000 0.029270 0.000000 0.000000
# 5 0.000000 0.000000 0.000000 0.000000 0.118252 0.000000
# 6 0.000000 0.000000 0.000000 0.000000 0.000000 0.185411
#
#
# Mechanical properties :
#
#
# Convention : Reuss Voigt Hill
#
# Bulk Modulus (GPa) = 27.08568 33.36132 30.22350
# Shear Modulus (GPa) = 12.43793 22.52590 17.48191
#
# Velocity S-wave (km/s) = 2.49490 3.35753 2.95783
# Velocity P-wave (km/s) = 4.67486 5.63261 5.17594
#
# Compressibility (1/GPa) = 0.03691988
#
# Stress axis : x y z
#
# Youngs Moduli (GPa) = 48.73489 64.97043 91.51029
#
# Poissons Ratio (x) = -0.13666 0.25213
# Poissons Ratio (y) = -0.10251 0.39418
# Poissons Ratio (z) = 0.13427 0.27986
#
# Static dielectric constant tensor:
#      x y z
#    x 1.661650 0.000000 0.000000 
#    y 0.000000 1.700560 0.000000 
#    z 0.000000 0.000000 1.864600 
# 
# From -- ./inp_files/49067.got.cif
#   From: 2010.05.17/outbox.cif.g08.bks.cpg/sg63_25_cif.got.tgz:49067.got - 2010.06.03 15:47:04.
