data_PCOD9473360
_publ_section_title
;
Structure prediction by ZEFSAII (Michael W. Deem and Ramdas Pophale) SiO2 
 PCOD9473360
Probable space group: C M C M
;
_chemical_formula_sum "Si O2"
_cell_formula_units_Z 96
_cell_length_a 17.931159
_cell_length_b 15.129576
_cell_length_c 17.333722
_cell_angle_alpha 90.000000
_cell_angle_beta 90.000000
_cell_angle_gamma 90.000000
_cell_volume 4702.479878
_symmetry_space_group_name_H-M "C M C M"
_symmetry_group_IT_number 63
_symmetry_cell_setting 'orthorhombic'
loop_
_space_group_symop_operation_xyz
x,y,z
-x,-y,1/2+z
x,-y,-z
-x,y,1/2-z
-x,-y,-z
x,y,1/2-z
-x,y,z
x,-y,1/2+z
1/2+x,1/2+y,z
1/2-x,1/2-y,1/2+z
1/2+x,1/2-y,-z
1/2-x,1/2+y,1/2-z
1/2-x,1/2-y,-z
1/2+x,1/2+y,1/2-z
1/2-x,1/2+y,z
1/2+x,1/2-y,1/2+z
loop_
_atom_site_type_symbol
_atom_site_label
_atom_site_fract_x
_atom_site_fract_y
_atom_site_fract_z
Si Si1 0.721447 0.650172 0.908663
Si Si2 0.710836 0.144705 0.073203
Si Si3 0.081574 0.027385 0.589533
Si Si4 0.366813 0.351599 0.658386
Si Si5 0.584958 0.966613 0.842726
Si Si6 0.376546 0.159710 0.661327
O O1 0.694661 0.750250 0.924535
O O2 0.651431 0.588983 0.890401
O O3 0.786652 0.651779 0.845258
O O4 0.764259 0.619975 0.986659
O O5 0.784794 0.131904 0.124378
O O6 0.643724 0.089953 0.109186
O O7 0.000000 0.069275 0.601073
O O8 0.088811 0.000000 0.500000
O O9 0.085686 0.935818 0.635511
O O10 0.362320 0.343810 0.750000
O O11 0.394355 0.256141 0.626532
O O12 0.602526 0.963868 0.750000
O O13 0.500000 0.935956 0.852125
O O14 0.590602 0.068832 0.869909
O O15 0.401015 0.162424 0.750000
#
# Coordination Sequence:
#
# PCOD9473360 Si02
#       6
#    16  16  16  16  16  16
#     4  10  21  37  60  84 115 153 197 243 292 343
#     4  10  20  37  60  86 115 152 196 242 288 350
#     4  11  23  38  57  84 119 158 193 238 302 358
#     4  10  20  37  61  87 114 152 201 247 288 341
#     4  10  21  37  58  86 121 156 188 236 300 354
#     4   9  20  37  60  88 117 152 200 250 289 338
#
# _framework density 20.414760000000001
#
# number of rings (size 3 to 8) (size 9 to 14) (size 15 to 20)
#    0.000    2.000    1.667    1.500    0.000    4.333 
#    0.000    3.333    0.000    0.000    0.000    0.000 
#    0.000    0.000    0.000    0.000    0.000    0.000 
#
# Total GULP energy -267945.043300 kJ/mol
# GULP energy per Si atom -5582.188402 kJ/mol
# Density = 2.036829 g / cm^3
# Si number density = 20.414760 Si / 1000 Ang^3
#
#
#
# Elastic Constant Matrix: (Units=GPa)
#
#
# Indices 1 2 3 4 5 6 
#
# 1 86.2569 48.8714 6.6830 0.0000 0.0000 0.0000
# 2 48.8714 83.7707 11.4529 0.0000 0.0000 0.0000
# 3 6.6830 11.4529 43.5704 0.0000 0.0000 0.0000
# 4 0.0000 0.0000 0.0000 23.2389 0.0000 0.0000
# 5 0.0000 0.0000 0.0000 0.0000 -317.9601 0.0000
# 6 0.0000 0.0000 0.0000 0.0000 0.0000 -1.5251
#
#
#
# Elastic Compliance Matrix: (Units=1/GPa)
#
#
# Indices 1 2 3 4 5 6 
#
# 1 0.017317 -0.010103 -0.000001 0.000000 0.000000 0.000000
# 2 -0.010103 0.018276 -0.003254 0.000000 0.000000 0.000000
# 3 -0.000001 -0.003254 0.023807 0.000000 0.000000 0.000000
# 4 0.000000 0.000000 0.000000 0.043031 0.000000 0.000000
# 5 0.000000 0.000000 0.000000 0.000000 -0.003145 0.000000
# 6 0.000000 0.000000 0.000000 0.000000 0.000000 -0.655702
#
#
# Mechanical properties :
#
#
# Convention : Reuss Voigt Hill
#
# Bulk Modulus (GPa) = 30.59524 38.62359 34.60942
# Shear Modulus (GPa) = -9.63754 -49.47654 -29.55704
#
# Velocity S-wave (km/s) = -2.17511 -4.92831 -3.80916
# Velocity P-wave (km/s) = 2.95147 3.66386 1.53503
#
# Compressibility (1/GPa) = 0.03268482
#
# Stress axis : x y z
#
# Youngs Moduli (GPa) = 57.74555 54.71601 42.00460
#
# Poissons Ratio (x) = 0.55278 0.00002
# Poissons Ratio (y) = 0.58339 0.13670
# Poissons Ratio (z) = 0.00003 0.17807
#
# Static dielectric constant tensor:
#      x y z
#    x 1.707990 0.000000 0.000000 
#    y 0.000000 1.375610 0.000000 
#    z 0.000000 0.000000 1.735480 
# 
# From -- ./inp_files/54140.got.cif
#   From: 2010.05.17/outbox.cif.g08.bks.cpg/sg63_28_cif.got.tgz:54140.got - 2010.06.03 15:47:04.
