data_PCOD9473081
_publ_section_title
;
Structure prediction by ZEFSAII (Michael W. Deem and Ramdas Pophale) SiO2 
 PCOD9473081
Probable space group: C M C M
;
_chemical_formula_sum "Si O2"
_cell_formula_units_Z 88
_cell_length_a 12.855752
_cell_length_b 17.071312
_cell_length_c 20.513122
_cell_angle_alpha 90.000000
_cell_angle_beta 90.000000
_cell_angle_gamma 90.000000
_cell_volume 4501.903158
_symmetry_space_group_name_H-M "C M C M"
_symmetry_group_IT_number 63
_symmetry_cell_setting 'orthorhombic'
loop_
_space_group_symop_operation_xyz
x,y,z
-x,-y,1/2+z
x,-y,-z
-x,y,1/2-z
-x,-y,-z
x,y,1/2-z
-x,y,z
x,-y,1/2+z
1/2+x,1/2+y,z
1/2-x,1/2-y,1/2+z
1/2+x,1/2-y,-z
1/2-x,1/2+y,1/2-z
1/2-x,1/2-y,-z
1/2+x,1/2+y,1/2-z
1/2-x,1/2+y,z
1/2+x,1/2-y,1/2+z
loop_
_atom_site_type_symbol
_atom_site_label
_atom_site_fract_x
_atom_site_fract_y
_atom_site_fract_z
Si Si1 0.381623 0.419030 0.620610
Si Si2 0.668737 0.036443 0.323295
Si Si3 0.793348 0.752711 0.573965
Si Si4 0.616550 0.911241 0.434968
Si Si5 0.617395 0.215613 0.174067
Si Si6 0.207915 0.000000 0.500000
O O1 0.500000 0.420597 0.643817
O O2 0.292169 0.445786 0.670565
O O3 0.351726 0.333102 0.592870
O O4 0.362796 0.478063 0.560543
O O5 0.641664 0.012524 0.250000
O O6 0.619483 0.121605 0.337034
O O7 0.634403 0.972231 0.375822
O O8 0.750000 0.750000 0.500000
O O9 0.866913 0.678236 0.584776
O O10 0.696624 0.746964 0.623643
O O11 0.500000 0.921307 0.461415
O O12 0.709854 0.930794 0.484875
O O13 0.647347 0.227642 0.250000
O O14 0.500000 0.244147 0.164870
#
# Coordination Sequence:
#
# PCOD9473081 Si02
#       6
#    16  16  16  16  16   8
#     4  10  20  36  58  81 113 155 192 231 285 343
#     4   9  20  38  59  85 114 144 192 245 286 341
#     4  11  22  38  53  87 125 154 194 240 292 355
#     4  11  22  36  57  83 113 148 186 235 293 344
#     4   9  19  38  62  84 112 155 199 240 290 347
#     4  10  20  38  54  80 112 144 192 236 274 334
#
# _framework density 19.547288999999999
#
# number of rings (size 3 to 8) (size 9 to 14) (size 15 to 20)
#    0.000    2.000    1.818    1.636    0.000    3.636 
#    0.000    0.909    0.000    3.273    0.000    0.000 
#    0.000    0.000    0.000    0.000    0.000    0.000 
#
# Total GULP energy -245528.445237 kJ/mol
# GULP energy per Si atom -5580.191937 kJ/mol
# Density = 1.950280 g / cm^3
# Si number density = 19.547289 Si / 1000 Ang^3
#
#
#
# Elastic Constant Matrix: (Units=GPa)
#
#
# Indices 1 2 3 4 5 6 
#
# 1 110.2253 10.7162 13.2788 0.0000 0.0000 0.0000
# 2 10.7162 53.3504 6.5547 0.0000 0.0000 0.0000
# 3 13.2788 6.5547 53.6811 0.0000 0.0000 0.0000
# 4 0.0000 0.0000 0.0000 21.4691 0.0000 0.0000
# 5 0.0000 0.0000 0.0000 0.0000 13.8011 0.0000
# 6 0.0000 0.0000 0.0000 0.0000 0.0000 13.6496
#
#
#
# Elastic Compliance Matrix: (Units=1/GPa)
#
#
# Indices 1 2 3 4 5 6 
#
# 1 0.009491 -0.001643 -0.002147 0.000000 0.000000 0.000000
# 2 -0.001643 0.019314 -0.001952 0.000000 0.000000 0.000000
# 3 -0.002147 -0.001952 0.019398 0.000000 0.000000 0.000000
# 4 0.000000 0.000000 0.000000 0.046579 0.000000 0.000000
# 5 0.000000 0.000000 0.000000 0.000000 0.072458 0.000000
# 6 0.000000 0.000000 0.000000 0.000000 0.000000 0.073262
#
#
# Mechanical properties :
#
#
# Convention : Reuss Voigt Hill
#
# Bulk Modulus (GPa) = 27.23371 30.92845 29.08108
# Shear Modulus (GPa) = 18.92332 22.23109 20.57720
#
# Velocity S-wave (km/s) = 3.11477 3.37604 3.24804
# Velocity P-wave (km/s) = 5.18635 5.57258 5.38293
#
# Compressibility (1/GPa) = 0.03671920
#
# Stress axis : x y z
#
# Youngs Moduli (GPa) = 105.36655 51.77656 51.55171
#
# Poissons Ratio (x) = 0.08505 0.11069
# Poissons Ratio (y) = 0.17307 0.10063
# Poissons Ratio (z) = 0.22623 0.10107
#
# Static dielectric constant tensor:
#      x y z
#    x 1.691280 0.000000 0.000000 
#    y 0.000000 1.691920 0.000000 
#    z 0.000000 0.000000 1.657620 
# 
# From -- ./inp_files/52545.got.cif
#   From: 2010.05.17/outbox.cif.g08.bks.cpg/sg63_27_cif.got.tgz:52545.got - 2010.06.03 15:47:04.
