data_PCOD9473404
_publ_section_title
;
Structure prediction by ZEFSAII (Michael W. Deem and Ramdas Pophale) SiO2 
 PCOD9473404
Probable space group: C M C M
;
_chemical_formula_sum "Si O2"
_cell_formula_units_Z 96
_cell_length_a 13.991368
_cell_length_b 24.570083
_cell_length_c 14.218811
_cell_angle_alpha 90.000000
_cell_angle_beta 90.000000
_cell_angle_gamma 90.000000
_cell_volume 4887.987477
_symmetry_space_group_name_H-M "C M C M"
_symmetry_group_IT_number 63
_symmetry_cell_setting 'orthorhombic'
loop_
_space_group_symop_operation_xyz
x,y,z
-x,-y,1/2+z
x,-y,-z
-x,y,1/2-z
-x,-y,-z
x,y,1/2-z
-x,y,z
x,-y,1/2+z
1/2+x,1/2+y,z
1/2-x,1/2-y,1/2+z
1/2+x,1/2-y,-z
1/2-x,1/2+y,1/2-z
1/2-x,1/2-y,-z
1/2+x,1/2+y,1/2-z
1/2-x,1/2+y,z
1/2+x,1/2-y,1/2+z
loop_
_atom_site_type_symbol
_atom_site_label
_atom_site_fract_x
_atom_site_fract_y
_atom_site_fract_z
Si Si1 0.886518 0.593372 0.976167
Si Si2 0.241617 0.094601 0.360840
Si Si3 0.384020 0.201344 0.642035
Si Si4 0.614978 0.313235 0.546407
Si Si5 0.113858 0.867904 0.357100
Si Si6 0.244865 0.028782 0.639420
O O1 0.860840 0.646208 0.912920
O O2 0.837083 0.543491 0.921857
O O3 0.000000 0.588077 0.982330
O O4 0.836779 0.600805 0.076780
O O5 0.258336 0.101191 0.250000
O O6 0.165655 0.138409 0.396907
O O7 0.208781 0.032212 0.378432
O O8 0.350601 0.200787 0.750000
O O9 0.500000 0.203290 0.644735
O O10 0.352673 0.255200 0.586588
O O11 0.500000 0.316694 0.557734
O O12 0.636771 0.323571 0.436511
O O13 0.138248 0.852094 0.250000
O O14 0.167673 0.924180 0.379977
O O15 0.000000 0.877163 0.360523
O O16 0.269284 0.032052 0.750000
#
# Coordination Sequence:
#
# PCOD9473404 Si02
#       6
#    16  16  16  16  16  16
#     4  11  23  40  61  82 110 153 204 251 294 336
#     4  11  24  39  56  85 122 153 191 241 295 354
#     4   9  19  37  61  88 115 147 195 246 287 341
#     4  10  20  37  62  89 120 154 187 231 290 351
#     4   9  18  34  57  87 122 156 190 229 281 350
#     4  10  21  38  59  85 118 152 192 243 291 344
#
# _framework density 19.639983999999998
#
# number of rings (size 3 to 8) (size 9 to 14) (size 15 to 20)
#    0.000    2.000    1.667    1.500    0.000    5.000 
#    0.000    5.833    0.000    3.000    0.000    0.000 
#    0.000    0.000    0.000    0.000    0.000    0.000 
#
# Total GULP energy -268128.510664 kJ/mol
# GULP energy per Si atom -5586.010639 kJ/mol
# Density = 1.959528 g / cm^3
# Si number density = 19.639984 Si / 1000 Ang^3
#
#
#
# Elastic Constant Matrix: (Units=GPa)
#
#
# Indices 1 2 3 4 5 6 
#
# 1 56.5286 12.0608 12.3169 0.0000 0.0000 0.0000
# 2 12.0608 100.6877 50.3620 0.0000 0.0000 0.0000
# 3 12.3169 50.3620 119.9858 0.0000 0.0000 0.0000
# 4 0.0000 0.0000 0.0000 29.7290 0.0000 0.0000
# 5 0.0000 0.0000 0.0000 0.0000 26.1201 0.0000
# 6 0.0000 0.0000 0.0000 0.0000 0.0000 24.1386
#
#
#
# Elastic Compliance Matrix: (Units=1/GPa)
#
#
# Indices 1 2 3 4 5 6 
#
# 1 0.018292 -0.001585 -0.001213 0.000000 0.000000 0.000000
# 2 -0.001585 0.012708 -0.005171 0.000000 0.000000 0.000000
# 3 -0.001213 -0.005171 0.010629 0.000000 0.000000 0.000000
# 4 0.000000 0.000000 0.000000 0.033637 0.000000 0.000000
# 5 0.000000 0.000000 0.000000 0.000000 0.038285 0.000000
# 6 0.000000 0.000000 0.000000 0.000000 0.000000 0.041427
#
#
# Mechanical properties :
#
#
# Convention : Reuss Voigt Hill
#
# Bulk Modulus (GPa) = 38.92149 47.40905 43.16527
# Shear Modulus (GPa) = 27.85815 29.49505 28.67660
#
# Velocity S-wave (km/s) = 3.77030 3.87949 3.82529
# Velocity P-wave (km/s) = 6.23010 6.65272 6.44487
#
# Compressibility (1/GPa) = 0.02569275
#
# Stress axis : x y z
#
# Youngs Moduli (GPa) = 54.66735 78.68985 94.07871
#
# Poissons Ratio (x) = 0.12469 0.11409
# Poissons Ratio (y) = 0.08663 0.48651
# Poissons Ratio (z) = 0.06629 0.40693
#
# Static dielectric constant tensor:
#      x y z
#    x 1.678370 0.000000 0.000000 
#    y 0.000000 1.675880 0.000000 
#    z 0.000000 0.000000 1.697840 
# 
# From -- ./inp_files/31865.got.cif
#   From: 2010.05.17/outbox.cif.g08.bks.cpg/sg63_16_cif.got.tgz:31865.got - 2010.06.03 15:47:04.
