data_PCOD9473364
_publ_section_title
;
Structure prediction by ZEFSAII (Michael W. Deem and Ramdas Pophale) SiO2 
 PCOD9473364
Probable space group: C M C M
;
_chemical_formula_sum "Si O2"
_cell_formula_units_Z 100
_cell_length_a 7.841294
_cell_length_b 28.888764
_cell_length_c 22.354432
_cell_angle_alpha 90.000000
_cell_angle_beta 90.000000
_cell_angle_gamma 90.000000
_cell_volume 5063.844232
_symmetry_space_group_name_H-M "C M C M"
_symmetry_group_IT_number 63
_symmetry_cell_setting 'orthorhombic'
loop_
_space_group_symop_operation_xyz
x,y,z
-x,-y,1/2+z
x,-y,-z
-x,y,1/2-z
-x,-y,-z
x,y,1/2-z
-x,y,z
x,-y,1/2+z
1/2+x,1/2+y,z
1/2-x,1/2-y,1/2+z
1/2+x,1/2-y,-z
1/2-x,1/2+y,1/2-z
1/2-x,1/2-y,-z
1/2+x,1/2+y,1/2-z
1/2-x,1/2+y,z
1/2+x,1/2-y,1/2+z
loop_
_atom_site_type_symbol
_atom_site_label
_atom_site_fract_x
_atom_site_fract_y
_atom_site_fract_z
Si Si1 0.800213 0.484489 0.064829
Si Si2 0.701847 0.784778 0.446574
Si Si3 0.811290 0.278436 0.844518
Si Si4 0.794676 0.537426 0.182464
Si Si5 0.795637 0.875343 0.889846
Si Si6 0.203181 0.110313 0.522627
Si Si7 0.000000 0.777931 0.750000
O O1 0.729067 0.506768 0.126112
O O2 0.783451 0.429087 0.063826
O O3 0.000000 0.497400 0.063582
O O4 0.724768 0.500000 0.000000
O O5 0.500000 0.782030 0.437447
O O6 0.750000 0.750000 0.500000
O O7 0.794114 0.765087 0.388359
O O8 0.751149 0.837334 0.460795
O O9 0.790755 0.325885 0.882028
O O10 0.651241 0.278304 0.800946
O O11 0.000000 0.278587 0.817462
O O12 0.731470 0.527210 0.250000
O O13 0.751407 0.589939 0.163452
O O14 0.000000 0.532522 0.184263
O O15 0.000000 0.869218 0.891157
O O16 0.741569 0.896808 0.953484
O O17 0.000000 0.104930 0.525411
#
# Coordination Sequence:
#
# PCOD9473364 Si02
#       7
#    16  16  16  16  16  16   4
#     4  10  20  37  60  87 118 157 211 268 323 389
#     4  12  23  40  65  98 132 166 216 273 335 393
#     4  12  25  43  67  95 134 178 221 272 327 396
#     4  10  22  38  59  86 121 163 210 260 329 401
#     4  11  22  37  57  93 132 165 211 264 324 398
#     4  11  23  37  61  92 125 166 211 265 332 393
#     4  12  26  48  64  94 136 182 232 258 328 402
#
# _framework density 19.747841000000001
#
# number of rings (size 3 to 8) (size 9 to 14) (size 15 to 20)
#    0.000    0.960    4.800    2.640    1.120    2.560 
#    0.000    0.000    1.760    0.000    0.000    0.000 
#    0.000    0.000    0.000    0.000    0.000    0.000 
#
# Total GULP energy -278771.047722 kJ/mol
# GULP energy per Si atom -5575.420954 kJ/mol
# Density = 1.970289 g / cm^3
# Si number density = 19.747841 Si / 1000 Ang^3
#
#
#
# Elastic Constant Matrix: (Units=GPa)
#
#
# Indices 1 2 3 4 5 6 
#
# 1 100.0299 -6.0892 23.2473 0.0000 0.0000 0.0000
# 2 -6.0892 95.6825 42.6940 0.0000 0.0000 0.0000
# 3 23.2473 42.6940 112.8050 0.0000 0.0000 0.0000
# 4 0.0000 0.0000 0.0000 -41.0428 0.0000 0.0000
# 5 0.0000 0.0000 0.0000 0.0000 13.4437 0.0000
# 6 0.0000 0.0000 0.0000 0.0000 0.0000 24.7096
#
#
#
# Elastic Compliance Matrix: (Units=1/GPa)
#
#
# Indices 1 2 3 4 5 6 
#
# 1 0.010816 0.002025 -0.002995 0.000000 0.000000 0.000000
# 2 0.002025 0.012954 -0.005320 0.000000 0.000000 0.000000
# 3 -0.002995 -0.005320 0.011496 0.000000 0.000000 0.000000
# 4 0.000000 0.000000 0.000000 -0.024365 0.000000 0.000000
# 5 0.000000 0.000000 0.000000 0.000000 0.074384 0.000000
# 6 0.000000 0.000000 0.000000 0.000000 0.000000 0.040470
#
#
# Mechanical properties :
#
#
# Convention : Reuss Voigt Hill
#
# Bulk Modulus (GPa) = 44.08226 47.58020 45.83123
# Shear Modulus (GPa) = 34.27039 15.99978 25.13508
#
# Velocity S-wave (km/s) = 4.17033 2.84950 3.57150
# Velocity P-wave (km/s) = 6.74981 5.91374 6.34556
#
# Compressibility (1/GPa) = 0.02268486
#
# Stress axis : x y z
#
# Youngs Moduli (GPa) = 92.45189 77.19656 86.98903
#
# Poissons Ratio (x) = -0.15632 0.26058
# Poissons Ratio (y) = -0.18721 0.46279
# Poissons Ratio (z) = 0.27694 0.41069
#
# Static dielectric constant tensor:
#      x y z
#    x 1.696810 0.000000 0.000000 
#    y 0.000000 1.692060 0.000000 
#    z 0.000000 0.000000 1.854510 
# 
# From -- ./inp_files/51496.got.cif
#   From: 2010.05.17/outbox.cif.g08.bks.cpg/sg63_26_cif.got.tgz:51496.got - 2010.06.03 15:47:04.
