data_PCOD9473283
_publ_section_title
;
Structure prediction by ZEFSAII (Michael W. Deem and Ramdas Pophale) SiO2 
 PCOD9473283
Probable space group: C M C M
;
_chemical_formula_sum "Si O2"
_cell_formula_units_Z 80
_cell_length_a 11.567590
_cell_length_b 13.559519
_cell_length_c 28.031303
_cell_angle_alpha 90.000000
_cell_angle_beta 90.000000
_cell_angle_gamma 90.000000
_cell_volume 4396.736684
_symmetry_space_group_name_H-M "C M C M"
_symmetry_group_IT_number 63
_symmetry_cell_setting 'orthorhombic'
loop_
_space_group_symop_operation_xyz
x,y,z
-x,-y,1/2+z
x,-y,-z
-x,y,1/2-z
-x,-y,-z
x,y,1/2-z
-x,y,z
x,-y,1/2+z
1/2+x,1/2+y,z
1/2-x,1/2-y,1/2+z
1/2+x,1/2-y,-z
1/2-x,1/2+y,1/2-z
1/2-x,1/2-y,-z
1/2+x,1/2+y,1/2-z
1/2-x,1/2+y,z
1/2+x,1/2-y,1/2+z
loop_
_atom_site_type_symbol
_atom_site_label
_atom_site_fract_x
_atom_site_fract_y
_atom_site_fract_z
Si Si1 0.639495 0.980815 0.195821
Si Si2 0.226677 0.035144 0.052635
Si Si3 0.235393 0.352949 0.110702
Si Si4 0.872414 0.762938 0.971191
Si Si5 0.635604 0.849173 0.628325
O O1 0.679580 0.966733 0.250000
O O2 0.500000 0.978397 0.195673
O O3 0.683733 0.900609 0.158193
O O4 0.675619 0.086601 0.173806
O O5 0.135414 0.123754 0.046848
O O6 0.329727 0.085470 0.082383
O O7 0.193620 0.938281 0.082812
O O8 0.260059 0.000000 0.000000
O O9 0.141018 0.312862 0.072765
O O10 0.307589 0.256729 0.123532
O O11 0.000000 0.748464 0.994243
O O12 0.750000 0.750000 0.000000
O O13 0.500000 0.838207 0.630966
#
# Coordination Sequence:
#
# PCOD9473283 Si02
#       5
#    16  16  16  16  16
#     4   9  18  35  58  81 105 138 182 234 290 345
#     4  10  20  37  49  78 109 151 190 230 271 332
#     4  10  20  37  55  81 113 149 191 229 284 338
#     4  11  23  38  55  81 116 155 199 242 284 337
#     4   9  20  34  53  80 111 142 183 231 280 335
#
# _framework density 18.195314
#
# number of rings (size 3 to 8) (size 9 to 14) (size 15 to 20)
#    0.000    2.200    2.000    0.600    0.000    6.400 
#    0.000    0.000    0.000    0.000    0.000    0.000 
#    0.000    0.000    0.000    0.000    0.000    0.000 
#
# Total GULP energy -222822.386927 kJ/mol
# GULP energy per Si atom -5570.559673 kJ/mol
# Density = 1.815390 g / cm^3
# Si number density = 18.195314 Si / 1000 Ang^3
#
#
#
# Elastic Constant Matrix: (Units=GPa)
#
#
# Indices 1 2 3 4 5 6 
#
# 1 73.2315 28.7634 31.8669 0.0000 0.0000 0.0000
# 2 28.7634 136.3729 56.0862 0.0000 0.0000 0.0000
# 3 31.8669 56.0862 137.8482 0.0000 0.0000 0.0000
# 4 0.0000 0.0000 0.0000 20.2592 0.0000 0.0000
# 5 0.0000 0.0000 0.0000 0.0000 18.2653 0.0000
# 6 0.0000 0.0000 0.0000 0.0000 0.0000 0.1229
#
#
#
# Elastic Compliance Matrix: (Units=1/GPa)
#
#
# Indices 1 2 3 4 5 6 
#
# 1 0.015707 -0.002185 -0.002742 0.000000 0.000000 0.000000
# 2 -0.002185 0.009110 -0.003202 0.000000 0.000000 0.000000
# 3 -0.002742 -0.003202 0.009191 0.000000 0.000000 0.000000
# 4 0.000000 0.000000 0.000000 0.049360 0.000000 0.000000
# 5 0.000000 0.000000 0.000000 0.000000 0.054749 0.000000
# 6 0.000000 0.000000 0.000000 0.000000 0.000000 8.138645
#
#
# Mechanical properties :
#
#
# Convention : Reuss Voigt Hill
#
# Bulk Modulus (GPa) = 56.33585 64.54285 60.43935
# Shear Modulus (GPa) = 0.60249 23.11187 11.85718
#
# Velocity S-wave (km/s) = 0.57606 3.56787 2.55553
# Velocity P-wave (km/s) = 5.60994 7.24722 6.48049
#
# Compressibility (1/GPa) = 0.01775069
#
# Stress axis : x y z
#
# Youngs Moduli (GPa) = 63.66690 109.76405 108.80382
#
# Poissons Ratio (x) = 0.23985 0.29833
# Poissons Ratio (y) = 0.13912 0.34835
# Poissons Ratio (z) = 0.17457 0.35142
#
# Static dielectric constant tensor:
#      x y z
#    x 1.622530 0.000000 0.000000 
#    y 0.000000 1.652970 0.000000 
#    z 0.000000 0.000000 1.647340 
# 
# From -- ./inp_files/68099.got.cif
#   From: 2010.05.17/outbox.cif.g08.bks.cpg/sg63_35_cif.got.tgz:68099.got - 2010.06.03 15:47:04.
