data_PCOD9473679
_publ_section_title
;
Structure prediction by ZEFSAII (Michael W. Deem and Ramdas Pophale) SiO2 
 PCOD9473679
Probable space group: C M C M
;
_chemical_formula_sum "Si O2"
_cell_formula_units_Z 40
_cell_length_a 14.645003
_cell_length_b 10.574277
_cell_length_c 10.569757
_cell_angle_alpha 90.000000
_cell_angle_beta 90.000000
_cell_angle_gamma 90.000000
_cell_volume 1636.835934
_symmetry_space_group_name_H-M "C M C M"
_symmetry_group_IT_number 63
_symmetry_cell_setting 'orthorhombic'
loop_
_space_group_symop_operation_xyz
x,y,z
-x,-y,1/2+z
x,-y,-z
-x,y,1/2-z
-x,-y,-z
x,y,1/2-z
-x,y,z
x,-y,1/2+z
1/2+x,1/2+y,z
1/2-x,1/2-y,1/2+z
1/2+x,1/2-y,-z
1/2-x,1/2+y,1/2-z
1/2-x,1/2-y,-z
1/2+x,1/2+y,1/2-z
1/2-x,1/2+y,z
1/2+x,1/2-y,1/2+z
loop_
_atom_site_type_symbol
_atom_site_label
_atom_site_fract_x
_atom_site_fract_y
_atom_site_fract_z
Si Si1 0.354327 0.707641 0.526051
Si Si2 0.344882 0.715713 0.250000
Si Si3 0.290691 0.552808 0.750000
Si Si4 0.000000 0.597299 0.387162
O O1 0.250000 0.750000 0.500000
O O2 0.394017 0.697273 0.384222
O O3 0.345955 0.591289 0.623169
O O4 0.412314 0.813556 0.596730
O O5 0.274055 0.596326 0.250000
O O6 0.296412 0.853259 0.250000
O O7 0.000000 0.500000 0.500000
O O8 0.000000 0.534701 0.250000
#
# Coordination Sequence:
#
# PCOD9473679 Si02
#       4
#    16   8   8   8
#     4  10  23  44  69 106 151 195 253 316 390 452
#     4  10  22  37  70 103 148 194 258 305 383 453
#     4  10  20  41  66 105 146 200 248 317 375 457
#     4  12  28  50  79 115 156 204 264 328 388 468
#
# _framework density 24.437391000000002
#
# number of rings (size 3 to 8) (size 9 to 14) (size 15 to 20)
#    0.000    1.600    2.000    1.200    2.800   12.800 
#    0.000    6.000    0.000    0.000    0.000    0.000 
#    0.000    0.000    0.000    0.000    0.000    0.000 
#
# Total GULP energy -111721.800825 kJ/mol
# GULP energy per Si atom -5586.090041 kJ/mol
# Density = 2.438177 g / cm^3
# Si number density = 24.437391 Si / 1000 Ang^3
#
#
#
# Elastic Constant Matrix: (Units=GPa)
#
#
# Indices 1 2 3 4 5 6 
#
# 1 107.8040 27.5518 12.4662 0.0000 0.0000 0.0000
# 2 27.5518 92.7715 -0.1790 0.0000 0.0000 0.0000
# 3 12.4662 -0.1790 246.5894 0.0000 0.0000 0.0000
# 4 0.0000 0.0000 0.0000 50.4509 0.0000 0.0000
# 5 0.0000 0.0000 0.0000 0.0000 14.1566 0.0000
# 6 0.0000 0.0000 0.0000 0.0000 0.0000 13.8035
#
#
#
# Elastic Compliance Matrix: (Units=1/GPa)
#
#
# Indices 1 2 3 4 5 6 
#
# 1 0.010102 -0.003001 -0.000513 0.000000 0.000000 0.000000
# 2 -0.003001 0.011671 0.000160 0.000000 0.000000 0.000000
# 3 -0.000513 0.000160 0.004081 0.000000 0.000000 0.000000
# 4 0.000000 0.000000 0.000000 0.019821 0.000000 0.000000
# 5 0.000000 0.000000 0.000000 0.000000 0.070639 0.000000
# 6 0.000000 0.000000 0.000000 0.000000 0.000000 0.072445
#
#
# Mechanical properties :
#
#
# Convention : Reuss Voigt Hill
#
# Bulk Modulus (GPa) = 52.22836 58.53809 55.38323
# Shear Modulus (GPa) = 24.77087 42.83726 33.80407
#
# Velocity S-wave (km/s) = 3.18724 4.19135 3.72330
# Velocity P-wave (km/s) = 5.91298 6.88691 6.41845
#
# Compressibility (1/GPa) = 0.01914669
#
# Stress axis : x y z
#
# Youngs Moduli (GPa) = 98.98595 85.68383 245.01574
#
# Poissons Ratio (x) = 0.25716 0.12567
# Poissons Ratio (y) = 0.29708 -0.03925
# Poissons Ratio (z) = 0.05077 -0.01373
#
# Static dielectric constant tensor:
#      x y z
#    x 1.955520 0.000000 0.000000 
#    y 0.000000 1.890110 0.000000 
#    z 0.000000 0.000000 2.072700 
# 
# From -- ./inp_files/18349.got.cif
#   From: 2010.05.17/outbox.cif.g08.bks.cpg/sg63_10_cif.got.tgz:18349.got - 2010.06.03 15:47:04.
