data_PCOD9473513
_publ_section_title
;
Structure prediction by ZEFSAII (Michael W. Deem and Ramdas Pophale) SiO2 
 PCOD9473513
Probable space group: C M C M
;
_chemical_formula_sum "Si O2"
_cell_formula_units_Z 96
_cell_length_a 14.190886
_cell_length_b 23.243790
_cell_length_c 14.161467
_cell_angle_alpha 90.000000
_cell_angle_beta 90.000000
_cell_angle_gamma 90.000000
_cell_volume 4671.159523
_symmetry_space_group_name_H-M "C M C M"
_symmetry_group_IT_number 63
_symmetry_cell_setting 'orthorhombic'
loop_
_space_group_symop_operation_xyz
x,y,z
-x,-y,1/2+z
x,-y,-z
-x,y,1/2-z
-x,-y,-z
x,y,1/2-z
-x,y,z
x,-y,1/2+z
1/2+x,1/2+y,z
1/2-x,1/2-y,1/2+z
1/2+x,1/2-y,-z
1/2-x,1/2+y,1/2-z
1/2-x,1/2-y,-z
1/2+x,1/2+y,1/2-z
1/2-x,1/2+y,z
1/2+x,1/2-y,1/2+z
loop_
_atom_site_type_symbol
_atom_site_label
_atom_site_fract_x
_atom_site_fract_y
_atom_site_fract_z
Si Si1 0.893084 0.403818 0.947382
Si Si2 0.655644 0.327864 0.148463
Si Si3 0.690435 0.079595 0.644091
Si Si4 0.605822 0.637420 0.438087
Si Si5 0.715022 0.535859 0.359869
Si Si6 0.282057 0.789160 0.587341
O O1 0.818341 0.440045 0.887077
O O2 0.857302 0.338195 0.937890
O O3 0.000000 0.410857 0.917080
O O4 0.880049 0.422131 0.056742
O O5 0.613798 0.346198 0.250000
O O6 0.757463 0.359119 0.143330
O O7 0.670718 0.259422 0.150676
O O8 0.608740 0.346437 0.049682
O O9 0.652792 0.068930 0.750000
O O10 0.772262 0.032161 0.626067
O O11 0.500000 0.646113 0.403143
O O12 0.641209 0.572286 0.420739
O O13 0.686112 0.676453 0.386991
O O14 0.694667 0.546365 0.250000
O O15 0.250000 0.750000 0.500000
#
# Coordination Sequence:
#
# PCOD9473513 Si02
#       6
#    16  16  16  16  16  16
#     4  11  22  37  63  92 118 153 202 250 299 358
#     4  10  20  38  62  88 120 159 200 247 302 357
#     4  10  20  38  63  87 120 158 195 243 304 361
#     4  10  21  38  63  91 119 159 206 252 301 354
#     4  10  22  40  60  85 122 162 201 248 302 358
#     4   9  18  37  56  84 117 157 192 240 296 353
#
# _framework density 20.551642999999999
#
# number of rings (size 3 to 8) (size 9 to 14) (size 15 to 20)
#    0.000    2.000    5.000    0.500    0.000    8.000 
#    0.000    3.333    0.000    3.000    0.000    0.000 
#    0.000    0.000    0.000    0.000    0.000    0.000 
#
# Total GULP energy -267457.184949 kJ/mol
# GULP energy per Si atom -5572.024686 kJ/mol
# Density = 2.050487 g / cm^3
# Si number density = 20.551643 Si / 1000 Ang^3
#
#
#
# Elastic Constant Matrix: (Units=GPa)
#
#
# Indices 1 2 3 4 5 6 
#
# 1 87.0412 -3.1654 9.1204 0.0000 0.0000 0.0000
# 2 -3.1654 80.8102 28.8760 0.0000 0.0000 0.0000
# 3 9.1204 28.8760 83.8048 0.0000 0.0000 0.0000
# 4 0.0000 0.0000 0.0000 26.4627 0.0000 0.0000
# 5 0.0000 0.0000 0.0000 0.0000 4.7323 0.0000
# 6 0.0000 0.0000 0.0000 0.0000 0.0000 4.0753
#
#
#
# Elastic Compliance Matrix: (Units=1/GPa)
#
#
# Indices 1 2 3 4 5 6 
#
# 1 0.011698 0.001041 -0.001632 0.000000 0.000000 0.000000
# 2 0.001041 0.014205 -0.005008 0.000000 0.000000 0.000000
# 3 -0.001632 -0.005008 0.013836 0.000000 0.000000 0.000000
# 4 0.000000 0.000000 0.000000 0.037789 0.000000 0.000000
# 5 0.000000 0.000000 0.000000 0.000000 0.211312 0.000000
# 6 0.000000 0.000000 0.000000 0.000000 0.000000 0.245380
#
#
# Mechanical properties :
#
#
# Convention : Reuss Voigt Hill
#
# Bulk Modulus (GPa) = 35.03671 35.70202 35.36936
# Shear Modulus (GPa) = 9.01016 21.50908 15.25962
#
# Velocity S-wave (km/s) = 2.09611 3.23861 2.72784
# Velocity P-wave (km/s) = 4.78992 5.60307 5.21238
#
# Compressibility (1/GPa) = 0.02854150
#
# Stress axis : x y z
#
# Youngs Moduli (GPa) = 85.48718 70.39819 72.27745
#
# Poissons Ratio (x) = -0.07331 0.11794
# Poissons Ratio (y) = -0.08902 0.36195
# Poissons Ratio (z) = 0.13950 0.35254
#
# Static dielectric constant tensor:
#      x y z
#    x 1.708660 0.000000 0.000000 
#    y 0.000000 1.769140 0.000000 
#    z 0.000000 0.000000 1.797540 
# 
# From -- ./inp_files/31957.got.cif
#   From: 2010.05.17/outbox.cif.g08.bks.cpg/sg63_16_cif.got.tgz:31957.got - 2010.06.03 15:47:04.
