data_PCOD9473592
_publ_section_title
;
Structure prediction by ZEFSAII (Michael W. Deem and Ramdas Pophale) SiO2 
 PCOD9473592
Probable space group: C M C M
;
_chemical_formula_sum "Si O2"
_cell_formula_units_Z 116
_cell_length_a 29.903014
_cell_length_b 12.332321
_cell_length_c 17.040686
_cell_angle_alpha 90.000000
_cell_angle_beta 90.000000
_cell_angle_gamma 90.000000
_cell_volume 6284.154569
_symmetry_space_group_name_H-M "C M C M"
_symmetry_group_IT_number 63
_symmetry_cell_setting 'orthorhombic'
loop_
_space_group_symop_operation_xyz
x,y,z
-x,-y,1/2+z
x,-y,-z
-x,y,1/2-z
-x,-y,-z
x,y,1/2-z
-x,y,z
x,-y,1/2+z
1/2+x,1/2+y,z
1/2-x,1/2-y,1/2+z
1/2+x,1/2-y,-z
1/2-x,1/2+y,1/2-z
1/2-x,1/2-y,-z
1/2+x,1/2+y,1/2-z
1/2-x,1/2+y,z
1/2+x,1/2-y,1/2+z
loop_
_atom_site_type_symbol
_atom_site_label
_atom_site_fract_x
_atom_site_fract_y
_atom_site_fract_z
Si Si1 0.231082 0.782827 0.415256
Si Si2 0.336464 0.436448 0.159930
Si Si3 0.947125 0.123313 0.474396
Si Si4 0.664113 0.109012 0.155689
Si Si5 0.000000 0.763278 0.250000
Si Si6 0.084800 0.229273 0.870145
Si Si7 0.677687 0.864086 0.343908
Si Si8 0.120121 0.836363 0.656943
O O1 0.250000 0.750000 0.500000
O O2 0.195918 0.881702 0.403854
O O3 0.203620 0.681543 0.380424
O O4 0.273807 0.820283 0.366014
O O5 0.318647 0.425019 0.250000
O O6 0.382953 0.369598 0.157537
O O7 0.346706 0.561837 0.144171
O O8 0.927828 0.202341 0.540662
O O9 0.924238 0.142942 0.391521
O O10 0.000000 0.135212 0.470100
O O11 0.936879 0.000000 0.500000
O O12 0.668903 0.111591 0.250000
O O13 0.616650 0.165524 0.136853
O O14 0.668341 0.985504 0.127200
O O15 0.959857 0.764277 0.318149
O O16 0.674115 0.867358 0.250000
O O17 0.642567 0.774381 0.371899
O O18 0.111927 0.831201 0.750000
#
# Coordination Sequence:
#
# PCOD9473592 Si02
#       8
#    16  16  16  16   4  16  16  16
#     4  11  24  38  59  92 124 158 206 255 310 368
#     4  10  20  39  62  88 122 162 205 258 316 364
#     4  11  23  38  59  94 130 159 199 260 320 376
#     4  10  22  43  66  87 125 161 207 264 312 359
#     4  12  20  36  70 104 126 152 224 258 316 406
#     4  11  20  37  63  97 125 158 202 266 321 372
#     4  10  23  42  63  87 117 164 213 249 297 369
#     4  10  23  41  63  87 123 170 209 249 313 381
#
# _framework density 18.459125
#
# number of rings (size 3 to 8) (size 9 to 14) (size 15 to 20)
#    0.000    1.517    3.448    2.069    5.793    0.828 
#    0.000    0.000    1.517    0.828    0.000    0.000 
#    0.000    0.000    0.000    0.000    0.000    0.000 
#
# Total GULP energy -323258.236215 kJ/mol
# GULP energy per Si atom -5573.417866 kJ/mol
# Density = 1.841711 g / cm^3
# Si number density = 18.459125 Si / 1000 Ang^3
#
#
#
# Elastic Constant Matrix: (Units=GPa)
#
#
# Indices 1 2 3 4 5 6 
#
# 1 97.0667 47.2829 43.4030 0.0000 0.0000 0.0000
# 2 47.2829 127.9690 41.1583 0.0000 0.0000 0.0000
# 3 43.4030 41.1583 64.5069 0.0000 0.0000 0.0000
# 4 0.0000 0.0000 0.0000 1.5518 0.0000 0.0000
# 5 0.0000 0.0000 0.0000 0.0000 37.0210 0.0000
# 6 0.0000 0.0000 0.0000 0.0000 0.0000 6.8105
#
#
#
# Elastic Compliance Matrix: (Units=1/GPa)
#
#
# Indices 1 2 3 4 5 6 
#
# 1 0.015603 -0.003005 -0.008581 0.000000 0.000000 0.000000
# 2 -0.003005 0.010411 -0.004621 0.000000 0.000000 0.000000
# 3 -0.008581 -0.004621 0.024224 0.000000 0.000000 0.000000
# 4 0.000000 0.000000 0.000000 0.644417 0.000000 0.000000
# 5 0.000000 0.000000 0.000000 0.000000 0.027012 0.000000
# 6 0.000000 0.000000 0.000000 0.000000 0.000000 0.146833
#
#
# Mechanical properties :
#
#
# Convention : Reuss Voigt Hill
#
# Bulk Modulus (GPa) = 56.10275 61.47011 58.78643
# Shear Modulus (GPa) = 5.51357 19.58989 12.55173
#
# Velocity S-wave (km/s) = 1.73014 3.26123 2.61046
# Velocity P-wave (km/s) = 5.86942 6.89592 6.40328
#
# Compressibility (1/GPa) = 0.01782444
#
# Stress axis : x y z
#
# Youngs Moduli (GPa) = 64.09010 96.05329 41.28151
#
# Poissons Ratio (x) = 0.28867 0.35423
# Poissons Ratio (y) = 0.19261 0.19074
# Poissons Ratio (z) = 0.54995 0.44382
#
# Static dielectric constant tensor:
#      x y z
#    x 1.611680 0.000000 0.000000 
#    y 0.000000 1.654810 0.000000 
#    z 0.000000 0.000000 1.636040 
# 
# From -- ./inp_files/49116.got.cif
#   From: 2010.05.17/outbox.cif.g08.bks.cpg/sg63_25_cif.got.tgz:49116.got - 2010.06.03 15:47:04.
