data_PCOD9473554
_publ_section_title
;
Structure prediction by ZEFSAII (Michael W. Deem and Ramdas Pophale) SiO2 
 PCOD9473554
Probable space group: C M C M
;
_chemical_formula_sum "Si O2"
_cell_formula_units_Z 96
_cell_length_a 8.613710
_cell_length_b 25.633455
_cell_length_c 21.287587
_cell_angle_alpha 90.000000
_cell_angle_beta 90.000000
_cell_angle_gamma 90.000000
_cell_volume 4700.281066
_symmetry_space_group_name_H-M "C M C M"
_symmetry_group_IT_number 63
_symmetry_cell_setting 'orthorhombic'
loop_
_space_group_symop_operation_xyz
x,y,z
-x,-y,1/2+z
x,-y,-z
-x,y,1/2-z
-x,-y,-z
x,y,1/2-z
-x,y,z
x,-y,1/2+z
1/2+x,1/2+y,z
1/2-x,1/2-y,1/2+z
1/2+x,1/2-y,-z
1/2-x,1/2+y,1/2-z
1/2-x,1/2-y,-z
1/2+x,1/2+y,1/2-z
1/2-x,1/2+y,z
1/2+x,1/2-y,1/2+z
loop_
_atom_site_type_symbol
_atom_site_label
_atom_site_fract_x
_atom_site_fract_y
_atom_site_fract_z
Si Si1 0.814987 0.089115 0.509159
Si Si2 0.687703 0.121489 0.750000
Si Si3 0.686767 0.046286 0.635984
Si Si4 0.815836 0.239101 0.750000
Si Si5 0.815981 0.176770 0.156020
Si Si6 0.185740 0.694144 0.482124
Si Si7 0.314880 0.070689 0.131129
O O1 0.765020 0.054719 0.568335
O O2 0.747966 0.146783 0.524253
O O3 0.743422 0.072485 0.441778
O O4 0.000000 0.090494 0.502554
O O5 0.500000 0.122601 0.750000
O O6 0.736068 0.088692 0.688028
O O7 0.746471 0.180944 0.750000
O O8 0.500000 0.050783 0.627909
O O9 0.718886 0.986925 0.656915
O O10 0.759968 0.275361 0.692657
O O11 0.000000 0.234786 0.750000
O O12 0.760277 0.182772 0.085035
O O13 0.759760 0.117999 0.170366
O O14 0.000000 0.179940 0.162737
O O15 0.250000 0.750000 0.500000
O O16 0.000000 0.693470 0.480278
O O17 0.500000 0.078798 0.130083
#
# Coordination Sequence:
#
# PCOD9473554 Si02
#       7
#    16   8  16   8  16  16  16
#     4  11  22  36  58  90 126 164 205 254 310 367
#     4  10  24  45  64  87 119 160 210 254 305 372
#     4  10  22  40  63  89 124 167 208 255 310 371
#     4  12  26  45  66  89 123 164 210 260 309 372
#     4  11  23  41  64  92 123 160 203 255 310 367
#     4  11  22  38  60  88 122 160 204 254 309 370
#     4  10  20  38  64  95 127 160 205 256 311 375
#
# _framework density 20.424310999999999
#
# number of rings (size 3 to 8) (size 9 to 14) (size 15 to 20)
#    0.000    1.333    0.000    8.250    2.333    4.667 
#    0.000    1.667    0.000    0.000    0.000    0.000 
#    0.000    0.000    0.000    0.000    0.000    0.000 
#
# Total GULP energy -268176.241079 kJ/mol
# GULP energy per Si atom -5587.005022 kJ/mol
# Density = 2.037782 g / cm^3
# Si number density = 20.424311 Si / 1000 Ang^3
#
#
#
# Elastic Constant Matrix: (Units=GPa)
#
#
# Indices 1 2 3 4 5 6 
#
# 1 125.6017 50.2436 15.1755 0.0000 0.0000 0.0000
# 2 50.2436 174.8097 36.3456 0.0000 0.0000 0.0000
# 3 15.1755 36.3456 53.9398 0.0000 0.0000 0.0000
# 4 0.0000 0.0000 0.0000 32.8710 0.0000 0.0000
# 5 0.0000 0.0000 0.0000 0.0000 2.8095 0.0000
# 6 0.0000 0.0000 0.0000 0.0000 0.0000 37.1451
#
#
#
# Elastic Compliance Matrix: (Units=1/GPa)
#
#
# Indices 1 2 3 4 5 6 
#
# 1 0.009035 -0.002405 -0.000921 0.000000 0.000000 0.000000
# 2 -0.002405 0.007293 -0.004237 0.000000 0.000000 0.000000
# 3 -0.000921 -0.004237 0.021654 0.000000 0.000000 0.000000
# 4 0.000000 0.000000 0.000000 0.030422 0.000000 0.000000
# 5 0.000000 0.000000 0.000000 0.000000 0.355939 0.000000
# 6 0.000000 0.000000 0.000000 0.000000 0.000000 0.026921
#
#
# Mechanical properties :
#
#
# Convention : Reuss Voigt Hill
#
# Bulk Modulus (GPa) = 43.75636 61.98673 52.87154
# Shear Modulus (GPa) = 10.54830 31.40420 20.97625
#
# Velocity S-wave (km/s) = 2.27504 3.92546 3.20820
# Velocity P-wave (km/s) = 5.32647 7.13870 6.29811
#
# Compressibility (1/GPa) = 0.02285382
#
# Stress axis : x y z
#
# Youngs Moduli (GPa) = 110.67858 137.12048 46.18176
#
# Poissons Ratio (x) = 0.32982 0.04254
# Poissons Ratio (y) = 0.26622 0.19569
# Poissons Ratio (z) = 0.10196 0.58103
#
# Static dielectric constant tensor:
#      x y z
#    x 1.681940 0.000000 0.000000 
#    y 0.000000 1.759690 0.000000 
#    z 0.000000 0.000000 1.764700 
# 
# From -- ./inp_files/60027.got.cif
#   From: 2010.05.17/outbox.cif.g08.bks.cpg/sg63_31_cif.got.tgz:60027.got - 2010.06.03 15:47:04.
