data_PCOD9473448
_publ_section_title
;
Structure prediction by ZEFSAII (Michael W. Deem and Ramdas Pophale) SiO2 
 PCOD9473448
Probable space group: C M C M
;
_chemical_formula_sum "Si O2"
_cell_formula_units_Z 112
_cell_length_a 26.872504
_cell_length_b 14.555761
_cell_length_c 15.109740
_cell_angle_alpha 90.000000
_cell_angle_beta 90.000000
_cell_angle_gamma 90.000000
_cell_volume 5910.170959
_symmetry_space_group_name_H-M "C M C M"
_symmetry_group_IT_number 63
_symmetry_cell_setting 'orthorhombic'
loop_
_space_group_symop_operation_xyz
x,y,z
-x,-y,1/2+z
x,-y,-z
-x,y,1/2-z
-x,-y,-z
x,y,1/2-z
-x,y,z
x,-y,1/2+z
1/2+x,1/2+y,z
1/2-x,1/2-y,1/2+z
1/2+x,1/2-y,-z
1/2-x,1/2+y,1/2-z
1/2-x,1/2-y,-z
1/2+x,1/2+y,1/2-z
1/2-x,1/2+y,z
1/2+x,1/2-y,1/2+z
loop_
_atom_site_type_symbol
_atom_site_label
_atom_site_fract_x
_atom_site_fract_y
_atom_site_fract_z
Si Si1 0.358470 0.157245 0.392590
Si Si2 0.058581 0.335925 0.029772
Si Si3 0.096263 0.043523 0.645088
Si Si4 0.307878 0.658252 0.653656
Si Si5 0.558300 0.625191 0.461443
Si Si6 0.129894 0.550559 0.653220
Si Si7 0.278784 0.900206 0.038221
O O1 0.412004 0.168229 0.437822
O O2 0.341467 0.250096 0.346238
O O3 0.314346 0.143880 0.464558
O O4 0.363817 0.059285 0.345990
O O5 0.065633 0.231505 0.064134
O O6 0.087729 0.412103 0.086824
O O7 0.000000 0.354720 0.022976
O O8 0.079770 0.051609 0.750000
O O9 0.153687 0.074192 0.644696
O O10 0.071772 0.105211 0.565264
O O11 0.087697 0.942249 0.604555
O O12 0.282819 0.652191 0.750000
O O13 0.268396 0.653917 0.574711
O O14 0.500000 0.603595 0.451591
O O15 0.117782 0.585279 0.750000
O O16 0.182896 0.585630 0.618778
O O17 0.263532 0.000000 0.000000
#
# Coordination Sequence:
#
# PCOD9473448 Si02
#       7
#    16  16  16  16  16  16  16
#     4  10  20  38  58  81 112 151 191 231 286 343
#     4  10  21  38  60  82 107 146 195 242 291 348
#     4  10  21  35  55  85 117 151 189 234 284 343
#     4  11  21  34  56  85 117 147 186 234 281 338
#     4  10  21  38  59  82 114 154 194 239 291 348
#     4  10  21  38  58  82 116 147 187 242 293 346
#     4   9  20  35  58  83 109 153 191 228 281 342
#
# _framework density 18.950382000000001
#
# number of rings (size 3 to 8) (size 9 to 14) (size 15 to 20)
#    0.000    2.000    1.429    3.429    2.000    3.143 
#    0.000    1.429    0.000    8.143    0.000    0.000 
#    0.000    0.000    0.000    0.000    0.000    0.000 
#
# Total GULP energy -311767.849399 kJ/mol
# GULP energy per Si atom -5567.283025 kJ/mol
# Density = 1.890725 g / cm^3
# Si number density = 18.950382 Si / 1000 Ang^3
#
#
#
# Elastic Constant Matrix: (Units=GPa)
#
#
# Indices 1 2 3 4 5 6 
#
# 1 85.2041 44.5499 42.7919 0.0000 0.0000 0.0000
# 2 44.5499 68.3364 24.7068 0.0000 0.0000 0.0000
# 3 42.7919 24.7068 90.1946 0.0000 0.0000 0.0000
# 4 0.0000 0.0000 0.0000 0.6889 0.0000 0.0000
# 5 0.0000 0.0000 0.0000 0.0000 -731.5881 0.0000
# 6 0.0000 0.0000 0.0000 0.0000 0.0000 15.9491
#
#
#
# Elastic Compliance Matrix: (Units=1/GPa)
#
#
# Indices 1 2 3 4 5 6 
#
# 1 0.021098 -0.011249 -0.006928 0.000000 0.000000 0.000000
# 2 -0.011249 0.022240 -0.000755 0.000000 0.000000 0.000000
# 3 -0.006928 -0.000755 0.014581 0.000000 0.000000 0.000000
# 4 0.000000 0.000000 0.000000 1.451661 0.000000 0.000000
# 5 0.000000 0.000000 0.000000 0.000000 -0.001367 0.000000
# 6 0.000000 0.000000 0.000000 0.000000 0.000000 0.062700
#
#
# Mechanical properties :
#
#
# Convention : Reuss Voigt Hill
#
# Bulk Modulus (GPa) = 49.86561 51.98135 50.92348
# Shear Modulus (GPa) = 3.09509 -134.21093 -65.55792
#
# Velocity S-wave (km/s) = 1.27938 -8.42473 -5.88809
# Velocity P-wave (km/s) = 5.34353 8.19420 4.39270
#
# Compressibility (1/GPa) = 0.02005390
#
# Stress axis : x y z
#
# Youngs Moduli (GPa) = 47.39823 44.96378 68.58253
#
# Poissons Ratio (x) = 0.50581 0.47515
# Poissons Ratio (y) = 0.53319 0.05179
# Poissons Ratio (z) = 0.32838 0.03395
#
# Static dielectric constant tensor:
#      x y z
#    x 1.623730 0.000000 0.000000 
#    y 0.000000 1.700080 0.000000 
#    z 0.000000 0.000000 1.672030 
# 
# From -- ./inp_files/37909.got.cif
#   From: 2010.05.17/outbox.cif.g08.bks.cpg/sg63_19_cif.got.tgz:37909.got - 2010.06.03 15:47:04.
