data_PCOD9473488
_publ_section_title
;
Structure prediction by ZEFSAII (Michael W. Deem and Ramdas Pophale) SiO2 
 PCOD9473488
Probable space group: C M C M
;
_chemical_formula_sum "Si O2"
_cell_formula_units_Z 68
_cell_length_a 17.705696
_cell_length_b 22.585504
_cell_length_c 7.643240
_cell_angle_alpha 90.000000
_cell_angle_beta 90.000000
_cell_angle_gamma 90.000000
_cell_volume 3056.471049
_symmetry_space_group_name_H-M "C M C M"
_symmetry_group_IT_number 63
_symmetry_cell_setting 'orthorhombic'
loop_
_space_group_symop_operation_xyz
x,y,z
-x,-y,1/2+z
x,-y,-z
-x,y,1/2-z
-x,-y,-z
x,y,1/2-z
-x,y,z
x,-y,1/2+z
1/2+x,1/2+y,z
1/2-x,1/2-y,1/2+z
1/2+x,1/2-y,-z
1/2-x,1/2+y,1/2-z
1/2-x,1/2-y,-z
1/2+x,1/2+y,1/2-z
1/2-x,1/2+y,z
1/2+x,1/2-y,1/2+z
loop_
_atom_site_type_symbol
_atom_site_label
_atom_site_fract_x
_atom_site_fract_y
_atom_site_fract_z
Si Si1 0.832401 0.778588 0.041342
Si Si2 0.415924 0.163579 0.464089
Si Si3 0.637486 0.585880 0.044155
Si Si4 0.696965 0.936621 0.959489
Si Si5 0.500000 0.500000 0.500000
O O1 0.835687 0.784278 0.250000
O O2 0.891887 0.729111 0.982118
O O3 0.750000 0.750000 0.000000
O O4 0.854222 0.842890 0.968955
O O5 0.414648 0.162601 0.250000
O O6 0.500000 0.148206 0.520423
O O7 0.353825 0.116862 0.525809
O O8 0.631157 0.571364 0.250000
O O9 0.718008 0.564848 0.969059
O O10 0.566640 0.550870 0.966672
O O11 0.703277 0.929602 0.750000
O O12 0.661881 0.000000 0.000000
#
# Coordination Sequence:
#
# PCOD9473488 Si02
#       5
#    16  16  16  16   4
#     4  11  22  39  66  94 125 167 215 264 324 389
#     4   9  19  37  59  86 120 158 200 251 311 380
#     4  11  24  42  62  91 128 167 217 268 322 389
#     4  10  20  38  61  85 117 157 202 254 311 376
#     4  12  26  44  64  90 136 188 218 274 342 404
#
# _framework density 22.247879000000001
#
# number of rings (size 3 to 8) (size 9 to 14) (size 15 to 20)
#    0.000    1.647    3.529    1.059    1.647    3.294 
#    0.000    0.000    0.000    2.824    0.000    0.000 
#    0.000    0.000    0.000    0.000    0.000    0.000 
#
# Total GULP energy -189371.183169 kJ/mol
# GULP energy per Si atom -5569.740681 kJ/mol
# Density = 2.219724 g / cm^3
# Si number density = 22.247879 Si / 1000 Ang^3
#
#
#
# Elastic Constant Matrix: (Units=GPa)
#
#
# Indices 1 2 3 4 5 6 
#
# 1 169.6003 74.0075 7.0635 0.0000 0.0000 0.0000
# 2 74.0075 185.8626 -5.6547 0.0000 0.0000 0.0000
# 3 7.0635 -5.6547 55.7873 0.0000 0.0000 0.0000
# 4 0.0000 0.0000 0.0000 19.3140 0.0000 0.0000
# 5 0.0000 0.0000 0.0000 0.0000 -8.5760 0.0000
# 6 0.0000 0.0000 0.0000 0.0000 0.0000 44.3286
#
#
#
# Elastic Compliance Matrix: (Units=1/GPa)
#
#
# Indices 1 2 3 4 5 6 
#
# 1 0.007216 -0.002910 -0.001209 0.000000 0.000000 0.000000
# 2 -0.002910 0.006571 0.001034 0.000000 0.000000 0.000000
# 3 -0.001209 0.001034 0.018183 0.000000 0.000000 0.000000
# 4 0.000000 0.000000 0.000000 0.051776 0.000000 0.000000
# 5 0.000000 0.000000 0.000000 0.000000 -0.116604 0.000000
# 6 0.000000 0.000000 0.000000 0.000000 0.000000 0.022559
#
#
# Mechanical properties :
#
#
# Convention : Reuss Voigt Hill
#
# Bulk Modulus (GPa) = 38.75777 62.45363 50.60570
# Shear Modulus (GPa) = 1118.44153 33.40224 575.92188
#
# Velocity S-wave (km/s) = 22.44570 3.87895 16.10677
# Velocity P-wave (km/s) = 26.25271 6.94222 19.20155
#
# Compressibility (1/GPa) = 0.02580128
#
# Stress axis : x y z
#
# Youngs Moduli (GPa) = 138.57155 152.19286 54.99607
#
# Poissons Ratio (x) = 0.44292 0.06647
# Poissons Ratio (y) = 0.40328 -0.05689
# Poissons Ratio (z) = 0.16749 -0.15744
#
# Static dielectric constant tensor:
#      x y z
#    x 1.812850 0.000000 0.000000 
#    y 0.000000 1.861320 0.000000 
#    z 0.000000 0.000000 1.841190 
# 
# From -- ./inp_files/5887.got.cif
#   From: 2010.05.17/outbox.cif.g08.bks.cpg/sg63_3_cif.got.tgz:5887.got - 2010.06.03 15:47:04.
