data_PCOD9473053
_publ_section_title
;
Structure prediction by ZEFSAII (Michael W. Deem and Ramdas Pophale) SiO2 
 PCOD9473053
Probable space group: C M C M
;
_chemical_formula_sum "Si O2"
_cell_formula_units_Z 96
_cell_length_a 25.271078
_cell_length_b 9.840990
_cell_length_c 19.449672
_cell_angle_alpha 90.000000
_cell_angle_beta 90.000000
_cell_angle_gamma 90.000000
_cell_volume 4836.986112
_symmetry_space_group_name_H-M "C M C M"
_symmetry_group_IT_number 63
_symmetry_cell_setting 'orthorhombic'
loop_
_space_group_symop_operation_xyz
x,y,z
-x,-y,1/2+z
x,-y,-z
-x,y,1/2-z
-x,-y,-z
x,y,1/2-z
-x,y,z
x,-y,1/2+z
1/2+x,1/2+y,z
1/2-x,1/2-y,1/2+z
1/2+x,1/2-y,-z
1/2-x,1/2+y,1/2-z
1/2-x,1/2-y,-z
1/2+x,1/2+y,1/2-z
1/2-x,1/2+y,z
1/2+x,1/2-y,1/2+z
loop_
_atom_site_type_symbol
_atom_site_label
_atom_site_fract_x
_atom_site_fract_y
_atom_site_fract_z
Si Si1 0.938335 0.804761 0.331280
Si Si2 0.598805 0.926503 0.934011
Si Si3 0.784076 0.664730 0.054651
Si Si4 0.241540 0.917668 0.137197
Si Si5 0.640606 0.146705 0.828410
Si Si6 0.865828 0.049609 0.327867
O O1 0.923591 0.771194 0.250000
O O2 0.929875 0.685398 0.386853
O O3 0.000000 0.841426 0.329926
O O4 0.902756 0.931365 0.356631
O O5 0.654584 0.862493 0.961643
O O6 0.613824 0.042226 0.879333
O O7 0.572707 0.000000 0.000000
O O8 0.757887 0.521359 0.075529
O O9 0.781668 0.770189 0.118086
O O10 0.750000 0.750000 0.000000
O O11 0.194221 0.997017 0.173094
O O12 0.297061 0.888983 0.173186
O O13 0.620734 0.136664 0.750000
O O14 0.633783 0.299230 0.857608
O O15 0.884735 0.066327 0.250000
#
# Coordination Sequence:
#
# PCOD9473053 Si02
#       6
#    16  16  16  16  16  16
#     4  10  22  43  69  92 114 150 202 256 309 358
#     4  11  23  39  60  88 124 161 200 246 297 358
#     4  11  21  34  51  82 122 167 202 232 286 362
#     4  11  19  33  52  81 120 157 198 244 287 353
#     4  10  21  37  57  88 125 160 201 244 299 362
#     4  10  20  36  57  84 115 151 194 245 301 353
#
# _framework density 19.847069999999999
#
# number of rings (size 3 to 8) (size 9 to 14) (size 15 to 20)
#    0.000    1.500    3.333    3.500    0.000    0.333 
#    0.000    1.667    0.000    4.000    0.000    0.000 
#    0.000    0.000    0.000    0.000    0.000    0.000 
#
# Total GULP energy -267507.120827 kJ/mol
# GULP energy per Si atom -5573.065017 kJ/mol
# Density = 1.980190 g / cm^3
# Si number density = 19.847070 Si / 1000 Ang^3
#
#
#
# Elastic Constant Matrix: (Units=GPa)
#
#
# Indices 1 2 3 4 5 6 
#
# 1 59.3818 32.9901 18.0357 0.0000 0.0000 0.0000
# 2 32.9901 127.5616 31.0916 0.0000 0.0000 0.0000
# 3 18.0357 31.0916 72.2310 0.0000 0.0000 0.0000
# 4 0.0000 0.0000 0.0000 25.9024 0.0000 0.0000
# 5 0.0000 0.0000 0.0000 0.0000 11.4341 0.0000
# 6 0.0000 0.0000 0.0000 0.0000 0.0000 13.5752
#
#
#
# Elastic Compliance Matrix: (Units=1/GPa)
#
#
# Indices 1 2 3 4 5 6 
#
# 1 0.020282 -0.004481 -0.003135 0.000000 0.000000 0.000000
# 2 -0.004481 0.009748 -0.003077 0.000000 0.000000 0.000000
# 3 -0.003135 -0.003077 0.015952 0.000000 0.000000 0.000000
# 4 0.000000 0.000000 0.000000 0.038606 0.000000 0.000000
# 5 0.000000 0.000000 0.000000 0.000000 0.087458 0.000000
# 6 0.000000 0.000000 0.000000 0.000000 0.000000 0.073664
#
#
# Mechanical properties :
#
#
# Convention : Reuss Voigt Hill
#
# Bulk Modulus (GPa) = 40.65913 47.04548 43.85231
# Shear Modulus (GPa) = 18.16224 21.98613 20.07418
#
# Velocity S-wave (km/s) = 3.02836 3.33194 3.18377
# Velocity P-wave (km/s) = 5.72352 6.20950 5.97145
#
# Compressibility (1/GPa) = 0.02459472
#
# Stress axis : x y z
#
# Youngs Moduli (GPa) = 49.30480 102.58205 62.68832
#
# Poissons Ratio (x) = 0.45968 0.19655
# Poissons Ratio (y) = 0.22094 0.19290
# Poissons Ratio (z) = 0.15459 0.31567
#
# Static dielectric constant tensor:
#      x y z
#    x 1.673500 0.000000 0.000000 
#    y 0.000000 1.725040 0.000000 
#    z 0.000000 0.000000 1.801550 
# 
# From -- ./inp_files/58076.got.cif
#   From: 2010.05.17/outbox.cif.g08.bks.cpg/sg63_30_cif.got.tgz:58076.got - 2010.06.03 15:47:04.
