data_PCOD9473091
_publ_section_title
;
Structure prediction by ZEFSAII (Michael W. Deem and Ramdas Pophale) SiO2 
 PCOD9473091
Probable space group: C M C M
;
_chemical_formula_sum "Si O2"
_cell_formula_units_Z 72
_cell_length_a 10.707245
_cell_length_b 14.778201
_cell_length_c 24.865634
_cell_angle_alpha 90.000000
_cell_angle_beta 90.000000
_cell_angle_gamma 90.000000
_cell_volume 3934.584224
_symmetry_space_group_name_H-M "C M C M"
_symmetry_group_IT_number 63
_symmetry_cell_setting 'orthorhombic'
loop_
_space_group_symop_operation_xyz
x,y,z
-x,-y,1/2+z
x,-y,-z
-x,y,1/2-z
-x,-y,-z
x,y,1/2-z
-x,y,z
x,-y,1/2+z
1/2+x,1/2+y,z
1/2-x,1/2-y,1/2+z
1/2+x,1/2-y,-z
1/2-x,1/2+y,1/2-z
1/2-x,1/2-y,-z
1/2+x,1/2+y,1/2-z
1/2-x,1/2+y,z
1/2+x,1/2-y,1/2+z
loop_
_atom_site_type_symbol
_atom_site_label
_atom_site_fract_x
_atom_site_fract_y
_atom_site_fract_z
Si Si1 0.253151 0.778258 0.608591
Si Si2 0.500000 0.514328 0.864454
Si Si3 0.143565 0.637653 0.811092
Si Si4 0.253691 0.946334 0.687461
Si Si5 0.000000 0.849319 0.555171
Si Si6 0.000000 0.194170 0.567437
O O1 0.222082 0.692617 0.646084
O O2 0.278271 0.863050 0.648001
O O3 0.375261 0.753983 0.574500
O O4 0.127265 0.800505 0.575273
O O5 0.379418 0.489067 0.829298
O O6 0.500000 0.446441 0.915548
O O7 0.500000 0.615666 0.887209
O O8 0.187426 0.655118 0.750000
O O9 0.152389 0.530142 0.819437
O O10 0.000000 0.667871 0.814976
O O11 0.252946 0.918296 0.750000
O O12 0.000000 0.851181 0.491088
#
# Coordination Sequence:
#
# PCOD9473091 Si02
#       6
#    16   8  16  16   8   8
#     4  11  22  39  61  86 118 152 195 242 294 345
#     4  10  20  38  62  84 114 152 196 250 287 346
#     4  10  20  36  58  82 115 157 192 228 284 360
#     4  10  21  37  57  87 119 152 186 232 291 355
#     4  10  23  41  62  81 113 161 202 239 296 349
#     4  12  23  39  60  89 117 149 200 257 293 329
#
# _framework density 18.299264999999998
#
# number of rings (size 3 to 8) (size 9 to 14) (size 15 to 20)
#    0.000    1.556    3.333    2.000    1.556    0.000 
#    0.000    1.667    0.000    1.333    0.000    0.000 
#    0.000    0.000    0.000    0.000    0.000    0.000 
#
# Total GULP energy -200942.031093 kJ/mol
# GULP energy per Si atom -5581.723086 kJ/mol
# Density = 1.825762 g / cm^3
# Si number density = 18.299265 Si / 1000 Ang^3
#
#
#
# Elastic Constant Matrix: (Units=GPa)
#
#
# Indices 1 2 3 4 5 6 
#
# 1 83.5340 10.6911 7.4297 0.0000 0.0000 0.0000
# 2 10.6911 43.7624 3.2113 0.0000 0.0000 0.0000
# 3 7.4297 3.2113 48.5916 0.0000 0.0000 0.0000
# 4 0.0000 0.0000 0.0000 17.0045 0.0000 0.0000
# 5 0.0000 0.0000 0.0000 0.0000 16.5470 0.0000
# 6 0.0000 0.0000 0.0000 0.0000 0.0000 25.7326
#
#
#
# Elastic Compliance Matrix: (Units=1/GPa)
#
#
# Indices 1 2 3 4 5 6 
#
# 1 0.012499 -0.002927 -0.001718 0.000000 0.000000 0.000000
# 2 -0.002927 0.023648 -0.001115 0.000000 0.000000 0.000000
# 3 -0.001718 -0.001115 0.020916 0.000000 0.000000 0.000000
# 4 0.000000 0.000000 0.000000 0.058808 0.000000 0.000000
# 5 0.000000 0.000000 0.000000 0.000000 0.060434 0.000000
# 6 0.000000 0.000000 0.000000 0.000000 0.000000 0.038861
#
#
# Mechanical properties :
#
#
# Convention : Reuss Voigt Hill
#
# Bulk Modulus (GPa) = 21.95778 24.28358 23.12068
# Shear Modulus (GPa) = 20.67257 22.16055 21.41656
#
# Velocity S-wave (km/s) = 3.36474 3.48373 3.42475
# Velocity P-wave (km/s) = 5.20774 5.42963 5.31984
#
# Compressibility (1/GPa) = 0.04554195
#
# Stress axis : x y z
#
# Youngs Moduli (GPa) = 80.00902 42.28749 47.81031
#
# Poissons Ratio (x) = 0.12379 0.08212
# Poissons Ratio (y) = 0.23421 0.05332
# Poissons Ratio (z) = 0.13742 0.04716
#
# Static dielectric constant tensor:
#      x y z
#    x 1.629210 0.000000 0.000000 
#    y 0.000000 1.617180 0.000000 
#    z 0.000000 0.000000 1.610670 
# 
# From -- ./inp_files/66389.got.cif
#   From: 2010.05.17/outbox.cif.g08.bks.cpg/sg63_34_cif.got.tgz:66389.got - 2010.06.03 15:47:04.
