data_PCOD9473984
_publ_section_title
;
Structure prediction by ZEFSAII (Michael W. Deem and Ramdas Pophale) SiO2 
 PCOD9473984
Probable space group: C M C M
;
_chemical_formula_sum "Si O2"
_cell_formula_units_Z 80
_cell_length_a 9.857878
_cell_length_b 25.224499
_cell_length_c 16.145619
_cell_angle_alpha 90.000000
_cell_angle_beta 90.000000
_cell_angle_gamma 90.000000
_cell_volume 4014.770166
_symmetry_space_group_name_H-M "C M C M"
_symmetry_group_IT_number 63
_symmetry_cell_setting 'orthorhombic'
loop_
_space_group_symop_operation_xyz
x,y,z
-x,-y,1/2+z
x,-y,-z
-x,y,1/2-z
-x,-y,-z
x,y,1/2-z
-x,y,z
x,-y,1/2+z
1/2+x,1/2+y,z
1/2-x,1/2-y,1/2+z
1/2+x,1/2-y,-z
1/2-x,1/2+y,1/2-z
1/2-x,1/2-y,-z
1/2+x,1/2+y,1/2-z
1/2-x,1/2+y,z
1/2+x,1/2-y,1/2+z
loop_
_atom_site_type_symbol
_atom_site_label
_atom_site_fract_x
_atom_site_fract_y
_atom_site_fract_z
Si Si1 0.339988 0.227631 0.924683
Si Si2 0.347500 0.484884 0.096608
Si Si3 0.657500 0.635605 0.650287
Si Si4 0.349601 0.074620 0.348502
Si Si5 0.146774 0.160681 0.348020
O O1 0.500000 0.218201 0.944308
O O2 0.263779 0.176890 0.887601
O O3 0.335577 0.277088 0.861258
O O4 0.250000 0.250000 0.000000
O O5 0.500000 0.496471 0.128681
O O6 0.321954 0.423073 0.113204
O O7 0.237071 0.521995 0.138610
O O8 0.345186 0.500000 0.000000
O O9 0.671802 0.633244 0.750000
O O10 0.500000 0.651315 0.632336
O O11 0.362293 0.082838 0.250000
O O12 0.500000 0.070814 0.384481
O O13 0.265182 0.124304 0.383915
O O14 0.141775 0.150560 0.250000
O O15 0.000000 0.145440 0.384810
#
# Coordination Sequence:
#
# PCOD9473984 Si02
#       5
#    16  16  16  16  16
#     4  11  24  40  61  89 123 160 202 252 307 366
#     4  10  22  39  61  88 121 161 205 250 299 360
#     4  10  22  41  64  90 123 165 211 258 310 369
#     4  10  21  36  57  87 120 152 191 243 300 354
#     4   9  19  37  60  83 111 152 198 240 288 355
#
# _framework density 19.92642
#
# number of rings (size 3 to 8) (size 9 to 14) (size 15 to 20)
#    0.000    2.000    0.000    2.400    2.800    6.000 
#    0.000    2.000    0.000    0.000    0.000    0.000 
#    0.000    0.000    0.000    0.000    0.000    0.000 
#
# Total GULP energy -223272.985040 kJ/mol
# GULP energy per Si atom -5581.824626 kJ/mol
# Density = 1.988107 g / cm^3
# Si number density = 19.926420 Si / 1000 Ang^3
#
#
#
# Elastic Constant Matrix: (Units=GPa)
#
#
# Indices 1 2 3 4 5 6 
#
# 1 192.2317 114.4704 36.3921 0.0000 0.0000 0.0000
# 2 114.4704 131.0962 21.5160 0.0000 0.0000 0.0000
# 3 36.3921 21.5160 43.5711 0.0000 0.0000 0.0000
# 4 0.0000 0.0000 0.0000 31.6864 0.0000 0.0000
# 5 0.0000 0.0000 0.0000 0.0000 17.6691 0.0000
# 6 0.0000 0.0000 0.0000 0.0000 0.0000 26.6435
#
#
#
# Elastic Compliance Matrix: (Units=1/GPa)
#
#
# Indices 1 2 3 4 5 6 
#
# 1 0.011829 -0.009475 -0.005201 0.000000 0.000000 0.000000
# 2 -0.009475 0.015891 0.000067 0.000000 0.000000 0.000000
# 3 -0.005201 0.000067 0.027262 0.000000 0.000000 0.000000
# 4 0.000000 0.000000 0.000000 0.031559 0.000000 0.000000
# 5 0.000000 0.000000 0.000000 0.000000 0.056596 0.000000
# 6 0.000000 0.000000 0.000000 0.000000 0.000000 0.037533
#
#
# Mechanical properties :
#
#
# Convention : Reuss Voigt Hill
#
# Bulk Modulus (GPa) = 38.81512 79.07290 58.94401
# Shear Modulus (GPa) = 22.88587 28.16783 25.52685
#
# Velocity S-wave (km/s) = 3.39266 3.76386 3.58307
# Velocity P-wave (km/s) = 5.90494 7.65881 6.83834
#
# Compressibility (1/GPa) = 0.02576316
#
# Stress axis : x y z
#
# Youngs Moduli (GPa) = 84.53799 62.93052 36.68123
#
# Poissons Ratio (x) = 0.59628 0.19078
# Poissons Ratio (y) = 0.80102 -0.00246
# Poissons Ratio (z) = 0.43968 -0.00422
#
# Static dielectric constant tensor:
#      x y z
#    x 1.731940 0.000000 0.000000 
#    y 0.000000 1.672960 0.000000 
#    z 0.000000 0.000000 1.639270 
# 
# From -- ./inp_files/40502.got.cif
#   From: 2010.05.17/outbox.cif.g08.bks.cpg/sg63_21_cif.got.tgz:40502.got - 2010.06.03 15:47:04.
