data_PCOD9473819
_publ_section_title
;
Structure prediction by ZEFSAII (Michael W. Deem and Ramdas Pophale) SiO2 
 PCOD9473819
Probable space group: C M C M
;
_chemical_formula_sum "Si O2"
_cell_formula_units_Z 112
_cell_length_a 25.948523
_cell_length_b 14.941123
_cell_length_c 14.421897
_cell_angle_alpha 90.000000
_cell_angle_beta 90.000000
_cell_angle_gamma 90.000000
_cell_volume 5591.370531
_symmetry_space_group_name_H-M "C M C M"
_symmetry_group_IT_number 63
_symmetry_cell_setting 'orthorhombic'
loop_
_space_group_symop_operation_xyz
x,y,z
-x,-y,1/2+z
x,-y,-z
-x,y,1/2-z
-x,-y,-z
x,y,1/2-z
-x,y,z
x,-y,1/2+z
1/2+x,1/2+y,z
1/2-x,1/2-y,1/2+z
1/2+x,1/2-y,-z
1/2-x,1/2+y,1/2-z
1/2-x,1/2-y,-z
1/2+x,1/2+y,1/2-z
1/2-x,1/2+y,z
1/2+x,1/2-y,1/2+z
loop_
_atom_site_type_symbol
_atom_site_label
_atom_site_fract_x
_atom_site_fract_y
_atom_site_fract_z
Si Si1 0.868378 0.861188 0.458428
Si Si2 0.326533 0.861450 0.353541
Si Si3 0.837654 0.043100 0.137640
Si Si4 0.782238 0.558020 0.385040
Si Si5 0.883054 0.597606 0.485604
Si Si6 0.061196 0.267342 0.857773
Si Si7 0.778245 0.235146 0.853306
O O1 0.861441 0.883138 0.567228
O O2 0.919730 0.812309 0.423984
O O3 0.821657 0.798278 0.423285
O O4 0.863234 0.951304 0.397473
O O5 0.338539 0.831185 0.250000
O O6 0.376815 0.851685 0.417687
O O7 0.276977 0.803256 0.383482
O O8 0.309098 0.967093 0.347317
O O9 0.840434 0.056196 0.250000
O O10 0.777555 0.033618 0.107323
O O11 0.822076 0.583330 0.465780
O O12 0.778385 0.657961 0.343171
O O13 0.906644 0.500000 0.500000
O O14 0.909876 0.647415 0.401668
O O15 0.076752 0.253847 0.750000
O O16 0.000000 0.278439 0.860813
O O17 0.788475 0.196373 0.750000
#
# Coordination Sequence:
#
# PCOD9473819 Si02
#       7
#    16  16  16  16  16  16  16
#     4  11  23  39  65  92 125 167 215 268 312 370
#     4  10  21  35  52  86 133 174 209 248 301 382
#     4  11  23  38  59  93 137 176 207 247 309 389
#     4  11  21  34  55  89 132 176 213 253 298 374
#     4  10  23  38  59  89 126 163 203 255 316 379
#     4  11  25  47  73  94 114 153 218 286 333 371
#     4  11  20  32  56  86 124 171 218 256 298 366
#
# _framework density 20.030867000000001
#
# number of rings (size 3 to 8) (size 9 to 14) (size 15 to 20)
#    0.000    1.286    2.857    3.429    6.000    4.286 
#    0.000    1.429    0.000    2.571    0.000    0.000 
#    0.000    0.000    0.000    0.000    0.000    0.000 
#
# Total GULP energy -312020.861194 kJ/mol
# GULP energy per Si atom -5571.801093 kJ/mol
# Density = 1.998528 g / cm^3
# Si number density = 20.030867 Si / 1000 Ang^3
#
#
#
# Elastic Constant Matrix: (Units=GPa)
#
#
# Indices 1 2 3 4 5 6 
#
# 1 50.4849 9.9580 48.5121 0.0000 0.0000 0.0000
# 2 9.9580 82.3470 33.2306 0.0000 0.0000 0.0000
# 3 48.5121 33.2306 119.6151 0.0000 0.0000 0.0000
# 4 0.0000 0.0000 0.0000 4.9768 0.0000 0.0000
# 5 0.0000 0.0000 0.0000 0.0000 25.7956 0.0000
# 6 0.0000 0.0000 0.0000 0.0000 0.0000 5.6093
#
#
#
# Elastic Compliance Matrix: (Units=1/GPa)
#
#
# Indices 1 2 3 4 5 6 
#
# 1 0.032637 0.001571 -0.013673 0.000000 0.000000 0.000000
# 2 0.001571 0.013753 -0.004458 0.000000 0.000000 0.000000
# 3 -0.013673 -0.004458 0.015144 0.000000 0.000000 0.000000
# 4 0.000000 0.000000 0.000000 0.200933 0.000000 0.000000
# 5 0.000000 0.000000 0.000000 0.000000 0.038766 0.000000
# 6 0.000000 0.000000 0.000000 0.000000 0.000000 0.178274
#
#
# Mechanical properties :
#
#
# Convention : Reuss Voigt Hill
#
# Bulk Modulus (GPa) = 35.19424 48.42762 41.81093
# Shear Modulus (GPa) = 9.57676 17.99276 13.78476
#
# Velocity S-wave (km/s) = 2.18892 3.00034 2.62616
# Velocity P-wave (km/s) = 4.89864 6.01927 5.48764
#
# Compressibility (1/GPa) = 0.02841374
#
# Stress axis : x y z
#
# Youngs Moduli (GPa) = 30.64051 72.71314 66.03347
#
# Poissons Ratio (x) = -0.11423 0.90286
# Poissons Ratio (y) = -0.04813 0.29436
# Poissons Ratio (z) = 0.41894 0.32414
#
# Static dielectric constant tensor:
#      x y z
#    x 1.668020 0.000000 0.000000 
#    y 0.000000 1.782510 0.000000 
#    z 0.000000 0.000000 1.868870 
# 
# From -- ./inp_files/38698.got.cif
#   From: 2010.05.17/outbox.cif.g08.bks.cpg/sg63_20_cif.got.tgz:38698.got - 2010.06.03 15:47:04.
