data_PCOD9473533
_publ_section_title
;
Structure prediction by ZEFSAII (Michael W. Deem and Ramdas Pophale) SiO2 
 PCOD9473533
Probable space group: C M C M
;
_chemical_formula_sum "Si O2"
_cell_formula_units_Z 96
_cell_length_a 8.214477
_cell_length_b 22.023106
_cell_length_c 23.887448
_cell_angle_alpha 90.000000
_cell_angle_beta 90.000000
_cell_angle_gamma 90.000000
_cell_volume 4321.437554
_symmetry_space_group_name_H-M "C M C M"
_symmetry_group_IT_number 63
_symmetry_cell_setting 'orthorhombic'
loop_
_space_group_symop_operation_xyz
x,y,z
-x,-y,1/2+z
x,-y,-z
-x,y,1/2-z
-x,-y,-z
x,y,1/2-z
-x,y,z
x,-y,1/2+z
1/2+x,1/2+y,z
1/2-x,1/2-y,1/2+z
1/2+x,1/2-y,-z
1/2-x,1/2+y,1/2-z
1/2-x,1/2-y,-z
1/2+x,1/2+y,1/2-z
1/2-x,1/2+y,z
1/2+x,1/2-y,1/2+z
loop_
_atom_site_type_symbol
_atom_site_label
_atom_site_fract_x
_atom_site_fract_y
_atom_site_fract_z
Si Si1 0.185070 0.208059 0.423222
Si Si2 0.696941 0.907814 0.314130
Si Si3 0.302227 0.030544 0.125299
Si Si4 0.312105 0.092674 0.016071
Si Si5 0.196294 0.343357 0.685529
Si Si6 0.188526 0.163045 0.583349
O O1 0.298685 0.156812 0.450485
O O2 0.216272 0.201878 0.356927
O O3 0.219963 0.277227 0.438465
O O4 0.000000 0.191892 0.437838
O O5 0.752410 0.903206 0.250000
O O6 0.500000 0.908853 0.313775
O O7 0.754018 0.854794 0.354978
O O8 0.754176 0.970220 0.343635
O O9 0.500000 0.028066 0.122082
O O10 0.247403 0.044233 0.061526
O O11 0.262425 0.089090 0.163200
O O12 0.500000 0.078869 0.003254
O O13 0.223245 0.106988 0.958326
O O14 0.241582 0.335981 0.750000
O O15 0.000000 0.336286 0.680850
O O16 0.000000 0.177780 0.583567
#
# Coordination Sequence:
#
# PCOD9473533 Si02
#       6
#    16  16  16  16  16  16
#     4  11  22  37  57  83 115 150 190 235 287 341
#     4  10  21  39  62  86 113 149 193 235 275 326
#     4   8  16  33  60  89 114 144 184 231 280 334
#     4  10  20  38  63  90 117 145 183 230 284 340
#     4   9  17  32  56  85 115 149 190 235 284 338
#     4  12  25  40  57  80 114 154 193 232 280 336
#
# _framework density 22.214829999999999
#
# number of rings (size 3 to 8) (size 9 to 14) (size 15 to 20)
#    0.000    2.000    0.000    5.500    0.000    4.000 
#    0.000    7.500    0.000    4.000    0.000    0.000 
#    0.000    0.000    0.000    0.000    0.000    0.000 
#
# Total GULP energy -268314.447535 kJ/mol
# GULP energy per Si atom -5589.884324 kJ/mol
# Density = 2.216427 g / cm^3
# Si number density = 22.214830 Si / 1000 Ang^3
#
#
#
# Elastic Constant Matrix: (Units=GPa)
#
#
# Indices 1 2 3 4 5 6 
#
# 1 33.1829 -0.2312 0.6018 0.0000 0.0000 0.0000
# 2 -0.2312 66.2246 20.2111 0.0000 0.0000 0.0000
# 3 0.6018 20.2111 129.9564 0.0000 0.0000 0.0000
# 4 0.0000 0.0000 0.0000 30.4621 0.0000 0.0000
# 5 0.0000 0.0000 0.0000 0.0000 25.3418 0.0000
# 6 0.0000 0.0000 0.0000 0.0000 0.0000 13.4872
#
#
#
# Elastic Compliance Matrix: (Units=1/GPa)
#
#
# Indices 1 2 3 4 5 6 
#
# 1 0.030140 0.000155 -0.000164 0.000000 0.000000 0.000000
# 2 0.000155 0.015853 -0.002466 0.000000 0.000000 0.000000
# 3 -0.000164 -0.002466 0.008079 0.000000 0.000000 0.000000
# 4 0.000000 0.000000 0.000000 0.032828 0.000000 0.000000
# 5 0.000000 0.000000 0.000000 0.000000 0.039461 0.000000
# 6 0.000000 0.000000 0.000000 0.000000 0.000000 0.074145
#
#
# Mechanical properties :
#
#
# Convention : Reuss Voigt Hill
#
# Bulk Modulus (GPa) = 20.35704 30.05858 25.20781
# Shear Modulus (GPa) = 22.53985 27.77702 25.15843
#
# Velocity S-wave (km/s) = 3.18878 3.53991 3.36892
# Velocity P-wave (km/s) = 4.76879 5.50165 5.14828
#
# Compressibility (1/GPa) = 0.04912307
#
# Stress axis : x y z
#
# Youngs Moduli (GPa) = 33.17842 63.07812 123.77450
#
# Poissons Ratio (x) = -0.00979 0.02026
# Poissons Ratio (y) = -0.00515 0.30526
# Poissons Ratio (z) = 0.00543 0.15557
#
# Static dielectric constant tensor:
#      x y z
#    x 1.766890 0.000000 0.000000 
#    y 0.000000 1.817870 0.000000 
#    z 0.000000 0.000000 1.831610 
# 
# From -- ./inp_files/59899.got.cif
#   From: 2010.05.17/outbox.cif.g08.bks.cpg/sg63_30_cif.got.tgz:59899.got - 2010.06.03 15:47:04.
