data_PCOD9473293
_publ_section_title
;
Structure prediction by ZEFSAII (Michael W. Deem and Ramdas Pophale) SiO2 
 PCOD9473293
Probable space group: C M C M
;
_chemical_formula_sum "Si O2"
_cell_formula_units_Z 96
_cell_length_a 24.784740
_cell_length_b 24.082451
_cell_length_c 8.546969
_cell_angle_alpha 90.000000
_cell_angle_beta 90.000000
_cell_angle_gamma 90.000000
_cell_volume 5101.491665
_symmetry_space_group_name_H-M "C M C M"
_symmetry_group_IT_number 63
_symmetry_cell_setting 'orthorhombic'
loop_
_space_group_symop_operation_xyz
x,y,z
-x,-y,1/2+z
x,-y,-z
-x,y,1/2-z
-x,-y,-z
x,y,1/2-z
-x,y,z
x,-y,1/2+z
1/2+x,1/2+y,z
1/2-x,1/2-y,1/2+z
1/2+x,1/2-y,-z
1/2-x,1/2+y,1/2-z
1/2-x,1/2-y,-z
1/2+x,1/2+y,1/2-z
1/2-x,1/2+y,z
1/2+x,1/2-y,1/2+z
loop_
_atom_site_type_symbol
_atom_site_label
_atom_site_fract_x
_atom_site_fract_y
_atom_site_fract_z
Si Si1 0.438232 0.062112 0.062463
Si Si2 0.838654 0.765626 0.939860
Si Si3 0.157281 0.361338 0.437299
Si Si4 0.439194 0.658905 0.438464
Si Si5 0.127906 0.061357 0.935638
Si Si6 0.728482 0.369772 0.562507
O O1 0.436533 0.060969 0.250000
O O2 0.500000 0.076480 0.013959
O O3 0.393606 0.104986 0.001888
O O4 0.427027 0.000000 0.000000
O O5 0.835565 0.764055 0.750000
O O6 0.839522 0.702554 0.996076
O O7 0.894821 0.795373 0.982910
O O8 0.791585 0.808134 0.991952
O O9 0.153666 0.360889 0.250000
O O10 0.214593 0.386205 0.489412
O O11 0.435962 0.652412 0.250000
O O12 0.500000 0.674463 0.479917
O O13 0.420951 0.601611 0.516021
O O14 0.134267 0.060612 0.750000
O O15 0.181053 0.088765 0.012392
O O16 0.119793 0.000000 0.000000
O O17 0.732656 0.369076 0.750000
#
# Coordination Sequence:
#
# PCOD9473293 Si02
#       6
#    16  16  16  16  16  16
#     4  10  22  41  61  81 108 142 180 224 273 321
#     4   8  17  33  54  81 113 147 181 221 268 318
#     4  11  21  34  57  88 115 143 181 219 264 324
#     4   9  18  35  57  80 109 146 186 227 271 318
#     4  11  22  37  56  79 108 142 183 229 278 327
#     4  10  20  37  57  79 111 147 183 224 271 318
#
# _framework density 18.818026
#
# number of rings (size 3 to 8) (size 9 to 14) (size 15 to 20)
#    0.000    2.167    0.000    4.500    0.000    3.000 
#    0.000   12.500    0.000    0.000    0.000    0.000 
#    0.000    0.000    0.000    0.000    0.000    0.000 
#
# Total GULP energy -267954.328684 kJ/mol
# GULP energy per Si atom -5582.381848 kJ/mol
# Density = 1.877520 g / cm^3
# Si number density = 18.818026 Si / 1000 Ang^3
#
#
#
# Elastic Constant Matrix: (Units=GPa)
#
#
# Indices 1 2 3 4 5 6 
#
# 1 114.1247 19.6566 23.0637 0.0000 0.0000 0.0000
# 2 19.6566 29.6082 9.8054 0.0000 0.0000 0.0000
# 3 23.0637 9.8054 47.1885 0.0000 0.0000 0.0000
# 4 0.0000 0.0000 0.0000 23.1379 0.0000 0.0000
# 5 0.0000 0.0000 0.0000 0.0000 24.9297 0.0000
# 6 0.0000 0.0000 0.0000 0.0000 0.0000 12.9351
#
#
#
# Elastic Compliance Matrix: (Units=1/GPa)
#
#
# Indices 1 2 3 4 5 6 
#
# 1 0.010544 -0.005685 -0.003972 0.000000 0.000000 0.000000
# 2 -0.005685 0.039335 -0.005395 0.000000 0.000000 0.000000
# 3 -0.003972 -0.005395 0.024254 0.000000 0.000000 0.000000
# 4 0.000000 0.000000 0.000000 0.043219 0.000000 0.000000
# 5 0.000000 0.000000 0.000000 0.000000 0.040113 0.000000
# 6 0.000000 0.000000 0.000000 0.000000 0.000000 0.077309
#
#
# Mechanical properties :
#
#
# Convention : Reuss Voigt Hill
#
# Bulk Modulus (GPa) = 22.71213 32.88586 27.79899
# Shear Modulus (GPa) = 17.88558 21.42694 19.65626
#
# Velocity S-wave (km/s) = 3.08628 3.37803 3.23545
# Velocity P-wave (km/s) = 4.97953 5.72088 5.36303
#
# Compressibility (1/GPa) = 0.04402934
#
# Stress axis : x y z
#
# Youngs Moduli (GPa) = 94.83848 25.42253 41.23009
#
# Poissons Ratio (x) = 0.14452 0.16378
# Poissons Ratio (y) = 0.53913 0.22244
# Poissons Ratio (z) = 0.37673 0.13716
#
# Static dielectric constant tensor:
#      x y z
#    x 1.635000 0.000000 0.000000 
#    y 0.000000 1.644110 0.000000 
#    z 0.000000 0.000000 1.635090 
# 
# From -- ./inp_files/10494.got.cif
#   From: 2010.05.17/outbox.cif.g08.bks.cpg/sg63_6_cif.got.tgz:10494.got - 2010.06.03 15:47:04.
