data_PCOD9473144
_publ_section_title
;
Structure prediction by ZEFSAII (Michael W. Deem and Ramdas Pophale) SiO2 
 PCOD9473144
Probable space group: C M C M
;
_chemical_formula_sum "Si O2"
_cell_formula_units_Z 112
_cell_length_a 12.966198
_cell_length_b 25.107751
_cell_length_c 14.399683
_cell_angle_alpha 90.000000
_cell_angle_beta 90.000000
_cell_angle_gamma 90.000000
_cell_volume 4687.846620
_symmetry_space_group_name_H-M "C M C M"
_symmetry_group_IT_number 63
_symmetry_cell_setting 'orthorhombic'
loop_
_space_group_symop_operation_xyz
x,y,z
-x,-y,1/2+z
x,-y,-z
-x,y,1/2-z
-x,-y,-z
x,y,1/2-z
-x,y,z
x,-y,1/2+z
1/2+x,1/2+y,z
1/2-x,1/2-y,1/2+z
1/2+x,1/2-y,-z
1/2-x,1/2+y,1/2-z
1/2-x,1/2-y,-z
1/2+x,1/2+y,1/2-z
1/2-x,1/2+y,z
1/2+x,1/2-y,1/2+z
loop_
_atom_site_type_symbol
_atom_site_label
_atom_site_fract_x
_atom_site_fract_y
_atom_site_fract_z
Si Si1 0.885475 0.673155 0.353987
Si Si2 0.614964 0.385203 0.452264
Si Si3 0.118621 0.229578 0.993245
Si Si4 0.321079 0.398795 0.849687
Si Si5 0.148143 0.530976 0.355544
Si Si6 0.160886 0.422974 0.060846
Si Si7 0.376999 0.806793 0.144689
O O1 0.883387 0.695013 0.250000
O O2 0.882038 0.720348 0.425969
O O3 0.783304 0.637130 0.361587
O O4 0.000000 0.646985 0.364296
O O5 0.500000 0.393973 0.411866
O O6 0.653944 0.324013 0.442078
O O7 0.609001 0.390297 0.563413
O O8 0.713626 0.421683 0.430111
O O9 0.164651 0.255273 0.087264
O O10 0.000000 0.215597 0.014179
O O11 0.366739 0.386560 0.750000
O O12 0.270890 0.457315 0.850945
O O13 0.113264 0.548044 0.250000
O O14 0.122888 0.469418 0.371242
O O15 0.124721 0.558920 0.456686
O O16 0.130353 0.363336 0.090223
O O17 0.335684 0.810982 0.250000
O O18 0.500000 0.797588 0.151044
#
# Coordination Sequence:
#
# PCOD9473144 Si02
#       7
#    16  16  16  16  16  16  16
#     4   9  17  31  52  78 109 143 177 218 271 327
#     4  10  21  36  53  75 105 141 182 230 280 328
#     4   9  18  33  52  75 107 143 180 225 272 323
#     4   9  18  32  51  76 105 137 177 224 272 326
#     4   9  18  35  56  80 111 142 178 231 286 328
#     4  10  20  36  59  80 107 147 185 228 278 331
#     4  10  21  37  57  83 116 152 186 221 269 331
#
# _framework density 23.891565
#
# number of rings (size 3 to 8) (size 9 to 14) (size 15 to 20)
#    0.000    2.571    0.000    2.143    0.000    3.143 
#    0.000   12.143    0.000   10.714    0.000    0.000 
#    0.000    0.000    0.000    0.000    0.000    0.000 
#
# Total GULP energy -311859.230301 kJ/mol
# GULP energy per Si atom -5568.914827 kJ/mol
# Density = 2.383719 g / cm^3
# Si number density = 23.891565 Si / 1000 Ang^3
#
#
#
# Elastic Constant Matrix: (Units=GPa)
#
#
# Indices 1 2 3 4 5 6 
#
# 1 109.8634 12.0069 4.4037 0.0000 0.0000 0.0000
# 2 12.0069 90.6045 34.1321 0.0000 0.0000 0.0000
# 3 4.4037 34.1321 89.9329 0.0000 0.0000 0.0000
# 4 0.0000 0.0000 0.0000 -0.6920 0.0000 0.0000
# 5 0.0000 0.0000 0.0000 0.0000 12.0004 0.0000
# 6 0.0000 0.0000 0.0000 0.0000 0.0000 -6.8235
#
#
#
# Elastic Compliance Matrix: (Units=1/GPa)
#
#
# Indices 1 2 3 4 5 6 
#
# 1 0.009236 -0.001229 0.000014 0.000000 0.000000 0.000000
# 2 -0.001229 0.013042 -0.004890 0.000000 0.000000 0.000000
# 3 0.000014 -0.004890 0.012974 0.000000 0.000000 0.000000
# 4 0.000000 0.000000 0.000000 -1.445033 0.000000 0.000000
# 5 0.000000 0.000000 0.000000 0.000000 0.083331 0.000000
# 6 0.000000 0.000000 0.000000 0.000000 0.000000 -0.146551
#
#
# Mechanical properties :
#
#
# Convention : Reuss Voigt Hill
#
# Bulk Modulus (GPa) = 43.39694 43.49847 43.44771
# Shear Modulus (GPa) = -3.44089 16.88750 6.72330
#
# Velocity S-wave (km/s) = -1.20139 2.66153 1.67935
# Velocity P-wave (km/s) = 4.03474 5.26224 4.68883
#
# Compressibility (1/GPa) = 0.02304310
#
# Stress axis : x y z
#
# Youngs Moduli (GPa) = 108.27209 76.67616 77.07474
#
# Poissons Ratio (x) = 0.09426 -0.00110
# Poissons Ratio (y) = 0.13310 0.37686
# Poissons Ratio (z) = -0.00155 0.37491
#
# Static dielectric constant tensor:
#      x y z
#    x 1.949700 0.000000 0.000000 
#    y 0.000000 1.970680 0.000000 
#    z 0.000000 0.000000 1.965070 
# 
# From -- ./inp_files/32770.got.cif
#   From: 2010.05.17/outbox.cif.g08.bks.cpg/sg63_17_cif.got.tgz:32770.got - 2010.06.03 15:47:04.
