data_PCOD9473372
_publ_section_title
;
Structure prediction by ZEFSAII (Michael W. Deem and Ramdas Pophale) SiO2 
 PCOD9473372
Probable space group: C M C M
;
_chemical_formula_sum "Si O2"
_cell_formula_units_Z 96
_cell_length_a 18.076868
_cell_length_b 10.861491
_cell_length_c 23.507467
_cell_angle_alpha 90.000000
_cell_angle_beta 90.000000
_cell_angle_gamma 90.000000
_cell_volume 4615.496952
_symmetry_space_group_name_H-M "C M C M"
_symmetry_group_IT_number 63
_symmetry_cell_setting 'orthorhombic'
loop_
_space_group_symop_operation_xyz
x,y,z
-x,-y,1/2+z
x,-y,-z
-x,y,1/2-z
-x,-y,-z
x,y,1/2-z
-x,y,z
x,-y,1/2+z
1/2+x,1/2+y,z
1/2-x,1/2-y,1/2+z
1/2+x,1/2-y,-z
1/2-x,1/2+y,1/2-z
1/2-x,1/2-y,-z
1/2+x,1/2+y,1/2-z
1/2-x,1/2+y,z
1/2+x,1/2-y,1/2+z
loop_
_atom_site_type_symbol
_atom_site_label
_atom_site_fract_x
_atom_site_fract_y
_atom_site_fract_z
Si Si1 0.912969 0.717719 0.525858
Si Si2 0.080411 0.158997 0.587592
Si Si3 0.180507 0.925297 0.910769
Si Si4 0.662826 0.026702 0.604265
Si Si5 0.882004 0.322944 0.685728
Si Si6 0.708697 0.747611 0.185369
O O1 0.907445 0.731726 0.457913
O O2 0.860940 0.827695 0.549315
O O3 0.882469 0.594772 0.555055
O O4 0.000000 0.733686 0.540818
O O5 0.080939 0.214863 0.650180
O O6 0.000000 0.103906 0.574152
O O7 0.141632 0.055571 0.582296
O O8 0.172214 0.867669 0.847486
O O9 0.267956 0.947518 0.919554
O O10 0.696336 0.134248 0.645273
O O11 0.614358 0.943938 0.646719
O O12 0.907928 0.340279 0.750000
O O13 0.795310 0.285383 0.687813
O O14 0.682483 0.766855 0.250000
#
# Coordination Sequence:
#
# PCOD9473372 Si02
#       6
#    16  16  16  16  16  16
#     4  10  23  42  62  85 123 166 197 241 305 366
#     4  11  23  40  59  84 121 161 197 240 304 364
#     4  10  20  37  60  92 116 152 203 252 294 348
#     4  10  20  38  62  92 118 155 203 249 293 353
#     4  10  21  37  57  85 119 154 196 247 299 353
#     4   9  18  35  59  86 118 154 196 247 302 352
#
# _framework density 20.799492999999998
#
# number of rings (size 3 to 8) (size 9 to 14) (size 15 to 20)
#    0.000    2.000    1.667    1.500    0.000    5.000 
#    6.000    1.667    0.000   16.000    0.000    0.000 
#    0.000    0.000    0.000    0.000    0.000    0.000 
#
# Total GULP energy -267992.842924 kJ/mol
# GULP energy per Si atom -5583.184228 kJ/mol
# Density = 2.075215 g / cm^3
# Si number density = 20.799493 Si / 1000 Ang^3
#
#
#
# Elastic Constant Matrix: (Units=GPa)
#
#
# Indices 1 2 3 4 5 6 
#
# 1 63.1622 9.4911 38.5278 0.0000 0.0000 0.0000
# 2 9.4911 52.1157 21.2843 0.0000 0.0000 0.0000
# 3 38.5278 21.2843 114.7030 0.0000 0.0000 0.0000
# 4 0.0000 0.0000 0.0000 27.8180 0.0000 0.0000
# 5 0.0000 0.0000 0.0000 0.0000 157.2797 0.0000
# 6 0.0000 0.0000 0.0000 0.0000 0.0000 3.7883
#
#
#
# Elastic Compliance Matrix: (Units=1/GPa)
#
#
# Indices 1 2 3 4 5 6 
#
# 1 0.019957 -0.000970 -0.006523 0.000000 0.000000 0.000000
# 2 -0.000970 0.020809 -0.003535 0.000000 0.000000 0.000000
# 3 -0.006523 -0.003535 0.011565 0.000000 0.000000 0.000000
# 4 0.000000 0.000000 0.000000 0.035948 0.000000 0.000000
# 5 0.000000 0.000000 0.000000 0.000000 0.006358 0.000000
# 6 0.000000 0.000000 0.000000 0.000000 0.000000 0.263969
#
#
# Mechanical properties :
#
#
# Convention : Reuss Voigt Hill
#
# Bulk Modulus (GPa) = 33.03267 40.95414 36.99340
# Shear Modulus (GPa) = 12.79572 48.48907 30.64239
#
# Velocity S-wave (km/s) = 2.48300 4.83355 3.84243
# Velocity P-wave (km/s) = 4.91288 7.13328 6.12454
#
# Compressibility (1/GPa) = 0.03027306
#
# Stress axis : x y z
#
# Youngs Moduli (GPa) = 50.10713 48.05699 86.46526
#
# Poissons Ratio (x) = 0.04663 0.56405
# Poissons Ratio (y) = 0.04862 0.30568
# Poissons Ratio (z) = 0.32687 0.16990
#
# Static dielectric constant tensor:
#      x y z
#    x 1.753110 0.000000 0.000000 
#    y 0.000000 1.738810 0.000000 
#    z 0.000000 0.000000 1.754160 
# 
# From -- ./inp_files/56538.got.cif
#   From: 2010.05.17/outbox.cif.g08.bks.cpg/sg63_29_cif.got.tgz:56538.got - 2010.06.03 15:47:04.
