data_PCOD9473403
_publ_section_title
;
Structure prediction by ZEFSAII (Michael W. Deem and Ramdas Pophale) SiO2 
 PCOD9473403
Probable space group: C M C M
;
_chemical_formula_sum "Si O2"
_cell_formula_units_Z 96
_cell_length_a 23.173149
_cell_length_b 11.068761
_cell_length_c 18.884705
_cell_angle_alpha 90.000000
_cell_angle_beta 90.000000
_cell_angle_gamma 90.000000
_cell_volume 4843.889968
_symmetry_space_group_name_H-M "C M C M"
_symmetry_group_IT_number 63
_symmetry_cell_setting 'orthorhombic'
loop_
_space_group_symop_operation_xyz
x,y,z
-x,-y,1/2+z
x,-y,-z
-x,y,1/2-z
-x,-y,-z
x,y,1/2-z
-x,y,z
x,-y,1/2+z
1/2+x,1/2+y,z
1/2-x,1/2-y,1/2+z
1/2+x,1/2-y,-z
1/2-x,1/2+y,1/2-z
1/2-x,1/2-y,-z
1/2+x,1/2+y,1/2-z
1/2-x,1/2+y,z
1/2+x,1/2-y,1/2+z
loop_
_atom_site_type_symbol
_atom_site_label
_atom_site_fract_x
_atom_site_fract_y
_atom_site_fract_z
Si Si1 0.835877 0.684507 0.451766
Si Si2 0.064944 0.127280 0.533622
Si Si3 0.095228 0.003753 0.831569
Si Si4 0.671112 0.083457 0.599547
Si Si5 0.788268 0.138305 0.668690
Si Si6 0.565601 0.771637 0.164756
O O1 0.892062 0.761766 0.474286
O O2 0.846403 0.553422 0.418053
O O3 0.807579 0.649896 0.527167
O O4 0.804046 0.763509 0.391633
O O5 0.000000 0.149329 0.507943
O O6 0.086360 0.000000 0.500000
O O7 0.064690 0.097287 0.616967
O O8 0.078862 0.020076 0.750000
O O9 0.078512 0.868442 0.852657
O O10 0.163439 0.032922 0.838099
O O11 0.724641 0.089796 0.652977
O O12 0.615290 0.149733 0.630001
O O13 0.792232 0.184118 0.750000
O O14 0.569356 0.782097 0.250000
O O15 0.500000 0.802384 0.143872
#
# Coordination Sequence:
#
# PCOD9473403 Si02
#       6
#    16  16  16  16  16  16
#     4  10  24  41  58  89 123 155 203 252 309 367
#     4  10  20  37  62  89 118 156 200 246 299 358
#     4   9  19  36  58  87 117 149 195 251 303 351
#     4  11  23  40  60  85 122 164 201 246 310 373
#     4  10  22  40  63  87 116 156 204 257 307 365
#     4  10  21  37  60  91 125 163 206 250 301 365
#
# _framework density 19.818781000000001
#
# number of rings (size 3 to 8) (size 9 to 14) (size 15 to 20)
#    0.000    2.000    0.000    2.500    2.333    5.000 
#   12.000    1.667    0.000    0.000    0.000    0.000 
#    0.000    0.000    0.000    0.000    0.000    0.000 
#
# Total GULP energy -267846.689359 kJ/mol
# GULP energy per Si atom -5580.139362 kJ/mol
# Density = 1.977367 g / cm^3
# Si number density = 19.818781 Si / 1000 Ang^3
#
#
#
# Elastic Constant Matrix: (Units=GPa)
#
#
# Indices 1 2 3 4 5 6 
#
# 1 104.3116 41.6483 41.9138 0.0000 0.0000 0.0000
# 2 41.6483 67.6581 24.3118 0.0000 0.0000 0.0000
# 3 41.9138 24.3118 66.5597 0.0000 0.0000 0.0000
# 4 0.0000 0.0000 0.0000 27.3226 0.0000 0.0000
# 5 0.0000 0.0000 0.0000 0.0000 23.3563 0.0000
# 6 0.0000 0.0000 0.0000 0.0000 0.0000 10.9632
#
#
#
# Elastic Compliance Matrix: (Units=1/GPa)
#
#
# Indices 1 2 3 4 5 6 
#
# 1 0.015125 -0.006778 -0.007049 0.000000 0.000000 0.000000
# 2 -0.006778 0.020050 -0.003056 0.000000 0.000000 0.000000
# 3 -0.007049 -0.003056 0.020579 0.000000 0.000000 0.000000
# 4 0.000000 0.000000 0.000000 0.036600 0.000000 0.000000
# 5 0.000000 0.000000 0.000000 0.000000 0.042815 0.000000
# 6 0.000000 0.000000 0.000000 0.000000 0.000000 0.091214
#
#
# Mechanical properties :
#
#
# Convention : Reuss Voigt Hill
#
# Bulk Modulus (GPa) = 45.47512 50.47524 47.97518
# Shear Modulus (GPa) = 18.69312 21.03878 19.86595
#
# Velocity S-wave (km/s) = 3.07449 3.26169 3.16947
# Velocity P-wave (km/s) = 5.96646 6.30147 6.13625
#
# Compressibility (1/GPa) = 0.02199005
#
# Stress axis : x y z
#
# Youngs Moduli (GPa) = 66.11532 49.87457 48.59312
#
# Poissons Ratio (x) = 0.33803 0.34253
# Poissons Ratio (y) = 0.44811 0.14848
# Poissons Ratio (z) = 0.46604 0.15240
#
# Static dielectric constant tensor:
#      x y z
#    x 1.697690 0.000000 0.000000 
#    y 0.000000 1.652160 0.000000 
#    z 0.000000 0.000000 1.735700 
# 
# From -- ./inp_files/56537.got.cif
#   From: 2010.05.17/outbox.cif.g08.bks.cpg/sg63_29_cif.got.tgz:56537.got - 2010.06.03 15:47:04.
