data_PCOD9473021
_publ_section_title
;
Structure prediction by ZEFSAII (Michael W. Deem and Ramdas Pophale) SiO2 
 PCOD9473021
Probable space group: C M C M
;
_chemical_formula_sum "Si O2"
_cell_formula_units_Z 72
_cell_length_a 18.586144
_cell_length_b 24.090604
_cell_length_c 7.517873
_cell_angle_alpha 90.000000
_cell_angle_beta 90.000000
_cell_angle_gamma 90.000000
_cell_volume 3366.138424
_symmetry_space_group_name_H-M "C M C M"
_symmetry_group_IT_number 63
_symmetry_cell_setting 'orthorhombic'
loop_
_space_group_symop_operation_xyz
x,y,z
-x,-y,1/2+z
x,-y,-z
-x,y,1/2-z
-x,-y,-z
x,y,1/2-z
-x,y,z
x,-y,1/2+z
1/2+x,1/2+y,z
1/2-x,1/2-y,1/2+z
1/2+x,1/2-y,-z
1/2-x,1/2+y,1/2-z
1/2-x,1/2-y,-z
1/2+x,1/2+y,1/2-z
1/2-x,1/2+y,z
1/2+x,1/2-y,1/2+z
loop_
_atom_site_type_symbol
_atom_site_label
_atom_site_fract_x
_atom_site_fract_y
_atom_site_fract_z
Si Si1 0.582544 0.154673 0.532344
Si Si2 0.149337 0.109621 0.544622
Si Si3 0.301203 0.064791 0.536633
Si Si4 0.000000 0.064831 0.963362
Si Si5 0.332822 0.735959 0.461596
O O1 0.582648 0.154621 0.750000
O O2 0.500000 0.148695 0.475284
O O3 0.634819 0.104877 0.472419
O O4 0.617304 0.213305 0.476049
O O5 0.149130 0.090523 0.750000
O O6 0.223454 0.085320 0.466404
O O7 0.151148 0.176005 0.540798
O O8 0.074338 0.089612 0.463672
O O9 0.299731 0.072118 0.750000
O O10 0.312472 0.000000 0.500000
O O11 0.000000 0.075429 0.750000
O O12 0.000000 0.000000 0.000000
O O13 0.342152 0.731311 0.250000
O O14 0.250000 0.750000 0.500000
#
# Coordination Sequence:
#
# PCOD9473021 Si02
#       5
#    16  16  16   8  16
#     4   9  19  36  56  80 112 148 181 223 277 329
#     4  10  21  38  56  82 116 151 187 232 288 333
#     4  10  20  36  57  79 108 144 185 230 275 330
#     4  10  22  38  58  82 120 158 191 240 287 338
#     4  11  21  36  60  85 112 146 187 233 279 339
#
# _framework density 21.389493999999999
#
# number of rings (size 3 to 8) (size 9 to 14) (size 15 to 20)
#    0.000    2.000    2.222    1.333    1.556    2.222 
#    0.000    0.000    0.000    2.667    0.000    0.000 
#    0.000    0.000    0.000    0.000    0.000    0.000 
#
# Total GULP energy -201132.785725 kJ/mol
# GULP energy per Si atom -5587.021826 kJ/mol
# Density = 2.134081 g / cm^3
# Si number density = 21.389494 Si / 1000 Ang^3
#
#
#
# Elastic Constant Matrix: (Units=GPa)
#
#
# Indices 1 2 3 4 5 6 
#
# 1 226.2915 95.8673 -3.8828 0.0000 0.0000 0.0000
# 2 95.8673 139.1668 -28.9557 0.0000 0.0000 0.0000
# 3 -3.8828 -28.9557 54.1625 0.0000 0.0000 0.0000
# 4 0.0000 0.0000 0.0000 28.3586 0.0000 0.0000
# 5 0.0000 0.0000 0.0000 0.0000 -3.9404 0.0000
# 6 0.0000 0.0000 0.0000 0.0000 0.0000 30.1311
#
#
#
# Elastic Compliance Matrix: (Units=1/GPa)
#
#
# Indices 1 2 3 4 5 6 
#
# 1 0.006456 -0.004896 -0.002154 0.000000 0.000000 0.000000
# 2 -0.004896 0.011797 0.005956 0.000000 0.000000 0.000000
# 3 -0.002154 0.005956 0.021493 0.000000 0.000000 0.000000
# 4 0.000000 0.000000 0.000000 0.035263 0.000000 0.000000
# 5 0.000000 0.000000 0.000000 0.000000 -0.253782 0.000000
# 6 0.000000 0.000000 0.000000 0.000000 0.000000 0.033188
#
#
# Mechanical properties :
#
#
# Convention : Reuss Voigt Hill
#
# Bulk Modulus (GPa) = 26.62564 60.63094 43.62829
# Shear Modulus (GPa) = -38.20372 34.68267 -1.76052
#
# Velocity S-wave (km/s) = -4.23081 4.03113 -0.90822
# Velocity P-wave (km/s) = 3.37510 7.07632 4.39790
#
# Compressibility (1/GPa) = 0.03755778
#
# Stress axis : x y z
#
# Youngs Moduli (GPa) = 154.89128 84.76509 46.52759
#
# Poissons Ratio (x) = 0.41498 0.10024
# Poissons Ratio (y) = 0.75830 -0.27712
# Poissons Ratio (z) = 0.33370 -0.50486
#
# Static dielectric constant tensor:
#      x y z
#    x 1.761230 0.000000 0.000000 
#    y 0.000000 1.710220 0.000000 
#    z 0.000000 0.000000 1.816680 
# 
# From -- ./inp_files/6080.got.cif
#   From: 2010.05.17/outbox.cif.g08.bks.cpg/sg63_4_cif.got.tgz:6080.got - 2010.06.03 15:47:04.
