data_PCOD9473292
_publ_section_title
;
Structure prediction by ZEFSAII (Michael W. Deem and Ramdas Pophale) SiO2 
 PCOD9473292
Probable space group: C M C M
;
_chemical_formula_sum "Si O2"
_cell_formula_units_Z 96
_cell_length_a 24.123398
_cell_length_b 26.024284
_cell_length_c 8.675728
_cell_angle_alpha 90.000000
_cell_angle_beta 90.000000
_cell_angle_gamma 90.000000
_cell_volume 5446.571377
_symmetry_space_group_name_H-M "C M C M"
_symmetry_group_IT_number 63
_symmetry_cell_setting 'orthorhombic'
loop_
_space_group_symop_operation_xyz
x,y,z
-x,-y,1/2+z
x,-y,-z
-x,y,1/2-z
-x,-y,-z
x,y,1/2-z
-x,y,z
x,-y,1/2+z
1/2+x,1/2+y,z
1/2-x,1/2-y,1/2+z
1/2+x,1/2-y,-z
1/2-x,1/2+y,1/2-z
1/2-x,1/2-y,-z
1/2+x,1/2+y,1/2-z
1/2-x,1/2+y,z
1/2+x,1/2-y,1/2+z
loop_
_atom_site_type_symbol
_atom_site_label
_atom_site_fract_x
_atom_site_fract_y
_atom_site_fract_z
Si Si1 0.690139 0.943654 0.435673
Si Si2 0.616204 0.847785 0.436649
Si Si3 0.811589 0.249063 0.064499
Si Si4 0.500000 0.307805 0.435121
Si Si5 0.114913 0.848654 0.564797
Si Si6 0.682118 0.443298 0.435102
Si Si7 0.500000 0.812644 0.565373
O O1 0.688750 0.945787 0.250000
O O2 0.647522 0.899689 0.486277
O O3 0.753848 0.930714 0.479672
O O4 0.677134 0.000000 0.500000
O O5 0.613095 0.847842 0.250000
O O6 0.653596 0.799031 0.484280
O O7 0.555182 0.839671 0.502779
O O8 0.808918 0.249702 0.250000
O O9 0.844320 0.197905 0.017001
O O10 0.750000 0.250000 0.000000
O O11 0.500000 0.309288 0.250000
O O12 0.554737 0.335254 0.498798
O O13 0.500000 0.247582 0.483998
O O14 0.112335 0.849943 0.750000
O O15 0.140761 0.901193 0.502342
O O16 0.670359 0.500000 0.500000
O O17 0.678873 0.443737 0.250000
O O18 0.500000 0.813734 0.750000
#
# Coordination Sequence:
#
# PCOD9473292 Si02
#       7
#    16  16  16   8  16  16   8
#     4   9  19  35  58  84 113 149 188 230 281 335
#     4  10  20  37  57  79 110 150 188 227 280 337
#     4  10  21  34  53  81 113 145 182 228 280 337
#     4  11  23  39  58  81 112 151 191 233 285 336
#     4  11  22  37  58  84 113 149 191 232 280 337
#     4  10  20  37  60  86 118 151 188 232 280 336
#     4  11  23  37  56  83 110 145 190 237 282 330
#
# _framework density 17.625767
#
# number of rings (size 3 to 8) (size 9 to 14) (size 15 to 20)
#    0.000    1.833    1.667    2.500    0.000    5.333 
#    0.000    0.833    0.000    0.000    0.000    0.000 
#    0.000    0.000    0.000    0.000    0.000    0.000 
#
# Total GULP energy -268115.887002 kJ/mol
# GULP energy per Si atom -5585.747646 kJ/mol
# Density = 1.758565 g / cm^3
# Si number density = 17.625767 Si / 1000 Ang^3
#
#
#
# Elastic Constant Matrix: (Units=GPa)
#
#
# Indices 1 2 3 4 5 6 
#
# 1 181.2896 110.0772 44.9632 0.0000 0.0000 0.0000
# 2 110.0772 150.5122 43.3122 0.0000 0.0000 0.0000
# 3 44.9632 43.3122 36.3288 0.0000 0.0000 0.0000
# 4 0.0000 0.0000 0.0000 27.7783 0.0000 0.0000
# 5 0.0000 0.0000 0.0000 0.0000 32.6434 0.0000
# 6 0.0000 0.0000 0.0000 0.0000 0.0000 20.3916
#
#
#
# Elastic Compliance Matrix: (Units=1/GPa)
#
#
# Indices 1 2 3 4 5 6 
#
# 1 0.010708 -0.006116 -0.005962 0.000000 0.000000 0.000000
# 2 -0.006116 0.013607 -0.008653 0.000000 0.000000 0.000000
# 3 -0.005962 -0.008653 0.045221 0.000000 0.000000 0.000000
# 4 0.000000 0.000000 0.000000 0.035999 0.000000 0.000000
# 5 0.000000 0.000000 0.000000 0.000000 0.030634 0.000000
# 6 0.000000 0.000000 0.000000 0.000000 0.000000 0.049040
#
#
# Mechanical properties :
#
#
# Convention : Reuss Voigt Hill
#
# Bulk Modulus (GPa) = 35.61859 84.98176 60.30017
# Shear Modulus (GPa) = 21.18382 27.48119 24.33251
#
# Velocity S-wave (km/s) = 3.47056 3.95289 3.71955
# Velocity P-wave (km/s) = 6.02593 8.31583 7.26171
#
# Compressibility (1/GPa) = 0.02807523
#
# Stress axis : x y z
#
# Youngs Moduli (GPa) = 93.38726 73.49245 22.11339
#
# Poissons Ratio (x) = 0.44947 0.13183
# Poissons Ratio (y) = 0.57114 0.19135
# Poissons Ratio (z) = 0.55675 0.63594
#
# Static dielectric constant tensor:
#      x y z
#    x 1.569390 0.000000 0.000000 
#    y 0.000000 1.581980 0.000000 
#    z 0.000000 0.000000 1.597430 
# 
# From -- ./inp_files/10527.got.cif
#   From: 2010.05.17/outbox.cif.g08.bks.cpg/sg63_6_cif.got.tgz:10527.got - 2010.06.03 15:47:04.
