data_PCOD9473640
_publ_section_title
;
Structure prediction by ZEFSAII (Michael W. Deem and Ramdas Pophale) SiO2 
 PCOD9473640
Probable space group: C M C M
;
_chemical_formula_sum "Si O2"
_cell_formula_units_Z 72
_cell_length_a 23.531484
_cell_length_b 9.132166
_cell_length_c 18.226329
_cell_angle_alpha 90.000000
_cell_angle_beta 90.000000
_cell_angle_gamma 90.000000
_cell_volume 3916.718138
_symmetry_space_group_name_H-M "C M C M"
_symmetry_group_IT_number 63
_symmetry_cell_setting 'orthorhombic'
loop_
_space_group_symop_operation_xyz
x,y,z
-x,-y,1/2+z
x,-y,-z
-x,y,1/2-z
-x,-y,-z
x,y,1/2-z
-x,y,z
x,-y,1/2+z
1/2+x,1/2+y,z
1/2-x,1/2-y,1/2+z
1/2+x,1/2-y,-z
1/2-x,1/2+y,1/2-z
1/2-x,1/2-y,-z
1/2+x,1/2+y,1/2-z
1/2-x,1/2+y,z
1/2+x,1/2-y,1/2+z
loop_
_atom_site_type_symbol
_atom_site_label
_atom_site_fract_x
_atom_site_fract_y
_atom_site_fract_z
Si Si1 0.090592 0.711020 0.750000
Si Si2 0.500000 0.284338 0.376129
Si Si3 0.113170 0.835951 0.467411
Si Si4 0.221908 0.962570 0.086113
Si Si5 0.671461 0.769569 0.387350
Si Si6 0.500000 0.043733 0.250000
Si Si7 0.000000 0.969781 0.750000
O O1 0.128357 0.709317 0.677854
O O2 0.052626 0.566340 0.750000
O O3 0.053243 0.859372 0.750000
O O4 0.556509 0.285516 0.426525
O O5 0.500000 0.146891 0.321333
O O6 0.500000 0.426890 0.322207
O O7 0.167163 0.855206 0.413053
O O8 0.136681 0.741074 0.535750
O O9 0.102335 0.000000 0.500000
O O10 0.279433 0.890177 0.112361
O O11 0.203101 0.113651 0.122215
O O12 0.230122 0.000000 0.000000
#
# Coordination Sequence:
#
# PCOD9473640 Si02
#       7
#     8   8  16  16  16   4   4
#     4  11  24  42  54  78 120 159 188 230 290 341
#     4  11  21  39  65  87 107 147 197 237 278 344
#     4   9  18  34  60  91 115 143 191 239 282 336
#     4   9  18  35  56  86 114 142 182 235 286 327
#     4  10  21  36  58  82 114 151 187 229 280 336
#     4  10  28  42  52  82 124 148 178 238 300 328
#     4  10  20  40  62  78 114 154 186 242 288 324
#
# _framework density 18.382739000000001
#
# number of rings (size 3 to 8) (size 9 to 14) (size 15 to 20)
#    0.000    2.667    0.000    5.667    0.000    6.222 
#    0.000    3.333    0.000    0.000    0.000    0.000 
#    0.000    0.000    0.000    0.000    0.000    0.000 
#
# Total GULP energy -200838.311428 kJ/mol
# GULP energy per Si atom -5578.841984 kJ/mol
# Density = 1.834090 g / cm^3
# Si number density = 18.382739 Si / 1000 Ang^3
#
#
#
# Elastic Constant Matrix: (Units=GPa)
#
#
# Indices 1 2 3 4 5 6 
#
# 1 175.8121 82.6106 79.6553 0.0000 0.0000 0.0000
# 2 82.6106 95.9310 56.1986 0.0000 0.0000 0.0000
# 3 79.6553 56.1986 67.6371 0.0000 0.0000 0.0000
# 4 0.0000 0.0000 0.0000 23.4210 0.0000 0.0000
# 5 0.0000 0.0000 0.0000 0.0000 12.2069 0.0000
# 6 0.0000 0.0000 0.0000 0.0000 0.0000 -1.8448
#
#
#
# Elastic Compliance Matrix: (Units=1/GPa)
#
#
# Indices 1 2 3 4 5 6 
#
# 1 0.013068 -0.004360 -0.011768 0.000000 0.000000 0.000000
# 2 -0.004360 0.021765 -0.012950 0.000000 0.000000 0.000000
# 3 -0.011768 -0.012950 0.039403 0.000000 0.000000 0.000000
# 4 0.000000 0.000000 0.000000 0.042697 0.000000 0.000000
# 5 0.000000 0.000000 0.000000 0.000000 0.081921 0.000000
# 6 0.000000 0.000000 0.000000 0.000000 0.000000 -0.542058
#
#
# Mechanical properties :
#
#
# Convention : Reuss Voigt Hill
#
# Bulk Modulus (GPa) = 62.18187 86.25659 74.21923
# Shear Modulus (GPa) = -17.87692 14.81765 -1.52963
#
# Velocity S-wave (km/s) = -3.12185 2.84221 -0.91319
# Velocity P-wave (km/s) = 4.57221 7.60232 6.27297
#
# Compressibility (1/GPa) = 0.01608186
#
# Stress axis : x y z
#
# Youngs Moduli (GPa) = 76.52298 45.94601 25.37893
#
# Poissons Ratio (x) = 0.20031 0.29865
# Poissons Ratio (y) = 0.33362 0.32864
# Poissons Ratio (z) = 0.90049 0.59498
#
# Static dielectric constant tensor:
#      x y z
#    x 1.633670 0.000000 0.000000 
#    y 0.000000 1.647270 0.000000 
#    z 0.000000 0.000000 1.615080 
# 
# From -- ./inp_files/47848.got.cif
#   From: 2010.05.17/outbox.cif.g08.bks.cpg/sg63_24_cif.got.tgz:47848.got - 2010.06.03 15:47:04.
