data_PCOD9473268
_publ_section_title
;
Structure prediction by ZEFSAII (Michael W. Deem and Ramdas Pophale) SiO2 
 PCOD9473268
Probable space group: C M C M
;
_chemical_formula_sum "Si O2"
_cell_formula_units_Z 104
_cell_length_a 24.150488
_cell_length_b 21.549171
_cell_length_c 9.426618
_cell_angle_alpha 90.000000
_cell_angle_beta 90.000000
_cell_angle_gamma 90.000000
_cell_volume 4905.828778
_symmetry_space_group_name_H-M "C M C M"
_symmetry_group_IT_number 63
_symmetry_cell_setting 'orthorhombic'
loop_
_space_group_symop_operation_xyz
x,y,z
-x,-y,1/2+z
x,-y,-z
-x,y,1/2-z
-x,-y,-z
x,y,1/2-z
-x,y,z
x,-y,1/2+z
1/2+x,1/2+y,z
1/2-x,1/2-y,1/2+z
1/2+x,1/2-y,-z
1/2-x,1/2+y,1/2-z
1/2-x,1/2-y,-z
1/2+x,1/2+y,1/2-z
1/2-x,1/2+y,z
1/2+x,1/2-y,1/2+z
loop_
_atom_site_type_symbol
_atom_site_label
_atom_site_fract_x
_atom_site_fract_y
_atom_site_fract_z
Si Si1 0.889979 0.918291 0.001366
Si Si2 0.237338 0.936037 0.081261
Si Si3 0.567049 0.940363 0.087922
Si Si4 0.228053 0.689568 0.415561
Si Si5 0.596568 0.819853 0.911132
Si Si6 0.062326 0.794597 0.588928
Si Si7 0.079733 0.013996 0.750000
O O1 0.895001 0.847888 0.952238
O O2 0.903705 0.962460 0.871244
O O3 0.829548 0.931915 0.067871
O O4 0.931679 0.934843 0.125866
O O5 0.251371 0.937344 0.250000
O O6 0.258265 0.874441 0.999542
O O7 0.254107 0.000000 0.000000
O O8 0.586703 0.942180 0.250000
O O9 0.500000 0.940791 0.090003
O O10 0.586043 0.879452 0.007226
O O11 0.586161 0.000000 0.000000
O O12 0.247972 0.687324 0.250000
O O13 0.250000 0.750000 0.500000
O O14 0.161761 0.694298 0.410388
O O15 0.578101 0.831376 0.750000
O O16 0.566590 0.761926 0.981976
O O17 0.072794 0.772609 0.750000
O O18 0.000000 0.821194 0.586597
#
# Coordination Sequence:
#
# PCOD9473268 Si02
#       7
#    16  16  16  16  16  16   8
#     4  11  20  39  61  91 124 165 208 254 304 362
#     4  12  23  39  66  95 127 163 208 252 306 368
#     4  10  21  39  67  98 127 162 201 244 299 364
#     4  11  26  44  64  92 124 162 208 256 310 369
#     4  11  25  44  63  90 125 160 203 255 307 363
#     4  11  25  42  62  89 122 164 209 255 308 366
#     4  10  20  36  63  88 124 164 210 248 309 360
#
# _framework density 21.199273000000002
#
# number of rings (size 3 to 8) (size 9 to 14) (size 15 to 20)
#    0.000    1.077    3.077    3.231    2.154    8.615 
#    0.000    2.308    0.000    0.000    0.000    0.000 
#    0.000    0.000    0.000    0.000    0.000    0.000 
#
# Total GULP energy -289587.323520 kJ/mol
# GULP energy per Si atom -5568.986991 kJ/mol
# Density = 2.115102 g / cm^3
# Si number density = 21.199273 Si / 1000 Ang^3
#
#
#
# Elastic Constant Matrix: (Units=GPa)
#
#
# Indices 1 2 3 4 5 6 
#
# 1 26.6509 13.3825 19.7200 0.0000 0.0000 0.0000
# 2 13.3825 117.9338 68.6762 0.0000 0.0000 0.0000
# 3 19.7200 68.6762 237.4075 0.0000 0.0000 0.0000
# 4 0.0000 0.0000 0.0000 44.5551 0.0000 0.0000
# 5 0.0000 0.0000 0.0000 0.0000 20.2363 0.0000
# 6 0.0000 0.0000 0.0000 0.0000 0.0000 34.9059
#
#
#
# Elastic Compliance Matrix: (Units=1/GPa)
#
#
# Indices 1 2 3 4 5 6 
#
# 1 0.040964 -0.003207 -0.002475 0.000000 0.000000 0.000000
# 2 -0.003207 0.010448 -0.002756 0.000000 0.000000 0.000000
# 3 -0.002475 -0.002756 0.005215 0.000000 0.000000 0.000000
# 4 0.000000 0.000000 0.000000 0.022444 0.000000 0.000000
# 5 0.000000 0.000000 0.000000 0.000000 0.049416 0.000000
# 6 0.000000 0.000000 0.000000 0.000000 0.000000 0.028648
#
#
# Mechanical properties :
#
#
# Convention : Reuss Voigt Hill
#
# Bulk Modulus (GPa) = 25.15660 65.06106 45.10883
# Shear Modulus (GPa) = 26.70053 38.62036 32.66044
#
# Velocity S-wave (km/s) = 3.55280 4.27286 3.92936
# Velocity P-wave (km/s) = 5.35932 7.42293 6.47388
#
# Compressibility (1/GPa) = 0.03975101
#
# Stress axis : x y z
#
# Youngs Moduli (GPa) = 24.41171 95.71067 191.75524
#
# Poissons Ratio (x) = 0.30696 0.47457
# Poissons Ratio (y) = 0.07829 0.52848
# Poissons Ratio (z) = 0.06042 0.26378
#
# Static dielectric constant tensor:
#      x y z
#    x 1.940890 0.000000 0.000000 
#    y 0.000000 1.760760 0.000000 
#    z 0.000000 0.000000 1.737310 
# 
# From -- ./inp_files/12604.got.cif
#   From: 2010.05.17/outbox.cif.g08.bks.cpg/sg63_7_cif.got.tgz:12604.got - 2010.06.03 15:47:04.
