data_PCOD9473486
_publ_section_title
;
Structure prediction by ZEFSAII (Michael W. Deem and Ramdas Pophale) SiO2 
 PCOD9473486
Probable space group: C M C M
;
_chemical_formula_sum "Si O2"
_cell_formula_units_Z 96
_cell_length_a 7.721482
_cell_length_b 22.943499
_cell_length_c 23.832606
_cell_angle_alpha 90.000000
_cell_angle_beta 90.000000
_cell_angle_gamma 90.000000
_cell_volume 4222.132394
_symmetry_space_group_name_H-M "C M C M"
_symmetry_group_IT_number 63
_symmetry_cell_setting 'orthorhombic'
loop_
_space_group_symop_operation_xyz
x,y,z
-x,-y,1/2+z
x,-y,-z
-x,y,1/2-z
-x,-y,-z
x,y,1/2-z
-x,y,z
x,-y,1/2+z
1/2+x,1/2+y,z
1/2-x,1/2-y,1/2+z
1/2+x,1/2-y,-z
1/2-x,1/2+y,1/2-z
1/2-x,1/2-y,-z
1/2+x,1/2+y,1/2-z
1/2-x,1/2+y,z
1/2+x,1/2-y,1/2+z
loop_
_atom_site_type_symbol
_atom_site_label
_atom_site_fract_x
_atom_site_fract_y
_atom_site_fract_z
Si Si1 0.287644 0.360060 0.750000
Si Si2 0.303972 0.176701 0.467511
Si Si3 0.797260 0.462351 0.129975
Si Si4 0.198593 0.049016 0.457555
Si Si5 0.698602 0.723144 0.349780
Si Si6 0.212858 0.334162 0.093268
Si Si7 0.291634 0.495757 0.750000
O O1 0.500000 0.362577 0.750000
O O2 0.229322 0.322931 0.804835
O O3 0.231353 0.427696 0.750000
O O4 0.500000 0.198970 0.464134
O O5 0.305867 0.106979 0.461659
O O6 0.202635 0.197664 0.412862
O O7 0.234464 0.186228 0.530583
O O8 0.704589 0.517408 0.101900
O O9 0.732513 0.400122 0.106704
O O10 0.772934 0.470072 0.195661
O O11 0.000000 0.466252 0.115717
O O12 0.000000 0.063436 0.472267
O O13 0.263651 0.000000 0.500000
O O14 0.500000 0.731686 0.332039
O O15 0.773818 0.787741 0.360108
O O16 0.000000 0.333794 0.092883
O O17 0.500000 0.495184 0.750000
#
# Coordination Sequence:
#
# PCOD9473486 Si02
#       7
#     8  16  16  16  16  16   8
#     4   9  20  38  61  81 107 145 194 245 288 338
#     4  11  21  36  57  87 122 156 190 244 303 357
#     4  11  22  39  61  88 120 159 200 248 303 357
#     4  11  22  36  57  86 117 155 198 244 298 361
#     4  10  20  38  61  85 112 154 200 244 293 356
#     4   9  20  36  58  87 120 151 193 244 298 357
#     4  11  23  40  59  87 123 157 200 253 300 356
#
# _framework density 22.737325999999999
#
# number of rings (size 3 to 8) (size 9 to 14) (size 15 to 20)
#    0.000    1.667    1.667    3.250    0.000    2.667 
#    0.000    6.250    0.000    0.000    0.000    0.000 
#    0.000    0.000    0.000    0.000    0.000    0.000 
#
# Total GULP energy -268186.552090 kJ/mol
# GULP energy per Si atom -5587.219835 kJ/mol
# Density = 2.268558 g / cm^3
# Si number density = 22.737326 Si / 1000 Ang^3
#
#
#
# Elastic Constant Matrix: (Units=GPa)
#
#
# Indices 1 2 3 4 5 6 
#
# 1 57.1678 16.7556 -5.0091 0.0000 0.0000 0.0000
# 2 16.7556 85.8581 17.3290 0.0000 0.0000 0.0000
# 3 -5.0091 17.3290 111.4150 0.0000 0.0000 0.0000
# 4 0.0000 0.0000 0.0000 37.8970 0.0000 0.0000
# 5 0.0000 0.0000 0.0000 0.0000 25.6305 0.0000
# 6 0.0000 0.0000 0.0000 0.0000 0.0000 -211.1895
#
#
#
# Elastic Compliance Matrix: (Units=1/GPa)
#
#
# Indices 1 2 3 4 5 6 
#
# 1 0.018781 -0.003960 0.001460 0.000000 0.000000 0.000000
# 2 -0.003960 0.012860 -0.002178 0.000000 0.000000 0.000000
# 3 0.001460 -0.002178 0.009380 0.000000 0.000000 0.000000
# 4 0.000000 0.000000 0.000000 0.026387 0.000000 0.000000
# 5 0.000000 0.000000 0.000000 0.000000 0.039016 0.000000
# 6 0.000000 0.000000 0.000000 0.000000 0.000000 -0.004735
#
#
# Mechanical properties :
#
#
# Convention : Reuss Voigt Hill
#
# Bulk Modulus (GPa) = 31.58082 34.73244 33.15663
# Shear Modulus (GPa) = 41.11873 -14.50802 13.30535
#
# Velocity S-wave (km/s) = 4.25717 -2.52875 2.42167
# Velocity P-wave (km/s) = 6.17124 2.60434 4.73639
#
# Compressibility (1/GPa) = 0.03166479
#
# Stress axis : x y z
#
# Youngs Moduli (GPa) = 53.24542 77.76326 106.61112
#
# Poissons Ratio (x) = 0.30794 -0.15568
# Poissons Ratio (y) = 0.21085 0.23221
# Poissons Ratio (z) = -0.07775 0.16938
#
# Static dielectric constant tensor:
#      x y z
#    x 1.889680 0.000000 0.000000 
#    y 0.000000 1.856810 0.000000 
#    z 0.000000 0.000000 1.877370 
# 
# From -- ./inp_files/60005.got.cif
#   From: 2010.05.17/outbox.cif.g08.bks.cpg/sg63_31_cif.got.tgz:60005.got - 2010.06.03 15:47:04.
