data_PCOD9473451
_publ_section_title
;
Structure prediction by ZEFSAII (Michael W. Deem and Ramdas Pophale) SiO2 
 PCOD9473451
Probable space group: C M C M
;
_chemical_formula_sum "Si O2"
_cell_formula_units_Z 64
_cell_length_a 11.260349
_cell_length_b 10.980219
_cell_length_c 23.477338
_cell_angle_alpha 90.000000
_cell_angle_beta 90.000000
_cell_angle_gamma 90.000000
_cell_volume 2902.763849
_symmetry_space_group_name_H-M "C M C M"
_symmetry_group_IT_number 63
_symmetry_cell_setting 'orthorhombic'
loop_
_space_group_symop_operation_xyz
x,y,z
-x,-y,1/2+z
x,-y,-z
-x,y,1/2-z
-x,-y,-z
x,y,1/2-z
-x,y,z
x,-y,1/2+z
1/2+x,1/2+y,z
1/2-x,1/2-y,1/2+z
1/2+x,1/2-y,-z
1/2-x,1/2+y,1/2-z
1/2-x,1/2-y,-z
1/2+x,1/2+y,1/2-z
1/2-x,1/2+y,z
1/2+x,1/2-y,1/2+z
loop_
_atom_site_type_symbol
_atom_site_label
_atom_site_fract_x
_atom_site_fract_y
_atom_site_fract_z
Si Si1 0.500000 0.128569 0.964449
Si Si2 0.628325 0.888150 0.648346
Si Si3 0.369495 0.300142 0.250000
Si Si4 0.250535 0.046004 0.935123
Si Si5 0.621857 0.922086 0.250000
Si Si6 0.000000 0.123924 0.960948
O O1 0.374013 0.122475 0.930524
O O2 0.500000 0.253174 0.001161
O O3 0.500000 0.000000 0.000000
O O4 0.500000 0.875779 0.618205
O O5 0.729597 0.928292 0.604845
O O6 0.618201 0.997547 0.693377
O O7 0.640483 0.777740 0.691948
O O8 0.500000 0.358558 0.250000
O O9 0.252339 0.374530 0.250000
O O10 0.125101 0.114742 0.926482
O O11 0.247603 0.000000 0.000000
O O12 0.500000 0.844231 0.250000
O O13 0.000000 0.000000 0.000000
#
# Coordination Sequence:
#
# PCOD9473451 Si02
#       6
#     8  16   8  16   8   8
#     4  10  20  38  62  81 112 161 210 236 273 364
#     4   9  18  38  61  79 114 155 191 236 294 361
#     4   9  19  39  62  82 112 149 199 243 284 348
#     4  10  20  38  58  85 118 154 200 246 299 363
#     4   9  19  39  56  82 110 149 193 237 298 358
#     4  10  22  40  54  83 130 159 188 246 311 348
#
# _framework density 22.047953
#
# number of rings (size 3 to 8) (size 9 to 14) (size 15 to 20)
#    0.000    2.500    1.250    2.250    0.000    0.000 
#   22.500    1.250    0.000    0.000    0.000    0.000 
#    0.000    0.000    0.000    0.000    0.000    0.000 
#
# Total GULP energy -178241.482925 kJ/mol
# GULP energy per Si atom -5570.046341 kJ/mol
# Density = 2.199777 g / cm^3
# Si number density = 22.047953 Si / 1000 Ang^3
#
#
#
# Elastic Constant Matrix: (Units=GPa)
#
#
# Indices 1 2 3 4 5 6 
#
# 1 209.4140 37.0585 4.8288 0.0000 0.0000 0.0000
# 2 37.0585 60.2247 3.0264 0.0000 0.0000 0.0000
# 3 4.8288 3.0264 85.2881 0.0000 0.0000 0.0000
# 4 0.0000 0.0000 0.0000 15.7482 0.0000 0.0000
# 5 0.0000 0.0000 0.0000 0.0000 10.3131 0.0000
# 6 0.0000 0.0000 0.0000 0.0000 0.0000 20.6261
#
#
#
# Elastic Compliance Matrix: (Units=1/GPa)
#
#
# Indices 1 2 3 4 5 6 
#
# 1 0.005362 -0.003290 -0.000187 0.000000 0.000000 0.000000
# 2 -0.003290 0.018653 -0.000476 0.000000 0.000000 0.000000
# 3 -0.000187 -0.000476 0.011752 0.000000 0.000000 0.000000
# 4 0.000000 0.000000 0.000000 0.063500 0.000000 0.000000
# 5 0.000000 0.000000 0.000000 0.000000 0.096965 0.000000
# 6 0.000000 0.000000 0.000000 0.000000 0.000000 0.048482
#
#
# Mechanical properties :
#
#
# Convention : Reuss Voigt Hill
#
# Bulk Modulus (GPa) = 35.89085 49.41715 42.65400
# Shear Modulus (GPa) = 19.09088 30.00501 24.54794
#
# Velocity S-wave (km/s) = 2.94578 3.69304 3.34037
# Velocity P-wave (km/s) = 5.28053 6.37549 5.85367
#
# Compressibility (1/GPa) = 0.02786225
#
# Stress axis : x y z
#
# Youngs Moduli (GPa) = 186.50714 53.61132 85.08891
#
# Poissons Ratio (x) = 0.17638 0.01590
# Poissons Ratio (y) = 0.61359 0.04047
# Poissons Ratio (z) = 0.03484 0.02550
#
# Static dielectric constant tensor:
#      x y z
#    x 2.029810 0.000000 0.000000 
#    y 0.000000 1.890330 0.000000 
#    z 0.000000 0.000000 1.844010 
# 
# From -- ./inp_files/67953.got.cif
#   From: 2010.05.17/outbox.cif.g08.bks.cpg/sg63_34_cif.got.tgz:67953.got - 2010.06.03 15:47:04.
