data_PCOD9473313
_publ_section_title
;
Structure prediction by ZEFSAII (Michael W. Deem and Ramdas Pophale) SiO2 
 PCOD9473313
Probable space group: C M C M
;
_chemical_formula_sum "Si O2"
_cell_formula_units_Z 72
_cell_length_a 16.318967
_cell_length_b 8.812072
_cell_length_c 24.489075
_cell_angle_alpha 90.000000
_cell_angle_beta 90.000000
_cell_angle_gamma 90.000000
_cell_volume 3521.624790
_symmetry_space_group_name_H-M "C M C M"
_symmetry_group_IT_number 63
_symmetry_cell_setting 'orthorhombic'
loop_
_space_group_symop_operation_xyz
x,y,z
-x,-y,1/2+z
x,-y,-z
-x,y,1/2-z
-x,-y,-z
x,y,1/2-z
-x,y,z
x,-y,1/2+z
1/2+x,1/2+y,z
1/2-x,1/2-y,1/2+z
1/2+x,1/2-y,-z
1/2-x,1/2+y,1/2-z
1/2-x,1/2-y,-z
1/2+x,1/2+y,1/2-z
1/2-x,1/2+y,z
1/2+x,1/2-y,1/2+z
loop_
_atom_site_type_symbol
_atom_site_label
_atom_site_fract_x
_atom_site_fract_y
_atom_site_fract_z
Si Si1 0.327389 0.776644 0.652206
Si Si2 0.837471 0.936663 0.686269
Si Si3 0.500000 0.169799 0.024480
Si Si4 0.500000 0.098305 0.153248
Si Si5 0.826907 0.667715 0.024441
Si Si6 0.000000 0.249975 0.316165
O O1 0.329110 0.594680 0.654506
O O2 0.321769 0.832941 0.589769
O O3 0.245845 0.840190 0.680662
O O4 0.413899 0.837899 0.676191
O O5 0.849252 0.975643 0.750000
O O6 0.917423 0.841091 0.668648
O O7 0.414077 0.243229 0.008643
O O8 0.500000 0.149678 0.089906
O O9 0.500000 0.000000 0.000000
O O10 0.500000 0.917146 0.158361
O O11 0.827677 0.500000 0.000000
O O12 0.750000 0.750000 0.000000
O O13 0.000000 0.267193 0.250000
#
# Coordination Sequence:
#
# PCOD9473313 Si02
#       6
#    16  16   8   8  16   8
#     4  11  22  38  60  86 116 155 193 236 290 345
#     4  11  23  39  57  83 116 151 192 238 284 341
#     4   8  18  35  55  78 109 144 179 221 276 335
#     4  10  21  37  59  84 112 149 191 232 286 344
#     4  10  20  37  58  83 113 147 187 235 285 341
#     4  10  23  40  59  84 116 151 193 241 289 341
#
# _framework density 20.44511
#
# number of rings (size 3 to 8) (size 9 to 14) (size 15 to 20)
#    0.000    1.778    0.000    4.000    0.000    7.111 
#    0.000    0.556    0.000    0.000    0.000    0.000 
#    0.000    0.000    0.000    0.000    0.000    0.000 
#
# Total GULP energy -200980.061735 kJ/mol
# GULP energy per Si atom -5582.779493 kJ/mol
# Density = 2.039858 g / cm^3
# Si number density = 20.445110 Si / 1000 Ang^3
#
#
#
# Elastic Constant Matrix: (Units=GPa)
#
#
# Indices 1 2 3 4 5 6 
#
# 1 221.0767 77.5650 25.7144 0.0000 0.0000 0.0000
# 2 77.5650 110.6521 -1.3946 0.0000 0.0000 0.0000
# 3 25.7144 -1.3946 28.2318 0.0000 0.0000 0.0000
# 4 0.0000 0.0000 0.0000 3.3273 0.0000 0.0000
# 5 0.0000 0.0000 0.0000 0.0000 22.4344 0.0000
# 6 0.0000 0.0000 0.0000 0.0000 0.0000 41.3042
#
#
#
# Elastic Compliance Matrix: (Units=1/GPa)
#
#
# Indices 1 2 3 4 5 6 
#
# 1 0.007069 -0.005040 -0.006688 0.000000 0.000000 0.000000
# 2 -0.005040 0.012636 0.005215 0.000000 0.000000 0.000000
# 3 -0.006688 0.005215 0.041770 0.000000 0.000000 0.000000
# 4 0.000000 0.000000 0.000000 0.300547 0.000000 0.000000
# 5 0.000000 0.000000 0.000000 0.000000 0.044574 0.000000
# 6 0.000000 0.000000 0.000000 0.000000 0.000000 0.024211
#
#
# Mechanical properties :
#
#
# Convention : Reuss Voigt Hill
#
# Bulk Modulus (GPa) = 20.64017 62.63667 41.63842
# Shear Modulus (GPa) = 10.86994 30.61823 20.74408
#
# Velocity S-wave (km/s) = 2.30829 3.87406 3.18877
# Velocity P-wave (km/s) = 4.14989 7.12138 5.82819
#
# Compressibility (1/GPa) = 0.04844921
#
# Stress axis : x y z
#
# Youngs Moduli (GPa) = 141.45327 79.13964 23.94042
#
# Poissons Ratio (x) = 0.39885 0.16011
# Poissons Ratio (y) = 0.71290 -0.12484
# Poissons Ratio (z) = 0.94605 -0.41269
#
# Static dielectric constant tensor:
#      x y z
#    x 1.772350 0.000000 0.000000 
#    y 0.000000 1.685080 0.000000 
#    z 0.000000 0.000000 1.717310 
# 
# From -- ./inp_files/69086.got.cif
#   From: 2010.05.17/outbox.cif.g08.bks.cpg/sg63_35_cif.got.tgz:69086.got - 2010.06.03 15:47:04.
