data_PCOD9473529
_publ_section_title
;
Structure prediction by ZEFSAII (Michael W. Deem and Ramdas Pophale) SiO2 
 PCOD9473529
Probable space group: C M C M
;
_chemical_formula_sum "Si O2"
_cell_formula_units_Z 80
_cell_length_a 24.507955
_cell_length_b 18.745429
_cell_length_c 7.571368
_cell_angle_alpha 90.000000
_cell_angle_beta 90.000000
_cell_angle_gamma 90.000000
_cell_volume 3478.378303
_symmetry_space_group_name_H-M "C M C M"
_symmetry_group_IT_number 63
_symmetry_cell_setting 'orthorhombic'
loop_
_space_group_symop_operation_xyz
x,y,z
-x,-y,1/2+z
x,-y,-z
-x,y,1/2-z
-x,-y,-z
x,y,1/2-z
-x,y,z
x,-y,1/2+z
1/2+x,1/2+y,z
1/2-x,1/2-y,1/2+z
1/2+x,1/2-y,-z
1/2-x,1/2+y,1/2-z
1/2-x,1/2-y,-z
1/2+x,1/2+y,1/2-z
1/2-x,1/2+y,z
1/2+x,1/2-y,1/2+z
loop_
_atom_site_type_symbol
_atom_site_label
_atom_site_fract_x
_atom_site_fract_y
_atom_site_fract_z
Si Si1 0.616266 0.076004 0.540424
Si Si2 0.807346 0.303966 0.553593
Si Si3 0.619731 0.669147 0.456139
Si Si4 0.717896 0.583068 0.037127
Si Si5 0.000000 0.383517 0.035689
Si Si6 0.000000 0.217612 0.466772
O O1 0.619103 0.090425 0.750000
O O2 0.645813 0.137670 0.439136
O O3 0.554251 0.077755 0.477696
O O4 0.641490 0.000000 0.500000
O O5 0.789591 0.281332 0.750000
O O6 0.839137 0.237450 0.467820
O O7 0.759229 0.353847 0.471884
O O8 0.610897 0.654530 0.250000
O O9 0.657289 0.604987 0.527954
O O10 0.558581 0.684924 0.527033
O O11 0.719885 0.589589 0.250000
O O12 0.730386 0.500000 0.000000
O O13 0.000000 0.300904 0.982172
O O14 0.000000 0.383781 0.250000
O O15 0.000000 0.215990 0.250000
#
# Coordination Sequence:
#
# PCOD9473529 Si02
#       6
#    16  16  16  16   8   8
#     4  11  21  34  51  75 109 149 192 232 277 330
#     4  11  22  36  55  84 116 149 188 228 276 332
#     4  10  20  38  63  87 112 147 189 233 281 336
#     4  10  23  40  59  84 115 151 189 231 284 337
#     4   9  17  31  51  74 103 144 188 230 278 332
#     4   9  16  33  60  86 109 141 187 232 282 339
#
# _framework density 22.999224000000002
#
# number of rings (size 3 to 8) (size 9 to 14) (size 15 to 20)
#    0.000    1.800    2.000    2.700    0.000    4.000 
#    0.000    3.500    0.000    0.000    0.000    0.000 
#    0.000    0.000    0.000    0.000    0.000    0.000 
#
# Total GULP energy -223049.180487 kJ/mol
# GULP energy per Si atom -5576.229512 kJ/mol
# Density = 2.294688 g / cm^3
# Si number density = 22.999224 Si / 1000 Ang^3
#
#
#
# Elastic Constant Matrix: (Units=GPa)
#
#
# Indices 1 2 3 4 5 6 
#
# 1 172.2983 65.6489 1.2040 0.0000 0.0000 0.0000
# 2 65.6489 58.4009 1.1279 0.0000 0.0000 0.0000
# 3 1.2040 1.1279 62.8556 0.0000 0.0000 0.0000
# 4 0.0000 0.0000 0.0000 10.9293 0.0000 0.0000
# 5 0.0000 0.0000 0.0000 0.0000 8.2101 0.0000
# 6 0.0000 0.0000 0.0000 0.0000 0.0000 62.1970
#
#
#
# Elastic Compliance Matrix: (Units=1/GPa)
#
#
# Indices 1 2 3 4 5 6 
#
# 1 0.010152 -0.011412 0.000010 0.000000 0.000000 0.000000
# 2 -0.011412 0.029958 -0.000319 0.000000 0.000000 0.000000
# 3 0.000010 -0.000319 0.015915 0.000000 0.000000 0.000000
# 4 0.000000 0.000000 0.000000 0.091497 0.000000 0.000000
# 5 0.000000 0.000000 0.000000 0.000000 0.121801 0.000000
# 6 0.000000 0.000000 0.000000 0.000000 0.000000 0.016078
#
#
# Mechanical properties :
#
#
# Convention : Reuss Voigt Hill
#
# Bulk Modulus (GPa) = 30.69079 47.72406 39.20743
# Shear Modulus (GPa) = 15.63946 31.30553 23.47250
#
# Velocity S-wave (km/s) = 2.61051 3.69339 3.19811
# Velocity P-wave (km/s) = 4.73915 6.24368 5.54270
#
# Compressibility (1/GPa) = 0.03258306
#
# Stress axis : x y z
#
# Youngs Moduli (GPa) = 98.50177 33.38030 62.83382
#
# Poissons Ratio (x) = 0.38094 -0.00065
# Poissons Ratio (y) = 1.12413 0.02004
# Poissons Ratio (z) = -0.00102 0.01065
#
# Static dielectric constant tensor:
#      x y z
#    x 1.917790 0.000000 0.000000 
#    y 0.000000 1.812560 0.000000 
#    z 0.000000 0.000000 1.974890 
# 
# From -- ./inp_files/12115.got.cif
#   From: 2010.05.17/outbox.cif.g08.bks.cpg/sg63_7_cif.got.tgz:12115.got - 2010.06.03 15:47:04.
