data_PCOD9473561
_publ_section_title
;
Structure prediction by ZEFSAII (Michael W. Deem and Ramdas Pophale) SiO2 
 PCOD9473561
Probable space group: C M C M
;
_chemical_formula_sum "Si O2"
_cell_formula_units_Z 88
_cell_length_a 7.281864
_cell_length_b 19.977842
_cell_length_c 24.791450
_cell_angle_alpha 90.000000
_cell_angle_beta 90.000000
_cell_angle_gamma 90.000000
_cell_volume 3606.559207
_symmetry_space_group_name_H-M "C M C M"
_symmetry_group_IT_number 63
_symmetry_cell_setting 'orthorhombic'
loop_
_space_group_symop_operation_xyz
x,y,z
-x,-y,1/2+z
x,-y,-z
-x,y,1/2-z
-x,-y,-z
x,y,1/2-z
-x,y,z
x,-y,1/2+z
1/2+x,1/2+y,z
1/2-x,1/2-y,1/2+z
1/2+x,1/2-y,-z
1/2-x,1/2+y,1/2-z
1/2-x,1/2-y,-z
1/2+x,1/2+y,1/2-z
1/2-x,1/2+y,z
1/2+x,1/2-y,1/2+z
loop_
_atom_site_type_symbol
_atom_site_label
_atom_site_fract_x
_atom_site_fract_y
_atom_site_fract_z
Si Si1 0.781493 0.068312 0.466454
Si Si2 0.721968 0.317615 0.807937
Si Si3 0.209514 0.214472 0.600779
Si Si4 0.276592 0.607799 0.809714
Si Si5 0.277992 0.460925 0.842635
Si Si6 0.500000 0.823245 0.016201
O O1 0.732564 0.050537 0.404940
O O2 0.659956 0.128215 0.488990
O O3 0.000000 0.083932 0.468686
O O4 0.751812 0.000000 0.500000
O O5 0.781433 0.289005 0.750000
O O6 0.500000 0.315059 0.809639
O O7 0.788573 0.278132 0.859916
O O8 0.779738 0.394648 0.811548
O O9 0.276336 0.154702 0.640498
O O10 0.341751 0.217232 0.550820
O O11 0.000000 0.203287 0.583020
O O12 0.216278 0.629432 0.750000
O O13 0.500000 0.609490 0.809725
O O14 0.215008 0.532078 0.820558
O O15 0.500000 0.463419 0.838789
#
# Coordination Sequence:
#
# PCOD9473561 Si02
#       6
#    16  16  16  16  16   8
#     4  10  21  39  65  95 129 171 217 268 332 390
#     4  10  20  38  65  94 128 170 209 253 320 395
#     4  11  23  40  64  92 129 168 215 264 321 387
#     4   9  17  32  58  94 127 161 205 258 318 381
#     4   9  18  35  62  93 128 161 210 264 317 385
#     4  12  23  40  63  90 121 168 217 270 316 372
#
# _framework density 24.399985999999998
#
# number of rings (size 3 to 8) (size 9 to 14) (size 15 to 20)
#    0.000    2.000    0.909    3.000    0.000    6.182 
#    1.636    0.909    0.000    0.000    0.000    0.000 
#    0.000    0.000    0.000    0.000    0.000    0.000 
#
# Total GULP energy -245395.019563 kJ/mol
# GULP energy per Si atom -5577.159536 kJ/mol
# Density = 2.434445 g / cm^3
# Si number density = 24.399986 Si / 1000 Ang^3
#
#
#
# Elastic Constant Matrix: (Units=GPa)
#
#
# Indices 1 2 3 4 5 6 
#
# 1 138.0871 6.3141 34.3497 0.0000 0.0000 0.0000
# 2 6.3141 96.2139 27.8310 0.0000 0.0000 0.0000
# 3 34.3497 27.8310 105.3661 0.0000 0.0000 0.0000
# 4 0.0000 0.0000 0.0000 39.7695 0.0000 0.0000
# 5 0.0000 0.0000 0.0000 0.0000 0.5910 0.0000
# 6 0.0000 0.0000 0.0000 0.0000 0.0000 -6.0836
#
#
#
# Elastic Compliance Matrix: (Units=1/GPa)
#
#
# Indices 1 2 3 4 5 6 
#
# 1 0.007886 0.000245 -0.002636 0.000000 0.000000 0.000000
# 2 0.000245 0.011261 -0.003054 0.000000 0.000000 0.000000
# 3 -0.002636 -0.003054 0.011157 0.000000 0.000000 0.000000
# 4 0.000000 0.000000 0.000000 0.025145 0.000000 0.000000
# 5 0.000000 0.000000 0.000000 0.000000 1.692038 0.000000
# 6 0.000000 0.000000 0.000000 0.000000 0.000000 -0.164377
#
#
# Mechanical properties :
#
#
# Convention : Reuss Voigt Hill
#
# Bulk Modulus (GPa) = 51.50972 52.96186 52.23579
# Shear Modulus (GPa) = 3.12408 24.93353 14.02880
#
# Velocity S-wave (km/s) = 1.13276 3.20013 2.40042
# Velocity P-wave (km/s) = 4.78197 5.95040 5.39789
#
# Compressibility (1/GPa) = 0.01941381
#
# Stress axis : x y z
#
# Youngs Moduli (GPa) = 126.80336 88.80271 89.63250
#
# Poissons Ratio (x) = -0.02174 0.23624
# Poissons Ratio (y) = -0.03105 0.27376
# Poissons Ratio (z) = 0.33420 0.27122
#
# Static dielectric constant tensor:
#      x y z
#    x 1.921490 0.000000 0.000000 
#    y 0.000000 1.209570 0.000000 
#    z 0.000000 0.000000 2.178140 
# 
# From -- ./inp_files/59666.got.cif
#   From: 2010.05.17/outbox.cif.g08.bks.cpg/sg63_30_cif.got.tgz:59666.got - 2010.06.03 15:47:04.
