data_PCOD9473201
_publ_section_title
;
Structure prediction by ZEFSAII (Michael W. Deem and Ramdas Pophale) SiO2 
 PCOD9473201
Probable space group: C M C M
;
_chemical_formula_sum "Si O2"
_cell_formula_units_Z 80
_cell_length_a 11.678646
_cell_length_b 21.531708
_cell_length_c 16.981181
_cell_angle_alpha 90.000000
_cell_angle_beta 90.000000
_cell_angle_gamma 90.000000
_cell_volume 4270.108075
_symmetry_space_group_name_H-M "C M C M"
_symmetry_group_IT_number 63
_symmetry_cell_setting 'orthorhombic'
loop_
_space_group_symop_operation_xyz
x,y,z
-x,-y,1/2+z
x,-y,-z
-x,y,1/2-z
-x,-y,-z
x,y,1/2-z
-x,y,z
x,-y,1/2+z
1/2+x,1/2+y,z
1/2-x,1/2-y,1/2+z
1/2+x,1/2-y,-z
1/2-x,1/2+y,1/2-z
1/2-x,1/2-y,-z
1/2+x,1/2+y,1/2-z
1/2-x,1/2+y,z
1/2+x,1/2-y,1/2+z
loop_
_atom_site_type_symbol
_atom_site_label
_atom_site_fract_x
_atom_site_fract_y
_atom_site_fract_z
Si Si1 0.363824 0.036116 0.421731
Si Si2 0.000000 0.160904 0.840000
Si Si3 0.865817 0.349982 0.250000
Si Si4 0.738409 0.720388 0.882552
Si Si5 0.500000 0.576502 0.996746
Si Si6 0.359533 0.989660 0.250000
Si Si7 0.775946 0.848626 0.951488
O O1 0.500000 0.026615 0.420764
O O2 0.329539 0.106751 0.434134
O O3 0.319155 0.000000 0.500000
O O4 0.321234 0.016891 0.334520
O O5 0.111027 0.204581 0.852091
O O6 0.000000 0.136821 0.750000
O O7 0.000000 0.106575 0.907426
O O8 0.824812 0.313796 0.174385
O O9 0.817301 0.419128 0.250000
O O10 0.000000 0.356505 0.250000
O O11 0.774313 0.792115 0.889808
O O12 0.742770 0.686483 0.966399
O O13 0.388365 0.607717 0.038816
O O14 0.500000 0.500000 0.000000
O O15 0.500000 0.993003 0.250000
#
# Coordination Sequence:
#
# PCOD9473201 Si02
#       7
#    16   8   8  16   8   8  16
#     4  10  20  36  60  87 117 152 195 246 301 362
#     4  10  20  42  64  88 117 154 218 254 302 371
#     4  11  22  36  59  83 119 156 185 238 301 360
#     4  10  22  38  60  87 114 154 201 252 298 361
#     4  10  22  40  66  88 122 168 202 254 305 374
#     4   9  20  37  55  87 119 151 198 244 295 366
#     4  10  22  38  59  87 118 154 199 246 303 362
#
# _framework density 18.734888999999999
#
# number of rings (size 3 to 8) (size 9 to 14) (size 15 to 20)
#    0.000    2.000    1.000    1.800    2.800    4.800 
#    0.000    0.000    2.200    0.000    0.000    0.000 
#    0.000    0.000    0.000    0.000    0.000    0.000 
#
# Total GULP energy -222842.077589 kJ/mol
# GULP energy per Si atom -5571.051940 kJ/mol
# Density = 1.869225 g / cm^3
# Si number density = 18.734889 Si / 1000 Ang^3
#
#
#
# Elastic Constant Matrix: (Units=GPa)
#
#
# Indices 1 2 3 4 5 6 
#
# 1 29.0371 22.8080 28.2917 0.0000 0.0000 0.0000
# 2 22.8080 121.3174 27.9801 0.0000 0.0000 0.0000
# 3 28.2917 27.9801 82.3485 0.0000 0.0000 0.0000
# 4 0.0000 0.0000 0.0000 552.7925 0.0000 0.0000
# 5 0.0000 0.0000 0.0000 0.0000 15.2139 0.0000
# 6 0.0000 0.0000 0.0000 0.0000 0.0000 21.3348
#
#
#
# Elastic Compliance Matrix: (Units=1/GPa)
#
#
# Indices 1 2 3 4 5 6 
#
# 1 0.056306 -0.006645 -0.017087 0.000000 0.000000 0.000000
# 2 -0.006645 0.009728 -0.001022 0.000000 0.000000 0.000000
# 3 -0.017087 -0.001022 0.018361 0.000000 0.000000 0.000000
# 4 0.000000 0.000000 0.000000 0.001809 0.000000 0.000000
# 5 0.000000 0.000000 0.000000 0.000000 0.065729 0.000000
# 6 0.000000 0.000000 0.000000 0.000000 0.000000 0.046872
#
#
# Mechanical properties :
#
#
# Convention : Reuss Voigt Hill
#
# Bulk Modulus (GPa) = 28.66379 43.42916 36.04648
# Shear Modulus (GPa) = 19.23498 128.10978 73.67238
#
# Velocity S-wave (km/s) = 3.20768 8.27821 6.27766
# Velocity P-wave (km/s) = 5.38998 10.70528 8.47510
#
# Compressibility (1/GPa) = 0.03488722
#
# Stress axis : x y z
#
# Youngs Moduli (GPa) = 17.76000 102.79712 54.46252
#
# Poissons Ratio (x) = 0.68308 0.93059
# Poissons Ratio (y) = 0.11801 0.05568
# Poissons Ratio (z) = 0.30346 0.10510
#
# Static dielectric constant tensor:
#      x y z
#    x 1.659800 0.000000 0.000000 
#    y 0.000000 1.634990 0.000000 
#    z 0.000000 0.000000 1.568940 
# 
# From -- ./inp_files/42227.got.cif
#   From: 2010.05.17/outbox.cif.g08.bks.cpg/sg63_22_cif.got.tgz:42227.got - 2010.06.03 15:47:04.
