data_PCOD9473884
_publ_section_title
;
Structure prediction by ZEFSAII (Michael W. Deem and Ramdas Pophale) SiO2 
 PCOD9473884
Probable space group: C M C M
;
_chemical_formula_sum "Si O2"
_cell_formula_units_Z 80
_cell_length_a 18.989082
_cell_length_b 26.895442
_cell_length_c 9.083920
_cell_angle_alpha 90.000000
_cell_angle_beta 90.000000
_cell_angle_gamma 90.000000
_cell_volume 4639.337384
_symmetry_space_group_name_H-M "C M C M"
_symmetry_group_IT_number 63
_symmetry_cell_setting 'orthorhombic'
loop_
_space_group_symop_operation_xyz
x,y,z
-x,-y,1/2+z
x,-y,-z
-x,y,1/2-z
-x,-y,-z
x,y,1/2-z
-x,y,z
x,-y,1/2+z
1/2+x,1/2+y,z
1/2-x,1/2-y,1/2+z
1/2+x,1/2-y,-z
1/2-x,1/2+y,1/2-z
1/2-x,1/2-y,-z
1/2+x,1/2+y,1/2-z
1/2-x,1/2+y,z
1/2+x,1/2-y,1/2+z
loop_
_atom_site_type_symbol
_atom_site_label
_atom_site_fract_x
_atom_site_fract_y
_atom_site_fract_z
Si Si1 0.416597 0.051877 0.424979
Si Si2 0.917553 0.050947 0.926516
Si Si3 0.334689 0.141484 0.925257
Si Si4 0.327198 0.251644 0.573622
Si Si5 0.667470 0.351210 0.073701
O O1 0.407259 0.048246 0.250000
O O2 0.500000 0.058460 0.455870
O O3 0.374301 0.098483 0.488597
O O4 0.394352 0.000000 0.500000
O O5 0.912296 0.046221 0.750000
O O6 0.874263 0.099515 0.970878
O O7 0.000000 0.057244 0.964553
O O8 0.892100 0.000000 0.000000
O O9 0.343401 0.133728 0.750000
O O10 0.360466 0.197732 0.960328
O O11 0.250709 0.141097 0.956392
O O12 0.320543 0.255015 0.750000
O O13 0.250000 0.250000 0.500000
O O14 0.359684 0.301772 0.507811
O O15 0.660394 0.344123 0.250000
#
# Coordination Sequence:
#
# PCOD9473884 Si02
#       5
#    16  16  16  16  16
#     4  10  21  36  53  72  95 126 162 199 242 291
#     4   9  18  33  51  70  96 131 166 201 243 287
#     4   9  18  32  50  73 100 128 159 197 239 285
#     4   9  17  30  49  73 100 130 161 195 240 287
#     4   9  18  32  50  74 102 129 161 201 242 285
#
# _framework density 17.243841
#
# number of rings (size 3 to 8) (size 9 to 14) (size 15 to 20)
#    0.000    2.800    0.000    2.400    0.000    6.800 
#    0.000    3.000    0.000    3.600    0.000    0.000 
#    0.000    0.000    0.000    0.000    0.000    0.000 
#
# Total GULP energy -222896.769401 kJ/mol
# GULP energy per Si atom -5572.419235 kJ/mol
# Density = 1.720459 g / cm^3
# Si number density = 17.243841 Si / 1000 Ang^3
#
#
#
# Elastic Constant Matrix: (Units=GPa)
#
#
# Indices 1 2 3 4 5 6 
#
# 1 32.4415 64.6184 31.3177 0.0000 0.0000 0.0000
# 2 64.6184 217.3731 75.2822 0.0000 0.0000 0.0000
# 3 31.3177 75.2822 45.7568 0.0000 0.0000 0.0000
# 4 0.0000 0.0000 0.0000 40.6631 0.0000 0.0000
# 5 0.0000 0.0000 0.0000 0.0000 19.7191 0.0000
# 6 0.0000 0.0000 0.0000 0.0000 0.0000 -120.5860
#
#
#
# Elastic Compliance Matrix: (Units=1/GPa)
#
#
# Indices 1 2 3 4 5 6 
#
# 1 0.109009 -0.015262 -0.049500 0.000000 0.000000 0.000000
# 2 -0.015262 0.012830 -0.010664 0.000000 0.000000 0.000000
# 3 -0.049500 -0.010664 0.073279 0.000000 0.000000 0.000000
# 4 0.000000 0.000000 0.000000 0.024592 0.000000 0.000000
# 5 0.000000 0.000000 0.000000 0.000000 0.050712 0.000000
# 6 0.000000 0.000000 0.000000 0.000000 0.000000 -0.008293
#
#
# Mechanical properties :
#
#
# Convention : Reuss Voigt Hill
#
# Bulk Modulus (GPa) = 22.59002 70.88978 46.73990
# Shear Modulus (GPa) = 11.68943 -3.75055 3.96944
#
# Velocity S-wave (km/s) = 2.60646 -1.47639 1.51886
# Velocity P-wave (km/s) = 4.71030 6.18815 5.49909
#
# Compressibility (1/GPa) = 0.04426733
#
# Stress axis : x y z
#
# Youngs Moduli (GPa) = 9.17354 77.94000 13.64650
#
# Poissons Ratio (x) = 1.18951 0.67550
# Poissons Ratio (y) = 0.14001 0.14552
# Poissons Ratio (z) = 0.45409 0.83112
#
# Static dielectric constant tensor:
#      x y z
#    x 1.573500 0.000000 0.000000 
#    y 0.000000 1.599870 0.000000 
#    z 0.000000 0.000000 1.617980 
# 
# From -- ./inp_files/6455.got.cif
#   From: 2010.05.17/outbox.cif.g08.bks.cpg/sg63_4_cif.got.tgz:6455.got - 2010.06.03 15:47:04.
