data_PCOD9473697
_publ_section_title
;
Structure prediction by ZEFSAII (Michael W. Deem and Ramdas Pophale) SiO2 
 PCOD9473697
Probable space group: C M C M
;
_chemical_formula_sum "Si O2"
_cell_formula_units_Z 88
_cell_length_a 15.455164
_cell_length_b 11.034630
_cell_length_c 28.218934
_cell_angle_alpha 90.000000
_cell_angle_beta 90.000000
_cell_angle_gamma 90.000000
_cell_volume 4812.513903
_symmetry_space_group_name_H-M "C M C M"
_symmetry_group_IT_number 63
_symmetry_cell_setting 'orthorhombic'
loop_
_space_group_symop_operation_xyz
x,y,z
-x,-y,1/2+z
x,-y,-z
-x,y,1/2-z
-x,-y,-z
x,y,1/2-z
-x,y,z
x,-y,1/2+z
1/2+x,1/2+y,z
1/2-x,1/2-y,1/2+z
1/2+x,1/2-y,-z
1/2-x,1/2+y,1/2-z
1/2-x,1/2-y,-z
1/2+x,1/2+y,1/2-z
1/2-x,1/2+y,z
1/2+x,1/2-y,1/2+z
loop_
_atom_site_type_symbol
_atom_site_label
_atom_site_fract_x
_atom_site_fract_y
_atom_site_fract_z
Si Si1 0.842472 0.613115 0.871574
Si Si2 0.313422 0.857609 0.017601
Si Si3 0.000000 0.198717 0.806838
Si Si4 0.000000 0.637786 0.481010
Si Si5 0.000000 0.574857 0.126760
Si Si6 0.401992 0.687845 0.198072
Si Si7 0.820391 0.067631 0.804549
O O1 0.815442 0.636215 0.925516
O O2 0.913530 0.506438 0.870836
O O3 0.888094 0.725657 0.845893
O O4 0.758082 0.591465 0.839608
O O5 0.250000 0.750000 0.000000
O O6 0.408999 0.815709 0.000448
O O7 0.298163 0.000000 0.000000
O O8 0.089480 0.130809 0.819687
O O9 0.000000 0.207967 0.750000
O O10 0.000000 0.328014 0.831735
O O11 0.000000 0.500000 0.500000
O O12 0.000000 0.638686 0.424437
O O13 0.391755 0.749396 0.250000
O O14 0.500000 0.639583 0.197292
O O15 0.338137 0.575483 0.196013
O O16 0.801919 0.105699 0.750000
#
# Coordination Sequence:
#
# PCOD9473697 Si02
#       7
#    16  16   8   8   8  16  16
#     4  12  24  39  65  94 124 163 215 261 314 379
#     4  11  25  44  67  96 128 169 215 268 326 386
#     4  10  24  43  63  90 130 173 212 259 318 385
#     4  10  20  46  65  85 124 175 202 254 332 383
#     4  12  24  41  65  93 124 168 214 259 310 383
#     4  10  21  39  61  85 121 163 205 254 312 373
#     4  10  23  42  61  88 127 169 208 259 321 375
#
# _framework density 18.285661999999999
#
# number of rings (size 3 to 8) (size 9 to 14) (size 15 to 20)
#    0.000    1.273    5.455    0.545    7.636    1.455 
#    0.000    0.455    0.000    0.000    0.000    0.000 
#    0.000    0.000    0.000    0.000    0.000    0.000 
#
# Total GULP energy -245368.110623 kJ/mol
# GULP energy per Si atom -5576.547969 kJ/mol
# Density = 1.824404 g / cm^3
# Si number density = 18.285662 Si / 1000 Ang^3
#
#
#
# Elastic Constant Matrix: (Units=GPa)
#
#
# Indices 1 2 3 4 5 6 
#
# 1 158.8598 37.5731 75.8931 0.0000 0.0000 0.0000
# 2 37.5731 61.2668 44.2042 0.0000 0.0000 0.0000
# 3 75.8931 44.2042 70.1836 0.0000 0.0000 0.0000
# 4 0.0000 0.0000 0.0000 10.9407 0.0000 0.0000
# 5 0.0000 0.0000 0.0000 0.0000 29.1586 0.0000
# 6 0.0000 0.0000 0.0000 0.0000 0.0000 87.0535
#
#
#
# Elastic Compliance Matrix: (Units=1/GPa)
#
#
# Indices 1 2 3 4 5 6 
#
# 1 0.013575 0.004154 -0.017296 0.000000 0.000000 0.000000
# 2 0.004154 0.031188 -0.024135 0.000000 0.000000 0.000000
# 3 -0.017296 -0.024135 0.048152 0.000000 0.000000 0.000000
# 4 0.000000 0.000000 0.000000 0.091402 0.000000 0.000000
# 5 0.000000 0.000000 0.000000 0.000000 0.034295 0.000000
# 6 0.000000 0.000000 0.000000 0.000000 0.000000 0.011487
#
#
# Mechanical properties :
#
#
# Convention : Reuss Voigt Hill
#
# Bulk Modulus (GPa) = 54.46185 67.29455 60.87820
# Shear Modulus (GPa) = 16.08884 34.27323 25.18103
#
# Velocity S-wave (km/s) = 2.96946 4.33404 3.71494
# Velocity P-wave (km/s) = 6.45023 7.86937 7.19487
#
# Compressibility (1/GPa) = 0.01836148
#
# Stress axis : x y z
#
# Youngs Moduli (GPa) = 73.66358 32.06334 20.76752
#
# Poissons Ratio (x) = -0.13318 0.35919
# Poissons Ratio (y) = -0.30597 0.50122
# Poissons Ratio (z) = 1.27406 0.77385
#
# Static dielectric constant tensor:
#      x y z
#    x 1.624590 0.000000 0.000000 
#    y 0.000000 1.623820 0.000000 
#    z 0.000000 0.000000 1.613550 
# 
# From -- ./inp_files/69269.got.cif
#   From: 2010.05.17/outbox.cif.g08.bks.cpg/sg63_35_cif.got.tgz:69269.got - 2010.06.03 15:47:04.
