data_PCOD9473732
_publ_section_title
;
Structure prediction by ZEFSAII (Michael W. Deem and Ramdas Pophale) SiO2 
 PCOD9473732
Probable space group: C M C M
;
_chemical_formula_sum "Si O2"
_cell_formula_units_Z 48
_cell_length_a 5.697931
_cell_length_b 13.780215
_cell_length_c 25.199000
_cell_angle_alpha 90.000000
_cell_angle_beta 90.000000
_cell_angle_gamma 90.000000
_cell_volume 1978.593080
_symmetry_space_group_name_H-M "C M C M"
_symmetry_group_IT_number 63
_symmetry_cell_setting 'orthorhombic'
loop_
_space_group_symop_operation_xyz
x,y,z
-x,-y,1/2+z
x,-y,-z
-x,y,1/2-z
-x,-y,-z
x,y,1/2-z
-x,y,z
x,-y,1/2+z
1/2+x,1/2+y,z
1/2-x,1/2-y,1/2+z
1/2+x,1/2-y,-z
1/2-x,1/2+y,1/2-z
1/2-x,1/2-y,-z
1/2+x,1/2+y,1/2-z
1/2-x,1/2+y,z
1/2+x,1/2-y,1/2+z
loop_
_atom_site_type_symbol
_atom_site_label
_atom_site_fract_x
_atom_site_fract_y
_atom_site_fract_z
Si Si1 0.500000 0.833933 0.398942
Si Si2 0.000000 0.165086 0.250000
Si Si3 0.000000 0.662928 0.250000
Si Si4 0.500000 0.040331 0.358640
Si Si5 0.748697 0.883373 0.501112
Si Si6 0.000000 0.114151 0.366054
O O1 0.716452 0.848994 0.440072
O O2 0.500000 0.730183 0.372247
O O3 0.500000 0.924018 0.358827
O O4 0.251520 0.218888 0.250000
O O5 0.000000 0.098990 0.197576
O O6 0.000000 0.596209 0.197407
O O7 0.750838 0.070656 0.385188
O O8 0.500000 0.851172 0.525564
O O9 0.000000 0.850136 0.522443
O O10 0.749378 0.000000 0.500000
#
# Coordination Sequence:
#
# PCOD9473732 Si02
#       6
#     8   4   4   8  16   8
#     4  10  21  33  60  78 108 134 180 219 261 302
#     4   8  16  35  50  69 108 140 168 211 260 307
#     4   8  16  35  50  69 108 140 168 211 260 307
#     4  10  22  35  54  80 107 140 176 217 261 309
#     4   8  16  30  51  74 101 139 168 203 266 313
#     4  10  22  35  54  80 107 140 176 217 261 309
#
# _framework density 24.259661000000001
#
# number of rings (size 3 to 8) (size 9 to 14) (size 15 to 20)
#    1.000    2.000    0.000    0.000    4.667    0.667 
#    0.000    0.000    0.000   20.000    0.000    0.000 
#    0.000    0.000    0.000    0.000    0.000    0.000 
#
# Total GULP energy -133788.963338 kJ/mol
# GULP energy per Si atom -5574.540139 kJ/mol
# Density = 2.420445 g / cm^3
# Si number density = 24.259661 Si / 1000 Ang^3
#
#
#
# Elastic Constant Matrix: (Units=GPa)
#
#
# Indices 1 2 3 4 5 6 
#
# 1 269.4819 37.2534 25.5636 0.0000 0.0000 0.0000
# 2 37.2534 156.7720 14.6103 0.0000 0.0000 0.0000
# 3 25.5636 14.6103 77.3268 0.0000 0.0000 0.0000
# 4 0.0000 0.0000 0.0000 5.4952 0.0000 0.0000
# 5 0.0000 0.0000 0.0000 0.0000 30.9555 0.0000
# 6 0.0000 0.0000 0.0000 0.0000 0.0000 -1.9115
#
#
#
# Elastic Compliance Matrix: (Units=1/GPa)
#
#
# Indices 1 2 3 4 5 6 
#
# 1 0.003934 -0.000828 -0.001144 0.000000 0.000000 0.000000
# 2 -0.000828 0.006667 -0.000986 0.000000 0.000000 0.000000
# 3 -0.001144 -0.000986 0.013497 0.000000 0.000000 0.000000
# 4 0.000000 0.000000 0.000000 0.181976 0.000000 0.000000
# 5 0.000000 0.000000 0.000000 0.000000 0.032304 0.000000
# 6 0.000000 0.000000 0.000000 0.000000 0.000000 -0.523161
#
#
# Mechanical properties :
#
#
# Convention : Reuss Voigt Hill
#
# Bulk Modulus (GPa) = 55.00090 73.15949 64.08019
# Shear Modulus (GPa) = -18.32805 35.31807 8.49501
#
# Velocity S-wave (km/s) = -2.75161 3.81968 1.87331
# Velocity P-wave (km/s) = 3.55329 7.04809 5.58128
#
# Compressibility (1/GPa) = 0.01818152
#
# Stress axis : x y z
#
# Youngs Moduli (GPa) = 254.20487 149.98404 74.09265
#
# Poissons Ratio (x) = 0.12421 0.08476
# Poissons Ratio (y) = 0.21053 0.07305
# Poissons Ratio (z) = 0.29081 0.14788
#
# Static dielectric constant tensor:
#      x y z
#    x 2.035930 0.000000 0.000000 
#    y 0.000000 1.838340 0.000000 
#    z 0.000000 0.000000 1.982280 
# 
# From -- ./inp_files/71164.got.cif
#   From: 2010.05.17/outbox.cif.g08.bks.cpg/sg63_36_cif.got.tgz:71164.got - 2010.06.03 15:47:04.
