data_PCOD9473103
_publ_section_title
;
Structure prediction by ZEFSAII (Michael W. Deem and Ramdas Pophale) SiO2 
 PCOD9473103
Probable space group: C M C M
;
_chemical_formula_sum "Si O2"
_cell_formula_units_Z 96
_cell_length_a 12.695408
_cell_length_b 19.450171
_cell_length_c 21.528962
_cell_angle_alpha 90.000000
_cell_angle_beta 90.000000
_cell_angle_gamma 90.000000
_cell_volume 5316.100440
_symmetry_space_group_name_H-M "C M C M"
_symmetry_group_IT_number 63
_symmetry_cell_setting 'orthorhombic'
loop_
_space_group_symop_operation_xyz
x,y,z
-x,-y,1/2+z
x,-y,-z
-x,y,1/2-z
-x,-y,-z
x,y,1/2-z
-x,y,z
x,-y,1/2+z
1/2+x,1/2+y,z
1/2-x,1/2-y,1/2+z
1/2+x,1/2-y,-z
1/2-x,1/2+y,1/2-z
1/2-x,1/2-y,-z
1/2+x,1/2+y,1/2-z
1/2-x,1/2+y,z
1/2+x,1/2-y,1/2+z
loop_
_atom_site_type_symbol
_atom_site_label
_atom_site_fract_x
_atom_site_fract_y
_atom_site_fract_z
Si Si1 0.500000 0.036935 0.101170
Si Si2 0.124319 0.750077 0.679248
Si Si3 0.000000 0.607091 0.524833
Si Si4 0.805103 0.492271 0.322437
Si Si5 0.378372 0.405736 0.855197
Si Si6 0.290265 0.142285 0.908610
Si Si7 0.124160 0.080131 0.500181
O O1 0.602265 0.035032 0.144235
O O2 0.500000 0.966136 0.061186
O O3 0.500000 0.094808 0.048633
O O4 0.141234 0.726738 0.750000
O O5 0.139294 0.831804 0.675411
O O6 0.200348 0.710854 0.631985
O O7 0.000000 0.736271 0.664019
O O8 0.106717 0.642189 0.547565
O O9 0.827637 0.480847 0.250000
O O10 0.698941 0.535927 0.330799
O O11 0.798178 0.420845 0.359811
O O12 0.500000 0.425909 0.845141
O O13 0.363434 0.396377 0.929228
O O14 0.191128 0.125263 0.952122
O O15 0.000000 0.080612 0.516211
O O16 0.160727 0.000000 0.500000
#
# Coordination Sequence:
#
# PCOD9473103 Si02
#       7
#     8  16   8  16  16  16  16
#     4   9  19  32  48  76 111 143 173 223 280 334
#     4  10  21  38  57  82 118 152 185 234 287 337
#     4   9  18  30  52  80 108 138 180 224 284 334
#     4  11  21  33  53  82 111 146 190 232 276 336
#     4  10  21  38  60  84 109 148 194 235 283 333
#     4  11  20  34  57  85 113 146 184 237 289 337
#     4  10  20  36  58  83 116 148 186 238 291 338
#
# _framework density 18.058350000000001
#
# number of rings (size 3 to 8) (size 9 to 14) (size 15 to 20)
#    0.000    1.833    2.500    2.250    2.333    1.667 
#    0.000    0.000    1.833    1.500    0.000    0.000 
#    0.000    0.000    0.000    0.000    0.000    0.000 
#
# Total GULP energy -267912.743241 kJ/mol
# GULP energy per Si atom -5581.515484 kJ/mol
# Density = 1.801725 g / cm^3
# Si number density = 18.058350 Si / 1000 Ang^3
#
#
#
# Elastic Constant Matrix: (Units=GPa)
#
#
# Indices 1 2 3 4 5 6 
#
# 1 63.4153 15.2704 27.8926 0.0000 0.0000 0.0000
# 2 15.2704 27.1062 7.5025 0.0000 0.0000 0.0000
# 3 27.8926 7.5025 81.0056 0.0000 0.0000 0.0000
# 4 0.0000 0.0000 0.0000 29.5898 0.0000 0.0000
# 5 0.0000 0.0000 0.0000 0.0000 2.2663 0.0000
# 6 0.0000 0.0000 0.0000 0.0000 0.0000 15.1928
#
#
#
# Elastic Compliance Matrix: (Units=1/GPa)
#
#
# Indices 1 2 3 4 5 6 
#
# 1 0.020957 -0.010067 -0.006284 0.000000 0.000000 0.000000
# 2 -0.010067 0.042698 -0.000488 0.000000 0.000000 0.000000
# 3 -0.006284 -0.000488 0.014554 0.000000 0.000000 0.000000
# 4 0.000000 0.000000 0.000000 0.033795 0.000000 0.000000
# 5 0.000000 0.000000 0.000000 0.000000 0.441248 0.000000
# 6 0.000000 0.000000 0.000000 0.000000 0.000000 0.065820
#
#
# Mechanical properties :
#
#
# Convention : Reuss Voigt Hill
#
# Bulk Modulus (GPa) = 22.45618 30.31755 26.38687
# Shear Modulus (GPa) = 7.48958 17.46724 12.47841
#
# Velocity S-wave (km/s) = 2.03873 3.11346 2.63155
# Velocity P-wave (km/s) = 4.24314 5.45436 4.88642
#
# Compressibility (1/GPa) = 0.04453116
#
# Stress axis : x y z
#
# Youngs Moduli (GPa) = 47.71671 23.42012 68.71103
#
# Poissons Ratio (x) = 0.23577 0.43176
# Poissons Ratio (y) = 0.48036 0.03355
# Poissons Ratio (z) = 0.29984 0.01143
#
# Static dielectric constant tensor:
#      x y z
#    x 1.614690 0.000000 0.000000 
#    y 0.000000 1.610840 0.000000 
#    z 0.000000 0.000000 1.622900 
# 
# From -- ./inp_files/52922.got.cif
#   From: 2010.05.17/outbox.cif.g08.bks.cpg/sg63_27_cif.got.tgz:52922.got - 2010.06.03 15:47:04.
