data_PCOD9473240
_publ_section_title
;
Structure prediction by ZEFSAII (Michael W. Deem and Ramdas Pophale) SiO2 
 PCOD9473240
Probable space group: C M C M
;
_chemical_formula_sum "Si O2"
_cell_formula_units_Z 116
_cell_length_a 31.484851
_cell_length_b 12.454288
_cell_length_c 14.084152
_cell_angle_alpha 90.000000
_cell_angle_beta 90.000000
_cell_angle_gamma 90.000000
_cell_volume 5522.697428
_symmetry_space_group_name_H-M "C M C M"
_symmetry_group_IT_number 63
_symmetry_cell_setting 'orthorhombic'
loop_
_space_group_symop_operation_xyz
x,y,z
-x,-y,1/2+z
x,-y,-z
-x,y,1/2-z
-x,-y,-z
x,y,1/2-z
-x,y,z
x,-y,1/2+z
1/2+x,1/2+y,z
1/2-x,1/2-y,1/2+z
1/2+x,1/2-y,-z
1/2-x,1/2+y,1/2-z
1/2-x,1/2-y,-z
1/2+x,1/2+y,1/2-z
1/2-x,1/2+y,z
1/2+x,1/2-y,1/2+z
loop_
_atom_site_type_symbol
_atom_site_label
_atom_site_fract_x
_atom_site_fract_y
_atom_site_fract_z
Si Si1 0.299713 0.585306 0.134828
Si Si2 0.500000 0.500000 0.000000
Si Si3 0.376950 0.741516 0.363657
Si Si4 0.340699 0.359553 0.364748
Si Si5 0.929635 0.177961 0.530234
Si Si6 0.205820 0.358260 0.633790
Si Si7 0.546606 0.081668 0.410777
Si Si8 0.866245 0.518126 0.858385
O O1 0.296657 0.581386 0.250000
O O2 0.334172 0.676746 0.113839
O O3 0.318312 0.470227 0.106075
O O4 0.252791 0.613108 0.099113
O O5 0.536868 0.416254 0.038423
O O6 0.383871 0.739322 0.250000
O O7 0.415317 0.688072 0.420299
O O8 0.372937 0.863800 0.400181
O O9 0.345457 0.359653 0.250000
O O10 0.386765 0.345594 0.411093
O O11 0.310952 0.259388 0.391520
O O12 0.947635 0.294327 0.560274
O O13 0.206446 0.360362 0.750000
O O14 0.170826 0.444376 0.601056
O O15 0.500000 0.069523 0.364314
O O16 0.546086 0.000000 0.500000
O O17 0.589332 0.045222 0.358093
O O18 0.853307 0.540052 0.750000
#
# Coordination Sequence:
#
# PCOD9473240 Si02
#       8
#    16   4  16  16  16  16  16  16
#     4   9  19  35  57  86 122 167 208 245 297 362
#     4  12  28  44  68  96 116 170 208 250 322 372
#     4  10  22  40  64  89 121 164 205 250 305 364
#     4  10  21  38  62  90 124 167 207 254 313 366
#     4  12  23  43  66  88 126 159 207 259 306 373
#     4   9  18  32  57  89 121 159 202 246 298 358
#     4  11  22  39  62  85 115 156 193 245 312 368
#     4  10  20  36  61  92 121 154 201 251 304 362
#
# _framework density 21.004228999999999
#
# number of rings (size 3 to 8) (size 9 to 14) (size 15 to 20)
#    0.000    1.793    3.448    0.828    1.931    0.276 
#    0.000    2.069    6.069    0.000    0.000    0.000 
#    0.000    0.000    0.000    0.000    0.000    0.000 
#
# Total GULP energy -323509.841043 kJ/mol
# GULP energy per Si atom -5577.755880 kJ/mol
# Density = 2.095642 g / cm^3
# Si number density = 21.004229 Si / 1000 Ang^3
#
#
#
# Elastic Constant Matrix: (Units=GPa)
#
#
# Indices 1 2 3 4 5 6 
#
# 1 139.8055 70.9792 6.3169 0.0000 0.0000 0.0000
# 2 70.9792 143.1354 11.2597 0.0000 0.0000 0.0000
# 3 6.3169 11.2597 57.3349 0.0000 0.0000 0.0000
# 4 0.0000 0.0000 0.0000 17.6324 0.0000 0.0000
# 5 0.0000 0.0000 0.0000 0.0000 11.2340 0.0000
# 6 0.0000 0.0000 0.0000 0.0000 0.0000 37.9450
#
#
#
# Elastic Compliance Matrix: (Units=1/GPa)
#
#
# Indices 1 2 3 4 5 6 
#
# 1 0.009560 -0.004731 -0.000124 0.000000 0.000000 0.000000
# 2 -0.004731 0.009437 -0.001332 0.000000 0.000000 0.000000
# 3 -0.000124 -0.001332 0.017717 0.000000 0.000000 0.000000
# 4 0.000000 0.000000 0.000000 0.056714 0.000000 0.000000
# 5 0.000000 0.000000 0.000000 0.000000 0.089015 0.000000
# 6 0.000000 0.000000 0.000000 0.000000 0.000000 0.026354
#
#
# Mechanical properties :
#
#
# Convention : Reuss Voigt Hill
#
# Bulk Modulus (GPa) = 41.08540 57.48749 49.28645
# Shear Modulus (GPa) = 21.80690 30.14362 25.97526
#
# Velocity S-wave (km/s) = 3.22563 3.79241 3.52044
# Velocity P-wave (km/s) = 5.78584 6.82681 6.32777
#
# Compressibility (1/GPa) = 0.02433955
#
# Stress axis : x y z
#
# Youngs Moduli (GPa) = 104.59819 105.96261 56.44397
#
# Poissons Ratio (x) = 0.50132 0.00701
# Poissons Ratio (y) = 0.49487 0.07519
# Poissons Ratio (z) = 0.01299 0.14115
#
# Static dielectric constant tensor:
#      x y z
#    x 1.713070 0.000000 0.000000 
#    y 0.000000 1.742020 0.000000 
#    z 0.000000 0.000000 1.808580 
# 
# From -- ./inp_files/49622.got.cif
#   From: 2010.05.17/outbox.cif.g08.bks.cpg/sg63_25_cif.got.tgz:49622.got - 2010.06.03 15:47:04.
