data_PCOD9473183
_publ_section_title
;
Structure prediction by ZEFSAII (Michael W. Deem and Ramdas Pophale) SiO2 
 PCOD9473183
Probable space group: C M C M
;
_chemical_formula_sum "Si O2"
_cell_formula_units_Z 72
_cell_length_a 10.914408
_cell_length_b 14.654055
_cell_length_c 24.394773
_cell_angle_alpha 90.000000
_cell_angle_beta 90.000000
_cell_angle_gamma 90.000000
_cell_volume 3901.708169
_symmetry_space_group_name_H-M "C M C M"
_symmetry_group_IT_number 63
_symmetry_cell_setting 'orthorhombic'
loop_
_space_group_symop_operation_xyz
x,y,z
-x,-y,1/2+z
x,-y,-z
-x,y,1/2-z
-x,-y,-z
x,y,1/2-z
-x,y,z
x,-y,1/2+z
1/2+x,1/2+y,z
1/2-x,1/2-y,1/2+z
1/2+x,1/2-y,-z
1/2-x,1/2+y,1/2-z
1/2-x,1/2-y,-z
1/2+x,1/2+y,1/2-z
1/2-x,1/2+y,z
1/2+x,1/2-y,1/2+z
loop_
_atom_site_type_symbol
_atom_site_label
_atom_site_fract_x
_atom_site_fract_y
_atom_site_fract_z
Si Si1 0.000000 0.968876 0.936804
Si Si2 0.751412 0.515853 0.879034
Si Si3 0.708514 0.806246 0.313025
Si Si4 0.500000 0.744123 0.101712
Si Si5 0.500000 0.938804 0.445461
Si Si6 0.362155 0.863185 0.813146
O O1 0.876300 0.011094 0.910758
O O2 0.000000 0.858215 0.924070
O O3 0.000000 0.000000 0.000000
O O4 0.756888 0.593539 0.832835
O O5 0.872826 0.534657 0.915275
O O6 0.770539 0.419505 0.849940
O O7 0.661889 0.805469 0.250000
O O8 0.613712 0.764426 0.357163
O O9 0.827154 0.742134 0.314739
O O10 0.500000 0.826896 0.056511
O O11 0.500000 0.000000 0.500000
O O12 0.352364 0.893316 0.750000
O O13 0.500000 0.880044 0.831882
#
# Coordination Sequence:
#
# PCOD9473183 Si02
#       6
#     8  16  16   8   8  16
#     4  12  26  45  61  91 128 171 219 268 320 359
#     4  11  22  41  63  89 127 159 209 259 310 369
#     4  10  21  38  62  94 126 161 198 248 316 390
#     4  10  21  42  66  88 124 162 209 262 314 377
#     4  10  22  43  65  89 112 159 217 262 305 368
#     4  10  20  36  59  89 124 161 200 247 309 381
#
# _framework density 18.453455999999999
#
# number of rings (size 3 to 8) (size 9 to 14) (size 15 to 20)
#    0.000    1.556    3.333    1.667    1.556    0.000 
#    4.000    5.000    0.000    0.000    0.000    0.000 
#    0.000    0.000    0.000    0.000    0.000    0.000 
#
# Total GULP energy -200580.184909 kJ/mol
# GULP energy per Si atom -5571.671803 kJ/mol
# Density = 1.841145 g / cm^3
# Si number density = 18.453456 Si / 1000 Ang^3
#
#
#
# Elastic Constant Matrix: (Units=GPa)
#
#
# Indices 1 2 3 4 5 6 
#
# 1 110.8687 18.5370 36.4402 0.0000 0.0000 0.0000
# 2 18.5370 102.3994 47.0369 0.0000 0.0000 0.0000
# 3 36.4402 47.0369 85.9090 0.0000 0.0000 0.0000
# 4 0.0000 0.0000 0.0000 31.7351 0.0000 0.0000
# 5 0.0000 0.0000 0.0000 0.0000 23.1520 0.0000
# 6 0.0000 0.0000 0.0000 0.0000 0.0000 20.9056
#
#
#
# Elastic Compliance Matrix: (Units=1/GPa)
#
#
# Indices 1 2 3 4 5 6 
#
# 1 0.010484 0.000194 -0.004553 0.000000 0.000000 0.000000
# 2 0.000194 0.013051 -0.007228 0.000000 0.000000 0.000000
# 3 -0.004553 -0.007228 0.017529 0.000000 0.000000 0.000000
# 4 0.000000 0.000000 0.000000 0.031511 0.000000 0.000000
# 5 0.000000 0.000000 0.000000 0.000000 0.043193 0.000000
# 6 0.000000 0.000000 0.000000 0.000000 0.000000 0.047834
#
#
# Mechanical properties :
#
#
# Convention : Reuss Voigt Hill
#
# Bulk Modulus (GPa) = 55.89966 55.91171 55.90568
# Shear Modulus (GPa) = 25.94200 28.30273 27.12237
#
# Velocity S-wave (km/s) = 3.75348 3.92054 3.83792
# Velocity P-wave (km/s) = 7.01019 7.13153 7.07112
#
# Compressibility (1/GPa) = 0.01788920
#
# Stress axis : x y z
#
# Youngs Moduli (GPa) = 95.38565 76.62479 57.04942
#
# Poissons Ratio (x) = -0.01483 0.25974
# Poissons Ratio (y) = -0.01846 0.41233
# Poissons Ratio (z) = 0.43428 0.55381
#
# Static dielectric constant tensor:
#      x y z
#    x 1.637790 0.000000 0.000000 
#    y 0.000000 1.621440 0.000000 
#    z 0.000000 0.000000 1.734850 
# 
# From -- ./inp_files/61023.got.cif
#   From: 2010.05.17/outbox.cif.g08.bks.cpg/sg63_31_cif.got.tgz:61023.got - 2010.06.03 15:47:04.
