data_PCOD9473094
_publ_section_title
;
Structure prediction by ZEFSAII (Michael W. Deem and Ramdas Pophale) SiO2 
 PCOD9473094
Probable space group: C M C M
;
_chemical_formula_sum "Si O2"
_cell_formula_units_Z 80
_cell_length_a 7.650474
_cell_length_b 24.323062
_cell_length_c 19.652117
_cell_angle_alpha 90.000000
_cell_angle_beta 90.000000
_cell_angle_gamma 90.000000
_cell_volume 3656.923973
_symmetry_space_group_name_H-M "C M C M"
_symmetry_group_IT_number 63
_symmetry_cell_setting 'orthorhombic'
loop_
_space_group_symop_operation_xyz
x,y,z
-x,-y,1/2+z
x,-y,-z
-x,y,1/2-z
-x,-y,-z
x,y,1/2-z
-x,y,z
x,-y,1/2+z
1/2+x,1/2+y,z
1/2-x,1/2-y,1/2+z
1/2+x,1/2-y,-z
1/2-x,1/2+y,1/2-z
1/2-x,1/2-y,-z
1/2+x,1/2+y,1/2-z
1/2-x,1/2+y,z
1/2+x,1/2-y,1/2+z
loop_
_atom_site_type_symbol
_atom_site_label
_atom_site_fract_x
_atom_site_fract_y
_atom_site_fract_z
Si Si1 0.711766 0.037602 0.935730
Si Si2 0.791851 0.165563 0.107388
Si Si3 0.295700 0.336257 0.044456
Si Si4 0.204574 0.774610 0.324632
Si Si5 0.710691 0.951182 0.672866
O O1 0.500000 0.041502 0.935715
O O2 0.782718 0.098690 0.942899
O O3 0.769544 0.004741 0.868689
O O4 0.761992 0.000000 0.000000
O O5 0.715849 0.210016 0.159070
O O6 0.755957 0.103788 0.131584
O O7 0.000000 0.173043 0.106657
O O8 0.721399 0.175197 0.030761
O O9 0.500000 0.320531 0.040802
O O10 0.217111 0.305025 0.109440
O O11 0.280764 0.786545 0.250000
O O12 0.000000 0.790243 0.321785
O O13 0.776957 0.948572 0.750000
O O14 0.500000 0.953619 0.675233
#
# Coordination Sequence:
#
# PCOD9473094 Si02
#       5
#    16  16  16  16  16
#     4  10  20  36  58  83 110 145 187 228 271 327
#     4  11  22  36  57  85 114 144 185 234 279 328
#     4  10  22  38  58  84 113 147 186 229 279 333
#     4  10  22  40  59  80 111 150 188 227 278 337
#     4  10  21  37  57  82 113 149 187 228 279 334
#
# _framework density 21.876308999999999
#
# number of rings (size 3 to 8) (size 9 to 14) (size 15 to 20)
#    0.000    1.800    2.000    1.800    0.000    6.800 
#    0.000    0.000    0.000    0.000    0.000    0.000 
#    0.000    0.000    0.000    0.000    0.000    0.000 
#
# Total GULP energy -223542.318016 kJ/mol
# GULP energy per Si atom -5588.557950 kJ/mol
# Density = 2.182652 g / cm^3
# Si number density = 21.876309 Si / 1000 Ang^3
#
#
#
# Elastic Constant Matrix: (Units=GPa)
#
#
# Indices 1 2 3 4 5 6 
#
# 1 45.2920 -13.2883 11.1840 0.0000 0.0000 0.0000
# 2 -13.2883 36.3119 9.9644 0.0000 0.0000 0.0000
# 3 11.1840 9.9644 167.6757 0.0000 0.0000 0.0000
# 4 0.0000 0.0000 0.0000 27.7542 0.0000 0.0000
# 5 0.0000 0.0000 0.0000 0.0000 8.2919 0.0000
# 6 0.0000 0.0000 0.0000 0.0000 0.0000 -31.9059
#
#
#
# Elastic Compliance Matrix: (Units=1/GPa)
#
#
# Indices 1 2 3 4 5 6 
#
# 1 0.025578 0.009991 -0.002300 0.000000 0.000000 0.000000
# 2 0.009991 0.031899 -0.002562 0.000000 0.000000 0.000000
# 3 -0.002300 -0.002562 0.006270 0.000000 0.000000 0.000000
# 4 0.000000 0.000000 0.000000 0.036031 0.000000 0.000000
# 5 0.000000 0.000000 0.000000 0.000000 0.120599 0.000000
# 6 0.000000 0.000000 0.000000 0.000000 0.000000 -0.031342
#
#
# Mechanical properties :
#
#
# Convention : Reuss Voigt Hill
#
# Bulk Modulus (GPa) = 13.51249 29.44441 21.47845
# Shear Modulus (GPa) = 24.57687 16.92267 20.74977
#
# Velocity S-wave (km/s) = 3.35542 2.78431 3.08312
# Velocity P-wave (km/s) = 4.60456 4.88111 4.74485
#
# Compressibility (1/GPa) = 0.07400559
#
# Stress axis : x y z
#
# Youngs Moduli (GPa) = 39.09571 31.34929 159.50109
#
# Poissons Ratio (x) = -0.31323 0.36683
# Poissons Ratio (y) = -0.39062 0.40865
# Poissons Ratio (z) = 0.08991 0.08032
#
# Static dielectric constant tensor:
#      x y z
#    x 1.833580 0.000000 0.000000 
#    y 0.000000 1.735970 0.000000 
#    z 0.000000 0.000000 1.832700 
# 
# From -- ./inp_files/40476.got.cif
#   From: 2010.05.17/outbox.cif.g08.bks.cpg/sg63_21_cif.got.tgz:40476.got - 2010.06.03 15:47:04.
