data_PCOD9473712
_publ_section_title
;
Structure prediction by ZEFSAII (Michael W. Deem and Ramdas Pophale) SiO2 
 PCOD9473712
Probable space group: C M C M
;
_chemical_formula_sum "Si O2"
_cell_formula_units_Z 96
_cell_length_a 7.239312
_cell_length_b 24.827298
_cell_length_c 21.561224
_cell_angle_alpha 90.000000
_cell_angle_beta 90.000000
_cell_angle_gamma 90.000000
_cell_volume 3875.253907
_symmetry_space_group_name_H-M "C M C M"
_symmetry_group_IT_number 63
_symmetry_cell_setting 'orthorhombic'
loop_
_space_group_symop_operation_xyz
x,y,z
-x,-y,1/2+z
x,-y,-z
-x,y,1/2-z
-x,-y,-z
x,y,1/2-z
-x,y,z
x,-y,1/2+z
1/2+x,1/2+y,z
1/2-x,1/2-y,1/2+z
1/2+x,1/2-y,-z
1/2-x,1/2+y,1/2-z
1/2-x,1/2-y,-z
1/2+x,1/2+y,1/2-z
1/2-x,1/2+y,z
1/2+x,1/2-y,1/2+z
loop_
_atom_site_type_symbol
_atom_site_label
_atom_site_fract_x
_atom_site_fract_y
_atom_site_fract_z
Si Si1 0.722757 0.348969 0.321623
Si Si2 0.724360 0.950168 0.750000
Si Si3 0.276117 0.826092 0.750000
Si Si4 0.286972 0.074971 0.570980
Si Si5 0.724278 0.857398 0.957761
Si Si6 0.274989 0.964745 0.885877
Si Si7 0.724546 0.236528 0.374343
O O1 0.784685 0.346760 0.250000
O O2 0.500000 0.347534 0.319963
O O3 0.779596 0.401201 0.359981
O O4 0.786266 0.297288 0.361717
O O5 0.500000 0.951894 0.750000
O O6 0.780217 0.887712 0.750000
O O7 0.785140 0.973886 0.684757
O O8 0.500000 0.825726 0.750000
O O9 0.220965 0.795799 0.812288
O O10 0.500000 0.068676 0.551733
O O11 0.210171 0.119449 0.523661
O O12 0.209939 0.014744 0.572864
O O13 0.500000 0.853791 0.958508
O O14 0.787456 0.799421 0.932599
O O15 0.775000 0.905637 0.910317
O O16 0.500000 0.965504 0.886623
O O17 0.500000 0.237945 0.376354
#
# Coordination Sequence:
#
# PCOD9473712 Si02
#       7
#    16   8   8  16  16  16  16
#     4  10  21  36  52  70  94 128 169 209 245 282
#     4   9  14  20  37  68  97 123 157 202 247 282
#     4   9  12  20  39  66  95 119 153 206 255 280
#     4  10  21  33  48  73 106 137 160 188 239 302
#     4   9  16  28  47  72 100 129 160 201 248 290
#     4   9  16  26  43  69 103 133 159 195 243 292
#     4   9  15  26  47  70  93 122 162 209 249 281
#
# _framework density 24.772570999999999
#
# number of rings (size 3 to 8) (size 9 to 14) (size 15 to 20)
#    0.000    2.667    2.500    0.500    1.167    3.000 
#    0.000    0.000    0.000    2.000    0.000    0.000 
#    0.000    1.333    0.000    0.000    0.000    0.000 
#
# Total GULP energy -268226.125218 kJ/mol
# GULP energy per Si atom -5588.044275 kJ/mol
# Density = 2.471619 g / cm^3
# Si number density = 24.772571 Si / 1000 Ang^3
#
#
#
# Elastic Constant Matrix: (Units=GPa)
#
#
# Indices 1 2 3 4 5 6 
#
# 1 115.7558 -11.8323 -7.7476 0.0000 0.0000 0.0000
# 2 -11.8323 72.8127 18.7192 0.0000 0.0000 0.0000
# 3 -7.7476 18.7192 93.0848 0.0000 0.0000 0.0000
# 4 0.0000 0.0000 0.0000 -7.3711 0.0000 0.0000
# 5 0.0000 0.0000 0.0000 0.0000 -16.9355 0.0000
# 6 0.0000 0.0000 0.0000 0.0000 0.0000 -11.5853
#
#
#
# Elastic Compliance Matrix: (Units=1/GPa)
#
#
# Indices 1 2 3 4 5 6 
#
# 1 0.008804 0.001310 0.000469 0.000000 0.000000 0.000000
# 2 0.001310 0.014678 -0.002843 0.000000 0.000000 0.000000
# 3 0.000469 -0.002843 0.011354 0.000000 0.000000 0.000000
# 4 0.000000 0.000000 0.000000 -0.135665 0.000000 0.000000
# 5 0.000000 0.000000 0.000000 0.000000 -0.059048 0.000000
# 6 0.000000 0.000000 0.000000 0.000000 0.000000 -0.086317
#
#
# Mechanical properties :
#
#
# Convention : Reuss Voigt Hill
#
# Bulk Modulus (GPa) = 30.57271 31.10357 30.83814
# Shear Modulus (GPa) = -21.44407 11.65590 -4.89408
#
# Velocity S-wave (km/s) = -2.94536 2.17149 -1.40709
# Velocity P-wave (km/s) = 0.89513 4.34397 3.13619
#
# Compressibility (1/GPa) = 0.03270891
#
# Stress axis : x y z
#
# Youngs Moduli (GPa) = 113.58218 68.13128 88.07778
#
# Poissons Ratio (x) = -0.08926 -0.04134
# Poissons Ratio (y) = -0.14880 0.25037
# Poissons Ratio (z) = -0.05331 0.19367
#
# Static dielectric constant tensor:
#      x y z
#    x 2.016720 0.000000 0.000000 
#    y 0.000000 1.905770 0.000000 
#    z 0.000000 0.000000 1.943190 
# 
# From -- ./inp_files/52929.got.cif
#   From: 2010.05.17/outbox.cif.g08.bks.cpg/sg63_27_cif.got.tgz:52929.got - 2010.06.03 15:47:04.
