data_PCOD9473000
_publ_section_title
;
Structure prediction by ZEFSAII (Michael W. Deem and Ramdas Pophale) SiO2 
 PCOD9473000
Probable space group: C M C M
;
_chemical_formula_sum "Si O2"
_cell_formula_units_Z 96
_cell_length_a 23.697607
_cell_length_b 24.733176
_cell_length_c 8.612503
_cell_angle_alpha 90.000000
_cell_angle_beta 90.000000
_cell_angle_gamma 90.000000
_cell_volume 5047.935150
_symmetry_space_group_name_H-M "C M C M"
_symmetry_group_IT_number 63
_symmetry_cell_setting 'orthorhombic'
loop_
_space_group_symop_operation_xyz
x,y,z
-x,-y,1/2+z
x,-y,-z
-x,y,1/2-z
-x,-y,-z
x,y,1/2-z
-x,y,z
x,-y,1/2+z
1/2+x,1/2+y,z
1/2-x,1/2-y,1/2+z
1/2+x,1/2-y,-z
1/2-x,1/2+y,1/2-z
1/2-x,1/2-y,-z
1/2+x,1/2+y,1/2-z
1/2-x,1/2+y,z
1/2+x,1/2-y,1/2+z
loop_
_atom_site_type_symbol
_atom_site_label
_atom_site_fract_x
_atom_site_fract_y
_atom_site_fract_z
Si Si1 0.865135 0.160477 0.063772
Si Si2 0.334009 0.942648 0.564459
Si Si3 0.565041 0.121458 0.935736
Si Si4 0.627394 0.226063 0.063704
Si Si5 0.735996 0.836720 0.938158
Si Si6 0.934041 0.941192 0.063982
O O1 0.865368 0.157744 0.250000
O O2 0.800088 0.163990 0.006441
O O3 0.891051 0.217243 0.008320
O O4 0.896925 0.108133 0.999197
O O5 0.337483 0.944106 0.750000
O O6 0.394467 0.925892 0.495797
O O7 0.291946 0.894126 0.520338
O O8 0.315327 0.000000 0.500000
O O9 0.570125 0.125802 0.750000
O O10 0.500000 0.112482 0.976202
O O11 0.587879 0.176737 0.011671
O O12 0.627554 0.229697 0.250000
O O13 0.690941 0.208642 0.009571
O O14 0.737417 0.833262 0.750000
O O15 0.930974 0.942113 0.250000
O O16 0.000000 0.933497 0.018584
O O17 0.916168 0.000000 0.000000
#
# Coordination Sequence:
#
# PCOD9473000 Si02
#       6
#    16  16  16  16  16  16
#     4  11  21  35  58  86 113 142 180 220 263 320
#     4  10  20  36  56  79 109 144 183 224 270 321
#     4  10  21  37  56  79 107 141 183 229 276 322
#     4  10  20  36  56  80 112 146 181 221 269 320
#     4   8  18  35  54  79 111 145 179 221 269 317
#     4  10  22  41  61  81 108 141 178 222 271 320
#
# _framework density 19.017676999999999
#
# number of rings (size 3 to 8) (size 9 to 14) (size 15 to 20)
#    0.000    2.167    0.000    4.000    0.000    4.000 
#    0.000   10.833    0.000    0.000    0.000    0.000 
#    0.000    0.000    0.000    0.000    0.000    0.000 
#
# Total GULP energy -267990.925754 kJ/mol
# GULP energy per Si atom -5583.144287 kJ/mol
# Density = 1.897439 g / cm^3
# Si number density = 19.017677 Si / 1000 Ang^3
#
#
#
# Elastic Constant Matrix: (Units=GPa)
#
#
# Indices 1 2 3 4 5 6 
#
# 1 26.5084 8.5386 9.0882 0.0000 0.0000 0.0000
# 2 8.5386 122.9367 21.7942 0.0000 0.0000 0.0000
# 3 9.0882 21.7942 44.7741 0.0000 0.0000 0.0000
# 4 0.0000 0.0000 0.0000 36.9661 0.0000 0.0000
# 5 0.0000 0.0000 0.0000 0.0000 23.8840 0.0000
# 6 0.0000 0.0000 0.0000 0.0000 0.0000 11.6432
#
#
#
# Elastic Compliance Matrix: (Units=1/GPa)
#
#
# Indices 1 2 3 4 5 6 
#
# 1 0.040795 -0.001494 -0.007553 0.000000 0.000000 0.000000
# 2 -0.001494 0.008957 -0.004057 0.000000 0.000000 0.000000
# 3 -0.007553 -0.004057 0.025842 0.000000 0.000000 0.000000
# 4 0.000000 0.000000 0.000000 0.027052 0.000000 0.000000
# 5 0.000000 0.000000 0.000000 0.000000 0.041869 0.000000
# 6 0.000000 0.000000 0.000000 0.000000 0.000000 0.085887
#
#
# Mechanical properties :
#
#
# Convention : Reuss Voigt Hill
#
# Bulk Modulus (GPa) = 20.24875 30.34015 25.29445
# Shear Modulus (GPa) = 18.31016 24.81853 21.56435
#
# Velocity S-wave (km/s) = 3.10626 3.61643 3.37101
# Velocity P-wave (km/s) = 4.85135 5.78156 5.33676
#
# Compressibility (1/GPa) = 0.04938576
#
# Stress axis : x y z
#
# Youngs Moduli (GPa) = 24.51292 111.64166 38.69651
#
# Poissons Ratio (x) = 0.16684 0.29228
# Poissons Ratio (y) = 0.03663 0.15698
# Poissons Ratio (z) = 0.18515 0.45290
#
# Static dielectric constant tensor:
#      x y z
#    x 1.669390 0.000000 0.000000 
#    y 0.000000 1.628950 0.000000 
#    z 0.000000 0.000000 1.639060 
# 
# From -- ./inp_files/10409.got.cif
#   From: 2010.05.17/outbox.cif.g08.bks.cpg/sg63_6_cif.got.tgz:10409.got - 2010.06.03 15:47:04.
