data_PCOD9473645
_publ_section_title
;
Structure prediction by ZEFSAII (Michael W. Deem and Ramdas Pophale) SiO2 
 PCOD9473645
Probable space group: C M C M
;
_chemical_formula_sum "Si O2"
_cell_formula_units_Z 60
_cell_length_a 29.773491
_cell_length_b 9.485275
_cell_length_c 9.900265
_cell_angle_alpha 90.000000
_cell_angle_beta 90.000000
_cell_angle_gamma 90.000000
_cell_volume 2795.931362
_symmetry_space_group_name_H-M "C M C M"
_symmetry_group_IT_number 63
_symmetry_cell_setting 'orthorhombic'
loop_
_space_group_symop_operation_xyz
x,y,z
-x,-y,1/2+z
x,-y,-z
-x,y,1/2-z
-x,-y,-z
x,y,1/2-z
-x,y,z
x,-y,1/2+z
1/2+x,1/2+y,z
1/2-x,1/2-y,1/2+z
1/2+x,1/2-y,-z
1/2-x,1/2+y,1/2-z
1/2-x,1/2-y,-z
1/2+x,1/2+y,1/2-z
1/2-x,1/2+y,z
1/2+x,1/2-y,1/2+z
loop_
_atom_site_type_symbol
_atom_site_label
_atom_site_fract_x
_atom_site_fract_y
_atom_site_fract_z
Si Si1 0.692435 0.927303 0.250000
Si Si2 0.500000 0.777384 0.495037
Si Si3 0.631137 0.000000 0.500000
Si Si4 0.410112 0.713448 0.907680
Si Si5 0.333868 0.500000 0.000000
Si Si6 0.000000 0.495721 0.750000
Si Si7 0.723462 0.615439 0.250000
O O1 0.661640 0.934333 0.382391
O O2 0.720696 0.783898 0.250000
O O3 0.725999 0.059083 0.250000
O O4 0.545634 0.687164 0.504094
O O5 0.500000 0.873156 0.630781
O O6 0.500000 0.880293 0.367759
O O7 0.601708 0.877916 0.567361
O O8 0.418138 0.687839 0.750000
O O9 0.367049 0.623721 0.951729
O O10 0.302555 0.444077 0.880089
#
# Coordination Sequence:
#
# PCOD9473645 Si02
#       7
#     8   8   8  16   8   4   8
#     4  12  28  45  73 102 137 177 233 288 363 432
#     4  11  24  41  70 107 144 193 237 292 345 409
#     4  12  25  43  72 106 136 182 228 291 351 422
#     4  12  25  45  72 104 146 186 240 291 348 415
#     4  12  27  47  72  98 148 188 230 293 355 422
#     4  10  20  40  64 102 142 178 236 294 342 396
#     4  12  28  48  71 105 137 181 235 292 364 425
#
# _framework density 21.459755000000001
#
# number of rings (size 3 to 8) (size 9 to 14) (size 15 to 20)
#    0.000    0.267    6.667    2.400    3.733    4.800 
#    0.000    0.000    0.000    0.000    0.000    0.000 
#    0.000    0.000    0.000    0.000    0.000    0.000 
#
# Total GULP energy -167462.211938 kJ/mol
# GULP energy per Si atom -5582.073731 kJ/mol
# Density = 2.141091 g / cm^3
# Si number density = 21.459755 Si / 1000 Ang^3
#
#
#
# Elastic Constant Matrix: (Units=GPa)
#
#
# Indices 1 2 3 4 5 6 
#
# 1 61.2479 -16.4973 -7.8308 0.0000 0.0000 0.0000
# 2 -16.4973 50.6453 -11.9607 0.0000 0.0000 0.0000
# 3 -7.8308 -11.9607 123.1423 0.0000 0.0000 0.0000
# 4 0.0000 0.0000 0.0000 24.4402 0.0000 0.0000
# 5 0.0000 0.0000 0.0000 0.0000 51.2708 0.0000
# 6 0.0000 0.0000 0.0000 0.0000 0.0000 -6.8741
#
#
#
# Elastic Compliance Matrix: (Units=1/GPa)
#
#
# Indices 1 2 3 4 5 6 
#
# 1 0.018271 0.006372 0.001781 0.000000 0.000000 0.000000
# 2 0.006372 0.022431 0.002584 0.000000 0.000000 0.000000
# 3 0.001781 0.002584 0.008485 0.000000 0.000000 0.000000
# 4 0.000000 0.000000 0.000000 0.040916 0.000000 0.000000
# 5 0.000000 0.000000 0.000000 0.000000 0.019504 0.000000
# 6 0.000000 0.000000 0.000000 0.000000 0.000000 -0.145474
#
#
# Mechanical properties :
#
#
# Convention : Reuss Voigt Hill
#
# Bulk Modulus (GPa) = 14.15204 18.05087 16.10146
# Shear Modulus (GPa) = -147.98866 31.85566 -58.06650
#
# Velocity S-wave (km/s) = -8.31329 3.85702 -5.20740
# Velocity P-wave (km/s) = 9.24871 5.31651 5.35133
#
# Compressibility (1/GPa) = 0.07066120
#
# Stress axis : x y z
#
# Youngs Moduli (GPa) = 54.73111 44.58091 117.85631
#
# Poissons Ratio (x) = -0.28408 -0.20988
# Poissons Ratio (y) = -0.34876 -0.30453
# Poissons Ratio (z) = -0.09747 -0.11519
#
# Static dielectric constant tensor:
#      x y z
#    x 1.805170 0.000000 0.000000 
#    y 0.000000 1.761400 0.000000 
#    z 0.000000 0.000000 1.715670 
# 
# From -- ./inp_files/13701.got.cif
#   From: 2010.05.17/outbox.cif.g08.bks.cpg/sg63_7_cif.got.tgz:13701.got - 2010.06.03 15:47:04.
