data_PCOD9473779
_publ_section_title
;
Structure prediction by ZEFSAII (Michael W. Deem and Ramdas Pophale) SiO2 
 PCOD9473779
Probable space group: C M C M
;
_chemical_formula_sum "Si O2"
_cell_formula_units_Z 48
_cell_length_a 9.501914
_cell_length_b 9.938316
_cell_length_c 20.364237
_cell_angle_alpha 90.000000
_cell_angle_beta 90.000000
_cell_angle_gamma 90.000000
_cell_volume 1923.056480
_symmetry_space_group_name_H-M "C M C M"
_symmetry_group_IT_number 63
_symmetry_cell_setting 'orthorhombic'
loop_
_space_group_symop_operation_xyz
x,y,z
-x,-y,1/2+z
x,-y,-z
-x,y,1/2-z
-x,-y,-z
x,y,1/2-z
-x,y,z
x,-y,1/2+z
1/2+x,1/2+y,z
1/2-x,1/2-y,1/2+z
1/2+x,1/2-y,-z
1/2-x,1/2+y,1/2-z
1/2-x,1/2-y,-z
1/2+x,1/2+y,1/2-z
1/2-x,1/2+y,z
1/2+x,1/2-y,1/2+z
loop_
_atom_site_type_symbol
_atom_site_label
_atom_site_fract_x
_atom_site_fract_y
_atom_site_fract_z
Si Si1 0.500000 0.454380 0.404195
Si Si2 0.500000 0.591361 0.750000
Si Si3 0.000000 0.660362 0.469747
Si Si4 0.301719 0.157628 0.250000
Si Si5 0.500000 0.001718 0.342017
Si Si6 0.253140 0.500000 0.500000
Si Si7 0.000000 0.254648 0.250000
O O1 0.500000 0.462478 0.325604
O O2 0.500000 0.299892 0.430802
O O3 0.359630 0.514683 0.438283
O O4 0.635261 0.692741 0.750000
O O5 0.148532 0.629316 0.505062
O O6 0.000000 0.540111 0.416380
O O7 0.365957 0.076841 0.310693
O O8 0.137430 0.166019 0.250000
O O9 0.500000 0.851996 0.313722
#
# Coordination Sequence:
#
# PCOD9473779 Si02
#       7
#     8   4   8   8   8   8   4
#     4  11  22  47  64  95 135 165 215 271 314 381
#     4  10  21  38  71  88 134 174 199 270 335 358
#     4  11  21  43  66  90 127 168 210 267 313 377
#     4   9  18  40  54  91 125 171 195 268 318 369
#     4   9  21  37  61  87 128 163 212 256 328 374
#     4  10  26  40  70  98 120 176 222 250 326 388
#     4  10  21  34  61  88 128 162 215 258 313 392
#
# _framework density 24.960263999999999
#
# number of rings (size 3 to 8) (size 9 to 14) (size 15 to 20)
#    0.000    2.333    3.333    1.000    4.667    0.000 
#    0.000   15.000    0.000    0.000    0.000    0.000 
#    0.000    0.000    0.000    0.000    0.000    0.000 
#
# Total GULP energy -134138.069125 kJ/mol
# GULP energy per Si atom -5589.086214 kJ/mol
# Density = 2.490345 g / cm^3
# Si number density = 24.960264 Si / 1000 Ang^3
#
#
#
# Elastic Constant Matrix: (Units=GPa)
#
#
# Indices 1 2 3 4 5 6 
#
# 1 214.2739 37.6640 44.1061 0.0000 0.0000 0.0000
# 2 37.6640 63.9342 13.3490 0.0000 0.0000 0.0000
# 3 44.1061 13.3490 92.1471 0.0000 0.0000 0.0000
# 4 0.0000 0.0000 0.0000 4.6315 0.0000 0.0000
# 5 0.0000 0.0000 0.0000 0.0000 14.6590 0.0000
# 6 0.0000 0.0000 0.0000 0.0000 0.0000 20.2766
#
#
#
# Elastic Compliance Matrix: (Units=1/GPa)
#
#
# Indices 1 2 3 4 5 6 
#
# 1 0.005637 -0.002844 -0.002286 0.000000 0.000000 0.000000
# 2 -0.002844 0.017563 -0.001183 0.000000 0.000000 0.000000
# 3 -0.002286 -0.001183 0.012118 0.000000 0.000000 0.000000
# 4 0.000000 0.000000 0.000000 0.215912 0.000000 0.000000
# 5 0.000000 0.000000 0.000000 0.000000 0.068218 0.000000
# 6 0.000000 0.000000 0.000000 0.000000 0.000000 0.049318
#
#
# Mechanical properties :
#
#
# Convention : Reuss Voigt Hill
#
# Bulk Modulus (GPa) = 44.06796 62.28815 53.17806
# Shear Modulus (GPa) = 12.85488 26.26249 19.55869
#
# Velocity S-wave (km/s) = 2.27185 3.24724 2.80231
# Velocity P-wave (km/s) = 4.95735 6.25048 5.64109
#
# Compressibility (1/GPa) = 0.02269222
#
# Stress axis : x y z
#
# Youngs Moduli (GPa) = 177.38690 56.93680 82.52186
#
# Poissons Ratio (x) = 0.16191 0.18868
# Poissons Ratio (y) = 0.50442 0.09764
# Poissons Ratio (z) = 0.40557 0.06737
#
# Static dielectric constant tensor:
#      x y z
#    x 1.997640 0.000000 0.000000 
#    y 0.000000 2.012010 0.000000 
#    z 0.000000 0.000000 2.953050 
# 
# From -- ./inp_files/58912.got.cif
#   From: 2010.05.17/outbox.cif.g08.bks.cpg/sg63_30_cif.got.tgz:58912.got - 2010.06.03 15:47:04.
