data_PCOD9473043
_publ_section_title
;
Structure prediction by ZEFSAII (Michael W. Deem and Ramdas Pophale) SiO2 
 PCOD9473043
Probable space group: C M C M
;
_chemical_formula_sum "Si O2"
_cell_formula_units_Z 112
_cell_length_a 29.443854
_cell_length_b 14.941618
_cell_length_c 14.521978
_cell_angle_alpha 90.000000
_cell_angle_beta 90.000000
_cell_angle_gamma 90.000000
_cell_volume 6388.781850
_symmetry_space_group_name_H-M "C M C M"
_symmetry_group_IT_number 63
_symmetry_cell_setting 'orthorhombic'
loop_
_space_group_symop_operation_xyz
x,y,z
-x,-y,1/2+z
x,-y,-z
-x,y,1/2-z
-x,-y,-z
x,y,1/2-z
-x,y,z
x,-y,1/2+z
1/2+x,1/2+y,z
1/2-x,1/2-y,1/2+z
1/2+x,1/2-y,-z
1/2-x,1/2+y,1/2-z
1/2-x,1/2-y,-z
1/2+x,1/2+y,1/2-z
1/2-x,1/2+y,z
1/2+x,1/2-y,1/2+z
loop_
_atom_site_type_symbol
_atom_site_label
_atom_site_fract_x
_atom_site_fract_y
_atom_site_fract_z
Si Si1 0.053945 0.750740 0.063211
Si Si2 0.812782 0.692888 0.518416
Si Si3 0.055030 0.548015 0.750000
Si Si4 0.257256 0.327252 0.641700
Si Si5 0.631640 0.631688 0.972922
Si Si6 0.161553 0.967263 0.856716
Si Si7 0.554716 0.160439 0.250000
Si Si8 0.903140 0.406486 0.055425
O O1 0.080672 0.843010 0.052706
O O2 0.070347 0.709965 0.159655
O O3 0.000000 0.761086 0.061691
O O4 0.069217 0.675086 0.990916
O O5 0.781798 0.657887 0.434513
O O6 0.783572 0.739198 0.600848
O O7 0.840648 0.776507 0.476913
O O8 0.850116 0.621851 0.552139
O O9 0.066520 0.442806 0.750000
O O10 0.077452 0.585347 0.657800
O O11 0.000000 0.558563 0.750000
O O12 0.244538 0.314990 0.750000
O O13 0.290738 0.413575 0.638173
O O14 0.657672 0.563824 0.905087
O O15 0.630596 0.591763 0.075695
O O16 0.148385 0.971287 0.750000
O O17 0.500000 0.163842 0.250000
O O18 0.910061 0.500000 0.000000
#
# Coordination Sequence:
#
# PCOD9473043 Si02
#       8
#    16  16   8  16  16  16   8  16
#     4  10  20  36  57  82 112 149 188 234 285 334
#     4   9  20  37  55  84 113 149 188 236 288 338
#     4  11  22  36  60  86 112 156 202 230 277 356
#     4   9  18  37  59  80 110 149 192 236 284 345
#     4   9  19  35  56  82 109 143 184 232 280 335
#     4   9  18  35  59  81 108 145 184 228 285 337
#     4   9  18  32  54  80 106 142 188 230 273 328
#     4  11  22  38  56  83 120 154 186 239 288 341
#
# _framework density 17.530729000000001
#
# number of rings (size 3 to 8) (size 9 to 14) (size 15 to 20)
#    0.000    2.429    1.429    0.429    2.000    1.143 
#   16.714    1.429    0.000    0.857    0.000    0.000 
#    0.000    0.000    0.000    0.000    0.000    0.000 
#
# Total GULP energy -311831.639341 kJ/mol
# GULP energy per Si atom -5568.422131 kJ/mol
# Density = 1.749083 g / cm^3
# Si number density = 17.530729 Si / 1000 Ang^3
#
#
#
# Elastic Constant Matrix: (Units=GPa)
#
#
# Indices 1 2 3 4 5 6 
#
# 1 71.2677 24.5063 55.8829 0.0000 0.0000 0.0000
# 2 24.5063 64.7490 47.7403 0.0000 0.0000 0.0000
# 3 55.8829 47.7403 166.9461 0.0000 0.0000 0.0000
# 4 0.0000 0.0000 0.0000 18.9242 0.0000 0.0000
# 5 0.0000 0.0000 0.0000 0.0000 42.5270 0.0000
# 6 0.0000 0.0000 0.0000 0.0000 0.0000 12.7154
#
#
#
# Elastic Compliance Matrix: (Units=1/GPa)
#
#
# Indices 1 2 3 4 5 6 
#
# 1 0.019555 -0.003263 -0.005613 0.000000 0.000000 0.000000
# 2 -0.003263 0.020115 -0.004660 0.000000 0.000000 0.000000
# 3 -0.005613 -0.004660 0.009201 0.000000 0.000000 0.000000
# 4 0.000000 0.000000 0.000000 0.052842 0.000000 0.000000
# 5 0.000000 0.000000 0.000000 0.000000 0.023514 0.000000
# 6 0.000000 0.000000 0.000000 0.000000 0.000000 0.078645
#
#
# Mechanical properties :
#
#
# Convention : Reuss Voigt Hill
#
# Bulk Modulus (GPa) = 45.87128 62.13576 54.00352
# Shear Modulus (GPa) = 20.98988 26.48886 23.73937
#
# Velocity S-wave (km/s) = 3.46398 3.89137 3.68388
# Velocity P-wave (km/s) = 6.49784 7.46399 6.99761
#
# Compressibility (1/GPa) = 0.02180013
#
# Stress axis : x y z
#
# Youngs Moduli (GPa) = 51.13907 49.71409 108.68080
#
# Poissons Ratio (x) = 0.16221 0.60998
# Poissons Ratio (y) = 0.16686 0.50645
# Poissons Ratio (z) = 0.28702 0.23167
#
# Static dielectric constant tensor:
#      x y z
#    x 1.627950 0.000000 0.000000 
#    y 0.000000 1.617050 0.000000 
#    z 0.000000 0.000000 1.607720 
# 
# From -- ./inp_files/37995.got.cif
#   From: 2010.05.17/outbox.cif.g08.bks.cpg/sg63_19_cif.got.tgz:37995.got - 2010.06.03 15:47:04.
