data_PCOD9473281
_publ_section_title
;
Structure prediction by ZEFSAII (Michael W. Deem and Ramdas Pophale) SiO2 
 PCOD9473281
Probable space group: C M C M
;
_chemical_formula_sum "Si O2"
_cell_formula_units_Z 84
_cell_length_a 12.545468
_cell_length_b 17.075126
_cell_length_c 18.288585
_cell_angle_alpha 90.000000
_cell_angle_beta 90.000000
_cell_angle_gamma 90.000000
_cell_volume 3917.697408
_symmetry_space_group_name_H-M "C M C M"
_symmetry_group_IT_number 63
_symmetry_cell_setting 'orthorhombic'
loop_
_space_group_symop_operation_xyz
x,y,z
-x,-y,1/2+z
x,-y,-z
-x,y,1/2-z
-x,-y,-z
x,y,1/2-z
-x,y,z
x,-y,1/2+z
1/2+x,1/2+y,z
1/2-x,1/2-y,1/2+z
1/2+x,1/2-y,-z
1/2-x,1/2+y,1/2-z
1/2-x,1/2-y,-z
1/2+x,1/2+y,1/2-z
1/2-x,1/2+y,z
1/2+x,1/2-y,1/2+z
loop_
_atom_site_type_symbol
_atom_site_label
_atom_site_fract_x
_atom_site_fract_y
_atom_site_fract_z
Si Si1 0.621415 0.687928 0.250000
Si Si2 0.238570 0.062846 0.066189
Si Si3 0.000000 0.033992 0.250000
Si Si4 0.620812 0.043719 0.663178
Si Si5 0.500000 0.537445 0.083012
Si Si6 0.195339 0.715392 0.884420
Si Si7 0.379502 0.783109 0.541288
O O1 0.500000 0.721704 0.250000
O O2 0.599921 0.595240 0.250000
O O3 0.679196 0.722563 0.179696
O O4 0.114481 0.079762 0.081744
O O5 0.308303 0.138779 0.048333
O O6 0.297390 0.019044 0.132025
O O7 0.243506 0.000000 0.000000
O O8 0.000000 0.997201 0.333398
O O9 0.617552 0.039131 0.750000
O O10 0.500000 0.031331 0.634249
O O11 0.659359 0.130259 0.641295
O O12 0.500000 0.500000 0.000000
O O13 0.317376 0.718246 0.911835
O O14 0.126975 0.737134 0.955844
O O15 0.500000 0.795006 0.564666
#
# Coordination Sequence:
#
# PCOD9473281 Si02
#       7
#     8  16   4  16   8  16  16
#     4  10  20  36  66  94 128 168 224 272 322 406
#     4  11  23  43  67  98 130 177 216 281 333 413
#     4  10  22  38  68  94 126 200 212 292 340 396
#     4  11  23  41  67  97 131 167 218 275 337 400
#     4  10  24  44  64 100 140 174 239 281 344 414
#     4  11  22  40  63  99 128 171 217 275 329 398
#     4  11  24  42  65  97 132 172 221 273 339 399
#
# _framework density 21.441165999999999
#
# number of rings (size 3 to 8) (size 9 to 14) (size 15 to 20)
#    0.286    0.952    2.857    3.429    1.333    0.762 
#   12.000    0.476    0.000    0.000    0.000    0.000 
#    0.000    0.000    0.000    0.000    0.000    0.000 
#
# Total GULP energy -234459.616696 kJ/mol
# GULP energy per Si atom -5582.371826 kJ/mol
# Density = 2.139236 g / cm^3
# Si number density = 21.441166 Si / 1000 Ang^3
#
#
#
# Elastic Constant Matrix: (Units=GPa)
#
#
# Indices 1 2 3 4 5 6 
#
# 1 191.8814 37.7778 34.5464 0.0000 0.0000 0.0000
# 2 37.7778 58.2819 21.9106 0.0000 0.0000 0.0000
# 3 34.5464 21.9106 133.8088 0.0000 0.0000 0.0000
# 4 0.0000 0.0000 0.0000 14.7059 0.0000 0.0000
# 5 0.0000 0.0000 0.0000 0.0000 21.0873 0.0000
# 6 0.0000 0.0000 0.0000 0.0000 0.0000 12.4437
#
#
#
# Elastic Compliance Matrix: (Units=1/GPa)
#
#
# Indices 1 2 3 4 5 6 
#
# 1 0.006094 -0.003579 -0.000987 0.000000 0.000000 0.000000
# 2 -0.003579 0.020385 -0.002414 0.000000 0.000000 0.000000
# 3 -0.000987 -0.002414 0.008124 0.000000 0.000000 0.000000
# 4 0.000000 0.000000 0.000000 0.068000 0.000000 0.000000
# 5 0.000000 0.000000 0.000000 0.000000 0.047422 0.000000
# 6 0.000000 0.000000 0.000000 0.000000 0.000000 0.080362
#
#
# Mechanical properties :
#
#
# Convention : Reuss Voigt Hill
#
# Bulk Modulus (GPa) = 48.44398 63.60466 56.02432
# Shear Modulus (GPa) = 19.90226 28.96319 24.43272
#
# Velocity S-wave (km/s) = 3.04999 3.67934 3.37935
# Velocity P-wave (km/s) = 5.91998 6.91225 6.43527
#
# Compressibility (1/GPa) = 0.02064240
#
# Stress axis : x y z
#
# Youngs Moduli (GPa) = 164.09812 49.05493 123.09918
#
# Poissons Ratio (x) = 0.17556 0.12153
# Poissons Ratio (y) = 0.58728 0.29717
# Poissons Ratio (z) = 0.16201 0.11842
#
# Static dielectric constant tensor:
#      x y z
#    x 1.771540 0.000000 0.000000 
#    y 0.000000 1.774110 0.000000 
#    z 0.000000 0.000000 1.824120 
# 
# From -- ./inp_files/42232.got.cif
#   From: 2010.05.17/outbox.cif.g08.bks.cpg/sg63_22_cif.got.tgz:42232.got - 2010.06.03 15:47:04.
