data_PCOD9473143
_publ_section_title
;
Structure prediction by ZEFSAII (Michael W. Deem and Ramdas Pophale) SiO2 
 PCOD9473143
Probable space group: C M C M
;
_chemical_formula_sum "Si O2"
_cell_formula_units_Z 116
_cell_length_a 18.301726
_cell_length_b 25.110807
_cell_length_c 14.839455
_cell_angle_alpha 90.000000
_cell_angle_beta 90.000000
_cell_angle_gamma 90.000000
_cell_volume 6819.784797
_symmetry_space_group_name_H-M "C M C M"
_symmetry_group_IT_number 63
_symmetry_cell_setting 'orthorhombic'
loop_
_space_group_symop_operation_xyz
x,y,z
-x,-y,1/2+z
x,-y,-z
-x,y,1/2-z
-x,-y,-z
x,y,1/2-z
-x,y,z
x,-y,1/2+z
1/2+x,1/2+y,z
1/2-x,1/2-y,1/2+z
1/2+x,1/2-y,-z
1/2-x,1/2+y,1/2-z
1/2-x,1/2-y,-z
1/2+x,1/2+y,1/2-z
1/2-x,1/2+y,z
1/2+x,1/2-y,1/2+z
loop_
_atom_site_type_symbol
_atom_site_label
_atom_site_fract_x
_atom_site_fract_y
_atom_site_fract_z
Si Si1 0.078977 0.159420 0.971993
Si Si2 0.867992 0.999857 0.605386
Si Si3 0.082741 0.286675 0.519349
Si Si4 0.704780 0.394539 0.143861
Si Si5 0.181551 0.306024 0.143252
Si Si6 0.649615 0.378377 0.646751
Si Si7 0.000000 0.983818 0.250000
Si Si8 0.280938 0.796863 0.643756
O O1 0.081949 0.222886 0.968939
O O2 0.091072 0.141459 0.074521
O O3 0.000000 0.140960 0.938695
O O4 0.142055 0.134543 0.912475
O O5 0.804540 0.043762 0.619476
O O6 0.889485 0.000000 0.500000
O O7 0.840830 0.940963 0.630980
O O8 0.935285 0.013859 0.670990
O O9 0.111433 0.299091 0.419157
O O10 0.146280 0.305815 0.586616
O O11 0.000000 0.306036 0.535239
O O12 0.690730 0.387894 0.250000
O O13 0.779060 0.362427 0.125161
O O14 0.166540 0.301054 0.250000
O O15 0.238895 0.258351 0.119436
O O16 0.626900 0.369118 0.750000
O O17 0.722567 0.344064 0.629908
O O18 0.298234 0.793496 0.750000
#
# Coordination Sequence:
#
# PCOD9473143 Si02
#       8
#    16  16  16  16  16  16   4  16
#     4  11  23  32  50  78 111 148 188 227 271 332
#     4  12  25  37  57  82 109 154 193 229 276 318
#     4  11  22  36  54  85 117 144 179 230 291 338
#     4  11  22  38  55  77 107 147 194 232 271 322
#     4  10  20  36  59  80 107 146 188 231 279 332
#     4  11  22  38  55  77 107 147 194 232 271 322
#     4  12  26  44  52  74 128 156 188 236 264 324
#     4  10  20  36  59  80 107 146 188 231 279 332
#
# _framework density 17.009335
#
# number of rings (size 3 to 8) (size 9 to 14) (size 15 to 20)
#    0.000    1.103    5.517    1.448    1.931    1.103 
#    0.000    2.759    0.000    0.000    0.000    1.931 
#    0.000    4.414    0.000    0.000    0.000    0.000 
#
# Total GULP energy -323277.357130 kJ/mol
# GULP energy per Si atom -5573.747537 kJ/mol
# Density = 1.697062 g / cm^3
# Si number density = 17.009335 Si / 1000 Ang^3
#
#
#
# Elastic Constant Matrix: (Units=GPa)
#
#
# Indices 1 2 3 4 5 6 
#
# 1 39.7939 3.4744 6.9717 0.0000 0.0000 0.0000
# 2 3.4744 42.8332 -8.5779 0.0000 0.0000 0.0000
# 3 6.9717 -8.5779 62.6948 0.0000 0.0000 0.0000
# 4 0.0000 0.0000 0.0000 22.4390 0.0000 0.0000
# 5 0.0000 0.0000 0.0000 0.0000 5.5244 0.0000
# 6 0.0000 0.0000 0.0000 0.0000 0.0000 9.9851
#
#
#
# Elastic Compliance Matrix: (Units=1/GPa)
#
#
# Indices 1 2 3 4 5 6 
#
# 1 0.025942 -0.002758 -0.003262 0.000000 0.000000 0.000000
# 2 -0.002758 0.024297 0.003631 0.000000 0.000000 0.000000
# 3 -0.003262 0.003631 0.016810 0.000000 0.000000 0.000000
# 4 0.000000 0.000000 0.000000 0.044565 0.000000 0.000000
# 5 0.000000 0.000000 0.000000 0.000000 0.181017 0.000000
# 6 0.000000 0.000000 0.000000 0.000000 0.000000 0.100149
#
#
# Mechanical properties :
#
#
# Convention : Reuss Voigt Hill
#
# Bulk Modulus (GPa) = 16.05870 16.56206 16.31038
# Shear Modulus (GPa) = 11.95275 17.15328 14.55302
#
# Velocity S-wave (km/s) = 2.65376 3.17908 2.92822
# Velocity P-wave (km/s) = 4.34183 4.82012 4.58721
#
# Compressibility (1/GPa) = 0.06227154
#
# Stress axis : x y z
#
# Youngs Moduli (GPa) = 38.54796 41.15703 59.48911
#
# Poissons Ratio (x) = 0.11349 0.19405
# Poissons Ratio (y) = 0.10630 -0.21600
# Poissons Ratio (z) = 0.12574 -0.14944
#
# Static dielectric constant tensor:
#      x y z
#    x 1.002410 0.000000 0.000000 
#    y 0.000000 1.591870 0.000000 
#    z 0.000000 0.000000 1.602050 
# 
# From -- ./inp_files/34397.got.cif
#   From: 2010.05.17/outbox.cif.g08.bks.cpg/sg63_18_cif.got.tgz:34397.got - 2010.06.03 15:47:04.
