data_PCOD9473583
_publ_section_title
;
Structure prediction by ZEFSAII (Michael W. Deem and Ramdas Pophale) SiO2 
 PCOD9473583
Probable space group: C M C M
;
_chemical_formula_sum "Si O2"
_cell_formula_units_Z 96
_cell_length_a 18.704927
_cell_length_b 9.650478
_cell_length_c 27.965101
_cell_angle_alpha 90.000000
_cell_angle_beta 90.000000
_cell_angle_gamma 90.000000
_cell_volume 5048.021952
_symmetry_space_group_name_H-M "C M C M"
_symmetry_group_IT_number 63
_symmetry_cell_setting 'orthorhombic'
loop_
_space_group_symop_operation_xyz
x,y,z
-x,-y,1/2+z
x,-y,-z
-x,y,1/2-z
-x,-y,-z
x,y,1/2-z
-x,y,z
x,-y,1/2+z
1/2+x,1/2+y,z
1/2-x,1/2-y,1/2+z
1/2+x,1/2-y,-z
1/2-x,1/2+y,1/2-z
1/2-x,1/2-y,-z
1/2+x,1/2+y,1/2-z
1/2-x,1/2+y,z
1/2+x,1/2-y,1/2+z
loop_
_atom_site_type_symbol
_atom_site_label
_atom_site_fract_x
_atom_site_fract_y
_atom_site_fract_z
Si Si1 0.311361 0.508231 0.192441
Si Si2 0.817198 0.381474 0.539196
Si Si3 0.583644 0.015807 0.124847
Si Si4 0.829611 0.312852 0.806926
Si Si5 0.083702 0.807680 0.629548
Si Si6 0.845833 0.141011 0.470452
O O1 0.322118 0.515998 0.250000
O O2 0.236425 0.584480 0.181804
O O3 0.313071 0.345816 0.178226
O O4 0.370712 0.594229 0.164013
O O5 0.810306 0.500000 0.500000
O O6 0.864411 0.435277 0.582453
O O7 0.854027 0.256934 0.510943
O O8 0.735044 0.343166 0.550956
O O9 0.500000 0.022392 0.111517
O O10 0.602199 0.120351 0.167629
O O11 0.600004 0.855591 0.137434
O O12 0.838605 0.311747 0.750000
O O13 0.102517 0.842242 0.574458
O O14 0.000000 0.828389 0.638147
O O15 0.852943 0.000000 0.500000
#
# Coordination Sequence:
#
# PCOD9473583 Si02
#       6
#    16  16  16  16  16  16
#     4  10  22  41  66  92 119 154 197 249 302 355
#     4  10  20  39  61  84 117 156 201 252 300 351
#     4  11  24  39  60  88 122 166 204 243 297 358
#     4  10  22  41  66  93 119 152 198 250 301 357
#     4  11  24  40  58  87 127 165 201 244 299 359
#     4  10  22  37  60  89 116 155 203 255 304 350
#
# _framework density 19.01735
#
# number of rings (size 3 to 8) (size 9 to 14) (size 15 to 20)
#    0.000    1.667    1.667    2.000    2.333    4.667 
#    0.000    3.333    0.000    0.000    0.000    0.000 
#    0.000    0.000    0.000    0.000    0.000    0.000 
#
# Total GULP energy -268035.012990 kJ/mol
# GULP energy per Si atom -5584.062771 kJ/mol
# Density = 1.897407 g / cm^3
# Si number density = 19.017350 Si / 1000 Ang^3
#
#
#
# Elastic Constant Matrix: (Units=GPa)
#
#
# Indices 1 2 3 4 5 6 
#
# 1 53.2482 18.0690 24.7975 0.0000 0.0000 0.0000
# 2 18.0690 111.4507 31.8818 0.0000 0.0000 0.0000
# 3 24.7975 31.8818 32.3800 0.0000 0.0000 0.0000
# 4 0.0000 0.0000 0.0000 33.0176 0.0000 0.0000
# 5 0.0000 0.0000 0.0000 0.0000 7.7035 0.0000
# 6 0.0000 0.0000 0.0000 0.0000 0.0000 29.0880
#
#
#
# Elastic Compliance Matrix: (Units=1/GPa)
#
#
# Indices 1 2 3 4 5 6 
#
# 1 0.029626 0.002349 -0.025001 0.000000 0.000000 0.000000
# 2 0.002349 0.012677 -0.014281 0.000000 0.000000 0.000000
# 3 -0.025001 -0.014281 0.064091 0.000000 0.000000 0.000000
# 4 0.000000 0.000000 0.000000 0.030287 0.000000 0.000000
# 5 0.000000 0.000000 0.000000 0.000000 0.129811 0.000000
# 6 0.000000 0.000000 0.000000 0.000000 0.000000 0.034378
#
#
# Mechanical properties :
#
#
# Convention : Reuss Voigt Hill
#
# Bulk Modulus (GPa) = 30.74298 38.50841 34.62569
# Shear Modulus (GPa) = 12.96754 22.11719 17.54236
#
# Velocity S-wave (km/s) = 2.61412 3.41398 3.04046
# Velocity P-wave (km/s) = 5.03113 5.98610 5.52927
#
# Compressibility (1/GPa) = 0.03252776
#
# Stress axis : x y z
#
# Youngs Moduli (GPa) = 33.75434 78.88345 15.60292
#
# Poissons Ratio (x) = -0.18527 0.39009
# Poissons Ratio (y) = -0.07928 0.22282
# Poissons Ratio (z) = 0.84389 1.12650
#
# Static dielectric constant tensor:
#      x y z
#    x 1.648510 0.000000 0.000000 
#    y 0.000000 1.639810 0.000000 
#    z 0.000000 0.000000 1.652640 
# 
# From -- ./inp_files/70297.got.cif
#   From: 2010.05.17/outbox.cif.g08.bks.cpg/sg63_36_cif.got.tgz:70297.got - 2010.06.03 15:47:04.
