data_PCOD9473604
_publ_section_title
;
Structure prediction by ZEFSAII (Michael W. Deem and Ramdas Pophale) SiO2 
 PCOD9473604
Probable space group: C M C M
;
_chemical_formula_sum "Si O2"
_cell_formula_units_Z 64
_cell_length_a 8.902634
_cell_length_b 24.325963
_cell_length_c 15.554756
_cell_angle_alpha 90.000000
_cell_angle_beta 90.000000
_cell_angle_gamma 90.000000
_cell_volume 3368.617993
_symmetry_space_group_name_H-M "C M C M"
_symmetry_group_IT_number 63
_symmetry_cell_setting 'orthorhombic'
loop_
_space_group_symop_operation_xyz
x,y,z
-x,-y,1/2+z
x,-y,-z
-x,y,1/2-z
-x,-y,-z
x,y,1/2-z
-x,y,z
x,-y,1/2+z
1/2+x,1/2+y,z
1/2-x,1/2-y,1/2+z
1/2+x,1/2-y,-z
1/2-x,1/2+y,1/2-z
1/2-x,1/2-y,-z
1/2+x,1/2+y,1/2-z
1/2-x,1/2+y,z
1/2+x,1/2-y,1/2+z
loop_
_atom_site_type_symbol
_atom_site_label
_atom_site_fract_x
_atom_site_fract_y
_atom_site_fract_z
Si Si1 0.180470 0.200228 0.750000
Si Si2 0.320302 0.570537 0.750000
Si Si3 0.828339 0.372370 0.648152
Si Si4 0.180272 0.497610 0.900066
Si Si5 0.322617 0.265445 0.909728
O O1 0.217699 0.135332 0.750000
O O2 0.247537 0.230085 0.833622
O O3 0.000000 0.206306 0.750000
O O4 0.500000 0.565571 0.750000
O O5 0.256029 0.540256 0.834772
O O6 0.827968 0.362897 0.750000
O O7 0.790003 0.435607 0.631300
O O8 0.716746 0.329127 0.606792
O O9 0.000000 0.362955 0.616659
O O10 0.000000 0.506558 0.896248
O O11 0.226762 0.500000 0.000000
O O12 0.500000 0.256367 0.909949
O O13 0.250000 0.250000 0.000000
#
# Coordination Sequence:
#
# PCOD9473604 Si02
#       5
#     8   8  16  16  16
#     4  11  25  46  65  92 131 168 212 263 316 375
#     4  11  25  42  63  92 129 168 206 261 318 369
#     4  10  20  39  65  92 127 164 206 263 315 366
#     4  10  22  41  66  95 125 165 212 256 307 374
#     4  12  26  43  66  95 126 167 213 261 319 378
#
# _framework density 18.998889999999999
#
# number of rings (size 3 to 8) (size 9 to 14) (size 15 to 20)
#    0.000    1.250    2.500    3.000    3.500    3.500 
#    0.000    0.000    0.000    0.000    0.000    0.000 
#    0.000    0.000    0.000    0.000    0.000    0.000 
#
# Total GULP energy -178888.458755 kJ/mol
# GULP energy per Si atom -5590.264336 kJ/mol
# Density = 1.895565 g / cm^3
# Si number density = 18.998890 Si / 1000 Ang^3
#
#
#
# Elastic Constant Matrix: (Units=GPa)
#
#
# Indices 1 2 3 4 5 6 
#
# 1 100.9313 64.8911 56.7500 0.0000 0.0000 0.0000
# 2 64.8911 90.6522 45.1055 0.0000 0.0000 0.0000
# 3 56.7500 45.1055 129.6220 0.0000 0.0000 0.0000
# 4 0.0000 0.0000 0.0000 30.3241 0.0000 0.0000
# 5 0.0000 0.0000 0.0000 0.0000 29.7145 0.0000
# 6 0.0000 0.0000 0.0000 0.0000 0.0000 33.7530
#
#
#
# Elastic Compliance Matrix: (Units=1/GPa)
#
#
# Indices 1 2 3 4 5 6 
#
# 1 0.020451 -0.012317 -0.004668 0.000000 0.000000 0.000000
# 2 -0.012317 0.020759 -0.001831 0.000000 0.000000 0.000000
# 3 -0.004668 -0.001831 0.010396 0.000000 0.000000 0.000000
# 4 0.000000 0.000000 0.000000 0.032977 0.000000 0.000000
# 5 0.000000 0.000000 0.000000 0.000000 0.033654 0.000000
# 6 0.000000 0.000000 0.000000 0.000000 0.000000 0.029627
#
#
# Mechanical properties :
#
#
# Convention : Reuss Voigt Hill
#
# Bulk Modulus (GPa) = 71.56125 72.74431 72.15278
# Shear Modulus (GPa) = 26.29465 29.05556 27.67510
#
# Velocity S-wave (km/s) = 3.72426 3.91491 3.82077
# Velocity P-wave (km/s) = 7.49942 7.66858 7.58447
#
# Compressibility (1/GPa) = 0.01397404
#
# Stress axis : x y z
#
# Youngs Moduli (GPa) = 48.89745 48.17189 96.19512
#
# Poissons Ratio (x) = 0.59332 0.44901
# Poissons Ratio (y) = 0.60226 0.17615
# Poissons Ratio (z) = 0.22824 0.08821
#
# Static dielectric constant tensor:
#      x y z
#    x 1.646350 0.000000 0.000000 
#    y 0.000000 1.644080 0.000000 
#    z 0.000000 0.000000 1.576670 
# 
# From -- ./inp_files/27530.got.cif
#   From: 2010.05.17/outbox.cif.g08.bks.cpg/sg63_14_cif.got.tgz:27530.got - 2010.06.03 15:47:04.
