data_PCOD9473112
_publ_section_title
;
Structure prediction by ZEFSAII (Michael W. Deem and Ramdas Pophale) SiO2 
 PCOD9473112
Probable space group: C M C M
;
_chemical_formula_sum "Si O2"
_cell_formula_units_Z 56
_cell_length_a 23.867231
_cell_length_b 5.334981
_cell_length_c 23.588369
_cell_angle_alpha 90.000000
_cell_angle_beta 90.000000
_cell_angle_gamma 90.000000
_cell_volume 3003.535895
_symmetry_space_group_name_H-M "C M C M"
_symmetry_group_IT_number 63
_symmetry_cell_setting 'orthorhombic'
loop_
_space_group_symop_operation_xyz
x,y,z
-x,-y,1/2+z
x,-y,-z
-x,y,1/2-z
-x,-y,-z
x,y,1/2-z
-x,y,z
x,-y,1/2+z
1/2+x,1/2+y,z
1/2-x,1/2-y,1/2+z
1/2+x,1/2-y,-z
1/2-x,1/2+y,1/2-z
1/2-x,1/2-y,-z
1/2+x,1/2+y,1/2-z
1/2-x,1/2+y,z
1/2+x,1/2-y,1/2+z
loop_
_atom_site_type_symbol
_atom_site_label
_atom_site_fract_x
_atom_site_fract_y
_atom_site_fract_z
Si Si1 0.163258 0.974379 0.876993
Si Si2 0.328512 0.970642 0.814883
Si Si3 0.212197 0.000000 0.000000
Si Si4 0.934873 0.824103 0.314500
O O1 0.190550 0.210258 0.843571
O O2 0.175796 0.996942 0.942855
O O3 0.097897 0.005387 0.859580
O O4 0.183515 0.712396 0.851863
O O5 0.309696 0.994538 0.750000
O O6 0.396356 0.925294 0.814487
O O7 0.250000 0.250000 0.000000
O O8 0.928647 0.927514 0.250000
O O9 0.000000 0.785278 0.325639
#
# Coordination Sequence:
#
# PCOD9473112 Si02
#       4
#    16  16   8  16
#     4  10  20  36  58  84 117 149 196 241 280 335
#     4   9  17  32  57  84 118 149 178 225 287 342
#     4  12  26  44  65  80 103 156 212 248 288 338
#     4   8  16  31  56  89 122 153 181 218 282 356
#
# _framework density 18.644690000000001
#
# number of rings (size 3 to 8) (size 9 to 14) (size 15 to 20)
#    1.714    0.857    0.000    3.429    0.000    1.143 
#    0.000    3.571    0.000   30.857    0.000    0.000 
#    0.000    0.000    0.000    0.000    0.000    0.000 
#
# Total GULP energy -155873.590998 kJ/mol
# GULP energy per Si atom -5566.913964 kJ/mol
# Density = 1.860225 g / cm^3
# Si number density = 18.644690 Si / 1000 Ang^3
#
#
#
# Elastic Constant Matrix: (Units=GPa)
#
#
# Indices 1 2 3 4 5 6 
#
# 1 116.2524 5.9755 40.6032 0.0000 0.0000 0.0000
# 2 5.9755 96.2368 23.9071 0.0000 0.0000 0.0000
# 3 40.6032 23.9071 137.3195 0.0000 0.0000 0.0000
# 4 0.0000 0.0000 0.0000 27.2406 0.0000 0.0000
# 5 0.0000 0.0000 0.0000 0.0000 0.6801 0.0000
# 6 0.0000 0.0000 0.0000 0.0000 0.0000 -226.6365
#
#
#
# Elastic Compliance Matrix: (Units=1/GPa)
#
#
# Indices 1 2 3 4 5 6 
#
# 1 0.009594 0.000114 -0.002857 0.000000 0.000000 0.000000
# 2 0.000114 0.010862 -0.001925 0.000000 0.000000 0.000000
# 3 -0.002857 -0.001925 0.008462 0.000000 0.000000 0.000000
# 4 0.000000 0.000000 0.000000 0.036710 0.000000 0.000000
# 5 0.000000 0.000000 0.000000 0.000000 1.470412 0.000000
# 6 0.000000 0.000000 0.000000 0.000000 0.000000 -0.004412
#
#
# Mechanical properties :
#
#
# Convention : Reuss Voigt Hill
#
# Bulk Modulus (GPa) = 51.06431 54.53115 52.79773
# Shear Modulus (GPa) = 3.23104 -21.12163 -8.94530
#
# Velocity S-wave (km/s) = 1.31785 -3.36943 -2.19276
# Velocity P-wave (km/s) = 5.45557 3.76478 4.68705
#
# Compressibility (1/GPa) = 0.01958315
#
# Stress axis : x y z
#
# Youngs Moduli (GPa) = 104.23371 92.06317 118.17490
#
# Poissons Ratio (x) = -0.01049 0.33758
# Poissons Ratio (y) = -0.01188 0.22746
# Poissons Ratio (z) = 0.29775 0.17720
#
# Static dielectric constant tensor:
#      x y z
#    x 1.665160 0.000000 0.000000 
#    y 0.000000 1.818450 0.000000 
#    z 0.000000 0.000000 1.609520 
# 
# From -- ./inp_files/64820.got.cif
#   From: 2010.05.17/outbox.cif.g08.bks.cpg/sg63_33_cif.got.tgz:64820.got - 2010.06.03 15:47:04.
