data_PCOD9473501
_publ_section_title
;
Structure prediction by ZEFSAII (Michael W. Deem and Ramdas Pophale) SiO2 
 PCOD9473501
Probable space group: C M C M
;
_chemical_formula_sum "Si O2"
_cell_formula_units_Z 88
_cell_length_a 22.340316
_cell_length_b 9.293675
_cell_length_c 23.297268
_cell_angle_alpha 90.000000
_cell_angle_beta 90.000000
_cell_angle_gamma 90.000000
_cell_volume 4837.063498
_symmetry_space_group_name_H-M "C M C M"
_symmetry_group_IT_number 63
_symmetry_cell_setting 'orthorhombic'
loop_
_space_group_symop_operation_xyz
x,y,z
-x,-y,1/2+z
x,-y,-z
-x,y,1/2-z
-x,-y,-z
x,y,1/2-z
-x,y,z
x,-y,1/2+z
1/2+x,1/2+y,z
1/2-x,1/2-y,1/2+z
1/2+x,1/2-y,-z
1/2-x,1/2+y,1/2-z
1/2-x,1/2-y,-z
1/2+x,1/2+y,1/2-z
1/2-x,1/2+y,z
1/2+x,1/2-y,1/2+z
loop_
_atom_site_type_symbol
_atom_site_label
_atom_site_fract_x
_atom_site_fract_y
_atom_site_fract_z
Si Si1 0.214524 0.797062 0.250000
Si Si2 0.645238 0.507683 0.660910
Si Si3 0.355807 0.738729 0.250000
Si Si4 0.793279 0.115896 0.450489
Si Si5 0.569605 0.775876 0.865451
Si Si6 0.659895 0.151612 0.468232
Si Si7 0.112831 0.430696 0.750000
O O1 0.191935 0.893238 0.303430
O O2 0.284342 0.766354 0.250000
O O3 0.178227 0.646606 0.250000
O O4 0.629571 0.364481 0.696367
O O5 0.676092 0.456897 0.603074
O O6 0.589675 0.613223 0.650069
O O7 0.384395 0.896754 0.250000
O O8 0.725545 0.166942 0.437978
O O9 0.834874 0.235853 0.479438
O O10 0.784548 0.000000 0.500000
O O11 0.500000 0.784440 0.879730
O O12 0.610635 0.821618 0.919546
O O13 0.582668 0.870687 0.808328
O O14 0.651794 0.000000 0.500000
#
# Coordination Sequence:
#
# PCOD9473501 Si02
#       7
#     8  16   8  16  16  16   8
#     4   9  21  36  56  93 129 159 190 245 327 378
#     4  10  22  38  61  90 123 164 200 253 308 371
#     4  11  23  35  61  98 123 152 206 269 312 361
#     4  10  20  38  61  92 126 154 197 246 314 371
#     4  11  24  45  64  84 123 174 212 246 308 379
#     4  10  23  37  61  93 123 161 196 253 310 365
#     4  10  23  39  61  91 122 165 207 254 313 361
#
# _framework density 18.192855999999999
#
# number of rings (size 3 to 8) (size 9 to 14) (size 15 to 20)
#    0.000    1.818    1.818    1.909   10.182    0.364 
#    0.000    3.636    0.000    0.000    0.000    0.000 
#    0.000    0.000    0.000    0.000    0.000    0.000 
#
# Total GULP energy -245537.506096 kJ/mol
# GULP energy per Si atom -5580.397866 kJ/mol
# Density = 1.815145 g / cm^3
# Si number density = 18.192856 Si / 1000 Ang^3
#
#
#
# Elastic Constant Matrix: (Units=GPa)
#
#
# Indices 1 2 3 4 5 6 
#
# 1 101.4987 48.4319 75.8303 0.0000 0.0000 0.0000
# 2 48.4319 143.3725 64.4223 0.0000 0.0000 0.0000
# 3 75.8303 64.4223 124.4320 0.0000 0.0000 0.0000
# 4 0.0000 0.0000 0.0000 68.1774 0.0000 0.0000
# 5 0.0000 0.0000 0.0000 0.0000 17.6276 0.0000
# 6 0.0000 0.0000 0.0000 0.0000 0.0000 6.5449
#
#
#
# Elastic Compliance Matrix: (Units=1/GPa)
#
#
# Indices 1 2 3 4 5 6 
#
# 1 0.018341 -0.001529 -0.010386 0.000000 0.000000 0.000000
# 2 -0.001529 0.009217 -0.003840 0.000000 0.000000 0.000000
# 3 -0.010386 -0.003840 0.016354 0.000000 0.000000 0.000000
# 4 0.000000 0.000000 0.000000 0.014668 0.000000 0.000000
# 5 0.000000 0.000000 0.000000 0.000000 0.056729 0.000000
# 6 0.000000 0.000000 0.000000 0.000000 0.000000 0.152790
#
#
# Mechanical properties :
#
#
# Convention : Reuss Voigt Hill
#
# Bulk Modulus (GPa) = 80.63055 82.96356 81.79706
# Shear Modulus (GPa) = 16.46132 30.51124 23.48628
#
# Velocity S-wave (km/s) = 3.01129 4.09968 3.59689
# Velocity P-wave (km/s) = 7.51709 8.25295 7.89360
#
# Compressibility (1/GPa) = 0.01240225
#
# Stress axis : x y z
#
# Youngs Moduli (GPa) = 54.52222 108.49738 61.14815
#
# Poissons Ratio (x) = 0.16590 0.63506
# Poissons Ratio (y) = 0.08337 0.23481
# Poissons Ratio (z) = 0.56625 0.41663
#
# Static dielectric constant tensor:
#      x y z
#    x 1.612620 0.000000 0.000000 
#    y 0.000000 1.661990 0.000000 
#    z 0.000000 0.000000 1.612280 
# 
# From -- ./inp_files/64439.got.cif
#   From: 2010.05.17/outbox.cif.g08.bks.cpg/sg63_33_cif.got.tgz:64439.got - 2010.06.03 15:47:04.
