data_PCOD9473817
_publ_section_title
;
Structure prediction by ZEFSAII (Michael W. Deem and Ramdas Pophale) SiO2 
 PCOD9473817
Probable space group: C M C M
;
_chemical_formula_sum "Si O2"
_cell_formula_units_Z 88
_cell_length_a 20.398791
_cell_length_b 23.025891
_cell_length_c 9.482874
_cell_angle_alpha 90.000000
_cell_angle_beta 90.000000
_cell_angle_gamma 90.000000
_cell_volume 4454.109124
_symmetry_space_group_name_H-M "C M C M"
_symmetry_group_IT_number 63
_symmetry_cell_setting 'orthorhombic'
loop_
_space_group_symop_operation_xyz
x,y,z
-x,-y,1/2+z
x,-y,-z
-x,y,1/2-z
-x,-y,-z
x,y,1/2-z
-x,y,z
x,-y,1/2+z
1/2+x,1/2+y,z
1/2-x,1/2-y,1/2+z
1/2+x,1/2-y,-z
1/2-x,1/2+y,1/2-z
1/2-x,1/2-y,-z
1/2+x,1/2+y,1/2-z
1/2-x,1/2+y,z
1/2+x,1/2-y,1/2+z
loop_
_atom_site_type_symbol
_atom_site_label
_atom_site_fract_x
_atom_site_fract_y
_atom_site_fract_z
Si Si1 0.112735 0.844949 0.916717
Si Si2 0.575048 0.104445 0.087415
Si Si3 0.314855 0.047752 0.908359
Si Si4 0.614980 0.215208 0.582764
Si Si5 0.500000 0.562662 0.078318
Si Si6 0.244373 0.171712 0.591786
O O1 0.125060 0.851793 0.750000
O O2 0.085658 0.779270 0.935814
O O3 0.063183 0.896596 0.958370
O O4 0.181408 0.840002 0.996975
O O5 0.597118 0.107745 0.250000
O O6 0.500000 0.085709 0.084548
O O7 0.620232 0.062714 0.995788
O O8 0.581518 0.167291 0.013728
O O9 0.328069 0.027394 0.750000
O O10 0.277422 0.108256 0.900217
O O11 0.277243 0.000000 0.000000
O O12 0.610348 0.199885 0.750000
O O13 0.693500 0.211991 0.547518
O O14 0.500000 0.554760 0.250000
O O15 0.500000 0.500000 0.000000
O O16 0.224508 0.190430 0.750000
#
# Coordination Sequence:
#
# PCOD9473817 Si02
#       6
#    16  16  16  16   8  16
#     4  10  21  37  60  85 110 147 190 231 284 342
#     4  10  21  35  52  79 114 149 186 229 275 328
#     4  10  21  37  56  79 108 146 191 234 279 330
#     4   9  19  35  57  85 115 147 184 229 283 345
#     4  10  24  44  60  82 114 150 199 246 285 342
#     4   9  19  35  55  85 117 143 180 230 286 344
#
# _framework density 19.757038000000001
#
# number of rings (size 3 to 8) (size 9 to 14) (size 15 to 20)
#    0.000    2.364    0.000    2.727    1.273    7.636 
#    0.000    3.636    0.000    0.000    0.000    0.000 
#    0.000    0.000    0.000    0.000    0.000    0.000 
#
# Total GULP energy -245262.548412 kJ/mol
# GULP energy per Si atom -5574.148828 kJ/mol
# Density = 1.971207 g / cm^3
# Si number density = 19.757038 Si / 1000 Ang^3
#
#
#
# Elastic Constant Matrix: (Units=GPa)
#
#
# Indices 1 2 3 4 5 6 
#
# 1 70.8274 28.9131 32.4373 0.0000 0.0000 0.0000
# 2 28.9131 115.0081 39.5787 0.0000 0.0000 0.0000
# 3 32.4373 39.5787 81.6096 0.0000 0.0000 0.0000
# 4 0.0000 0.0000 0.0000 31.6745 0.0000 0.0000
# 5 0.0000 0.0000 0.0000 0.0000 27.0015 0.0000
# 6 0.0000 0.0000 0.0000 0.0000 0.0000 14.2455
#
#
#
# Elastic Compliance Matrix: (Units=1/GPa)
#
#
# Indices 1 2 3 4 5 6 
#
# 1 0.017819 -0.002451 -0.005893 0.000000 0.000000 0.000000
# 2 -0.002451 0.010774 -0.004251 0.000000 0.000000 0.000000
# 3 -0.005893 -0.004251 0.016657 0.000000 0.000000 0.000000
# 4 0.000000 0.000000 0.000000 0.031571 0.000000 0.000000
# 5 0.000000 0.000000 0.000000 0.000000 0.037035 0.000000
# 6 0.000000 0.000000 0.000000 0.000000 0.000000 0.070198
#
#
# Mechanical properties :
#
#
# Convention : Reuss Voigt Hill
#
# Bulk Modulus (GPa) = 49.85343 52.14481 50.99912
# Shear Modulus (GPa) = 23.15544 25.68536 24.42040
#
# Velocity S-wave (km/s) = 3.42718 3.60955 3.51954
# Velocity P-wave (km/s) = 6.39912 6.61983 6.51041
#
# Compressibility (1/GPa) = 0.02005880
#
# Stress axis : x y z
#
# Youngs Moduli (GPa) = 56.12113 92.81419 60.03310
#
# Poissons Ratio (x) = 0.22753 0.35380
# Poissons Ratio (y) = 0.13758 0.25519
# Poissons Ratio (z) = 0.33075 0.39454
#
# Static dielectric constant tensor:
#      x y z
#    x 1.701420 0.000000 0.000000 
#    y 0.000000 1.746600 0.000000 
#    z 0.000000 0.000000 1.745410 
# 
# From -- ./inp_files/8245.got.cif
#   From: 2010.05.17/outbox.cif.g08.bks.cpg/sg63_5_cif.got.tgz:8245.got - 2010.06.03 15:47:04.
