data_PCOD9473923
_publ_section_title
;
Structure prediction by ZEFSAII (Michael W. Deem and Ramdas Pophale) SiO2 
 PCOD9473923
Probable space group: C M C M
;
_chemical_formula_sum "Si O2"
_cell_formula_units_Z 88
_cell_length_a 32.811671
_cell_length_b 12.616861
_cell_length_c 10.881029
_cell_angle_alpha 90.000000
_cell_angle_beta 90.000000
_cell_angle_gamma 90.000000
_cell_volume 4504.531565
_symmetry_space_group_name_H-M "C M C M"
_symmetry_group_IT_number 63
_symmetry_cell_setting 'orthorhombic'
loop_
_space_group_symop_operation_xyz
x,y,z
-x,-y,1/2+z
x,-y,-z
-x,y,1/2-z
-x,-y,-z
x,y,1/2-z
-x,y,z
x,-y,1/2+z
1/2+x,1/2+y,z
1/2-x,1/2-y,1/2+z
1/2+x,1/2-y,-z
1/2-x,1/2+y,1/2-z
1/2-x,1/2-y,-z
1/2+x,1/2+y,1/2-z
1/2-x,1/2+y,z
1/2+x,1/2-y,1/2+z
loop_
_atom_site_type_symbol
_atom_site_label
_atom_site_fract_x
_atom_site_fract_y
_atom_site_fract_z
Si Si1 0.240747 0.429162 0.385060
Si Si2 0.590114 0.083308 0.608249
Si Si3 0.399281 0.500000 0.500000
Si Si4 0.164798 0.132665 0.882979
Si Si5 0.547165 0.690214 0.396453
Si Si6 0.167965 0.718380 0.886096
O O1 0.228932 0.500000 0.500000
O O2 0.231653 0.476734 0.250000
O O3 0.288949 0.408739 0.390182
O O4 0.214247 0.322325 0.392442
O O5 0.580903 0.048866 0.750000
O O6 0.565825 0.192842 0.584035
O O7 0.637574 0.118397 0.605966
O O8 0.581850 0.000000 0.500000
O O9 0.368190 0.460262 0.395135
O O10 0.427124 0.401401 0.538580
O O11 0.159973 0.186494 0.750000
O O12 0.158725 0.206431 0.000704
O O13 0.549009 0.671415 0.250000
O O14 0.500000 0.687548 0.435085
O O15 0.160971 0.766709 0.750000
#
# Coordination Sequence:
#
# PCOD9473923 Si02
#       6
#    16  16   8  16  16  16
#     4  10  21  36  54  83 119 161 208 256 305 359
#     4  10  21  39  63  92 123 164 206 251 307 368
#     4  12  21  40  64  90 126 162 206 254 311 372
#     4  11  23  36  57  88 121 160 207 254 305 365
#     4  10  22  41  65  92 123 161 204 254 317 382
#     4  10  21  38  59  83 119 164 208 253 309 361
#
# _framework density 19.535883999999999
#
# number of rings (size 3 to 8) (size 9 to 14) (size 15 to 20)
#    0.000    1.636    2.727    1.909    0.000    3.273 
#    0.000    0.000    0.000    2.182    0.000    0.000 
#    0.000    0.000    0.000    0.000    0.000    0.000 
#
# Total GULP energy -245535.008072 kJ/mol
# GULP energy per Si atom -5580.341093 kJ/mol
# Density = 1.949142 g / cm^3
# Si number density = 19.535884 Si / 1000 Ang^3
#
#
#
# Elastic Constant Matrix: (Units=GPa)
#
#
# Indices 1 2 3 4 5 6 
#
# 1 125.3673 36.5063 25.7754 0.0000 0.0000 0.0000
# 2 36.5063 75.7946 76.5846 0.0000 0.0000 0.0000
# 3 25.7754 76.5846 171.4704 0.0000 0.0000 0.0000
# 4 0.0000 0.0000 0.0000 34.2293 0.0000 0.0000
# 5 0.0000 0.0000 0.0000 0.0000 14.2322 0.0000
# 6 0.0000 0.0000 0.0000 0.0000 0.0000 18.1533
#
#
#
# Elastic Compliance Matrix: (Units=1/GPa)
#
#
# Indices 1 2 3 4 5 6 
#
# 1 0.009392 -0.005644 0.001109 0.000000 0.000000 0.000000
# 2 -0.005644 0.027437 -0.011406 0.000000 0.000000 0.000000
# 3 0.001109 -0.011406 0.010759 0.000000 0.000000 0.000000
# 4 0.000000 0.000000 0.000000 0.029215 0.000000 0.000000
# 5 0.000000 0.000000 0.000000 0.000000 0.070263 0.000000
# 6 0.000000 0.000000 0.000000 0.000000 0.000000 0.055086
#
#
# Mechanical properties :
#
#
# Convention : Reuss Voigt Hill
#
# Bulk Modulus (GPa) = 63.66870 72.26277 67.96574
# Shear Modulus (GPa) = 20.89691 28.90739 24.90215
#
# Velocity S-wave (km/s) = 3.27413 3.85087 3.57415
# Velocity P-wave (km/s) = 6.85234 7.53938 7.20406
#
# Compressibility (1/GPa) = 0.01570630
#
# Stress axis : x y z
#
# Youngs Moduli (GPa) = 106.47196 36.44738 92.94218
#
# Poissons Ratio (x) = 0.20572 -0.10309
# Poissons Ratio (y) = 0.60097 1.06008
# Poissons Ratio (z) = -0.11810 0.41571
#
# Static dielectric constant tensor:
#      x y z
#    x 1.692010 0.000000 0.000000 
#    y 0.000000 1.680930 0.000000 
#    z 0.000000 0.000000 1.701780 
# 
# From -- ./inp_files/25751.got.cif
#   From: 2010.05.17/outbox.cif.g08.bks.cpg/sg63_13_cif.got.tgz:25751.got - 2010.06.03 15:47:04.
