data_PCOD9473897
_publ_section_title
;
Structure prediction by ZEFSAII (Michael W. Deem and Ramdas Pophale) SiO2 
 PCOD9473897
Probable space group: C M C M
;
_chemical_formula_sum "Si O2"
_cell_formula_units_Z 96
_cell_length_a 21.676155
_cell_length_b 9.579099
_cell_length_c 24.276678
_cell_angle_alpha 90.000000
_cell_angle_beta 90.000000
_cell_angle_gamma 90.000000
_cell_volume 5040.761709
_symmetry_space_group_name_H-M "C M C M"
_symmetry_group_IT_number 63
_symmetry_cell_setting 'orthorhombic'
loop_
_space_group_symop_operation_xyz
x,y,z
-x,-y,1/2+z
x,-y,-z
-x,y,1/2-z
-x,-y,-z
x,y,1/2-z
-x,y,z
x,-y,1/2+z
1/2+x,1/2+y,z
1/2-x,1/2-y,1/2+z
1/2+x,1/2-y,-z
1/2-x,1/2+y,1/2-z
1/2-x,1/2-y,-z
1/2+x,1/2+y,1/2-z
1/2-x,1/2+y,z
1/2+x,1/2-y,1/2+z
loop_
_atom_site_type_symbol
_atom_site_label
_atom_site_fract_x
_atom_site_fract_y
_atom_site_fract_z
Si Si1 0.572911 0.845791 0.183781
Si Si2 0.741150 0.878599 0.539892
Si Si3 0.929323 0.878738 0.096040
Si Si4 0.140817 0.832264 0.595430
Si Si5 0.424943 0.163837 0.186941
Si Si6 0.105523 0.649685 0.488915
O O1 0.578306 0.832135 0.250000
O O2 0.500000 0.826939 0.170021
O O3 0.614201 0.736798 0.150543
O O4 0.591083 0.005821 0.169287
O O5 0.750000 0.750000 0.500000
O O6 0.785502 0.857469 0.591595
O O7 0.667781 0.891159 0.545557
O O8 0.764939 0.000000 0.500000
O O9 0.904408 0.788471 0.147583
O O10 0.000000 0.920684 0.106776
O O11 0.890604 0.017588 0.085524
O O12 0.928131 0.767444 0.046380
O O13 0.123248 0.725350 0.546120
O O14 0.405213 0.183888 0.250000
O O15 0.500000 0.166114 0.186048
O O16 0.074270 0.500000 0.500000
#
# Coordination Sequence:
#
# PCOD9473897 Si02
#       6
#    16  16  16  16  16  16
#     4   9  18  33  53  78 109 146 186 223 264 324
#     4   9  18  34  53  73  98 134 181 223 260 309
#     4  11  22  33  50  81 116 142 169 218 284 340
#     4  11  20  32  52  78 109 141 175 222 273 321
#     4   8  16  33  53  71  98 140 184 217 250 308
#     4  10  21  36  54  75 102 142 187 225 265 318
#
# _framework density 19.044741999999999
#
# number of rings (size 3 to 8) (size 9 to 14) (size 15 to 20)
#    0.000    2.333    0.000    5.000    0.000    3.000 
#    0.000    1.667    0.000    1.000    0.000   14.000 
#    0.000    0.000    0.000    0.000    0.000    0.000 
#
# Total GULP energy -267490.480940 kJ/mol
# GULP energy per Si atom -5572.718353 kJ/mol
# Density = 1.900139 g / cm^3
# Si number density = 19.044742 Si / 1000 Ang^3
#
#
#
# Elastic Constant Matrix: (Units=GPa)
#
#
# Indices 1 2 3 4 5 6 
#
# 1 68.1234 26.4687 22.3292 0.0000 0.0000 0.0000
# 2 26.4687 139.5726 32.5895 0.0000 0.0000 0.0000
# 3 22.3292 32.5895 51.7091 0.0000 0.0000 0.0000
# 4 0.0000 0.0000 0.0000 32.5034 0.0000 0.0000
# 5 0.0000 0.0000 0.0000 0.0000 1.8668 0.0000
# 6 0.0000 0.0000 0.0000 0.0000 0.0000 14.7830
#
#
#
# Elastic Compliance Matrix: (Units=1/GPa)
#
#
# Indices 1 2 3 4 5 6 
#
# 1 0.017486 -0.001821 -0.006403 0.000000 0.000000 0.000000
# 2 -0.001821 0.008591 -0.004628 0.000000 0.000000 0.000000
# 3 -0.006403 -0.004628 0.025021 0.000000 0.000000 0.000000
# 4 0.000000 0.000000 0.000000 0.030766 0.000000 0.000000
# 5 0.000000 0.000000 0.000000 0.000000 0.535678 0.000000
# 6 0.000000 0.000000 0.000000 0.000000 0.000000 0.067645
#
#
# Mechanical properties :
#
#
# Convention : Reuss Voigt Hill
#
# Bulk Modulus (GPa) = 39.38077 46.90889 43.14483
# Shear Modulus (GPa) = 6.95068 21.69848 14.32458
#
# Velocity S-wave (km/s) = 1.91248 3.37908 2.74552
# Velocity P-wave (km/s) = 5.05961 6.31732 5.72312
#
# Compressibility (1/GPa) = 0.02539311
#
# Stress axis : x y z
#
# Youngs Moduli (GPa) = 57.19023 116.40572 39.96699
#
# Poissons Ratio (x) = 0.21196 0.25591
# Poissons Ratio (y) = 0.10414 0.18496
# Poissons Ratio (z) = 0.36619 0.53872
#
# Static dielectric constant tensor:
#      x y z
#    x 1.706750 0.000000 0.000000 
#    y 0.000000 1.665370 0.000000 
#    z 0.000000 0.000000 1.667950 
# 
# From -- ./inp_files/64990.got.cif
#   From: 2010.05.17/outbox.cif.g08.bks.cpg/sg63_33_cif.got.tgz:64990.got - 2010.06.03 15:47:04.
