data_PCOD9473032
_publ_section_title
;
Structure prediction by ZEFSAII (Michael W. Deem and Ramdas Pophale) SiO2 
 PCOD9473032
Probable space group: C M C M
;
_chemical_formula_sum "Si O2"
_cell_formula_units_Z 96
_cell_length_a 29.981050
_cell_length_b 19.801653
_cell_length_c 8.683065
_cell_angle_alpha 90.000000
_cell_angle_beta 90.000000
_cell_angle_gamma 90.000000
_cell_volume 5154.912958
_symmetry_space_group_name_H-M "C M C M"
_symmetry_group_IT_number 63
_symmetry_cell_setting 'orthorhombic'
loop_
_space_group_symop_operation_xyz
x,y,z
-x,-y,1/2+z
x,-y,-z
-x,y,1/2-z
-x,-y,-z
x,y,1/2-z
-x,y,z
x,-y,1/2+z
1/2+x,1/2+y,z
1/2-x,1/2-y,1/2+z
1/2+x,1/2-y,-z
1/2-x,1/2+y,1/2-z
1/2-x,1/2-y,-z
1/2+x,1/2+y,1/2-z
1/2-x,1/2+y,z
1/2+x,1/2-y,1/2+z
loop_
_atom_site_type_symbol
_atom_site_label
_atom_site_fract_x
_atom_site_fract_y
_atom_site_fract_z
Si Si1 0.946654 0.930787 0.575672
Si Si2 0.449171 0.924633 0.936261
Si Si3 0.302742 0.575691 0.564261
Si Si4 0.372077 0.178542 0.062292
Si Si5 0.114739 0.169595 0.566150
Si Si6 0.231321 0.321610 0.935778
O O1 0.930275 0.926398 0.750000
O O2 0.930199 0.867163 0.481356
O O3 0.000000 0.933478 0.577303
O O4 0.929915 0.000000 0.500000
O O5 0.447838 0.926996 0.750000
O O6 0.500000 0.903381 0.979773
O O7 0.409795 0.874428 0.989313
O O8 0.442206 0.000000 0.000000
O O9 0.304612 0.500000 0.500000
O O10 0.301893 0.573428 0.750000
O O11 0.345325 0.620617 0.513603
O O12 0.260666 0.617559 0.502012
O O13 0.373746 0.178207 0.250000
O O14 0.382419 0.254403 0.007007
O O15 0.320465 0.166355 0.020854
O O16 0.118215 0.173130 0.750000
O O17 0.234154 0.319163 0.750000
O O18 0.250000 0.250000 0.000000
#
# Coordination Sequence:
#
# PCOD9473032 Si02
#       6
#    16  16  16  16  16  16
#     4  10  21  36  53  76 107 143 184 229 277 330
#     4   9  18  35  59  84 113 149 187 231 286 342
#     4  11  23  39  58  85 115 149 193 239 288 345
#     4   9  19  36  58  85 113 145 187 234 280 337
#     4  10  20  36  57  81 110 143 184 233 282 338
#     4  11  21  38  60  83 115 153 192 241 293 348
#
# _framework density 18.623010000000001
#
# number of rings (size 3 to 8) (size 9 to 14) (size 15 to 20)
#    0.000    2.000    1.667    2.000    0.000    5.000 
#    0.000    5.833    0.000    2.000    0.000    0.000 
#    0.000    0.000    0.000    0.000    0.000    0.000 
#
# Total GULP energy -267823.367846 kJ/mol
# GULP energy per Si atom -5579.653497 kJ/mol
# Density = 1.858062 g / cm^3
# Si number density = 18.623010 Si / 1000 Ang^3
#
#
#
# Elastic Constant Matrix: (Units=GPa)
#
#
# Indices 1 2 3 4 5 6 
#
# 1 105.8966 77.4359 30.7980 0.0000 0.0000 0.0000
# 2 77.4359 143.5291 33.8913 0.0000 0.0000 0.0000
# 3 30.7980 33.8913 18.0409 0.0000 0.0000 0.0000
# 4 0.0000 0.0000 0.0000 30.5143 0.0000 0.0000
# 5 0.0000 0.0000 0.0000 0.0000 24.6012 0.0000
# 6 0.0000 0.0000 0.0000 0.0000 0.0000 138.6695
#
#
#
# Elastic Compliance Matrix: (Units=1/GPa)
#
#
# Indices 1 2 3 4 5 6 
#
# 1 0.020610 -0.005053 -0.025691 0.000000 0.000000 0.000000
# 2 -0.005053 0.013760 -0.017224 0.000000 0.000000 0.000000
# 3 -0.025691 -0.017224 0.131645 0.000000 0.000000 0.000000
# 4 0.000000 0.000000 0.000000 0.032772 0.000000 0.000000
# 5 0.000000 0.000000 0.000000 0.000000 0.040648 0.000000
# 6 0.000000 0.000000 0.000000 0.000000 0.000000 0.007211
#
#
# Mechanical properties :
#
#
# Convention : Reuss Voigt Hill
#
# Bulk Modulus (GPa) = 14.26975 61.30187 37.78581
# Shear Modulus (GPa) = 13.66333 47.11309 30.38821
#
# Velocity S-wave (km/s) = 2.71159 5.03520 4.04388
# Velocity P-wave (km/s) = 4.18123 8.17270 6.49137
#
# Compressibility (1/GPa) = 0.07007832
#
# Stress axis : x y z
#
# Youngs Moduli (GPa) = 48.52041 72.67218 7.59619
#
# Poissons Ratio (x) = 0.36720 0.19516
# Poissons Ratio (y) = 0.24517 0.13084
# Poissons Ratio (z) = 1.24656 1.25172
#
# Static dielectric constant tensor:
#      x y z
#    x 1.662270 0.000000 0.000000 
#    y 0.000000 1.608200 0.000000 
#    z 0.000000 0.000000 1.641760 
# 
# From -- ./inp_files/12406.got.cif
#   From: 2010.05.17/outbox.cif.g08.bks.cpg/sg63_7_cif.got.tgz:12406.got - 2010.06.03 15:47:04.
