data_PCOD9473576
_publ_section_title
;
Structure prediction by ZEFSAII (Michael W. Deem and Ramdas Pophale) SiO2 
 PCOD9473576
Probable space group: C M C M
;
_chemical_formula_sum "Si O2"
_cell_formula_units_Z 68
_cell_length_a 23.580056
_cell_length_b 5.349412
_cell_length_c 28.118870
_cell_angle_alpha 90.000000
_cell_angle_beta 90.000000
_cell_angle_gamma 90.000000
_cell_volume 3546.898361
_symmetry_space_group_name_H-M "C M C M"
_symmetry_group_IT_number 63
_symmetry_cell_setting 'orthorhombic'
loop_
_space_group_symop_operation_xyz
x,y,z
-x,-y,1/2+z
x,-y,-z
-x,y,1/2-z
-x,-y,-z
x,y,1/2-z
-x,y,z
x,-y,1/2+z
1/2+x,1/2+y,z
1/2-x,1/2-y,1/2+z
1/2+x,1/2-y,-z
1/2-x,1/2+y,1/2-z
1/2-x,1/2-y,-z
1/2+x,1/2+y,1/2-z
1/2-x,1/2+y,z
1/2+x,1/2-y,1/2+z
loop_
_atom_site_type_symbol
_atom_site_label
_atom_site_fract_x
_atom_site_fract_y
_atom_site_fract_z
Si Si1 0.068653 0.062133 0.858461
Si Si2 0.897611 0.183373 0.455706
Si Si3 0.930934 0.441198 0.195401
Si Si4 0.227031 0.709891 0.945860
Si Si5 0.500000 0.000000 0.000000
O O1 0.088829 0.991734 0.910890
O O2 0.085591 0.828545 0.825146
O O3 0.000000 0.069963 0.859849
O O4 0.087938 0.327757 0.837544
O O5 0.839914 0.333813 0.446989
O O6 0.950300 0.358960 0.468292
O O7 0.887628 0.000000 0.500000
O O8 0.913016 0.474610 0.250000
O O9 0.000000 0.445456 0.195143
O O10 0.259265 0.477524 0.923154
O O11 0.250000 0.750000 0.000000
#
# Coordination Sequence:
#
# PCOD9473576 Si02
#       5
#    16  16  16  16   4
#     4  10  21  33  50  79 112 144 188 228 272 348
#     4  12  25  36  56  79 122 161 198 230 284 345
#     4   9  18  34  54  73 103 145 186 232 282 329
#     4  10  20  39  58  76  99 150 198 255 278 307
#     4  12  26  36  52  78 118 176 186 214 282 352
#
# _framework density 19.171679999999999
#
# number of rings (size 3 to 8) (size 9 to 14) (size 15 to 20)
#    0.000    1.647    3.529    2.471    3.294    2.824 
#    0.000    0.000    0.000    0.000    0.000    0.000 
#    0.000   18.824    0.000    0.000    0.000    0.000 
#
# Total GULP energy -189300.103836 kJ/mol
# GULP energy per Si atom -5567.650113 kJ/mol
# Density = 1.912804 g / cm^3
# Si number density = 19.171680 Si / 1000 Ang^3
#
#
#
# Elastic Constant Matrix: (Units=GPa)
#
#
# Indices 1 2 3 4 5 6 
#
# 1 97.1148 18.4564 -12.1800 0.0000 0.0000 0.0000
# 2 18.4564 80.1201 -1.7451 0.0000 0.0000 0.0000
# 3 -12.1800 -1.7451 60.2428 0.0000 0.0000 0.0000
# 4 0.0000 0.0000 0.0000 30.9152 0.0000 0.0000
# 5 0.0000 0.0000 0.0000 0.0000 -2.2193 0.0000
# 6 0.0000 0.0000 0.0000 0.0000 0.0000 -7.0205
#
#
#
# Elastic Compliance Matrix: (Units=1/GPa)
#
#
# Indices 1 2 3 4 5 6 
#
# 1 0.011043 -0.002497 0.002160 0.000000 0.000000 0.000000
# 2 -0.002497 0.013054 -0.000127 0.000000 0.000000 0.000000
# 3 0.002160 -0.000127 0.017033 0.000000 0.000000 0.000000
# 4 0.000000 0.000000 0.000000 0.032347 0.000000 0.000000
# 5 0.000000 0.000000 0.000000 0.000000 -0.450586 0.000000
# 6 0.000000 0.000000 0.000000 0.000000 0.000000 -0.142440
#
#
# Mechanical properties :
#
#
# Convention : Reuss Voigt Hill
#
# Bulk Modulus (GPa) = 24.87402 27.39338 26.13370
# Shear Modulus (GPa) = -9.89660 19.86483 4.98412
#
# Velocity S-wave (km/s) = -2.27449 3.22243 1.61412
# Velocity P-wave (km/s) = 2.47079 5.30706 4.13942
#
# Compressibility (1/GPa) = 0.04020259
#
# Stress axis : x y z
#
# Youngs Moduli (GPa) = 90.55906 76.60694 58.71100
#
# Poissons Ratio (x) = 0.19126 -0.12683
# Poissons Ratio (y) = 0.22610 0.00744
# Poissons Ratio (z) = -0.19563 0.00970
#
# Static dielectric constant tensor:
#      x y z
#    x 1.633890 0.000000 0.000000 
#    y 0.000000 1.797850 0.000000 
#    z 0.000000 0.000000 1.669360 
# 
# From -- ./inp_files/70169.got.cif
#   From: 2010.05.17/outbox.cif.g08.bks.cpg/sg63_36_cif.got.tgz:70169.got - 2010.06.03 15:47:04.
