data_PCOD9473165
_publ_section_title
;
Structure prediction by ZEFSAII (Michael W. Deem and Ramdas Pophale) SiO2 
 PCOD9473165
Probable space group: C M C M
;
_chemical_formula_sum "Si O2"
_cell_formula_units_Z 100
_cell_length_a 19.851150
_cell_length_b 13.930434
_cell_length_c 20.121965
_cell_angle_alpha 90.000000
_cell_angle_beta 90.000000
_cell_angle_gamma 90.000000
_cell_volume 5564.430306
_symmetry_space_group_name_H-M "C M C M"
_symmetry_group_IT_number 63
_symmetry_cell_setting 'orthorhombic'
loop_
_space_group_symop_operation_xyz
x,y,z
-x,-y,1/2+z
x,-y,-z
-x,y,1/2-z
-x,-y,-z
x,y,1/2-z
-x,y,z
x,-y,1/2+z
1/2+x,1/2+y,z
1/2-x,1/2-y,1/2+z
1/2+x,1/2-y,-z
1/2-x,1/2+y,1/2-z
1/2-x,1/2-y,-z
1/2+x,1/2+y,1/2-z
1/2-x,1/2+y,z
1/2+x,1/2-y,1/2+z
loop_
_atom_site_type_symbol
_atom_site_label
_atom_site_fract_x
_atom_site_fract_y
_atom_site_fract_z
Si Si1 0.424395 0.339986 0.877156
Si Si2 0.387028 0.562215 0.642055
Si Si3 0.500000 0.614376 0.750000
Si Si4 0.733193 0.987137 0.174672
Si Si5 0.726725 0.155581 0.429797
Si Si6 0.697190 0.221306 0.675658
Si Si7 0.856972 0.187355 0.986334
O O1 0.500000 0.317925 0.857122
O O2 0.411715 0.453450 0.870579
O O3 0.370364 0.282208 0.833962
O O4 0.409196 0.313370 0.953408
O O5 0.440121 0.608340 0.692408
O O6 0.310713 0.548558 0.668892
O O7 0.381581 0.623924 0.574888
O O8 0.723860 0.025607 0.250000
O O9 0.688486 0.891941 0.166278
O O10 0.718975 0.063089 0.116574
O O11 0.752772 0.238001 0.379423
O O12 0.787444 0.142973 0.482640
O O13 0.663134 0.204427 0.464969
O O14 0.723840 0.235771 0.750000
#
# Coordination Sequence:
#
# PCOD9473165 Si02
#       7
#    16  16   4  16  16  16  16
#     4  11  24  38  59  85 120 159 196 240 297 359
#     4  12  22  36  56  84 125 156 195 233 289 355
#     4  12  28  36  50  92 124 170 200 224 300 372
#     4  11  21  36  59  87 119 154 192 248 294 350
#     4  10  20  36  59  85 118 151 196 247 302 345
#     4  10  21  35  57  88 114 150 200 245 298 342
#     4  10  22  37  55  87 116 157 196 240 292 355
#
# _framework density 17.971291999999998
#
# number of rings (size 3 to 8) (size 9 to 14) (size 15 to 20)
#    0.000    1.280    6.400    0.960    2.240    0.960 
#    1.440    0.000    0.000    1.920    0.000    0.000 
#    0.000    0.000    0.000    0.000    0.000    0.000 
#
# Total GULP energy -278530.619938 kJ/mol
# GULP energy per Si atom -5570.612399 kJ/mol
# Density = 1.793039 g / cm^3
# Si number density = 17.971292 Si / 1000 Ang^3
#
#
#
# Elastic Constant Matrix: (Units=GPa)
#
#
# Indices 1 2 3 4 5 6 
#
# 1 18.3461 -2.9859 -8.2850 0.0000 0.0000 0.0000
# 2 -2.9859 52.8601 22.0402 0.0000 0.0000 0.0000
# 3 -8.2850 22.0402 100.6149 0.0000 0.0000 0.0000
# 4 0.0000 0.0000 0.0000 53.2212 0.0000 0.0000
# 5 0.0000 0.0000 0.0000 0.0000 14.7790 0.0000
# 6 0.0000 0.0000 0.0000 0.0000 0.0000 8.2943
#
#
#
# Elastic Compliance Matrix: (Units=1/GPa)
#
#
# Indices 1 2 3 4 5 6 
#
# 1 0.056704 0.001382 0.004366 0.000000 0.000000 0.000000
# 2 0.001382 0.020853 -0.004454 0.000000 0.000000 0.000000
# 3 0.004366 -0.004454 0.011274 0.000000 0.000000 0.000000
# 4 0.000000 0.000000 0.000000 0.018790 0.000000 0.000000
# 5 0.000000 0.000000 0.000000 0.000000 0.067664 0.000000
# 6 0.000000 0.000000 0.000000 0.000000 0.000000 0.120564
#
#
# Mechanical properties :
#
#
# Convention : Reuss Voigt Hill
#
# Bulk Modulus (GPa) = 10.93840 21.48441 16.21141
# Shear Modulus (GPa) = 15.44483 25.99569 20.72026
#
# Velocity S-wave (km/s) = 2.93476 3.80743 3.39922
# Velocity P-wave (km/s) = 4.19328 5.59549 4.94434
#
# Compressibility (1/GPa) = 0.09142104
#
# Stress axis : x y z
#
# Youngs Moduli (GPa) = 17.63533 47.95446 88.69864
#
# Poissons Ratio (x) = -0.06630 -0.38729
# Poissons Ratio (y) = -0.02438 0.39508
# Poissons Ratio (z) = -0.07700 0.21360
#
# Static dielectric constant tensor:
#      x y z
#    x 1.602920 0.000000 0.000000 
#    y 0.000000 1.624800 0.000000 
#    z 0.000000 0.000000 1.639090 
# 
# From -- ./inp_files/47132.got.cif
#   From: 2010.05.17/outbox.cif.g08.bks.cpg/sg63_24_cif.got.tgz:47132.got - 2010.06.03 15:47:04.
