data_PCOD9473774
_publ_section_title
;
Structure prediction by ZEFSAII (Michael W. Deem and Ramdas Pophale) SiO2 
 PCOD9473774
Probable space group: C M C M
;
_chemical_formula_sum "Si O2"
_cell_formula_units_Z 88
_cell_length_a 17.548125
_cell_length_b 23.398809
_cell_length_c 9.334130
_cell_angle_alpha 90.000000
_cell_angle_beta 90.000000
_cell_angle_gamma 90.000000
_cell_volume 3832.642551
_symmetry_space_group_name_H-M "C M C M"
_symmetry_group_IT_number 63
_symmetry_cell_setting 'orthorhombic'
loop_
_space_group_symop_operation_xyz
x,y,z
-x,-y,1/2+z
x,-y,-z
-x,y,1/2-z
-x,-y,-z
x,y,1/2-z
-x,y,z
x,-y,1/2+z
1/2+x,1/2+y,z
1/2-x,1/2-y,1/2+z
1/2+x,1/2-y,-z
1/2-x,1/2+y,1/2-z
1/2-x,1/2-y,-z
1/2+x,1/2+y,1/2-z
1/2-x,1/2+y,z
1/2+x,1/2-y,1/2+z
loop_
_atom_site_type_symbol
_atom_site_label
_atom_site_fract_x
_atom_site_fract_y
_atom_site_fract_z
Si Si1 0.590235 0.551548 0.750000
Si Si2 0.712220 0.602510 0.951082
Si Si3 0.916187 0.193407 0.250000
Si Si4 0.624809 0.055954 0.592206
Si Si5 0.585334 0.835908 0.590581
Si Si6 0.644251 0.716645 0.918140
Si Si7 0.152389 0.923998 0.750000
O O1 0.500000 0.559134 0.750000
O O2 0.632755 0.580486 0.883859
O O3 0.614143 0.485499 0.750000
O O4 0.784445 0.567966 0.897800
O O5 0.711959 0.670053 0.917316
O O6 0.705722 0.587883 0.115857
O O7 0.885643 0.206945 0.414258
O O8 0.911348 0.124860 0.250000
O O9 0.000000 0.218409 0.250000
O O10 0.593569 0.048284 0.750000
O O11 0.594583 0.113610 0.520250
O O12 0.609950 0.000000 0.500000
O O13 0.590920 0.860999 0.750000
O O14 0.500000 0.809809 0.576325
O O15 0.646482 0.785116 0.581351
O O16 0.609934 0.706955 0.750000
#
# Coordination Sequence:
#
# PCOD9473774 Si02
#       7
#     8  16   8  16  16  16   8
#     4  12  23  38  61  91 134 180 229 287 350 406
#     4  11  24  43  65  99 133 184 238 286 341 421
#     4  10  21  34  57  91 125 172 234 278 340 412
#     4  12  26  45  73 102 139 185 234 289 353 422
#     4  10  24  45  72 106 140 180 231 290 361 429
#     4  10  21  43  66  96 137 181 222 284 348 416
#     4  10  23  38  56  86 133 176 231 293 338 400
#
# _framework density 22.960661000000002
#
# number of rings (size 3 to 8) (size 9 to 14) (size 15 to 20)
#    0.000    1.273    1.818    3.000    3.818    7.636 
#    0.000    0.000    0.000    0.000    0.000    0.000 
#    0.000    0.000    0.000    0.000    0.000    0.000 
#
# Total GULP energy -244944.417635 kJ/mol
# GULP energy per Si atom -5566.918583 kJ/mol
# Density = 2.290840 g / cm^3
# Si number density = 22.960661 Si / 1000 Ang^3
#
#
#
# Elastic Constant Matrix: (Units=GPa)
#
#
# Indices 1 2 3 4 5 6 
#
# 1 50.0518 9.2106 24.6581 0.0000 0.0000 0.0000
# 2 9.2106 133.8692 53.3522 0.0000 0.0000 0.0000
# 3 24.6581 53.3522 220.4339 0.0000 0.0000 0.0000
# 4 0.0000 0.0000 0.0000 16.8448 0.0000 0.0000
# 5 0.0000 0.0000 0.0000 0.0000 20.8801 0.0000
# 6 0.0000 0.0000 0.0000 0.0000 0.0000 10.1260
#
#
#
# Elastic Compliance Matrix: (Units=1/GPa)
#
#
# Indices 1 2 3 4 5 6 
#
# 1 0.021183 -0.000568 -0.002232 0.000000 0.000000 0.000000
# 2 -0.000568 0.008283 -0.001941 0.000000 0.000000 0.000000
# 3 -0.002232 -0.001941 0.005256 0.000000 0.000000 0.000000
# 4 0.000000 0.000000 0.000000 0.059365 0.000000 0.000000
# 5 0.000000 0.000000 0.000000 0.000000 0.047892 0.000000
# 6 0.000000 0.000000 0.000000 0.000000 0.000000 0.098756
#
#
# Mechanical properties :
#
#
# Convention : Reuss Voigt Hill
#
# Bulk Modulus (GPa) = 39.62003 64.31076 51.96539
# Shear Modulus (GPa) = 19.33253 30.71245 25.02249
#
# Velocity S-wave (km/s) = 2.90485 3.66131 3.30479
# Velocity P-wave (km/s) = 5.34265 6.77816 6.10276
#
# Compressibility (1/GPa) = 0.02523976
#
# Stress axis : x y z
#
# Youngs Moduli (GPa) = 47.20662 120.73386 190.25785
#
# Poissons Ratio (x) = 0.06856 0.42469
# Poissons Ratio (y) = 0.02681 0.36932
# Poissons Ratio (z) = 0.10537 0.23436
#
# Static dielectric constant tensor:
#      x y z
#    x 1.926590 0.000000 0.000000 
#    y 0.000000 1.824130 0.000000 
#    z 0.000000 0.000000 1.766690 
# 
# From -- ./inp_files/8304.got.cif
#   From: 2010.05.17/outbox.cif.g08.bks.cpg/sg63_5_cif.got.tgz:8304.got - 2010.06.03 15:47:04.
