data_PCOD9473440
_publ_section_title
;
Structure prediction by ZEFSAII (Michael W. Deem and Ramdas Pophale) SiO2 
 PCOD9473440
Probable space group: C M C M
;
_chemical_formula_sum "Si O2"
_cell_formula_units_Z 64
_cell_length_a 37.521133
_cell_length_b 9.194485
_cell_length_c 10.169118
_cell_angle_alpha 90.000000
_cell_angle_beta 90.000000
_cell_angle_gamma 90.000000
_cell_volume 3508.218541
_symmetry_space_group_name_H-M "C M C M"
_symmetry_group_IT_number 63
_symmetry_cell_setting 'orthorhombic'
loop_
_space_group_symop_operation_xyz
x,y,z
-x,-y,1/2+z
x,-y,-z
-x,y,1/2-z
-x,-y,-z
x,y,1/2-z
-x,y,z
x,-y,1/2+z
1/2+x,1/2+y,z
1/2-x,1/2-y,1/2+z
1/2+x,1/2-y,-z
1/2-x,1/2+y,1/2-z
1/2-x,1/2-y,-z
1/2+x,1/2+y,1/2-z
1/2-x,1/2+y,z
1/2+x,1/2-y,1/2+z
loop_
_atom_site_type_symbol
_atom_site_label
_atom_site_fract_x
_atom_site_fract_y
_atom_site_fract_z
Si Si1 0.541954 0.631922 0.596824
Si Si2 0.703960 0.724660 0.250000
Si Si3 0.722735 0.613868 0.750000
Si Si4 0.168373 0.829829 0.020550
Si Si5 0.101944 0.365912 0.598205
O O1 0.551302 0.500000 0.500000
O O2 0.547359 0.589544 0.750000
O O3 0.500000 0.664800 0.579189
O O4 0.566750 0.770092 0.571285
O O5 0.719743 0.560588 0.250000
O O6 0.736861 0.834180 0.250000
O O7 0.680637 0.735666 0.381468
O O8 0.701375 0.670078 0.877814
O O9 0.135574 0.740426 0.077772
O O10 0.158681 0.000000 0.000000
O O11 0.104431 0.500000 0.500000
O O12 0.101084 0.414361 0.750000
#
# Coordination Sequence:
#
# PCOD9473440 Si02
#       5
#    16   8   8  16  16
#     4   9  19  38  63  90 119 153 193 235 280 336
#     4  10  22  34  60  84 111 146 189 230 292 347
#     4  10  20  38  56  84 113 146 185 238 288 343
#     4  10  21  39  59  82 112 152 193 238 284 342
#     4  11  24  39  57  85 119 154 192 239 289 337
#
# _framework density 18.242878000000001
#
# number of rings (size 3 to 8) (size 9 to 14) (size 15 to 20)
#    0.000    2.000    1.250    1.500    1.750    3.500 
#    0.000    0.000    0.000    0.000    0.000    0.000 
#    0.000    0.000    0.000    0.000    0.000    0.000 
#
# Total GULP energy -178740.882957 kJ/mol
# GULP energy per Si atom -5585.652592 kJ/mol
# Density = 1.820136 g / cm^3
# Si number density = 18.242878 Si / 1000 Ang^3
#
#
#
# Elastic Constant Matrix: (Units=GPa)
#
#
# Indices 1 2 3 4 5 6 
#
# 1 49.6335 32.4696 21.2645 0.0000 0.0000 0.0000
# 2 32.4696 54.5030 35.8438 0.0000 0.0000 0.0000
# 3 21.2645 35.8438 88.9001 0.0000 0.0000 0.0000
# 4 0.0000 0.0000 0.0000 23.6895 0.0000 0.0000
# 5 0.0000 0.0000 0.0000 0.0000 19.1882 0.0000
# 6 0.0000 0.0000 0.0000 0.0000 0.0000 24.6314
#
#
#
# Elastic Compliance Matrix: (Units=1/GPa)
#
#
# Indices 1 2 3 4 5 6 
#
# 1 0.033014 -0.019698 0.000045 0.000000 0.000000 0.000000
# 2 -0.019698 0.036720 -0.010094 0.000000 0.000000 0.000000
# 3 0.000045 -0.010094 0.015308 0.000000 0.000000 0.000000
# 4 0.000000 0.000000 0.000000 0.042213 0.000000 0.000000
# 5 0.000000 0.000000 0.000000 0.000000 0.052115 0.000000
# 6 0.000000 0.000000 0.000000 0.000000 0.000000 0.040599
#
#
# Mechanical properties :
#
#
# Convention : Reuss Voigt Hill
#
# Bulk Modulus (GPa) = 39.13957 41.35472 40.24715
# Shear Modulus (GPa) = 17.36243 20.39907 18.88075
#
# Velocity S-wave (km/s) = 3.08837 3.34757 3.22058
# Velocity P-wave (km/s) = 5.84967 6.13676 5.99493
#
# Compressibility (1/GPa) = 0.02554959
#
# Stress axis : x y z
#
# Youngs Moduli (GPa) = 30.28990 27.23281 65.32716
#
# Poissons Ratio (x) = 0.53642 -0.00294
# Poissons Ratio (y) = 0.59664 0.65940
# Poissons Ratio (z) = -0.00136 0.27488
#
# Static dielectric constant tensor:
#      x y z
#    x 1.597280 0.000000 0.000000 
#    y 0.000000 1.593890 0.000000 
#    z 0.000000 0.000000 1.627480 
# 
# From -- ./inp_files/25507.got.cif
#   From: 2010.05.17/outbox.cif.g08.bks.cpg/sg63_13_cif.got.tgz:25507.got - 2010.06.03 15:47:04.
