data_PCOD9473312
_publ_section_title
;
Structure prediction by ZEFSAII (Michael W. Deem and Ramdas Pophale) SiO2 
 PCOD9473312
Probable space group: C M C M
;
_chemical_formula_sum "Si O2"
_cell_formula_units_Z 104
_cell_length_a 26.574063
_cell_length_b 24.470682
_cell_length_c 8.674941
_cell_angle_alpha 90.000000
_cell_angle_beta 90.000000
_cell_angle_gamma 90.000000
_cell_volume 5641.187870
_symmetry_space_group_name_H-M "C M C M"
_symmetry_group_IT_number 63
_symmetry_cell_setting 'orthorhombic'
loop_
_space_group_symop_operation_xyz
x,y,z
-x,-y,1/2+z
x,-y,-z
-x,y,1/2-z
-x,-y,-z
x,y,1/2-z
-x,y,z
x,-y,1/2+z
1/2+x,1/2+y,z
1/2-x,1/2-y,1/2+z
1/2+x,1/2-y,-z
1/2-x,1/2+y,1/2-z
1/2-x,1/2-y,-z
1/2+x,1/2+y,1/2-z
1/2-x,1/2+y,z
1/2+x,1/2-y,1/2+z
loop_
_atom_site_type_symbol
_atom_site_label
_atom_site_fract_x
_atom_site_fract_y
_atom_site_fract_z
Si Si1 0.610079 0.938501 0.564212
Si Si2 0.441878 0.354352 0.563581
Si Si3 0.284321 0.658185 0.435149
Si Si4 0.827000 0.342576 0.066670
Si Si5 0.870554 0.764297 0.433590
Si Si6 0.500000 0.061248 0.065169
Si Si7 0.143807 0.060716 0.065190
O O1 0.614496 0.938994 0.750000
O O2 0.651644 0.900265 0.490007
O O3 0.554308 0.915374 0.520639
O O4 0.613499 0.000000 0.500000
O O5 0.439084 0.350962 0.750000
O O6 0.500000 0.361804 0.519459
O O7 0.417577 0.299435 0.495046
O O8 0.405589 0.404621 0.515451
O O9 0.286237 0.664382 0.250000
O O10 0.228167 0.665332 0.494711
O O11 0.321489 0.702029 0.511049
O O12 0.308323 0.598897 0.474865
O O13 0.823819 0.339972 0.250000
O O14 0.863971 0.295426 0.004911
O O15 0.872034 0.760955 0.250000
O O16 0.500000 0.058338 0.250000
O O17 0.500000 0.000000 0.000000
O O18 0.142136 0.057023 0.250000
O O19 0.145739 0.000000 0.000000
#
# Coordination Sequence:
#
# PCOD9473312 Si02
#       7
#    16  16  16  16  16   8  16
#     4  10  20  37  58  83 112 145 182 228 278 331
#     4   9  19  38  60  82 114 154 193 237 290 341
#     4  10  21  39  59  80 111 150 188 233 286 339
#     4  12  24  38  57  84 113 147 189 233 282 340
#     4  11  22  38  59  84 112 145 187 235 285 342
#     4   8  16  32  56  78 102 136 174 214 261 314
#     4   9  19  34  55  83 115 151 190 232 280 335
#
# _framework density 18.435834
#
# number of rings (size 3 to 8) (size 9 to 14) (size 15 to 20)
#    0.000    2.000    0.000    5.077    0.000    4.923 
#    1.385    1.538    0.000    0.000    0.000    0.000 
#    0.000    0.000    0.000    0.000    0.000    0.000 
#
# Total GULP energy -290250.616401 kJ/mol
# GULP energy per Si atom -5581.742623 kJ/mol
# Density = 1.839387 g / cm^3
# Si number density = 18.435834 Si / 1000 Ang^3
#
#
#
# Elastic Constant Matrix: (Units=GPa)
#
#
# Indices 1 2 3 4 5 6 
#
# 1 23.6742 3.1156 7.9755 0.0000 0.0000 0.0000
# 2 3.1156 89.1346 13.0318 0.0000 0.0000 0.0000
# 3 7.9755 13.0318 46.0748 0.0000 0.0000 0.0000
# 4 0.0000 0.0000 0.0000 34.5078 0.0000 0.0000
# 5 0.0000 0.0000 0.0000 0.0000 25.0896 0.0000
# 6 0.0000 0.0000 0.0000 0.0000 0.0000 10.4849
#
#
#
# Elastic Compliance Matrix: (Units=1/GPa)
#
#
# Indices 1 2 3 4 5 6 
#
# 1 0.044873 -0.000452 -0.007640 0.000000 0.000000 0.000000
# 2 -0.000452 0.011707 -0.003233 0.000000 0.000000 0.000000
# 3 -0.007640 -0.003233 0.023941 0.000000 0.000000 0.000000
# 4 0.000000 0.000000 0.000000 0.028979 0.000000 0.000000
# 5 0.000000 0.000000 0.000000 0.000000 0.039857 0.000000
# 6 0.000000 0.000000 0.000000 0.000000 0.000000 0.095375
#
#
# Mechanical properties :
#
#
# Convention : Reuss Voigt Hill
#
# Bulk Modulus (GPa) = 17.27938 23.01439 20.14688
# Shear Modulus (GPa) = 17.44151 23.00052 20.22101
#
# Velocity S-wave (km/s) = 3.07915 3.53597 3.31544
# Velocity P-wave (km/s) = 4.69411 5.40198 5.06044
#
# Compressibility (1/GPa) = 0.05787246
#
# Stress axis : x y z
#
# Youngs Moduli (GPa) = 22.28502 85.41552 41.76982
#
# Poissons Ratio (x) = 0.03857 0.31911
# Poissons Ratio (y) = 0.01006 0.13505
# Poissons Ratio (z) = 0.17025 0.27616
#
# Static dielectric constant tensor:
#      x y z
#    x 1.642450 0.000000 0.000000 
#    y 0.000000 1.633080 0.000000 
#    z 0.000000 0.000000 1.615360 
# 
# From -- ./inp_files/12600.got.cif
#   From: 2010.05.17/outbox.cif.g08.bks.cpg/sg63_7_cif.got.tgz:12600.got - 2010.06.03 15:47:04.
