data_PCOD9473135
_publ_section_title
;
Structure prediction by ZEFSAII (Michael W. Deem and Ramdas Pophale) SiO2 
 PCOD9473135
Probable space group: C M C M
;
_chemical_formula_sum "Si O2"
_cell_formula_units_Z 52
_cell_length_a 7.606710
_cell_length_b 19.171459
_cell_length_c 13.716598
_cell_angle_alpha 90.000000
_cell_angle_beta 90.000000
_cell_angle_gamma 90.000000
_cell_volume 2000.315201
_symmetry_space_group_name_H-M "C M C M"
_symmetry_group_IT_number 63
_symmetry_cell_setting 'orthorhombic'
loop_
_space_group_symop_operation_xyz
x,y,z
-x,-y,1/2+z
x,-y,-z
-x,y,1/2-z
-x,-y,-z
x,y,1/2-z
-x,y,z
x,-y,1/2+z
1/2+x,1/2+y,z
1/2-x,1/2-y,1/2+z
1/2+x,1/2-y,-z
1/2-x,1/2+y,1/2-z
1/2-x,1/2-y,-z
1/2+x,1/2+y,1/2-z
1/2-x,1/2+y,z
1/2+x,1/2-y,1/2+z
loop_
_atom_site_type_symbol
_atom_site_label
_atom_site_fract_x
_atom_site_fract_y
_atom_site_fract_z
Si Si1 0.708820 0.689234 0.358225
Si Si2 0.500000 0.451543 0.750000
Si Si3 0.787816 0.155987 0.573968
Si Si4 0.197185 0.494330 0.114979
O O1 0.782685 0.673682 0.250000
O O2 0.500000 0.673468 0.350821
O O3 0.729218 0.772073 0.376958
O O4 0.776660 0.657361 0.460498
O O5 0.654384 0.462483 0.667381
O O6 0.723681 0.088448 0.631466
O O7 0.000000 0.154845 0.571584
O O8 0.000000 0.515115 0.140544
O O9 0.220663 0.500000 0.000000
#
# Coordination Sequence:
#
# PCOD9473135 Si02
#       4
#    16   4  16  16
#     4   9  19  35  56  85 120 164 214 262 314 378
#     4  12  24  44  72 100 120 176 220 272 318 398
#     4  10  20  36  58  87 124 166 210 261 320 380
#     4  11  25  45  67  97 134 169 216 272 328 387
#
# _framework density 25.995902000000001
#
# number of rings (size 3 to 8) (size 9 to 14) (size 15 to 20)
#    0.000    1.846    1.538    1.846    2.154    1.846 
#    2.769    0.000    0.000    0.000    0.000    0.000 
#    0.000    0.000    0.000    0.000    0.000    0.000 
#
# Total GULP energy -145235.730188 kJ/mol
# GULP energy per Si atom -5585.989623 kJ/mol
# Density = 2.593673 g / cm^3
# Si number density = 25.995902 Si / 1000 Ang^3
#
#
#
# Elastic Constant Matrix: (Units=GPa)
#
#
# Indices 1 2 3 4 5 6 
#
# 1 163.0595 13.7313 48.3954 0.0000 0.0000 0.0000
# 2 13.7313 124.0331 19.1508 0.0000 0.0000 0.0000
# 3 48.3954 19.1508 189.3384 0.0000 0.0000 0.0000
# 4 0.0000 0.0000 0.0000 -167.3162 0.0000 0.0000
# 5 0.0000 0.0000 0.0000 0.0000 64.8603 0.0000
# 6 0.0000 0.0000 0.0000 0.0000 0.0000 39.9055
#
#
#
# Elastic Compliance Matrix: (Units=1/GPa)
#
#
# Indices 1 2 3 4 5 6 
#
# 1 0.006664 -0.000482 -0.001655 0.000000 0.000000 0.000000
# 2 -0.000482 0.008225 -0.000709 0.000000 0.000000 0.000000
# 3 -0.001655 -0.000709 0.005776 0.000000 0.000000 0.000000
# 4 0.000000 0.000000 0.000000 -0.005977 0.000000 0.000000
# 5 0.000000 0.000000 0.000000 0.000000 0.015418 0.000000
# 6 0.000000 0.000000 0.000000 0.000000 0.000000 0.025059
#
#
# Mechanical properties :
#
#
# Convention : Reuss Voigt Hill
#
# Bulk Modulus (GPa) = 66.78019 70.99843 68.88931
# Shear Modulus (GPa) = 75.93155 13.83351 44.88253
#
# Velocity S-wave (km/s) = 5.41040 2.30932 4.15965
# Velocity P-wave (km/s) = 8.04826 5.87208 7.04471
#
# Compressibility (1/GPa) = 0.01497450
#
# Stress axis : x y z
#
# Youngs Moduli (GPa) = 150.05004 121.57789 173.12531
#
# Poissons Ratio (x) = 0.05864 0.28646
# Poissons Ratio (y) = 0.07237 0.12269
# Poissons Ratio (z) = 0.24828 0.08616
#
# Static dielectric constant tensor:
#      x y z
#    x 1.935280 0.000000 0.000000 
#    y 0.000000 2.145680 0.000000 
#    z 0.000000 0.000000 1.894380 
# 
# From -- ./inp_files/27109.got.cif
#   From: 2010.05.17/outbox.cif.g08.bks.cpg/sg63_14_cif.got.tgz:27109.got - 2010.06.03 15:47:04.
