data_PCOD9473361
_publ_section_title
;
Structure prediction by ZEFSAII (Michael W. Deem and Ramdas Pophale) SiO2 
 PCOD9473361
Probable space group: C M C M
;
_chemical_formula_sum "Si O2"
_cell_formula_units_Z 80
_cell_length_a 8.933716
_cell_length_b 25.470720
_cell_length_c 18.624910
_cell_angle_alpha 90.000000
_cell_angle_beta 90.000000
_cell_angle_gamma 90.000000
_cell_volume 4238.064351
_symmetry_space_group_name_H-M "C M C M"
_symmetry_group_IT_number 63
_symmetry_cell_setting 'orthorhombic'
loop_
_space_group_symop_operation_xyz
x,y,z
-x,-y,1/2+z
x,-y,-z
-x,y,1/2-z
-x,-y,-z
x,y,1/2-z
-x,y,z
x,-y,1/2+z
1/2+x,1/2+y,z
1/2-x,1/2-y,1/2+z
1/2+x,1/2-y,-z
1/2-x,1/2+y,1/2-z
1/2-x,1/2-y,-z
1/2+x,1/2+y,1/2-z
1/2-x,1/2+y,z
1/2+x,1/2-y,1/2+z
loop_
_atom_site_type_symbol
_atom_site_label
_atom_site_fract_x
_atom_site_fract_y
_atom_site_fract_z
Si Si1 0.178972 0.485862 0.332552
Si Si2 0.320260 0.826767 0.666657
Si Si3 0.319809 0.392683 0.413460
Si Si4 0.820458 0.772149 0.072938
Si Si5 0.678854 0.579082 0.423022
O O1 0.219823 0.498081 0.250000
O O2 0.240680 0.429271 0.355639
O O3 0.248724 0.528677 0.385831
O O4 0.000000 0.487158 0.338275
O O5 0.279525 0.831905 0.750000
O O6 0.500000 0.834736 0.660552
O O7 0.285971 0.769060 0.635879
O O8 0.238123 0.869833 0.618662
O O9 0.500000 0.395374 0.404225
O O10 0.273036 0.331726 0.411340
O O11 0.283865 0.414699 0.492965
O O12 0.000000 0.773335 0.063575
O O13 0.750000 0.750000 0.000000
O O14 0.500000 0.575766 0.417231
#
# Coordination Sequence:
#
# PCOD9473361 Si02
#       5
#    16  16  16  16  16
#     4  11  25  42  59  84 118 155 197 243 294 352
#     4  10  21  36  57  87 120 156 197 239 289 348
#     4  10  22  39  61  89 118 152 197 243 289 349
#     4  10  20  37  60  86 118 155 193 238 287 342
#     4  11  22  38  61  89 118 151 195 244 294 349
#
# _framework density 18.876541
#
# number of rings (size 3 to 8) (size 9 to 14) (size 15 to 20)
#    0.000    1.600    2.000    2.400    0.000   10.000 
#    0.000    2.000    0.000    0.000    0.000    0.000 
#    0.000    0.000    0.000    0.000    0.000    0.000 
#
# Total GULP energy -223564.890280 kJ/mol
# GULP energy per Si atom -5589.122257 kJ/mol
# Density = 1.883358 g / cm^3
# Si number density = 18.876541 Si / 1000 Ang^3
#
#
#
# Elastic Constant Matrix: (Units=GPa)
#
#
# Indices 1 2 3 4 5 6 
#
# 1 16.3750 16.1760 16.0578 0.0000 0.0000 0.0000
# 2 16.1760 100.2530 -6.8911 0.0000 0.0000 0.0000
# 3 16.0578 -6.8911 35.9334 0.0000 0.0000 0.0000
# 4 0.0000 0.0000 0.0000 11.3052 0.0000 0.0000
# 5 0.0000 0.0000 0.0000 0.0000 26.7234 0.0000
# 6 0.0000 0.0000 0.0000 0.0000 0.0000 33.7912
#
#
#
# Elastic Compliance Matrix: (Units=1/GPa)
#
#
# Indices 1 2 3 4 5 6 
#
# 1 0.183440 -0.035704 -0.088822 0.000000 0.000000 0.000000
# 2 -0.035704 0.017057 0.019226 0.000000 0.000000 0.000000
# 3 -0.088822 0.019226 0.071209 0.000000 0.000000 0.000000
# 4 0.000000 0.000000 0.000000 0.088455 0.000000 0.000000
# 5 0.000000 0.000000 0.000000 0.000000 0.037420 0.000000
# 6 0.000000 0.000000 0.000000 0.000000 0.000000 0.029593
#
#
# Mechanical properties :
#
#
# Convention : Reuss Voigt Hill
#
# Bulk Modulus (GPa) = 16.36477 22.58300 19.47388
# Shear Modulus (GPa) = 7.59713 22.84520 15.22116
#
# Velocity S-wave (km/s) = 2.00833 3.48263 2.84272
# Velocity P-wave (km/s) = 3.75047 5.30670 4.59495
#
# Compressibility (1/GPa) = 0.06110689
#
# Stress axis : x y z
#
# Youngs Moduli (GPa) = 5.45137 58.62627 14.04317
#
# Poissons Ratio (x) = 2.09318 1.24735
# Poissons Ratio (y) = 0.19463 -0.27000
# Poissons Ratio (z) = 0.48420 -1.12717
#
# Static dielectric constant tensor:
#      x y z
#    x 1.631160 0.000000 0.000000 
#    y 0.000000 1.649940 0.000000 
#    z 0.000000 0.000000 1.628120 
# 
# From -- ./inp_files/40427.got.cif
#   From: 2010.05.17/outbox.cif.g08.bks.cpg/sg63_21_cif.got.tgz:40427.got - 2010.06.03 15:47:04.
