data_PCOD9473269
_publ_section_title
;
Structure prediction by ZEFSAII (Michael W. Deem and Ramdas Pophale) SiO2 
 PCOD9473269
Probable space group: C M C M
;
_chemical_formula_sum "Si O2"
_cell_formula_units_Z 100
_cell_length_a 7.739994
_cell_length_b 29.217661
_cell_length_c 22.654827
_cell_angle_alpha 90.000000
_cell_angle_beta 90.000000
_cell_angle_gamma 90.000000
_cell_volume 5123.264996
_symmetry_space_group_name_H-M "C M C M"
_symmetry_group_IT_number 63
_symmetry_cell_setting 'orthorhombic'
loop_
_space_group_symop_operation_xyz
x,y,z
-x,-y,1/2+z
x,-y,-z
-x,y,1/2-z
-x,-y,-z
x,y,1/2-z
-x,y,z
x,-y,1/2+z
1/2+x,1/2+y,z
1/2-x,1/2-y,1/2+z
1/2+x,1/2-y,-z
1/2-x,1/2+y,1/2-z
1/2-x,1/2-y,-z
1/2+x,1/2+y,1/2-z
1/2-x,1/2+y,z
1/2+x,1/2-y,1/2+z
loop_
_atom_site_type_symbol
_atom_site_label
_atom_site_fract_x
_atom_site_fract_y
_atom_site_fract_z
Si Si1 0.206430 0.535538 0.316360
Si Si2 0.500000 0.271188 0.750000
Si Si3 0.298958 0.517101 0.563787
Si Si4 0.707134 0.215740 0.946823
Si Si5 0.696824 0.779788 0.654373
Si Si6 0.709426 0.887247 0.478671
Si Si7 0.291469 0.119220 0.389325
O O1 0.272379 0.523429 0.250000
O O2 0.234745 0.503538 0.374006
O O3 0.272572 0.585403 0.338142
O O4 0.000000 0.538357 0.310623
O O5 0.347305 0.272013 0.700064
O O6 0.221716 0.500000 0.500000
O O7 0.500000 0.505162 0.562196
O O8 0.274126 0.571681 0.561761
O O9 0.500000 0.215531 0.938622
O O10 0.797035 0.237855 0.890718
O O11 0.761522 0.163787 0.960091
O O12 0.750000 0.250000 0.000000
O O13 0.500000 0.784907 0.677281
O O14 0.741592 0.827630 0.621711
O O15 0.500000 0.888513 0.478563
O O16 0.771092 0.895280 0.545982
O O17 0.500000 0.114618 0.390631
#
# Coordination Sequence:
#
# PCOD9473269 Si02
#       7
#    16   4  16  16  16  16  16
#     4  10  21  38  62  87 118 161 209 254 310 378
#     4  12  26  44  60  94 128 182 224 254 320 398
#     4  11  23  38  56  88 123 158 205 261 315 373
#     4  11  21  37  61  96 130 161 209 263 325 385
#     4  11  23  42  64  91 131 173 216 267 317 381
#     4  10  20  36  63  90 120 162 203 256 311 375
#     4   9  18  35  59  92 124 159 203 250 310 382
#
# _framework density 19.518803999999999
#
# number of rings (size 3 to 8) (size 9 to 14) (size 15 to 20)
#    0.000    1.600    4.000    1.200    1.120    2.240 
#    2.880    0.000    1.760    0.000    0.000    0.000 
#    0.000    0.000    0.000    0.000    0.000    0.000 
#
# Total GULP energy -278380.147598 kJ/mol
# GULP energy per Si atom -5567.602952 kJ/mol
# Density = 1.947438 g / cm^3
# Si number density = 19.518804 Si / 1000 Ang^3
#
#
#
# Elastic Constant Matrix: (Units=GPa)
#
#
# Indices 1 2 3 4 5 6 
#
# 1 68.9138 4.5823 29.4001 0.0000 0.0000 0.0000
# 2 4.5823 113.6063 59.9372 0.0000 0.0000 0.0000
# 3 29.4001 59.9372 140.5707 0.0000 0.0000 0.0000
# 4 0.0000 0.0000 0.0000 152.2739 0.0000 0.0000
# 5 0.0000 0.0000 0.0000 0.0000 29.3314 0.0000
# 6 0.0000 0.0000 0.0000 0.0000 0.0000 17.1914
#
#
#
# Elastic Compliance Matrix: (Units=1/GPa)
#
#
# Indices 1 2 3 4 5 6 
#
# 1 0.016117 0.001456 -0.003992 0.000000 0.000000 0.000000
# 2 0.001456 0.011489 -0.005203 0.000000 0.000000 0.000000
# 3 -0.003992 -0.005203 0.010167 0.000000 0.000000 0.000000
# 4 0.000000 0.000000 0.000000 0.006567 0.000000 0.000000
# 5 0.000000 0.000000 0.000000 0.000000 0.034093 0.000000
# 6 0.000000 0.000000 0.000000 0.000000 0.000000 0.058168
#
#
# Mechanical properties :
#
#
# Convention : Reuss Voigt Hill
#
# Bulk Modulus (GPa) = 44.85271 56.76999 50.81135
# Shear Modulus (GPa) = 31.34581 55.03745 43.19163
#
# Velocity S-wave (km/s) = 4.01175 5.31586 4.70917
# Velocity P-wave (km/s) = 6.66993 8.17470 7.46035
#
# Compressibility (1/GPa) = 0.02229520
#
# Stress axis : x y z
#
# Youngs Moduli (GPa) = 62.04643 87.04217 98.35549
#
# Poissons Ratio (x) = -0.12672 0.39259
# Poissons Ratio (y) = -0.09033 0.51175
# Poissons Ratio (z) = 0.24766 0.45289
#
# Static dielectric constant tensor:
#      x y z
#    x 1.738320 0.000000 0.000000 
#    y 0.000000 1.701460 0.000000 
#    z 0.000000 0.000000 1.707730 
# 
# From -- ./inp_files/51500.got.cif
#   From: 2010.05.17/outbox.cif.g08.bks.cpg/sg63_26_cif.got.tgz:51500.got - 2010.06.03 15:47:04.
