data_PCOD9473637
_publ_section_title
;
Structure prediction by ZEFSAII (Michael W. Deem and Ramdas Pophale) SiO2 
 PCOD9473637
Probable space group: C M C M
;
_chemical_formula_sum "Si O2"
_cell_formula_units_Z 96
_cell_length_a 8.865811
_cell_length_b 24.124127
_cell_length_c 25.755020
_cell_angle_alpha 90.000000
_cell_angle_beta 90.000000
_cell_angle_gamma 90.000000
_cell_volume 5508.482403
_symmetry_space_group_name_H-M "C M C M"
_symmetry_group_IT_number 63
_symmetry_cell_setting 'orthorhombic'
loop_
_space_group_symop_operation_xyz
x,y,z
-x,-y,1/2+z
x,-y,-z
-x,y,1/2-z
-x,-y,-z
x,y,1/2-z
-x,y,z
x,-y,1/2+z
1/2+x,1/2+y,z
1/2-x,1/2-y,1/2+z
1/2+x,1/2-y,-z
1/2-x,1/2+y,1/2-z
1/2-x,1/2-y,-z
1/2+x,1/2+y,1/2-z
1/2-x,1/2+y,z
1/2+x,1/2-y,1/2+z
loop_
_atom_site_type_symbol
_atom_site_label
_atom_site_fract_x
_atom_site_fract_y
_atom_site_fract_z
Si Si1 0.319528 0.683939 0.311163
Si Si2 0.318690 0.311036 0.503459
Si Si3 0.681776 0.496747 0.938548
Si Si4 0.181730 0.311446 0.190357
Si Si5 0.679483 0.117817 0.096822
Si Si6 0.181142 0.118113 0.598951
O O1 0.291672 0.674775 0.250000
O O2 0.500000 0.679100 0.319644
O O3 0.275602 0.747840 0.323045
O O4 0.233648 0.642027 0.348245
O O5 0.500000 0.308398 0.507503
O O6 0.250000 0.250000 0.500000
O O7 0.253142 0.343392 0.552698
O O8 0.279191 0.345479 0.451642
O O9 0.500000 0.490265 0.934560
O O10 0.760761 0.444022 0.913286
O O11 0.725913 0.554687 0.911940
O O12 0.717210 0.500000 0.000000
O O13 0.228579 0.322100 0.250000
O O14 0.248240 0.354183 0.149519
O O15 0.000000 0.313620 0.188881
O O16 0.500000 0.119720 0.092712
O O17 0.000000 0.119187 0.603571
#
# Coordination Sequence:
#
# PCOD9473637 Si02
#       6
#    16  16  16  16  16  16
#     4   9  19  38  62  84 110 151 195 232 279 339
#     4  11  22  37  55  82 116 148 184 231 285 340
#     4  10  20  40  61  77 106 153 196 236 281 328
#     4   9  19  36  58  84 114 147 182 225 280 335
#     4  12  24  36  55  86 117 148 187 233 287 344
#     4  10  21  36  57  82 108 143 189 232 277 329
#
# _framework density 17.427669000000002
#
# number of rings (size 3 to 8) (size 9 to 14) (size 15 to 20)
#    0.000    1.833    1.667    4.000    0.000    6.333 
#    0.000    2.500    0.000    1.000    0.000    0.000 
#    0.000    0.000    0.000    0.000    0.000    0.000 
#
# Total GULP energy -268129.637824 kJ/mol
# GULP energy per Si atom -5586.034121 kJ/mol
# Density = 1.738800 g / cm^3
# Si number density = 17.427669 Si / 1000 Ang^3
#
#
#
# Elastic Constant Matrix: (Units=GPa)
#
#
# Indices 1 2 3 4 5 6 
#
# 1 51.7432 64.1656 50.2817 0.0000 0.0000 0.0000
# 2 64.1656 176.3000 88.4719 0.0000 0.0000 0.0000
# 3 50.2817 88.4719 99.6677 0.0000 0.0000 0.0000
# 4 0.0000 0.0000 0.0000 14.6442 0.0000 0.0000
# 5 0.0000 0.0000 0.0000 0.0000 28.8704 0.0000
# 6 0.0000 0.0000 0.0000 0.0000 0.0000 29.5672
#
#
#
# Elastic Compliance Matrix: (Units=1/GPa)
#
#
# Indices 1 2 3 4 5 6 
#
# 1 0.044495 -0.008889 -0.014557 0.000000 0.000000 0.000000
# 2 -0.008889 0.012004 -0.006171 0.000000 0.000000 0.000000
# 3 -0.014557 -0.006171 0.022855 0.000000 0.000000 0.000000
# 4 0.000000 0.000000 0.000000 0.068287 0.000000 0.000000
# 5 0.000000 0.000000 0.000000 0.000000 0.034638 0.000000
# 6 0.000000 0.000000 0.000000 0.000000 0.000000 0.033821
#
#
# Mechanical properties :
#
#
# Convention : Reuss Voigt Hill
#
# Bulk Modulus (GPa) = 49.70164 81.50545 65.60355
# Shear Modulus (GPa) = 17.72785 22.93582 20.33183
#
# Velocity S-wave (km/s) = 3.19286 3.63169 3.41932
# Velocity P-wave (km/s) = 6.49409 8.02838 7.30165
#
# Compressibility (1/GPa) = 0.02012006
#
# Stress axis : x y z
#
# Youngs Moduli (GPa) = 22.47420 83.30250 43.75375
#
# Poissons Ratio (x) = 0.74052 0.63691
# Poissons Ratio (y) = 0.19978 0.27002
# Poissons Ratio (z) = 0.32715 0.51408
#
# Static dielectric constant tensor:
#      x y z
#    x 1.580840 0.000000 0.000000 
#    y 0.000000 1.571430 0.000000 
#    z 0.000000 0.000000 1.574530 
# 
# From -- ./inp_files/59871.got.cif
#   From: 2010.05.17/outbox.cif.g08.bks.cpg/sg63_30_cif.got.tgz:59871.got - 2010.06.03 15:47:04.
