data_PCOD9473401
_publ_section_title
;
Structure prediction by ZEFSAII (Michael W. Deem and Ramdas Pophale) SiO2 
 PCOD9473401
Probable space group: C M C M
;
_chemical_formula_sum "Si O2"
_cell_formula_units_Z 96
_cell_length_a 16.053336
_cell_length_b 16.895788
_cell_length_c 19.754995
_cell_angle_alpha 90.000000
_cell_angle_beta 90.000000
_cell_angle_gamma 90.000000
_cell_volume 5358.221607
_symmetry_space_group_name_H-M "C M C M"
_symmetry_group_IT_number 63
_symmetry_cell_setting 'orthorhombic'
loop_
_space_group_symop_operation_xyz
x,y,z
-x,-y,1/2+z
x,-y,-z
-x,y,1/2-z
-x,-y,-z
x,y,1/2-z
-x,y,z
x,-y,1/2+z
1/2+x,1/2+y,z
1/2-x,1/2-y,1/2+z
1/2+x,1/2-y,-z
1/2-x,1/2+y,1/2-z
1/2-x,1/2-y,-z
1/2+x,1/2+y,1/2-z
1/2-x,1/2+y,z
1/2+x,1/2-y,1/2+z
loop_
_atom_site_type_symbol
_atom_site_label
_atom_site_fract_x
_atom_site_fract_y
_atom_site_fract_z
Si Si1 0.000000 0.475174 0.111241
Si Si2 0.806346 0.815552 0.173038
Si Si3 0.173215 0.564674 0.672594
Si Si4 0.719793 0.540709 0.428342
Si Si5 0.402006 0.517040 0.827647
Si Si6 0.816969 0.297262 0.952872
Si Si7 0.500000 0.131866 0.476430
O O1 0.078680 0.450509 0.155549
O O2 0.000000 0.566983 0.085520
O O3 0.000000 0.421802 0.043687
O O4 0.819359 0.787211 0.250000
O O5 0.711303 0.847349 0.166169
O O6 0.825861 0.752709 0.115989
O O7 0.861392 0.895507 0.164019
O O8 0.192295 0.540267 0.750000
O O9 0.220240 0.514217 0.616195
O O10 0.701716 0.500000 0.500000
O O11 0.637872 0.542245 0.381885
O O12 0.768994 0.620963 0.439824
O O13 0.385045 0.492436 0.750000
O O14 0.500000 0.523470 0.836753
O O15 0.912325 0.318795 0.975929
O O16 0.750000 0.250000 0.000000
#
# Coordination Sequence:
#
# PCOD9473401 Si02
#       7
#     8  16  16  16  16  16   8
#     4  11  19  38  62  86 118 148 198 254 298 344
#     4   9  20  37  58  83 116 153 188 238 297 355
#     4  10  20  37  62  89 115 153 201 244 297 361
#     4  11  21  37  59  85 115 154 197 247 296 356
#     4   9  19  38  62  84 112 151 197 247 298 351
#     4  12  24  40  58  86 121 161 196 239 303 362
#     4  11  24  38  60  88 119 158 196 250 303 353
#
# _framework density 17.916391999999998
#
# number of rings (size 3 to 8) (size 9 to 14) (size 15 to 20)
#    0.000    1.667    1.667    5.750    1.167    1.667 
#    1.500    0.000    0.000    0.000    0.000    0.000 
#    0.000    0.000    0.000    0.000    0.000    0.000 
#
# Total GULP energy -267438.690052 kJ/mol
# GULP energy per Si atom -5571.639376 kJ/mol
# Density = 1.787561 g / cm^3
# Si number density = 17.916392 Si / 1000 Ang^3
#
#
#
# Elastic Constant Matrix: (Units=GPa)
#
#
# Indices 1 2 3 4 5 6 
#
# 1 140.7578 28.0699 44.9225 0.0000 0.0000 0.0000
# 2 28.0699 55.5936 41.7603 0.0000 0.0000 0.0000
# 3 44.9225 41.7603 100.1899 0.0000 0.0000 0.0000
# 4 0.0000 0.0000 0.0000 32.4021 0.0000 0.0000
# 5 0.0000 0.0000 0.0000 0.0000 22.0413 0.0000
# 6 0.0000 0.0000 0.0000 0.0000 0.0000 6.8360
#
#
#
# Elastic Compliance Matrix: (Units=1/GPa)
#
#
# Indices 1 2 3 4 5 6 
#
# 1 0.008451 -0.002068 -0.002927 0.000000 0.000000 0.000000
# 2 -0.002068 0.026693 -0.010198 0.000000 0.000000 0.000000
# 3 -0.002927 -0.010198 0.015544 0.000000 0.000000 0.000000
# 4 0.000000 0.000000 0.000000 0.030862 0.000000 0.000000
# 5 0.000000 0.000000 0.000000 0.000000 0.045369 0.000000
# 6 0.000000 0.000000 0.000000 0.000000 0.000000 0.146284
#
#
# Mechanical properties :
#
#
# Convention : Reuss Voigt Hill
#
# Bulk Modulus (GPa) = 49.26019 58.44963 53.85491
# Shear Modulus (GPa) = 16.11043 24.37513 20.24278
#
# Velocity S-wave (km/s) = 3.00192 3.69249 3.36497
# Velocity P-wave (km/s) = 6.29043 7.13258 6.72470
#
# Compressibility (1/GPa) = 0.02030037
#
# Stress axis : x y z
#
# Youngs Moduli (GPa) = 118.32854 37.46331 64.33204
#
# Poissons Ratio (x) = 0.07748 0.18831
# Poissons Ratio (y) = 0.24473 0.65609
# Poissons Ratio (z) = 0.34637 0.38207
#
# Static dielectric constant tensor:
#      x y z
#    x 1.678570 0.000000 0.000000 
#    y 0.000000 1.608260 0.000000 
#    z 0.000000 0.000000 1.639880 
# 
# From -- ./inp_files/54269.got.cif
#   From: 2010.05.17/outbox.cif.g08.bks.cpg/sg63_28_cif.got.tgz:54269.got - 2010.06.03 15:47:04.
