data_PCOD9473136
_publ_section_title
;
Structure prediction by ZEFSAII (Michael W. Deem and Ramdas Pophale) SiO2 
 PCOD9473136
Probable space group: C M C M
;
_chemical_formula_sum "Si O2"
_cell_formula_units_Z 88
_cell_length_a 16.055784
_cell_length_b 12.680654
_cell_length_c 21.146955
_cell_angle_alpha 90.000000
_cell_angle_beta 90.000000
_cell_angle_gamma 90.000000
_cell_volume 4305.474394
_symmetry_space_group_name_H-M "C M C M"
_symmetry_group_IT_number 63
_symmetry_cell_setting 'orthorhombic'
loop_
_space_group_symop_operation_xyz
x,y,z
-x,-y,1/2+z
x,-y,-z
-x,y,1/2-z
-x,-y,-z
x,y,1/2-z
-x,y,z
x,-y,1/2+z
1/2+x,1/2+y,z
1/2-x,1/2-y,1/2+z
1/2+x,1/2-y,-z
1/2-x,1/2+y,1/2-z
1/2-x,1/2-y,-z
1/2+x,1/2+y,1/2-z
1/2-x,1/2+y,z
1/2+x,1/2-y,1/2+z
loop_
_atom_site_type_symbol
_atom_site_label
_atom_site_fract_x
_atom_site_fract_y
_atom_site_fract_z
Si Si1 0.847074 0.151379 0.321990
Si Si2 0.904322 0.375443 0.141594
Si Si3 0.709471 0.040960 0.099255
Si Si4 0.500000 0.496208 0.631641
Si Si5 0.363609 0.587301 0.550085
Si Si6 0.597482 0.819427 0.992417
O O1 0.832978 0.116691 0.250000
O O2 0.866296 0.274781 0.324335
O O3 0.769083 0.123519 0.365882
O O4 0.926964 0.089269 0.348736
O O5 0.849456 0.479457 0.147809
O O6 0.000000 0.390665 0.159688
O O7 0.901275 0.348035 0.066330
O O8 0.652137 0.099916 0.048367
O O9 0.772861 0.954580 0.069344
O O10 0.426508 0.579062 0.608323
O O11 0.397398 0.500000 0.500000
O O12 0.367354 0.701697 0.518929
O O13 0.500000 0.822486 0.972891
#
# Coordination Sequence:
#
# PCOD9473136 Si02
#       6
#    16  16  16   8  16  16
#     4  11  24  42  64  87 117 160 220 272 307 356
#     4  11  23  39  64  95 126 166 207 250 312 379
#     4  11  24  39  59  93 131 165 203 253 319 379
#     4  10  20  36  58  88 114 152 203 264 309 352
#     4  11  21  33  59  89 127 164 206 245 303 374
#     4  11  22  38  62  94 134 167 198 247 316 393
#
# _framework density 20.439094999999998
#
# number of rings (size 3 to 8) (size 9 to 14) (size 15 to 20)
#    0.000    1.091    1.818    6.000    2.545    4.364 
#    0.000    0.000    0.000    2.727    0.000    0.000 
#    0.000    0.000    0.000    0.000    0.000    0.000 
#
# Total GULP energy -245052.143332 kJ/mol
# GULP energy per Si atom -5569.366894 kJ/mol
# Density = 2.039257 g / cm^3
# Si number density = 20.439095 Si / 1000 Ang^3
#
#
#
# Elastic Constant Matrix: (Units=GPa)
#
#
# Indices 1 2 3 4 5 6 
#
# 1 132.3619 44.1874 24.3204 0.0000 0.0000 0.0000
# 2 44.1874 53.1136 4.0969 0.0000 0.0000 0.0000
# 3 24.3204 4.0969 30.5416 0.0000 0.0000 0.0000
# 4 0.0000 0.0000 0.0000 -9.3040 0.0000 0.0000
# 5 0.0000 0.0000 0.0000 0.0000 1.0110 0.0000
# 6 0.0000 0.0000 0.0000 0.0000 0.0000 16.9208
#
#
#
# Elastic Compliance Matrix: (Units=1/GPa)
#
#
# Indices 1 2 3 4 5 6 
#
# 1 0.012326 -0.009596 -0.008528 0.000000 0.000000 0.000000
# 2 -0.009596 0.026496 0.004087 0.000000 0.000000 0.000000
# 3 -0.008528 0.004087 0.038985 0.000000 0.000000 0.000000
# 4 0.000000 0.000000 0.000000 -0.107480 0.000000 0.000000
# 5 0.000000 0.000000 0.000000 0.000000 0.989117 0.000000
# 6 0.000000 0.000000 0.000000 0.000000 0.000000 0.059099
#
#
# Mechanical properties :
#
#
# Convention : Reuss Voigt Hill
#
# Bulk Modulus (GPa) = 20.10744 40.13629 30.12186
# Shear Modulus (GPa) = 4.70282 11.28638 7.99460
#
# Velocity S-wave (km/s) = 1.51852 2.35243 1.97988
# Velocity P-wave (km/s) = 3.59633 5.20175 4.47168
#
# Compressibility (1/GPa) = 0.04973283
#
# Stress axis : x y z
#
# Youngs Moduli (GPa) = 81.13230 37.74167 25.65122
#
# Poissons Ratio (x) = 0.36218 0.21874
# Poissons Ratio (y) = 0.77858 -0.10485
# Poissons Ratio (z) = 0.69186 -0.15427
#
# Static dielectric constant tensor:
#      x y z
#    x 1.724550 0.000000 0.000000 
#    y 0.000000 1.723570 0.000000 
#    z 0.000000 0.000000 1.780680 
# 
# From -- ./inp_files/62668.got.cif
#   From: 2010.05.17/outbox.cif.g08.bks.cpg/sg63_32_cif.got.tgz:62668.got - 2010.06.03 15:47:04.
