data_PCOD9473111
_publ_section_title
;
Structure prediction by ZEFSAII (Michael W. Deem and Ramdas Pophale) SiO2 
 PCOD9473111
Probable space group: C M C M
;
_chemical_formula_sum "Si O2"
_cell_formula_units_Z 88
_cell_length_a 22.842405
_cell_length_b 25.019620
_cell_length_c 8.650523
_cell_angle_alpha 90.000000
_cell_angle_beta 90.000000
_cell_angle_gamma 90.000000
_cell_volume 4943.845633
_symmetry_space_group_name_H-M "C M C M"
_symmetry_group_IT_number 63
_symmetry_cell_setting 'orthorhombic'
loop_
_space_group_symop_operation_xyz
x,y,z
-x,-y,1/2+z
x,-y,-z
-x,y,1/2-z
-x,-y,-z
x,y,1/2-z
-x,y,z
x,-y,1/2+z
1/2+x,1/2+y,z
1/2-x,1/2-y,1/2+z
1/2+x,1/2-y,-z
1/2-x,1/2+y,1/2-z
1/2-x,1/2-y,-z
1/2+x,1/2+y,1/2-z
1/2-x,1/2+y,z
1/2+x,1/2-y,1/2+z
loop_
_atom_site_type_symbol
_atom_site_label
_atom_site_fract_x
_atom_site_fract_y
_atom_site_fract_z
Si Si1 0.431010 0.148821 0.434863
Si Si2 0.847050 0.441782 0.434683
Si Si3 0.282432 0.558697 0.064859
Si Si4 0.500000 0.560136 0.064502
Si Si5 0.069796 0.234876 0.433852
Si Si6 0.888770 0.875075 0.434452
O O1 0.423780 0.147543 0.250000
O O2 0.500000 0.140957 0.469868
O O3 0.392400 0.103053 0.512067
O O4 0.414362 0.207275 0.498703
O O5 0.864312 0.500000 0.500000
O O6 0.843215 0.444436 0.250000
O O7 0.782825 0.429751 0.503822
O O8 0.282662 0.557381 0.250000
O O9 0.298498 0.500000 0.000000
O O10 0.329274 0.600553 0.001849
O O11 0.500000 0.559521 0.250000
O O12 0.500000 0.500000 0.000000
O O13 0.557149 0.591313 0.004542
O O14 0.079721 0.233556 0.250000
O O15 0.102466 0.186111 0.514866
O O16 0.000000 0.227430 0.460571
O O17 0.889645 0.879794 0.250000
#
# Coordination Sequence:
#
# PCOD9473111 Si02
#       6
#    16  16  16   8  16  16
#     4  10  21  38  61  89 120 153 191 234 285 343
#     4  11  22  39  62  88 118 152 191 234 287 345
#     4  11  22  39  60  83 114 152 194 238 289 346
#     4  12  24  38  54  80 114 150 193 246 297 342
#     4  10  20  36  58  84 116 153 194 238 288 343
#     4  12  23  37  57  83 114 152 196 240 290 343
#
# _framework density 17.799907000000001
#
# number of rings (size 3 to 8) (size 9 to 14) (size 15 to 20)
#    0.000    1.091    0.909    8.455    0.000    2.182 
#    0.000    0.909    0.000    0.000    0.000    0.000 
#    0.000    0.000    0.000    0.000    0.000    0.000 
#
# Total GULP energy -246085.346052 kJ/mol
# GULP energy per Si atom -5592.848774 kJ/mol
# Density = 1.775939 g / cm^3
# Si number density = 17.799907 Si / 1000 Ang^3
#
#
#
# Elastic Constant Matrix: (Units=GPa)
#
#
# Indices 1 2 3 4 5 6 
#
# 1 79.1063 99.0053 69.6944 0.0000 0.0000 0.0000
# 2 99.0053 171.0419 94.4634 0.0000 0.0000 0.0000
# 3 69.6944 94.4634 183.8114 0.0000 0.0000 0.0000
# 4 0.0000 0.0000 0.0000 36.8007 0.0000 0.0000
# 5 0.0000 0.0000 0.0000 0.0000 30.5337 0.0000
# 6 0.0000 0.0000 0.0000 0.0000 0.0000 -1.2934
#
#
#
# Elastic Compliance Matrix: (Units=1/GPa)
#
#
# Indices 1 2 3 4 5 6 
#
# 1 0.049787 -0.025682 -0.005679 0.000000 0.000000 0.000000
# 2 -0.025682 0.021411 -0.001266 0.000000 0.000000 0.000000
# 3 -0.005679 -0.001266 0.008244 0.000000 0.000000 0.000000
# 4 0.000000 0.000000 0.000000 0.027173 0.000000 0.000000
# 5 0.000000 0.000000 0.000000 0.000000 0.032751 0.000000
# 6 0.000000 0.000000 0.000000 0.000000 0.000000 -0.773129
#
#
# Mechanical properties :
#
#
# Convention : Reuss Voigt Hill
#
# Bulk Modulus (GPa) = 70.47947 106.69842 88.58895
# Shear Modulus (GPa) = -8.86871 24.59463 7.86296
#
# Velocity S-wave (km/s) = -2.23456 3.72119 2.10404
# Velocity P-wave (km/s) = 5.74662 8.86208 7.46860
#
# Compressibility (1/GPa) = 0.01418853
#
# Stress axis : x y z
#
# Youngs Moduli (GPa) = 20.08569 46.70412 121.29767
#
# Poissons Ratio (x) = 1.19946 0.68883
# Poissons Ratio (y) = 0.51584 0.15356
# Poissons Ratio (z) = 0.11406 0.05913
#
# Static dielectric constant tensor:
#      x y z
#    x 1.584280 0.000000 0.000000 
#    y 0.000000 1.583230 0.000000 
#    z 0.000000 0.000000 1.590370 
# 
# From -- ./inp_files/10231.got.cif
#   From: 2010.05.17/outbox.cif.g08.bks.cpg/sg63_6_cif.got.tgz:10231.got - 2010.06.03 15:47:04.
