data_PCOD9473427
_publ_section_title
;
Structure prediction by ZEFSAII (Michael W. Deem and Ramdas Pophale) SiO2 
 PCOD9473427
Probable space group: C M C M
;
_chemical_formula_sum "Si O2"
_cell_formula_units_Z 68
_cell_length_a 21.300118
_cell_length_b 18.813400
_cell_length_c 7.386744
_cell_angle_alpha 90.000000
_cell_angle_beta 90.000000
_cell_angle_gamma 90.000000
_cell_volume 2960.072490
_symmetry_space_group_name_H-M "C M C M"
_symmetry_group_IT_number 63
_symmetry_cell_setting 'orthorhombic'
loop_
_space_group_symop_operation_xyz
x,y,z
-x,-y,1/2+z
x,-y,-z
-x,y,1/2-z
-x,-y,-z
x,y,1/2-z
-x,y,z
x,-y,1/2+z
1/2+x,1/2+y,z
1/2-x,1/2-y,1/2+z
1/2+x,1/2-y,-z
1/2-x,1/2+y,1/2-z
1/2-x,1/2-y,-z
1/2+x,1/2+y,1/2-z
1/2-x,1/2+y,z
1/2+x,1/2-y,1/2+z
loop_
_atom_site_type_symbol
_atom_site_label
_atom_site_fract_x
_atom_site_fract_y
_atom_site_fract_z
Si Si1 0.000000 0.754041 0.750000
Si Si2 0.313692 0.416083 0.034178
Si Si3 0.931938 0.583699 0.966266
Si Si4 0.892878 0.209385 0.540477
Si Si5 0.690390 0.833953 0.030264
O O1 0.055533 0.758119 0.592027
O O2 0.312228 0.407851 0.250000
O O3 0.373804 0.369896 0.975971
O O4 0.250862 0.377129 0.964409
O O5 0.315169 0.500000 0.000000
O O6 0.934216 0.595361 0.750000
O O7 0.870957 0.622762 0.034007
O O8 0.000000 0.606324 0.038464
O O9 0.926123 0.500000 0.000000
O O10 0.913270 0.208601 0.750000
O O11 0.827650 0.254740 0.530745
O O12 0.692063 0.833306 0.250000
#
# Coordination Sequence:
#
# PCOD9473427 Si02
#       5
#     4  16  16  16  16
#     4  12  26  48  74  94 140 180 222 292 358 398
#     4  10  23  41  67 100 139 180 232 284 342 413
#     4   9  18  30  48  77 120 169 219 263 318 387
#     4  11  25  44  70 103 135 176 236 282 344 416
#     4  10  20  37  63  96 135 181 221 274 338 401
#
# _framework density 22.972411000000001
#
# number of rings (size 3 to 8) (size 9 to 14) (size 15 to 20)
#    0.000    1.882    1.176    1.765    3.294    1.882 
#    0.000    0.588    0.000    0.000    0.000    0.000 
#    0.000    0.000    0.000    0.000    0.000    0.000 
#
# Total GULP energy -189538.451887 kJ/mol
# GULP energy per Si atom -5574.660350 kJ/mol
# Density = 2.292012 g / cm^3
# Si number density = 22.972411 Si / 1000 Ang^3
#
#
#
# Elastic Constant Matrix: (Units=GPa)
#
#
# Indices 1 2 3 4 5 6 
#
# 1 57.1478 35.4163 22.9494 0.0000 0.0000 0.0000
# 2 35.4163 129.7813 2.2314 0.0000 0.0000 0.0000
# 3 22.9494 2.2314 126.1406 0.0000 0.0000 0.0000
# 4 0.0000 0.0000 0.0000 23.4380 0.0000 0.0000
# 5 0.0000 0.0000 0.0000 0.0000 78.3782 0.0000
# 6 0.0000 0.0000 0.0000 0.0000 0.0000 19.4833
#
#
#
# Elastic Compliance Matrix: (Units=1/GPa)
#
#
# Indices 1 2 3 4 5 6 
#
# 1 0.022975 -0.006200 -0.004070 0.000000 0.000000 0.000000
# 2 -0.006200 0.009381 0.000962 0.000000 0.000000 0.000000
# 3 -0.004070 0.000962 0.008651 0.000000 0.000000 0.000000
# 4 0.000000 0.000000 0.000000 0.042666 0.000000 0.000000
# 5 0.000000 0.000000 0.000000 0.000000 0.012759 0.000000
# 6 0.000000 0.000000 0.000000 0.000000 0.000000 0.051326
#
#
# Mechanical properties :
#
#
# Convention : Reuss Voigt Hill
#
# Bulk Modulus (GPa) = 44.66112 48.25154 46.45633
# Shear Modulus (GPa) = 28.76253 41.09141 34.92697
#
# Velocity S-wave (km/s) = 3.54227 4.23392 3.90344
# Velocity P-wave (km/s) = 6.01777 6.70457 6.37043
#
# Compressibility (1/GPa) = 0.02239084
#
# Stress axis : x y z
#
# Youngs Moduli (GPa) = 43.52508 106.60290 115.59125
#
# Poissons Ratio (x) = 0.66092 0.47049
# Poissons Ratio (y) = 0.26985 -0.11120
# Poissons Ratio (z) = 0.17716 -0.10255
#
# Static dielectric constant tensor:
#      x y z
#    x 1.858000 0.000000 0.000000 
#    y 0.000000 1.910510 0.000000 
#    z 0.000000 0.000000 1.852080 
# 
# From -- ./inp_files/7615.got.cif
#   From: 2010.05.17/outbox.cif.g08.bks.cpg/sg63_4_cif.got.tgz:7615.got - 2010.06.03 15:47:04.
