data_PCOD9473123
_publ_section_title
;
Structure prediction by ZEFSAII (Michael W. Deem and Ramdas Pophale) SiO2 
 PCOD9473123
Probable space group: C M C M
;
_chemical_formula_sum "Si O2"
_cell_formula_units_Z 80
_cell_length_a 8.717795
_cell_length_b 16.108139
_cell_length_c 29.455785
_cell_angle_alpha 90.000000
_cell_angle_beta 90.000000
_cell_angle_gamma 90.000000
_cell_volume 4136.400882
_symmetry_space_group_name_H-M "C M C M"
_symmetry_group_IT_number 63
_symmetry_cell_setting 'orthorhombic'
loop_
_space_group_symop_operation_xyz
x,y,z
-x,-y,1/2+z
x,-y,-z
-x,y,1/2-z
-x,-y,-z
x,y,1/2-z
-x,y,z
x,-y,1/2+z
1/2+x,1/2+y,z
1/2-x,1/2-y,1/2+z
1/2+x,1/2-y,-z
1/2-x,1/2+y,1/2-z
1/2-x,1/2-y,-z
1/2+x,1/2+y,1/2-z
1/2-x,1/2+y,z
1/2+x,1/2-y,1/2+z
loop_
_atom_site_type_symbol
_atom_site_label
_atom_site_fract_x
_atom_site_fract_y
_atom_site_fract_z
Si Si1 0.683576 0.960183 0.451242
Si Si2 0.681587 0.721395 0.547860
Si Si3 0.183559 0.214602 0.359861
Si Si4 0.815844 0.539878 0.356235
Si Si5 0.687017 0.125082 0.802212
O O1 0.500000 0.942937 0.449675
O O2 0.771825 0.874301 0.445355
O O3 0.718483 0.000000 0.500000
O O4 0.719021 0.019905 0.409021
O O5 0.500000 0.732192 0.547272
O O6 0.750000 0.750000 0.500000
O O7 0.751295 0.772077 0.589726
O O8 0.240043 0.125959 0.342030
O O9 0.236116 0.292799 0.329439
O O10 0.000000 0.216065 0.361563
O O11 0.765803 0.459512 0.327436
O O12 0.000000 0.547494 0.352115
O O13 0.736854 0.126702 0.750000
O O14 0.500000 0.125342 0.802756
#
# Coordination Sequence:
#
# PCOD9473123 Si02
#       5
#    16  16  16  16  16
#     4  10  20  36  58  85 120 160 200 246 301 361
#     4  12  24  38  59  87 122 161 205 252 303 362
#     4  11  22  39  62  90 124 162 206 253 306 363
#     4  10  20  37  60  88 122 161 202 248 304 363
#     4   9  19  38  63  88 120 164 207 249 305 369
#
# _framework density 19.340485999999999
#
# number of rings (size 3 to 8) (size 9 to 14) (size 15 to 20)
#    0.000    1.600    2.000    3.600    0.000    3.600 
#    0.000    0.000    0.000    4.200    0.000    0.000 
#    0.000    0.000    0.000    0.000    0.000    0.000 
#
# Total GULP energy -223565.048162 kJ/mol
# GULP energy per Si atom -5589.126204 kJ/mol
# Density = 1.929647 g / cm^3
# Si number density = 19.340486 Si / 1000 Ang^3
#
#
#
# Elastic Constant Matrix: (Units=GPa)
#
#
# Indices 1 2 3 4 5 6 
#
# 1 38.4308 47.2927 24.6264 0.0000 0.0000 0.0000
# 2 47.2927 172.7553 73.2494 0.0000 0.0000 0.0000
# 3 24.6264 73.2494 134.2767 0.0000 0.0000 0.0000
# 4 0.0000 0.0000 0.0000 23.8967 0.0000 0.0000
# 5 0.0000 0.0000 0.0000 0.0000 5.4114 0.0000
# 6 0.0000 0.0000 0.0000 0.0000 0.0000 36.0117
#
#
#
# Elastic Compliance Matrix: (Units=1/GPa)
#
#
# Indices 1 2 3 4 5 6 
#
# 1 0.039555 -0.010085 -0.001753 0.000000 0.000000 0.000000
# 2 -0.010085 0.010102 -0.003661 0.000000 0.000000 0.000000
# 3 -0.001753 -0.003661 0.009766 0.000000 0.000000 0.000000
# 4 0.000000 0.000000 0.000000 0.041847 0.000000 0.000000
# 5 0.000000 0.000000 0.000000 0.000000 0.184794 0.000000
# 6 0.000000 0.000000 0.000000 0.000000 0.000000 0.027769
#
#
# Mechanical properties :
#
#
# Convention : Reuss Voigt Hill
#
# Bulk Modulus (GPa) = 35.18097 70.64441 52.91269
# Shear Modulus (GPa) = 14.11218 26.41691 20.26454
#
# Velocity S-wave (km/s) = 2.70417 3.69980 3.24045
# Velocity P-wave (km/s) = 5.28960 7.40657 6.43573
#
# Compressibility (1/GPa) = 0.02842446
#
# Stress axis : x y z
#
# Youngs Moduli (GPa) = 25.28147 98.99380 102.39747
#
# Poissons Ratio (x) = 0.99836 0.17949
# Poissons Ratio (y) = 0.25497 0.37487
# Poissons Ratio (z) = 0.04431 0.36241
#
# Static dielectric constant tensor:
#      x y z
#    x 1.655980 0.000000 0.000000 
#    y 0.000000 1.671240 0.000000 
#    z 0.000000 0.000000 1.666250 
# 
# From -- ./inp_files/66639.got.cif
#   From: 2010.05.17/outbox.cif.g08.bks.cpg/sg63_34_cif.got.tgz:66639.got - 2010.06.03 15:47:04.
