data_PCOD9473680
_publ_section_title
;
Structure prediction by ZEFSAII (Michael W. Deem and Ramdas Pophale) SiO2 
 PCOD9473680
Probable space group: C M C M
;
_chemical_formula_sum "Si O2"
_cell_formula_units_Z 88
_cell_length_a 22.457064
_cell_length_b 11.446512
_cell_length_c 17.243093
_cell_angle_alpha 90.000000
_cell_angle_beta 90.000000
_cell_angle_gamma 90.000000
_cell_volume 4432.424177
_symmetry_space_group_name_H-M "C M C M"
_symmetry_group_IT_number 63
_symmetry_cell_setting 'orthorhombic'
loop_
_space_group_symop_operation_xyz
x,y,z
-x,-y,1/2+z
x,-y,-z
-x,y,1/2-z
-x,-y,-z
x,y,1/2-z
-x,y,z
x,-y,1/2+z
1/2+x,1/2+y,z
1/2-x,1/2-y,1/2+z
1/2+x,1/2-y,-z
1/2-x,1/2+y,1/2-z
1/2-x,1/2-y,-z
1/2+x,1/2+y,1/2-z
1/2-x,1/2+y,z
1/2+x,1/2-y,1/2+z
loop_
_atom_site_type_symbol
_atom_site_label
_atom_site_fract_x
_atom_site_fract_y
_atom_site_fract_z
Si Si1 0.671005 0.583795 0.423185
Si Si2 0.210608 0.605951 0.750000
Si Si3 0.162352 0.773338 0.250000
Si Si4 0.872670 0.008533 0.250000
Si Si5 0.696071 0.907519 0.877320
Si Si6 0.091870 0.256062 0.250000
Si Si7 0.564303 0.770164 0.079319
Si Si8 0.896054 0.500000 0.500000
O O1 0.668415 0.500000 0.500000
O O2 0.657526 0.529340 0.336322
O O3 0.739567 0.625787 0.413070
O O4 0.621192 0.685193 0.434275
O O5 0.276053 0.655965 0.750000
O O6 0.203631 0.521968 0.823605
O O7 0.162222 0.709858 0.750000
O O8 0.111841 0.871952 0.250000
O O9 0.167620 0.692810 0.175301
O O10 0.918020 0.116558 0.250000
O O11 0.648286 0.941709 0.939506
O O12 0.067052 0.302479 0.170235
O O13 0.500000 0.712845 0.062776
O O14 0.568600 0.891678 0.034754
#
# Coordination Sequence:
#
# PCOD9473680 Si02
#       8
#    16   8   8   8  16   8  16   8
#     4  11  23  41  66  95 132 171 215 263 326 390
#     4  11  19  37  57  90 128 161 208 251 326 386
#     4  11  21  34  61  87 134 171 196 257 323 387
#     4  10  21  38  58  95 128 167 212 263 317 380
#     4  11  23  36  60  96 128 169 201 261 330 393
#     4  10  20  41  66  86 117 167 218 263 312 385
#     4  11  25  43  66  91 123 170 222 269 311 374
#     4  12  25  40  62  92 133 160 212 272 322 390
#
# _framework density 19.853694999999998
#
# number of rings (size 3 to 8) (size 9 to 14) (size 15 to 20)
#    0.000    1.091    4.545    3.273    2.545    1.091 
#    0.000    0.000    0.000    0.000    0.000    0.000 
#    0.000    0.000    0.000    0.000    0.000    0.000 
#
# Total GULP energy -245232.039503 kJ/mol
# GULP energy per Si atom -5573.455443 kJ/mol
# Density = 1.980851 g / cm^3
# Si number density = 19.853695 Si / 1000 Ang^3
#
#
#
# Elastic Constant Matrix: (Units=GPa)
#
#
# Indices 1 2 3 4 5 6 
#
# 1 90.9641 27.2430 28.0643 0.0000 0.0000 0.0000
# 2 27.2430 104.2720 46.3254 0.0000 0.0000 0.0000
# 3 28.0643 46.3254 120.0442 0.0000 0.0000 0.0000
# 4 0.0000 0.0000 0.0000 57.9824 0.0000 0.0000
# 5 0.0000 0.0000 0.0000 0.0000 112.6308 0.0000
# 6 0.0000 0.0000 0.0000 0.0000 0.0000 40.0808
#
#
#
# Elastic Compliance Matrix: (Units=1/GPa)
#
#
# Indices 1 2 3 4 5 6 
#
# 1 0.012302 -0.002337 -0.001974 0.000000 0.000000 0.000000
# 2 -0.002337 0.012019 -0.004092 0.000000 0.000000 0.000000
# 3 -0.001974 -0.004092 0.010371 0.000000 0.000000 0.000000
# 4 0.000000 0.000000 0.000000 0.017247 0.000000 0.000000
# 5 0.000000 0.000000 0.000000 0.000000 0.008879 0.000000
# 6 0.000000 0.000000 0.000000 0.000000 0.000000 0.024950
#
#
# Mechanical properties :
#
#
# Convention : Reuss Voigt Hill
#
# Bulk Modulus (GPa) = 55.90995 57.61618 56.76307
# Shear Modulus (GPa) = 46.06822 56.38197 51.22510
#
# Velocity S-wave (km/s) = 4.82226 5.33483 5.08501
# Velocity P-wave (km/s) = 7.69596 8.18722 7.94539
#
# Compressibility (1/GPa) = 0.01788590
#
# Stress axis : x y z
#
# Youngs Moduli (GPa) = 81.28517 83.20331 96.42471
#
# Poissons Ratio (x) = 0.19446 0.19036
# Poissons Ratio (y) = 0.18997 0.39454
# Poissons Ratio (z) = 0.16047 0.34044
#
# Static dielectric constant tensor:
#      x y z
#    x 1.713300 0.000000 0.000000 
#    y 0.000000 1.751700 0.000000 
#    z 0.000000 0.000000 1.687230 
# 
# From -- ./inp_files/46981.got.cif
#   From: 2010.05.17/outbox.cif.g08.bks.cpg/sg63_24_cif.got.tgz:46981.got - 2010.06.03 15:47:04.
