data_PCOD9473207
_publ_section_title
;
Structure prediction by ZEFSAII (Michael W. Deem and Ramdas Pophale) SiO2 
 PCOD9473207
Probable space group: C M C M
;
_chemical_formula_sum "Si O2"
_cell_formula_units_Z 96
_cell_length_a 9.306974
_cell_length_b 21.332803
_cell_length_c 23.575182
_cell_angle_alpha 90.000000
_cell_angle_beta 90.000000
_cell_angle_gamma 90.000000
_cell_volume 4680.707231
_symmetry_space_group_name_H-M "C M C M"
_symmetry_group_IT_number 63
_symmetry_cell_setting 'orthorhombic'
loop_
_space_group_symop_operation_xyz
x,y,z
-x,-y,1/2+z
x,-y,-z
-x,y,1/2-z
-x,-y,-z
x,y,1/2-z
-x,y,z
x,-y,1/2+z
1/2+x,1/2+y,z
1/2-x,1/2-y,1/2+z
1/2+x,1/2-y,-z
1/2-x,1/2+y,1/2-z
1/2-x,1/2-y,-z
1/2+x,1/2+y,1/2-z
1/2-x,1/2+y,z
1/2+x,1/2-y,1/2+z
loop_
_atom_site_type_symbol
_atom_site_label
_atom_site_fract_x
_atom_site_fract_y
_atom_site_fract_z
Si Si1 0.664512 0.026231 0.586234
Si Si2 0.169497 0.830565 0.815107
Si Si3 0.666667 0.840272 0.478660
Si Si4 0.668326 0.403601 0.574382
Si Si5 0.163868 0.915620 0.182954
Si Si6 0.666970 0.280506 0.122663
O O1 0.500000 0.004460 0.586019
O O2 0.671758 0.090901 0.551269
O O3 0.722623 0.043762 0.648381
O O4 0.764229 0.971256 0.563101
O O5 0.207483 0.844731 0.750000
O O6 0.187674 0.887200 0.859323
O O7 0.260190 0.773378 0.840287
O O8 0.000000 0.813671 0.816683
O O9 0.500000 0.822777 0.485649
O O10 0.748342 0.851919 0.537366
O O11 0.748571 0.794405 0.435625
O O12 0.500000 0.401962 0.560399
O O13 0.186203 0.916462 0.250000
O O14 0.173551 0.844942 0.159000
O O15 0.000000 0.937727 0.170858
O O16 0.500000 0.266742 0.111336
#
# Coordination Sequence:
#
# PCOD9473207 Si02
#       6
#    16  16  16  16  16  16
#     4  10  21  36  55  82 114 148 187 231 281 336
#     4  10  23  42  60  80 111 151 190 228 276 333
#     4  10  21  38  60  86 116 148 183 229 285 339
#     4  11  23  38  58  83 112 150 192 232 278 334
#     4   9  18  33  54  81 112 145 183 230 282 333
#     4  10  20  36  60  88 114 143 185 235 283 333
#
# _framework density 20.509720000000002
#
# number of rings (size 3 to 8) (size 9 to 14) (size 15 to 20)
#    0.000    2.000    0.000    3.000    0.000    8.667 
#    0.000    1.667    0.000    0.000    0.000    0.000 
#    0.000    0.000    0.000    0.000    0.000    0.000 
#
# Total GULP energy -268345.733867 kJ/mol
# GULP energy per Si atom -5590.536122 kJ/mol
# Density = 2.046304 g / cm^3
# Si number density = 20.509720 Si / 1000 Ang^3
#
#
#
# Elastic Constant Matrix: (Units=GPa)
#
#
# Indices 1 2 3 4 5 6 
#
# 1 113.3439 38.0138 58.1491 0.0000 0.0000 0.0000
# 2 38.0138 47.3334 19.2861 0.0000 0.0000 0.0000
# 3 58.1491 19.2861 112.7560 0.0000 0.0000 0.0000
# 4 0.0000 0.0000 0.0000 21.1093 0.0000 0.0000
# 5 0.0000 0.0000 0.0000 0.0000 31.9400 0.0000
# 6 0.0000 0.0000 0.0000 0.0000 0.0000 25.7311
#
#
#
# Elastic Compliance Matrix: (Units=1/GPa)
#
#
# Indices 1 2 3 4 5 6 
#
# 1 0.015275 -0.009736 -0.006212 0.000000 0.000000 0.000000
# 2 -0.009736 0.028915 0.000075 0.000000 0.000000 0.000000
# 3 -0.006212 0.000075 0.012059 0.000000 0.000000 0.000000
# 4 0.000000 0.000000 0.000000 0.047373 0.000000 0.000000
# 5 0.000000 0.000000 0.000000 0.000000 0.031309 0.000000
# 6 0.000000 0.000000 0.000000 0.000000 0.000000 0.038864
#
#
# Mechanical properties :
#
#
# Convention : Reuss Voigt Hill
#
# Bulk Modulus (GPa) = 40.81028 56.03678 48.42353
# Shear Modulus (GPa) = 23.39627 26.28836 24.84231
#
# Velocity S-wave (km/s) = 3.38115 3.58404 3.48407
# Velocity P-wave (km/s) = 5.93162 6.67147 6.31239
#
# Compressibility (1/GPa) = 0.02450363
#
# Stress axis : x y z
#
# Youngs Moduli (GPa) = 65.46550 34.58359 82.92228
#
# Poissons Ratio (x) = 0.33672 0.51513
# Poissons Ratio (y) = 0.63740 -0.00625
# Poissons Ratio (z) = 0.40668 -0.00261
#
# Static dielectric constant tensor:
#      x y z
#    x 1.694090 0.000000 0.000000 
#    y 0.000000 1.721950 0.000000 
#    z 0.000000 0.000000 1.727440 
# 
# From -- ./inp_files/59919.got.cif
#   From: 2010.05.17/outbox.cif.g08.bks.cpg/sg63_30_cif.got.tgz:59919.got - 2010.06.03 15:47:04.
