data_PCOD9473192
_publ_section_title
;
Structure prediction by ZEFSAII (Michael W. Deem and Ramdas Pophale) SiO2 
 PCOD9473192
Probable space group: C M C M
;
_chemical_formula_sum "Si O2"
_cell_formula_units_Z 80
_cell_length_a 26.286491
_cell_length_b 9.983636
_cell_length_c 14.509499
_cell_angle_alpha 90.000000
_cell_angle_beta 90.000000
_cell_angle_gamma 90.000000
_cell_volume 3807.796857
_symmetry_space_group_name_H-M "C M C M"
_symmetry_group_IT_number 63
_symmetry_cell_setting 'orthorhombic'
loop_
_space_group_symop_operation_xyz
x,y,z
-x,-y,1/2+z
x,-y,-z
-x,y,1/2-z
-x,-y,-z
x,y,1/2-z
-x,y,z
x,-y,1/2+z
1/2+x,1/2+y,z
1/2-x,1/2-y,1/2+z
1/2+x,1/2-y,-z
1/2-x,1/2+y,1/2-z
1/2-x,1/2-y,-z
1/2+x,1/2+y,1/2-z
1/2-x,1/2+y,z
1/2+x,1/2-y,1/2+z
loop_
_atom_site_type_symbol
_atom_site_label
_atom_site_fract_x
_atom_site_fract_y
_atom_site_fract_z
Si Si1 0.500000 0.058794 0.863147
Si Si2 0.811137 0.367634 0.056818
Si Si3 0.500000 0.250445 0.136884
Si Si4 0.200452 0.117818 0.924933
Si Si5 0.589653 0.747211 0.359955
Si Si6 0.090231 0.943974 0.141763
O O1 0.500000 0.055489 0.750000
O O2 0.451684 0.146185 0.893458
O O3 0.500000 0.904368 0.893615
O O4 0.758223 0.389303 0.112462
O O5 0.855537 0.308150 0.118426
O O6 0.825130 0.500000 0.000000
O O7 0.802744 0.257541 0.977661
O O8 0.500000 0.245716 0.250000
O O9 0.549975 0.334097 0.106610
O O10 0.149097 0.099441 0.867476
O O11 0.198825 0.000000 0.000000
O O12 0.583383 0.737632 0.250000
O O13 0.584591 0.595083 0.397546
O O14 0.078632 0.954708 0.250000
#
# Coordination Sequence:
#
# PCOD9473192 Si02
#       6
#     8  16   8  16  16  16
#     4   9  19  35  55  81 115 146 176 227 286 329
#     4  10  22  37  58  82 112 151 183 225 280 332
#     4   9  19  35  55  83 113 143 180 228 282 327
#     4  10  20  39  58  79 112 148 184 223 278 332
#     4  10  20  37  59  83 111 146 187 228 274 330
#     4  10  20  36  60  84 109 146 190 229 270 329
#
# _framework density 21.009523000000002
#
# number of rings (size 3 to 8) (size 9 to 14) (size 15 to 20)
#    0.000    2.200    2.000    0.600    2.800    3.200 
#    0.000    2.000    0.000    0.000    0.000    0.000 
#    0.000    0.000    0.000    0.000    0.000    0.000 
#
# Total GULP energy -223135.282502 kJ/mol
# GULP energy per Si atom -5578.382063 kJ/mol
# Density = 2.096170 g / cm^3
# Si number density = 21.009523 Si / 1000 Ang^3
#
#
#
# Elastic Constant Matrix: (Units=GPa)
#
#
# Indices 1 2 3 4 5 6 
#
# 1 149.5563 73.1215 8.2430 0.0000 0.0000 0.0000
# 2 73.1215 198.6994 15.6589 0.0000 0.0000 0.0000
# 3 8.2430 15.6589 21.8074 0.0000 0.0000 0.0000
# 4 0.0000 0.0000 0.0000 16.7065 0.0000 0.0000
# 5 0.0000 0.0000 0.0000 0.0000 41.0029 0.0000
# 6 0.0000 0.0000 0.0000 0.0000 0.0000 42.5658
#
#
#
# Elastic Compliance Matrix: (Units=1/GPa)
#
#
# Indices 1 2 3 4 5 6 
#
# 1 0.008173 -0.002930 -0.000985 0.000000 0.000000 0.000000
# 2 -0.002930 0.006385 -0.003477 0.000000 0.000000 0.000000
# 3 -0.000985 -0.003477 0.048725 0.000000 0.000000 0.000000
# 4 0.000000 0.000000 0.000000 0.059857 0.000000 0.000000
# 5 0.000000 0.000000 0.000000 0.000000 0.024389 0.000000
# 6 0.000000 0.000000 0.000000 0.000000 0.000000 0.023493
#
#
# Mechanical properties :
#
#
# Convention : Reuss Voigt Hill
#
# Bulk Modulus (GPa) = 20.61938 62.67889 41.64913
# Shear Modulus (GPa) = 24.75565 38.25767 31.50666
#
# Velocity S-wave (km/s) = 3.43637 4.27191 3.87672
# Velocity P-wave (km/s) = 5.05771 7.36414 6.31708
#
# Compressibility (1/GPa) = 0.04849806
#
# Stress axis : x y z
#
# Youngs Moduli (GPa) = 122.34846 156.61580 20.52320
#
# Poissons Ratio (x) = 0.45891 0.02023
# Poissons Ratio (y) = 0.35850 0.07136
# Poissons Ratio (z) = 0.12057 0.54459
#
# Static dielectric constant tensor:
#      x y z
#    x 1.799620 0.000000 0.000000 
#    y 0.000000 1.722260 0.000000 
#    z 0.000000 0.000000 1.761550 
# 
# From -- ./inp_files/48874.got.cif
#   From: 2010.05.17/outbox.cif.g08.bks.cpg/sg63_25_cif.got.tgz:48874.got - 2010.06.03 15:47:04.
