data_PCOD9473514
_publ_section_title
;
Structure prediction by ZEFSAII (Michael W. Deem and Ramdas Pophale) SiO2 
 PCOD9473514
Probable space group: C M C M
;
_chemical_formula_sum "Si O2"
_cell_formula_units_Z 96
_cell_length_a 19.757488
_cell_length_b 15.146053
_cell_length_c 15.010068
_cell_angle_alpha 90.000000
_cell_angle_beta 90.000000
_cell_angle_gamma 90.000000
_cell_volume 4491.732234
_symmetry_space_group_name_H-M "C M C M"
_symmetry_group_IT_number 63
_symmetry_cell_setting 'orthorhombic'
loop_
_space_group_symop_operation_xyz
x,y,z
-x,-y,1/2+z
x,-y,-z
-x,y,1/2-z
-x,-y,-z
x,y,1/2-z
-x,y,z
x,-y,1/2+z
1/2+x,1/2+y,z
1/2-x,1/2-y,1/2+z
1/2+x,1/2-y,-z
1/2-x,1/2+y,1/2-z
1/2-x,1/2-y,-z
1/2+x,1/2+y,1/2-z
1/2-x,1/2+y,z
1/2+x,1/2-y,1/2+z
loop_
_atom_site_type_symbol
_atom_site_label
_atom_site_fract_x
_atom_site_fract_y
_atom_site_fract_z
Si Si1 0.806063 0.548345 0.584344
Si Si2 0.363370 0.781229 0.986941
Si Si3 0.081670 0.826580 0.846549
Si Si4 0.578922 0.479998 0.394890
Si Si5 0.310314 0.341138 0.347338
Si Si6 0.923860 0.413360 0.854806
O O1 0.771630 0.500000 0.500000
O O2 0.839210 0.634855 0.542403
O O3 0.749278 0.586753 0.648110
O O4 0.864522 0.483790 0.621528
O O5 0.308299 0.730050 0.926683
O O6 0.413131 0.825749 0.914088
O O7 0.392707 0.717700 0.062944
O O8 0.103784 0.787899 0.750000
O O9 0.000000 0.822582 0.849040
O O10 0.101492 0.929250 0.848972
O O11 0.585350 0.500000 0.500000
O O12 0.500000 0.465375 0.375370
O O13 0.621854 0.396731 0.364944
O O14 0.310380 0.298702 0.250000
O O15 0.919242 0.393649 0.750000
O O16 0.000000 0.448963 0.872701
#
# Coordination Sequence:
#
# PCOD9473514 Si02
#       6
#    16  16  16  16  16  16
#     4  10  24  43  65  89 124 170 216 262 313 375
#     4  11  23  40  63  95 128 164 207 262 321 375
#     4  10  21  37  59  91 128 165 208 257 310 372
#     4  10  20  38  62  88 124 168 210 254 310 373
#     4  12  24  40  64  93 128 167 210 261 317 381
#     4  10  22  43  70  99 131 167 212 263 318 382
#
# _framework density 21.372601
#
# number of rings (size 3 to 8) (size 9 to 14) (size 15 to 20)
#    0.000    1.500    1.667    3.000    0.000    6.667 
#    0.000    1.667    0.000    0.000    0.000    0.000 
#    0.000    0.000    0.000    0.000    0.000    0.000 
#
# Total GULP energy -267944.334900 kJ/mol
# GULP energy per Si atom -5582.173644 kJ/mol
# Density = 2.132396 g / cm^3
# Si number density = 21.372601 Si / 1000 Ang^3
#
#
#
# Elastic Constant Matrix: (Units=GPa)
#
#
# Indices 1 2 3 4 5 6 
#
# 1 53.3685 9.4452 29.5723 0.0000 0.0000 0.0000
# 2 9.4452 51.6751 35.0163 0.0000 0.0000 0.0000
# 3 29.5723 35.0163 153.5170 0.0000 0.0000 0.0000
# 4 0.0000 0.0000 0.0000 24.5503 0.0000 0.0000
# 5 0.0000 0.0000 0.0000 0.0000 78.5436 0.0000
# 6 0.0000 0.0000 0.0000 0.0000 0.0000 17.6050
#
#
#
# Elastic Compliance Matrix: (Units=1/GPa)
#
#
# Indices 1 2 3 4 5 6 
#
# 1 0.021050 -0.001301 -0.003758 0.000000 0.000000 0.000000
# 2 -0.001301 0.022970 -0.004989 0.000000 0.000000 0.000000
# 3 -0.003758 -0.004989 0.008376 0.000000 0.000000 0.000000
# 4 0.000000 0.000000 0.000000 0.040733 0.000000 0.000000
# 5 0.000000 0.000000 0.000000 0.000000 0.012732 0.000000
# 6 0.000000 0.000000 0.000000 0.000000 0.000000 0.056802
#
#
# Mechanical properties :
#
#
# Convention : Reuss Voigt Hill
#
# Bulk Modulus (GPa) = 30.95941 45.18091 38.07016
# Shear Modulus (GPa) = 25.83643 36.44157 31.13900
#
# Velocity S-wave (km/s) = 3.48064 4.13372 3.82115
# Velocity P-wave (km/s) = 5.53806 6.63091 6.10897
#
# Compressibility (1/GPa) = 0.03230035
#
# Stress axis : x y z
#
# Youngs Moduli (GPa) = 47.50502 43.53518 119.39173
#
# Poissons Ratio (x) = 0.05664 0.44870
# Poissons Ratio (y) = 0.06180 0.59561
# Poissons Ratio (z) = 0.17854 0.21718
#
# Static dielectric constant tensor:
#      x y z
#    x 1.796610 0.000000 0.000000 
#    y 0.000000 1.778230 0.000000 
#    z 0.000000 0.000000 1.822760 
# 
# From -- ./inp_files/35323.got.cif
#   From: 2010.05.17/outbox.cif.g08.bks.cpg/sg63_18_cif.got.tgz:35323.got - 2010.06.03 15:47:04.
