data_PCOD9473494
_publ_section_title
;
Structure prediction by ZEFSAII (Michael W. Deem and Ramdas Pophale) SiO2 
 PCOD9473494
Probable space group: C M C M
;
_chemical_formula_sum "Si O2"
_cell_formula_units_Z 112
_cell_length_a 15.220072
_cell_length_b 14.202784
_cell_length_c 21.875362
_cell_angle_alpha 90.000000
_cell_angle_beta 90.000000
_cell_angle_gamma 90.000000
_cell_volume 4728.740020
_symmetry_space_group_name_H-M "C M C M"
_symmetry_group_IT_number 63
_symmetry_cell_setting 'orthorhombic'
loop_
_space_group_symop_operation_xyz
x,y,z
-x,-y,1/2+z
x,-y,-z
-x,y,1/2-z
-x,-y,-z
x,y,1/2-z
-x,y,z
x,-y,1/2+z
1/2+x,1/2+y,z
1/2-x,1/2-y,1/2+z
1/2+x,1/2-y,-z
1/2-x,1/2+y,1/2-z
1/2-x,1/2-y,-z
1/2+x,1/2+y,1/2-z
1/2-x,1/2+y,z
1/2+x,1/2-y,1/2+z
loop_
_atom_site_type_symbol
_atom_site_label
_atom_site_fract_x
_atom_site_fract_y
_atom_site_fract_z
Si Si1 0.903277 0.116172 0.419552
Si Si2 0.290947 0.936564 0.316704
Si Si3 0.596738 0.213996 0.362882
Si Si4 0.284058 0.291441 0.817120
Si Si5 0.853833 0.266879 0.501576
Si Si6 0.403241 0.439542 0.353196
Si Si7 0.603349 0.047885 0.563375
O O1 0.833760 0.160818 0.373001
O O2 0.892721 0.165610 0.484414
O O3 0.896568 0.004066 0.413744
O O4 0.000000 0.142306 0.396671
O O5 0.326934 0.963329 0.250000
O O6 0.293894 0.822064 0.321027
O O7 0.341843 0.975349 0.375879
O O8 0.187498 0.961544 0.319009
O O9 0.500000 0.181184 0.343688
O O10 0.680738 0.185345 0.323858
O O11 0.614390 0.192603 0.433959
O O12 0.596881 0.328057 0.362165
O O13 0.316052 0.320533 0.750000
O O14 0.750000 0.250000 0.500000
O O15 0.883850 0.341379 0.450800
O O16 0.500000 0.461860 0.325700
O O17 0.500000 0.027015 0.571367
O O18 0.634918 0.000000 0.500000
#
# Coordination Sequence:
#
# PCOD9473494 Si02
#       7
#    16  16  16  16  16  16  16
#     4  11  22  38  61  90 126 163 202 256 320 382
#     4  10  21  40  65  90 123 168 214 262 314 378
#     4  10  20  38  61  88 122 163 209 256 310 375
#     4  10  21  38  58  87 122 162 211 256 308 370
#     4  12  22  39  62  91 125 166 208 259 315 378
#     4   9  21  39  59  93 130 163 204 257 320 385
#     4  11  25  43  65  95 130 170 218 270 326 385
#
# _framework density 23.684957000000001
#
# number of rings (size 3 to 8) (size 9 to 14) (size 15 to 20)
#    0.000    1.571    2.857    2.143    2.000    2.286 
#    0.000    7.857    0.000    0.000    0.000    4.000 
#    0.000    0.000    0.000    0.000    0.000    0.000 
#
# Total GULP energy -312971.907076 kJ/mol
# GULP energy per Si atom -5588.784055 kJ/mol
# Density = 2.363105 g / cm^3
# Si number density = 23.684957 Si / 1000 Ang^3
#
#
#
# Elastic Constant Matrix: (Units=GPa)
#
#
# Indices 1 2 3 4 5 6 
#
# 1 134.0451 4.7030 44.6426 0.0000 0.0000 0.0000
# 2 4.7030 63.6616 9.4208 0.0000 0.0000 0.0000
# 3 44.6426 9.4208 133.1500 0.0000 0.0000 0.0000
# 4 0.0000 0.0000 0.0000 23.9559 0.0000 0.0000
# 5 0.0000 0.0000 0.0000 0.0000 3.7613 0.0000
# 6 0.0000 0.0000 0.0000 0.0000 0.0000 17.2231
#
#
#
# Elastic Compliance Matrix: (Units=1/GPa)
#
#
# Indices 1 2 3 4 5 6 
#
# 1 0.008401 -0.000206 -0.002802 0.000000 0.000000 0.000000
# 2 -0.000206 0.015879 -0.001054 0.000000 0.000000 0.000000
# 3 -0.002802 -0.001054 0.008524 0.000000 0.000000 0.000000
# 4 0.000000 0.000000 0.000000 0.041743 0.000000 0.000000
# 5 0.000000 0.000000 0.000000 0.000000 0.265864 0.000000
# 6 0.000000 0.000000 0.000000 0.000000 0.000000 0.058061
#
#
# Mechanical properties :
#
#
# Convention : Reuss Voigt Hill
#
# Bulk Modulus (GPa) = 40.51948 49.82106 45.17027
# Shear Modulus (GPa) = 12.05329 27.12742 19.59036
#
# Velocity S-wave (km/s) = 2.25833 3.38796 2.87909
# Velocity P-wave (km/s) = 4.89335 6.03200 5.49226
#
# Compressibility (1/GPa) = 0.02467949
#
# Stress axis : x y z
#
# Youngs Moduli (GPa) = 119.03943 62.97500 117.31057
#
# Poissons Ratio (x) = 0.01297 0.32870
# Poissons Ratio (y) = 0.02452 0.12370
# Poissons Ratio (z) = 0.33355 0.06641
#
# Static dielectric constant tensor:
#      x y z
#    x 1.884080 0.000000 0.000000 
#    y 0.000000 1.971220 0.000000 
#    z 0.000000 0.000000 1.871590 
# 
# From -- ./inp_files/63022.got.cif
#   From: 2010.05.17/outbox.cif.g08.bks.cpg/sg63_32_cif.got.tgz:63022.got - 2010.06.03 15:47:04.
