data_PCOD9473681
_publ_section_title
;
Structure prediction by ZEFSAII (Michael W. Deem and Ramdas Pophale) SiO2 
 PCOD9473681
Probable space group: C M C M
;
_chemical_formula_sum "Si O2"
_cell_formula_units_Z 88
_cell_length_a 13.152839
_cell_length_b 16.677049
_cell_length_c 20.620116
_cell_angle_alpha 90.000000
_cell_angle_beta 90.000000
_cell_angle_gamma 90.000000
_cell_volume 4523.033590
_symmetry_space_group_name_H-M "C M C M"
_symmetry_group_IT_number 63
_symmetry_cell_setting 'orthorhombic'
loop_
_space_group_symop_operation_xyz
x,y,z
-x,-y,1/2+z
x,-y,-z
-x,y,1/2-z
-x,-y,-z
x,y,1/2-z
-x,y,z
x,-y,1/2+z
1/2+x,1/2+y,z
1/2-x,1/2-y,1/2+z
1/2+x,1/2-y,-z
1/2-x,1/2+y,1/2-z
1/2-x,1/2-y,-z
1/2+x,1/2+y,1/2-z
1/2-x,1/2+y,z
1/2+x,1/2-y,1/2+z
loop_
_atom_site_type_symbol
_atom_site_label
_atom_site_fract_x
_atom_site_fract_y
_atom_site_fract_z
Si Si1 0.500000 0.743243 0.542866
Si Si2 0.211821 0.582648 0.123563
Si Si3 0.619190 0.890407 0.750000
Si Si4 0.218345 0.910680 0.357942
Si Si5 0.203917 0.837047 0.004057
Si Si6 0.000000 0.431357 0.553657
Si Si7 0.500000 0.669124 0.824697
Si Si8 0.619874 0.912727 0.250000
O O1 0.409817 0.688878 0.516933
O O2 0.500000 0.838523 0.527331
O O3 0.500000 0.738703 0.621267
O O4 0.180933 0.635375 0.185902
O O5 0.277514 0.506737 0.145272
O O6 0.101154 0.557344 0.096139
O O7 0.269002 0.621314 0.063084
O O8 0.500000 0.869327 0.750000
O O9 0.620585 0.989006 0.750000
O O10 0.239011 0.885516 0.432423
O O11 0.311983 0.884712 0.311519
O O12 0.106824 0.878400 0.337242
O O13 0.250000 0.750000 0.000000
O O14 0.000000 0.500000 0.500000
O O15 0.500000 0.693563 0.750000
O O16 0.500000 0.889386 0.250000
#
# Coordination Sequence:
#
# PCOD9473681 Si02
#       8
#     8  16   8  16  16   8   8   8
#     4  10  24  41  60  93 128 166 207 266 319 377
#     4  11  22  38  61  91 123 161 207 262 323 384
#     4   9  18  36  54  85 125 155 196 257 313 369
#     4  10  21  37  63  92 122 164 213 258 311 375
#     4  11  22  40  58  87 125 160 204 255 316 382
#     4  12  22  37  62  97 123 163 205 254 328 382
#     4  10  20  41  67  90 128 172 220 259 308 386
#     4   9  18  35  56  91 129 160 193 251 319 373
#
# _framework density 19.455969
#
# number of rings (size 3 to 8) (size 9 to 14) (size 15 to 20)
#    0.000    1.636    3.636    1.636    1.273    0.727 
#    4.909    3.636    0.000    0.000    0.000    0.000 
#    0.000    0.000    0.000    0.000    0.000    0.000 
#
# Total GULP energy -245230.025957 kJ/mol
# GULP energy per Si atom -5573.409681 kJ/mol
# Density = 1.941169 g / cm^3
# Si number density = 19.455969 Si / 1000 Ang^3
#
#
#
# Elastic Constant Matrix: (Units=GPa)
#
#
# Indices 1 2 3 4 5 6 
#
# 1 123.3128 29.2737 62.8304 0.0000 0.0000 0.0000
# 2 29.2737 54.1137 33.1354 0.0000 0.0000 0.0000
# 3 62.8304 33.1354 172.4391 0.0000 0.0000 0.0000
# 4 0.0000 0.0000 0.0000 0.3356 0.0000 0.0000
# 5 0.0000 0.0000 0.0000 0.0000 -42.6601 0.0000
# 6 0.0000 0.0000 0.0000 0.0000 0.0000 23.8840
#
#
#
# Elastic Compliance Matrix: (Units=1/GPa)
#
#
# Indices 1 2 3 4 5 6 
#
# 1 0.010613 -0.003823 -0.003132 0.000000 0.000000 0.000000
# 2 -0.003823 0.022321 -0.002896 0.000000 0.000000 0.000000
# 3 -0.003132 -0.002896 0.007497 0.000000 0.000000 0.000000
# 4 0.000000 0.000000 0.000000 2.979846 0.000000 0.000000
# 5 0.000000 0.000000 0.000000 0.000000 -0.023441 0.000000
# 6 0.000000 0.000000 0.000000 0.000000 0.000000 0.041869
#
#
# Mechanical properties :
#
#
# Convention : Reuss Voigt Hill
#
# Bulk Modulus (GPa) = 48.24437 66.70494 57.47465
# Shear Modulus (GPa) = 1.63115 11.28697 6.45906
#
# Velocity S-wave (km/s) = 0.91663 2.41120 1.82402
# Velocity P-wave (km/s) = 5.09615 6.48933 5.83447
#
# Compressibility (1/GPa) = 0.02072781
#
# Stress axis : x y z
#
# Youngs Moduli (GPa) = 94.22341 44.80030 133.38726
#
# Poissons Ratio (x) = 0.17128 0.41781
# Poissons Ratio (y) = 0.36024 0.38631
# Poissons Ratio (z) = 0.29514 0.12975
#
# Static dielectric constant tensor:
#      x y z
#    x 1.639200 0.000000 0.000000 
#    y 0.000000 1.668990 0.000000 
#    z 0.000000 0.000000 1.709230 
# 
# From -- ./inp_files/52627.got.cif
#   From: 2010.05.17/outbox.cif.g08.bks.cpg/sg63_27_cif.got.tgz:52627.got - 2010.06.03 15:47:04.
