data_PCOD9473432
_publ_section_title
;
Structure prediction by ZEFSAII (Michael W. Deem and Ramdas Pophale) SiO2 
 PCOD9473432
Probable space group: C M C M
;
_chemical_formula_sum "Si O2"
_cell_formula_units_Z 48
_cell_length_a 12.243203
_cell_length_b 7.940345
_cell_length_c 18.256819
_cell_angle_alpha 90.000000
_cell_angle_beta 90.000000
_cell_angle_gamma 90.000000
_cell_volume 1774.841328
_symmetry_space_group_name_H-M "C M C M"
_symmetry_group_IT_number 63
_symmetry_cell_setting 'orthorhombic'
loop_
_space_group_symop_operation_xyz
x,y,z
-x,-y,1/2+z
x,-y,-z
-x,y,1/2-z
-x,-y,-z
x,y,1/2-z
-x,y,z
x,-y,1/2+z
1/2+x,1/2+y,z
1/2-x,1/2-y,1/2+z
1/2+x,1/2-y,-z
1/2-x,1/2+y,1/2-z
1/2-x,1/2-y,-z
1/2+x,1/2+y,1/2-z
1/2-x,1/2+y,z
1/2+x,1/2-y,1/2+z
loop_
_atom_site_type_symbol
_atom_site_label
_atom_site_fract_x
_atom_site_fract_y
_atom_site_fract_z
Si Si1 0.841745 0.493375 0.337703
Si Si2 0.376253 0.193055 0.526396
Si Si3 0.387472 0.379084 0.337897
O O1 0.857368 0.469347 0.250000
O O2 0.882067 0.338155 0.385679
O O3 0.714814 0.487166 0.358888
O O4 0.880840 0.680950 0.356701
O O5 0.500000 0.265236 0.505995
O O6 0.250000 0.250000 0.500000
O O7 0.379050 0.000000 0.500000
O O8 0.386243 0.378824 0.250000
O O9 0.500000 0.451038 0.364876
#
# Coordination Sequence:
#
# PCOD9473432 Si02
#       3
#    16  16  16
#     4  10  20  37  64  93 120 158 209 259 307 363
#     4  11  25  44  65  92 129 170 210 256 314 378
#     4   9  18  34  57  87 123 157 193 248 311 363
#
# _framework density 27.044671999999998
#
# number of rings (size 3 to 8) (size 9 to 14) (size 15 to 20)
#    0.000    2.000    0.000    3.000    0.000    6.667 
#    0.000    6.667    0.000   20.000    0.000    0.000 
#    0.000    0.000    0.000    0.000    0.000    0.000 
#
# Total GULP energy -133688.186342 kJ/mol
# GULP energy per Si atom -5570.341098 kJ/mol
# Density = 2.698312 g / cm^3
# Si number density = 27.044672 Si / 1000 Ang^3
#
#
#
# Elastic Constant Matrix: (Units=GPa)
#
#
# Indices 1 2 3 4 5 6 
#
# 1 302.4318 55.7678 10.1151 0.0000 0.0000 0.0000
# 2 55.7678 85.3557 32.5177 0.0000 0.0000 0.0000
# 3 10.1151 32.5177 99.9596 0.0000 0.0000 0.0000
# 4 0.0000 0.0000 0.0000 26.0184 0.0000 0.0000
# 5 0.0000 0.0000 0.0000 0.0000 -532.5549 0.0000
# 6 0.0000 0.0000 0.0000 0.0000 0.0000 72.3043
#
#
#
# Elastic Compliance Matrix: (Units=1/GPa)
#
#
# Indices 1 2 3 4 5 6 
#
# 1 0.003780 -0.002652 0.000480 0.000000 0.000000 0.000000
# 2 -0.002652 0.015234 -0.004687 0.000000 0.000000 0.000000
# 3 0.000480 -0.004687 0.011480 0.000000 0.000000 0.000000
# 4 0.000000 0.000000 0.000000 0.038434 0.000000 0.000000
# 5 0.000000 0.000000 0.000000 0.000000 -0.001878 0.000000
# 6 0.000000 0.000000 0.000000 0.000000 0.000000 0.013830
#
#
# Mechanical properties :
#
#
# Convention : Reuss Voigt Hill
#
# Bulk Modulus (GPa) = 59.61151 76.06092 67.83622
# Shear Modulus (GPa) = 49.90409 -60.89000 -5.49295
#
# Velocity S-wave (km/s) = 4.30029 -4.75010 -1.42670
# Velocity P-wave (km/s) = 6.83714 1.37819 4.73535
#
# Compressibility (1/GPa) = 0.01677528
#
# Stress axis : x y z
#
# Youngs Moduli (GPa) = 264.58068 65.64069 87.10560
#
# Poissons Ratio (x) = 0.17411 -0.04185
# Poissons Ratio (y) = 0.70178 0.40831
# Poissons Ratio (z) = -0.12710 0.30769
#
# Static dielectric constant tensor:
#      x y z
#    x 1.912800 0.000000 0.000000 
#    y 0.000000 1.966500 0.000000 
#    z 0.000000 0.000000 2.275160 
# 
# From -- ./inp_files/58869.got.cif
#   From: 2010.05.17/outbox.cif.g08.bks.cpg/sg63_30_cif.got.tgz:58869.got - 2010.06.03 15:47:04.
