data_PCOD9473443
_publ_section_title
;
Structure prediction by ZEFSAII (Michael W. Deem and Ramdas Pophale) SiO2 
 PCOD9473443
Probable space group: C M C M
;
_chemical_formula_sum "Si O2"
_cell_formula_units_Z 72
_cell_length_a 15.047728
_cell_length_b 9.749726
_cell_length_c 26.204953
_cell_angle_alpha 90.000000
_cell_angle_beta 90.000000
_cell_angle_gamma 90.000000
_cell_volume 3844.560754
_symmetry_space_group_name_H-M "C M C M"
_symmetry_group_IT_number 63
_symmetry_cell_setting 'orthorhombic'
loop_
_space_group_symop_operation_xyz
x,y,z
-x,-y,1/2+z
x,-y,-z
-x,y,1/2-z
-x,-y,-z
x,y,1/2-z
-x,y,z
x,-y,1/2+z
1/2+x,1/2+y,z
1/2-x,1/2-y,1/2+z
1/2+x,1/2-y,-z
1/2-x,1/2+y,1/2-z
1/2-x,1/2-y,-z
1/2+x,1/2+y,1/2-z
1/2-x,1/2+y,z
1/2+x,1/2-y,1/2+z
loop_
_atom_site_type_symbol
_atom_site_label
_atom_site_fract_x
_atom_site_fract_y
_atom_site_fract_z
Si Si1 0.307393 0.375460 0.131676
Si Si2 0.195708 0.413639 0.809634
Si Si3 0.000000 0.410757 0.809207
Si Si4 0.500000 0.835110 0.493926
Si Si5 0.000000 0.819243 0.103204
Si Si6 0.307706 0.857949 0.031342
O O1 0.272994 0.486969 0.171594
O O2 0.303919 0.225432 0.157487
O O3 0.407051 0.398311 0.110278
O O4 0.238522 0.380517 0.085150
O O5 0.205963 0.381287 0.750000
O O6 0.096466 0.480569 0.816214
O O7 0.000000 0.289677 0.850361
O O8 0.000000 0.360994 0.750000
O O9 0.500000 0.761475 0.549254
O O10 0.591628 0.803088 0.465530
O O11 0.500000 0.000000 0.500000
O O12 0.250000 0.750000 0.000000
O O13 0.308986 0.000000 0.000000
#
# Coordination Sequence:
#
# PCOD9473443 Si02
#       6
#    16  16   8   8   8  16
#     4  11  22  38  62  85 120 156 198 240 296 354
#     4  10  21  39  62  89 116 150 195 247 296 351
#     4   8  18  34  59  84 109 145 196 239 283 344
#     4  10  22  36  60  84 117 153 202 244 284 343
#     4  10  20  38  57  84 118 162 195 232 289 362
#     4  11  22  38  58  86 117 156 195 242 294 348
#
# _framework density 18.727758000000001
#
# number of rings (size 3 to 8) (size 9 to 14) (size 15 to 20)
#    0.000    1.778    2.222    2.000    9.333    0.889 
#    0.000    6.667    0.000    0.000    0.000    0.000 
#    0.000    0.000    0.000    0.000    0.000    0.000 
#
# Total GULP energy -200731.710198 kJ/mol
# GULP energy per Si atom -5575.880839 kJ/mol
# Density = 1.868513 g / cm^3
# Si number density = 18.727758 Si / 1000 Ang^3
#
#
#
# Elastic Constant Matrix: (Units=GPa)
#
#
# Indices 1 2 3 4 5 6 
#
# 1 181.9030 32.9576 52.3008 0.0000 0.0000 0.0000
# 2 32.9576 49.2495 3.4749 0.0000 0.0000 0.0000
# 3 52.3008 3.4749 79.9172 0.0000 0.0000 0.0000
# 4 0.0000 0.0000 0.0000 32.4569 0.0000 0.0000
# 5 0.0000 0.0000 0.0000 0.0000 29.1373 0.0000
# 6 0.0000 0.0000 0.0000 0.0000 0.0000 25.4549
#
#
#
# Elastic Compliance Matrix: (Units=1/GPa)
#
#
# Indices 1 2 3 4 5 6 
#
# 1 0.007782 -0.004863 -0.004881 0.000000 0.000000 0.000000
# 2 -0.004863 0.023407 0.002165 0.000000 0.000000 0.000000
# 3 -0.004881 0.002165 0.015613 0.000000 0.000000 0.000000
# 4 0.000000 0.000000 0.000000 0.030810 0.000000 0.000000
# 5 0.000000 0.000000 0.000000 0.000000 0.034320 0.000000
# 6 0.000000 0.000000 0.000000 0.000000 0.000000 0.039285
#
#
# Mechanical properties :
#
#
# Convention : Reuss Voigt Hill
#
# Bulk Modulus (GPa) = 31.60302 54.28181 42.94241
# Shear Modulus (GPa) = 28.26061 32.23223 30.24642
#
# Velocity S-wave (km/s) = 3.88883 4.15311 4.02314
# Velocity P-wave (km/s) = 6.08897 7.21425 6.67536
#
# Compressibility (1/GPa) = 0.03164255
#
# Stress axis : x y z
#
# Youngs Moduli (GPa) = 128.50007 42.72307 64.04751
#
# Poissons Ratio (x) = 0.20778 0.31264
# Poissons Ratio (y) = 0.62494 -0.13866
# Poissons Ratio (z) = 0.62726 -0.09250
#
# Static dielectric constant tensor:
#      x y z
#    x 1.672050 0.000000 0.000000 
#    y 0.000000 1.635000 0.000000 
#    z 0.000000 0.000000 1.664610 
# 
# From -- ./inp_files/69085.got.cif
#   From: 2010.05.17/outbox.cif.g08.bks.cpg/sg63_35_cif.got.tgz:69085.got - 2010.06.03 15:47:04.
