data_PCOD9473109
_publ_section_title
;
Structure prediction by ZEFSAII (Michael W. Deem and Ramdas Pophale) SiO2 
 PCOD9473109
Probable space group: C M C M
;
_chemical_formula_sum "Si O2"
_cell_formula_units_Z 80
_cell_length_a 8.374920
_cell_length_b 15.407178
_cell_length_c 30.823515
_cell_angle_alpha 90.000000
_cell_angle_beta 90.000000
_cell_angle_gamma 90.000000
_cell_volume 3977.277834
_symmetry_space_group_name_H-M "C M C M"
_symmetry_group_IT_number 63
_symmetry_cell_setting 'orthorhombic'
loop_
_space_group_symop_operation_xyz
x,y,z
-x,-y,1/2+z
x,-y,-z
-x,y,1/2-z
-x,-y,-z
x,y,1/2-z
-x,y,z
x,-y,1/2+z
1/2+x,1/2+y,z
1/2-x,1/2-y,1/2+z
1/2+x,1/2-y,-z
1/2-x,1/2+y,1/2-z
1/2-x,1/2-y,-z
1/2+x,1/2+y,1/2-z
1/2-x,1/2+y,z
1/2+x,1/2-y,1/2+z
loop_
_atom_site_type_symbol
_atom_site_label
_atom_site_fract_x
_atom_site_fract_y
_atom_site_fract_z
Si Si1 0.805012 0.868371 0.799636
Si Si2 0.183129 0.455611 0.453577
Si Si3 0.809343 0.983167 0.134212
Si Si4 0.810303 0.713741 0.638636
Si Si5 0.680393 0.727221 0.953191
O O1 0.750172 0.870404 0.750000
O O2 0.758228 0.953195 0.827144
O O3 0.753403 0.782027 0.825381
O O4 0.000000 0.867131 0.799195
O O5 0.194490 0.500000 0.500000
O O6 0.224962 0.510344 0.410976
O O7 0.306428 0.376887 0.452406
O O8 0.000000 0.422929 0.449029
O O9 0.000000 0.990265 0.129207
O O10 0.764896 0.882279 0.142540
O O11 0.772287 0.752119 0.590724
O O12 0.000000 0.703744 0.642509
O O13 0.500000 0.758952 0.950480
O O14 0.750000 0.750000 0.000000
#
# Coordination Sequence:
#
# PCOD9473109 Si02
#       5
#    16  16  16  16  16
#     4   9  20  38  60  86 115 151 195 238 290 352
#     4  10  21  36  54  81 114 150 188 234 286 338
#     4  10  20  36  58  84 114 152 192 238 288 343
#     4  10  20  37  59  84 115 153 193 239 291 344
#     4  11  22  36  55  81 114 151 191 234 285 344
#
# _framework density 20.114260999999999
#
# number of rings (size 3 to 8) (size 9 to 14) (size 15 to 20)
#    0.000    2.000    0.000    6.000    2.800    2.400 
#    0.000    3.000    0.000    8.400    0.000    0.000 
#    0.000    0.000    0.000    0.000    0.000    0.000 
#
# Total GULP energy -223194.274387 kJ/mol
# GULP energy per Si atom -5579.856860 kJ/mol
# Density = 2.006848 g / cm^3
# Si number density = 20.114261 Si / 1000 Ang^3
#
#
#
# Elastic Constant Matrix: (Units=GPa)
#
#
# Indices 1 2 3 4 5 6 
#
# 1 51.3247 7.6716 19.6132 0.0000 0.0000 0.0000
# 2 7.6716 79.2880 76.3963 0.0000 0.0000 0.0000
# 3 19.6132 76.3963 201.4755 0.0000 0.0000 0.0000
# 4 0.0000 0.0000 0.0000 37.5541 0.0000 0.0000
# 5 0.0000 0.0000 0.0000 0.0000 20.6453 0.0000
# 6 0.0000 0.0000 0.0000 0.0000 0.0000 19.8919
#
#
#
# Elastic Compliance Matrix: (Units=1/GPa)
#
#
# Indices 1 2 3 4 5 6 
#
# 1 0.020237 -0.000094 -0.001934 0.000000 0.000000 0.000000
# 2 -0.000094 0.019873 -0.007526 0.000000 0.000000 0.000000
# 3 -0.001934 -0.007526 0.008006 0.000000 0.000000 0.000000
# 4 0.000000 0.000000 0.000000 0.026628 0.000000 0.000000
# 5 0.000000 0.000000 0.000000 0.000000 0.048437 0.000000
# 6 0.000000 0.000000 0.000000 0.000000 0.000000 0.050272
#
#
# Mechanical properties :
#
#
# Convention : Reuss Voigt Hill
#
# Bulk Modulus (GPa) = 34.47580 59.93893 47.20737
# Shear Modulus (GPa) = 24.72409 30.84540 27.78474
#
# Velocity S-wave (km/s) = 3.50977 3.92025 3.72068
# Velocity P-wave (km/s) = 5.79671 7.09613 6.47908
#
# Compressibility (1/GPa) = 0.02900586
#
# Stress axis : x y z
#
# Youngs Moduli (GPa) = 49.41430 50.31862 124.91255
#
# Poissons Ratio (x) = 0.00475 0.24161
# Poissons Ratio (y) = 0.00466 0.94015
# Poissons Ratio (z) = 0.09558 0.37872
#
# Static dielectric constant tensor:
#      x y z
#    x 1.698690 0.000000 0.000000 
#    y 0.000000 1.722410 0.000000 
#    z 0.000000 0.000000 1.740240 
# 
# From -- ./inp_files/66583.got.cif
#   From: 2010.05.17/outbox.cif.g08.bks.cpg/sg63_34_cif.got.tgz:66583.got - 2010.06.03 15:47:04.
