data_PCOD9473497
_publ_section_title
;
Structure prediction by ZEFSAII (Michael W. Deem and Ramdas Pophale) SiO2 
 PCOD9473497
Probable space group: C M C M
;
_chemical_formula_sum "Si O2"
_cell_formula_units_Z 100
_cell_length_a 7.613012
_cell_length_b 29.420331
_cell_length_c 21.846584
_cell_angle_alpha 90.000000
_cell_angle_beta 90.000000
_cell_angle_gamma 90.000000
_cell_volume 4893.139618
_symmetry_space_group_name_H-M "C M C M"
_symmetry_group_IT_number 63
_symmetry_cell_setting 'orthorhombic'
loop_
_space_group_symop_operation_xyz
x,y,z
-x,-y,1/2+z
x,-y,-z
-x,y,1/2-z
-x,-y,-z
x,y,1/2-z
-x,y,z
x,-y,1/2+z
1/2+x,1/2+y,z
1/2-x,1/2-y,1/2+z
1/2+x,1/2-y,-z
1/2-x,1/2+y,1/2-z
1/2-x,1/2-y,-z
1/2+x,1/2+y,1/2-z
1/2-x,1/2+y,z
1/2+x,1/2-y,1/2+z
loop_
_atom_site_type_symbol
_atom_site_label
_atom_site_fract_x
_atom_site_fract_y
_atom_site_fract_z
Si Si1 0.000000 0.053295 0.250000
Si Si2 0.795142 0.267946 0.401383
Si Si3 0.693205 0.967622 0.654171
Si Si4 0.713068 0.421642 0.528103
Si Si5 0.206136 0.939252 0.108989
Si Si6 0.786209 0.816859 0.528336
Si Si7 0.786551 0.652237 0.679999
O O1 0.153786 0.050923 0.196738
O O2 0.723610 0.218395 0.419506
O O3 0.779756 0.297243 0.463781
O O4 0.721285 0.300196 0.348632
O O5 0.000000 0.260985 0.386841
O O6 0.500000 0.953974 0.675018
O O7 0.720405 0.950669 0.584655
O O8 0.705972 0.022349 0.650232
O O9 0.500000 0.423424 0.528007
O O10 0.771734 0.437937 0.460946
O O11 0.765450 0.368907 0.536378
O O12 0.226858 0.889704 0.138452
O O13 0.000000 0.950945 0.107215
O O14 0.000000 0.815075 0.526175
O O15 0.730982 0.646296 0.750000
O O16 0.000000 0.652606 0.678260
#
# Coordination Sequence:
#
# PCOD9473497 Si02
#       7
#     4  16  16  16  16  16  16
#     4  12  26  52  66  90 128 164 216 268 312 382
#     4   9  17  31  51  80 115 152 199 258 307 369
#     4  12  26  43  69  93 123 168 213 262 319 379
#     4  10  20  38  61  90 128 162 208 269 325 376
#     4  11  22  38  60  90 126 164 206 264 319 378
#     4   9  17  31  56  82 114 152 198 251 318 370
#     4  10  21  34  51  79 120 162 207 256 315 385
#
# _framework density 20.436776999999999
#
# number of rings (size 3 to 8) (size 9 to 14) (size 15 to 20)
#    0.000    1.760    3.200    1.200    1.120    4.160 
#    0.000    0.000    1.760    0.000    0.000    0.000 
#    0.000    0.000    0.000    0.000    0.000    0.160 
#
# Total GULP energy -278762.328887 kJ/mol
# GULP energy per Si atom -5575.246578 kJ/mol
# Density = 2.039026 g / cm^3
# Si number density = 20.436777 Si / 1000 Ang^3
#
#
#
# Elastic Constant Matrix: (Units=GPa)
#
#
# Indices 1 2 3 4 5 6 
#
# 1 90.9875 -4.2589 16.9571 0.0000 0.0000 0.0000
# 2 -4.2589 34.8155 -9.1789 0.0000 0.0000 0.0000
# 3 16.9571 -9.1789 100.6091 0.0000 0.0000 0.0000
# 4 0.0000 0.0000 0.0000 -17.5474 0.0000 0.0000
# 5 0.0000 0.0000 0.0000 0.0000 7.2880 0.0000
# 6 0.0000 0.0000 0.0000 0.0000 0.0000 13.3544
#
#
#
# Elastic Compliance Matrix: (Units=1/GPa)
#
#
# Indices 1 2 3 4 5 6 
#
# 1 0.011375 0.000908 -0.001834 0.000000 0.000000 0.000000
# 2 0.000908 0.029503 0.002539 0.000000 0.000000 0.000000
# 3 -0.001834 0.002539 0.010480 0.000000 0.000000 0.000000
# 4 0.000000 0.000000 0.000000 -0.056989 0.000000 0.000000
# 5 0.000000 0.000000 0.000000 0.000000 0.137212 0.000000
# 6 0.000000 0.000000 0.000000 0.000000 0.000000 0.074882
#
#
# Mechanical properties :
#
#
# Convention : Reuss Voigt Hill
#
# Bulk Modulus (GPa) = 18.32085 25.93896 22.12991
# Shear Modulus (GPa) = 22.58012 15.47852 19.02932
#
# Velocity S-wave (km/s) = 3.32757 2.75505 3.05475
# Velocity P-wave (km/s) = 4.87317 4.77915 4.82639
#
# Compressibility (1/GPa) = 0.05458263
#
# Stress axis : x y z
#
# Youngs Moduli (GPa) = 87.91307 33.89464 95.41772
#
# Poissons Ratio (x) = -0.03077 0.17503
# Poissons Ratio (y) = -0.07981 -0.24223
# Poissons Ratio (z) = 0.16126 -0.08605
#
# Static dielectric constant tensor:
#      x y z
#    x 1.827990 0.000000 0.000000 
#    y 0.000000 1.721120 0.000000 
#    z 0.000000 0.000000 1.696210 
# 
# From -- ./inp_files/51670.got.cif
#   From: 2010.05.17/outbox.cif.g08.bks.cpg/sg63_26_cif.got.tgz:51670.got - 2010.06.03 15:47:04.
