data_PCOD9473029
_publ_section_title
;
Structure prediction by ZEFSAII (Michael W. Deem and Ramdas Pophale) SiO2 
 PCOD9473029
Probable space group: C M C M
;
_chemical_formula_sum "Si O2"
_cell_formula_units_Z 80
_cell_length_a 24.306468
_cell_length_b 12.706668
_cell_length_c 14.207186
_cell_angle_alpha 90.000000
_cell_angle_beta 90.000000
_cell_angle_gamma 90.000000
_cell_volume 4387.949338
_symmetry_space_group_name_H-M "C M C M"
_symmetry_group_IT_number 63
_symmetry_cell_setting 'orthorhombic'
loop_
_space_group_symop_operation_xyz
x,y,z
-x,-y,1/2+z
x,-y,-z
-x,y,1/2-z
-x,-y,-z
x,y,1/2-z
-x,y,z
x,-y,1/2+z
1/2+x,1/2+y,z
1/2-x,1/2-y,1/2+z
1/2+x,1/2-y,-z
1/2-x,1/2+y,1/2-z
1/2-x,1/2-y,-z
1/2+x,1/2+y,1/2-z
1/2-x,1/2+y,z
1/2+x,1/2-y,1/2+z
loop_
_atom_site_type_symbol
_atom_site_label
_atom_site_fract_x
_atom_site_fract_y
_atom_site_fract_z
Si Si1 0.133197 0.916228 0.750000
Si Si2 0.658327 0.296325 0.041646
Si Si3 0.724861 0.500000 0.000000
Si Si4 0.678636 0.185243 0.750000
Si Si5 0.827817 0.413542 0.061293
Si Si6 0.563295 0.607850 0.059765
Si Si7 0.690424 0.357740 0.250000
O O1 0.168304 0.809330 0.750000
O O2 0.094895 0.912835 0.842563
O O3 0.170983 0.020244 0.750000
O O4 0.688469 0.396658 0.993299
O O5 0.665928 0.309531 0.153112
O O6 0.683075 0.187703 0.003997
O O7 0.596531 0.307220 0.002563
O O8 0.769501 0.473226 0.080630
O O9 0.651938 0.132106 0.658462
O O10 0.744256 0.164926 0.750000
O O11 0.860170 0.500000 0.000000
O O12 0.500000 0.637158 0.076300
O O13 0.564502 0.500000 0.000000
#
# Coordination Sequence:
#
# PCOD9473029 Si02
#       7
#     8  16   8   8  16  16   8
#     4  12  23  42  62  92 128 158 207 250 308 374
#     4  12  21  40  57  87 127 163 197 256 305 359
#     4  10  20  36  57  80 123 164 200 242 304 362
#     4  12  24  35  61  86 121 172 205 238 299 372
#     4  10  24  37  56  84 123 163 208 240 295 372
#     4  11  23  40  65  90 118 157 207 265 314 355
#     4  12  24  33  57  92 125 170 193 240 305 376
#
# _framework density 18.231750999999999
#
# number of rings (size 3 to 8) (size 9 to 14) (size 15 to 20)
#    0.600    0.200    7.000    0.900    0.000    2.400 
#    0.000    0.500    0.000    0.600    0.000    0.000 
#    0.000    0.000    0.000    0.000    0.000    0.000 
#
# Total GULP energy -222938.642765 kJ/mol
# GULP energy per Si atom -5573.466069 kJ/mol
# Density = 1.819025 g / cm^3
# Si number density = 18.231751 Si / 1000 Ang^3
#
#
#
# Elastic Constant Matrix: (Units=GPa)
#
#
# Indices 1 2 3 4 5 6 
#
# 1 85.1418 21.0875 30.0381 0.0000 0.0000 0.0000
# 2 21.0875 119.2100 60.4905 0.0000 0.0000 0.0000
# 3 30.0381 60.4905 154.7904 0.0000 0.0000 0.0000
# 4 0.0000 0.0000 0.0000 23.1111 0.0000 0.0000
# 5 0.0000 0.0000 0.0000 0.0000 19.4234 0.0000
# 6 0.0000 0.0000 0.0000 0.0000 0.0000 14.8412
#
#
#
# Elastic Compliance Matrix: (Units=1/GPa)
#
#
# Indices 1 2 3 4 5 6 
#
# 1 0.012755 -0.001248 -0.001988 0.000000 0.000000 0.000000
# 2 -0.001248 0.010585 -0.003895 0.000000 0.000000 0.000000
# 3 -0.001988 -0.003895 0.008368 0.000000 0.000000 0.000000
# 4 0.000000 0.000000 0.000000 0.043269 0.000000 0.000000
# 5 0.000000 0.000000 0.000000 0.000000 0.051484 0.000000
# 6 0.000000 0.000000 0.000000 0.000000 0.000000 0.067380
#
#
# Mechanical properties :
#
#
# Convention : Reuss Voigt Hill
#
# Bulk Modulus (GPa) = 57.31004 64.70828 61.00916
# Shear Modulus (GPa) = 23.37338 27.97688 25.67513
#
# Velocity S-wave (km/s) = 3.58441 3.92154 3.75676
# Velocity P-wave (km/s) = 6.97374 7.48824 7.23557
#
# Compressibility (1/GPa) = 0.01744895
#
# Stress axis : x y z
#
# Youngs Moduli (GPa) = 78.39817 94.46894 119.50246
#
# Poissons Ratio (x) = 0.11787 0.23753
# Poissons Ratio (y) = 0.09782 0.46541
# Poissons Ratio (z) = 0.15583 0.36792
#
# Static dielectric constant tensor:
#      x y z
#    x 1.652870 0.000000 0.000000 
#    y 0.000000 1.645760 0.000000 
#    z 0.000000 0.000000 1.676360 
# 
# From -- ./inp_files/36536.got.cif
#   From: 2010.05.17/outbox.cif.g08.bks.cpg/sg63_19_cif.got.tgz:36536.got - 2010.06.03 15:47:04.
