data_PCOD9473823
_publ_section_title
;
Structure prediction by ZEFSAII (Michael W. Deem and Ramdas Pophale) SiO2 
 PCOD9473823
Probable space group: C M C M
;
_chemical_formula_sum "Si O2"
_cell_formula_units_Z 116
_cell_length_a 23.028688
_cell_length_b 28.643539
_cell_length_c 9.002483
_cell_angle_alpha 90.000000
_cell_angle_beta 90.000000
_cell_angle_gamma 90.000000
_cell_volume 5938.245950
_symmetry_space_group_name_H-M "C M C M"
_symmetry_group_IT_number 63
_symmetry_cell_setting 'orthorhombic'
loop_
_space_group_symop_operation_xyz
x,y,z
-x,-y,1/2+z
x,-y,-z
-x,y,1/2-z
-x,-y,-z
x,y,1/2-z
-x,y,z
x,-y,1/2+z
1/2+x,1/2+y,z
1/2-x,1/2-y,1/2+z
1/2+x,1/2-y,-z
1/2-x,1/2+y,1/2-z
1/2-x,1/2-y,-z
1/2+x,1/2+y,1/2-z
1/2-x,1/2+y,z
1/2+x,1/2-y,1/2+z
loop_
_atom_site_type_symbol
_atom_site_label
_atom_site_fract_x
_atom_site_fract_y
_atom_site_fract_z
Si Si1 0.340553 0.866785 0.422096
Si Si2 0.867490 0.135731 0.074988
Si Si3 0.615342 0.952280 0.586625
Si Si4 0.067840 0.949230 0.072011
Si Si5 0.431395 0.272377 0.913821
Si Si6 0.000000 0.573144 0.250000
Si Si7 0.754282 0.198326 0.071533
Si Si8 0.069556 0.315004 0.584211
O O1 0.325876 0.867772 0.250000
O O2 0.344376 0.917512 0.494757
O O3 0.298727 0.832514 0.512007
O O4 0.404049 0.845401 0.453463
O O5 0.861320 0.124156 0.250000
O O6 0.918115 0.174091 0.057663
O O7 0.811023 0.166760 0.031607
O O8 0.887497 0.089809 0.987993
O O9 0.641309 0.961257 0.750000
O O10 0.552070 0.930352 0.623464
O O11 0.606603 0.000000 0.500000
O O12 0.072054 0.952364 0.250000
O O13 0.000000 0.936976 0.035019
O O14 0.079054 0.000000 0.000000
O O15 0.405491 0.260765 0.750000
O O16 0.500000 0.265454 0.904410
O O17 0.411733 0.237624 0.042730
O O18 0.753501 0.203145 0.250000
O O19 0.750000 0.250000 0.000000
O O20 0.090038 0.328536 0.750000
O O21 0.000000 0.318632 0.588584
#
# Coordination Sequence:
#
# PCOD9473823 Si02
#       8
#    16  16  16  16  16   4  16  16
#     4  12  25  40  59  84 117 158 206 252 305 359
#     4  10  21  37  60  87 116 153 199 244 299 357
#     4  10  21  39  61  91 124 159 195 244 300 366
#     4  10  21  37  60  92 129 164 199 242 294 355
#     4   9  17  31  52  81 116 149 183 229 290 361
#     4   8  22  36  66  92 130 156 198 244 304 372
#     4  11  24  43  66  92 121 159 206 260 311 364
#     4  10  21  35  53  79 113 149 189 242 305 366
#
# _framework density 19.534389000000001
#
# number of rings (size 3 to 8) (size 9 to 14) (size 15 to 20)
#    0.414    1.379    0.000    4.345    0.966    4.966 
#    0.000    2.069    0.000    3.310    0.000    0.000 
#    0.000    0.000    0.000    0.000    0.000    0.000 
#
# Total GULP energy -322876.434290 kJ/mol
# GULP energy per Si atom -5566.835074 kJ/mol
# Density = 1.948993 g / cm^3
# Si number density = 19.534389 Si / 1000 Ang^3
#
#
#
# Elastic Constant Matrix: (Units=GPa)
#
#
# Indices 1 2 3 4 5 6 
#
# 1 60.3618 47.3461 39.4374 0.0000 0.0000 0.0000
# 2 47.3461 115.5884 55.9784 0.0000 0.0000 0.0000
# 3 39.4374 55.9784 93.2305 0.0000 0.0000 0.0000
# 4 0.0000 0.0000 0.0000 35.7919 0.0000 0.0000
# 5 0.0000 0.0000 0.0000 0.0000 23.0571 0.0000
# 6 0.0000 0.0000 0.0000 0.0000 0.0000 21.9139
#
#
#
# Elastic Compliance Matrix: (Units=1/GPa)
#
#
# Indices 1 2 3 4 5 6 
#
# 1 0.027139 -0.007835 -0.006776 0.000000 0.000000 0.000000
# 2 -0.007835 0.014460 -0.005368 0.000000 0.000000 0.000000
# 3 -0.006776 -0.005368 0.016816 0.000000 0.000000 0.000000
# 4 0.000000 0.000000 0.000000 0.027939 0.000000 0.000000
# 5 0.000000 0.000000 0.000000 0.000000 0.043371 0.000000
# 6 0.000000 0.000000 0.000000 0.000000 0.000000 0.045633
#
#
# Mechanical properties :
#
#
# Convention : Reuss Voigt Hill
#
# Bulk Modulus (GPa) = 54.17923 61.63384 57.90654
# Shear Modulus (GPa) = 22.57652 24.58050 23.57851
#
# Velocity S-wave (km/s) = 3.40329 3.55113 3.47800
# Velocity P-wave (km/s) = 6.57562 6.95945 6.77025
#
# Compressibility (1/GPa) = 0.01845726
#
# Stress axis : x y z
#
# Youngs Moduli (GPa) = 36.84683 69.15401 59.46867
#
# Poissons Ratio (x) = 0.54183 0.40295
# Poissons Ratio (y) = 0.28870 0.31924
# Poissons Ratio (z) = 0.24967 0.37123
#
# Static dielectric constant tensor:
#      x y z
#    x 1.742160 0.000000 0.000000 
#    y 0.000000 1.692490 0.000000 
#    z 0.000000 0.000000 1.678710 
# 
# From -- ./inp_files/10945.got.cif
#   From: 2010.05.17/outbox.cif.g08.bks.cpg/sg63_6_cif.got.tgz:10945.got - 2010.06.03 15:47:04.
