data_PCOD9473173
_publ_section_title
;
Structure prediction by ZEFSAII (Michael W. Deem and Ramdas Pophale) SiO2 
 PCOD9473173
Probable space group: C M C M
;
_chemical_formula_sum "Si O2"
_cell_formula_units_Z 96
_cell_length_a 16.915271
_cell_length_b 18.018321
_cell_length_c 13.878613
_cell_angle_alpha 90.000000
_cell_angle_beta 90.000000
_cell_angle_gamma 90.000000
_cell_volume 4229.990047
_symmetry_space_group_name_H-M "C M C M"
_symmetry_group_IT_number 63
_symmetry_cell_setting 'orthorhombic'
loop_
_space_group_symop_operation_xyz
x,y,z
-x,-y,1/2+z
x,-y,-z
-x,y,1/2-z
-x,-y,-z
x,y,1/2-z
-x,y,z
x,-y,1/2+z
1/2+x,1/2+y,z
1/2-x,1/2-y,1/2+z
1/2+x,1/2-y,-z
1/2-x,1/2+y,1/2-z
1/2-x,1/2-y,-z
1/2+x,1/2+y,1/2-z
1/2-x,1/2+y,z
1/2+x,1/2-y,1/2+z
loop_
_atom_site_type_symbol
_atom_site_label
_atom_site_fract_x
_atom_site_fract_y
_atom_site_fract_z
Si Si1 0.588640 0.148113 0.931541
Si Si2 0.633375 0.841928 0.646163
Si Si3 0.323836 0.014228 0.638925
Si Si4 0.787270 0.763773 0.896024
Si Si5 0.860322 0.045902 0.636456
Si Si6 0.910716 0.887429 0.557664
O O1 0.500000 0.158571 0.894848
O O2 0.615857 0.062943 0.922628
O O3 0.656710 0.193859 0.875488
O O4 0.591159 0.173052 0.044205
O O5 0.590709 0.840209 0.750000
O O6 0.707740 0.787180 0.656026
O O7 0.666242 0.925892 0.632733
O O8 0.339153 0.033710 0.750000
O O9 0.233352 0.036025 0.616875
O O10 0.846849 0.832658 0.898100
O O11 0.750000 0.750000 0.000000
O O12 0.872021 0.062879 0.750000
O O13 0.893246 0.102505 0.556636
O O14 0.900015 0.967324 0.608471
O O15 0.000000 0.860861 0.571051
#
# Coordination Sequence:
#
# PCOD9473173 Si02
#       6
#    16  16  16  16  16  16
#     4  11  24  40  62  94 132 169 204 256 324 380
#     4  10  21  39  65  91 119 164 218 263 304 366
#     4  10  21  38  62  90 120 163 217 263 306 367
#     4  10  21  40  62  84 118 166 211 249 299 373
#     4  10  20  36  59  87 117 155 201 248 303 365
#     4  11  22  35  57  88 122 153 193 255 314 366
#
# _framework density 22.695087999999998
#
# number of rings (size 3 to 8) (size 9 to 14) (size 15 to 20)
#    0.000    1.667    1.667    4.000    2.333    4.000 
#    0.000    6.667    0.000    7.000    0.000    0.000 
#    0.000    0.000    0.000    0.000    0.000    0.000 
#
# Total GULP energy -268010.806717 kJ/mol
# GULP energy per Si atom -5583.558473 kJ/mol
# Density = 2.264343 g / cm^3
# Si number density = 22.695088 Si / 1000 Ang^3
#
#
#
# Elastic Constant Matrix: (Units=GPa)
#
#
# Indices 1 2 3 4 5 6 
#
# 1 116.5736 7.3644 3.9283 0.0000 0.0000 0.0000
# 2 7.3644 46.7807 -11.6291 0.0000 0.0000 0.0000
# 3 3.9283 -11.6291 86.1700 0.0000 0.0000 0.0000
# 4 0.0000 0.0000 0.0000 -4.9684 0.0000 0.0000
# 5 0.0000 0.0000 0.0000 0.0000 3.6145 0.0000
# 6 0.0000 0.0000 0.0000 0.0000 0.0000 -18.8568
#
#
#
# Elastic Compliance Matrix: (Units=1/GPa)
#
#
# Indices 1 2 3 4 5 6 
#
# 1 0.008694 -0.001518 -0.000601 0.000000 0.000000 0.000000
# 2 -0.001518 0.022383 0.003090 0.000000 0.000000 0.000000
# 3 -0.000601 0.003090 0.012049 0.000000 0.000000 0.000000
# 4 0.000000 0.000000 0.000000 -0.201271 0.000000 0.000000
# 5 0.000000 0.000000 0.000000 0.000000 0.276661 0.000000
# 6 0.000000 0.000000 0.000000 0.000000 0.000000 -0.053031
#
#
# Mechanical properties :
#
#
# Convention : Reuss Voigt Hill
#
# Bulk Modulus (GPa) = 22.18850 27.65016 24.91933
# Shear Modulus (GPa) = 63.63983 12.61525 38.12754
#
# Velocity S-wave (km/s) = 5.30114 2.36022 4.10322
# Velocity P-wave (km/s) = 6.87514 4.43140 5.78380
#
# Compressibility (1/GPa) = 0.04506840
#
# Stress axis : x y z
#
# Youngs Moduli (GPa) = 115.01601 44.67585 82.99175
#
# Poissons Ratio (x) = 0.06783 0.04990
# Poissons Ratio (y) = 0.17462 -0.25644
# Poissons Ratio (z) = 0.06915 -0.13805
#
# Static dielectric constant tensor:
#      x y z
#    x 1.792960 0.000000 0.000000 
#    y 0.000000 1.954170 0.000000 
#    z 0.000000 0.000000 1.913930 
# 
# From -- ./inp_files/31886.got.cif
#   From: 2010.05.17/outbox.cif.g08.bks.cpg/sg63_16_cif.got.tgz:31886.got - 2010.06.03 15:47:04.
