data_PCOD9473068
_publ_section_title
;
Structure prediction by ZEFSAII (Michael W. Deem and Ramdas Pophale) SiO2 
 PCOD9473068
Probable space group: C M C M
;
_chemical_formula_sum "Si O2"
_cell_formula_units_Z 96
_cell_length_a 17.643702
_cell_length_b 13.713850
_cell_length_c 22.797208
_cell_angle_alpha 90.000000
_cell_angle_beta 90.000000
_cell_angle_gamma 90.000000
_cell_volume 5516.082724
_symmetry_space_group_name_H-M "C M C M"
_symmetry_group_IT_number 63
_symmetry_cell_setting 'orthorhombic'
loop_
_space_group_symop_operation_xyz
x,y,z
-x,-y,1/2+z
x,-y,-z
-x,y,1/2-z
-x,-y,-z
x,y,1/2-z
-x,y,z
x,-y,1/2+z
1/2+x,1/2+y,z
1/2-x,1/2-y,1/2+z
1/2+x,1/2-y,-z
1/2-x,1/2+y,1/2-z
1/2-x,1/2-y,-z
1/2+x,1/2+y,1/2-z
1/2-x,1/2+y,z
1/2+x,1/2-y,1/2+z
loop_
_atom_site_type_symbol
_atom_site_label
_atom_site_fract_x
_atom_site_fract_y
_atom_site_fract_z
Si Si1 0.862755 0.797203 0.389500
Si Si2 0.205887 0.024885 0.817401
Si Si3 0.140595 0.353225 0.316798
Si Si4 0.412550 0.616023 0.012147
Si Si5 0.500000 0.025807 0.678499
Si Si6 0.293744 0.323652 0.611921
Si Si7 0.000000 0.300305 0.820720
O O1 0.840645 0.897976 0.356498
O O2 0.898316 0.826227 0.451754
O O3 0.788798 0.727181 0.398152
O O4 0.925003 0.746325 0.348553
O O5 0.177706 0.016691 0.750000
O O6 0.288039 0.074902 0.814816
O O7 0.212513 0.920476 0.848372
O O8 0.122418 0.324147 0.250000
O O9 0.160520 0.258589 0.353042
O O10 0.072484 0.415493 0.342383
O O11 0.500000 0.633500 0.032714
O O12 0.345481 0.647731 0.056253
O O13 0.406025 0.500000 0.000000
O O14 0.500000 0.026393 0.750000
O O15 0.500000 0.913766 0.662283
O O16 0.000000 0.290739 0.750000
#
# Coordination Sequence:
#
# PCOD9473068 Si02
#       7
#    16  16  16  16   8  16   8
#     4  11  22  40  60  89 120 155 203 249 295 358
#     4  10  20  36  57  88 122 151 193 246 296 358
#     4   9  19  34  55  85 120 154 190 236 297 361
#     4  11  23  42  63  82 116 159 205 254 304 348
#     4   9  18  34  54  81 118 154 184 223 284 361
#     4  11  22  36  64  87 116 160 199 245 303 355
#     4  11  22  38  65  93 123 160 196 243 306 359
#
# _framework density 17.403654
#
# number of rings (size 3 to 8) (size 9 to 14) (size 15 to 20)
#    0.000    1.667    2.500    2.500    1.167    3.333 
#    0.000    0.000    0.000    1.000    0.000    0.000 
#    0.000    0.000    0.000    0.000    0.000    0.000 
#
# Total GULP energy -267662.372348 kJ/mol
# GULP energy per Si atom -5576.299424 kJ/mol
# Density = 1.736404 g / cm^3
# Si number density = 17.403654 Si / 1000 Ang^3
#
#
#
# Elastic Constant Matrix: (Units=GPa)
#
#
# Indices 1 2 3 4 5 6 
#
# 1 77.0421 47.1709 31.9228 0.0000 0.0000 0.0000
# 2 47.1709 133.9949 38.0393 0.0000 0.0000 0.0000
# 3 31.9228 38.0393 84.0401 0.0000 0.0000 0.0000
# 4 0.0000 0.0000 0.0000 22.9091 0.0000 0.0000
# 5 0.0000 0.0000 0.0000 0.0000 24.4501 0.0000
# 6 0.0000 0.0000 0.0000 0.0000 0.0000 3.1750
#
#
#
# Elastic Compliance Matrix: (Units=1/GPa)
#
#
# Indices 1 2 3 4 5 6 
#
# 1 0.017938 -0.005026 -0.004539 0.000000 0.000000 0.000000
# 2 -0.005026 0.009972 -0.002604 0.000000 0.000000 0.000000
# 3 -0.004539 -0.002604 0.014802 0.000000 0.000000 0.000000
# 4 0.000000 0.000000 0.000000 0.043651 0.000000 0.000000
# 5 0.000000 0.000000 0.000000 0.000000 0.040900 0.000000
# 6 0.000000 0.000000 0.000000 0.000000 0.000000 0.314960
#
#
# Mechanical properties :
#
#
# Convention : Reuss Voigt Hill
#
# Bulk Modulus (GPa) = 54.42758 58.81589 56.62174
# Shear Modulus (GPa) = 10.57787 21.96978 16.27382
#
# Velocity S-wave (km/s) = 2.46803 3.55683 3.06123
# Velocity P-wave (km/s) = 6.28196 7.12296 6.71564
#
# Compressibility (1/GPa) = 0.01837304
#
# Stress axis : x y z
#
# Youngs Moduli (GPa) = 55.74735 100.28335 67.55891
#
# Poissons Ratio (x) = 0.50406 0.30663
# Poissons Ratio (y) = 0.28021 0.17594
# Poissons Ratio (z) = 0.25302 0.26116
#
# Static dielectric constant tensor:
#      x y z
#    x 1.606430 0.000000 0.000000 
#    y 0.000000 1.558470 0.000000 
#    z 0.000000 0.000000 1.595950 
# 
# From -- ./inp_files/63747.got.cif
#   From: 2010.05.17/outbox.cif.g08.bks.cpg/sg63_32_cif.got.tgz:63747.got - 2010.06.03 15:47:04.
