data_PCOD9473218
_publ_section_title
;
Structure prediction by ZEFSAII (Michael W. Deem and Ramdas Pophale) SiO2 
 PCOD9473218
Probable space group: C M C M
;
_chemical_formula_sum "Si O2"
_cell_formula_units_Z 100
_cell_length_a 27.150553
_cell_length_b 9.585829
_cell_length_c 18.779319
_cell_angle_alpha 90.000000
_cell_angle_beta 90.000000
_cell_angle_gamma 90.000000
_cell_volume 4887.516048
_symmetry_space_group_name_H-M "C M C M"
_symmetry_group_IT_number 63
_symmetry_cell_setting 'orthorhombic'
loop_
_space_group_symop_operation_xyz
x,y,z
-x,-y,1/2+z
x,-y,-z
-x,y,1/2-z
-x,-y,-z
x,y,1/2-z
-x,y,z
x,-y,1/2+z
1/2+x,1/2+y,z
1/2-x,1/2-y,1/2+z
1/2+x,1/2-y,-z
1/2-x,1/2+y,1/2-z
1/2-x,1/2-y,-z
1/2+x,1/2+y,1/2-z
1/2-x,1/2+y,z
1/2+x,1/2-y,1/2+z
loop_
_atom_site_type_symbol
_atom_site_label
_atom_site_fract_x
_atom_site_fract_y
_atom_site_fract_z
Si Si1 0.775116 0.640398 0.835432
Si Si2 0.943168 0.700569 0.389174
Si Si3 0.689614 0.556149 0.336570
Si Si4 0.500000 0.596049 0.250000
Si Si5 0.556700 0.796263 0.447808
Si Si6 0.118612 0.463292 0.331693
Si Si7 0.424107 0.528019 0.124083
O O1 0.769339 0.651897 0.750000
O O2 0.725805 0.566705 0.862142
O O3 0.788303 0.795170 0.861099
O O4 0.823304 0.544591 0.847062
O O5 0.933042 0.660675 0.471249
O O6 0.905519 0.614974 0.340799
O O7 0.937645 0.866124 0.382541
O O8 0.000000 0.664644 0.371743
O O9 0.689289 0.556710 0.250000
O O10 0.633905 0.539052 0.361245
O O11 0.456986 0.588299 0.188105
O O12 0.500000 0.832322 0.432543
O O13 0.563390 0.629754 0.441301
O O14 0.590713 0.866415 0.388408
O O15 0.111496 0.414379 0.250000
#
# Coordination Sequence:
#
# PCOD9473218 Si02
#       7
#    16  16  16   4  16  16  16
#     4   9  20  37  58  90 123 159 206 255 321 378
#     4  11  25  42  60  90 130 174 213 251 313 392
#     4  10  20  36  60  90 126 161 204 261 316 376
#     4  12  24  36  62 106 136 160 198 286 314 348
#     4  11  23  42  64  88 124 173 215 254 311 387
#     4  11  24  39  64  94 127 159 209 269 317 367
#     4  12  23  38  65  93 132 163 212 261 321 363
#
# _framework density 20.460290000000001
#
# number of rings (size 3 to 8) (size 9 to 14) (size 15 to 20)
#    0.000    1.280    4.000    1.440    4.480    3.840 
#    0.000    0.000    0.000    5.760    0.000    0.000 
#    0.000    0.000    0.000    0.000    0.000    0.000 
#
# Total GULP energy -278851.508460 kJ/mol
# GULP energy per Si atom -5577.030169 kJ/mol
# Density = 2.041372 g / cm^3
# Si number density = 20.460290 Si / 1000 Ang^3
#
#
#
# Elastic Constant Matrix: (Units=GPa)
#
#
# Indices 1 2 3 4 5 6 
#
# 1 146.5970 20.0787 24.4594 0.0000 0.0000 0.0000
# 2 20.0787 63.6050 -10.5560 0.0000 0.0000 0.0000
# 3 24.4594 -10.5560 34.8798 0.0000 0.0000 0.0000
# 4 0.0000 0.0000 0.0000 15.8088 0.0000 0.0000
# 5 0.0000 0.0000 0.0000 0.0000 7.9294 0.0000
# 6 0.0000 0.0000 0.0000 0.0000 0.0000 34.7453
#
#
#
# Elastic Compliance Matrix: (Units=1/GPa)
#
#
# Indices 1 2 3 4 5 6 
#
# 1 0.008551 -0.003890 -0.007174 0.000000 0.000000 0.000000
# 2 -0.003890 0.018323 0.008273 0.000000 0.000000 0.000000
# 3 -0.007174 0.008273 0.036204 0.000000 0.000000 0.000000
# 4 0.000000 0.000000 0.000000 0.063256 0.000000 0.000000
# 5 0.000000 0.000000 0.000000 0.000000 0.126112 0.000000
# 6 0.000000 0.000000 0.000000 0.000000 0.000000 0.028781
#
#
# Mechanical properties :
#
#
# Convention : Reuss Voigt Hill
#
# Bulk Modulus (GPa) = 17.39215 34.78289 26.08752
# Shear Modulus (GPa) = 16.34122 25.77000 21.05561
#
# Velocity S-wave (km/s) = 2.82916 3.55281 3.21143
# Velocity P-wave (km/s) = 4.38076 5.81954 5.15064
#
# Compressibility (1/GPa) = 0.05749720
#
# Stress axis : x y z
#
# Youngs Moduli (GPa) = 116.94345 54.57608 27.62111
#
# Poissons Ratio (x) = 0.21230 0.19815
# Poissons Ratio (y) = 0.45491 -0.22851
# Poissons Ratio (z) = 0.83892 -0.45151
#
# Static dielectric constant tensor:
#      x y z
#    x 1.688910 0.000000 0.000000 
#    y 0.000000 1.787900 0.000000 
#    z 0.000000 0.000000 1.732360 
# 
# From -- ./inp_files/58162.got.cif
#   From: 2010.05.17/outbox.cif.g08.bks.cpg/sg63_30_cif.got.tgz:58162.got - 2010.06.03 15:47:04.
