data_PCOD9473025
_publ_section_title
;
Structure prediction by ZEFSAII (Michael W. Deem and Ramdas Pophale) SiO2 
 PCOD9473025
Probable space group: C M C M
;
_chemical_formula_sum "Si O2"
_cell_formula_units_Z 96
_cell_length_a 28.357647
_cell_length_b 21.140873
_cell_length_c 8.548895
_cell_angle_alpha 90.000000
_cell_angle_beta 90.000000
_cell_angle_gamma 90.000000
_cell_volume 5125.108835
_symmetry_space_group_name_H-M "C M C M"
_symmetry_group_IT_number 63
_symmetry_cell_setting 'orthorhombic'
loop_
_space_group_symop_operation_xyz
x,y,z
-x,-y,1/2+z
x,-y,-z
-x,y,1/2-z
-x,-y,-z
x,y,1/2-z
-x,y,z
x,-y,1/2+z
1/2+x,1/2+y,z
1/2-x,1/2-y,1/2+z
1/2+x,1/2-y,-z
1/2-x,1/2+y,1/2-z
1/2-x,1/2-y,-z
1/2+x,1/2+y,1/2-z
1/2-x,1/2+y,z
1/2+x,1/2-y,1/2+z
loop_
_atom_site_type_symbol
_atom_site_label
_atom_site_fract_x
_atom_site_fract_y
_atom_site_fract_z
Si Si1 0.279141 0.309720 0.937643
Si Si2 0.445460 0.569173 0.937249
Si Si3 0.775541 0.430989 0.062265
Si Si4 0.054248 0.311431 0.058871
Si Si5 0.614929 0.068523 0.938524
Si Si6 0.388000 0.312300 0.939111
O O1 0.278227 0.308289 0.750000
O O2 0.333683 0.306495 0.989128
O O3 0.250000 0.250000 0.000000
O O4 0.255644 0.374409 0.996341
O O5 0.444032 0.568390 0.750000
O O6 0.500000 0.580855 0.986828
O O7 0.431902 0.500000 0.000000
O O8 0.412218 0.624121 0.000428
O O9 0.773391 0.430685 0.250000
O O10 0.830427 0.421233 0.014563
O O11 0.761030 0.500000 0.000000
O O12 0.054384 0.311690 0.250000
O O13 0.082060 0.374136 0.007643
O O14 0.081952 0.248610 0.008883
O O15 0.000000 0.310920 0.007798
O O16 0.613903 0.067227 0.750000
O O17 0.599864 0.000000 0.000000
O O18 0.388738 0.313397 0.750000
#
# Coordination Sequence:
#
# PCOD9473025 Si02
#       6
#    16  16  16  16  16  16
#     4  11  23  38  57  82 111 145 186 231 280 333
#     4  10  21  37  58  84 113 145 181 222 270 325
#     4  10  20  36  57  80 109 144 182 225 273 327
#     4   9  17  31  53  78 104 137 175 214 259 312
#     4   9  18  33  53  78 107 139 176 216 259 312
#     4  10  21  37  57  80 107 142 184 227 272 326
#
# _framework density 18.731311000000002
#
# number of rings (size 3 to 8) (size 9 to 14) (size 15 to 20)
#    0.000    2.167    0.000    3.000    0.000    7.333 
#    0.000    0.833    0.000    1.000    0.000    0.000 
#    0.000    0.000    0.000    0.000    0.000    0.000 
#
# Total GULP energy -268095.501808 kJ/mol
# GULP energy per Si atom -5585.322954 kJ/mol
# Density = 1.868868 g / cm^3
# Si number density = 18.731311 Si / 1000 Ang^3
#
#
#
# Elastic Constant Matrix: (Units=GPa)
#
#
# Indices 1 2 3 4 5 6 
#
# 1 134.2466 113.3158 29.3852 0.0000 0.0000 0.0000
# 2 113.3158 177.1953 29.8484 0.0000 0.0000 0.0000
# 3 29.3852 29.8484 20.7650 0.0000 0.0000 0.0000
# 4 0.0000 0.0000 0.0000 34.8748 0.0000 0.0000
# 5 0.0000 0.0000 0.0000 0.0000 10.2336 0.0000
# 6 0.0000 0.0000 0.0000 0.0000 0.0000 42.8232
#
#
#
# Elastic Compliance Matrix: (Units=1/GPa)
#
#
# Indices 1 2 3 4 5 6 
#
# 1 0.018167 -0.009616 -0.011887 0.000000 0.000000 0.000000
# 2 -0.009616 0.012536 -0.004412 0.000000 0.000000 0.000000
# 3 -0.011887 -0.004412 0.071323 0.000000 0.000000 0.000000
# 4 0.000000 0.000000 0.000000 0.028674 0.000000 0.000000
# 5 0.000000 0.000000 0.000000 0.000000 0.097718 0.000000
# 6 0.000000 0.000000 0.000000 0.000000 0.000000 0.023352
#
#
# Mechanical properties :
#
#
# Convention : Reuss Voigt Hill
#
# Bulk Modulus (GPa) = 19.92217 75.25620 47.58918
# Shear Modulus (GPa) = 15.60883 28.23014 21.91948
#
# Velocity S-wave (km/s) = 2.88983 3.88636 3.42454
# Velocity P-wave (km/s) = 4.66837 7.77189 6.41077
#
# Compressibility (1/GPa) = 0.05019534
#
# Stress axis : x y z
#
# Youngs Moduli (GPa) = 55.04377 79.77142 14.02079
#
# Poissons Ratio (x) = 0.76704 0.16667
# Poissons Ratio (y) = 0.52927 0.06186
# Poissons Ratio (z) = 0.65433 0.35197
#
# Static dielectric constant tensor:
#      x y z
#    x 1.640690 0.000000 0.000000 
#    y 0.000000 1.607870 0.000000 
#    z 0.000000 0.000000 1.632990 
# 
# From -- ./inp_files/12437.got.cif
#   From: 2010.05.17/outbox.cif.g08.bks.cpg/sg63_7_cif.got.tgz:12437.got - 2010.06.03 15:47:04.
