data_PCOD9473463
_publ_section_title
;
Structure prediction by ZEFSAII (Michael W. Deem and Ramdas Pophale) SiO2 
 PCOD9473463
Probable space group: C M C M
;
_chemical_formula_sum "Si O2"
_cell_formula_units_Z 88
_cell_length_a 16.030260
_cell_length_b 29.152083
_cell_length_c 10.501452
_cell_angle_alpha 90.000000
_cell_angle_beta 90.000000
_cell_angle_gamma 90.000000
_cell_volume 4907.490977
_symmetry_space_group_name_H-M "C M C M"
_symmetry_group_IT_number 63
_symmetry_cell_setting 'orthorhombic'
loop_
_space_group_symop_operation_xyz
x,y,z
-x,-y,1/2+z
x,-y,-z
-x,y,1/2-z
-x,-y,-z
x,y,1/2-z
-x,y,z
x,-y,1/2+z
1/2+x,1/2+y,z
1/2-x,1/2-y,1/2+z
1/2+x,1/2-y,-z
1/2-x,1/2+y,1/2-z
1/2-x,1/2-y,-z
1/2+x,1/2+y,1/2-z
1/2-x,1/2+y,z
1/2+x,1/2-y,1/2+z
loop_
_atom_site_type_symbol
_atom_site_label
_atom_site_fract_x
_atom_site_fract_y
_atom_site_fract_z
Si Si1 0.000000 0.187557 0.592457
Si Si2 0.809022 0.914148 0.901514
Si Si3 0.350098 0.254537 0.110220
Si Si4 0.218696 0.328733 0.037029
Si Si5 0.903689 0.522556 0.750000
Si Si6 0.596594 0.867392 0.250000
Si Si7 0.000000 0.894706 0.897680
Si Si8 0.796315 0.500000 0.000000
O O1 0.077946 0.217150 0.543152
O O2 0.000000 0.141030 0.513698
O O3 0.000000 0.179641 0.750000
O O4 0.788882 0.912504 0.750000
O O5 0.909764 0.919249 0.910606
O O6 0.761631 0.956196 0.968900
O O7 0.775366 0.867682 0.970191
O O8 0.383672 0.247635 0.250000
O O9 0.274552 0.290819 0.109906
O O10 0.325909 0.204998 0.061603
O O11 0.149909 0.350815 0.128621
O O12 0.905056 0.577696 0.750000
O O13 0.854256 0.507401 0.623712
O O14 0.000000 0.506139 0.750000
O O15 0.500000 0.851135 0.250000
O O16 0.000000 0.876218 0.750000
#
# Coordination Sequence:
#
# PCOD9473463 Si02
#       8
#     8  16  16  16   8   8   8   8
#     4  10  20  38  59  87 122 160 211 256 306 362
#     4  11  23  41  66  92 125 164 209 253 315 374
#     4  10  21  36  57  85 118 162 206 250 305 367
#     4  11  21  38  61  83 122 161 205 251 314 367
#     4  11  24  44  70  97 124 160 210 262 316 377
#     4  11  24  40  60  89 120 158 202 264 314 367
#     4  10  22  41  61  93 130 164 205 261 304 369
#     4  12  23  43  70  94 128 168 208 253 321 376
#
# _framework density 17.931768999999999
#
# number of rings (size 3 to 8) (size 9 to 14) (size 15 to 20)
#    0.000    1.273    5.455    0.818    1.273    0.364 
#    3.273    0.000    0.000    0.000    0.000    0.000 
#    0.000    0.000    0.000    0.000    0.000    0.000 
#
# Total GULP energy -244949.561594 kJ/mol
# GULP energy per Si atom -5567.035491 kJ/mol
# Density = 1.789096 g / cm^3
# Si number density = 17.931769 Si / 1000 Ang^3
#
#
#
# Elastic Constant Matrix: (Units=GPa)
#
#
# Indices 1 2 3 4 5 6 
#
# 1 128.0391 41.4979 52.8446 0.0000 0.0000 0.0000
# 2 41.4979 97.1891 44.8755 0.0000 0.0000 0.0000
# 3 52.8446 44.8755 95.2263 0.0000 0.0000 0.0000
# 4 0.0000 0.0000 0.0000 39.7092 0.0000 0.0000
# 5 0.0000 0.0000 0.0000 0.0000 33.5020 0.0000
# 6 0.0000 0.0000 0.0000 0.0000 0.0000 25.8420
#
#
#
# Elastic Compliance Matrix: (Units=1/GPa)
#
#
# Indices 1 2 3 4 5 6 
#
# 1 0.010516 -0.002295 -0.004754 0.000000 0.000000 0.000000
# 2 -0.002295 0.013652 -0.005160 0.000000 0.000000 0.000000
# 3 -0.004754 -0.005160 0.015571 0.000000 0.000000 0.000000
# 4 0.000000 0.000000 0.000000 0.025183 0.000000 0.000000
# 5 0.000000 0.000000 0.000000 0.000000 0.029849 0.000000
# 6 0.000000 0.000000 0.000000 0.000000 0.000000 0.038697
#
#
# Mechanical properties :
#
#
# Convention : Reuss Voigt Hill
#
# Bulk Modulus (GPa) = 65.27053 66.54339 65.90696
# Shear Modulus (GPa) = 30.67628 31.89309 31.28468
#
# Velocity S-wave (km/s) = 4.14057 4.22190 4.18143
# Velocity P-wave (km/s) = 7.70309 7.80741 7.75542
#
# Compressibility (1/GPa) = 0.01532085
#
# Stress axis : x y z
#
# Youngs Moduli (GPa) = 95.09210 73.25177 64.22130
#
# Poissons Ratio (x) = 0.16811 0.30533
# Poissons Ratio (y) = 0.21823 0.33136
# Poissons Ratio (z) = 0.45209 0.37796
#
# Static dielectric constant tensor:
#      x y z
#    x 1.669800 0.000000 0.000000 
#    y 0.000000 1.583970 0.000000 
#    z 0.000000 0.000000 1.586550 
# 
# From -- ./inp_files/19840.got.cif
#   From: 2010.05.17/outbox.cif.g08.bks.cpg/sg63_10_cif.got.tgz:19840.got - 2010.06.03 15:47:04.
