data_PCOD9473457
_publ_section_title
;
Structure prediction by ZEFSAII (Michael W. Deem and Ramdas Pophale) SiO2 
 PCOD9473457
Probable space group: C M C M
;
_chemical_formula_sum "Si O2"
_cell_formula_units_Z 72
_cell_length_a 22.628822
_cell_length_b 20.031156
_cell_length_c 8.616157
_cell_angle_alpha 90.000000
_cell_angle_beta 90.000000
_cell_angle_gamma 90.000000
_cell_volume 3905.544255
_symmetry_space_group_name_H-M "C M C M"
_symmetry_group_IT_number 63
_symmetry_cell_setting 'orthorhombic'
loop_
_space_group_symop_operation_xyz
x,y,z
-x,-y,1/2+z
x,-y,-z
-x,y,1/2-z
-x,-y,-z
x,y,1/2-z
-x,y,z
x,-y,1/2+z
1/2+x,1/2+y,z
1/2-x,1/2-y,1/2+z
1/2+x,1/2-y,-z
1/2-x,1/2+y,1/2-z
1/2-x,1/2-y,-z
1/2+x,1/2+y,1/2-z
1/2-x,1/2+y,z
1/2+x,1/2-y,1/2+z
loop_
_atom_site_type_symbol
_atom_site_label
_atom_site_fract_x
_atom_site_fract_y
_atom_site_fract_z
Si Si1 0.000000 0.925083 0.435236
Si Si2 0.568793 0.194310 0.937362
Si Si3 0.355266 0.072815 0.435927
Si Si4 0.609738 0.659677 0.438049
Si Si5 0.719542 0.572769 0.062957
O O1 0.057381 0.885729 0.495748
O O2 0.000000 0.926813 0.250000
O O3 0.000000 0.000000 0.500000
O O4 0.570651 0.191301 0.750000
O O5 0.500000 0.195383 0.984310
O O6 0.599133 0.263908 0.986101
O O7 0.602656 0.130851 0.003801
O O8 0.356634 0.070937 0.250000
O O9 0.287133 0.085676 0.486679
O O10 0.372200 0.000000 0.500000
O O11 0.606222 0.657450 0.250000
O O12 0.672419 0.628352 0.486172
O O13 0.719014 0.569963 0.250000
O O14 0.701876 0.500000 0.000000
#
# Coordination Sequence:
#
# PCOD9473457 Si02
#       5
#     8  16  16  16  16
#     4  12  24  36  54  82 115 152 195 236 276 324
#     4  10  21  38  59  82 112 151 188 228 283 340
#     4  10  21  38  59  85 113 144 185 235 285 338
#     4  10  20  38  59  81 113 152 189 229 280 336
#     4   9  19  35  57  83 113 147 187 232 280 332
#
# _framework density 18.435331000000001
#
# number of rings (size 3 to 8) (size 9 to 14) (size 15 to 20)
#    0.000    2.000    1.111    2.333    0.000    6.222 
#    0.000    0.000    0.000    0.000    0.000    0.000 
#    0.000    0.000    0.000    0.000    0.000    0.000 
#
# Total GULP energy -201052.653826 kJ/mol
# GULP energy per Si atom -5584.795940 kJ/mol
# Density = 1.839337 g / cm^3
# Si number density = 18.435331 Si / 1000 Ang^3
#
#
#
# Elastic Constant Matrix: (Units=GPa)
#
#
# Indices 1 2 3 4 5 6 
#
# 1 106.5283 110.2260 26.4129 0.0000 0.0000 0.0000
# 2 110.2260 198.4364 37.2859 0.0000 0.0000 0.0000
# 3 26.4129 37.2859 17.8716 0.0000 0.0000 0.0000
# 4 0.0000 0.0000 0.0000 31.0019 0.0000 0.0000
# 5 0.0000 0.0000 0.0000 0.0000 22.5621 0.0000
# 6 0.0000 0.0000 0.0000 0.0000 0.0000 27.4064
#
#
#
# Elastic Compliance Matrix: (Units=1/GPa)
#
#
# Indices 1 2 3 4 5 6 
#
# 1 0.023636 -0.010799 -0.012402 0.000000 0.000000 0.000000
# 2 -0.010799 0.013222 -0.011627 0.000000 0.000000 0.000000
# 3 -0.012402 -0.011627 0.098541 0.000000 0.000000 0.000000
# 4 0.000000 0.000000 0.000000 0.032256 0.000000 0.000000
# 5 0.000000 0.000000 0.000000 0.000000 0.044322 0.000000
# 6 0.000000 0.000000 0.000000 0.000000 0.000000 0.036488
#
#
# Mechanical properties :
#
#
# Convention : Reuss Voigt Hill
#
# Bulk Modulus (GPa) = 15.21048 74.52067 44.86558
# Shear Modulus (GPa) = 14.70436 26.12152 20.41294
#
# Velocity S-wave (km/s) = 2.82728 3.76829 3.33118
# Velocity P-wave (km/s) = 4.35048 7.70999 6.25981
#
# Compressibility (1/GPa) = 0.06574413
#
# Stress axis : x y z
#
# Youngs Moduli (GPa) = 42.30891 75.62969 10.14803
#
# Poissons Ratio (x) = 0.81669 0.12586
# Poissons Ratio (y) = 0.45688 0.11799
# Poissons Ratio (z) = 0.52474 0.87931
#
# Static dielectric constant tensor:
#      x y z
#    x 1.632050 0.000000 0.000000 
#    y 0.000000 1.598170 0.000000 
#    z 0.000000 0.000000 1.624020 
# 
# From -- ./inp_files/7862.got.cif
#   From: 2010.05.17/outbox.cif.g08.bks.cpg/sg63_4_cif.got.tgz:7862.got - 2010.06.03 15:47:04.
