data_PCOD9473842
_publ_section_title
;
Structure prediction by ZEFSAII (Michael W. Deem and Ramdas Pophale) SiO2 
 PCOD9473842
Probable space group: C M C M
;
_chemical_formula_sum "Si O2"
_cell_formula_units_Z 96
_cell_length_a 23.940596
_cell_length_b 25.951213
_cell_length_c 8.737877
_cell_angle_alpha 90.000000
_cell_angle_beta 90.000000
_cell_angle_gamma 90.000000
_cell_volume 5428.733810
_symmetry_space_group_name_H-M "C M C M"
_symmetry_group_IT_number 63
_symmetry_cell_setting 'orthorhombic'
loop_
_space_group_symop_operation_xyz
x,y,z
-x,-y,1/2+z
x,-y,-z
-x,y,1/2-z
-x,-y,-z
x,y,1/2-z
-x,y,z
x,-y,1/2+z
1/2+x,1/2+y,z
1/2-x,1/2-y,1/2+z
1/2+x,1/2-y,-z
1/2-x,1/2+y,1/2-z
1/2-x,1/2-y,-z
1/2+x,1/2+y,1/2-z
1/2-x,1/2+y,z
1/2+x,1/2-y,1/2+z
loop_
_atom_site_type_symbol
_atom_site_label
_atom_site_fract_x
_atom_site_fract_y
_atom_site_fract_z
Si Si1 0.861812 0.347016 0.433008
Si Si2 0.867509 0.151335 0.932974
Si Si3 0.252496 0.692113 0.067466
Si Si4 0.434573 0.755381 0.567030
Si Si5 0.064152 0.443925 0.434510
Si Si6 0.565020 0.443656 0.566675
O O1 0.854268 0.348157 0.250000
O O2 0.802608 0.337773 0.512543
O O3 0.901192 0.299238 0.478200
O O4 0.893496 0.399148 0.482219
O O5 0.861840 0.147510 0.750000
O O6 0.907813 0.199896 0.967091
O O7 0.807854 0.164363 0.005952
O O8 0.895384 0.099981 0.998332
O O9 0.253709 0.695548 0.250000
O O10 0.250000 0.750000 0.000000
O O11 0.428276 0.764182 0.750000
O O12 0.500000 0.756274 0.529770
O O13 0.078281 0.500000 0.500000
O O14 0.064924 0.446305 0.250000
O O15 0.000000 0.431711 0.481411
O O16 0.578209 0.500000 0.500000
O O17 0.569535 0.444665 0.750000
O O18 0.500000 0.432408 0.526554
#
# Coordination Sequence:
#
# PCOD9473842 Si02
#       6
#    16  16  16  16  16  16
#     4  11  22  37  58  84 115 152 194 240 289 345
#     4  11  22  38  60  86 117 154 196 242 291 347
#     4  12  24  40  60  84 114 154 198 240 291 349
#     4  10  21  35  54  83 117 151 188 234 289 348
#     4   9  19  36  58  85 116 151 190 233 284 339
#     4  10  21  38  61  89 121 158 198 241 293 350
#
# _framework density 17.683681
#
# number of rings (size 3 to 8) (size 9 to 14) (size 15 to 20)
#    0.000    1.500    1.667    4.000    0.000    4.667 
#    0.000    2.500    0.000    2.000    0.000    0.000 
#    0.000    0.000    0.000    0.000    0.000    0.000 
#
# Total GULP energy -268273.079214 kJ/mol
# GULP energy per Si atom -5589.022484 kJ/mol
# Density = 1.764343 g / cm^3
# Si number density = 17.683681 Si / 1000 Ang^3
#
#
#
# Elastic Constant Matrix: (Units=GPa)
#
#
# Indices 1 2 3 4 5 6 
#
# 1 141.4885 95.0479 66.2316 0.0000 0.0000 0.0000
# 2 95.0479 152.1882 64.9247 0.0000 0.0000 0.0000
# 3 66.2316 64.9247 76.8286 0.0000 0.0000 0.0000
# 4 0.0000 0.0000 0.0000 26.7854 0.0000 0.0000
# 5 0.0000 0.0000 0.0000 0.0000 31.0285 0.0000
# 6 0.0000 0.0000 0.0000 0.0000 0.0000 10.9034
#
#
#
# Elastic Compliance Matrix: (Units=1/GPa)
#
#
# Indices 1 2 3 4 5 6 
#
# 1 0.014556 -0.005845 -0.007609 0.000000 0.000000 0.000000
# 2 -0.005845 0.012622 -0.005628 0.000000 0.000000 0.000000
# 3 -0.007609 -0.005628 0.024331 0.000000 0.000000 0.000000
# 4 0.000000 0.000000 0.000000 0.037334 0.000000 0.000000
# 5 0.000000 0.000000 0.000000 0.000000 0.032228 0.000000
# 6 0.000000 0.000000 0.000000 0.000000 0.000000 0.091714
#
#
# Mechanical properties :
#
#
# Convention : Reuss Voigt Hill
#
# Bulk Modulus (GPa) = 74.92822 91.43484 83.18153
# Shear Modulus (GPa) = 19.57735 23.36352 21.47044
#
# Velocity S-wave (km/s) = 3.33090 3.63876 3.48823
# Velocity P-wave (km/s) = 7.56681 8.33500 7.96017
#
# Compressibility (1/GPa) = 0.01334611
#
# Stress axis : x y z
#
# Youngs Moduli (GPa) = 68.70106 79.22756 41.09929
#
# Poissons Ratio (x) = 0.46306 0.31273
# Poissons Ratio (y) = 0.40153 0.23130
# Poissons Ratio (z) = 0.52275 0.44587
#
# Static dielectric constant tensor:
#      x y z
#    x 1.584830 0.000000 0.000000 
#    y 0.000000 1.569440 0.000000 
#    z 0.000000 0.000000 1.591810 
# 
# From -- ./inp_files/10437.got.cif
#   From: 2010.05.17/outbox.cif.g08.bks.cpg/sg63_6_cif.got.tgz:10437.got - 2010.06.03 15:47:04.
