data_PCOD9473859
_publ_section_title
;
Structure prediction by ZEFSAII (Michael W. Deem and Ramdas Pophale) SiO2 
 PCOD9473859
Probable space group: C M C M
;
_chemical_formula_sum "Si O2"
_cell_formula_units_Z 112
_cell_length_a 25.901013
_cell_length_b 13.803188
_cell_length_c 13.127567
_cell_angle_alpha 90.000000
_cell_angle_beta 90.000000
_cell_angle_gamma 90.000000
_cell_volume 4693.322488
_symmetry_space_group_name_H-M "C M C M"
_symmetry_group_IT_number 63
_symmetry_cell_setting 'orthorhombic'
loop_
_space_group_symop_operation_xyz
x,y,z
-x,-y,1/2+z
x,-y,-z
-x,y,1/2-z
-x,-y,-z
x,y,1/2-z
-x,y,z
x,-y,1/2+z
1/2+x,1/2+y,z
1/2-x,1/2-y,1/2+z
1/2+x,1/2-y,-z
1/2-x,1/2+y,1/2-z
1/2-x,1/2-y,-z
1/2+x,1/2+y,1/2-z
1/2-x,1/2+y,z
1/2+x,1/2-y,1/2+z
loop_
_atom_site_type_symbol
_atom_site_label
_atom_site_fract_x
_atom_site_fract_y
_atom_site_fract_z
Si Si1 0.687197 0.195680 0.443744
Si Si2 0.612044 0.485680 0.367137
Si Si3 0.358625 0.017500 0.123738
Si Si4 0.224742 0.944156 0.866520
Si Si5 0.939420 0.849217 0.524415
Si Si6 0.939016 0.347464 0.367202
Si Si7 0.238949 0.660677 0.865398
O O1 0.705219 0.296590 0.396636
O O2 0.660388 0.000000 0.500000
O O3 0.643787 0.134459 0.387196
O O4 0.740290 0.133474 0.422171
O O5 0.616606 0.459401 0.250000
O O6 0.666947 0.532665 0.398482
O O7 0.571247 0.571918 0.387060
O O8 0.593558 0.394411 0.432678
O O9 0.343583 0.005005 0.250000
O O10 0.407301 0.946106 0.119247
O O11 0.308624 0.803026 0.065699
O O12 0.222062 0.913286 0.750000
O O13 0.255907 0.045057 0.871526
O O14 0.924167 0.742075 0.560066
O O15 0.000000 0.848978 0.499428
O O16 0.931599 0.315179 0.250000
O O17 0.000000 0.365486 0.382110
O O18 0.228973 0.687697 0.750000
#
# Coordination Sequence:
#
# PCOD9473859 Si02
#       7
#    16  16  16  16  16  16  16
#     4  11  23  40  65  91 127 175 223 277 327 391
#     4  10  21  35  56  87 124 167 213 265 331 398
#     4  11  24  43  68  99 134 173 223 279 336 401
#     4  10  21  38  57  82 121 163 205 261 320 382
#     4  10  21  37  61  90 122 161 213 272 329 397
#     4   9  20  42  70  98 130 168 215 275 338 400
#     4  10  22  39  61  89 124 172 222 270 332 389
#
# _framework density 23.863690999999999
#
# number of rings (size 3 to 8) (size 9 to 14) (size 15 to 20)
#    0.000    1.857    0.000    3.857    4.000    4.857 
#    5.143    2.143    0.000    0.857    0.000    0.000 
#    0.000    0.000    0.000    0.000    0.000    0.000 
#
# Total GULP energy -312108.097196 kJ/mol
# GULP energy per Si atom -5573.358878 kJ/mol
# Density = 2.380938 g / cm^3
# Si number density = 23.863691 Si / 1000 Ang^3
#
#
#
# Elastic Constant Matrix: (Units=GPa)
#
#
# Indices 1 2 3 4 5 6 
#
# 1 87.0227 34.3840 20.4223 0.0000 0.0000 0.0000
# 2 34.3840 99.3574 16.2710 0.0000 0.0000 0.0000
# 3 20.4223 16.2710 76.3245 0.0000 0.0000 0.0000
# 4 0.0000 0.0000 0.0000 23.6359 0.0000 0.0000
# 5 0.0000 0.0000 0.0000 0.0000 28.1855 0.0000
# 6 0.0000 0.0000 0.0000 0.0000 0.0000 39.6664
#
#
#
# Elastic Compliance Matrix: (Units=1/GPa)
#
#
# Indices 1 2 3 4 5 6 
#
# 1 0.013859 -0.004340 -0.002783 0.000000 0.000000 0.000000
# 2 -0.004340 0.011788 -0.001352 0.000000 0.000000 0.000000
# 3 -0.002783 -0.001352 0.014135 0.000000 0.000000 0.000000
# 4 0.000000 0.000000 0.000000 0.042308 0.000000 0.000000
# 5 0.000000 0.000000 0.000000 0.000000 0.035479 0.000000
# 6 0.000000 0.000000 0.000000 0.000000 0.000000 0.025210
#
#
# Mechanical properties :
#
#
# Convention : Reuss Voigt Hill
#
# Bulk Modulus (GPa) = 43.79835 44.98436 44.39136
# Shear Modulus (GPa) = 29.87910 31.07273 30.47591
#
# Velocity S-wave (km/s) = 3.54230 3.61237 3.57751
# Velocity P-wave (km/s) = 5.92655 6.02415 5.97555
#
# Compressibility (1/GPa) = 0.02283191
#
# Stress axis : x y z
#
# Youngs Moduli (GPa) = 72.15337 84.83136 70.74754
#
# Poissons Ratio (x) = 0.36821 0.19690
# Poissons Ratio (y) = 0.31318 0.09562
# Poissons Ratio (z) = 0.20081 0.11466
#
# Static dielectric constant tensor:
#      x y z
#    x 1.990760 0.000000 0.000000 
#    y 0.000000 1.962810 0.000000 
#    z 0.000000 0.000000 2.020850 
# 
# From -- ./inp_files/37941.got.cif
#   From: 2010.05.17/outbox.cif.g08.bks.cpg/sg63_19_cif.got.tgz:37941.got - 2010.06.03 15:47:04.
