data_PCOD9473331
_publ_section_title
;
Structure prediction by ZEFSAII (Michael W. Deem and Ramdas Pophale) SiO2 
 PCOD9473331
Probable space group: C M C M
;
_chemical_formula_sum "Si O2"
_cell_formula_units_Z 80
_cell_length_a 7.761393
_cell_length_b 25.387161
_cell_length_c 18.824801
_cell_angle_alpha 90.000000
_cell_angle_beta 90.000000
_cell_angle_gamma 90.000000
_cell_volume 3709.233776
_symmetry_space_group_name_H-M "C M C M"
_symmetry_group_IT_number 63
_symmetry_cell_setting 'orthorhombic'
loop_
_space_group_symop_operation_xyz
x,y,z
-x,-y,1/2+z
x,-y,-z
-x,y,1/2-z
-x,-y,-z
x,y,1/2-z
-x,y,z
x,-y,1/2+z
1/2+x,1/2+y,z
1/2-x,1/2-y,1/2+z
1/2+x,1/2-y,-z
1/2-x,1/2+y,1/2-z
1/2-x,1/2-y,-z
1/2+x,1/2+y,1/2-z
1/2-x,1/2+y,z
1/2+x,1/2-y,1/2+z
loop_
_atom_site_type_symbol
_atom_site_label
_atom_site_fract_x
_atom_site_fract_y
_atom_site_fract_z
Si Si1 0.794916 0.640183 0.086651
Si Si2 0.207477 0.981394 0.577674
Si Si3 0.203901 0.762637 0.671524
Si Si4 0.796228 0.675648 0.933580
Si Si5 0.290860 0.420426 0.330987
O O1 0.755637 0.578578 0.092519
O O2 0.725293 0.677069 0.148800
O O3 0.000000 0.645866 0.086645
O O4 0.723628 0.661952 0.011124
O O5 0.000000 0.983708 0.575702
O O6 0.271089 0.000000 0.500000
O O7 0.265088 0.023673 0.636158
O O8 0.276687 0.752026 0.750000
O O9 0.277566 0.725557 0.609171
O O10 0.000000 0.751126 0.674941
O O11 0.772340 0.625583 0.882511
O O12 0.000000 0.684692 0.943987
O O13 0.232956 0.413170 0.250000
O O14 0.500000 0.419009 0.331513
#
# Coordination Sequence:
#
# PCOD9473331 Si02
#       5
#    16  16  16  16  16
#     4  11  23  37  59  89 118 149 191 242 291 342
#     4  10  20  37  59  82 113 155 195 232 280 342
#     4  10  22  40  60  82 113 155 197 235 284 348
#     4  10  21  38  60  86 116 151 190 234 288 349
#     4  10  21  36  57  86 115 147 192 242 289 338
#
# _framework density 21.567799000000001
#
# number of rings (size 3 to 8) (size 9 to 14) (size 15 to 20)
#    0.000    1.800    2.000    1.800    0.000    5.200 
#    0.000    2.000    0.000    0.000    0.000    0.000 
#    0.000    0.000    0.000    0.000    0.000    0.000 
#
# Total GULP energy -223548.349435 kJ/mol
# GULP energy per Si atom -5588.708736 kJ/mol
# Density = 2.151871 g / cm^3
# Si number density = 21.567799 Si / 1000 Ang^3
#
#
#
# Elastic Constant Matrix: (Units=GPa)
#
#
# Indices 1 2 3 4 5 6 
#
# 1 26.2170 -15.7799 -7.1637 0.0000 0.0000 0.0000
# 2 -15.7799 92.9151 -8.6427 0.0000 0.0000 0.0000
# 3 -7.1637 -8.6427 43.2018 0.0000 0.0000 0.0000
# 4 0.0000 0.0000 0.0000 -86.9620 0.0000 0.0000
# 5 0.0000 0.0000 0.0000 0.0000 15.2762 0.0000
# 6 0.0000 0.0000 0.0000 0.0000 0.0000 -6.6970
#
#
#
# Elastic Compliance Matrix: (Units=1/GPa)
#
#
# Indices 1 2 3 4 5 6 
#
# 1 0.045914 0.008667 0.009347 0.000000 0.000000 0.000000
# 2 0.008667 0.012603 0.003958 0.000000 0.000000 0.000000
# 3 0.009347 0.003958 0.025489 0.000000 0.000000 0.000000
# 4 0.000000 0.000000 0.000000 -0.011499 0.000000 0.000000
# 5 0.000000 0.000000 0.000000 0.000000 0.065461 0.000000
# 6 0.000000 0.000000 0.000000 0.000000 0.000000 -0.149321
#
#
# Mechanical properties :
#
#
# Convention : Reuss Voigt Hill
#
# Bulk Modulus (GPa) = 7.81547 11.01792 9.41670
# Shear Modulus (GPa) = -395.29488 -2.74855 -199.02171
#
# Velocity S-wave (km/s) = -13.55279 -1.13011 -9.61653
# Velocity P-wave (km/s) = 15.53295 1.84844 10.90541
#
# Compressibility (1/GPa) = 0.12795131
#
# Stress axis : x y z
#
# Youngs Moduli (GPa) = 21.77985 79.34835 39.23255
#
# Poissons Ratio (x) = -0.68772 -0.36672
# Poissons Ratio (y) = -0.18877 -0.15530
# Poissons Ratio (z) = -0.20358 -0.31409
#
# Static dielectric constant tensor:
#      x y z
#    x 1.793920 0.000000 0.000000 
#    y 0.000000 1.752020 0.000000 
#    z 0.000000 0.000000 1.785110 
# 
# From -- ./inp_files/40491.got.cif
#   From: 2010.05.17/outbox.cif.g08.bks.cpg/sg63_21_cif.got.tgz:40491.got - 2010.06.03 15:47:04.
