data_PCOD9473866
_publ_section_title
;
Structure prediction by ZEFSAII (Michael W. Deem and Ramdas Pophale) SiO2 
 PCOD9473866
Probable space group: C M C M
;
_chemical_formula_sum "Si O2"
_cell_formula_units_Z 68
_cell_length_a 7.856228
_cell_length_b 24.475461
_cell_length_c 14.340497
_cell_angle_alpha 90.000000
_cell_angle_beta 90.000000
_cell_angle_gamma 90.000000
_cell_volume 2757.459627
_symmetry_space_group_name_H-M "C M C M"
_symmetry_group_IT_number 63
_symmetry_cell_setting 'orthorhombic'
loop_
_space_group_symop_operation_xyz
x,y,z
-x,-y,1/2+z
x,-y,-z
-x,y,1/2-z
-x,-y,-z
x,y,1/2-z
-x,y,z
x,-y,1/2+z
1/2+x,1/2+y,z
1/2-x,1/2-y,1/2+z
1/2+x,1/2-y,-z
1/2-x,1/2+y,1/2-z
1/2-x,1/2-y,-z
1/2+x,1/2+y,1/2-z
1/2-x,1/2+y,z
1/2+x,1/2-y,1/2+z
loop_
_atom_site_type_symbol
_atom_site_label
_atom_site_fract_x
_atom_site_fract_y
_atom_site_fract_z
Si Si1 0.695664 0.642862 0.353445
Si Si2 0.000000 0.022567 0.250000
Si Si3 0.195827 0.630231 0.945897
Si Si4 0.808391 0.762056 0.144324
Si Si5 0.702061 0.012670 0.889980
O O1 0.771066 0.633550 0.250000
O O2 0.500000 0.624787 0.349093
O O3 0.783957 0.618724 0.444010
O O4 0.695862 0.708573 0.368185
O O5 0.154667 0.017343 0.330261
O O6 0.288421 0.686285 0.921309
O O7 0.246499 0.577681 0.886152
O O8 0.000000 0.640968 0.925689
O O9 0.782134 0.782091 0.250000
O O10 0.000000 0.740393 0.135218
O O11 0.500000 0.005269 0.863800
O O12 0.712284 0.000000 0.000000
#
# Coordination Sequence:
#
# PCOD9473866 Si02
#       5
#    16   4  16  16  16
#     4  10  21  38  57  83 120 163 213 265 312 381
#     4  12  24  44  80 104 132 176 224 276 348 396
#     4  11  23  38  61  87 123 166 205 260 324 384
#     4  10  21  35  57  86 121 161 209 260 313 379
#     4  10  25  48  70 103 141 175 221 279 339 408
#
# _framework density 24.660378000000001
#
# number of rings (size 3 to 8) (size 9 to 14) (size 15 to 20)
#    0.000    1.647    0.000    3.529    4.941    2.824 
#    2.118    0.000    0.000    0.000    0.000    0.000 
#    0.000    0.000    0.000    0.000    0.000    0.000 
#
# Total GULP energy -189716.125665 kJ/mol
# GULP energy per Si atom -5579.886049 kJ/mol
# Density = 2.460425 g / cm^3
# Si number density = 24.660378 Si / 1000 Ang^3
#
#
#
# Elastic Constant Matrix: (Units=GPa)
#
#
# Indices 1 2 3 4 5 6 
#
# 1 107.3788 33.3567 42.3722 0.0000 0.0000 0.0000
# 2 33.3567 103.3554 29.2745 0.0000 0.0000 0.0000
# 3 42.3722 29.2745 116.3043 0.0000 0.0000 0.0000
# 4 0.0000 0.0000 0.0000 -62.3961 0.0000 0.0000
# 5 0.0000 0.0000 0.0000 0.0000 44.6273 0.0000
# 6 0.0000 0.0000 0.0000 0.0000 0.0000 31.9824
#
#
#
# Elastic Compliance Matrix: (Units=1/GPa)
#
#
# Indices 1 2 3 4 5 6 
#
# 1 0.011550 -0.002731 -0.003521 0.000000 0.000000 0.000000
# 2 -0.002731 0.011064 -0.001790 0.000000 0.000000 0.000000
# 3 -0.003521 -0.001790 0.010331 0.000000 0.000000 0.000000
# 4 0.000000 0.000000 0.000000 -0.016027 0.000000 0.000000
# 5 0.000000 0.000000 0.000000 0.000000 0.022408 0.000000
# 6 0.000000 0.000000 0.000000 0.000000 0.000000 0.031267
#
#
# Mechanical properties :
#
#
# Convention : Reuss Voigt Hill
#
# Bulk Modulus (GPa) = 59.30214 59.67170 59.48692
# Shear Modulus (GPa) = 54.17284 17.64506 35.90895
#
# Velocity S-wave (km/s) = 4.69204 2.67783 3.82008
# Velocity P-wave (km/s) = 7.31118 5.81472 6.60547
#
# Compressibility (1/GPa) = 0.01686280
#
# Stress axis : x y z
#
# Youngs Moduli (GPa) = 86.57738 90.38654 96.79251
#
# Poissons Ratio (x) = 0.24680 0.34078
# Poissons Ratio (y) = 0.23640 0.17326
# Poissons Ratio (z) = 0.30482 0.16179
#
# Static dielectric constant tensor:
#      x y z
#    x 1.872370 0.000000 0.000000 
#    y 0.000000 2.067910 0.000000 
#    z 0.000000 0.000000 1.997890 
# 
# From -- ./inp_files/27749.got.cif
#   From: 2010.05.17/outbox.cif.g08.bks.cpg/sg63_14_cif.got.tgz:27749.got - 2010.06.03 15:47:04.
