data_PCOD9473811
_publ_section_title
;
Structure prediction by ZEFSAII (Michael W. Deem and Ramdas Pophale) SiO2 
 PCOD9473811
Probable space group: C M C M
;
_chemical_formula_sum "Si O2"
_cell_formula_units_Z 96
_cell_length_a 12.053560
_cell_length_b 32.036807
_cell_length_c 13.821577
_cell_angle_alpha 90.000000
_cell_angle_beta 90.000000
_cell_angle_gamma 90.000000
_cell_volume 5337.306662
_symmetry_space_group_name_H-M "C M C M"
_symmetry_group_IT_number 63
_symmetry_cell_setting 'orthorhombic'
loop_
_space_group_symop_operation_xyz
x,y,z
-x,-y,1/2+z
x,-y,-z
-x,y,1/2-z
-x,-y,-z
x,y,1/2-z
-x,y,z
x,-y,1/2+z
1/2+x,1/2+y,z
1/2-x,1/2-y,1/2+z
1/2+x,1/2-y,-z
1/2-x,1/2+y,1/2-z
1/2-x,1/2-y,-z
1/2+x,1/2+y,1/2-z
1/2-x,1/2+y,z
1/2+x,1/2-y,1/2+z
loop_
_atom_site_type_symbol
_atom_site_label
_atom_site_fract_x
_atom_site_fract_y
_atom_site_fract_z
Si Si1 0.633638 0.565300 0.056035
Si Si2 0.865776 0.976572 0.144173
Si Si3 0.500000 0.266583 0.133335
Si Si4 0.127087 0.774522 0.866372
Si Si5 0.500000 0.169860 0.366846
Si Si6 0.765021 0.191625 0.865187
Si Si7 0.765433 0.352179 0.552212
O O1 0.500000 0.571715 0.059776
O O2 0.660725 0.524862 0.120901
O O3 0.698022 0.606944 0.082613
O O4 0.666113 0.551663 0.946804
O O5 0.824437 0.964060 0.250000
O O6 0.000000 0.974751 0.145433
O O7 0.500000 0.263766 0.250000
O O8 0.500000 0.218609 0.100275
O O9 0.387822 0.291141 0.109511
O O10 0.127291 0.778467 0.750000
O O11 0.181055 0.729639 0.887414
O O12 0.202735 0.811297 0.907139
O O13 0.000000 0.777147 0.900533
O O14 0.500000 0.168976 0.250000
O O15 0.389189 0.148842 0.407144
O O16 0.760939 0.182720 0.750000
O O17 0.737207 0.153816 0.936147
#
# Coordination Sequence:
#
# PCOD9473811 Si02
#       7
#    16  16   8  16   8  16  16
#     4   9  19  33  51  85 115 131 169 215 259 327
#     4   8  15  32  57  79 107 144 169 199 257 323
#     4   9  18  36  54  71 102 143 191 230 254 308
#     4  10  21  35  52  76 105 139 186 237 277 317
#     4  11  24  40  55  74 102 144 194 230 265 320
#     4  10  22  36  52  76 106 146 191 228 267 317
#     4  12  23  34  56  77 108 144 178 226 281 314
#
# _framework density 17.986599999999999
#
# number of rings (size 3 to 8) (size 9 to 14) (size 15 to 20)
#    0.000    2.167    1.667    2.500    3.500    2.000 
#    0.000    1.667    0.000    2.000    0.000    1.167 
#    0.000    0.000    0.000    0.000    0.000    0.000 
#
# Total GULP energy -267942.761631 kJ/mol
# GULP energy per Si atom -5582.140867 kJ/mol
# Density = 1.794566 g / cm^3
# Si number density = 17.986600 Si / 1000 Ang^3
#
#
#
# Elastic Constant Matrix: (Units=GPa)
#
#
# Indices 1 2 3 4 5 6 
#
# 1 105.9974 19.6130 19.7442 0.0000 0.0000 0.0000
# 2 19.6130 33.6828 -3.9793 0.0000 0.0000 0.0000
# 3 19.7442 -3.9793 48.2942 0.0000 0.0000 0.0000
# 4 0.0000 0.0000 0.0000 3.0989 0.0000 0.0000
# 5 0.0000 0.0000 0.0000 0.0000 23.4161 0.0000
# 6 0.0000 0.0000 0.0000 0.0000 0.0000 20.4423
#
#
#
# Elastic Compliance Matrix: (Units=1/GPa)
#
#
# Indices 1 2 3 4 5 6 
#
# 1 0.011848 -0.007545 -0.005466 0.000000 0.000000 0.000000
# 2 -0.007545 0.034785 0.005951 0.000000 0.000000 0.000000
# 3 -0.005466 0.005951 0.023431 0.000000 0.000000 0.000000
# 4 0.000000 0.000000 0.000000 0.322694 0.000000 0.000000
# 5 0.000000 0.000000 0.000000 0.000000 0.042706 0.000000
# 6 0.000000 0.000000 0.000000 0.000000 0.000000 0.048918
#
#
# Mechanical properties :
#
#
# Convention : Reuss Voigt Hill
#
# Bulk Modulus (GPa) = 17.87464 28.74780 23.31122
# Shear Modulus (GPa) = 9.66838 19.56457 14.61647
#
# Velocity S-wave (km/s) = 2.32099 3.30165 2.85376
# Velocity P-wave (km/s) = 4.14029 5.52740 4.88335
#
# Compressibility (1/GPa) = 0.05594518
#
# Stress axis : x y z
#
# Youngs Moduli (GPa) = 84.40015 28.74800 42.67804
#
# Poissons Ratio (x) = 0.21690 0.23326
# Poissons Ratio (y) = 0.63678 -0.25397
# Poissons Ratio (z) = 0.46130 -0.17107
#
# Static dielectric constant tensor:
#      x y z
#    x 1.595700 0.000000 0.000000 
#    y 0.000000 1.576160 0.000000 
#    z 0.000000 0.000000 1.686480 
# 
# From -- ./inp_files/30332.got.cif
#   From: 2010.05.17/outbox.cif.g08.bks.cpg/sg63_16_cif.got.tgz:30332.got - 2010.06.03 15:47:04.
