data_PCOD9473249
_publ_section_title
;
Structure prediction by ZEFSAII (Michael W. Deem and Ramdas Pophale) SiO2 
 PCOD9473249
Probable space group: C M C M
;
_chemical_formula_sum "Si O2"
_cell_formula_units_Z 52
_cell_length_a 14.476014
_cell_length_b 7.631773
_cell_length_c 18.349634
_cell_angle_alpha 90.000000
_cell_angle_beta 90.000000
_cell_angle_gamma 90.000000
_cell_volume 2027.224494
_symmetry_space_group_name_H-M "C M C M"
_symmetry_group_IT_number 63
_symmetry_cell_setting 'orthorhombic'
loop_
_space_group_symop_operation_xyz
x,y,z
-x,-y,1/2+z
x,-y,-z
-x,y,1/2-z
-x,-y,-z
x,y,1/2-z
-x,y,z
x,-y,1/2+z
1/2+x,1/2+y,z
1/2-x,1/2-y,1/2+z
1/2+x,1/2-y,-z
1/2-x,1/2+y,1/2-z
1/2-x,1/2-y,-z
1/2+x,1/2+y,1/2-z
1/2-x,1/2+y,z
1/2+x,1/2-y,1/2+z
loop_
_atom_site_type_symbol
_atom_site_label
_atom_site_fract_x
_atom_site_fract_y
_atom_site_fract_z
Si Si1 0.145464 0.309434 0.170369
Si Si2 0.358851 0.705205 0.488902
Si Si3 0.138749 0.714021 0.145410
Si Si4 0.500000 0.388933 0.250000
O O1 0.113982 0.236215 0.250000
O O2 0.107281 0.249999 0.091894
O O3 0.128718 0.516919 0.173873
O O4 0.254414 0.267362 0.159556
O O5 0.370531 0.500000 0.500000
O O6 0.250000 0.750000 0.500000
O O7 0.394248 0.796091 0.561747
O O8 0.079451 0.856540 0.187128
#
# Coordination Sequence:
#
# PCOD9473249 Si02
#       4
#    16  16  16   4
#     4  11  19  37  64  96 121 163 216 262 300 367
#     4  10  20  36  61  94 125 159 207 262 310 360
#     4  11  22  39  65  93 131 162 211 259 317 370
#     4  12  24  40  60  98 132 166 202 258 326 376
#
# _framework density 25.650836000000002
#
# number of rings (size 3 to 8) (size 9 to 14) (size 15 to 20)
#    0.000    1.231    3.077    8.308    0.000    0.000 
#    2.769    3.846    0.000   12.923    0.000    0.000 
#    0.000    0.000    0.000    0.000    0.000    0.000 
#
# Total GULP energy -144764.325640 kJ/mol
# GULP energy per Si atom -5567.858678 kJ/mol
# Density = 2.559245 g / cm^3
# Si number density = 25.650836 Si / 1000 Ang^3
#
#
#
# Elastic Constant Matrix: (Units=GPa)
#
#
# Indices 1 2 3 4 5 6 
#
# 1 80.1509 -32.8261 2.1264 0.0000 0.0000 0.0000
# 2 -32.8261 108.5533 43.5940 0.0000 0.0000 0.0000
# 3 2.1264 43.5940 322.2234 0.0000 0.0000 0.0000
# 4 0.0000 0.0000 0.0000 44.1280 0.0000 0.0000
# 5 0.0000 0.0000 0.0000 0.0000 -126.5476 0.0000
# 6 0.0000 0.0000 0.0000 0.0000 0.0000 -43.4548
#
#
#
# Elastic Compliance Matrix: (Units=1/GPa)
#
#
# Indices 1 2 3 4 5 6 
#
# 1 0.014398 0.004644 -0.000723 0.000000 0.000000 0.000000
# 2 0.004644 0.011239 -0.001551 0.000000 0.000000 0.000000
# 3 -0.000723 -0.001551 0.003318 0.000000 0.000000 0.000000
# 4 0.000000 0.000000 0.000000 0.022661 0.000000 0.000000
# 5 0.000000 0.000000 0.000000 0.000000 -0.007902 0.000000
# 6 0.000000 0.000000 0.000000 0.000000 0.000000 -0.023012
#
#
# Mechanical properties :
#
#
# Convention : Reuss Voigt Hill
#
# Bulk Modulus (GPa) = 29.67823 59.63515 44.65669
# Shear Modulus (GPa) = 183.86292 8.02735 95.94513
#
# Velocity S-wave (km/s) = 8.47554 1.77095 6.12254
# Velocity P-wave (km/s) = 10.36218 5.24223 8.21145
#
# Compressibility (1/GPa) = 0.03369473
#
# Stress axis : x y z
#
# Youngs Moduli (GPa) = 69.45530 88.97224 301.37905
#
# Poissons Ratio (x) = -0.41322 0.21800
# Poissons Ratio (y) = -0.32257 0.46751
# Poissons Ratio (z) = 0.05024 0.13802
#
# Static dielectric constant tensor:
#      x y z
#    x 2.006570 0.000000 0.000000 
#    y 0.000000 1.999860 0.000000 
#    z 0.000000 0.000000 2.102280 
# 
# From -- ./inp_files/44904.got.cif
#   From: 2010.05.17/outbox.cif.g08.bks.cpg/sg63_23_cif.got.tgz:44904.got - 2010.06.03 15:47:04.
