data_PCOD9473041
_publ_section_title
;
Structure prediction by ZEFSAII (Michael W. Deem and Ramdas Pophale) SiO2 
 PCOD9473041
Probable space group: C M C M
;
_chemical_formula_sum "Si O2"
_cell_formula_units_Z 96
_cell_length_a 9.659923
_cell_length_b 22.873380
_cell_length_c 23.929426
_cell_angle_alpha 90.000000
_cell_angle_beta 90.000000
_cell_angle_gamma 90.000000
_cell_volume 5287.328465
_symmetry_space_group_name_H-M "C M C M"
_symmetry_group_IT_number 63
_symmetry_cell_setting 'orthorhombic'
loop_
_space_group_symop_operation_xyz
x,y,z
-x,-y,1/2+z
x,-y,-z
-x,y,1/2-z
-x,-y,-z
x,y,1/2-z
-x,y,z
x,-y,1/2+z
1/2+x,1/2+y,z
1/2-x,1/2-y,1/2+z
1/2+x,1/2-y,-z
1/2-x,1/2+y,1/2-z
1/2-x,1/2-y,-z
1/2+x,1/2+y,1/2-z
1/2-x,1/2+y,z
1/2+x,1/2-y,1/2+z
loop_
_atom_site_type_symbol
_atom_site_label
_atom_site_fract_x
_atom_site_fract_y
_atom_site_fract_z
Si Si1 0.168381 0.146006 0.750000
Si Si2 0.837845 0.224176 0.856849
Si Si3 0.343695 0.957557 0.447083
Si Si4 0.839383 0.153622 0.527307
Si Si5 0.167079 0.988945 0.250000
Si Si6 0.663752 0.327459 0.900785
Si Si7 0.165911 0.039176 0.368495
O O1 0.207813 0.181461 0.693767
O O2 0.218034 0.078501 0.750000
O O3 0.000000 0.143696 0.750000
O O4 0.827754 0.192479 0.917138
O O5 0.749259 0.282709 0.863228
O O6 0.000000 0.237704 0.847398
O O7 0.500000 0.946345 0.426650
O O8 0.266742 0.898974 0.465218
O O9 0.352247 0.000000 0.500000
O O10 0.248345 0.991527 0.403568
O O11 0.811692 0.183028 0.467129
O O12 0.000000 0.132452 0.524430
O O13 0.000000 0.984436 0.250000
O O14 0.203717 0.025275 0.304794
O O15 0.500000 0.319990 0.890576
O O16 0.699356 0.394929 0.887399
O O17 0.000000 0.031515 0.375862
#
# Coordination Sequence:
#
# PCOD9473041 Si02
#       7
#     8  16  16  16   8  16  16
#     4   9  18  35  55  79 105 137 186 231 268 325
#     4  10  21  36  57  79 106 147 190 228 272 326
#     4  11  22  34  53  83 115 147 182 226 280 333
#     4  10  20  36  57  82 111 147 187 231 280 332
#     4   9  18  35  61  85 107 141 188 235 276 329
#     4  10  21  35  54  83 115 144 182 230 283 334
#     4  10  20  36  58  83 112 148 188 230 277 334
#
# _framework density 18.156618000000002
#
# number of rings (size 3 to 8) (size 9 to 14) (size 15 to 20)
#    0.000    2.000    1.667    2.000    0.000    6.000 
#    0.000    1.667    0.000    1.000    0.000    0.000 
#    0.000    0.000    0.000    0.000    0.000    0.000 
#
# Total GULP energy -267736.137036 kJ/mol
# GULP energy per Si atom -5577.836188 kJ/mol
# Density = 1.811529 g / cm^3
# Si number density = 18.156618 Si / 1000 Ang^3
#
#
#
# Elastic Constant Matrix: (Units=GPa)
#
#
# Indices 1 2 3 4 5 6 
#
# 1 41.9909 31.3847 13.6813 0.0000 0.0000 0.0000
# 2 31.3847 54.2564 16.3237 0.0000 0.0000 0.0000
# 3 13.6813 16.3237 101.6342 0.0000 0.0000 0.0000
# 4 0.0000 0.0000 0.0000 28.4792 0.0000 0.0000
# 5 0.0000 0.0000 0.0000 0.0000 21.4979 0.0000
# 6 0.0000 0.0000 0.0000 0.0000 0.0000 53.5452
#
#
#
# Elastic Compliance Matrix: (Units=1/GPa)
#
#
# Indices 1 2 3 4 5 6 
#
# 1 0.042282 -0.023901 -0.001853 0.000000 0.000000 0.000000
# 2 -0.023901 0.032877 -0.002063 0.000000 0.000000 0.000000
# 3 -0.001853 -0.002063 0.010420 0.000000 0.000000 0.000000
# 4 0.000000 0.000000 0.000000 0.035113 0.000000 0.000000
# 5 0.000000 0.000000 0.000000 0.000000 0.046516 0.000000
# 6 0.000000 0.000000 0.000000 0.000000 0.000000 0.018676
#
#
# Mechanical properties :
#
#
# Convention : Reuss Voigt Hill
#
# Bulk Modulus (GPa) = 33.39380 35.62901 34.51141
# Shear Modulus (GPa) = 19.88066 29.80392 24.84229
#
# Velocity S-wave (km/s) = 3.31260 4.05593 3.70296
# Velocity P-wave (km/s) = 5.75005 6.44979 6.10995
#
# Compressibility (1/GPa) = 0.02994567
#
# Stress axis : x y z
#
# Youngs Moduli (GPa) = 23.65052 30.41617 95.96924
#
# Poissons Ratio (x) = 0.72697 0.17783
# Poissons Ratio (y) = 0.56527 0.19800
# Poissons Ratio (z) = 0.04382 0.06275
#
# Static dielectric constant tensor:
#      x y z
#    x 1.611270 0.000000 0.000000 
#    y 0.000000 1.601480 0.000000 
#    z 0.000000 0.000000 2.060390 
# 
# From -- ./inp_files/60002.got.cif
#   From: 2010.05.17/outbox.cif.g08.bks.cpg/sg63_31_cif.got.tgz:60002.got - 2010.06.03 15:47:04.
