data_PCOD9473836
_publ_section_title
;
Structure prediction by ZEFSAII (Michael W. Deem and Ramdas Pophale) SiO2 
 PCOD9473836
Probable space group: C M C M
;
_chemical_formula_sum "Si O2"
_cell_formula_units_Z 116
_cell_length_a 15.031026
_cell_length_b 17.617124
_cell_length_c 24.009945
_cell_angle_alpha 90.000000
_cell_angle_beta 90.000000
_cell_angle_gamma 90.000000
_cell_volume 6357.916244
_symmetry_space_group_name_H-M "C M C M"
_symmetry_group_IT_number 63
_symmetry_cell_setting 'orthorhombic'
loop_
_space_group_symop_operation_xyz
x,y,z
-x,-y,1/2+z
x,-y,-z
-x,y,1/2-z
-x,-y,-z
x,y,1/2-z
-x,y,z
x,-y,1/2+z
1/2+x,1/2+y,z
1/2-x,1/2-y,1/2+z
1/2+x,1/2-y,-z
1/2-x,1/2+y,1/2-z
1/2-x,1/2-y,-z
1/2+x,1/2+y,1/2-z
1/2-x,1/2+y,z
1/2+x,1/2-y,1/2+z
loop_
_atom_site_type_symbol
_atom_site_label
_atom_site_fract_x
_atom_site_fract_y
_atom_site_fract_z
Si Si1 0.839594 0.604730 0.949600
Si Si2 0.000000 0.500000 0.000000
Si Si3 0.892462 0.754475 0.390584
Si Si4 0.755903 0.495751 0.358651
Si Si5 0.104214 0.387453 0.814588
Si Si6 0.894637 0.764368 0.982787
Si Si7 0.323899 0.428504 0.532147
Si Si8 0.896364 0.896732 0.186210
O O1 0.809099 0.570433 0.890936
O O2 0.857172 0.694434 0.947659
O O3 0.922412 0.557104 0.973955
O O4 0.760029 0.589945 0.992941
O O5 0.867541 0.680384 0.355632
O O6 0.858965 0.755271 0.453686
O O7 0.870927 0.830220 0.356649
O O8 0.000000 0.752790 0.393106
O O9 0.828368 0.544278 0.325473
O O10 0.711226 0.544526 0.408248
O O11 0.675100 0.462604 0.322750
O O12 0.107429 0.363499 0.750000
O O13 0.000000 0.406914 0.827078
O O14 0.876273 0.849916 0.963723
O O15 0.000000 0.753371 0.984977
O O16 0.370042 0.500000 0.500000
O O17 0.892798 0.869053 0.250000
O O18 0.000000 0.918703 0.175420
#
# Coordination Sequence:
#
# PCOD9473836 Si02
#       8
#    16   4  16  16  16  16  16  16
#     4  11  22  35  55  82 115 149 193 227 269 333
#     4  12  20  36  60  76 118 156 192 228 272 332
#     4   9  18  32  56  80 106 139 177 226 282 322
#     4  11  22  35  57  80 110 151 182 225 277 326
#     4  10  21  35  54  81 109 136 175 228 282 332
#     4  11  22  35  55  82 114 152 184 217 270 335
#     4  10  21  36  51  78 114 144 183 231 267 322
#     4  10  21  39  60  81 105 138 188 239 284 334
#
# _framework density 18.244972000000001
#
# number of rings (size 3 to 8) (size 9 to 14) (size 15 to 20)
#    0.000    1.655    2.759    3.724    0.966    3.586 
#    0.000    0.000    0.000    0.000    0.000    0.000 
#    0.000    8.828    0.000    0.000    0.000    0.000 
#
# Total GULP energy -323174.953940 kJ/mol
# GULP energy per Si atom -5571.981964 kJ/mol
# Density = 1.820345 g / cm^3
# Si number density = 18.244972 Si / 1000 Ang^3
#
#
#
# Elastic Constant Matrix: (Units=GPa)
#
#
# Indices 1 2 3 4 5 6 
#
# 1 54.5837 31.9888 3.9753 0.0000 0.0000 0.0000
# 2 31.9888 114.6344 24.9416 0.0000 0.0000 0.0000
# 3 3.9753 24.9416 49.2952 0.0000 0.0000 0.0000
# 4 0.0000 0.0000 0.0000 17.4819 0.0000 0.0000
# 5 0.0000 0.0000 0.0000 0.0000 12.1028 0.0000
# 6 0.0000 0.0000 0.0000 0.0000 0.0000 29.0109
#
#
#
# Elastic Compliance Matrix: (Units=1/GPa)
#
#
# Indices 1 2 3 4 5 6 
#
# 1 0.022000 -0.006465 0.001497 0.000000 0.000000 0.000000
# 2 -0.006465 0.011702 -0.005400 0.000000 0.000000 0.000000
# 3 0.001497 -0.005400 0.022897 0.000000 0.000000 0.000000
# 4 0.000000 0.000000 0.000000 0.057202 0.000000 0.000000
# 5 0.000000 0.000000 0.000000 0.000000 0.082626 0.000000
# 6 0.000000 0.000000 0.000000 0.000000 0.000000 0.034470
#
#
# Mechanical properties :
#
#
# Convention : Reuss Voigt Hill
#
# Bulk Modulus (GPa) = 27.88271 37.81384 32.84827
# Shear Modulus (GPa) = 18.96906 22.22629 20.59767
#
# Velocity S-wave (km/s) = 3.22792 3.49408 3.36363
# Velocity P-wave (km/s) = 5.40446 6.08677 5.75573
#
# Compressibility (1/GPa) = 0.03586453
#
# Stress axis : x y z
#
# Youngs Moduli (GPa) = 45.45410 85.45386 43.67338
#
# Poissons Ratio (x) = 0.55245 -0.06537
# Poissons Ratio (y) = 0.29385 0.23582
# Poissons Ratio (z) = -0.06804 0.46141
#
# Static dielectric constant tensor:
#      x y z
#    x 1.628620 0.000000 0.000000 
#    y 0.000000 1.650080 0.000000 
#    z 0.000000 0.000000 1.616290 
# 
# From -- ./inp_files/63199.got.cif
#   From: 2010.05.17/outbox.cif.g08.bks.cpg/sg63_32_cif.got.tgz:63199.got - 2010.06.03 15:47:04.
