data_PCOD9473991
_publ_section_title
;
Structure prediction by ZEFSAII (Michael W. Deem and Ramdas Pophale) SiO2 
 PCOD9473991
Probable space group: C M C M
;
_chemical_formula_sum "Si O2"
_cell_formula_units_Z 88
_cell_length_a 17.951740
_cell_length_b 15.072635
_cell_length_c 18.391333
_cell_angle_alpha 90.000000
_cell_angle_beta 90.000000
_cell_angle_gamma 90.000000
_cell_volume 4976.327336
_symmetry_space_group_name_H-M "C M C M"
_symmetry_group_IT_number 63
_symmetry_cell_setting 'orthorhombic'
loop_
_space_group_symop_operation_xyz
x,y,z
-x,-y,1/2+z
x,-y,-z
-x,y,1/2-z
-x,-y,-z
x,y,1/2-z
-x,y,z
x,-y,1/2+z
1/2+x,1/2+y,z
1/2-x,1/2-y,1/2+z
1/2+x,1/2-y,-z
1/2-x,1/2+y,1/2-z
1/2-x,1/2-y,-z
1/2+x,1/2+y,1/2-z
1/2-x,1/2+y,z
1/2+x,1/2-y,1/2+z
loop_
_atom_site_type_symbol
_atom_site_label
_atom_site_fract_x
_atom_site_fract_y
_atom_site_fract_z
Si Si1 0.709679 0.075363 0.402273
Si Si2 0.149311 0.596492 0.832985
Si Si3 0.161109 0.000000 0.000000
Si Si4 0.414482 0.325483 0.057586
Si Si5 0.416016 0.138741 0.985218
Si Si6 0.286838 0.732751 0.834972
O O1 0.647560 0.093211 0.465176
O O2 0.728914 0.170198 0.367736
O O3 0.676893 0.004168 0.345909
O O4 0.782900 0.032513 0.437163
O O5 0.121779 0.607289 0.750000
O O6 0.095503 0.617215 0.900616
O O7 0.218570 0.664325 0.843849
O O8 0.111409 0.917384 0.023378
O O9 0.500000 0.329075 0.081509
O O10 0.358268 0.303582 0.122518
O O11 0.407776 0.243814 0.000884
O O12 0.500000 0.113184 0.008199
O O13 0.302247 0.741150 0.750000
#
# Coordination Sequence:
#
# PCOD9473991 Si02
#       6
#    16  16   8  16  16  16
#     4  11  20  35  58  85 107 149 188 235 275 330
#     4  11  21  35  54  82 111 145 185 228 283 332
#     4  12  19  34  59  86 114 138 188 244 279 332
#     4  10  21  36  58  84 112 149 189 231 283 334
#     4  10  21  38  56  79 113 149 186 228 277 335
#     4  10  21  37  56  80 115 150 188 231 275 333
#
# _framework density 17.683723000000001
#
# number of rings (size 3 to 8) (size 9 to 14) (size 15 to 20)
#    0.000    1.455    3.636    1.909    0.000    5.091 
#    0.000    0.000    0.000    3.273    0.000    2.545 
#    0.000    0.000    0.000    0.000    0.000    0.000 
#
# Total GULP energy -245622.116644 kJ/mol
# GULP energy per Si atom -5582.320833 kJ/mol
# Density = 1.764347 g / cm^3
# Si number density = 17.683723 Si / 1000 Ang^3
#
#
#
# Elastic Constant Matrix: (Units=GPa)
#
#
# Indices 1 2 3 4 5 6 
#
# 1 29.5359 14.3582 2.4810 0.0000 0.0000 0.0000
# 2 14.3582 113.4320 19.8935 0.0000 0.0000 0.0000
# 3 2.4810 19.8935 71.3972 0.0000 0.0000 0.0000
# 4 0.0000 0.0000 0.0000 23.2307 0.0000 0.0000
# 5 0.0000 0.0000 0.0000 0.0000 20.1330 0.0000
# 6 0.0000 0.0000 0.0000 0.0000 0.0000 24.1417
#
#
#
# Elastic Compliance Matrix: (Units=1/GPa)
#
#
# Indices 1 2 3 4 5 6 
#
# 1 0.036077 -0.004570 0.000020 0.000000 0.000000 0.000000
# 2 -0.004570 0.009848 -0.002585 0.000000 0.000000 0.000000
# 3 0.000020 -0.002585 0.014726 0.000000 0.000000 0.000000
# 4 0.000000 0.000000 0.000000 0.043047 0.000000 0.000000
# 5 0.000000 0.000000 0.000000 0.000000 0.049670 0.000000
# 6 0.000000 0.000000 0.000000 0.000000 0.000000 0.041422
#
#
# Mechanical properties :
#
#
# Convention : Reuss Voigt Hill
#
# Bulk Modulus (GPa) = 21.56118 31.98117 26.77118
# Shear Modulus (GPa) = 22.26976 25.34323 23.80650
#
# Velocity S-wave (km/s) = 3.55256 3.78979 3.67309
# Velocity P-wave (km/s) = 5.38950 6.10527 5.75852
#
# Compressibility (1/GPa) = 0.04637964
#
# Stress axis : x y z
#
# Youngs Moduli (GPa) = 27.71842 101.54648 67.90823
#
# Poissons Ratio (x) = 0.46408 -0.00134
# Poissons Ratio (y) = 0.12668 0.17555
# Poissons Ratio (z) = -0.00055 0.26251
#
# Static dielectric constant tensor:
#      x y z
#    x 1.587340 0.000000 0.000000 
#    y 0.000000 1.612530 0.000000 
#    z 0.000000 0.000000 1.585080 
# 
# From -- ./inp_files/45552.got.cif
#   From: 2010.05.17/outbox.cif.g08.bks.cpg/sg63_23_cif.got.tgz:45552.got - 2010.06.03 15:47:04.
