data_PCOD9473324
_publ_section_title
;
Structure prediction by ZEFSAII (Michael W. Deem and Ramdas Pophale) SiO2 
 PCOD9473324
Probable space group: C M C M
;
_chemical_formula_sum "Si O2"
_cell_formula_units_Z 96
_cell_length_a 15.213826
_cell_length_b 24.299474
_cell_length_c 13.777497
_cell_angle_alpha 90.000000
_cell_angle_beta 90.000000
_cell_angle_gamma 90.000000
_cell_volume 5093.374888
_symmetry_space_group_name_H-M "C M C M"
_symmetry_group_IT_number 63
_symmetry_cell_setting 'orthorhombic'
loop_
_space_group_symop_operation_xyz
x,y,z
-x,-y,1/2+z
x,-y,-z
-x,y,1/2-z
-x,-y,-z
x,y,1/2-z
-x,y,z
x,-y,1/2+z
1/2+x,1/2+y,z
1/2-x,1/2-y,1/2+z
1/2+x,1/2-y,-z
1/2-x,1/2+y,1/2-z
1/2-x,1/2-y,-z
1/2+x,1/2+y,1/2-z
1/2-x,1/2+y,z
1/2+x,1/2-y,1/2+z
loop_
_atom_site_type_symbol
_atom_site_label
_atom_site_fract_x
_atom_site_fract_y
_atom_site_fract_z
Si Si1 0.000000 0.340159 0.996377
Si Si2 0.640652 0.442555 0.464784
Si Si3 0.000000 0.871963 0.361216
Si Si4 0.649903 0.644614 0.362388
Si Si5 0.843244 0.620352 0.139139
Si Si6 0.314893 0.009830 0.865475
Si Si7 0.500000 0.937742 0.365859
Si Si8 0.500000 0.288191 0.959851
O O1 0.915385 0.358333 0.934390
O O2 0.000000 0.275993 0.018903
O O3 0.000000 0.376674 0.092871
O O4 0.600892 0.500000 0.500000
O O5 0.583989 0.410050 0.385690
O O6 0.638400 0.404394 0.560294
O O7 0.735691 0.459357 0.420462
O O8 0.000000 0.853829 0.250000
O O9 0.000000 0.822289 0.438922
O O10 0.630343 0.629600 0.250000
O O11 0.754052 0.655876 0.367017
O O12 0.585202 0.692202 0.398852
O O13 0.876625 0.622708 0.250000
O O14 0.817421 0.556303 0.121704
O O15 0.304016 0.019412 0.750000
O O16 0.410155 0.032319 0.896811
O O17 0.500000 0.938553 0.250000
#
# Coordination Sequence:
#
# PCOD9473324 Si02
#       8
#     8  16   8  16  16  16   8   8
#     4  12  24  39  62  84 116 152 204 264 294 340
#     4  11  20  34  59  92 123 155 190 227 289 358
#     4  10  23  40  57  83 118 153 196 245 296 350
#     4  10  21  39  61  87 119 155 199 244 291 355
#     4  10  21  37  61  93 121 153 191 236 297 361
#     4  10  20  37  58  89 131 161 185 228 287 362
#     4  10  23  36  54  85 121 162 200 232 292 355
#     4  10  25  43  61  82 108 158 206 257 309 337
#
# _framework density 18.848013999999999
#
# number of rings (size 3 to 8) (size 9 to 14) (size 15 to 20)
#    0.000    1.667    1.667    2.750    0.000    4.667 
#    0.000    0.000    0.000    4.000    0.000    0.000 
#    0.000    0.000    0.000    0.000    0.000    0.000 
#
# Total GULP energy -267929.166439 kJ/mol
# GULP energy per Si atom -5581.857634 kJ/mol
# Density = 1.880511 g / cm^3
# Si number density = 18.848014 Si / 1000 Ang^3
#
#
#
# Elastic Constant Matrix: (Units=GPa)
#
#
# Indices 1 2 3 4 5 6 
#
# 1 125.8942 51.6253 46.0140 0.0000 0.0000 0.0000
# 2 51.6253 93.0594 30.5656 0.0000 0.0000 0.0000
# 3 46.0140 30.5656 114.6508 0.0000 0.0000 0.0000
# 4 0.0000 0.0000 0.0000 19.6763 0.0000 0.0000
# 5 0.0000 0.0000 0.0000 0.0000 -66.9715 0.0000
# 6 0.0000 0.0000 0.0000 0.0000 0.0000 10.7079
#
#
#
# Elastic Compliance Matrix: (Units=1/GPa)
#
#
# Indices 1 2 3 4 5 6 
#
# 1 0.011213 -0.005197 -0.003115 0.000000 0.000000 0.000000
# 2 -0.005197 0.014186 -0.001696 0.000000 0.000000 0.000000
# 3 -0.003115 -0.001696 0.010424 0.000000 0.000000 0.000000
# 4 0.000000 0.000000 0.000000 0.050822 0.000000 0.000000
# 5 0.000000 0.000000 0.000000 0.000000 -0.014932 0.000000
# 6 0.000000 0.000000 0.000000 0.000000 0.000000 0.093389
#
#
# Mechanical properties :
#
#
# Convention : Reuss Voigt Hill
#
# Bulk Modulus (GPa) = 63.26202 65.55714 64.40958
# Shear Modulus (GPa) = 26.26214 6.37585 16.31899
#
# Velocity S-wave (km/s) = 3.73683 1.84123 2.94567
# Velocity P-wave (km/s) = 7.22881 6.27516 6.76880
#
# Compressibility (1/GPa) = 0.01580727
#
# Stress axis : x y z
#
# Youngs Moduli (GPa) = 89.18356 70.49105 95.92969
#
# Poissons Ratio (x) = 0.36637 0.29878
# Poissons Ratio (y) = 0.46352 0.16270
# Poissons Ratio (z) = 0.27777 0.11956
#
# Static dielectric constant tensor:
#      x y z
#    x 1.682760 0.000000 0.000000 
#    y 0.000000 1.610630 0.000000 
#    z 0.000000 0.000000 1.669820 
# 
# From -- ./inp_files/32237.got.cif
#   From: 2010.05.17/outbox.cif.g08.bks.cpg/sg63_17_cif.got.tgz:32237.got - 2010.06.03 15:47:04.
