data_PCOD9473487
_publ_section_title
;
Structure prediction by ZEFSAII (Michael W. Deem and Ramdas Pophale) SiO2 
 PCOD9473487
Probable space group: C M C M
;
_chemical_formula_sum "Si O2"
_cell_formula_units_Z 116
_cell_length_a 25.692368
_cell_length_b 29.706126
_cell_length_c 7.924685
_cell_angle_alpha 90.000000
_cell_angle_beta 90.000000
_cell_angle_gamma 90.000000
_cell_volume 6048.283800
_symmetry_space_group_name_H-M "C M C M"
_symmetry_group_IT_number 63
_symmetry_cell_setting 'orthorhombic'
loop_
_space_group_symop_operation_xyz
x,y,z
-x,-y,1/2+z
x,-y,-z
-x,y,1/2-z
-x,-y,-z
x,y,1/2-z
-x,y,z
x,-y,1/2+z
1/2+x,1/2+y,z
1/2-x,1/2-y,1/2+z
1/2+x,1/2-y,-z
1/2-x,1/2+y,1/2-z
1/2-x,1/2-y,-z
1/2+x,1/2+y,1/2-z
1/2-x,1/2+y,z
1/2+x,1/2-y,1/2+z
loop_
_atom_site_type_symbol
_atom_site_label
_atom_site_fract_x
_atom_site_fract_y
_atom_site_fract_z
Si Si1 0.914369 0.804099 0.446097
Si Si2 0.359732 0.948125 0.952018
Si Si3 0.757771 0.051585 0.046498
Si Si4 0.367951 0.205667 0.056743
Si Si5 0.242727 0.698914 0.559130
Si Si6 0.000000 0.189737 0.250000
Si Si7 0.559078 0.872172 0.449535
Si Si8 0.325841 0.368339 0.555947
O O1 0.933698 0.801911 0.250000
O O2 0.885042 0.756561 0.480024
O O3 0.955229 0.809506 0.597604
O O4 0.872665 0.844357 0.459962
O O5 0.359630 0.944495 0.750000
O O6 0.300982 0.936989 0.013688
O O7 0.403143 0.914275 0.018564
O O8 0.370091 0.000000 0.000000
O O9 0.757029 0.055562 0.250000
O O10 0.801864 0.085574 0.983799
O O11 0.767734 0.000000 0.000000
O O12 0.350161 0.204088 0.250000
O O13 0.318656 0.189679 0.950209
O O14 0.415684 0.171796 0.032833
O O15 0.261778 0.694278 0.750000
O O16 0.250000 0.750000 0.500000
O O17 0.277001 0.665764 0.448316
O O18 0.557491 0.863649 0.250000
O O19 0.500000 0.880389 0.508723
O O20 0.342218 0.375354 0.750000
#
# Coordination Sequence:
#
# PCOD9473487 Si02
#       8
#    16  16  16  16  16   4  16  16
#     4  11  25  42  64  93 122 165 214 256 314 371
#     4  10  20  38  61  85 117 155 198 250 308 369
#     4   9  20  36  60  92 126 159 195 240 304 374
#     4  11  24  40  57  83 119 158 208 256 310 373
#     4  12  23  35  56  85 121 163 204 252 306 373
#     4  12  26  44  68  86 126 168 206 272 302 354
#     4  11  25  40  58  82 110 151 207 262 318 369
#     4  11  21  38  61  91 130 166 204 253 311 371
#
# _framework density 19.178993999999999
#
# number of rings (size 3 to 8) (size 9 to 14) (size 15 to 20)
#    0.000    1.241    2.069    3.931    2.897    4.138 
#    0.000    0.000    0.000    0.000    0.000    0.483 
#    0.000    0.000    0.000    0.000    0.000    0.000 
#
# Total GULP energy -323526.869634 kJ/mol
# GULP energy per Si atom -5578.049476 kJ/mol
# Density = 1.913534 g / cm^3
# Si number density = 19.178994 Si / 1000 Ang^3
#
#
#
# Elastic Constant Matrix: (Units=GPa)
#
#
# Indices 1 2 3 4 5 6 
#
# 1 77.3790 21.7171 30.1204 0.0000 0.0000 0.0000
# 2 21.7171 59.4845 0.3456 0.0000 0.0000 0.0000
# 3 30.1204 0.3456 71.3273 0.0000 0.0000 0.0000
# 4 0.0000 0.0000 0.0000 21.1877 0.0000 0.0000
# 5 0.0000 0.0000 0.0000 0.0000 29.2652 0.0000
# 6 0.0000 0.0000 0.0000 0.0000 0.0000 -6.0249
#
#
#
# Elastic Compliance Matrix: (Units=1/GPa)
#
#
# Indices 1 2 3 4 5 6 
#
# 1 0.017594 -0.006380 -0.007399 0.000000 0.000000 0.000000
# 2 -0.006380 0.019125 0.002602 0.000000 0.000000 0.000000
# 3 -0.007399 0.002602 0.017132 0.000000 0.000000 0.000000
# 4 0.000000 0.000000 0.000000 0.047197 0.000000 0.000000
# 5 0.000000 0.000000 0.000000 0.000000 0.034170 0.000000
# 6 0.000000 0.000000 0.000000 0.000000 0.000000 -0.165977
#
#
# Mechanical properties :
#
#
# Convention : Reuss Voigt Hill
#
# Bulk Modulus (GPa) = 31.74995 34.72856 33.23925
# Shear Modulus (GPa) = 2385.57892 19.28611 1202.43251
#
# Velocity S-wave (km/s) = 35.30652 3.17454 25.06619
# Velocity P-wave (km/s) = 40.97142 5.61995 29.24244
#
# Compressibility (1/GPa) = 0.03149611
#
# Stress axis : x y z
#
# Youngs Moduli (GPa) = 56.83697 52.28649 58.37138
#
# Poissons Ratio (x) = 0.33361 0.43188
# Poissons Ratio (y) = 0.36265 -0.15186
# Poissons Ratio (z) = 0.42053 -0.13603
#
# Static dielectric constant tensor:
#      x y z
#    x 1.675140 0.000000 0.000000 
#    y 0.000000 1.643840 0.000000 
#    z 0.000000 0.000000 1.643970 
# 
# From -- ./inp_files/11190.got.cif
#   From: 2010.05.17/outbox.cif.g08.bks.cpg/sg63_6_cif.got.tgz:11190.got - 2010.06.03 15:47:04.
