data_PCOD9473436
_publ_section_title
;
Structure prediction by ZEFSAII (Michael W. Deem and Ramdas Pophale) SiO2 
 PCOD9473436
Probable space group: C M C M
;
_chemical_formula_sum "Si O2"
_cell_formula_units_Z 80
_cell_length_a 11.612532
_cell_length_b 22.595086
_cell_length_c 15.480782
_cell_angle_alpha 90.000000
_cell_angle_beta 90.000000
_cell_angle_gamma 90.000000
_cell_volume 4061.942931
_symmetry_space_group_name_H-M "C M C M"
_symmetry_group_IT_number 63
_symmetry_cell_setting 'orthorhombic'
loop_
_space_group_symop_operation_xyz
x,y,z
-x,-y,1/2+z
x,-y,-z
-x,y,1/2-z
-x,-y,-z
x,y,1/2-z
-x,y,z
x,-y,1/2+z
1/2+x,1/2+y,z
1/2-x,1/2-y,1/2+z
1/2+x,1/2-y,-z
1/2-x,1/2+y,1/2-z
1/2-x,1/2-y,-z
1/2+x,1/2+y,1/2-z
1/2-x,1/2+y,z
1/2+x,1/2-y,1/2+z
loop_
_atom_site_type_symbol
_atom_site_label
_atom_site_fract_x
_atom_site_fract_y
_atom_site_fract_z
Si Si1 0.500000 0.379940 0.919305
Si Si2 0.866003 0.380176 0.750000
Si Si3 0.366673 0.109529 0.750000
Si Si4 0.206059 0.994830 0.750000
Si Si5 0.000000 0.150547 0.608192
Si Si6 0.232553 0.175588 0.401661
Si Si7 0.500000 0.508212 0.881195
Si Si8 0.753737 0.314933 0.396337
O O1 0.382465 0.360202 0.874351
O O2 0.500000 0.449961 0.944096
O O3 0.500000 0.340081 0.005257
O O4 0.790199 0.439413 0.750000
O O5 0.831214 0.343964 0.664141
O O6 0.000000 0.393832 0.750000
O O7 0.500000 0.092602 0.750000
O O8 0.283224 0.053283 0.750000
O O9 0.335742 0.148088 0.665695
O O10 0.118189 0.995349 0.670010
O O11 0.121968 0.176318 0.637943
O O12 0.000000 0.079656 0.617465
O O13 0.215145 0.245899 0.394659
O O14 0.257819 0.163527 0.503424
#
# Coordination Sequence:
#
# PCOD9473436 Si02
#       8
#     8   8   8   8   8  16   8  16
#     4  10  20  37  66  95 123 160 207 264 317 368
#     4  12  25  42  63  89 124 172 209 250 308 372
#     4  12  25  42  63  89 124 172 209 250 308 372
#     4  11  23  40  60  90 123 161 208 262 312 367
#     4  10  20  37  66  95 123 160 207 264 317 368
#     4  10  23  42  64  94 128 162 207 258 312 374
#     4  11  19  38  66  88 125 163 200 271 317 360
#     4  10  23  42  64  94 128 162 207 258 312 374
#
# _framework density 19.695008000000001
#
# number of rings (size 3 to 8) (size 9 to 14) (size 15 to 20)
#    0.000    1.400    4.000    1.200    2.800    1.600 
#    0.000    1.000    0.000    2.400    0.000    0.000 
#    0.000    0.000    0.000    0.000    0.000    0.000 
#
# Total GULP energy -223053.085729 kJ/mol
# GULP energy per Si atom -5576.327143 kJ/mol
# Density = 1.965018 g / cm^3
# Si number density = 19.695008 Si / 1000 Ang^3
#
#
#
# Elastic Constant Matrix: (Units=GPa)
#
#
# Indices 1 2 3 4 5 6 
#
# 1 123.0033 31.6501 22.6300 0.0000 0.0000 0.0000
# 2 31.6501 106.1492 26.8501 0.0000 0.0000 0.0000
# 3 22.6300 26.8501 66.0149 0.0000 0.0000 0.0000
# 4 0.0000 0.0000 0.0000 22.1493 0.0000 0.0000
# 5 0.0000 0.0000 0.0000 0.0000 6.6714 0.0000
# 6 0.0000 0.0000 0.0000 0.0000 0.0000 29.6715
#
#
#
# Elastic Compliance Matrix: (Units=1/GPa)
#
#
# Indices 1 2 3 4 5 6 
#
# 1 0.009095 -0.002144 -0.002246 0.000000 0.000000 0.000000
# 2 -0.002144 0.011006 -0.003742 0.000000 0.000000 0.000000
# 3 -0.002246 -0.003742 0.017440 0.000000 0.000000 0.000000
# 4 0.000000 0.000000 0.000000 0.045148 0.000000 0.000000
# 5 0.000000 0.000000 0.000000 0.000000 0.149894 0.000000
# 6 0.000000 0.000000 0.000000 0.000000 0.000000 0.033702
#
#
# Mechanical properties :
#
#
# Convention : Reuss Voigt Hill
#
# Bulk Modulus (GPa) = 46.99586 50.82530 48.91058
# Shear Modulus (GPa) = 17.26278 25.96758 21.61518
#
# Velocity S-wave (km/s) = 2.96380 3.63503 3.31644
# Velocity P-wave (km/s) = 5.96873 6.59395 6.28911
#
# Compressibility (1/GPa) = 0.02127847
#
# Stress axis : x y z
#
# Youngs Moduli (GPa) = 109.95512 90.85687 57.34003
#
# Poissons Ratio (x) = 0.19477 0.12877
# Poissons Ratio (y) = 0.23571 0.21455
# Poissons Ratio (z) = 0.24693 0.33996
#
# Static dielectric constant tensor:
#      x y z
#    x 1.695200 0.000000 0.000000 
#    y 0.000000 1.668720 0.000000 
#    z 0.000000 0.000000 1.748830 
# 
# From -- ./inp_files/42244.got.cif
#   From: 2010.05.17/outbox.cif.g08.bks.cpg/sg63_22_cif.got.tgz:42244.got - 2010.06.03 15:47:04.
