data_PCOD9473370
_publ_section_title
;
Structure prediction by ZEFSAII (Michael W. Deem and Ramdas Pophale) SiO2 
 PCOD9473370
Probable space group: C M C M
;
_chemical_formula_sum "Si O2"
_cell_formula_units_Z 96
_cell_length_a 22.444567
_cell_length_b 11.387998
_cell_length_c 17.908831
_cell_angle_alpha 90.000000
_cell_angle_beta 90.000000
_cell_angle_gamma 90.000000
_cell_volume 4577.473637
_symmetry_space_group_name_H-M "C M C M"
_symmetry_group_IT_number 63
_symmetry_cell_setting 'orthorhombic'
loop_
_space_group_symop_operation_xyz
x,y,z
-x,-y,1/2+z
x,-y,-z
-x,y,1/2-z
-x,-y,-z
x,y,1/2-z
-x,y,z
x,-y,1/2+z
1/2+x,1/2+y,z
1/2-x,1/2-y,1/2+z
1/2+x,1/2-y,-z
1/2-x,1/2+y,1/2-z
1/2-x,1/2-y,-z
1/2+x,1/2+y,1/2-z
1/2-x,1/2+y,z
1/2+x,1/2-y,1/2+z
loop_
_atom_site_type_symbol
_atom_site_label
_atom_site_fract_x
_atom_site_fract_y
_atom_site_fract_z
Si Si1 0.065834 0.261438 0.965643
Si Si2 0.565595 0.844602 0.365198
Si Si3 0.167228 0.921998 0.434608
Si Si4 0.766658 0.274512 0.840196
Si Si5 0.138662 0.870728 0.832883
Si Si6 0.645360 0.040574 0.087384
O O1 0.116562 0.162916 0.967753
O O2 0.091313 0.365322 0.914962
O O3 0.000000 0.219607 0.943649
O O4 0.061618 0.319135 0.046693
O O5 0.500000 0.883624 0.339600
O O6 0.584476 0.719446 0.332827
O O7 0.619637 0.936660 0.361058
O O8 0.210223 0.840040 0.385039
O O9 0.196780 0.000000 0.500000
O O10 0.133621 0.016902 0.384166
O O11 0.775933 0.264884 0.750000
O O12 0.697239 0.297021 0.855661
O O13 0.800902 0.387536 0.874985
O O14 0.150552 0.914714 0.750000
O O15 0.656471 0.000000 0.000000
#
# Coordination Sequence:
#
# PCOD9473370 Si02
#       6
#    16  16  16  16  16  16
#     4   9  18  36  61  90 123 157 197 247 307 363
#     4  10  20  37  60  90 125 159 203 253 305 364
#     4  11  22  40  63  92 116 155 209 260 302 362
#     4  10  24  43  63  86 125 169 205 251 315 381
#     4  11  25  41  58  86 124 164 201 248 315 374
#     4   9  19  37  63  97 122 159 205 258 302 358
#
# _framework density 20.972268
#
# number of rings (size 3 to 8) (size 9 to 14) (size 15 to 20)
#    0.000    2.000    1.667    1.000    2.333    5.333 
#    0.000    0.000    0.000   16.000    0.000    0.000 
#    0.000    0.000    0.000    0.000    0.000    0.000 
#
# Total GULP energy -267768.027794 kJ/mol
# GULP energy per Si atom -5578.500579 kJ/mol
# Density = 2.092453 g / cm^3
# Si number density = 20.972268 Si / 1000 Ang^3
#
#
#
# Elastic Constant Matrix: (Units=GPa)
#
#
# Indices 1 2 3 4 5 6 
#
# 1 59.7448 -0.3140 7.0520 0.0000 0.0000 0.0000
# 2 -0.3140 85.0140 14.4580 0.0000 0.0000 0.0000
# 3 7.0520 14.4580 25.9144 0.0000 0.0000 0.0000
# 4 0.0000 0.0000 0.0000 4.4332 0.0000 0.0000
# 5 0.0000 0.0000 0.0000 0.0000 29.2506 0.0000
# 6 0.0000 0.0000 0.0000 0.0000 0.0000 1.8309
#
#
#
# Elastic Compliance Matrix: (Units=1/GPa)
#
#
# Indices 1 2 3 4 5 6 
#
# 1 0.017364 0.000959 -0.005260 0.000000 0.000000 0.000000
# 2 0.000959 0.013049 -0.007541 0.000000 0.000000 0.000000
# 3 -0.005260 -0.007541 0.044227 0.000000 0.000000 0.000000
# 4 0.000000 0.000000 0.000000 0.225571 0.000000 0.000000
# 5 0.000000 0.000000 0.000000 0.000000 0.034187 0.000000
# 6 0.000000 0.000000 0.000000 0.000000 0.000000 0.546179
#
#
# Mechanical properties :
#
#
# Convention : Reuss Voigt Hill
#
# Bulk Modulus (GPa) = 19.62508 23.67390 21.64949
# Shear Modulus (GPa) = 5.42743 17.06810 11.24776
#
# Velocity S-wave (km/s) = 1.61044 2.85589 2.31836
# Velocity P-wave (km/s) = 3.58273 4.71036 4.18470
#
# Compressibility (1/GPa) = 0.05095520
#
# Stress axis : x y z
#
# Youngs Moduli (GPa) = 57.59124 76.63556 22.61050
#
# Poissons Ratio (x) = -0.07347 0.11893
# Poissons Ratio (y) = -0.05521 0.17051
# Poissons Ratio (z) = 0.30293 0.57791
#
# Static dielectric constant tensor:
#      x y z
#    x 1.767740 0.000000 0.000000 
#    y 0.000000 1.755180 0.000000 
#    z 0.000000 0.000000 1.788050 
# 
# From -- ./inp_files/47998.got.cif
#   From: 2010.05.17/outbox.cif.g08.bks.cpg/sg63_24_cif.got.tgz:47998.got - 2010.06.03 15:47:04.
