data_PCOD9473613
_publ_section_title
;
Structure prediction by ZEFSAII (Michael W. Deem and Ramdas Pophale) SiO2 
 PCOD9473613
Probable space group: C M C M
;
_chemical_formula_sum "Si O2"
_cell_formula_units_Z 80
_cell_length_a 8.731198
_cell_length_b 20.104954
_cell_length_c 22.980879
_cell_angle_alpha 90.000000
_cell_angle_beta 90.000000
_cell_angle_gamma 90.000000
_cell_volume 4034.071179
_symmetry_space_group_name_H-M "C M C M"
_symmetry_group_IT_number 63
_symmetry_cell_setting 'orthorhombic'
loop_
_space_group_symop_operation_xyz
x,y,z
-x,-y,1/2+z
x,-y,-z
-x,y,1/2-z
-x,-y,-z
x,y,1/2-z
-x,y,z
x,-y,1/2+z
1/2+x,1/2+y,z
1/2-x,1/2-y,1/2+z
1/2+x,1/2-y,-z
1/2-x,1/2+y,1/2-z
1/2-x,1/2-y,-z
1/2+x,1/2+y,1/2-z
1/2-x,1/2+y,z
1/2+x,1/2-y,1/2+z
loop_
_atom_site_type_symbol
_atom_site_label
_atom_site_fract_x
_atom_site_fract_y
_atom_site_fract_z
Si Si1 0.319299 0.844509 0.556414
Si Si2 0.680467 0.609476 0.565268
Si Si3 0.182536 0.482210 0.877457
Si Si4 0.817753 0.728166 0.869953
Si Si5 0.315658 0.699952 0.250000
Si Si6 0.315192 0.051455 0.250000
O O1 0.500000 0.828817 0.556443
O O2 0.266548 0.866510 0.492717
O O3 0.293355 0.907916 0.598335
O O4 0.227172 0.781929 0.580956
O O5 0.500000 0.612575 0.555500
O O6 0.731256 0.535930 0.583755
O O7 0.731616 0.660252 0.615663
O O8 0.232437 0.483384 0.810056
O O9 0.000000 0.495848 0.880785
O O10 0.772881 0.760045 0.808131
O O11 0.000000 0.716802 0.870297
O O12 0.500000 0.692599 0.250000
O O13 0.243373 0.627008 0.250000
O O14 0.500000 0.053494 0.250000
#
# Coordination Sequence:
#
# PCOD9473613 Si02
#       6
#    16  16  16  16   8   8
#     4  11  22  40  66  92 122 160 205 251 301 363
#     4  12  26  41  59  88 126 164 205 253 305 357
#     4  10  22  40  64  92 123 160 200 246 303 362
#     4  11  23  41  64  91 124 161 202 249 304 361
#     4  10  22  39  64  93 121 155 199 251 300 357
#     4  10  20  39  66  93 121 157 199 247 300 365
#
# _framework density 19.831081999999999
#
# number of rings (size 3 to 8) (size 9 to 14) (size 15 to 20)
#    0.000    1.200    2.000    4.200    0.000    6.400 
#    0.000    4.000    0.000    0.000    0.000    0.000 
#    0.000    0.000    0.000    0.000    0.000    0.000 
#
# Total GULP energy -223774.415585 kJ/mol
# GULP energy per Si atom -5594.360390 kJ/mol
# Density = 1.978595 g / cm^3
# Si number density = 19.831082 Si / 1000 Ang^3
#
#
#
# Elastic Constant Matrix: (Units=GPa)
#
#
# Indices 1 2 3 4 5 6 
#
# 1 18.0799 8.1252 -0.7411 0.0000 0.0000 0.0000
# 2 8.1252 27.5044 -17.9411 0.0000 0.0000 0.0000
# 3 -0.7411 -17.9411 68.1464 0.0000 0.0000 0.0000
# 4 0.0000 0.0000 0.0000 5.9692 0.0000 0.0000
# 5 0.0000 0.0000 0.0000 0.0000 20.8150 0.0000
# 6 0.0000 0.0000 0.0000 0.0000 0.0000 37.9981
#
#
#
# Elastic Compliance Matrix: (Units=1/GPa)
#
#
# Indices 1 2 3 4 5 6 
#
# 1 0.065311 -0.022735 -0.005275 0.000000 0.000000 0.000000
# 2 -0.022735 0.051810 0.013393 0.000000 0.000000 0.000000
# 3 -0.005275 0.013393 0.018143 0.000000 0.000000 0.000000
# 4 0.000000 0.000000 0.000000 0.167526 0.000000 0.000000
# 5 0.000000 0.000000 0.000000 0.000000 0.048042 0.000000
# 6 0.000000 0.000000 0.000000 0.000000 0.000000 0.026317
#
#
# Mechanical properties :
#
#
# Convention : Reuss Voigt Hill
#
# Bulk Modulus (GPa) = 9.43129 10.29075 9.86102
# Shear Modulus (GPa) = 11.31917 21.24230 16.28074
#
# Velocity S-wave (km/s) = 2.39169 3.27641 2.86837
# Velocity P-wave (km/s) = 3.52038 4.41742 3.99416
#
# Compressibility (1/GPa) = 0.10603003
#
# Stress axis : x y z
#
# Youngs Moduli (GPa) = 15.31128 19.30112 55.11782
#
# Poissons Ratio (x) = 0.43881 0.29076
# Poissons Ratio (y) = 0.34810 -0.73820
# Poissons Ratio (z) = 0.08077 -0.25850
#
# Static dielectric constant tensor:
#      x y z
#    x 1.661150 0.000000 0.000000 
#    y 0.000000 1.664140 0.000000 
#    z 0.000000 0.000000 1.705250 
# 
# From -- ./inp_files/66702.got.cif
#   From: 2010.05.17/outbox.cif.g08.bks.cpg/sg63_34_cif.got.tgz:66702.got - 2010.06.03 15:47:04.
