data_PCOD9473850
_publ_section_title
;
Structure prediction by ZEFSAII (Michael W. Deem and Ramdas Pophale) SiO2 
 PCOD9473850
Probable space group: C M C M
;
_chemical_formula_sum "Si O2"
_cell_formula_units_Z 80
_cell_length_a 18.564668
_cell_length_b 15.543309
_cell_length_c 14.831681
_cell_angle_alpha 90.000000
_cell_angle_beta 90.000000
_cell_angle_gamma 90.000000
_cell_volume 4279.776048
_symmetry_space_group_name_H-M "C M C M"
_symmetry_group_IT_number 63
_symmetry_cell_setting 'orthorhombic'
loop_
_space_group_symop_operation_xyz
x,y,z
-x,-y,1/2+z
x,-y,-z
-x,y,1/2-z
-x,-y,-z
x,y,1/2-z
-x,y,z
x,-y,1/2+z
1/2+x,1/2+y,z
1/2-x,1/2-y,1/2+z
1/2+x,1/2-y,-z
1/2-x,1/2+y,1/2-z
1/2-x,1/2-y,-z
1/2+x,1/2+y,1/2-z
1/2-x,1/2+y,z
1/2+x,1/2-y,1/2+z
loop_
_atom_site_type_symbol
_atom_site_label
_atom_site_fract_x
_atom_site_fract_y
_atom_site_fract_z
Si Si1 0.238131 0.962415 0.143909
Si Si2 0.582253 0.232702 0.023191
Si Si3 0.579103 0.568046 0.581257
Si Si4 0.295601 0.145239 0.142004
Si Si5 0.823166 0.292706 0.143116
O O1 0.252333 0.965465 0.250000
O O2 0.152522 0.953122 0.132712
O O3 0.279444 0.877449 0.111693
O O4 0.269167 0.052114 0.107609
O O5 0.500000 0.204790 0.035233
O O6 0.586038 0.334195 0.046351
O O7 0.636235 0.181594 0.088511
O O8 0.608928 0.219103 0.921185
O O9 0.577733 0.500000 0.500000
O O10 0.500000 0.561504 0.627431
O O11 0.310707 0.142246 0.250000
O O12 0.230203 0.212195 0.129986
O O13 0.839730 0.298591 0.250000
#
# Coordination Sequence:
#
# PCOD9473850 Si02
#       5
#    16  16  16  16  16
#     4  10  21  36  58  85 112 152 196 239 292 346
#     4  11  23  38  59  87 119 158 196 240 302 350
#     4  10  21  35  55  87 120 149 187 238 298 360
#     4  10  21  38  60  88 118 152 198 244 290 351
#     4  10  21  38  58  84 116 153 201 245 289 350
#
# _framework density 18.692567
#
# number of rings (size 3 to 8) (size 9 to 14) (size 15 to 20)
#    0.000    1.800    2.000    1.800    2.800    1.200 
#    0.000    4.000    0.000   10.800    0.000    0.000 
#    0.000    0.000    0.000    0.000    0.000    0.000 
#
# Total GULP energy -223231.258872 kJ/mol
# GULP energy per Si atom -5580.781472 kJ/mol
# Density = 1.865002 g / cm^3
# Si number density = 18.692567 Si / 1000 Ang^3
#
#
#
# Elastic Constant Matrix: (Units=GPa)
#
#
# Indices 1 2 3 4 5 6 
#
# 1 89.3434 37.6811 18.2634 0.0000 0.0000 0.0000
# 2 37.6811 118.3277 14.5540 0.0000 0.0000 0.0000
# 3 18.2634 14.5540 35.8885 0.0000 0.0000 0.0000
# 4 0.0000 0.0000 0.0000 9.9649 0.0000 0.0000
# 5 0.0000 0.0000 0.0000 0.0000 3.3289 0.0000
# 6 0.0000 0.0000 0.0000 0.0000 0.0000 34.9821
#
#
#
# Elastic Compliance Matrix: (Units=1/GPa)
#
#
# Indices 1 2 3 4 5 6 
#
# 1 0.013909 -0.003745 -0.005559 0.000000 0.000000 0.000000
# 2 -0.003745 0.009903 -0.002110 0.000000 0.000000 0.000000
# 3 -0.005559 -0.002110 0.031549 0.000000 0.000000 0.000000
# 4 0.000000 0.000000 0.000000 0.100353 0.000000 0.000000
# 5 0.000000 0.000000 0.000000 0.000000 0.300401 0.000000
# 6 0.000000 0.000000 0.000000 0.000000 0.000000 0.028586
#
#
# Mechanical properties :
#
#
# Convention : Reuss Voigt Hill
#
# Bulk Modulus (GPa) = 30.73944 42.72852 36.73398
# Shear Modulus (GPa) = 9.64553 21.19259 15.41906
#
# Velocity S-wave (km/s) = 2.27405 3.37076 2.87518
# Velocity P-wave (km/s) = 4.83482 6.16908 5.54225
#
# Compressibility (1/GPa) = 0.03253150
#
# Stress axis : x y z
#
# Youngs Moduli (GPa) = 71.89673 100.97570 31.69689
#
# Poissons Ratio (x) = 0.37820 0.17621
# Poissons Ratio (y) = 0.26929 0.06688
# Poissons Ratio (z) = 0.39969 0.21307
#
# Static dielectric constant tensor:
#      x y z
#    x 1.620450 0.000000 0.000000 
#    y 0.000000 1.653340 0.000000 
#    z 0.000000 0.000000 1.660020 
# 
# From -- ./inp_files/33858.got.cif
#   From: 2010.05.17/outbox.cif.g08.bks.cpg/sg63_17_cif.got.tgz:33858.got - 2010.06.03 15:47:04.
