data_PCOD9473956
_publ_section_title
;
Structure prediction by ZEFSAII (Michael W. Deem and Ramdas Pophale) SiO2 
 PCOD9473956
Probable space group: C M C M
;
_chemical_formula_sum "Si O2"
_cell_formula_units_Z 68
_cell_length_a 22.925634
_cell_length_b 17.226670
_cell_length_c 7.473797
_cell_angle_alpha 90.000000
_cell_angle_beta 90.000000
_cell_angle_gamma 90.000000
_cell_volume 2951.644074
_symmetry_space_group_name_H-M "C M C M"
_symmetry_group_IT_number 63
_symmetry_cell_setting 'orthorhombic'
loop_
_space_group_symop_operation_xyz
x,y,z
-x,-y,1/2+z
x,-y,-z
-x,y,1/2-z
-x,-y,-z
x,y,1/2-z
-x,y,z
x,-y,1/2+z
1/2+x,1/2+y,z
1/2-x,1/2-y,1/2+z
1/2+x,1/2-y,-z
1/2-x,1/2+y,1/2-z
1/2-x,1/2-y,-z
1/2+x,1/2+y,1/2-z
1/2-x,1/2+y,z
1/2+x,1/2-y,1/2+z
loop_
_atom_site_type_symbol
_atom_site_label
_atom_site_fract_x
_atom_site_fract_y
_atom_site_fract_z
Si Si1 0.908488 0.627725 0.535317
Si Si2 0.500000 0.930604 0.750000
Si Si3 0.062951 0.191698 0.036101
Si Si4 0.217932 0.669525 0.948375
Si Si5 0.831676 0.087746 0.462556
O O1 0.913648 0.607736 0.750000
O O2 0.948923 0.577514 0.407534
O O3 0.930706 0.716566 0.512119
O O4 0.841020 0.634469 0.469882
O O5 0.062526 0.177914 0.250000
O O6 0.118987 0.146132 0.966820
O O7 0.000000 0.166162 0.964738
O O8 0.196545 0.687446 0.750000
O O9 0.250000 0.750000 0.000000
O O10 0.269185 0.607083 0.955165
O O11 0.825028 0.099458 0.250000
O O12 0.849336 0.000000 0.500000
#
# Coordination Sequence:
#
# PCOD9473956 Si02
#       5
#    16   4  16  16  16
#     4  10  21  36  55  89 124 155 197 253 305 360
#     4  12  22  32  60  90 124 156 192 248 312 380
#     4   9  17  34  55  76 116 161 199 246 299 348
#     4  11  22  37  61  88 121 158 202 258 308 360
#     4  11  23  39  57  82 119 162 208 255 302 363
#
# _framework density 23.038007
#
# number of rings (size 3 to 8) (size 9 to 14) (size 15 to 20)
#    0.000    1.647    3.529    1.765    3.294    0.471 
#    2.118    0.000    0.000    0.000    0.000    0.824 
#    0.000    0.000    0.000    0.000    0.000    0.000 
#
# Total GULP energy -189358.624109 kJ/mol
# GULP energy per Si atom -5569.371297 kJ/mol
# Density = 2.298557 g / cm^3
# Si number density = 23.038007 Si / 1000 Ang^3
#
#
#
# Elastic Constant Matrix: (Units=GPa)
#
#
# Indices 1 2 3 4 5 6 
#
# 1 209.6662 22.3842 32.2877 0.0000 0.0000 0.0000
# 2 22.3842 66.4647 17.7510 0.0000 0.0000 0.0000
# 3 32.2877 17.7510 111.5182 0.0000 0.0000 0.0000
# 4 0.0000 0.0000 0.0000 10.8578 0.0000 0.0000
# 5 0.0000 0.0000 0.0000 0.0000 42.8266 0.0000
# 6 0.0000 0.0000 0.0000 0.0000 0.0000 -16.2429
#
#
#
# Elastic Compliance Matrix: (Units=1/GPa)
#
#
# Indices 1 2 3 4 5 6 
#
# 1 0.005111 -0.001385 -0.001259 0.000000 0.000000 0.000000
# 2 -0.001385 0.016089 -0.002160 0.000000 0.000000 0.000000
# 3 -0.001259 -0.002160 0.009676 0.000000 0.000000 0.000000
# 4 0.000000 0.000000 0.000000 0.092099 0.000000 0.000000
# 5 0.000000 0.000000 0.000000 0.000000 0.023350 0.000000
# 6 0.000000 0.000000 0.000000 0.000000 0.000000 -0.061565
#
#
# Mechanical properties :
#
#
# Convention : Reuss Voigt Hill
#
# Bulk Modulus (GPa) = 47.02123 59.16610 53.09367
# Shear Modulus (GPa) = 49.28170 28.50339 38.89255
#
# Velocity S-wave (km/s) = 4.63011 3.52125 4.11322
# Velocity P-wave (km/s) = 7.00275 6.50154 6.75679
#
# Compressibility (1/GPa) = 0.02126699
#
# Stress axis : x y z
#
# Youngs Moduli (GPa) = 195.64500 62.15464 103.35279
#
# Poissons Ratio (x) = 0.08609 0.13016
# Poissons Ratio (y) = 0.27098 0.22324
# Poissons Ratio (z) = 0.24640 0.13425
#
# Static dielectric constant tensor:
#      x y z
#    x 1.952450 0.000000 0.000000 
#    y 0.000000 1.850300 0.000000 
#    z 0.000000 0.000000 1.880510 
# 
# From -- ./inp_files/7630.got.cif
#   From: 2010.05.17/outbox.cif.g08.bks.cpg/sg63_4_cif.got.tgz:7630.got - 2010.06.03 15:47:04.
