data_PCOD9473983
_publ_section_title
;
Structure prediction by ZEFSAII (Michael W. Deem and Ramdas Pophale) SiO2 
 PCOD9473983
Probable space group: C M C M
;
_chemical_formula_sum "Si O2"
_cell_formula_units_Z 104
_cell_length_a 27.097068
_cell_length_b 23.545827
_cell_length_c 9.105250
_cell_angle_alpha 90.000000
_cell_angle_beta 90.000000
_cell_angle_gamma 90.000000
_cell_volume 5809.357786
_symmetry_space_group_name_H-M "C M C M"
_symmetry_group_IT_number 63
_symmetry_cell_setting 'orthorhombic'
loop_
_space_group_symop_operation_xyz
x,y,z
-x,-y,1/2+z
x,-y,-z
-x,y,1/2-z
-x,-y,-z
x,y,1/2-z
-x,y,z
x,-y,1/2+z
1/2+x,1/2+y,z
1/2-x,1/2-y,1/2+z
1/2+x,1/2-y,-z
1/2-x,1/2+y,1/2-z
1/2-x,1/2-y,-z
1/2+x,1/2+y,1/2-z
1/2-x,1/2+y,z
1/2+x,1/2-y,1/2+z
loop_
_atom_site_type_symbol
_atom_site_label
_atom_site_fract_x
_atom_site_fract_y
_atom_site_fract_z
Si Si1 0.500000 0.639767 0.922277
Si Si2 0.500000 0.062521 0.571438
Si Si3 0.280997 0.673235 0.574432
Si Si4 0.177904 0.291959 0.574170
Si Si5 0.500000 0.247338 0.913499
Si Si6 0.810951 0.942332 0.919741
Si Si7 0.570628 0.557431 0.418909
Si Si8 0.915946 0.347143 0.079225
O O1 0.500000 0.630202 0.750000
O O2 0.500000 0.705378 0.963681
O O3 0.452953 0.609784 0.995981
O O4 0.500000 0.058790 0.750000
O O5 0.549164 0.099638 0.531154
O O6 0.500000 0.000000 0.500000
O O7 0.275579 0.670678 0.750000
O O8 0.228790 0.688344 0.500447
O O9 0.320676 0.723740 0.542632
O O10 0.295688 0.613148 0.508222
O O11 0.180086 0.298828 0.750000
O O12 0.132077 0.327876 0.511002
O O13 0.500000 0.274146 0.750000
O O14 0.452970 0.206426 0.924264
O O15 0.794293 0.940697 0.750000
O O16 0.870354 0.941766 0.920509
O O17 0.794301 0.000000 0.000000
O O18 0.555012 0.500000 0.500000
O O19 0.555054 0.557443 0.250000
O O20 0.902025 0.357135 0.250000
#
# Coordination Sequence:
#
# PCOD9473983 Si02
#       8
#     8   8  16  16   8  16  16  16
#     4  12  24  34  49  74 105 138 178 228 272 320
#     4   9  19  37  61  89 118 153 189 226 276 339
#     4  10  21  37  57  82 114 149 187 234 286 340
#     4  10  21  36  57  86 115 146 188 234 284 338
#     4   9  20  37  54  77 108 145 182 220 269 327
#     4  10  21  37  58  81 107 143 185 230 278 332
#     4  10  21  37  54  73 100 138 181 225 274 325
#     4   9  19  37  59  82 114 149 184 225 275 332
#
# _framework density 17.902151
#
# number of rings (size 3 to 8) (size 9 to 14) (size 15 to 20)
#    0.000    2.154    0.000    3.692    2.154    4.923 
#    0.000    2.308    0.000    1.846    0.000    0.000 
#    0.000    0.000    0.000    0.000    0.000    0.000 
#
# Total GULP energy -290021.346311 kJ/mol
# GULP energy per Si atom -5577.333583 kJ/mol
# Density = 1.786141 g / cm^3
# Si number density = 17.902151 Si / 1000 Ang^3
#
#
#
# Elastic Constant Matrix: (Units=GPa)
#
#
# Indices 1 2 3 4 5 6 
#
# 1 75.6788 44.7966 42.4209 0.0000 0.0000 0.0000
# 2 44.7966 138.6279 65.9429 0.0000 0.0000 0.0000
# 3 42.4209 65.9429 118.6524 0.0000 0.0000 0.0000
# 4 0.0000 0.0000 0.0000 35.7958 0.0000 0.0000
# 5 0.0000 0.0000 0.0000 0.0000 32.8718 0.0000
# 6 0.0000 0.0000 0.0000 0.0000 0.0000 12.9546
#
#
#
# Elastic Compliance Matrix: (Units=1/GPa)
#
#
# Indices 1 2 3 4 5 6 
#
# 1 0.017826 -0.003709 -0.004312 0.000000 0.000000 0.000000
# 2 -0.003709 0.010578 -0.004553 0.000000 0.000000 0.000000
# 3 -0.004312 -0.004553 0.012500 0.000000 0.000000 0.000000
# 4 0.000000 0.000000 0.000000 0.027936 0.000000 0.000000
# 5 0.000000 0.000000 0.000000 0.000000 0.030421 0.000000
# 6 0.000000 0.000000 0.000000 0.000000 0.000000 0.077193
#
#
# Mechanical properties :
#
#
# Convention : Reuss Voigt Hill
#
# Bulk Modulus (GPa) = 63.46648 71.03108 67.24878
# Shear Modulus (GPa) = 24.17166 28.31101 26.24133
#
# Velocity S-wave (km/s) = 3.67851 3.98103 3.83276
# Velocity P-wave (km/s) = 7.31920 7.80353 7.56524
#
# Compressibility (1/GPa) = 0.01575635
#
# Stress axis : x y z
#
# Youngs Moduli (GPa) = 56.09668 94.53752 80.00193
#
# Poissons Ratio (x) = 0.35068 0.34495
# Poissons Ratio (y) = 0.20809 0.36421
# Poissons Ratio (z) = 0.24188 0.43039
#
# Static dielectric constant tensor:
#      x y z
#    x 1.609320 0.000000 0.000000 
#    y 0.000000 1.610630 0.000000 
#    z 0.000000 0.000000 1.607860 
# 
# From -- ./inp_files/12630.got.cif
#   From: 2010.05.17/outbox.cif.g08.bks.cpg/sg63_7_cif.got.tgz:12630.got - 2010.06.03 15:47:04.
