data_PCOD9473214
_publ_section_title
;
Structure prediction by ZEFSAII (Michael W. Deem and Ramdas Pophale) SiO2 
 PCOD9473214
Probable space group: C M C M
;
_chemical_formula_sum "Si O2"
_cell_formula_units_Z 128
_cell_length_a 18.403355
_cell_length_b 21.237767
_cell_length_c 17.714714
_cell_angle_alpha 90.000000
_cell_angle_beta 90.000000
_cell_angle_gamma 90.000000
_cell_volume 6923.728040
_symmetry_space_group_name_H-M "C M C M"
_symmetry_group_IT_number 63
_symmetry_cell_setting 'orthorhombic'
loop_
_space_group_symop_operation_xyz
x,y,z
-x,-y,1/2+z
x,-y,-z
-x,y,1/2-z
-x,-y,-z
x,y,1/2-z
-x,y,z
x,-y,1/2+z
1/2+x,1/2+y,z
1/2-x,1/2-y,1/2+z
1/2+x,1/2-y,-z
1/2-x,1/2+y,1/2-z
1/2-x,1/2-y,-z
1/2+x,1/2+y,1/2-z
1/2-x,1/2+y,z
1/2+x,1/2-y,1/2+z
loop_
_atom_site_type_symbol
_atom_site_label
_atom_site_fract_x
_atom_site_fract_y
_atom_site_fract_z
Si Si1 0.653699 0.186714 0.006959
Si Si2 0.662474 0.969179 0.836658
Si Si3 0.827083 0.822637 0.485442
Si Si4 0.084822 0.656853 0.163702
Si Si5 0.201327 0.949554 0.936358
Si Si6 0.578349 0.492226 0.336123
Si Si7 0.414638 0.058565 0.559190
Si Si8 0.916806 0.841069 0.335812
O O1 0.638326 0.258574 0.980260
O O2 0.632538 0.185076 0.096025
O O3 0.739326 0.180763 0.989365
O O4 0.613511 0.125673 0.972218
O O5 0.685769 0.976329 0.750000
O O6 0.597613 0.918381 0.839813
O O7 0.726754 0.939176 0.886725
O O8 0.634539 0.034299 0.871700
O O9 0.837375 0.888337 0.528776
O O10 0.859983 0.825639 0.401296
O O11 0.104441 0.675212 0.250000
O O12 0.000000 0.670501 0.151307
O O13 0.143677 0.982903 0.883738
O O14 0.222588 0.000000 0.000000
O O15 0.583499 0.514406 0.250000
O O16 0.500000 0.511712 0.367717
O O17 0.580226 0.416792 0.334454
O O18 0.500000 0.063997 0.577624
O O19 0.407753 0.000000 0.500000
O O20 0.898686 0.820615 0.250000
O O21 0.000000 0.819275 0.352396
#
# Coordination Sequence:
#
# PCOD9473214 Si02
#       8
#    16  16  16  16  16  16  16  16
#     4  11  23  40  55  82 125 165 199 237 297 365
#     4  11  22  36  60  91 118 149 195 250 309 364
#     4  11  23  38  58  83 122 164 199 243 295 357
#     4  10  20  36  60  89 120 154 197 249 303 359
#     4  12  21  36  60  88 117 151 200 252 296 354
#     4   9  19  35  55  82 116 149 184 235 298 351
#     4  11  21  37  62  88 118 155 197 251 308 365
#     4   9  19  37  60  87 117 150 192 244 300 352
#
# _framework density 18.48715
#
# number of rings (size 3 to 8) (size 9 to 14) (size 15 to 20)
#    0.000    1.500    3.750    3.000    0.000    3.000 
#    0.000    1.250    0.000    2.250    0.000    0.000 
#    0.000    0.000    0.000    0.000    0.000    0.000 
#
# Total GULP energy -356777.590633 kJ/mol
# GULP energy per Si atom -5574.649854 kJ/mol
# Density = 1.844507 g / cm^3
# Si number density = 18.487150 Si / 1000 Ang^3
#
#
#
# Elastic Constant Matrix: (Units=GPa)
#
#
# Indices 1 2 3 4 5 6 
#
# 1 93.1846 22.0919 55.3226 0.0000 0.0000 0.0000
# 2 22.0919 118.6615 40.1617 0.0000 0.0000 0.0000
# 3 55.3226 40.1617 103.4609 0.0000 0.0000 0.0000
# 4 0.0000 0.0000 0.0000 2.3045 0.0000 0.0000
# 5 0.0000 0.0000 0.0000 0.0000 30.5922 0.0000
# 6 0.0000 0.0000 0.0000 0.0000 0.0000 -197.8451
#
#
#
# Elastic Compliance Matrix: (Units=1/GPa)
#
#
# Indices 1 2 3 4 5 6 
#
# 1 0.015724 -0.000094 -0.008371 0.000000 0.000000 0.000000
# 2 -0.000094 0.009703 -0.003716 0.000000 0.000000 0.000000
# 3 -0.008371 -0.003716 0.015584 0.000000 0.000000 0.000000
# 4 0.000000 0.000000 0.000000 0.433926 0.000000 0.000000
# 5 0.000000 0.000000 0.000000 0.000000 0.032688 0.000000
# 6 0.000000 0.000000 0.000000 0.000000 0.000000 -0.005054
#
#
# Mechanical properties :
#
#
# Convention : Reuss Voigt Hill
#
# Bulk Modulus (GPa) = 60.06824 61.16215 60.61520
# Shear Modulus (GPa) = 9.38999 -19.80760 -5.20880
#
# Velocity S-wave (km/s) = 2.25615 -3.27681 -1.68037
# Velocity P-wave (km/s) = 6.27291 4.34036 5.39389
#
# Compressibility (1/GPa) = 0.01664773
#
# Stress axis : x y z
#
# Youngs Moduli (GPa) = 63.59883 103.06550 64.16742
#
# Poissons Ratio (x) = 0.00969 0.53716
# Poissons Ratio (y) = 0.00598 0.23845
# Poissons Ratio (z) = 0.53240 0.38300
#
# Static dielectric constant tensor:
#      x y z
#    x 1.631550 0.000000 0.000000 
#    y 0.000000 1.728870 0.000000 
#    z 0.000000 0.000000 1.621650 
# 
# From -- ./inp_files/46325.got.cif
#   From: 2010.05.17/outbox.cif.g08.bks.cpg/sg63_24_cif.got.tgz:46325.got - 2010.06.03 15:47:04.
