data_PCOD9473453
_publ_section_title
;
Structure prediction by ZEFSAII (Michael W. Deem and Ramdas Pophale) SiO2 
 PCOD9473453
Probable space group: C M C M
;
_chemical_formula_sum "Si O2"
_cell_formula_units_Z 96
_cell_length_a 23.759721
_cell_length_b 9.251351
_cell_length_c 24.465098
_cell_angle_alpha 90.000000
_cell_angle_beta 90.000000
_cell_angle_gamma 90.000000
_cell_volume 5377.661415
_symmetry_space_group_name_H-M "C M C M"
_symmetry_group_IT_number 63
_symmetry_cell_setting 'orthorhombic'
loop_
_space_group_symop_operation_xyz
x,y,z
-x,-y,1/2+z
x,-y,-z
-x,y,1/2-z
-x,-y,-z
x,y,1/2-z
-x,y,z
x,-y,1/2+z
1/2+x,1/2+y,z
1/2-x,1/2-y,1/2+z
1/2+x,1/2-y,-z
1/2-x,1/2+y,1/2-z
1/2-x,1/2-y,-z
1/2+x,1/2+y,1/2-z
1/2-x,1/2+y,z
1/2+x,1/2-y,1/2+z
loop_
_atom_site_type_symbol
_atom_site_label
_atom_site_fract_x
_atom_site_fract_y
_atom_site_fract_z
Si Si1 0.310479 0.724244 0.250000
Si Si2 0.500000 0.220078 0.187131
Si Si3 0.811369 0.425675 0.750000
Si Si4 0.807380 0.886430 0.956100
Si Si5 0.123312 0.720721 0.149453
Si Si6 0.875971 0.930474 0.652462
Si Si7 0.000000 0.069163 0.187040
Si Si8 0.179237 0.376534 0.963227
O O1 0.249211 0.651208 0.250000
O O2 0.343732 0.659702 0.301548
O O3 0.307574 0.899217 0.250000
O O4 0.500000 0.166334 0.250000
O O5 0.557696 0.181128 0.157033
O O6 0.500000 0.394668 0.190168
O O7 0.843350 0.366765 0.696149
O O8 0.846409 0.889514 0.903865
O O9 0.742001 0.923050 0.942667
O O10 0.809407 0.740776 0.990119
O O11 0.829035 0.000000 0.000000
O O12 0.146050 0.680942 0.089274
O O13 0.129805 0.894461 0.159512
O O14 0.941966 0.892189 0.657275
O O15 0.000000 0.122746 0.250000
O O16 0.150894 0.500000 0.000000
#
# Coordination Sequence:
#
# PCOD9473453 Si02
#       8
#     8   8   8  16  16  16   8  16
#     4  12  26  39  60  93 123 158 192 260 309 366
#     4   9  18  36  62  86 116 165 208 248 300 364
#     4  12  26  39  60  91 125 154 202 248 315 364
#     4  10  20  38  58  87 116 159 204 247 308 364
#     4  11  21  40  63  89 119 163 208 250 300 368
#     4  11  21  39  65  87 122 158 209 253 301 361
#     4   9  18  36  60  89 118 162 204 249 309 356
#     4  10  22  36  60  84 123 161 199 251 312 371
#
# _framework density 17.851626
#
# number of rings (size 3 to 8) (size 9 to 14) (size 15 to 20)
#    0.000    1.500    3.333    2.500    2.333    0.000 
#    0.000    3.333    0.000    0.000    0.000    0.000 
#    0.000    0.000    0.000    0.000    0.000    0.000 
#
# Total GULP energy -267632.845678 kJ/mol
# GULP energy per Si atom -5575.684285 kJ/mol
# Density = 1.781099 g / cm^3
# Si number density = 17.851626 Si / 1000 Ang^3
#
#
#
# Elastic Constant Matrix: (Units=GPa)
#
#
# Indices 1 2 3 4 5 6 
#
# 1 161.1042 38.1670 88.1008 0.0000 0.0000 0.0000
# 2 38.1670 94.5357 44.8435 0.0000 0.0000 0.0000
# 3 88.1008 44.8435 133.3945 0.0000 0.0000 0.0000
# 4 0.0000 0.0000 0.0000 30.6984 0.0000 0.0000
# 5 0.0000 0.0000 0.0000 0.0000 40.8586 0.0000
# 6 0.0000 0.0000 0.0000 0.0000 0.0000 18.2292
#
#
#
# Elastic Compliance Matrix: (Units=1/GPa)
#
#
# Indices 1 2 3 4 5 6 
#
# 1 0.009804 -0.001055 -0.006121 0.000000 0.000000 0.000000
# 2 -0.001055 0.012698 -0.003572 0.000000 0.000000 0.000000
# 3 -0.006121 -0.003572 0.012740 0.000000 0.000000 0.000000
# 4 0.000000 0.000000 0.000000 0.032575 0.000000 0.000000
# 5 0.000000 0.000000 0.000000 0.000000 0.024475 0.000000
# 6 0.000000 0.000000 0.000000 0.000000 0.000000 0.054857
#
#
# Mechanical properties :
#
#
# Convention : Reuss Voigt Hill
#
# Bulk Modulus (GPa) = 72.74264 81.25078 76.99671
# Shear Modulus (GPa) = 28.86396 32.48545 30.67470
#
# Velocity S-wave (km/s) = 4.02541 4.27048 4.14975
# Velocity P-wave (km/s) = 7.90203 8.36237 8.13546
#
# Compressibility (1/GPa) = 0.01374709
#
# Stress axis : x y z
#
# Youngs Moduli (GPa) = 101.99784 78.75027 78.49462
#
# Poissons Ratio (x) = 0.08308 0.48043
# Poissons Ratio (y) = 0.10760 0.28039
# Poissons Ratio (z) = 0.62428 0.28130
#
# Static dielectric constant tensor:
#      x y z
#    x 1.614180 0.000000 0.000000 
#    y 0.000000 1.534670 0.000000 
#    z 0.000000 0.000000 1.570390 
# 
# From -- ./inp_files/65043.got.cif
#   From: 2010.05.17/outbox.cif.g08.bks.cpg/sg63_33_cif.got.tgz:65043.got - 2010.06.03 15:47:04.
