data_PCOD9473131
_publ_section_title
;
Structure prediction by ZEFSAII (Michael W. Deem and Ramdas Pophale) SiO2 
 PCOD9473131
Probable space group: C M C M
;
_chemical_formula_sum "Si O2"
_cell_formula_units_Z 96
_cell_length_a 17.012971
_cell_length_b 15.300010
_cell_length_c 19.606760
_cell_angle_alpha 90.000000
_cell_angle_beta 90.000000
_cell_angle_gamma 90.000000
_cell_volume 5103.612697
_symmetry_space_group_name_H-M "C M C M"
_symmetry_group_IT_number 63
_symmetry_cell_setting 'orthorhombic'
loop_
_space_group_symop_operation_xyz
x,y,z
-x,-y,1/2+z
x,-y,-z
-x,y,1/2-z
-x,-y,-z
x,y,1/2-z
-x,y,z
x,-y,1/2+z
1/2+x,1/2+y,z
1/2-x,1/2-y,1/2+z
1/2+x,1/2-y,-z
1/2-x,1/2+y,1/2-z
1/2-x,1/2-y,-z
1/2+x,1/2+y,1/2-z
1/2-x,1/2+y,z
1/2+x,1/2-y,1/2+z
loop_
_atom_site_type_symbol
_atom_site_label
_atom_site_fract_x
_atom_site_fract_y
_atom_site_fract_z
Si Si1 0.907817 0.467618 0.924154
Si Si2 0.668451 0.725142 0.085178
Si Si3 0.324318 0.103999 0.670895
Si Si4 0.857182 0.269397 0.567407
Si Si5 0.365041 0.619165 0.671474
Si Si6 0.091079 0.923385 0.671238
O O1 0.857830 0.520936 0.869082
O O2 0.893832 0.364175 0.920473
O O3 0.000000 0.487280 0.914915
O O4 0.884518 0.500000 0.000000
O O5 0.648098 0.808435 0.132231
O O6 0.762843 0.722327 0.077466
O O7 0.639856 0.637653 0.121464
O O8 0.631715 0.739138 0.010568
O O9 0.347885 0.104045 0.750000
O O10 0.229403 0.105725 0.668098
O O11 0.886522 0.196337 0.620087
O O12 0.385503 0.640607 0.750000
O O13 0.401728 0.525624 0.653909
O O14 0.118686 0.913968 0.750000
O O15 0.000000 0.897446 0.668361
#
# Coordination Sequence:
#
# PCOD9473131 Si02
#       6
#    16  16  16  16  16  16
#     4  11  23  38  55  81 120 156 187 233 291 345
#     4  10  20  36  58  87 112 144 195 240 284 344
#     4  10  20  37  61  84 110 148 195 239 280 335
#     4  10  21  37  59  83 111 152 191 239 291 336
#     4   9  20  38  59  85 113 146 192 240 283 335
#     4  10  21  37  57  83 118 154 185 230 290 344
#
# _framework density 18.810203999999999
#
# number of rings (size 3 to 8) (size 9 to 14) (size 15 to 20)
#    0.000    2.000    1.667    1.500    0.000    4.333 
#    0.000    0.833    0.000    0.000    0.000    0.000 
#    0.000    0.000    0.000    0.000    0.000    0.000 
#
# Total GULP energy -268116.529367 kJ/mol
# GULP energy per Si atom -5585.761028 kJ/mol
# Density = 1.876739 g / cm^3
# Si number density = 18.810204 Si / 1000 Ang^3
#
#
#
# Elastic Constant Matrix: (Units=GPa)
#
#
# Indices 1 2 3 4 5 6 
#
# 1 12.2880 15.9766 27.8527 0.0000 0.0000 0.0000
# 2 15.9766 112.5766 79.1804 0.0000 0.0000 0.0000
# 3 27.8527 79.1804 133.1402 0.0000 0.0000 0.0000
# 4 0.0000 0.0000 0.0000 44.1520 0.0000 0.0000
# 5 0.0000 0.0000 0.0000 0.0000 0.8320 0.0000
# 6 0.0000 0.0000 0.0000 0.0000 0.0000 -41.1425
#
#
#
# Elastic Compliance Matrix: (Units=1/GPa)
#
#
# Indices 1 2 3 4 5 6 
#
# 1 0.154895 0.001390 -0.033231 0.000000 0.000000 0.000000
# 2 0.001390 0.015283 -0.009380 0.000000 0.000000 0.000000
# 3 -0.033231 -0.009380 0.020041 0.000000 0.000000 0.000000
# 4 0.000000 0.000000 0.000000 0.022649 0.000000 0.000000
# 5 0.000000 0.000000 0.000000 0.000000 1.201907 0.000000
# 6 0.000000 0.000000 0.000000 0.000000 0.000000 -0.024306
#
#
# Mechanical properties :
#
#
# Convention : Reuss Voigt Hill
#
# Bulk Modulus (GPa) = 9.27825 56.00268 32.64047
# Shear Modulus (GPa) = 3.31381 9.76796 6.54089
#
# Velocity S-wave (km/s) = 1.32873 2.28127 1.86678
# Velocity P-wave (km/s) = 2.70135 6.06433 4.69432
#
# Compressibility (1/GPa) = 0.10777893
#
# Stress axis : x y z
#
# Youngs Moduli (GPa) = 6.45597 65.43340 49.89794
#
# Poissons Ratio (x) = -0.09097 1.65814
# Poissons Ratio (y) = -0.00898 0.46803
# Poissons Ratio (z) = 0.21454 0.61375
#
# Static dielectric constant tensor:
#      x y z
#    x 1.644080 0.000000 0.000000 
#    y 0.000000 1.615750 0.000000 
#    z 0.000000 0.000000 1.636540 
# 
# From -- ./inp_files/35335.got.cif
#   From: 2010.05.17/outbox.cif.g08.bks.cpg/sg63_18_cif.got.tgz:35335.got - 2010.06.03 15:47:04.
