data_PCOD9473853
_publ_section_title
;
Structure prediction by ZEFSAII (Michael W. Deem and Ramdas Pophale) SiO2 
 PCOD9473853
Probable space group: C M C M
;
_chemical_formula_sum "Si O2"
_cell_formula_units_Z 116
_cell_length_a 28.816888
_cell_length_b 23.363974
_cell_length_c 8.022083
_cell_angle_alpha 90.000000
_cell_angle_beta 90.000000
_cell_angle_gamma 90.000000
_cell_volume 5401.084152
_symmetry_space_group_name_H-M "C M C M"
_symmetry_group_IT_number 63
_symmetry_cell_setting 'orthorhombic'
loop_
_space_group_symop_operation_xyz
x,y,z
-x,-y,1/2+z
x,-y,-z
-x,y,1/2-z
-x,-y,-z
x,y,1/2-z
-x,y,z
x,-y,1/2+z
1/2+x,1/2+y,z
1/2-x,1/2-y,1/2+z
1/2+x,1/2-y,-z
1/2-x,1/2+y,1/2-z
1/2-x,1/2-y,-z
1/2+x,1/2+y,1/2-z
1/2-x,1/2+y,z
1/2+x,1/2-y,1/2+z
loop_
_atom_site_type_symbol
_atom_site_label
_atom_site_fract_x
_atom_site_fract_y
_atom_site_fract_z
Si Si1 0.219302 0.438114 0.548910
Si Si2 0.448981 0.836650 0.057118
Si Si3 0.319672 0.596689 0.447107
Si Si4 0.919597 0.087041 0.947348
Si Si5 0.054243 0.790431 0.440030
Si Si6 0.198933 0.773035 0.450486
Si Si7 0.849158 0.659379 0.052134
Si Si8 0.000000 0.000000 0.000000
O O1 0.200893 0.500000 0.500000
O O2 0.220660 0.434072 0.750000
O O3 0.271994 0.430820 0.487874
O O4 0.187225 0.386746 0.484205
O O5 0.449565 0.852542 0.250000
O O6 0.500000 0.850652 0.983357
O O7 0.443644 0.767983 0.039991
O O8 0.401850 0.859378 0.978578
O O9 0.323947 0.586801 0.250000
O O10 0.365961 0.571817 0.530255
O O11 0.312812 0.664888 0.476776
O O12 0.932037 0.086236 0.750000
O O13 0.921913 0.152892 0.007011
O O14 0.958526 0.048005 0.030648
O O15 0.071346 0.778873 0.250000
O O16 0.000000 0.805659 0.428826
O O17 0.196831 0.778409 0.250000
O O18 0.250000 0.750000 0.500000
O O19 0.163456 0.723241 0.508669
O O20 0.842133 0.662025 0.250000
#
# Coordination Sequence:
#
# PCOD9473853 Si02
#       8
#    16  16  16  16  16  16  16   4
#     4  10  23  43  62  86 119 156 201 248 295 357
#     4  10  21  35  55  90 127 153 187 237 291 352
#     4  11  24  42  62  90 125 160 203 260 318 377
#     4  11  24  42  61  83 111 152 208 262 319 378
#     4   9  17  34  57  78 107 150 194 238 291 358
#     4  11  21  37  62  94 130 165 204 254 314 377
#     4  10  21  39  61  87 122 161 200 243 293 359
#     4  12  26  44  64  86 114 156 220 290 330 376
#
# _framework density 21.477170000000001
#
# number of rings (size 3 to 8) (size 9 to 14) (size 15 to 20)
#    0.000    1.655    2.069    2.276    0.966    8.552 
#    0.000    0.000    0.000    0.414    0.000    0.000 
#    0.000    0.000    0.000    0.000    0.000    0.000 
#
# Total GULP energy -323456.794065 kJ/mol
# GULP energy per Si atom -5576.841277 kJ/mol
# Density = 2.142829 g / cm^3
# Si number density = 21.477170 Si / 1000 Ang^3
#
#
#
# Elastic Constant Matrix: (Units=GPa)
#
#
# Indices 1 2 3 4 5 6 
#
# 1 135.5591 14.5831 -8.6375 0.0000 0.0000 0.0000
# 2 14.5831 58.1276 -8.0971 0.0000 0.0000 0.0000
# 3 -8.6375 -8.0971 17.4223 0.0000 0.0000 0.0000
# 4 0.0000 0.0000 0.0000 -3.6602 0.0000 0.0000
# 5 0.0000 0.0000 0.0000 0.0000 17.6874 0.0000
# 6 0.0000 0.0000 0.0000 0.0000 0.0000 3.9289
#
#
#
# Elastic Compliance Matrix: (Units=1/GPa)
#
#
# Indices 1 2 3 4 5 6 
#
# 1 0.007739 -0.001504 0.003137 0.000000 0.000000 0.000000
# 2 -0.001504 0.018687 0.007939 0.000000 0.000000 0.000000
# 3 0.003137 0.007939 0.062643 0.000000 0.000000 0.000000
# 4 0.000000 0.000000 0.000000 -0.273206 0.000000 0.000000
# 5 0.000000 0.000000 0.000000 0.000000 0.056537 0.000000
# 6 0.000000 0.000000 0.000000 0.000000 0.000000 0.254521
#
#
# Mechanical properties :
#
#
# Convention : Reuss Voigt Hill
#
# Bulk Modulus (GPa) = 9.24111 22.97845 16.10978
# Shear Modulus (GPa) = 34.75890 17.80859 26.28374
#
# Velocity S-wave (km/s) = 4.02731 2.88268 3.50208
# Velocity P-wave (km/s) = 5.09291 4.66927 4.88568
#
# Compressibility (1/GPa) = 0.10821208
#
# Stress axis : x y z
#
# Youngs Moduli (GPa) = 129.22231 53.51353 15.96353
#
# Poissons Ratio (x) = 0.08051 -0.05008
# Poissons Ratio (y) = 0.19441 -0.12673
# Poissons Ratio (z) = -0.40542 -0.42484
#
# Static dielectric constant tensor:
#      x y z
#    x 1.810520 0.000000 0.000000 
#    y 0.000000 1.765510 0.000000 
#    z 0.000000 0.000000 1.785350 
# 
# From -- ./inp_files/12937.got.cif
#   From: 2010.05.17/outbox.cif.g08.bks.cpg/sg63_7_cif.got.tgz:12937.got - 2010.06.03 15:47:04.
