data_PCOD9473273
_publ_section_title
;
Structure prediction by ZEFSAII (Michael W. Deem and Ramdas Pophale) SiO2 
 PCOD9473273
Probable space group: C M C M
;
_chemical_formula_sum "Si O2"
_cell_formula_units_Z 96
_cell_length_a 12.971106
_cell_length_b 14.752372
_cell_length_c 23.793469
_cell_angle_alpha 90.000000
_cell_angle_beta 90.000000
_cell_angle_gamma 90.000000
_cell_volume 4552.989290
_symmetry_space_group_name_H-M "C M C M"
_symmetry_group_IT_number 63
_symmetry_cell_setting 'orthorhombic'
loop_
_space_group_symop_operation_xyz
x,y,z
-x,-y,1/2+z
x,-y,-z
-x,y,1/2-z
-x,-y,-z
x,y,1/2-z
-x,y,z
x,-y,1/2+z
1/2+x,1/2+y,z
1/2-x,1/2-y,1/2+z
1/2+x,1/2-y,-z
1/2-x,1/2+y,1/2-z
1/2-x,1/2-y,-z
1/2+x,1/2+y,1/2-z
1/2-x,1/2+y,z
1/2+x,1/2-y,1/2+z
loop_
_atom_site_type_symbol
_atom_site_label
_atom_site_fract_x
_atom_site_fract_y
_atom_site_fract_z
Si Si1 0.382502 0.084921 0.250000
Si Si2 0.252949 0.320769 0.134049
Si Si3 0.620686 0.697656 0.750000
Si Si4 0.204651 0.520461 0.134293
Si Si5 0.122438 0.792432 0.021017
Si Si6 0.121329 0.856010 0.603197
Si Si7 0.120348 0.408681 0.524603
O O1 0.500000 0.052566 0.250000
O O2 0.382602 0.193267 0.250000
O O3 0.325952 0.048858 0.304224
O O4 0.316817 0.327003 0.192713
O O5 0.189068 0.413642 0.127324
O O6 0.327226 0.318691 0.079828
O O7 0.181807 0.230593 0.129817
O O8 0.500000 0.665954 0.750000
O O9 0.321284 0.553222 0.122935
O O10 0.136462 0.578989 0.090854
O O11 0.158145 0.689489 0.006045
O O12 0.000000 0.786864 0.031451
O O13 0.133950 0.850627 0.964515
O O14 0.000000 0.852514 0.616039
O O15 0.170235 0.500000 0.500000
O O16 0.000000 0.409965 0.509452
#
# Coordination Sequence:
#
# PCOD9473273 Si02
#       7
#     8  16   8  16  16  16  16
#     4  11  23  46  72  95 124 162 218 280 330 392
#     4  12  24  42  67  95 133 173 221 270 333 393
#     4  11  23  44  72  95 120 162 220 280 326 386
#     4  12  25  40  67  96 132 172 221 266 333 390
#     4  10  21  40  65  93 130 175 219 270 324 387
#     4  11  25  43  63  96 141 179 218 267 331 397
#     4  10  20  36  63  98 129 163 215 274 331 382
#
# _framework density 21.085048
#
# number of rings (size 3 to 8) (size 9 to 14) (size 15 to 20)
#    0.000    1.000    3.333    3.000    2.333    6.667 
#    0.000    3.333    0.000    0.000    0.000    0.000 
#    0.000    0.000    0.000    0.000    0.000    0.000 
#
# Total GULP energy -268247.567538 kJ/mol
# GULP energy per Si atom -5588.490990 kJ/mol
# Density = 2.103706 g / cm^3
# Si number density = 21.085048 Si / 1000 Ang^3
#
#
#
# Elastic Constant Matrix: (Units=GPa)
#
#
# Indices 1 2 3 4 5 6 
#
# 1 57.5311 -5.9685 -0.8425 0.0000 0.0000 0.0000
# 2 -5.9685 60.5111 13.1584 0.0000 0.0000 0.0000
# 3 -0.8425 13.1584 121.6950 0.0000 0.0000 0.0000
# 4 0.0000 0.0000 0.0000 53.4637 0.0000 0.0000
# 5 0.0000 0.0000 0.0000 0.0000 22.4666 0.0000
# 6 0.0000 0.0000 0.0000 0.0000 0.0000 15.6615
#
#
#
# Elastic Compliance Matrix: (Units=1/GPa)
#
#
# Indices 1 2 3 4 5 6 
#
# 1 0.017562 0.001747 -0.000067 0.000000 0.000000 0.000000
# 2 0.001747 0.017098 -0.001837 0.000000 0.000000 0.000000
# 3 -0.000067 -0.001837 0.008415 0.000000 0.000000 0.000000
# 4 0.000000 0.000000 0.000000 0.018704 0.000000 0.000000
# 5 0.000000 0.000000 0.000000 0.000000 0.044510 0.000000
# 6 0.000000 0.000000 0.000000 0.000000 0.000000 0.063851
#
#
# Mechanical properties :
#
#
# Convention : Reuss Voigt Hill
#
# Bulk Modulus (GPa) = 23.38577 28.04801 25.71689
# Shear Modulus (GPa) = 27.06966 33.87768 30.47367
#
# Velocity S-wave (km/s) = 3.58695 4.01273 3.80580
# Velocity P-wave (km/s) = 5.31697 5.89920 5.61564
#
# Compressibility (1/GPa) = 0.04276104
#
# Stress axis : x y z
#
# Youngs Moduli (GPa) = 56.94064 58.48780 118.83007
#
# Poissons Ratio (x) = -0.10217 0.00800
# Poissons Ratio (y) = -0.09947 0.21824
# Poissons Ratio (z) = 0.00383 0.10742
#
# Static dielectric constant tensor:
#      x y z
#    x 1.794030 0.000000 0.000000 
#    y 0.000000 1.768200 0.000000 
#    z 0.000000 0.000000 1.734280 
# 
# From -- ./inp_files/62902.got.cif
#   From: 2010.05.17/outbox.cif.g08.bks.cpg/sg63_32_cif.got.tgz:62902.got - 2010.06.03 15:47:04.
