data_PCOD9473684
_publ_section_title
;
Structure prediction by ZEFSAII (Michael W. Deem and Ramdas Pophale) SiO2 
 PCOD9473684
Probable space group: C M C M
;
_chemical_formula_sum "Si O2"
_cell_formula_units_Z 72
_cell_length_a 14.279710
_cell_length_b 9.293495
_cell_length_c 25.114815
_cell_angle_alpha 90.000000
_cell_angle_beta 90.000000
_cell_angle_gamma 90.000000
_cell_volume 3332.947254
_symmetry_space_group_name_H-M "C M C M"
_symmetry_group_IT_number 63
_symmetry_cell_setting 'orthorhombic'
loop_
_space_group_symop_operation_xyz
x,y,z
-x,-y,1/2+z
x,-y,-z
-x,y,1/2-z
-x,-y,-z
x,y,1/2-z
-x,y,z
x,-y,1/2+z
1/2+x,1/2+y,z
1/2-x,1/2-y,1/2+z
1/2+x,1/2-y,-z
1/2-x,1/2+y,1/2-z
1/2-x,1/2-y,-z
1/2+x,1/2+y,1/2-z
1/2-x,1/2+y,z
1/2+x,1/2-y,1/2+z
loop_
_atom_site_type_symbol
_atom_site_label
_atom_site_fract_x
_atom_site_fract_y
_atom_site_fract_z
Si Si1 0.302806 0.367519 0.310480
Si Si2 0.000000 0.936793 0.562605
Si Si3 0.682093 0.647984 0.123385
Si Si4 0.317130 0.857808 0.968648
Si Si5 0.500000 0.753100 0.917903
Si Si6 0.000000 0.307427 0.807734
O O1 0.267048 0.374591 0.250000
O O2 0.327104 0.525303 0.332162
O O3 0.225902 0.288834 0.348072
O O4 0.401276 0.279775 0.308982
O O5 0.090795 0.849808 0.584580
O O6 0.000000 0.000000 0.500000
O O7 0.000000 0.085145 0.596658
O O8 0.763249 0.595769 0.084043
O O9 0.409106 0.775440 0.952434
O O10 0.250000 0.750000 0.000000
O O11 0.340977 0.000000 0.000000
O O12 0.500000 0.864202 0.868339
O O13 0.000000 0.385430 0.750000
#
# Coordination Sequence:
#
# PCOD9473684 Si02
#       6
#    16   8  16  16   8   8
#     4  11  23  41  68  96 125 167 218 274 333 394
#     4  12  24  39  64  93 131 177 216 266 324 392
#     4  12  22  42  64  93 131 168 217 269 324 386
#     4  12  25  41  65  97 131 175 218 270 324 388
#     4  12  21  44  62  93 129 166 217 259 316 396
#     4  10  20  41  68  92 123 169 214 259 322 401
#
# _framework density 21.602504
#
# number of rings (size 3 to 8) (size 9 to 14) (size 15 to 20)
#    0.000    0.444    4.444    5.667    0.000    0.000 
#    0.000    6.111    0.000    0.000    0.000    0.000 
#    0.000    0.000    0.000    0.000    0.000    0.000 
#
# Total GULP energy -200779.795665 kJ/mol
# GULP energy per Si atom -5577.216546 kJ/mol
# Density = 2.155334 g / cm^3
# Si number density = 21.602504 Si / 1000 Ang^3
#
#
#
# Elastic Constant Matrix: (Units=GPa)
#
#
# Indices 1 2 3 4 5 6 
#
# 1 138.1661 11.6536 31.8921 0.0000 0.0000 0.0000
# 2 11.6536 39.8897 6.9057 0.0000 0.0000 0.0000
# 3 31.8921 6.9057 129.0136 0.0000 0.0000 0.0000
# 4 0.0000 0.0000 0.0000 33.8705 0.0000 0.0000
# 5 0.0000 0.0000 0.0000 0.0000 36.3683 0.0000
# 6 0.0000 0.0000 0.0000 0.0000 0.0000 12.3300
#
#
#
# Elastic Compliance Matrix: (Units=1/GPa)
#
#
# Indices 1 2 3 4 5 6 
#
# 1 0.007826 -0.001970 -0.001829 0.000000 0.000000 0.000000
# 2 -0.001970 0.025799 -0.000894 0.000000 0.000000 0.000000
# 3 -0.001829 -0.000894 0.008251 0.000000 0.000000 0.000000
# 4 0.000000 0.000000 0.000000 0.029524 0.000000 0.000000
# 5 0.000000 0.000000 0.000000 0.000000 0.027496 0.000000
# 6 0.000000 0.000000 0.000000 0.000000 0.000000 0.081103
#
#
# Mechanical properties :
#
#
# Convention : Reuss Voigt Hill
#
# Bulk Modulus (GPa) = 30.77801 45.33023 38.05412
# Shear Modulus (GPa) = 24.97302 33.62163 29.29733
#
# Velocity S-wave (km/s) = 3.40372 3.94937 3.68666
# Velocity P-wave (km/s) = 5.45211 6.46731 5.98129
#
# Compressibility (1/GPa) = 0.03249073
#
# Stress axis : x y z
#
# Youngs Moduli (GPa) = 127.77905 38.76069 121.19538
#
# Poissons Ratio (x) = 0.07635 0.22168
# Poissons Ratio (y) = 0.25168 0.10836
# Poissons Ratio (z) = 0.23373 0.03465
#
# Static dielectric constant tensor:
#      x y z
#    x 1.778910 0.000000 0.000000 
#    y 0.000000 1.777040 0.000000 
#    z 0.000000 0.000000 1.850580 
# 
# From -- ./inp_files/69105.got.cif
#   From: 2010.05.17/outbox.cif.g08.bks.cpg/sg63_35_cif.got.tgz:69105.got - 2010.06.03 15:47:04.
