data_PCOD9473875
_publ_section_title
;
Structure prediction by ZEFSAII (Michael W. Deem and Ramdas Pophale) SiO2 
 PCOD9473875
Probable space group: C M C M
;
_chemical_formula_sum "Si O2"
_cell_formula_units_Z 68
_cell_length_a 8.666440
_cell_length_b 17.862192
_cell_length_c 19.220101
_cell_angle_alpha 90.000000
_cell_angle_beta 90.000000
_cell_angle_gamma 90.000000
_cell_volume 2975.302680
_symmetry_space_group_name_H-M "C M C M"
_symmetry_group_IT_number 63
_symmetry_cell_setting 'orthorhombic'
loop_
_space_group_symop_operation_xyz
x,y,z
-x,-y,1/2+z
x,-y,-z
-x,y,1/2-z
-x,-y,-z
x,y,1/2-z
-x,y,z
x,-y,1/2+z
1/2+x,1/2+y,z
1/2-x,1/2-y,1/2+z
1/2+x,1/2-y,-z
1/2-x,1/2+y,1/2-z
1/2-x,1/2-y,-z
1/2+x,1/2+y,1/2-z
1/2-x,1/2+y,z
1/2+x,1/2-y,1/2+z
loop_
_atom_site_type_symbol
_atom_site_label
_atom_site_fract_x
_atom_site_fract_y
_atom_site_fract_z
Si Si1 0.500000 0.955182 0.750000
Si Si2 0.500000 0.675106 0.121348
Si Si3 0.759781 0.556375 0.121725
Si Si4 0.000000 0.791699 0.041450
Si Si5 0.500000 0.118064 0.018214
Si Si6 0.500000 0.152813 0.645836
Si Si7 0.830948 0.892506 0.360325
O O1 0.631374 0.952937 0.688217
O O2 0.646535 0.624637 0.138400
O O3 0.500000 0.757870 0.152534
O O4 0.500000 0.687531 0.038517
O O5 0.854613 0.576952 0.052513
O O6 0.677538 0.476758 0.111750
O O7 0.000000 0.702919 0.047617
O O8 0.853452 0.829971 0.079258
O O9 0.500000 0.124263 0.934949
O O10 0.664722 0.123536 0.673771
O O11 0.000000 0.885785 0.324183
#
# Coordination Sequence:
#
# PCOD9473875 Si02
#       7
#     4   8  16   8   8   8  16
#     4  10  26  44  66  88 114 160 216 292 310 360
#     4  11  21  36  64  98 125 172 195 248 306 399
#     4  11  22  41  63  87 119 158 223 261 316 351
#     4   9  20  37  57  97 143 159 200 233 316 389
#     4  10  21  35  60  91 131 179 193 240 304 385
#     4  11  21  37  60  93 140 171 196 229 314 385
#     4  10  22  38  58  94 125 168 201 256 296 374
#
# _framework density 22.854816
#
# number of rings (size 3 to 8) (size 9 to 14) (size 15 to 20)
#    0.706    0.941    1.176    4.235    0.000    9.882 
#    0.000    0.000    0.000   22.588    0.000    0.000 
#    0.000    0.000    0.000    0.000    0.000    0.000 
#
# Total GULP energy -189391.392650 kJ/mol
# GULP energy per Si atom -5570.335078 kJ/mol
# Density = 2.280280 g / cm^3
# Si number density = 22.854816 Si / 1000 Ang^3
#
#
#
# Elastic Constant Matrix: (Units=GPa)
#
#
# Indices 1 2 3 4 5 6 
#
# 1 193.4341 60.4869 27.2450 0.0000 0.0000 0.0000
# 2 60.4869 152.3324 36.4280 0.0000 0.0000 0.0000
# 3 27.2450 36.4280 97.8436 0.0000 0.0000 0.0000
# 4 0.0000 0.0000 0.0000 -24.2341 0.0000 0.0000
# 5 0.0000 0.0000 0.0000 0.0000 -59.3993 0.0000
# 6 0.0000 0.0000 0.0000 0.0000 0.0000 102.9269
#
#
#
# Elastic Compliance Matrix: (Units=1/GPa)
#
#
# Indices 1 2 3 4 5 6 
#
# 1 0.005967 -0.002165 -0.000856 0.000000 0.000000 0.000000
# 2 -0.002165 0.007992 -0.002373 0.000000 0.000000 0.000000
# 3 -0.000856 -0.002373 0.011342 0.000000 0.000000 0.000000
# 4 0.000000 0.000000 0.000000 -0.041264 0.000000 0.000000
# 5 0.000000 0.000000 0.000000 0.000000 -0.016835 0.000000
# 6 0.000000 0.000000 0.000000 0.000000 0.000000 0.009716
#
#
# Mechanical properties :
#
#
# Convention : Reuss Voigt Hill
#
# Bulk Modulus (GPa) = 68.89521 76.88111 72.88816
# Shear Modulus (GPa) = -670.32103 25.15539 -322.58282
#
# Velocity S-wave (km/s) = -17.14445 3.32122 -11.89331
# Velocity P-wave (km/s) = 19.01839 6.95840 12.51559
#
# Compressibility (1/GPa) = 0.01451480
#
# Stress axis : x y z
#
# Youngs Moduli (GPa) = 167.58392 125.13270 88.16825
#
# Poissons Ratio (x) = 0.27089 0.07544
# Poissons Ratio (y) = 0.36278 0.20918
# Poissons Ratio (z) = 0.14339 0.29688
#
# Static dielectric constant tensor:
#      x y z
#    x 1.931980 0.000000 0.000000 
#    y 0.000000 1.826210 0.000000 
#    z 0.000000 0.000000 1.788360 
# 
# From -- ./inp_files/59378.got.cif
#   From: 2010.05.17/outbox.cif.g08.bks.cpg/sg63_30_cif.got.tgz:59378.got - 2010.06.03 15:47:04.
