data_PCOD9473291
_publ_section_title
;
Structure prediction by ZEFSAII (Michael W. Deem and Ramdas Pophale) SiO2 
 PCOD9473291
Probable space group: C M C M
;
_chemical_formula_sum "Si O2"
_cell_formula_units_Z 96
_cell_length_a 12.780600
_cell_length_b 24.177474
_cell_length_c 18.249850
_cell_angle_alpha 90.000000
_cell_angle_beta 90.000000
_cell_angle_gamma 90.000000
_cell_volume 5639.251541
_symmetry_space_group_name_H-M "C M C M"
_symmetry_group_IT_number 63
_symmetry_cell_setting 'orthorhombic'
loop_
_space_group_symop_operation_xyz
x,y,z
-x,-y,1/2+z
x,-y,-z
-x,y,1/2-z
-x,-y,-z
x,y,1/2-z
-x,y,z
x,-y,1/2+z
1/2+x,1/2+y,z
1/2-x,1/2-y,1/2+z
1/2+x,1/2-y,-z
1/2-x,1/2+y,1/2-z
1/2-x,1/2-y,-z
1/2+x,1/2+y,1/2-z
1/2-x,1/2+y,z
1/2+x,1/2-y,1/2+z
loop_
_atom_site_type_symbol
_atom_site_label
_atom_site_fract_x
_atom_site_fract_y
_atom_site_fract_z
Si Si1 0.299772 0.149450 0.061224
Si Si2 0.874210 0.747896 0.334383
Si Si3 0.377678 0.345239 0.055552
Si Si4 0.000000 0.500225 0.117300
Si Si5 0.122381 0.975339 0.079066
Si Si6 0.000000 0.404053 0.492721
Si Si7 0.781999 0.544278 0.167004
O O1 0.329933 0.198745 0.115788
O O2 0.397201 0.132451 0.008734
O O3 0.279101 0.095732 0.111362
O O4 0.200474 0.164647 0.011681
O O5 0.837401 0.747055 0.250000
O O6 0.852286 0.805100 0.376724
O O7 0.000000 0.741246 0.332700
O O8 0.500000 0.336097 0.035664
O O9 0.366391 0.409487 0.076740
O O10 0.893685 0.513590 0.159904
O O11 0.000000 0.546676 0.053004
O O12 0.000000 0.438917 0.082440
O O13 0.000000 0.989191 0.088520
O O14 0.192670 0.002462 0.140933
O O15 0.156118 0.000000 0.000000
O O16 0.767388 0.563174 0.250000
#
# Coordination Sequence:
#
# PCOD9473291 Si02
#       7
#    16  16  16   8  16   8  16
#     4  11  19  35  56  83 113 141 186 234 273 331
#     4  10  21  37  56  82 114 144 180 232 286 328
#     4  10  21  36  59  83 107 145 189 230 274 330
#     4   9  19  32  48  76 116 146 180 222 266 334
#     4  10  20  37  57  79 110 146 186 231 276 324
#     4   9  18  30  54  80 102 146 185 222 273 318
#     4  11  22  33  53  83 115 149 183 226 283 332
#
# _framework density 17.023534999999999
#
# number of rings (size 3 to 8) (size 9 to 14) (size 15 to 20)
#    0.000    1.833    2.500    2.250    2.333    1.000 
#    0.000    1.667    0.000    1.500    0.000    0.000 
#    0.000    0.000    0.000    0.000    0.000    0.000 
#
# Total GULP energy -267808.564731 kJ/mol
# GULP energy per Si atom -5579.345099 kJ/mol
# Density = 1.698479 g / cm^3
# Si number density = 17.023535 Si / 1000 Ang^3
#
#
#
# Elastic Constant Matrix: (Units=GPa)
#
#
# Indices 1 2 3 4 5 6 
#
# 1 58.9452 33.0720 41.2914 0.0000 0.0000 0.0000
# 2 33.0720 91.4928 39.1252 0.0000 0.0000 0.0000
# 3 41.2914 39.1252 72.5719 0.0000 0.0000 0.0000
# 4 0.0000 0.0000 0.0000 22.4008 0.0000 0.0000
# 5 0.0000 0.0000 0.0000 0.0000 -7.4003 0.0000
# 6 0.0000 0.0000 0.0000 0.0000 0.0000 14.4928
#
#
#
# Elastic Compliance Matrix: (Units=1/GPa)
#
#
# Indices 1 2 3 4 5 6 
#
# 1 0.029593 -0.004544 -0.014388 0.000000 0.000000 0.000000
# 2 -0.004544 0.014903 -0.005449 0.000000 0.000000 0.000000
# 3 -0.014388 -0.005449 0.024903 0.000000 0.000000 0.000000
# 4 0.000000 0.000000 0.000000 0.044641 0.000000 0.000000
# 5 0.000000 0.000000 0.000000 0.000000 -0.135130 0.000000
# 6 0.000000 0.000000 0.000000 0.000000 0.000000 0.069000
#
#
# Mechanical properties :
#
#
# Convention : Reuss Voigt Hill
#
# Bulk Modulus (GPa) = 48.45594 49.99858 49.22726
# Shear Modulus (GPa) = 48.28523 13.20008 30.74265
#
# Velocity S-wave (km/s) = 5.33155 2.78762 4.25419
# Velocity P-wave (km/s) = 8.15024 6.30834 7.28771
#
# Compressibility (1/GPa) = 0.02063730
#
# Stress axis : x y z
#
# Youngs Moduli (GPa) = 33.79135 67.10276 40.15547
#
# Poissons Ratio (x) = 0.30495 0.57775
# Poissons Ratio (y) = 0.15356 0.21879
# Poissons Ratio (z) = 0.48618 0.36562
#
# Static dielectric constant tensor:
#      x y z
#    x 1.575020 0.000000 0.000000 
#    y 0.000000 1.567500 0.000000 
#    z 0.000000 0.000000 1.560170 
# 
# From -- ./inp_files/42554.got.cif
#   From: 2010.05.17/outbox.cif.g08.bks.cpg/sg63_22_cif.got.tgz:42554.got - 2010.06.03 15:47:04.
