data_PCOD9473528
_publ_section_title
;
Structure prediction by ZEFSAII (Michael W. Deem and Ramdas Pophale) SiO2 
 PCOD9473528
Probable space group: C M C M
;
_chemical_formula_sum "Si O2"
_cell_formula_units_Z 92
_cell_length_a 11.858628
_cell_length_b 15.162318
_cell_length_c 22.007605
_cell_angle_alpha 90.000000
_cell_angle_beta 90.000000
_cell_angle_gamma 90.000000
_cell_volume 3957.061765
_symmetry_space_group_name_H-M "C M C M"
_symmetry_group_IT_number 63
_symmetry_cell_setting 'orthorhombic'
loop_
_space_group_symop_operation_xyz
x,y,z
-x,-y,1/2+z
x,-y,-z
-x,y,1/2-z
-x,-y,-z
x,y,1/2-z
-x,y,z
x,-y,1/2+z
1/2+x,1/2+y,z
1/2-x,1/2-y,1/2+z
1/2+x,1/2-y,-z
1/2-x,1/2+y,1/2-z
1/2-x,1/2-y,-z
1/2+x,1/2+y,1/2-z
1/2-x,1/2+y,z
1/2+x,1/2-y,1/2+z
loop_
_atom_site_type_symbol
_atom_site_label
_atom_site_fract_x
_atom_site_fract_y
_atom_site_fract_z
Si Si1 0.670563 0.568117 0.450867
Si Si2 0.826566 0.497129 0.364651
Si Si3 0.000000 0.811314 0.250000
Si Si4 0.874979 0.768904 0.625384
Si Si5 0.636897 0.641745 0.250000
Si Si6 0.276902 0.437785 0.250000
Si Si7 0.000000 0.365852 0.681315
Si Si8 0.626555 0.129525 0.966152
O O1 0.622695 0.500000 0.500000
O O2 0.702704 0.513719 0.391056
O O3 0.611453 0.650677 0.421614
O O4 0.784610 0.606784 0.482020
O O5 0.806065 0.432895 0.308044
O O6 0.891451 0.587142 0.348202
O O7 0.885950 0.454054 0.422243
O O8 0.885910 0.872398 0.250000
O O9 0.000000 0.740010 0.306864
O O10 0.827515 0.805138 0.689048
O O11 0.817447 0.698070 0.581565
O O12 0.000000 0.732156 0.639589
O O13 0.500000 0.636765 0.250000
O O14 0.682640 0.541461 0.250000
O O15 0.000000 0.401866 0.750000
O O16 0.500000 0.156478 0.986722
#
# Coordination Sequence:
#
# PCOD9473528 Si02
#       8
#    16  16   4  16   8   8   8  16
#     4  10  22  37  61  90 121 172 219 258 322 391
#     4  11  22  38  67  90 126 166 218 267 334 393
#     4  10  26  42  64  94 140 168 222 258 338 402
#     4  10  21  39  62  91 128 161 213 268 322 387
#     4  10  20  38  63  86 120 169 202 254 327 385
#     4  12  21  40  63  93 123 173 211 271 327 401
#     4  10  22  44  61  96 131 173 212 278 334 401
#     4  10  22  39  62  92 122 164 212 271 321 384
#
# _framework density 23.249573999999999
#
# number of rings (size 3 to 8) (size 9 to 14) (size 15 to 20)
#    0.261    1.391    3.913    0.522    1.217    3.478 
#    3.130    0.870    1.913    0.000    0.000    0.000 
#    0.000    0.000    0.000    0.000    0.000    0.000 
#
# Total GULP energy -256116.289776 kJ/mol
# GULP energy per Si atom -5567.745430 kJ/mol
# Density = 2.319666 g / cm^3
# Si number density = 23.249574 Si / 1000 Ang^3
#
#
#
# Elastic Constant Matrix: (Units=GPa)
#
#
# Indices 1 2 3 4 5 6 
#
# 1 76.0552 7.7347 25.0108 0.0000 0.0000 0.0000
# 2 7.7347 88.7289 26.2191 0.0000 0.0000 0.0000
# 3 25.0108 26.2191 130.5108 0.0000 0.0000 0.0000
# 4 0.0000 0.0000 0.0000 37.8409 0.0000 0.0000
# 5 0.0000 0.0000 0.0000 0.0000 72.2663 0.0000
# 6 0.0000 0.0000 0.0000 0.0000 0.0000 26.6386
#
#
#
# Elastic Compliance Matrix: (Units=1/GPa)
#
#
# Indices 1 2 3 4 5 6 
#
# 1 0.014050 -0.000456 -0.002601 0.000000 0.000000 0.000000
# 2 -0.000456 0.011996 -0.002323 0.000000 0.000000 0.000000
# 3 -0.002601 -0.002323 0.008627 0.000000 0.000000 0.000000
# 4 0.000000 0.000000 0.000000 0.026426 0.000000 0.000000
# 5 0.000000 0.000000 0.000000 0.000000 0.013838 0.000000
# 6 0.000000 0.000000 0.000000 0.000000 0.000000 0.037539
#
#
# Mechanical properties :
#
#
# Convention : Reuss Voigt Hill
#
# Bulk Modulus (GPa) = 41.81603 45.91378 43.86490
# Shear Modulus (GPa) = 38.10744 43.10454 40.60599
#
# Velocity S-wave (km/s) = 4.05292 4.31047 4.18368
# Velocity P-wave (km/s) = 6.31873 6.67568 6.49965
#
# Compressibility (1/GPa) = 0.02391428
#
# Stress axis : x y z
#
# Youngs Moduli (GPa) = 71.17421 83.35854 115.91218
#
# Poissons Ratio (x) = 0.03803 0.30147
# Poissons Ratio (y) = 0.03247 0.26922
# Poissons Ratio (z) = 0.18511 0.19361
#
# Static dielectric constant tensor:
#      x y z
#    x 1.700960 0.000000 0.000000 
#    y 0.000000 1.939630 0.000000 
#    z 0.000000 0.000000 1.878040 
# 
# From -- ./inp_files/54305.got.cif
#   From: 2010.05.17/outbox.cif.g08.bks.cpg/sg63_28_cif.got.tgz:54305.got - 2010.06.03 15:47:04.
