data_PCOD9473454
_publ_section_title
;
Structure prediction by ZEFSAII (Michael W. Deem and Ramdas Pophale) SiO2 
 PCOD9473454
Probable space group: C M C M
;
_chemical_formula_sum "Si O2"
_cell_formula_units_Z 104
_cell_length_a 12.422219
_cell_length_b 25.080531
_cell_length_c 17.390571
_cell_angle_alpha 90.000000
_cell_angle_beta 90.000000
_cell_angle_gamma 90.000000
_cell_volume 5418.134108
_symmetry_space_group_name_H-M "C M C M"
_symmetry_group_IT_number 63
_symmetry_cell_setting 'orthorhombic'
loop_
_space_group_symop_operation_xyz
x,y,z
-x,-y,1/2+z
x,-y,-z
-x,y,1/2-z
-x,-y,-z
x,y,1/2-z
-x,y,z
x,-y,1/2+z
1/2+x,1/2+y,z
1/2-x,1/2-y,1/2+z
1/2+x,1/2-y,-z
1/2-x,1/2+y,1/2-z
1/2-x,1/2-y,-z
1/2+x,1/2+y,1/2-z
1/2-x,1/2+y,z
1/2+x,1/2-y,1/2+z
loop_
_atom_site_type_symbol
_atom_site_label
_atom_site_fract_x
_atom_site_fract_y
_atom_site_fract_z
Si Si1 0.266293 0.277770 0.116308
Si Si2 0.762485 0.880030 0.750000
Si Si3 0.124559 0.423793 0.607740
Si Si4 0.118563 0.020746 0.250000
Si Si5 0.787400 0.985353 0.415748
Si Si6 0.874723 0.313778 0.526838
Si Si7 0.371604 0.265938 0.750000
Si Si8 0.372595 0.386169 0.159531
O O1 0.333993 0.224521 0.096189
O O2 0.172055 0.265250 0.176224
O O3 0.342686 0.324602 0.146890
O O4 0.205706 0.299000 0.041074
O O5 0.691486 0.898487 0.677811
O O6 0.869260 0.915912 0.750000
O O7 0.803763 0.820548 0.750000
O O8 0.177221 0.480012 0.583424
O O9 0.131438 0.376635 0.545130
O O10 0.000000 0.431293 0.628463
O O11 0.164151 0.004872 0.166375
O O12 0.000000 0.999821 0.250000
O O13 0.837149 0.000000 0.500000
O O14 0.801145 0.922456 0.398537
O O15 0.000000 0.301152 0.510586
O O16 0.500000 0.273174 0.750000
O O17 0.350705 0.399019 0.250000
O O18 0.500000 0.394644 0.144506
#
# Coordination Sequence:
#
# PCOD9473454 Si02
#       8
#    16   8  16   8  16  16   8  16
#     4  11  22  40  62  89 128 164 208 258 305 379
#     4  10  20  38  58  90 121 159 201 258 303 365
#     4  10  21  39  64  92 122 159 206 258 315 370
#     4  10  21  38  60  85 121 163 204 258 318 374
#     4  11  23  40  64  91 126 162 211 266 320 382
#     4  10  21  39  64  92 124 162 206 260 316 369
#     4  12  23  38  60  89 124 164 203 250 311 373
#     4  11  23  41  63  88 124 170 216 263 314 377
#
# _framework density 19.194800999999998
#
# number of rings (size 3 to 8) (size 9 to 14) (size 15 to 20)
#    0.000    1.385    3.077    2.769    0.000    1.538 
#    0.000    1.538    0.000    0.000    0.000    0.000 
#    0.000    0.000    0.000    0.000    0.000    0.000 
#
# Total GULP energy -289530.863200 kJ/mol
# GULP energy per Si atom -5567.901215 kJ/mol
# Density = 1.915111 g / cm^3
# Si number density = 19.194801 Si / 1000 Ang^3
#
#
#
# Elastic Constant Matrix: (Units=GPa)
#
#
# Indices 1 2 3 4 5 6 
#
# 1 101.9974 47.4229 15.9428 0.0000 0.0000 0.0000
# 2 47.4229 97.0591 30.2156 0.0000 0.0000 0.0000
# 3 15.9428 30.2156 86.1746 0.0000 0.0000 0.0000
# 4 0.0000 0.0000 0.0000 17.8758 0.0000 0.0000
# 5 0.0000 0.0000 0.0000 0.0000 3.7071 0.0000
# 6 0.0000 0.0000 0.0000 0.0000 0.0000 27.0936
#
#
#
# Elastic Compliance Matrix: (Units=1/GPa)
#
#
# Indices 1 2 3 4 5 6 
#
# 1 0.012689 -0.006139 -0.000195 0.000000 0.000000 0.000000
# 2 -0.006139 0.014536 -0.003961 0.000000 0.000000 0.000000
# 3 -0.000195 -0.003961 0.013029 0.000000 0.000000 0.000000
# 4 0.000000 0.000000 0.000000 0.055942 0.000000 0.000000
# 5 0.000000 0.000000 0.000000 0.000000 0.269753 0.000000
# 6 0.000000 0.000000 0.000000 0.000000 0.000000 0.036909
#
#
# Mechanical properties :
#
#
# Convention : Reuss Voigt Hill
#
# Bulk Modulus (GPa) = 50.85461 52.48820 51.67140
# Shear Modulus (GPa) = 11.62784 22.51195 17.06990
#
# Velocity S-wave (km/s) = 2.46393 3.42835 2.98535
# Velocity P-wave (km/s) = 5.88609 6.56322 6.23386
#
# Compressibility (1/GPa) = 0.01966390
#
# Stress axis : x y z
#
# Youngs Moduli (GPa) = 78.80856 68.79653 76.75053
#
# Poissons Ratio (x) = 0.42235 0.01496
# Poissons Ratio (y) = 0.48381 0.30400
# Poissons Ratio (z) = 0.01537 0.27250
#
# Static dielectric constant tensor:
#      x y z
#    x 1.639970 0.000000 0.000000 
#    y 0.000000 1.712710 0.000000 
#    z 0.000000 0.000000 1.149440 
# 
# From -- ./inp_files/42841.got.cif
#   From: 2010.05.17/outbox.cif.g08.bks.cpg/sg63_22_cif.got.tgz:42841.got - 2010.06.03 15:47:04.
