data_PCOD9473063
_publ_section_title
;
Structure prediction by ZEFSAII (Michael W. Deem and Ramdas Pophale) SiO2 
 PCOD9473063
Probable space group: C M C M
;
_chemical_formula_sum "Si O2"
_cell_formula_units_Z 100
_cell_length_a 23.316871
_cell_length_b 26.823249
_cell_length_c 8.856205
_cell_angle_alpha 90.000000
_cell_angle_beta 90.000000
_cell_angle_gamma 90.000000
_cell_volume 5538.973815
_symmetry_space_group_name_H-M "C M C M"
_symmetry_group_IT_number 63
_symmetry_cell_setting 'orthorhombic'
loop_
_space_group_symop_operation_xyz
x,y,z
-x,-y,1/2+z
x,-y,-z
-x,y,1/2-z
-x,-y,-z
x,y,1/2-z
-x,y,z
x,-y,1/2+z
1/2+x,1/2+y,z
1/2-x,1/2-y,1/2+z
1/2+x,1/2-y,-z
1/2-x,1/2+y,1/2-z
1/2-x,1/2-y,-z
1/2+x,1/2+y,1/2-z
1/2-x,1/2+y,z
1/2+x,1/2-y,1/2+z
loop_
_atom_site_type_symbol
_atom_site_label
_atom_site_fract_x
_atom_site_fract_y
_atom_site_fract_z
Si Si1 0.299297 0.682135 0.429327
Si Si2 0.000000 0.443935 0.067751
Si Si3 0.832621 0.714863 0.070385
Si Si4 0.696563 0.051336 0.428342
Si Si5 0.500000 0.528832 0.250000
Si Si6 0.312121 0.422157 0.423031
Si Si7 0.108716 0.375005 0.069727
Si Si8 0.408564 0.500000 0.000000
O O1 0.307236 0.674789 0.250000
O O2 0.230836 0.690581 0.455417
O O3 0.329974 0.732318 0.486038
O O4 0.320742 0.634411 0.521876
O O5 0.945035 0.409942 0.025090
O O6 0.000000 0.449283 0.250000
O O7 0.000000 0.500000 0.000000
O O8 0.838492 0.721556 0.250000
O O9 0.882005 0.678569 0.007641
O O10 0.686512 0.053719 0.250000
O O11 0.763480 0.056543 0.465737
O O12 0.663890 0.094581 0.514996
O O13 0.675245 0.000000 0.500000
O O14 0.449699 0.525382 0.120780
O O15 0.290778 0.422935 0.250000
O O16 0.367456 0.456955 0.434064
O O17 0.107412 0.368999 0.250000
#
# Coordination Sequence:
#
# PCOD9473063 Si02
#       8
#    16   8  16  16   4  16  16   8
#     4  10  21  35  57  88 126 161 197 245 306 366
#     4  10  24  42  62  88 118 164 216 258 303 367
#     4  10  20  36  57  86 123 160 201 246 304 370
#     4  12  24  36  53  84 125 158 194 245 308 362
#     4  10  24  46  64  86 116 162 200 242 278 354
#     4  12  23  36  59  92 124 157 197 249 299 361
#     4  11  22  39  61  86 119 160 205 256 309 368
#     4  11  24  42  66  90 122 161 208 242 296 351
#
# _framework density 18.053885999999999
#
# number of rings (size 3 to 8) (size 9 to 14) (size 15 to 20)
#    0.000    1.120    3.200    3.840    2.240    3.840 
#    0.000    0.000    0.000    1.920    2.080    0.000 
#    0.000    0.000    0.000    0.000    0.000    0.000 
#
# Total GULP energy -278641.046268 kJ/mol
# GULP energy per Si atom -5572.820925 kJ/mol
# Density = 1.801279 g / cm^3
# Si number density = 18.053886 Si / 1000 Ang^3
#
#
#
# Elastic Constant Matrix: (Units=GPa)
#
#
# Indices 1 2 3 4 5 6 
#
# 1 58.4429 11.0839 3.2981 0.0000 0.0000 0.0000
# 2 11.0839 96.8780 9.3117 0.0000 0.0000 0.0000
# 3 3.2981 9.3117 61.2154 0.0000 0.0000 0.0000
# 4 0.0000 0.0000 0.0000 17.0864 0.0000 0.0000
# 5 0.0000 0.0000 0.0000 0.0000 21.1285 0.0000
# 6 0.0000 0.0000 0.0000 0.0000 0.0000 21.7313
#
#
#
# Elastic Compliance Matrix: (Units=1/GPa)
#
#
# Indices 1 2 3 4 5 6 
#
# 1 0.017516 -0.001942 -0.000648 0.000000 0.000000 0.000000
# 2 -0.001942 0.010691 -0.001522 0.000000 0.000000 0.000000
# 3 -0.000648 -0.001522 0.016602 0.000000 0.000000 0.000000
# 4 0.000000 0.000000 0.000000 0.058526 0.000000 0.000000
# 5 0.000000 0.000000 0.000000 0.000000 0.047329 0.000000
# 6 0.000000 0.000000 0.000000 0.000000 0.000000 0.046017
#
#
# Mechanical properties :
#
#
# Convention : Reuss Voigt Hill
#
# Bulk Modulus (GPa) = 27.33347 29.32488 28.32918
# Shear Modulus (GPa) = 23.03100 24.84540 23.93820
#
# Velocity S-wave (km/s) = 3.57554 3.71372 3.64528
# Velocity P-wave (km/s) = 5.67616 5.88788 5.78299
#
# Compressibility (1/GPa) = 0.03658518
#
# Stress axis : x y z
#
# Youngs Moduli (GPa) = 57.09212 93.53960 60.23320
#
# Poissons Ratio (x) = 0.18162 0.03905
# Poissons Ratio (y) = 0.11085 0.09165
# Poissons Ratio (z) = 0.03701 0.14233
#
# Static dielectric constant tensor:
#      x y z
#    x 1.619760 0.000000 0.000000 
#    y 0.000000 1.625830 0.000000 
#    z 0.000000 0.000000 1.607070 
# 
# From -- ./inp_files/8843.got.cif
#   From: 2010.05.17/outbox.cif.g08.bks.cpg/sg63_5_cif.got.tgz:8843.got - 2010.06.03 15:47:04.
