data_PCOD9473323
_publ_section_title
;
Structure prediction by ZEFSAII (Michael W. Deem and Ramdas Pophale) SiO2 
 PCOD9473323
Probable space group: C M C M
;
_chemical_formula_sum "Si O2"
_cell_formula_units_Z 64
_cell_length_a 10.548110
_cell_length_b 17.128888
_cell_length_c 14.726177
_cell_angle_alpha 90.000000
_cell_angle_beta 90.000000
_cell_angle_gamma 90.000000
_cell_volume 2660.687296
_symmetry_space_group_name_H-M "C M C M"
_symmetry_group_IT_number 63
_symmetry_cell_setting 'orthorhombic'
loop_
_space_group_symop_operation_xyz
x,y,z
-x,-y,1/2+z
x,-y,-z
-x,y,1/2-z
-x,-y,-z
x,y,1/2-z
-x,y,z
x,-y,1/2+z
1/2+x,1/2+y,z
1/2-x,1/2-y,1/2+z
1/2+x,1/2-y,-z
1/2-x,1/2+y,1/2-z
1/2-x,1/2-y,-z
1/2+x,1/2+y,1/2-z
1/2-x,1/2+y,z
1/2+x,1/2-y,1/2+z
loop_
_atom_site_type_symbol
_atom_site_label
_atom_site_fract_x
_atom_site_fract_y
_atom_site_fract_z
Si Si1 0.000000 0.306254 0.613910
Si Si2 0.716077 0.541217 0.854815
Si Si3 0.500000 0.759554 0.097787
Si Si4 0.768780 0.210090 0.598158
Si Si5 0.500000 0.987655 0.891925
Si Si6 0.000000 0.080704 0.139939
O O1 0.875288 0.261380 0.645586
O O2 0.000000 0.296692 0.503459
O O3 0.000000 0.396807 0.634228
O O4 0.683361 0.558122 0.750000
O O5 0.690986 0.620495 0.909378
O O6 0.865243 0.521706 0.860318
O O7 0.625085 0.470030 0.883379
O O8 0.369557 0.786422 0.142602
O O9 0.500000 0.665707 0.095261
O O10 0.750000 0.250000 0.500000
O O11 0.500000 0.000000 0.000000
O O12 0.000000 0.092551 0.250000
#
# Coordination Sequence:
#
# PCOD9473323 Si02
#       6
#     8  16   8  16   8   8
#     4  10  21  37  58  87 121 157 205 257 313 373
#     4  11  24  43  65  93 129 171 216 267 325 386
#     4  10  20  37  58  87 122 156 205 259 310 369
#     4  10  20  38  60  89 124 161 208 257 314 380
#     4  12  23  41  67  94 127 166 213 268 323 390
#     4  10  23  41  62  90 127 169 212 256 314 384
#
# _framework density 24.053934999999999
#
# number of rings (size 3 to 8) (size 9 to 14) (size 15 to 20)
#    0.000    1.500    0.000    6.375    0.000    3.000 
#    0.000    8.125    0.000    0.000    0.000    0.000 
#    0.000    0.000    0.000    0.000    0.000    0.000 
#
# Total GULP energy -179078.615352 kJ/mol
# GULP energy per Si atom -5596.206730 kJ/mol
# Density = 2.399919 g / cm^3
# Si number density = 24.053935 Si / 1000 Ang^3
#
#
#
# Elastic Constant Matrix: (Units=GPa)
#
#
# Indices 1 2 3 4 5 6 
#
# 1 118.9049 3.5422 -11.9980 0.0000 0.0000 0.0000
# 2 3.5422 168.2581 9.3588 0.0000 0.0000 0.0000
# 3 -11.9980 9.3588 87.5937 0.0000 0.0000 0.0000
# 4 0.0000 0.0000 0.0000 -47.3175 0.0000 0.0000
# 5 0.0000 0.0000 0.0000 0.0000 -13.3100 0.0000
# 6 0.0000 0.0000 0.0000 0.0000 0.0000 38.7967
#
#
#
# Elastic Compliance Matrix: (Units=1/GPa)
#
#
# Indices 1 2 3 4 5 6 
#
# 1 0.008538 -0.000246 0.001196 0.000000 0.000000 0.000000
# 2 -0.000246 0.005986 -0.000673 0.000000 0.000000 0.000000
# 3 0.001196 -0.000673 0.011652 0.000000 0.000000 0.000000
# 4 0.000000 0.000000 0.000000 -0.021134 0.000000 0.000000
# 5 0.000000 0.000000 0.000000 0.000000 -0.075131 0.000000
# 6 0.000000 0.000000 0.000000 0.000000 0.000000 0.025775
#
#
# Mechanical properties :
#
#
# Convention : Reuss Voigt Hill
#
# Bulk Modulus (GPa) = 37.41317 41.84031 39.62674
# Shear Modulus (GPa) = -139.05599 20.55741 -59.24929
#
# Velocity S-wave (km/s) = -7.61154 2.92659 -4.96843
# Velocity P-wave (km/s) = 7.85238 5.37141 4.05017
#
# Compressibility (1/GPa) = 0.02672855
#
# Stress axis : x y z
#
# Youngs Moduli (GPa) = 117.12232 167.05971 85.82166
#
# Poissons Ratio (x) = 0.04114 -0.10263
# Poissons Ratio (y) = 0.02884 0.05778
# Poissons Ratio (z) = -0.14005 0.11248
#
# Static dielectric constant tensor:
#      x y z
#    x 1.902860 0.000000 0.000000 
#    y 0.000000 1.850250 0.000000 
#    z 0.000000 0.000000 1.889050 
# 
# From -- ./inp_files/41569.got.cif
#   From: 2010.05.17/outbox.cif.g08.bks.cpg/sg63_21_cif.got.tgz:41569.got - 2010.06.03 15:47:04.
