data_PCOD9473080
_publ_section_title
;
Structure prediction by ZEFSAII (Michael W. Deem and Ramdas Pophale) SiO2 
 PCOD9473080
Probable space group: C M C M
;
_chemical_formula_sum "Si O2"
_cell_formula_units_Z 104
_cell_length_a 21.239879
_cell_length_b 30.581493
_cell_length_c 8.646003
_cell_angle_alpha 90.000000
_cell_angle_beta 90.000000
_cell_angle_gamma 90.000000
_cell_volume 5615.987135
_symmetry_space_group_name_H-M "C M C M"
_symmetry_group_IT_number 63
_symmetry_cell_setting 'orthorhombic'
loop_
_space_group_symop_operation_xyz
x,y,z
-x,-y,1/2+z
x,-y,-z
-x,y,1/2-z
-x,-y,-z
x,y,1/2-z
-x,y,z
x,-y,1/2+z
1/2+x,1/2+y,z
1/2-x,1/2-y,1/2+z
1/2+x,1/2-y,-z
1/2-x,1/2+y,1/2-z
1/2-x,1/2-y,-z
1/2+x,1/2+y,1/2-z
1/2-x,1/2+y,z
1/2+x,1/2-y,1/2+z
loop_
_atom_site_type_symbol
_atom_site_label
_atom_site_fract_x
_atom_site_fract_y
_atom_site_fract_z
Si Si1 0.191323 0.221410 0.436406
Si Si2 0.000000 0.950975 0.564213
Si Si3 0.223339 0.872378 0.436387
Si Si4 0.639541 0.549680 0.436465
Si Si5 0.868492 0.631574 0.564852
Si Si6 0.924181 0.454824 0.926294
Si Si7 0.571084 0.221970 0.938705
O O1 0.195248 0.221247 0.250000
O O2 0.250000 0.250000 0.500000
O O3 0.193474 0.172303 0.500016
O O4 0.125768 0.244381 0.482936
O O5 0.068824 0.933453 0.517982
O O6 0.000000 0.951764 0.750000
O O7 0.000000 0.000000 0.500000
O O8 0.221066 0.872568 0.250000
O O9 0.189481 0.915777 0.498916
O O10 0.296289 0.870028 0.487727
O O11 0.647407 0.500000 0.500000
O O12 0.643262 0.548037 0.250000
O O13 0.867163 0.634918 0.750000
O O14 0.901834 0.587148 0.517979
O O15 0.906045 0.674060 0.507703
O O16 0.902602 0.451715 0.750000
O O17 0.000000 0.455816 0.927645
O O18 0.901215 0.500000 0.000000
O O19 0.569798 0.221507 0.750000
O O20 0.500000 0.231559 0.991104
#
# Coordination Sequence:
#
# PCOD9473080 Si02
#       7
#    16   8  16  16  16  16  16
#     4  11  21  38  62  87 117 155 193 237 290 347
#     4   8  16  32  56  82 110 144 190 232 280 342
#     4  11  23  39  58  85 116 151 195 237 282 342
#     4  10  20  37  60  87 116 152 191 237 290 343
#     4  10  20  36  58  81 108 146 190 233 280 336
#     4  10  21  36  54  79 111 146 185 230 281 333
#     4   9  18  35  60  87 112 144 189 236 283 338
#
# _framework density 18.518560000000001
#
# number of rings (size 3 to 8) (size 9 to 14) (size 15 to 20)
#    0.000    2.000    1.538    2.308    0.000    4.000 
#    1.385    0.000    0.000    2.308    0.000    0.000 
#    0.000    0.000    0.000    0.000    0.000    0.000 
#
# Total GULP energy -290093.561380 kJ/mol
# GULP energy per Si atom -5578.722334 kJ/mol
# Density = 1.847641 g / cm^3
# Si number density = 18.518560 Si / 1000 Ang^3
#
#
#
# Elastic Constant Matrix: (Units=GPa)
#
#
# Indices 1 2 3 4 5 6 
#
# 1 113.0228 48.6641 32.0245 0.0000 0.0000 0.0000
# 2 48.6641 115.1331 23.0147 0.0000 0.0000 0.0000
# 3 32.0245 23.0147 25.9747 0.0000 0.0000 0.0000
# 4 0.0000 0.0000 0.0000 33.4706 0.0000 0.0000
# 5 0.0000 0.0000 0.0000 0.0000 20.8320 0.0000
# 6 0.0000 0.0000 0.0000 0.0000 0.0000 40.8618
#
#
#
# Elastic Compliance Matrix: (Units=1/GPa)
#
#
# Indices 1 2 3 4 5 6 
#
# 1 0.014452 -0.003095 -0.015076 0.000000 0.000000 0.000000
# 2 -0.003095 0.011218 -0.006124 0.000000 0.000000 0.000000
# 3 -0.015076 -0.006124 0.062512 0.000000 0.000000 0.000000
# 4 0.000000 0.000000 0.000000 0.029877 0.000000 0.000000
# 5 0.000000 0.000000 0.000000 0.000000 0.048003 0.000000
# 6 0.000000 0.000000 0.000000 0.000000 0.000000 0.024473
#
#
# Mechanical properties :
#
#
# Convention : Reuss Voigt Hill
#
# Bulk Modulus (GPa) = 25.25696 51.28191 38.26943
# Shear Modulus (GPa) = 19.81598 29.06136 24.43867
#
# Velocity S-wave (km/s) = 3.27473 3.96575 3.63669
# Velocity P-wave (km/s) = 5.28836 6.98010 6.19228
#
# Compressibility (1/GPa) = 0.03959305
#
# Stress axis : x y z
#
# Youngs Moduli (GPa) = 69.19432 89.14347 15.99687
#
# Poissons Ratio (x) = 0.27589 0.24117
# Poissons Ratio (y) = 0.21415 0.09796
# Poissons Ratio (z) = 1.04317 0.54589
#
# Static dielectric constant tensor:
#      x y z
#    x 1.659110 0.000000 0.000000 
#    y 0.000000 1.581410 0.000000 
#    z 0.000000 0.000000 1.638570 
# 
# From -- ./inp_files/8829.got.cif
#   From: 2010.05.17/outbox.cif.g08.bks.cpg/sg63_5_cif.got.tgz:8829.got - 2010.06.03 15:47:04.
