data_PCOD9473227
_publ_section_title
;
Structure prediction by ZEFSAII (Michael W. Deem and Ramdas Pophale) SiO2 
 PCOD9473227
Probable space group: C M C M
;
_chemical_formula_sum "Si O2"
_cell_formula_units_Z 88
_cell_length_a 21.375764
_cell_length_b 13.939711
_cell_length_c 16.081788
_cell_angle_alpha 90.000000
_cell_angle_beta 90.000000
_cell_angle_gamma 90.000000
_cell_volume 4791.922093
_symmetry_space_group_name_H-M "C M C M"
_symmetry_group_IT_number 63
_symmetry_cell_setting 'orthorhombic'
loop_
_space_group_symop_operation_xyz
x,y,z
-x,-y,1/2+z
x,-y,-z
-x,y,1/2-z
-x,-y,-z
x,y,1/2-z
-x,y,z
x,-y,1/2+z
1/2+x,1/2+y,z
1/2-x,1/2-y,1/2+z
1/2+x,1/2-y,-z
1/2-x,1/2+y,1/2-z
1/2-x,1/2-y,-z
1/2+x,1/2+y,1/2-z
1/2-x,1/2+y,z
1/2+x,1/2-y,1/2+z
loop_
_atom_site_type_symbol
_atom_site_label
_atom_site_fract_x
_atom_site_fract_y
_atom_site_fract_z
Si Si1 0.386667 0.500000 0.500000
Si Si2 0.428017 0.118215 0.651642
Si Si3 0.693036 0.426668 0.341515
Si Si4 0.694591 0.764756 0.569357
Si Si5 0.184526 0.515976 0.403016
Si Si6 0.570157 0.289479 0.971476
O O1 0.345842 0.531386 0.580361
O O2 0.423362 0.595025 0.469576
O O3 0.418022 0.123901 0.750000
O O4 0.500000 0.088039 0.636019
O O5 0.421431 0.224182 0.610978
O O6 0.379587 0.040974 0.614534
O O7 0.665226 0.443221 0.250000
O O8 0.702447 0.314702 0.360333
O O9 0.761431 0.471609 0.347407
O O10 0.750000 0.750000 0.500000
O O11 0.688922 0.870308 0.606299
O O12 0.627788 0.744625 0.527076
O O13 0.200159 0.500000 0.500000
O O14 0.500000 0.267561 0.002944
#
# Coordination Sequence:
#
# PCOD9473227 Si02
#       6
#     8  16  16  16  16  16
#     4  10  21  40  60  86 121 152 204 252 295 360
#     4  10  22  37  54  85 122 155 200 251 299 364
#     4  11  23  38  58  87 120 156 198 248 304 359
#     4  11  21  38  59  86 119 152 195 252 300 360
#     4  12  20  36  62  86 117 154 200 247 301 360
#     4  10  20  36  61  86 115 156 198 246 303 356
#
# _framework density 18.364236999999999
#
# number of rings (size 3 to 8) (size 9 to 14) (size 15 to 20)
#    0.000    1.273    4.545    1.909    0.000    3.273 
#    0.000    0.000    0.000   13.091    0.000    0.000 
#    0.000    0.000    0.000    0.000    0.000    0.000 
#
# Total GULP energy -245223.342874 kJ/mol
# GULP energy per Si atom -5573.257793 kJ/mol
# Density = 1.832244 g / cm^3
# Si number density = 18.364237 Si / 1000 Ang^3
#
#
#
# Elastic Constant Matrix: (Units=GPa)
#
#
# Indices 1 2 3 4 5 6 
#
# 1 100.6433 53.8626 33.3595 0.0000 0.0000 0.0000
# 2 53.8626 151.3811 37.0781 0.0000 0.0000 0.0000
# 3 33.3595 37.0781 99.3388 0.0000 0.0000 0.0000
# 4 0.0000 0.0000 0.0000 15.8099 0.0000 0.0000
# 5 0.0000 0.0000 0.0000 0.0000 16.2272 0.0000
# 6 0.0000 0.0000 0.0000 0.0000 0.0000 22.5902
#
#
#
# Elastic Compliance Matrix: (Units=1/GPa)
#
#
# Indices 1 2 3 4 5 6 
#
# 1 0.012992 -0.003912 -0.002903 0.000000 0.000000 0.000000
# 2 -0.003912 0.008448 -0.001840 0.000000 0.000000 0.000000
# 3 -0.002903 -0.001840 0.011728 0.000000 0.000000 0.000000
# 4 0.000000 0.000000 0.000000 0.063251 0.000000 0.000000
# 5 0.000000 0.000000 0.000000 0.000000 0.061625 0.000000
# 6 0.000000 0.000000 0.000000 0.000000 0.000000 0.044267
#
#
# Mechanical properties :
#
#
# Convention : Reuss Voigt Hill
#
# Bulk Modulus (GPa) = 63.05278 66.66263 64.85771
# Shear Modulus (GPa) = 22.23153 26.06301 24.14727
#
# Velocity S-wave (km/s) = 3.48313 3.77135 3.63010
# Velocity P-wave (km/s) = 7.11233 7.43930 7.27765
#
# Compressibility (1/GPa) = 0.01585973
#
# Stress axis : x y z
#
# Youngs Moduli (GPa) = 76.97249 118.36825 85.26572
#
# Poissons Ratio (x) = 0.46300 0.24751
# Poissons Ratio (y) = 0.30108 0.15687
# Poissons Ratio (z) = 0.22344 0.21777
#
# Static dielectric constant tensor:
#      x y z
#    x 1.639360 0.000000 0.000000 
#    y 0.000000 1.587820 0.000000 
#    z 0.000000 0.000000 1.631000 
# 
# From -- ./inp_files/35207.got.cif
#   From: 2010.05.17/outbox.cif.g08.bks.cpg/sg63_18_cif.got.tgz:35207.got - 2010.06.03 15:47:04.
