data_PCOD9473852
_publ_section_title
;
Structure prediction by ZEFSAII (Michael W. Deem and Ramdas Pophale) SiO2 
 PCOD9473852
Probable space group: C M C M
;
_chemical_formula_sum "Si O2"
_cell_formula_units_Z 112
_cell_length_a 28.283329
_cell_length_b 12.565629
_cell_length_c 15.306105
_cell_angle_alpha 90.000000
_cell_angle_beta 90.000000
_cell_angle_gamma 90.000000
_cell_volume 5439.756336
_symmetry_space_group_name_H-M "C M C M"
_symmetry_group_IT_number 63
_symmetry_cell_setting 'orthorhombic'
loop_
_space_group_symop_operation_xyz
x,y,z
-x,-y,1/2+z
x,-y,-z
-x,y,1/2-z
-x,-y,-z
x,y,1/2-z
-x,y,z
x,-y,1/2+z
1/2+x,1/2+y,z
1/2-x,1/2-y,1/2+z
1/2+x,1/2-y,-z
1/2-x,1/2+y,1/2-z
1/2-x,1/2-y,-z
1/2+x,1/2+y,1/2-z
1/2-x,1/2+y,z
1/2+x,1/2-y,1/2+z
loop_
_atom_site_type_symbol
_atom_site_label
_atom_site_fract_x
_atom_site_fract_y
_atom_site_fract_z
Si Si1 0.806204 0.944257 0.355060
Si Si2 0.057015 0.174734 0.652470
Si Si3 0.869672 0.595414 0.928824
Si Si4 0.899064 0.061008 0.351732
Si Si5 0.293939 0.964724 0.652344
Si Si6 0.556446 0.749040 0.036534
Si Si7 0.803455 0.260896 0.966234
O O1 0.807687 0.920290 0.250000
O O2 0.753191 0.976912 0.381293
O O3 0.819082 0.843502 0.414040
O O4 0.843816 0.038165 0.370561
O O5 0.072653 0.211852 0.750000
O O6 0.069892 0.243436 0.567028
O O7 0.000000 0.169462 0.653470
O O8 0.076674 0.055252 0.640756
O O9 0.838940 0.541882 0.853262
O O10 0.920860 0.646776 0.919093
O O11 0.871642 0.500000 0.000000
O O12 0.838681 0.697365 0.959607
O O13 0.903714 0.094606 0.250000
O O14 0.923109 0.144930 0.415364
O O15 0.282636 0.933995 0.750000
O O16 0.303274 0.859342 0.599600
O O17 0.500000 0.748523 0.042629
O O18 0.750000 0.250000 0.000000
#
# Coordination Sequence:
#
# PCOD9473852 Si02
#       7
#    16  16  16  16  16  16  16
#     4  10  21  36  57  88 124 164 207 246 304 376
#     4   9  18  35  57  83 118 157 199 253 316 383
#     4  10  23  42  59  85 117 157 208 260 308 363
#     4  10  21  35  55  88 127 163 202 253 312 381
#     4  10  22  40  59  84 121 163 205 251 307 372
#     4  11  23  39  62  92 122 162 212 266 325 380
#     4  11  21  36  59  87 118 159 204 252 305 370
#
# _framework density 20.589158000000001
#
# number of rings (size 3 to 8) (size 9 to 14) (size 15 to 20)
#    0.000    1.857    1.429    2.143    2.000    2.857 
#    0.000    2.857    0.000    0.000    0.000    2.000 
#    0.000    0.000    0.000    0.000    0.000    0.000 
#
# Total GULP energy -312680.400638 kJ/mol
# GULP energy per Si atom -5583.578583 kJ/mol
# Density = 2.054230 g / cm^3
# Si number density = 20.589158 Si / 1000 Ang^3
#
#
#
# Elastic Constant Matrix: (Units=GPa)
#
#
# Indices 1 2 3 4 5 6 
#
# 1 85.0527 25.1493 24.7520 0.0000 0.0000 0.0000
# 2 25.1493 46.1765 16.5154 0.0000 0.0000 0.0000
# 3 24.7520 16.5154 52.8799 0.0000 0.0000 0.0000
# 4 0.0000 0.0000 0.0000 8.3870 0.0000 0.0000
# 5 0.0000 0.0000 0.0000 0.0000 26.4206 0.0000
# 6 0.0000 0.0000 0.0000 0.0000 0.0000 27.9009
#
#
#
# Elastic Compliance Matrix: (Units=1/GPa)
#
#
# Indices 1 2 3 4 5 6 
#
# 1 0.015136 -0.006427 -0.005077 0.000000 0.000000 0.000000
# 2 -0.006427 0.027109 -0.005458 0.000000 0.000000 0.000000
# 3 -0.005077 -0.005458 0.022992 0.000000 0.000000 0.000000
# 4 0.000000 0.000000 0.000000 0.119232 0.000000 0.000000
# 5 0.000000 0.000000 0.000000 0.000000 0.037849 0.000000
# 6 0.000000 0.000000 0.000000 0.000000 0.000000 0.035841
#
#
# Mechanical properties :
#
#
# Convention : Reuss Voigt Hill
#
# Bulk Modulus (GPa) = 31.93776 35.21583 33.57680
# Shear Modulus (GPa) = 16.52780 20.38787 18.45784
#
# Velocity S-wave (km/s) = 2.83635 3.15020 2.99738
# Velocity P-wave (km/s) = 5.12563 5.51116 5.32189
#
# Compressibility (1/GPa) = 0.03131090
#
# Stress axis : x y z
#
# Youngs Moduli (GPa) = 66.06982 36.88846 43.49350
#
# Poissons Ratio (x) = 0.23710 0.22083
# Poissons Ratio (y) = 0.42466 0.23739
# Poissons Ratio (z) = 0.33545 0.20134
#
# Static dielectric constant tensor:
#      x y z
#    x 1.805540 0.000000 0.000000 
#    y 0.000000 1.706190 0.000000 
#    z 0.000000 0.000000 1.787900 
# 
# From -- ./inp_files/38564.got.cif
#   From: 2010.05.17/outbox.cif.g08.bks.cpg/sg63_20_cif.got.tgz:38564.got - 2010.06.03 15:47:04.
