data_PCOD9473271
_publ_section_title
;
Structure prediction by ZEFSAII (Michael W. Deem and Ramdas Pophale) SiO2 
 PCOD9473271
Probable space group: C M C M
;
_chemical_formula_sum "Si O2"
_cell_formula_units_Z 72
_cell_length_a 7.652097
_cell_length_b 22.599702
_cell_length_c 24.575252
_cell_angle_alpha 90.000000
_cell_angle_beta 90.000000
_cell_angle_gamma 90.000000
_cell_volume 4249.923954
_symmetry_space_group_name_H-M "C M C M"
_symmetry_group_IT_number 63
_symmetry_cell_setting 'orthorhombic'
loop_
_space_group_symop_operation_xyz
x,y,z
-x,-y,1/2+z
x,-y,-z
-x,y,1/2-z
-x,-y,-z
x,y,1/2-z
-x,y,z
x,-y,1/2+z
1/2+x,1/2+y,z
1/2-x,1/2-y,1/2+z
1/2+x,1/2-y,-z
1/2-x,1/2+y,1/2-z
1/2-x,1/2-y,-z
1/2+x,1/2+y,1/2-z
1/2-x,1/2+y,z
1/2+x,1/2-y,1/2+z
loop_
_atom_site_type_symbol
_atom_site_label
_atom_site_fract_x
_atom_site_fract_y
_atom_site_fract_z
Si Si1 0.500000 0.218188 0.685655
Si Si2 0.702955 0.813130 0.814118
Si Si3 0.204174 0.181721 0.988631
Si Si4 0.000000 0.368484 0.089697
Si Si5 0.796726 0.903035 0.907185
Si Si6 0.000000 0.504851 0.434578
O O1 0.500000 0.205778 0.750000
O O2 0.668106 0.259034 0.672648
O O3 0.500000 0.160608 0.648844
O O4 0.726699 0.826663 0.750000
O O5 0.500000 0.797911 0.823180
O O6 0.752591 0.868088 0.851992
O O7 0.332001 0.155590 0.943255
O O8 0.000000 0.177348 0.973747
O O9 0.250000 0.250000 0.000000
O O10 0.231771 0.143433 0.043450
O O11 0.000000 0.439070 0.089027
O O12 0.668597 0.957750 0.916325
O O13 0.000000 0.920293 0.907645
O O14 0.000000 0.500000 0.500000
#
# Coordination Sequence:
#
# PCOD9473271 Si02
#       6
#     8  16  16   8  16   8
#     4  10  22  40  62  90 121 149 190 245 307 365
#     4  10  20  36  63  94 120 151 191 247 308 354
#     4  11  22  34  56  88 118 150 193 247 301 356
#     4  12  24  40  58  83 118 164 195 234 303 349
#     4  11  22  37  59  86 120 158 203 247 294 349
#     4  12  24  42  58  81 125 168 202 242 282 354
#
# _framework density 16.941479000000001
#
# number of rings (size 3 to 8) (size 9 to 14) (size 15 to 20)
#    0.000    1.111    5.556    1.333    0.000    4.000 
#    0.000    1.111    0.000    0.000    0.000    0.000 
#    0.000    0.000    0.000    0.000    0.000    0.000 
#
# Total GULP energy -201182.389908 kJ/mol
# GULP energy per Si atom -5588.399720 kJ/mol
# Density = 1.690292 g / cm^3
# Si number density = 16.941479 Si / 1000 Ang^3
#
#
#
# Elastic Constant Matrix: (Units=GPa)
#
#
# Indices 1 2 3 4 5 6 
#
# 1 136.9839 85.6184 54.4304 0.0000 0.0000 0.0000
# 2 85.6184 169.6757 67.8568 0.0000 0.0000 0.0000
# 3 54.4304 67.8568 73.4105 0.0000 0.0000 0.0000
# 4 0.0000 0.0000 0.0000 18.4977 0.0000 0.0000
# 5 0.0000 0.0000 0.0000 0.0000 21.6528 0.0000
# 6 0.0000 0.0000 0.0000 0.0000 0.0000 24.6695
#
#
#
# Elastic Compliance Matrix: (Units=1/GPa)
#
#
# Indices 1 2 3 4 5 6 
#
# 1 0.011769 -0.003885 -0.005135 0.000000 0.000000 0.000000
# 2 -0.003885 0.010632 -0.006948 0.000000 0.000000 0.000000
# 3 -0.005135 -0.006948 0.023851 0.000000 0.000000 0.000000
# 4 0.000000 0.000000 0.000000 0.054061 0.000000 0.000000
# 5 0.000000 0.000000 0.000000 0.000000 0.046183 0.000000
# 6 0.000000 0.000000 0.000000 0.000000 0.000000 0.040536
#
#
# Mechanical properties :
#
#
# Convention : Reuss Voigt Hill
#
# Bulk Modulus (GPa) = 69.84411 88.43127 79.13769
# Shear Modulus (GPa) = 22.34740 24.44162 23.39451
#
# Velocity S-wave (km/s) = 3.63587 3.80242 3.72008
# Velocity P-wave (km/s) = 7.67739 8.46104 8.07872
#
# Compressibility (1/GPa) = 0.01431760
#
# Stress axis : x y z
#
# Youngs Moduli (GPa) = 84.97160 94.05224 41.92657
#
# Poissons Ratio (x) = 0.36539 0.21529
# Poissons Ratio (y) = 0.33011 0.29129
# Poissons Ratio (z) = 0.43632 0.65343
#
# Static dielectric constant tensor:
#      x y z
#    x 1.581790 0.000000 0.000000 
#    y 0.000000 1.531010 0.000000 
#    z 0.000000 0.000000 1.565540 
# 
# From -- ./inp_files/66526.got.cif
#   From: 2010.05.17/outbox.cif.g08.bks.cpg/sg63_34_cif.got.tgz:66526.got - 2010.06.03 15:47:04.
