data_PCOD9473558
_publ_section_title
;
Structure prediction by ZEFSAII (Michael W. Deem and Ramdas Pophale) SiO2 
 PCOD9473558
Probable space group: C M C M
;
_chemical_formula_sum "Si O2"
_cell_formula_units_Z 64
_cell_length_a 11.993071
_cell_length_b 18.366454
_cell_length_c 15.378448
_cell_angle_alpha 90.000000
_cell_angle_beta 90.000000
_cell_angle_gamma 90.000000
_cell_volume 3387.413614
_symmetry_space_group_name_H-M "C M C M"
_symmetry_group_IT_number 63
_symmetry_cell_setting 'orthorhombic'
loop_
_space_group_symop_operation_xyz
x,y,z
-x,-y,1/2+z
x,-y,-z
-x,y,1/2-z
-x,-y,-z
x,y,1/2-z
-x,y,z
x,-y,1/2+z
1/2+x,1/2+y,z
1/2-x,1/2-y,1/2+z
1/2+x,1/2-y,-z
1/2-x,1/2+y,1/2-z
1/2-x,1/2-y,-z
1/2+x,1/2+y,1/2-z
1/2-x,1/2+y,z
1/2+x,1/2-y,1/2+z
loop_
_atom_site_type_symbol
_atom_site_label
_atom_site_fract_x
_atom_site_fract_y
_atom_site_fract_z
Si Si1 0.367191 0.676395 0.852038
Si Si2 0.500000 0.085627 0.987932
Si Si3 0.797720 0.803274 0.852379
Si Si4 0.247177 0.912667 0.993696
Si Si5 0.500000 0.199098 0.647259
O O1 0.345732 0.657278 0.750000
O O2 0.500000 0.674931 0.866766
O O3 0.315972 0.757160 0.864244
O O4 0.303662 0.623692 0.919345
O O5 0.377834 0.107445 0.020743
O O6 0.500000 0.119077 0.891808
O O7 0.500000 0.000000 0.000000
O O8 0.810114 0.819834 0.750000
O O9 0.809611 0.874130 0.911363
O O10 0.892792 0.745685 0.879273
O O11 0.236109 0.000000 0.000000
O O12 0.500000 0.194111 0.750000
#
# Coordination Sequence:
#
# PCOD9473558 Si02
#       5
#    16   8  16  16   8
#     4  10  22  39  62  89 116 153 199 242 295 353
#     4  10  22  38  58  93 118 151 202 237 297 356
#     4  10  22  39  61  89 116 153 202 250 291 346
#     4  11  24  39  60  86 122 160 194 241 300 352
#     4  10  20  38  65  89 114 153 204 249 290 342
#
# _framework density 18.893469
#
# number of rings (size 3 to 8) (size 9 to 14) (size 15 to 20)
#    0.000    1.750    2.500    0.750    3.500    1.500 
#    0.000    3.750    0.000    0.000    0.000    0.000 
#    0.000    0.000    0.000    0.000    0.000    0.000 
#
# Total GULP energy -178312.292238 kJ/mol
# GULP energy per Si atom -5572.259132 kJ/mol
# Density = 1.885047 g / cm^3
# Si number density = 18.893469 Si / 1000 Ang^3
#
#
#
# Elastic Constant Matrix: (Units=GPa)
#
#
# Indices 1 2 3 4 5 6 
#
# 1 86.4817 37.7798 36.3938 0.0000 0.0000 0.0000
# 2 37.7798 120.9261 85.9410 0.0000 0.0000 0.0000
# 3 36.3938 85.9410 91.5929 0.0000 0.0000 0.0000
# 4 0.0000 0.0000 0.0000 15.3181 0.0000 0.0000
# 5 0.0000 0.0000 0.0000 0.0000 17.3916 0.0000
# 6 0.0000 0.0000 0.0000 0.0000 0.0000 1.4656
#
#
#
# Elastic Compliance Matrix: (Units=1/GPa)
#
#
# Indices 1 2 3 4 5 6 
#
# 1 0.013948 -0.001257 -0.004362 0.000000 0.000000 0.000000
# 2 -0.001257 0.024934 -0.022896 0.000000 0.000000 0.000000
# 3 -0.004362 -0.022896 0.034135 0.000000 0.000000 0.000000
# 4 0.000000 0.000000 0.000000 0.065282 0.000000 0.000000
# 5 0.000000 0.000000 0.000000 0.000000 0.057499 0.000000
# 6 0.000000 0.000000 0.000000 0.000000 0.000000 0.682324
#
#
# Mechanical properties :
#
#
# Convention : Reuss Voigt Hill
#
# Bulk Modulus (GPa) = 62.55768 68.80332 65.68050
# Shear Modulus (GPa) = 5.31641 16.09414 10.70528
#
# Velocity S-wave (km/s) = 1.67929 2.92179 2.38294
# Velocity P-wave (km/s) = 6.07804 6.91939 6.51232
#
# Compressibility (1/GPa) = 0.01598525
#
# Stress axis : x y z
#
# Youngs Moduli (GPa) = 71.69356 40.10517 29.29576
#
# Poissons Ratio (x) = 0.05043 0.12780
# Poissons Ratio (y) = 0.09014 0.67076
# Poissons Ratio (z) = 0.31276 0.91826
#
# Static dielectric constant tensor:
#      x y z
#    x 1.709190 0.000000 0.000000 
#    y 0.000000 1.620670 0.000000 
#    z 0.000000 0.000000 1.647690 
# 
# From -- ./inp_files/29142.got.cif
#   From: 2010.05.17/outbox.cif.g08.bks.cpg/sg63_15_cif.got.tgz:29142.got - 2010.06.03 15:47:04.
