data_PCOD9473932
_publ_section_title
;
Structure prediction by ZEFSAII (Michael W. Deem and Ramdas Pophale) SiO2 
 PCOD9473932
Probable space group: C M C M
;
_chemical_formula_sum "Si O2"
_cell_formula_units_Z 96
_cell_length_a 21.109591
_cell_length_b 24.069038
_cell_length_c 9.237963
_cell_angle_alpha 90.000000
_cell_angle_beta 90.000000
_cell_angle_gamma 90.000000
_cell_volume 4693.693969
_symmetry_space_group_name_H-M "C M C M"
_symmetry_group_IT_number 63
_symmetry_cell_setting 'orthorhombic'
loop_
_space_group_symop_operation_xyz
x,y,z
-x,-y,1/2+z
x,-y,-z
-x,y,1/2-z
-x,-y,-z
x,y,1/2-z
-x,y,z
x,-y,1/2+z
1/2+x,1/2+y,z
1/2-x,1/2-y,1/2+z
1/2+x,1/2-y,-z
1/2-x,1/2+y,1/2-z
1/2-x,1/2-y,-z
1/2+x,1/2+y,1/2-z
1/2-x,1/2+y,z
1/2+x,1/2-y,1/2+z
loop_
_atom_site_type_symbol
_atom_site_label
_atom_site_fract_x
_atom_site_fract_y
_atom_site_fract_z
Si Si1 0.607651 0.288844 0.421793
Si Si2 0.688749 0.550123 0.585435
Si Si3 0.750845 0.829770 0.086587
Si Si4 0.076701 0.556161 0.917015
Si Si5 0.571075 0.398939 0.578940
Si Si6 0.123927 0.666381 0.078248
O O1 0.595996 0.298834 0.250000
O O2 0.683366 0.298200 0.443249
O O3 0.575356 0.336365 0.515990
O O4 0.590166 0.225326 0.455882
O O5 0.720292 0.500000 0.500000
O O6 0.675466 0.533951 0.750000
O O7 0.730352 0.605405 0.586472
O O8 0.623826 0.566138 0.504790
O O9 0.729351 0.814648 0.250000
O O10 0.696172 0.823482 0.970543
O O11 0.098276 0.555166 0.750000
O O12 0.000000 0.556389 0.917869
O O13 0.097147 0.500000 0.000000
O O14 0.099278 0.612427 0.994619
O O15 0.584355 0.398400 0.750000
O O16 0.500000 0.420191 0.555481
O O17 0.119294 0.657582 0.250000
#
# Coordination Sequence:
#
# PCOD9473932 Si02
#       6
#    16  16  16  16  16  16
#     4   9  20  37  55  79 112 148 183 222 270 320
#     4  10  21  37  57  80 108 144 184 227 275 324
#     4   9  19  36  55  78 111 147 183 224 269 317
#     4  10  22  41  62  82 108 142 179 223 273 321
#     4  10  21  36  55  80 109 143 184 229 276 323
#     4  11  22  35  57  87 114 144 181 219 266 325
#
# _framework density 20.452973
#
# number of rings (size 3 to 8) (size 9 to 14) (size 15 to 20)
#    0.000    2.167    0.000    3.500    0.000    8.667 
#    0.000    5.000    0.000    0.000    0.000    0.000 
#    0.000    0.000    0.000    0.000    0.000    0.000 
#
# Total GULP energy -268100.624571 kJ/mol
# GULP energy per Si atom -5585.429679 kJ/mol
# Density = 2.040642 g / cm^3
# Si number density = 20.452973 Si / 1000 Ang^3
#
#
#
# Elastic Constant Matrix: (Units=GPa)
#
#
# Indices 1 2 3 4 5 6 
#
# 1 13.8414 -10.1763 7.4715 0.0000 0.0000 0.0000
# 2 -10.1763 115.5786 38.2790 0.0000 0.0000 0.0000
# 3 7.4715 38.2790 82.6229 0.0000 0.0000 0.0000
# 4 0.0000 0.0000 0.0000 32.2923 0.0000 0.0000
# 5 0.0000 0.0000 0.0000 0.0000 25.6570 0.0000
# 6 0.0000 0.0000 0.0000 0.0000 0.0000 -15.7336
#
#
#
# Elastic Compliance Matrix: (Units=1/GPa)
#
#
# Indices 1 2 3 4 5 6 
#
# 1 0.088772 0.012373 -0.013760 0.000000 0.000000 0.000000
# 2 0.012373 0.011945 -0.006653 0.000000 0.000000 0.000000
# 3 -0.013760 -0.006653 0.016430 0.000000 0.000000 0.000000
# 4 0.000000 0.000000 0.000000 0.030967 0.000000 0.000000
# 5 0.000000 0.000000 0.000000 0.000000 0.038976 0.000000
# 6 0.000000 0.000000 0.000000 0.000000 0.000000 -0.063558
#
#
# Mechanical properties :
#
#
# Convention : Reuss Voigt Hill
#
# Bulk Modulus (GPa) = 9.89442 31.46571 20.68006
# Shear Modulus (GPa) = 28.85173 20.20771 24.52972
#
# Velocity S-wave (km/s) = 3.75992 3.14667 3.46688
# Velocity P-wave (km/s) = 4.86801 5.34975 5.11455
#
# Compressibility (1/GPa) = 0.10106705
#
# Stress axis : x y z
#
# Youngs Moduli (GPa) = 11.26484 83.71722 60.86501
#
# Poissons Ratio (x) = -1.03586 0.83751
# Poissons Ratio (y) = -0.13938 0.40493
# Poissons Ratio (z) = 0.15501 0.55697
#
# Static dielectric constant tensor:
#      x y z
#    x 1.726810 0.000000 0.000000 
#    y 0.000000 1.739790 0.000000 
#    z 0.000000 0.000000 1.697890 
# 
# From -- ./inp_files/10495.got.cif
#   From: 2010.05.17/outbox.cif.g08.bks.cpg/sg63_6_cif.got.tgz:10495.got - 2010.06.03 15:47:04.
