data_PCOD9473973
_publ_section_title
;
Structure prediction by ZEFSAII (Michael W. Deem and Ramdas Pophale) SiO2 
 PCOD9473973
Probable space group: C M C M
;
_chemical_formula_sum "Si O2"
_cell_formula_units_Z 80
_cell_length_a 9.639074
_cell_length_b 28.946455
_cell_length_c 14.733652
_cell_angle_alpha 90.000000
_cell_angle_beta 90.000000
_cell_angle_gamma 90.000000
_cell_volume 4110.939701
_symmetry_space_group_name_H-M "C M C M"
_symmetry_group_IT_number 63
_symmetry_cell_setting 'orthorhombic'
loop_
_space_group_symop_operation_xyz
x,y,z
-x,-y,1/2+z
x,-y,-z
-x,y,1/2-z
-x,-y,-z
x,y,1/2-z
-x,y,z
x,-y,1/2+z
1/2+x,1/2+y,z
1/2-x,1/2-y,1/2+z
1/2+x,1/2-y,-z
1/2-x,1/2+y,1/2-z
1/2-x,1/2-y,-z
1/2+x,1/2+y,1/2-z
1/2-x,1/2+y,z
1/2+x,1/2-y,1/2+z
loop_
_atom_site_type_symbol
_atom_site_label
_atom_site_fract_x
_atom_site_fract_y
_atom_site_fract_z
Si Si1 0.665358 0.869716 0.357736
Si Si2 0.353088 0.809234 0.646948
Si Si3 0.164799 0.446294 0.992028
Si Si4 0.161812 0.783169 0.432089
Si Si5 0.657648 0.386927 0.859445
O O1 0.695280 0.875346 0.250000
O O2 0.500000 0.859289 0.365708
O O3 0.692510 0.915721 0.417614
O O4 0.756192 0.828299 0.400358
O O5 0.363112 0.825544 0.750000
O O6 0.500000 0.821087 0.599166
O O7 0.342735 0.754502 0.648557
O O8 0.222127 0.837335 0.611366
O O9 0.246621 0.423772 0.908863
O O10 0.000000 0.443518 0.975022
O O11 0.202353 0.500000 0.000000
O O12 0.250000 0.750000 0.500000
O O13 0.000000 0.791493 0.458490
O O14 0.657914 0.391693 0.750000
O O15 0.500000 0.390626 0.890363
#
# Coordination Sequence:
#
# PCOD9473973 Si02
#       5
#    16  16  16  16  16
#     4  10  22  40  60  85 120 159 200 250 307 364
#     4   9  18  33  52  74 103 140 180 220 263 319
#     4  10  22  40  62  86 111 146 195 247 299 358
#     4  11  22  35  54  82 116 154 196 238 283 340
#     4  10  21  36  56  85 118 149 185 234 293 353
#
# _framework density 19.460270000000001
#
# number of rings (size 3 to 8) (size 9 to 14) (size 15 to 20)
#    0.000    2.000    0.000    3.000    0.000   10.800 
#    0.000    4.000    0.000    0.000    0.000    0.000 
#    0.000    0.000    0.000    0.000    0.000    0.000 
#
# Total GULP energy -222872.232627 kJ/mol
# GULP energy per Si atom -5571.805816 kJ/mol
# Density = 1.941598 g / cm^3
# Si number density = 19.460270 Si / 1000 Ang^3
#
#
#
# Elastic Constant Matrix: (Units=GPa)
#
#
# Indices 1 2 3 4 5 6 
#
# 1 94.9053 75.2841 51.4336 0.0000 0.0000 0.0000
# 2 75.2841 159.3574 42.1085 0.0000 0.0000 0.0000
# 3 51.4336 42.1085 90.5108 0.0000 0.0000 0.0000
# 4 0.0000 0.0000 0.0000 22.5864 0.0000 0.0000
# 5 0.0000 0.0000 0.0000 0.0000 25.2326 0.0000
# 6 0.0000 0.0000 0.0000 0.0000 0.0000 15.8131
#
#
#
# Elastic Compliance Matrix: (Units=1/GPa)
#
#
# Indices 1 2 3 4 5 6 
#
# 1 0.021364 -0.007850 -0.008488 0.000000 0.000000 0.000000
# 2 -0.007850 0.010039 -0.000210 0.000000 0.000000 0.000000
# 3 -0.008488 -0.000210 0.015970 0.000000 0.000000 0.000000
# 4 0.000000 0.000000 0.000000 0.044274 0.000000 0.000000
# 5 0.000000 0.000000 0.000000 0.000000 0.039631 0.000000
# 6 0.000000 0.000000 0.000000 0.000000 0.000000 0.063239
#
#
# Mechanical properties :
#
#
# Convention : Reuss Voigt Hill
#
# Bulk Modulus (GPa) = 70.04363 75.82508 72.93435
# Shear Modulus (GPa) = 21.51727 24.45626 22.98676
#
# Velocity S-wave (km/s) = 3.32882 3.54888 3.44061
# Velocity P-wave (km/s) = 7.13064 7.47271 7.30368
#
# Compressibility (1/GPa) = 0.01427682
#
# Stress axis : x y z
#
# Youngs Moduli (GPa) = 46.80783 99.61062 62.61934
#
# Poissons Ratio (x) = 0.78193 0.53153
# Poissons Ratio (y) = 0.36744 0.01313
# Poissons Ratio (z) = 0.39732 0.02089
#
# Static dielectric constant tensor:
#      x y z
#    x 1.723900 0.000000 0.000000 
#    y 0.000000 1.667200 0.000000 
#    z 0.000000 0.000000 1.795890 
# 
# From -- ./inp_files/40496.got.cif
#   From: 2010.05.17/outbox.cif.g08.bks.cpg/sg63_21_cif.got.tgz:40496.got - 2010.06.03 15:47:04.
