data_PCOD9473502
_publ_section_title
;
Structure prediction by ZEFSAII (Michael W. Deem and Ramdas Pophale) SiO2 
 PCOD9473502
Probable space group: C M C M
;
_chemical_formula_sum "Si O2"
_cell_formula_units_Z 80
_cell_length_a 7.540876
_cell_length_b 20.083483
_cell_length_c 24.436911
_cell_angle_alpha 90.000000
_cell_angle_beta 90.000000
_cell_angle_gamma 90.000000
_cell_volume 3700.898203
_symmetry_space_group_name_H-M "C M C M"
_symmetry_group_IT_number 63
_symmetry_cell_setting 'orthorhombic'
loop_
_space_group_symop_operation_xyz
x,y,z
-x,-y,1/2+z
x,-y,-z
-x,y,1/2-z
-x,-y,-z
x,y,1/2-z
-x,y,z
x,-y,1/2+z
1/2+x,1/2+y,z
1/2-x,1/2-y,1/2+z
1/2+x,1/2-y,-z
1/2-x,1/2+y,1/2-z
1/2-x,1/2-y,-z
1/2+x,1/2+y,1/2-z
1/2-x,1/2+y,z
1/2+x,1/2-y,1/2+z
loop_
_atom_site_type_symbol
_atom_site_label
_atom_site_fract_x
_atom_site_fract_y
_atom_site_fract_z
Si Si1 0.202425 0.759162 0.162678
Si Si2 0.782485 0.864675 0.250000
Si Si3 0.711572 0.517585 0.250000
Si Si4 0.211169 0.611379 0.352946
Si Si5 0.783036 0.430531 0.525835
Si Si6 0.210532 0.305801 0.455607
O O1 0.277009 0.819249 0.198924
O O2 0.283441 0.684803 0.163196
O O3 0.203319 0.784265 0.100755
O O4 0.000000 0.750911 0.182353
O O5 0.000000 0.869203 0.250000
O O6 0.720350 0.941244 0.250000
O O7 0.500000 0.514612 0.250000
O O8 0.763558 0.558788 0.195746
O O9 0.277596 0.585948 0.412234
O O10 0.000000 0.620562 0.360296
O O11 0.725652 0.500000 0.500000
O O12 0.727897 0.373677 0.483419
O O13 0.000000 0.430701 0.527449
O O14 0.250000 0.250000 0.500000
O O15 0.000000 0.310159 0.445989
#
# Coordination Sequence:
#
# PCOD9473502 Si02
#       6
#    16   8   8  16  16  16
#     4  10  20  39  63  84 109 149 197 236 276 335
#     4   9  21  39  59  81 114 151 184 234 296 343
#     4  11  24  39  55  83 118 147 182 236 294 337
#     4  10  20  38  62  83 108 153 197 227 273 340
#     4   9  19  35  56  84 117 149 186 230 277 330
#     4  11  21  36  59  88 118 150 185 232 284 334
#
# _framework density 21.616372999999999
#
# number of rings (size 3 to 8) (size 9 to 14) (size 15 to 20)
#    0.000    2.000    2.000    1.500    2.800    2.400 
#    0.000    1.500    0.000    3.000    0.000    0.000 
#    0.000    0.000    0.000    0.000    0.000    0.000 
#
# Total GULP energy -223351.746690 kJ/mol
# GULP energy per Si atom -5583.793667 kJ/mol
# Density = 2.156717 g / cm^3
# Si number density = 21.616373 Si / 1000 Ang^3
#
#
#
# Elastic Constant Matrix: (Units=GPa)
#
#
# Indices 1 2 3 4 5 6 
#
# 1 56.3030 0.0953 -7.3064 0.0000 0.0000 0.0000
# 2 0.0953 253.3082 102.8352 0.0000 0.0000 0.0000
# 3 -7.3064 102.8352 155.1237 0.0000 0.0000 0.0000
# 4 0.0000 0.0000 0.0000 34.4227 0.0000 0.0000
# 5 0.0000 0.0000 0.0000 0.0000 17.4452 0.0000
# 6 0.0000 0.0000 0.0000 0.0000 0.0000 0.3355
#
#
#
# Elastic Compliance Matrix: (Units=1/GPa)
#
#
# Indices 1 2 3 4 5 6 
#
# 1 0.017912 -0.000478 0.001160 0.000000 0.000000 0.000000
# 2 -0.000478 0.005414 -0.003612 0.000000 0.000000 0.000000
# 3 0.001160 -0.003612 0.008895 0.000000 0.000000 0.000000
# 4 0.000000 0.000000 0.000000 0.029051 0.000000 0.000000
# 5 0.000000 0.000000 0.000000 0.000000 0.057322 0.000000
# 6 0.000000 0.000000 0.000000 0.000000 0.000000 2.980337
#
#
# Mechanical properties :
#
#
# Convention : Reuss Voigt Hill
#
# Bulk Modulus (GPa) = 37.93071 72.88700 55.40886
# Shear Modulus (GPa) = 1.60587 35.04806 18.32697
#
# Velocity S-wave (km/s) = 0.86285 4.03099 2.91491
# Velocity P-wave (km/s) = 4.31022 7.44693 6.08419
#
# Compressibility (1/GPa) = 0.02636386
#
# Stress axis : x y z
#
# Youngs Moduli (GPa) = 55.82712 184.70037 112.41760
#
# Poissons Ratio (x) = 0.08826 -0.13046
# Poissons Ratio (y) = 0.02668 0.40602
# Poissons Ratio (z) = -0.06479 0.66708
#
# Static dielectric constant tensor:
#      x y z
#    x 1.824920 0.000000 0.000000 
#    y 0.000000 1.286200 0.000000 
#    z 0.000000 0.000000 1.743880 
# 
# From -- ./inp_files/66685.got.cif
#   From: 2010.05.17/outbox.cif.g08.bks.cpg/sg63_34_cif.got.tgz:66685.got - 2010.06.03 15:47:04.
