data_PCOD9473733
_publ_section_title
;
Structure prediction by ZEFSAII (Michael W. Deem and Ramdas Pophale) SiO2 
 PCOD9473733
Probable space group: C M C M
;
_chemical_formula_sum "Si O2"
_cell_formula_units_Z 64
_cell_length_a 15.760757
_cell_length_b 11.613124
_cell_length_c 14.646281
_cell_angle_alpha 90.000000
_cell_angle_beta 90.000000
_cell_angle_gamma 90.000000
_cell_volume 2680.732617
_symmetry_space_group_name_H-M "C M C M"
_symmetry_group_IT_number 63
_symmetry_cell_setting 'orthorhombic'
loop_
_space_group_symop_operation_xyz
x,y,z
-x,-y,1/2+z
x,-y,-z
-x,y,1/2-z
-x,-y,-z
x,y,1/2-z
-x,y,z
x,-y,1/2+z
1/2+x,1/2+y,z
1/2-x,1/2-y,1/2+z
1/2+x,1/2-y,-z
1/2-x,1/2+y,1/2-z
1/2-x,1/2-y,-z
1/2+x,1/2+y,1/2-z
1/2-x,1/2+y,z
1/2+x,1/2-y,1/2+z
loop_
_atom_site_type_symbol
_atom_site_label
_atom_site_fract_x
_atom_site_fract_y
_atom_site_fract_z
Si Si1 0.905944 0.107556 0.935866
Si Si2 0.904443 0.462453 0.857704
Si Si3 0.227622 0.738218 0.107466
Si Si4 0.907496 0.280631 0.102489
O O1 0.914559 0.212103 0.007727
O O2 0.000000 0.085164 0.895985
O O3 0.831428 0.151025 0.870098
O O4 0.881982 0.000000 0.000000
O O5 0.902510 0.492441 0.750000
O O6 0.829482 0.372805 0.874375
O O7 0.895448 0.582613 0.910630
O O8 0.000000 0.415370 0.876083
O O9 0.321442 0.737061 0.149457
O O10 0.250000 0.750000 0.000000
O O11 0.000000 0.265450 0.147316
#
# Coordination Sequence:
#
# PCOD9473733 Si02
#       4
#    16  16  16  16
#     4   9  18  32  53  84 121 153 191 249 310 363
#     4  10  22  41  62  85 118 160 208 260 312 374
#     4  10  21  33  60  87 120 152 204 254 313 362
#     4   9  20  36  57  84 116 155 199 247 305 363
#
# _framework density 23.87407
#
# number of rings (size 3 to 8) (size 9 to 14) (size 15 to 20)
#    0.000    2.500    0.000    0.750    7.000    5.000 
#    0.000   11.250    0.000    0.000    0.000    0.000 
#    0.000    0.000    0.000    0.000    0.000    0.000 
#
# Total GULP energy -178472.543607 kJ/mol
# GULP energy per Si atom -5577.266988 kJ/mol
# Density = 2.381973 g / cm^3
# Si number density = 23.874070 Si / 1000 Ang^3
#
#
#
# Elastic Constant Matrix: (Units=GPa)
#
#
# Indices 1 2 3 4 5 6 
#
# 1 238.3940 64.4983 -0.2092 0.0000 0.0000 0.0000
# 2 64.4983 122.5309 12.7344 0.0000 0.0000 0.0000
# 3 -0.2092 12.7344 57.9080 0.0000 0.0000 0.0000
# 4 0.0000 0.0000 0.0000 -10.4225 0.0000 0.0000
# 5 0.0000 0.0000 0.0000 0.0000 3.9527 0.0000
# 6 0.0000 0.0000 0.0000 0.0000 0.0000 31.9513
#
#
#
# Elastic Compliance Matrix: (Units=1/GPa)
#
#
# Indices 1 2 3 4 5 6 
#
# 1 0.004912 -0.002648 0.000600 0.000000 0.000000 0.000000
# 2 -0.002648 0.009779 -0.002160 0.000000 0.000000 0.000000
# 3 0.000600 -0.002160 0.017746 0.000000 0.000000 0.000000
# 4 0.000000 0.000000 0.000000 -0.095946 0.000000 0.000000
# 5 0.000000 0.000000 0.000000 0.000000 0.252990 0.000000
# 6 0.000000 0.000000 0.000000 0.000000 0.000000 0.031298
#
#
# Mechanical properties :
#
#
# Convention : Reuss Voigt Hill
#
# Bulk Modulus (GPa) = 41.62979 63.65330 52.64155
# Shear Modulus (GPa) = 21.07908 27.88360 24.48134
#
# Velocity S-wave (km/s) = 2.97463 3.42123 3.20572
# Velocity P-wave (km/s) = 5.41046 6.50587 5.98329
#
# Compressibility (1/GPa) = 0.02402126
#
# Stress axis : x y z
#
# Youngs Moduli (GPa) = 203.59873 102.25532 56.35083
#
# Poissons Ratio (x) = 0.27075 -0.03381
# Poissons Ratio (y) = 0.53908 0.12173
# Poissons Ratio (z) = -0.12216 0.22089
#
# Static dielectric constant tensor:
#      x y z
#    x 2.097250 0.000000 0.000000 
#    y 0.000000 1.898140 0.000000 
#    z 0.000000 0.000000 1.928590 
# 
# From -- ./inp_files/45143.got.cif
#   From: 2010.05.17/outbox.cif.g08.bks.cpg/sg63_23_cif.got.tgz:45143.got - 2010.06.03 15:47:04.
