data_PCOD9473020
_publ_section_title
;
Structure prediction by ZEFSAII (Michael W. Deem and Ramdas Pophale) SiO2 
 PCOD9473020
Probable space group: C M C M
;
_chemical_formula_sum "Si O2"
_cell_formula_units_Z 80
_cell_length_a 7.551487
_cell_length_b 30.637244
_cell_length_c 16.268777
_cell_angle_alpha 90.000000
_cell_angle_beta 90.000000
_cell_angle_gamma 90.000000
_cell_volume 3763.891370
_symmetry_space_group_name_H-M "C M C M"
_symmetry_group_IT_number 63
_symmetry_cell_setting 'orthorhombic'
loop_
_space_group_symop_operation_xyz
x,y,z
-x,-y,1/2+z
x,-y,-z
-x,y,1/2-z
-x,-y,-z
x,y,1/2-z
-x,y,z
x,-y,1/2+z
1/2+x,1/2+y,z
1/2-x,1/2-y,1/2+z
1/2+x,1/2-y,-z
1/2-x,1/2+y,1/2-z
1/2-x,1/2-y,-z
1/2+x,1/2+y,1/2-z
1/2-x,1/2+y,z
1/2+x,1/2-y,1/2+z
loop_
_atom_site_type_symbol
_atom_site_label
_atom_site_fract_x
_atom_site_fract_y
_atom_site_fract_z
Si Si1 0.707253 0.890737 0.250000
Si Si2 0.288056 0.542959 0.895678
Si Si3 0.283273 0.447282 0.915998
Si Si4 0.712070 0.734824 0.092020
Si Si5 0.283980 0.643860 0.343915
Si Si6 0.717749 0.208667 0.750000
O O1 0.500000 0.883917 0.250000
O O2 0.747826 0.920233 0.170536
O O3 0.782710 0.841600 0.250000
O O4 0.500000 0.540552 0.899381
O O5 0.226186 0.493478 0.876866
O O6 0.228330 0.553277 0.988367
O O7 0.500000 0.446918 0.913956
O O8 0.221444 0.403348 0.873052
O O9 0.500000 0.733689 0.100976
O O10 0.777495 0.685363 0.104415
O O11 0.774625 0.765871 0.166925
O O12 0.750000 0.750000 0.000000
O O13 0.235232 0.651727 0.250000
O O14 0.500000 0.642726 0.347894
O O15 0.500000 0.209036 0.750000
#
# Coordination Sequence:
#
# PCOD9473020 Si02
#       6
#     8  16  16  16  16   8
#     4  11  23  35  50  71 103 145 183 207 240 303
#     4   9  18  34  53  77 106 133 166 213 260 302
#     4   8  16  30  51  80 108 129 159 210 268 311
#     4  10  20  36  57  79 104 137 176 219 262 311
#     4   9  16  28  51  80 104 129 166 210 257 312
#     4   9  20  39  54  71 107 149 179 207 260 325
#
# _framework density 21.254598000000001
#
# number of rings (size 3 to 8) (size 9 to 14) (size 15 to 20)
#    0.000    2.800    1.000    1.500    4.200    0.000 
#    0.000    3.500    0.000    1.200    0.000    0.000 
#    0.000    0.000    0.000    0.000    0.000    0.000 
#
# Total GULP energy -223172.196388 kJ/mol
# GULP energy per Si atom -5579.304910 kJ/mol
# Density = 2.120622 g / cm^3
# Si number density = 21.254598 Si / 1000 Ang^3
#
#
#
# Elastic Constant Matrix: (Units=GPa)
#
#
# Indices 1 2 3 4 5 6 
#
# 1 45.2702 5.9904 -0.5420 0.0000 0.0000 0.0000
# 2 5.9904 176.0029 71.4480 0.0000 0.0000 0.0000
# 3 -0.5420 71.4480 98.1412 0.0000 0.0000 0.0000
# 4 0.0000 0.0000 0.0000 42.0108 0.0000 0.0000
# 5 0.0000 0.0000 0.0000 0.0000 -15.6320 0.0000
# 6 0.0000 0.0000 0.0000 0.0000 0.0000 8.6826
#
#
#
# Elastic Compliance Matrix: (Units=1/GPa)
#
#
# Indices 1 2 3 4 5 6 
#
# 1 0.022253 -0.001146 0.000957 0.000000 0.000000 0.000000
# 2 -0.001146 0.008124 -0.005921 0.000000 0.000000 0.000000
# 3 0.000957 -0.005921 0.014505 0.000000 0.000000 0.000000
# 4 0.000000 0.000000 0.000000 0.023803 0.000000 0.000000
# 5 0.000000 0.000000 0.000000 0.000000 -0.063971 0.000000
# 6 0.000000 0.000000 0.000000 0.000000 0.000000 0.115173
#
#
# Mechanical properties :
#
#
# Convention : Reuss Voigt Hill
#
# Bulk Modulus (GPa) = 30.61591 52.57856 41.59724
# Shear Modulus (GPa) = 34.96648 23.18014 29.07331
#
# Velocity S-wave (km/s) = 4.06041 3.30600 3.70247
# Velocity P-wave (km/s) = 6.03475 6.27408 6.15558
#
# Compressibility (1/GPa) = 0.03266275
#
# Stress axis : x y z
#
# Youngs Moduli (GPa) = 44.93844 123.08730 68.94078
#
# Poissons Ratio (x) = 0.14105 -0.06599
# Poissons Ratio (y) = 0.05150 0.40819
# Poissons Ratio (z) = -0.04301 0.72879
#
# Static dielectric constant tensor:
#      x y z
#    x 1.829170 0.000000 0.000000 
#    y 0.000000 1.783800 0.000000 
#    z 0.000000 0.000000 1.670170 
# 
# From -- ./inp_files/40612.got.cif
#   From: 2010.05.17/outbox.cif.g08.bks.cpg/sg63_21_cif.got.tgz:40612.got - 2010.06.03 15:47:04.
