data_PCOD9473263
_publ_section_title
;
Structure prediction by ZEFSAII (Michael W. Deem and Ramdas Pophale) SiO2 
 PCOD9473263
Probable space group: C M C M
;
_chemical_formula_sum "Si O2"
_cell_formula_units_Z 112
_cell_length_a 13.798483
_cell_length_b 14.553644
_cell_length_c 25.384715
_cell_angle_alpha 90.000000
_cell_angle_beta 90.000000
_cell_angle_gamma 90.000000
_cell_volume 5097.713010
_symmetry_space_group_name_H-M "C M C M"
_symmetry_group_IT_number 63
_symmetry_cell_setting 'orthorhombic'
loop_
_space_group_symop_operation_xyz
x,y,z
-x,-y,1/2+z
x,-y,-z
-x,y,1/2-z
-x,-y,-z
x,y,1/2-z
-x,y,z
x,-y,1/2+z
1/2+x,1/2+y,z
1/2-x,1/2-y,1/2+z
1/2+x,1/2-y,-z
1/2-x,1/2+y,1/2-z
1/2-x,1/2-y,-z
1/2+x,1/2+y,1/2-z
1/2-x,1/2+y,z
1/2+x,1/2-y,1/2+z
loop_
_atom_site_type_symbol
_atom_site_label
_atom_site_fract_x
_atom_site_fract_y
_atom_site_fract_z
Si Si1 0.723271 0.396524 0.503833
Si Si2 0.890079 0.175105 0.096422
Si Si3 0.890848 0.828259 0.089019
Si Si4 0.889438 0.611510 0.086752
Si Si5 0.382757 0.202216 0.692019
Si Si6 0.106044 0.994639 0.164083
Si Si7 0.820362 0.490477 0.692581
O O1 0.682563 0.500000 0.500000
O O2 0.665652 0.328182 0.542240
O O3 0.700737 0.357200 0.446508
O O4 0.825000 0.405823 0.534550
O O5 0.847297 0.236609 0.143414
O O6 0.891216 0.070392 0.117467
O O7 0.000000 0.205569 0.087229
O O8 0.886456 0.720223 0.098168
O O9 0.000000 0.846474 0.064874
O O10 0.888389 0.892903 0.139937
O O11 0.851821 0.561368 0.139489
O O12 0.000000 0.583354 0.077283
O O13 0.349513 0.235028 0.750000
O O14 0.500000 0.208733 0.691727
O O15 0.353537 0.096325 0.686736
O O16 0.204085 0.011897 0.194675
O O17 0.000000 0.007193 0.189425
O O18 0.858494 0.457546 0.750000
#
# Coordination Sequence:
#
# PCOD9473263 Si02
#       7
#    16  16  16  16  16  16  16
#     4  12  22  40  66  94 126 169 214 260 317 380
#     4  10  20  36  62  94 125 160 205 265 321 372
#     4  10  22  41  66  93 129 170 212 260 315 384
#     4  11  25  44  63  92 130 168 216 269 315 376
#     4   9  20  39  64  93 121 158 213 269 318 371
#     4  10  21  39  62  94 132 165 204 259 317 374
#     4  11  23  42  69  93 123 171 214 261 320 380
#
# _framework density 21.970637
#
# number of rings (size 3 to 8) (size 9 to 14) (size 15 to 20)
#    0.000    1.571    2.857    1.286    2.000    2.571 
#    2.571    2.143    0.000    2.571    0.000    0.000 
#    0.000    0.000    0.000    0.000    0.000    0.000 
#
# Total GULP energy -312578.220831 kJ/mol
# GULP energy per Si atom -5581.753943 kJ/mol
# Density = 2.192063 g / cm^3
# Si number density = 21.970637 Si / 1000 Ang^3
#
#
#
# Elastic Constant Matrix: (Units=GPa)
#
#
# Indices 1 2 3 4 5 6 
#
# 1 85.6867 -6.8249 49.7809 0.0000 0.0000 0.0000
# 2 -6.8249 56.1842 7.5984 0.0000 0.0000 0.0000
# 3 49.7809 7.5984 60.8425 0.0000 0.0000 0.0000
# 4 0.0000 0.0000 0.0000 126.9910 0.0000 0.0000
# 5 0.0000 0.0000 0.0000 0.0000 2.0509 0.0000
# 6 0.0000 0.0000 0.0000 0.0000 0.0000 21.3995
#
#
#
# Elastic Compliance Matrix: (Units=1/GPa)
#
#
# Indices 1 2 3 4 5 6 
#
# 1 0.023879 0.005638 -0.020242 0.000000 0.000000 0.000000
# 2 0.005638 0.019436 -0.007040 0.000000 0.000000 0.000000
# 3 -0.020242 -0.007040 0.033877 0.000000 0.000000 0.000000
# 4 0.000000 0.000000 0.000000 0.007875 0.000000 0.000000
# 5 0.000000 0.000000 0.000000 0.000000 0.487594 0.000000
# 6 0.000000 0.000000 0.000000 0.000000 0.000000 0.046730
#
#
# Mechanical properties :
#
#
# Convention : Reuss Voigt Hill
#
# Bulk Modulus (GPa) = 29.49539 33.75803 31.62671
# Shear Modulus (GPa) = 7.41861 40.23220 23.82540
#
# Velocity S-wave (km/s) = 1.83955 4.28387 3.29663
# Velocity P-wave (km/s) = 4.23863 6.31405 5.37741
#
# Compressibility (1/GPa) = 0.03390361
#
# Stress axis : x y z
#
# Youngs Moduli (GPa) = 41.87693 51.45175 29.51838
#
# Poissons Ratio (x) = -0.29010 0.59752
# Poissons Ratio (y) = -0.23612 0.20782
# Poissons Ratio (z) = 0.84768 0.36225
#
# Static dielectric constant tensor:
#      x y z
#    x 1.872610 0.000000 0.000000 
#    y 0.000000 1.769790 0.000000 
#    z 0.000000 0.000000 1.724980 
# 
# From -- ./inp_files/69430.got.cif
#   From: 2010.05.17/outbox.cif.g08.bks.cpg/sg63_35_cif.got.tgz:69430.got - 2010.06.03 15:47:04.
