data_PCOD9473225
_publ_section_title
;
Structure prediction by ZEFSAII (Michael W. Deem and Ramdas Pophale) SiO2 
 PCOD9473225
Probable space group: C M C M
;
_chemical_formula_sum "Si O2"
_cell_formula_units_Z 116
_cell_length_a 18.157297
_cell_length_b 33.494985
_cell_length_c 10.579627
_cell_angle_alpha 90.000000
_cell_angle_beta 90.000000
_cell_angle_gamma 90.000000
_cell_volume 6434.300523
_symmetry_space_group_name_H-M "C M C M"
_symmetry_group_IT_number 63
_symmetry_cell_setting 'orthorhombic'
loop_
_space_group_symop_operation_xyz
x,y,z
-x,-y,1/2+z
x,-y,-z
-x,y,1/2-z
-x,-y,-z
x,y,1/2-z
-x,y,z
x,-y,1/2+z
1/2+x,1/2+y,z
1/2-x,1/2-y,1/2+z
1/2+x,1/2-y,-z
1/2-x,1/2+y,1/2-z
1/2-x,1/2-y,-z
1/2+x,1/2+y,1/2-z
1/2-x,1/2+y,z
1/2+x,1/2-y,1/2+z
loop_
_atom_site_type_symbol
_atom_site_label
_atom_site_fract_x
_atom_site_fract_y
_atom_site_fract_z
Si Si1 0.411972 0.529233 0.109326
Si Si2 0.000000 0.319578 0.250000
Si Si3 0.687058 0.965644 0.603054
Si Si4 0.415533 0.738793 0.598769
Si Si5 0.867589 0.682026 0.957093
Si Si6 0.185294 0.101213 0.105345
Si Si7 0.701017 0.669485 0.603594
Si Si8 0.085237 0.605041 0.400368
O O1 0.384488 0.517751 0.250000
O O2 0.500000 0.526381 0.110347
O O3 0.388058 0.574731 0.088214
O O4 0.383658 0.500000 0.000000
O O5 0.934203 0.319402 0.141989
O O6 0.683361 0.979700 0.750000
O O7 0.500000 0.891350 0.564831
O O8 0.696647 0.000000 0.500000
O O9 0.615301 0.939037 0.571871
O O10 0.417784 0.741646 0.750000
O O11 0.500000 0.731810 0.554029
O O12 0.385361 0.780193 0.544655
O O13 0.358890 0.703240 0.568403
O O14 0.784858 0.685570 0.903819
O O15 0.870827 0.640118 0.031722
O O16 0.187744 0.117312 0.250000
O O17 0.248281 0.067294 0.096294
O O18 0.193235 0.133937 0.997431
O O19 0.687543 0.657105 0.750000
O O20 0.092808 0.610571 0.250000
#
# Coordination Sequence:
#
# PCOD9473225 Si02
#       8
#    16   4  16  16  16  16  16  16
#     4   9  18  33  55  82 113 147 193 244 294 353
#     4  12  24  36  62  88 128 152 194 254 294 348
#     4  10  21  37  55  81 112 147 191 237 288 347
#     4  10  22  41  63  87 117 155 198 240 290 349
#     4  12  21  40  60  88 120 156 195 243 299 345
#     4  10  21  38  57  81 115 153 195 239 290 354
#     4  11  24  39  59  89 121 152 195 248 292 348
#     4  10  20  36  61  84 110 149 198 240 283 348
#
# _framework density 18.028376999999999
#
# number of rings (size 3 to 8) (size 9 to 14) (size 15 to 20)
#    0.000    1.655    3.448    1.241    0.000    3.586 
#    2.483    0.000    0.000    0.000    0.000    0.000 
#    0.000    0.000    0.000    0.000    0.000    0.000 
#
# Total GULP energy -322914.463933 kJ/mol
# GULP energy per Si atom -5567.490757 kJ/mol
# Density = 1.798734 g / cm^3
# Si number density = 18.028377 Si / 1000 Ang^3
#
#
#
# Elastic Constant Matrix: (Units=GPa)
#
#
# Indices 1 2 3 4 5 6 
#
# 1 73.3155 39.4465 43.7967 0.0000 0.0000 0.0000
# 2 39.4465 93.9445 73.0404 0.0000 0.0000 0.0000
# 3 43.7967 73.0404 86.6280 0.0000 0.0000 0.0000
# 4 0.0000 0.0000 0.0000 32.6660 0.0000 0.0000
# 5 0.0000 0.0000 0.0000 0.0000 24.8336 0.0000
# 6 0.0000 0.0000 0.0000 0.0000 0.0000 25.3040
#
#
#
# Elastic Compliance Matrix: (Units=1/GPa)
#
#
# Indices 1 2 3 4 5 6 
#
# 1 0.019617 -0.001527 -0.008630 0.000000 0.000000 0.000000
# 2 -0.001527 0.031021 -0.025383 0.000000 0.000000 0.000000
# 3 -0.008630 -0.025383 0.037309 0.000000 0.000000 0.000000
# 4 0.000000 0.000000 0.000000 0.030613 0.000000 0.000000
# 5 0.000000 0.000000 0.000000 0.000000 0.040268 0.000000
# 6 0.000000 0.000000 0.000000 0.000000 0.000000 0.039519
#
#
# Mechanical properties :
#
#
# Convention : Reuss Voigt Hill
#
# Bulk Modulus (GPa) = 59.29306 62.93950 61.11628
# Shear Modulus (GPa) = 18.17859 23.06767 20.62313
#
# Velocity S-wave (km/s) = 3.17887 3.58092 3.38587
# Velocity P-wave (km/s) = 6.81423 7.21696 7.01848
#
# Compressibility (1/GPa) = 0.01686538
#
# Stress axis : x y z
#
# Youngs Moduli (GPa) = 50.97695 32.23642 26.80354
#
# Poissons Ratio (x) = 0.04923 0.23132
# Poissons Ratio (y) = 0.07785 0.68036
# Poissons Ratio (z) = 0.43993 0.81826
#
# Static dielectric constant tensor:
#      x y z
#    x 1.670900 0.000000 0.000000 
#    y 0.000000 1.588620 0.000000 
#    z 0.000000 0.000000 1.621120 
# 
# From -- ./inp_files/21670.got.cif
#   From: 2010.05.17/outbox.cif.g08.bks.cpg/sg63_11_cif.got.tgz:21670.got - 2010.06.03 15:47:04.
