data_PCOD9473656
_publ_section_title
;
Structure prediction by ZEFSAII (Michael W. Deem and Ramdas Pophale) SiO2 
 PCOD9473656
Probable space group: C M C M
;
_chemical_formula_sum "Si O2"
_cell_formula_units_Z 68
_cell_length_a 21.199794
_cell_length_b 9.487826
_cell_length_c 15.353229
_cell_angle_alpha 90.000000
_cell_angle_beta 90.000000
_cell_angle_gamma 90.000000
_cell_volume 3088.147816
_symmetry_space_group_name_H-M "C M C M"
_symmetry_group_IT_number 63
_symmetry_cell_setting 'orthorhombic'
loop_
_space_group_symop_operation_xyz
x,y,z
-x,-y,1/2+z
x,-y,-z
-x,y,1/2-z
-x,-y,-z
x,y,1/2-z
-x,y,z
x,-y,1/2+z
1/2+x,1/2+y,z
1/2-x,1/2-y,1/2+z
1/2+x,1/2-y,-z
1/2-x,1/2+y,1/2-z
1/2-x,1/2-y,-z
1/2+x,1/2+y,1/2-z
1/2-x,1/2+y,z
1/2+x,1/2-y,1/2+z
loop_
_atom_site_type_symbol
_atom_site_label
_atom_site_fract_x
_atom_site_fract_y
_atom_site_fract_z
Si Si1 0.220806 0.699105 0.093174
Si Si2 0.899747 0.505536 0.904933
Si Si3 0.428582 0.301688 0.852691
Si Si4 0.826457 0.003544 0.605638
Si Si5 0.500000 0.949729 0.750000
O O1 0.163133 0.588703 0.087794
O O2 0.194162 0.841935 0.134759
O O3 0.276646 0.612425 0.138314
O O4 0.250000 0.750000 0.000000
O O5 0.888180 0.672377 0.889929
O O6 0.944903 0.456649 0.827093
O O7 0.930183 0.500000 0.000000
O O8 0.433060 0.276538 0.750000
O O9 0.500000 0.295782 0.887915
O O10 0.395130 0.449796 0.868228
O O11 0.824899 0.000000 0.500000
#
# Coordination Sequence:
#
# PCOD9473656 Si02
#       5
#    16  16  16  16   4
#     4  10  21  41  71 104 134 181 245 299 359 435
#     4  12  22  45  75 102 146 194 235 306 362 440
#     4  11  23  44  65 100 146 189 237 293 360 446
#     4  10  20  40  65  98 129 174 237 291 354 430
#     4  12  26  44  64 120 148 180 260 286 378 452
#
# _framework density 22.019670999999999
#
# number of rings (size 3 to 8) (size 9 to 14) (size 15 to 20)
#    0.000    1.176    2.353    6.706    0.000    0.471 
#    6.353    0.000    0.000    0.000    0.000    0.000 
#    0.000    0.000    0.000    0.000    0.000    0.000 
#
# Total GULP energy -189312.608233 kJ/mol
# GULP energy per Si atom -5568.017889 kJ/mol
# Density = 2.196955 g / cm^3
# Si number density = 22.019671 Si / 1000 Ang^3
#
#
#
# Elastic Constant Matrix: (Units=GPa)
#
#
# Indices 1 2 3 4 5 6 
#
# 1 135.6672 66.9364 26.9592 0.0000 0.0000 0.0000
# 2 66.9364 151.4314 1.7445 0.0000 0.0000 0.0000
# 3 26.9592 1.7445 109.7953 0.0000 0.0000 0.0000
# 4 0.0000 0.0000 0.0000 13.1718 0.0000 0.0000
# 5 0.0000 0.0000 0.0000 0.0000 48.8968 0.0000
# 6 0.0000 0.0000 0.0000 0.0000 0.0000 -39.5656
#
#
#
# Elastic Compliance Matrix: (Units=1/GPa)
#
#
# Indices 1 2 3 4 5 6 
#
# 1 0.010017 -0.004400 -0.002390 0.000000 0.000000 0.000000
# 2 -0.004400 0.008538 0.000945 0.000000 0.000000 0.000000
# 3 -0.002390 0.000945 0.009680 0.000000 0.000000 0.000000
# 4 0.000000 0.000000 0.000000 0.075920 0.000000 0.000000
# 5 0.000000 0.000000 0.000000 0.000000 0.020451 0.000000
# 6 0.000000 0.000000 0.000000 0.000000 0.000000 -0.025274
#
#
# Mechanical properties :
#
#
# Convention : Reuss Voigt Hill
#
# Bulk Modulus (GPa) = 60.44440 65.35268 62.89854
# Shear Modulus (GPa) = 42.90547 24.58419 33.74483
#
# Velocity S-wave (km/s) = 4.41898 3.34498 3.91894
# Velocity P-wave (km/s) = 7.31753 6.68298 7.00744
#
# Compressibility (1/GPa) = 0.01654413
#
# Stress axis : x y z
#
# Youngs Moduli (GPa) = 99.83220 117.12708 103.31011
#
# Poissons Ratio (x) = 0.51538 0.24687
# Poissons Ratio (y) = 0.43928 -0.09760
# Poissons Ratio (z) = 0.23856 -0.11066
#
# Static dielectric constant tensor:
#      x y z
#    x 1.931490 0.000000 0.000000 
#    y 0.000000 1.849380 0.000000 
#    z 0.000000 0.000000 1.817560 
# 
# From -- ./inp_files/46616.got.cif
#   From: 2010.05.17/outbox.cif.g08.bks.cpg/sg63_24_cif.got.tgz:46616.got - 2010.06.03 15:47:04.
