data_PCOD9473630
_publ_section_title
;
Structure prediction by ZEFSAII (Michael W. Deem and Ramdas Pophale) SiO2 
 PCOD9473630
Probable space group: C M C M
;
_chemical_formula_sum "Si O2"
_cell_formula_units_Z 96
_cell_length_a 14.854519
_cell_length_b 20.120260
_cell_length_c 16.657056
_cell_angle_alpha 90.000000
_cell_angle_beta 90.000000
_cell_angle_gamma 90.000000
_cell_volume 4978.407336
_symmetry_space_group_name_H-M "C M C M"
_symmetry_group_IT_number 63
_symmetry_cell_setting 'orthorhombic'
loop_
_space_group_symop_operation_xyz
x,y,z
-x,-y,1/2+z
x,-y,-z
-x,y,1/2-z
-x,-y,-z
x,y,1/2-z
-x,y,z
x,-y,1/2+z
1/2+x,1/2+y,z
1/2-x,1/2-y,1/2+z
1/2+x,1/2-y,-z
1/2-x,1/2+y,1/2-z
1/2-x,1/2-y,-z
1/2+x,1/2+y,1/2-z
1/2-x,1/2+y,z
1/2+x,1/2-y,1/2+z
loop_
_atom_site_type_symbol
_atom_site_label
_atom_site_fract_x
_atom_site_fract_y
_atom_site_fract_z
Si Si1 0.682102 0.584904 0.346642
Si Si2 0.000000 0.943530 0.567210
Si Si3 0.310790 0.029349 0.653286
Si Si4 0.500000 0.054289 0.930618
Si Si5 0.681303 0.349057 0.345526
Si Si6 0.500000 0.672508 0.557118
Si Si7 0.500000 0.791089 0.446450
Si Si8 0.170083 0.761074 0.654076
O O1 0.678953 0.582329 0.250000
O O2 0.590218 0.553860 0.380452
O O3 0.766540 0.540350 0.373342
O O4 0.686373 0.662366 0.369625
O O5 0.000000 0.872934 0.522084
O O6 0.000000 0.000000 0.500000
O O7 0.315670 0.029951 0.750000
O O8 0.409118 0.043003 0.619706
O O9 0.241562 0.087775 0.629560
O O10 0.500000 0.130365 0.959950
O O11 0.500000 0.000000 0.000000
O O12 0.664120 0.354523 0.250000
O O13 0.588821 0.344435 0.392885
O O14 0.742199 0.283879 0.359332
O O15 0.500000 0.748345 0.527650
O O16 0.587304 0.769485 0.394930
O O17 0.149737 0.759070 0.750000
#
# Coordination Sequence:
#
# PCOD9473630 Si02
#       8
#    16   8  16   8  16   8   8  16
#     4  10  21  40  64  93 124 162 210 264 320 375
#     4  12  23  37  56  90 128 167 202 250 316 390
#     4  10  22  42  68  91 120 166 217 264 307 366
#     4  12  27  43  62  96 133 169 212 260 318 379
#     4  10  22  41  64  89 119 165 217 261 306 371
#     4  12  25  38  57  93 130 166 199 253 330 385
#     4  12  23  42  63  97 127 166 209 265 324 370
#     4  10  20  39  69  95 119 160 217 270 313 364
#
# _framework density 19.283276000000001
#
# number of rings (size 3 to 8) (size 9 to 14) (size 15 to 20)
#    0.000    1.333    3.333    2.000    0.000    6.000 
#    0.000    3.333    0.000    5.000    0.000    0.000 
#    0.000    0.000    0.000    0.000    0.000    0.000 
#
# Total GULP energy -268355.769478 kJ/mol
# GULP energy per Si atom -5590.745197 kJ/mol
# Density = 1.923939 g / cm^3
# Si number density = 19.283276 Si / 1000 Ang^3
#
#
#
# Elastic Constant Matrix: (Units=GPa)
#
#
# Indices 1 2 3 4 5 6 
#
# 1 156.2575 58.6326 49.4853 0.0000 0.0000 0.0000
# 2 58.6326 151.9416 32.4540 0.0000 0.0000 0.0000
# 3 49.4853 32.4540 23.7872 0.0000 0.0000 0.0000
# 4 0.0000 0.0000 0.0000 30.2344 0.0000 0.0000
# 5 0.0000 0.0000 0.0000 0.0000 95.3352 0.0000
# 6 0.0000 0.0000 0.0000 0.0000 0.0000 31.2620
#
#
#
# Elastic Compliance Matrix: (Units=1/GPa)
#
#
# Indices 1 2 3 4 5 6 
#
# 1 0.019019 0.001569 -0.041707 0.000000 0.000000 0.000000
# 2 0.001569 0.009418 -0.016113 0.000000 0.000000 0.000000
# 3 -0.041707 -0.016113 0.150787 0.000000 0.000000 0.000000
# 4 0.000000 0.000000 0.000000 0.033075 0.000000 0.000000
# 5 0.000000 0.000000 0.000000 0.000000 0.010489 0.000000
# 6 0.000000 0.000000 0.000000 0.000000 0.000000 0.031988
#
#
# Mechanical properties :
#
#
# Convention : Reuss Voigt Hill
#
# Bulk Modulus (GPa) = 14.98751 68.12556 41.55654
# Shear Modulus (GPa) = 12.83637 44.12729 28.48183
#
# Velocity S-wave (km/s) = 2.58286 4.78888 3.84737
# Velocity P-wave (km/s) = 4.08461 8.12302 6.42913
#
# Compressibility (1/GPa) = 0.06672222
#
# Stress axis : x y z
#
# Youngs Moduli (GPa) = 52.57889 106.18325 6.63186
#
# Poissons Ratio (x) = -0.16661 0.27659
# Poissons Ratio (y) = -0.08250 0.10686
# Poissons Ratio (z) = 2.19289 1.71096
#
# Static dielectric constant tensor:
#      x y z
#    x 1.627580 0.000000 0.000000 
#    y 0.000000 1.690210 0.000000 
#    z 0.000000 0.000000 1.661140 
# 
# From -- ./inp_files/32024.got.cif
#   From: 2010.05.17/outbox.cif.g08.bks.cpg/sg63_17_cif.got.tgz:32024.got - 2010.06.03 15:47:04.
