data_PCOD9473726
_publ_section_title
;
Structure prediction by ZEFSAII (Michael W. Deem and Ramdas Pophale) SiO2 
 PCOD9473726
Probable space group: C M C M
;
_chemical_formula_sum "Si O2"
_cell_formula_units_Z 80
_cell_length_a 22.327879
_cell_length_b 17.998892
_cell_length_c 11.621188
_cell_angle_alpha 90.000000
_cell_angle_beta 90.000000
_cell_angle_gamma 90.000000
_cell_volume 4670.289131
_symmetry_space_group_name_H-M "C M C M"
_symmetry_group_IT_number 63
_symmetry_cell_setting 'orthorhombic'
loop_
_space_group_symop_operation_xyz
x,y,z
-x,-y,1/2+z
x,-y,-z
-x,y,1/2-z
-x,-y,-z
x,y,1/2-z
-x,y,z
x,-y,1/2+z
1/2+x,1/2+y,z
1/2-x,1/2-y,1/2+z
1/2+x,1/2-y,-z
1/2-x,1/2+y,1/2-z
1/2-x,1/2-y,-z
1/2+x,1/2+y,1/2-z
1/2-x,1/2+y,z
1/2+x,1/2-y,1/2+z
loop_
_atom_site_type_symbol
_atom_site_label
_atom_site_fract_x
_atom_site_fract_y
_atom_site_fract_z
Si Si1 0.500000 0.198133 0.458614
Si Si2 0.500000 0.913909 0.750000
Si Si3 0.801500 0.412774 0.516678
Si Si4 0.628136 0.881150 0.750000
Si Si5 0.628584 0.295162 0.250000
Si Si6 0.000000 0.812703 0.250000
Si Si7 0.882689 0.702164 0.884551
Si Si8 0.197165 0.810864 0.490369
O O1 0.500000 0.129526 0.371083
O O2 0.500000 0.267162 0.370692
O O3 0.558243 0.196165 0.537996
O O4 0.570639 0.936962 0.750000
O O5 0.807221 0.500000 0.500000
O O6 0.832115 0.392094 0.637501
O O7 0.837975 0.364502 0.422234
O O8 0.732421 0.386570 0.514120
O O9 0.609546 0.793121 0.750000
O O10 0.567726 0.343921 0.250000
O O11 0.667244 0.308428 0.364505
O O12 0.895356 0.698592 0.750000
O O13 0.851118 0.779974 0.919387
O O14 0.250000 0.750000 0.500000
#
# Coordination Sequence:
#
# PCOD9473726 Si02
#       8
#     8   4  16   8   8   4  16  16
#     4  11  17  34  54  84 106 137 177 232 272 319
#     4  11  16  34  58  76 100 144 198 223 254 319
#     4  11  25  37  53  79 111 149 185 220 270 321
#     4  12  19  37  59  73 108 146 188 226 268 319
#     4  12  17  35  59  83 102 138 182 234 268 321
#     4  11  16  30  58  84 108 128 182 231 274 323
#     4  11  22  35  54  81 112 141 178 227 275 321
#     4  10  21  33  55  79 106 140 181 222 272 320
#
# _framework density 17.129560999999999
#
# number of rings (size 3 to 8) (size 9 to 14) (size 15 to 20)
#    0.000    1.000   10.000    0.300    8.400    0.000 
#    0.000    2.000    0.000    0.000    0.000    2.800 
#    0.000    0.000    0.000    0.000    0.000    0.000 
#
# Total GULP energy -222789.913137 kJ/mol
# GULP energy per Si atom -5569.747828 kJ/mol
# Density = 1.709057 g / cm^3
# Si number density = 17.129561 Si / 1000 Ang^3
#
#
#
# Elastic Constant Matrix: (Units=GPa)
#
#
# Indices 1 2 3 4 5 6 
#
# 1 112.9790 29.5308 47.7695 0.0000 0.0000 0.0000
# 2 29.5308 36.6904 19.1206 0.0000 0.0000 0.0000
# 3 47.7695 19.1206 139.9902 0.0000 0.0000 0.0000
# 4 0.0000 0.0000 0.0000 6.9855 0.0000 0.0000
# 5 0.0000 0.0000 0.0000 0.0000 17.2089 0.0000
# 6 0.0000 0.0000 0.0000 0.0000 0.0000 5.8345
#
#
#
# Elastic Compliance Matrix: (Units=1/GPa)
#
#
# Indices 1 2 3 4 5 6 
#
# 1 0.012323 -0.008319 -0.003069 0.000000 0.000000 0.000000
# 2 -0.008319 0.034960 -0.001936 0.000000 0.000000 0.000000
# 3 -0.003069 -0.001936 0.008455 0.000000 0.000000 0.000000
# 4 0.000000 0.000000 0.000000 0.143153 0.000000 0.000000
# 5 0.000000 0.000000 0.000000 0.000000 0.058110 0.000000
# 6 0.000000 0.000000 0.000000 0.000000 0.000000 0.171395
#
#
# Mechanical properties :
#
#
# Convention : Reuss Voigt Hill
#
# Bulk Modulus (GPa) = 34.37652 53.61128 43.99390
# Shear Modulus (GPa) = 10.75868 18.88835 14.82352
#
# Velocity S-wave (km/s) = 2.50887 3.32426 2.94492
# Velocity P-wave (km/s) = 5.33897 6.78968 6.10755
#
# Compressibility (1/GPa) = 0.02908962
#
# Stress axis : x y z
#
# Youngs Moduli (GPa) = 81.14722 28.60412 118.27311
#
# Poissons Ratio (x) = 0.23797 0.36296
# Poissons Ratio (y) = 0.67509 0.22900
# Poissons Ratio (z) = 0.24903 0.05538
#
# Static dielectric constant tensor:
#      x y z
#    x 1.652550 0.000000 0.000000 
#    y 0.000000 1.589990 0.000000 
#    z 0.000000 0.000000 1.560930 
# 
# From -- ./inp_files/23887.got.cif
#   From: 2010.05.17/outbox.cif.g08.bks.cpg/sg63_12_cif.got.tgz:23887.got - 2010.06.03 15:47:04.
