data_PCOD9473237
_publ_section_title
;
Structure prediction by ZEFSAII (Michael W. Deem and Ramdas Pophale) SiO2 
 PCOD9473237
Probable space group: C M C M
;
_chemical_formula_sum "Si O2"
_cell_formula_units_Z 80
_cell_length_a 23.758497
_cell_length_b 20.045480
_cell_length_c 8.670464
_cell_angle_alpha 90.000000
_cell_angle_beta 90.000000
_cell_angle_gamma 90.000000
_cell_volume 4129.312611
_symmetry_space_group_name_H-M "C M C M"
_symmetry_group_IT_number 63
_symmetry_cell_setting 'orthorhombic'
loop_
_space_group_symop_operation_xyz
x,y,z
-x,-y,1/2+z
x,-y,-z
-x,y,1/2-z
-x,-y,-z
x,y,1/2-z
-x,y,z
x,-y,1/2+z
1/2+x,1/2+y,z
1/2-x,1/2-y,1/2+z
1/2+x,1/2-y,-z
1/2-x,1/2+y,1/2-z
1/2-x,1/2-y,-z
1/2+x,1/2+y,1/2-z
1/2-x,1/2+y,z
1/2+x,1/2-y,1/2+z
loop_
_atom_site_type_symbol
_atom_site_label
_atom_site_fract_x
_atom_site_fract_y
_atom_site_fract_z
Si Si1 0.438257 0.437075 0.931248
Si Si2 0.341011 0.074941 0.065319
Si Si3 0.433630 0.829319 0.063160
Si Si4 0.130586 0.193057 0.068182
Si Si5 0.246850 0.175222 0.931991
O O1 0.441551 0.449896 0.750000
O O2 0.500000 0.436155 0.004936
O O3 0.415636 0.363484 0.946465
O O4 0.405311 0.500000 0.000000
O O5 0.340730 0.073037 0.250000
O O6 0.399164 0.108517 0.005711
O O7 0.290465 0.123670 0.008100
O O8 0.334571 0.000000 0.000000
O O9 0.432359 0.832804 0.250000
O O10 0.500000 0.825574 0.018327
O O11 0.396939 0.763422 0.019569
O O12 0.146929 0.199260 0.250000
O O13 0.182053 0.162636 0.972149
O O14 0.257529 0.175684 0.750000
O O15 0.250000 0.250000 0.000000
#
# Coordination Sequence:
#
# PCOD9473237 Si02
#       5
#    16  16  16  16  16
#     4   9  18  33  53  80 117 161 204 248 299 354
#     4  12  26  45  68  95 128 167 211 265 321 380
#     4  10  21  39  65  95 127 167 214 264 319 379
#     4  10  20  36  61  90 124 163 209 258 309 370
#     4  12  24  41  65  93 125 163 205 254 311 373
#
# _framework density 19.373683
#
# number of rings (size 3 to 8) (size 9 to 14) (size 15 to 20)
#    0.000    1.400    2.000    4.200    0.000    4.800 
#    0.000    2.000    0.000    3.600    0.000    0.000 
#    0.000    0.000    0.000    0.000    0.000    0.000 
#
# Total GULP energy -223003.544847 kJ/mol
# GULP energy per Si atom -5575.088621 kJ/mol
# Density = 1.932959 g / cm^3
# Si number density = 19.373683 Si / 1000 Ang^3
#
#
#
# Elastic Constant Matrix: (Units=GPa)
#
#
# Indices 1 2 3 4 5 6 
#
# 1 108.7942 49.4346 40.7119 0.0000 0.0000 0.0000
# 2 49.4346 143.5176 48.6287 0.0000 0.0000 0.0000
# 3 40.7119 48.6287 71.0289 0.0000 0.0000 0.0000
# 4 0.0000 0.0000 0.0000 30.2189 0.0000 0.0000
# 5 0.0000 0.0000 0.0000 0.0000 26.3594 0.0000
# 6 0.0000 0.0000 0.0000 0.0000 0.0000 65.4840
#
#
#
# Elastic Compliance Matrix: (Units=1/GPa)
#
#
# Indices 1 2 3 4 5 6 
#
# 1 0.012309 -0.002408 -0.005407 0.000000 0.000000 0.000000
# 2 -0.002408 0.009543 -0.005154 0.000000 0.000000 0.000000
# 3 -0.005407 -0.005154 0.020706 0.000000 0.000000 0.000000
# 4 0.000000 0.000000 0.000000 0.033092 0.000000 0.000000
# 5 0.000000 0.000000 0.000000 0.000000 0.037937 0.000000
# 6 0.000000 0.000000 0.000000 0.000000 0.000000 0.015271
#
#
# Mechanical properties :
#
#
# Convention : Reuss Voigt Hill
#
# Bulk Modulus (GPa) = 60.16062 66.76568 63.46315
# Shear Modulus (GPa) = 31.18462 36.71681 33.95072
#
# Velocity S-wave (km/s) = 4.01638 4.35810 4.19073
# Velocity P-wave (km/s) = 7.25456 7.73698 7.49965
#
# Compressibility (1/GPa) = 0.01662217
#
# Stress axis : x y z
#
# Youngs Moduli (GPa) = 81.24140 104.78452 48.29497
#
# Poissons Ratio (x) = 0.25231 0.26112
# Poissons Ratio (y) = 0.19562 0.24889
# Poissons Ratio (z) = 0.43925 0.54002
#
# Static dielectric constant tensor:
#      x y z
#    x 1.876850 0.000000 0.000000 
#    y 0.000000 1.803030 0.000000 
#    z 0.000000 0.000000 1.691850 
# 
# From -- ./inp_files/12063.got.cif
#   From: 2010.05.17/outbox.cif.g08.bks.cpg/sg63_7_cif.got.tgz:12063.got - 2010.06.03 15:47:04.
