data_PCOD9473577
_publ_section_title
;
Structure prediction by ZEFSAII (Michael W. Deem and Ramdas Pophale) SiO2 
 PCOD9473577
Probable space group: C M C M
;
_chemical_formula_sum "Si O2"
_cell_formula_units_Z 96
_cell_length_a 17.549149
_cell_length_b 12.888763
_cell_length_c 24.160375
_cell_angle_alpha 90.000000
_cell_angle_beta 90.000000
_cell_angle_gamma 90.000000
_cell_volume 5464.758447
_symmetry_space_group_name_H-M "C M C M"
_symmetry_group_IT_number 63
_symmetry_cell_setting 'orthorhombic'
loop_
_space_group_symop_operation_xyz
x,y,z
-x,-y,1/2+z
x,-y,-z
-x,y,1/2-z
-x,-y,-z
x,y,1/2-z
-x,y,z
x,-y,1/2+z
1/2+x,1/2+y,z
1/2-x,1/2-y,1/2+z
1/2+x,1/2-y,-z
1/2-x,1/2+y,1/2-z
1/2-x,1/2-y,-z
1/2+x,1/2+y,1/2-z
1/2-x,1/2+y,z
1/2+x,1/2-y,1/2+z
loop_
_atom_site_type_symbol
_atom_site_label
_atom_site_fract_x
_atom_site_fract_y
_atom_site_fract_z
Si Si1 0.316724 0.465995 0.861144
Si Si2 0.850380 0.366226 0.859833
Si Si3 0.910123 0.258460 0.750000
Si Si4 0.649565 0.296699 0.550016
Si Si5 0.090682 0.991133 0.250000
Si Si6 0.000000 0.457632 0.589666
Si Si7 0.000000 0.669945 0.976271
Si Si8 0.203650 0.824903 0.070701
O O1 0.229041 0.428112 0.853663
O O2 0.354419 0.384275 0.903447
O O3 0.364611 0.470365 0.804569
O O4 0.314457 0.578224 0.890505
O O5 0.870768 0.306314 0.803797
O O6 0.838371 0.278199 0.906837
O O7 0.922799 0.435599 0.876484
O O8 0.904280 0.134171 0.750000
O O9 0.000000 0.284800 0.750000
O O10 0.572240 0.241170 0.534683
O O11 0.708116 0.208278 0.570688
O O12 0.682502 0.344754 0.493084
O O13 0.000000 0.018164 0.250000
O O14 0.000000 0.378779 0.537526
O O15 0.000000 0.572563 0.565129
#
# Coordination Sequence:
#
# PCOD9473577 Si02
#       8
#    16  16   8  16   8   8   8  16
#     4  11  23  40  63  86 121 163 202 250 305 357
#     4  11  21  38  63  89 119 158 199 256 301 361
#     4  11  21  38  64  86 121 149 199 260 301 351
#     4  10  22  37  61  89 125 159 198 244 301 365
#     4  11  25  42  62  87 116 166 208 252 301 357
#     4  11  22  37  63  91 123 155 200 244 308 357
#     4  11  22  38  58  90 124 163 192 246 299 371
#     4  10  20  39  58  91 122 156 202 243 299 362
#
# _framework density 17.567108000000001
#
# number of rings (size 3 to 8) (size 9 to 14) (size 15 to 20)
#    0.000    1.333    4.167    2.000    1.167    0.000 
#    1.500    0.833    0.000    1.000    0.000    0.000 
#    0.000    0.000    0.000    0.000    0.000    0.000 
#
# Total GULP energy -268002.536849 kJ/mol
# GULP energy per Si atom -5583.386184 kJ/mol
# Density = 1.752712 g / cm^3
# Si number density = 17.567108 Si / 1000 Ang^3
#
#
#
# Elastic Constant Matrix: (Units=GPa)
#
#
# Indices 1 2 3 4 5 6 
#
# 1 88.1018 44.5621 28.7359 0.0000 0.0000 0.0000
# 2 44.5621 70.8189 33.8667 0.0000 0.0000 0.0000
# 3 28.7359 33.8667 110.4927 0.0000 0.0000 0.0000
# 4 0.0000 0.0000 0.0000 25.3061 0.0000 0.0000
# 5 0.0000 0.0000 0.0000 0.0000 30.5351 0.0000
# 6 0.0000 0.0000 0.0000 0.0000 0.0000 17.6162
#
#
#
# Elastic Compliance Matrix: (Units=1/GPa)
#
#
# Indices 1 2 3 4 5 6 
#
# 1 0.016813 -0.009946 -0.001324 0.000000 0.000000 0.000000
# 2 -0.009946 0.022430 -0.004288 0.000000 0.000000 0.000000
# 3 -0.001324 -0.004288 0.010709 0.000000 0.000000 0.000000
# 4 0.000000 0.000000 0.000000 0.039516 0.000000 0.000000
# 5 0.000000 0.000000 0.000000 0.000000 0.032749 0.000000
# 6 0.000000 0.000000 0.000000 0.000000 0.000000 0.056766
#
#
# Mechanical properties :
#
#
# Convention : Reuss Voigt Hill
#
# Bulk Modulus (GPa) = 53.09241 53.74921 53.42081
# Shear Modulus (GPa) = 23.10760 25.50805 24.30782
#
# Velocity S-wave (km/s) = 3.63077 3.81469 3.72386
# Velocity P-wave (km/s) = 6.91844 7.07569 6.99751
#
# Compressibility (1/GPa) = 0.01883508
#
# Stress axis : x y z
#
# Youngs Moduli (GPa) = 59.47674 44.58335 93.37903
#
# Poissons Ratio (x) = 0.44345 0.12363
# Poissons Ratio (y) = 0.59158 0.40042
# Poissons Ratio (z) = 0.07875 0.19118
#
# Static dielectric constant tensor:
#      x y z
#    x 1.596510 0.000000 0.000000 
#    y 0.000000 1.571400 0.000000 
#    z 0.000000 0.000000 1.584290 
# 
# From -- ./inp_files/63781.got.cif
#   From: 2010.05.17/outbox.cif.g08.bks.cpg/sg63_32_cif.got.tgz:63781.got - 2010.06.03 15:47:04.
