data_PCOD9473878
_publ_section_title
;
Structure prediction by ZEFSAII (Michael W. Deem and Ramdas Pophale) SiO2 
 PCOD9473878
Probable space group: C M C M
;
_chemical_formula_sum "Si O2"
_cell_formula_units_Z 48
_cell_length_a 5.513042
_cell_length_b 29.244646
_cell_length_c 13.124754
_cell_angle_alpha 90.000000
_cell_angle_beta 90.000000
_cell_angle_gamma 90.000000
_cell_volume 2116.064210
_symmetry_space_group_name_H-M "C M C M"
_symmetry_group_IT_number 63
_symmetry_cell_setting 'orthorhombic'
loop_
_space_group_symop_operation_xyz
x,y,z
-x,-y,1/2+z
x,-y,-z
-x,y,1/2-z
-x,-y,-z
x,y,1/2-z
-x,y,z
x,-y,1/2+z
1/2+x,1/2+y,z
1/2-x,1/2-y,1/2+z
1/2+x,1/2-y,-z
1/2-x,1/2+y,1/2-z
1/2-x,1/2-y,-z
1/2+x,1/2+y,1/2-z
1/2-x,1/2+y,z
1/2+x,1/2-y,1/2+z
loop_
_atom_site_type_symbol
_atom_site_label
_atom_site_fract_x
_atom_site_fract_y
_atom_site_fract_z
Si Si1 0.500000 0.887813 0.250000
Si Si2 0.500000 0.620956 0.132445
Si Si3 0.000000 0.526213 0.888771
Si Si4 0.000000 0.013138 0.382650
Si Si5 0.000000 0.754022 0.067429
Si Si6 0.000000 0.828135 0.250000
Si Si7 0.500000 0.153682 0.133436
O O1 0.749671 0.857992 0.250000
O O2 0.500000 0.920670 0.351805
O O3 0.500000 0.638954 0.250000
O O4 0.500000 0.566840 0.133502
O O5 0.249594 0.637193 0.083417
O O6 0.749190 0.507684 0.846659
O O7 0.000000 0.500000 0.000000
O O8 0.000000 0.000000 0.500000
O O9 0.000000 0.707801 0.133455
O O10 0.000000 0.796236 0.147241
O O11 0.250000 0.750000 0.000000
O O12 0.500000 0.134830 0.250000
#
# Coordination Sequence:
#
# PCOD9473878 Si02
#       7
#     4   8   8   8   8   4   8
#     4  12  26  48  80 107 148 213 252 318 392 448
#     4  10  21  35  64  96 126 173 234 280 351 419
#     4  10  23  43  65  97 141 188 250 301 363 441
#     4  10  21  40  58  89 135 179 222 295 351 411
#     4  12  26  50  77 111 149 201 245 307 406 456
#     4  12  28  54  78 113 156 197 268 326 378 496
#     4  10  21  43  66  97 138 178 223 298 353 443
#
# _framework density 22.683620000000001
#
# number of rings (size 3 to 8) (size 9 to 14) (size 15 to 20)
#    0.000    1.333    0.833    4.000    2.333    0.000 
#   36.000    0.000    0.000    0.000    0.000    0.000 
#    0.000    0.000    0.000    0.000    0.000    0.000 
#
# Total GULP energy -133659.449855 kJ/mol
# GULP energy per Si atom -5569.143744 kJ/mol
# Density = 2.263199 g / cm^3
# Si number density = 22.683620 Si / 1000 Ang^3
#
#
#
# Elastic Constant Matrix: (Units=GPa)
#
#
# Indices 1 2 3 4 5 6 
#
# 1 305.4434 102.8984 49.0174 0.0000 0.0000 0.0000
# 2 102.8984 158.6104 28.4073 0.0000 0.0000 0.0000
# 3 49.0174 28.4073 151.1430 0.0000 0.0000 0.0000
# 4 0.0000 0.0000 0.0000 54.9439 0.0000 0.0000
# 5 0.0000 0.0000 0.0000 0.0000 25.4298 0.0000
# 6 0.0000 0.0000 0.0000 0.0000 0.0000 55.3805
#
#
#
# Elastic Compliance Matrix: (Units=1/GPa)
#
#
# Indices 1 2 3 4 5 6 
#
# 1 0.004305 -0.002631 -0.000902 0.000000 0.000000 0.000000
# 2 -0.002631 0.008133 -0.000675 0.000000 0.000000 0.000000
# 3 -0.000902 -0.000675 0.007036 0.000000 0.000000 0.000000
# 4 0.000000 0.000000 0.000000 0.018200 0.000000 0.000000
# 5 0.000000 0.000000 0.000000 0.000000 0.039324 0.000000
# 6 0.000000 0.000000 0.000000 0.000000 0.000000 0.018057
#
#
# Mechanical properties :
#
#
# Convention : Reuss Voigt Hill
#
# Bulk Modulus (GPa) = 90.44009 108.42699 99.43354
# Shear Modulus (GPa) = 46.66056 56.14242 51.40149
#
# Velocity S-wave (km/s) = 4.54035 4.98035 4.76544
# Velocity P-wave (km/s) = 8.21238 8.99863 8.61448
#
# Compressibility (1/GPa) = 0.01105704
#
# Stress axis : x y z
#
# Youngs Moduli (GPa) = 232.28213 122.95837 142.13530
#
# Poissons Ratio (x) = 0.32356 0.12815
# Poissons Ratio (y) = 0.61124 0.09596
# Poissons Ratio (z) = 0.20943 0.08302
#
# Static dielectric constant tensor:
#      x y z
#    x 1.847740 0.000000 0.000000 
#    y 0.000000 1.793110 0.000000 
#    z 0.000000 0.000000 1.821210 
# 
# From -- ./inp_files/26320.got.cif
#   From: 2010.05.17/outbox.cif.g08.bks.cpg/sg63_14_cif.got.tgz:26320.got - 2010.06.03 15:47:04.
