data_PCOD9473465
_publ_section_title
;
Structure prediction by ZEFSAII (Michael W. Deem and Ramdas Pophale) SiO2 
 PCOD9473465
Probable space group: C M C M
;
_chemical_formula_sum "Si O2"
_cell_formula_units_Z 68
_cell_length_a 17.326954
_cell_length_b 19.981466
_cell_length_c 11.358746
_cell_angle_alpha 90.000000
_cell_angle_beta 90.000000
_cell_angle_gamma 90.000000
_cell_volume 3932.601666
_symmetry_space_group_name_H-M "C M C M"
_symmetry_group_IT_number 63
_symmetry_cell_setting 'orthorhombic'
loop_
_space_group_symop_operation_xyz
x,y,z
-x,-y,1/2+z
x,-y,-z
-x,y,1/2-z
-x,-y,-z
x,y,1/2-z
-x,y,z
x,-y,1/2+z
1/2+x,1/2+y,z
1/2-x,1/2-y,1/2+z
1/2+x,1/2-y,-z
1/2-x,1/2+y,1/2-z
1/2-x,1/2-y,-z
1/2+x,1/2+y,1/2-z
1/2-x,1/2+y,z
1/2+x,1/2-y,1/2+z
loop_
_atom_site_type_symbol
_atom_site_label
_atom_site_fract_x
_atom_site_fract_y
_atom_site_fract_z
Si Si1 0.592362 0.955387 0.615082
Si Si2 0.411590 0.598545 0.750000
Si Si3 0.000000 0.968711 0.750000
Si Si4 0.699324 0.826721 0.883861
Si Si5 0.500000 0.662551 0.382172
Si Si6 0.149648 0.181114 0.537220
O O1 0.609489 0.981374 0.750000
O O2 0.500000 0.945282 0.610858
O O3 0.637527 0.885712 0.602975
O O4 0.612638 0.000000 0.500000
O O5 0.500000 0.626618 0.750000
O O6 0.427332 0.519008 0.750000
O O7 0.369003 0.626649 0.863528
O O8 0.000000 0.918079 0.859969
O O9 0.728426 0.827758 0.750000
O O10 0.661349 0.754620 0.907926
O O11 0.771713 0.835677 0.969535
O O12 0.500000 0.691259 0.250000
O O13 0.576678 0.682205 0.450569
#
# Coordination Sequence:
#
# PCOD9473465 Si02
#       6
#    16   8   4  16   8  16
#     4   9  19  39  62  85 116 152 196 245 302 363
#     4  10  20  38  59  89 115 158 200 239 285 360
#     4   8  22  40  56  86 124 154 202 238 290 356
#     4  10  22  39  59  88 116 155 199 255 298 353
#     4  10  21  39  58  84 119 164 190 237 300 358
#     4  11  21  37  61  85 121 151 203 248 292 352
#
# _framework density 17.291353000000001
#
# number of rings (size 3 to 8) (size 9 to 14) (size 15 to 20)
#    0.706    1.412    2.353    0.706    1.647    1.882 
#    6.353    0.000    0.000    0.000    0.000    0.000 
#    0.000    0.000    0.000    0.000    0.000    0.000 
#
# Total GULP energy -189390.029433 kJ/mol
# GULP energy per Si atom -5570.294983 kJ/mol
# Density = 1.725200 g / cm^3
# Si number density = 17.291353 Si / 1000 Ang^3
#
#
#
# Elastic Constant Matrix: (Units=GPa)
#
#
# Indices 1 2 3 4 5 6 
#
# 1 41.9621 25.7224 21.2714 0.0000 0.0000 0.0000
# 2 25.7224 61.3127 31.5188 0.0000 0.0000 0.0000
# 3 21.2714 31.5188 97.1182 0.0000 0.0000 0.0000
# 4 0.0000 0.0000 0.0000 6.7024 0.0000 0.0000
# 5 0.0000 0.0000 0.0000 0.0000 26.5843 0.0000
# 6 0.0000 0.0000 0.0000 0.0000 0.0000 17.6635
#
#
#
# Elastic Compliance Matrix: (Units=1/GPa)
#
#
# Indices 1 2 3 4 5 6 
#
# 1 0.032927 -0.012130 -0.003275 0.000000 0.000000 0.000000
# 2 -0.012130 0.024044 -0.005147 0.000000 0.000000 0.000000
# 3 -0.003275 -0.005147 0.012684 0.000000 0.000000 0.000000
# 4 0.000000 0.000000 0.000000 0.149201 0.000000 0.000000
# 5 0.000000 0.000000 0.000000 0.000000 0.037616 0.000000
# 6 0.000000 0.000000 0.000000 0.000000 0.000000 0.056614
#
#
# Mechanical properties :
#
#
# Convention : Reuss Voigt Hill
#
# Bulk Modulus (GPa) = 35.02380 39.71314 37.36847
# Shear Modulus (GPa) = 13.74730 18.31541 16.03135
#
# Velocity S-wave (km/s) = 2.82270 3.25810 3.04819
# Velocity P-wave (km/s) = 5.56081 6.09677 5.83494
#
# Compressibility (1/GPa) = 0.02855202
#
# Stress axis : x y z
#
# Youngs Moduli (GPa) = 30.37024 41.58964 78.83739
#
# Poissons Ratio (x) = 0.50449 0.25820
# Poissons Ratio (y) = 0.36840 0.40574
# Poissons Ratio (z) = 0.09947 0.21404
#
# Static dielectric constant tensor:
#      x y z
#    x 1.555280 0.000000 0.000000 
#    y 0.000000 1.563040 0.000000 
#    z 0.000000 0.000000 1.613430 
# 
# From -- ./inp_files/19204.got.cif
#   From: 2010.05.17/outbox.cif.g08.bks.cpg/sg63_10_cif.got.tgz:19204.got - 2010.06.03 15:47:04.
