data_PCOD9473462
_publ_section_title
;
Structure prediction by ZEFSAII (Michael W. Deem and Ramdas Pophale) SiO2 
 PCOD9473462
Probable space group: C M C M
;
_chemical_formula_sum "Si O2"
_cell_formula_units_Z 96
_cell_length_a 15.029748
_cell_length_b 9.546053
_cell_length_c 32.639461
_cell_angle_alpha 90.000000
_cell_angle_beta 90.000000
_cell_angle_gamma 90.000000
_cell_volume 4682.939192
_symmetry_space_group_name_H-M "C M C M"
_symmetry_group_IT_number 63
_symmetry_cell_setting 'orthorhombic'
loop_
_space_group_symop_operation_xyz
x,y,z
-x,-y,1/2+z
x,-y,-z
-x,y,1/2-z
-x,-y,-z
x,y,1/2-z
-x,y,z
x,-y,1/2+z
1/2+x,1/2+y,z
1/2-x,1/2-y,1/2+z
1/2+x,1/2-y,-z
1/2-x,1/2+y,1/2-z
1/2-x,1/2-y,-z
1/2+x,1/2+y,1/2-z
1/2-x,1/2+y,z
1/2+x,1/2-y,1/2+z
loop_
_atom_site_type_symbol
_atom_site_label
_atom_site_fract_x
_atom_site_fract_y
_atom_site_fract_z
Si Si1 0.696304 0.569355 0.344192
Si Si2 0.000000 0.192023 0.797281
Si Si3 0.000000 0.964189 0.630203
Si Si4 0.500000 0.969762 0.049740
Si Si5 0.805169 0.788635 0.296379
Si Si6 0.500000 0.358093 0.543127
Si Si7 0.807642 0.456139 0.079789
Si Si8 0.693996 0.672847 0.034040
O O1 0.596693 0.601535 0.360233
O O2 0.741656 0.705829 0.326306
O O3 0.687727 0.450679 0.309172
O O4 0.761793 0.500389 0.377871
O O5 0.093929 0.270668 0.799222
O O6 0.000000 0.127566 0.750000
O O7 0.000000 0.095279 0.838199
O O8 0.000000 0.968481 0.580615
O O9 0.500000 0.803271 0.058179
O O10 0.406871 0.016172 0.070230
O O11 0.500000 0.000000 0.000000
O O12 0.773793 0.775570 0.250000
O O13 0.406183 0.361312 0.520519
O O14 0.743151 0.533733 0.047832
O O15 0.807941 0.289714 0.070687
O O16 0.750000 0.750000 0.000000
#
# Coordination Sequence:
#
# PCOD9473462 Si02
#       8
#    16   8   8   8  16   8  16  16
#     4  11  22  38  63  89 121 162 204 251 300 356
#     4   8  18  37  62  88 125 161 193 241 307 364
#     4  10  20  38  59  85 123 162 199 242 301 364
#     4  10  22  39  60  82 119 162 199 243 318 381
#     4  10  21  39  62  91 124 161 201 244 299 361
#     4  10  20  38  60  84 121 158 197 251 305 358
#     4  11  22  39  60  87 116 156 203 250 302 363
#     4  11  22  39  61  85 117 157 201 250 310 362
#
# _framework density 20.499946000000001
#
# number of rings (size 3 to 8) (size 9 to 14) (size 15 to 20)
#    0.000    1.667    1.667    4.000    2.333    1.333 
#    0.000    6.667    0.000    0.000    0.000    0.000 
#    0.000    0.000    0.000    0.000    0.000    0.000 
#
# Total GULP energy -267429.865249 kJ/mol
# GULP energy per Si atom -5571.455526 kJ/mol
# Density = 2.045329 g / cm^3
# Si number density = 20.499946 Si / 1000 Ang^3
#
#
#
# Elastic Constant Matrix: (Units=GPa)
#
#
# Indices 1 2 3 4 5 6 
#
# 1 185.6574 18.8865 37.0696 0.0000 0.0000 0.0000
# 2 18.8865 61.9242 8.1474 0.0000 0.0000 0.0000
# 3 37.0696 8.1474 90.8845 0.0000 0.0000 0.0000
# 4 0.0000 0.0000 0.0000 32.4941 0.0000 0.0000
# 5 0.0000 0.0000 0.0000 0.0000 28.5470 0.0000
# 6 0.0000 0.0000 0.0000 0.0000 0.0000 21.6059
#
#
#
# Elastic Compliance Matrix: (Units=1/GPa)
#
#
# Indices 1 2 3 4 5 6 
#
# 1 0.006003 -0.001527 -0.002312 0.000000 0.000000 0.000000
# 2 -0.001527 0.016730 -0.000877 0.000000 0.000000 0.000000
# 3 -0.002312 -0.000877 0.012024 0.000000 0.000000 0.000000
# 4 0.000000 0.000000 0.000000 0.030775 0.000000 0.000000
# 5 0.000000 0.000000 0.000000 0.000000 0.035030 0.000000
# 6 0.000000 0.000000 0.000000 0.000000 0.000000 0.046284
#
#
# Mechanical properties :
#
#
# Convention : Reuss Voigt Hill
#
# Bulk Modulus (GPa) = 39.48433 51.85258 45.66845
# Shear Modulus (GPa) = 30.35475 34.82026 32.58750
#
# Velocity S-wave (km/s) = 3.85219 4.12582 3.99135
# Velocity P-wave (km/s) = 6.25207 6.93148 6.60052
#
# Compressibility (1/GPa) = 0.02532650
#
# Stress axis : x y z
#
# Youngs Moduli (GPa) = 166.57937 59.77354 83.16376
#
# Poissons Ratio (x) = 0.09126 0.19225
# Poissons Ratio (y) = 0.25433 0.07294
# Poissons Ratio (z) = 0.38508 0.05242
#
# Static dielectric constant tensor:
#      x y z
#    x 1.756970 0.000000 0.000000 
#    y 0.000000 1.721410 0.000000 
#    z 0.000000 0.000000 1.817630 
# 
# From -- ./inp_files/73388.got.cif
#   From: 2010.05.17/outbox.cif.g08.bks.cpg/sg63_37_cif.got.tgz:73388.got - 2010.06.03 15:47:04.
