data_PCOD9473232
_publ_section_title
;
Structure prediction by ZEFSAII (Michael W. Deem and Ramdas Pophale) SiO2 
 PCOD9473232
Probable space group: C M C M
;
_chemical_formula_sum "Si O2"
_cell_formula_units_Z 80
_cell_length_a 7.446232
_cell_length_b 20.808296
_cell_length_c 27.370312
_cell_angle_alpha 90.000000
_cell_angle_beta 90.000000
_cell_angle_gamma 90.000000
_cell_volume 4240.849188
_symmetry_space_group_name_H-M "C M C M"
_symmetry_group_IT_number 63
_symmetry_cell_setting 'orthorhombic'
loop_
_space_group_symop_operation_xyz
x,y,z
-x,-y,1/2+z
x,-y,-z
-x,y,1/2-z
-x,-y,-z
x,y,1/2-z
-x,y,z
x,-y,1/2+z
1/2+x,1/2+y,z
1/2-x,1/2-y,1/2+z
1/2+x,1/2-y,-z
1/2-x,1/2+y,1/2-z
1/2-x,1/2-y,-z
1/2+x,1/2+y,1/2-z
1/2-x,1/2+y,z
1/2+x,1/2-y,1/2+z
loop_
_atom_site_type_symbol
_atom_site_label
_atom_site_fract_x
_atom_site_fract_y
_atom_site_fract_z
Si Si1 0.500000 0.294974 0.306788
Si Si2 0.782710 0.627029 0.066716
Si Si3 0.205954 0.739235 0.883096
Si Si4 0.000000 0.949924 0.306964
Si Si5 0.282363 0.126049 0.545110
Si Si6 0.216201 0.508417 0.884461
O O1 0.500000 0.277284 0.250000
O O2 0.671365 0.268454 0.335844
O O3 0.500000 0.372429 0.310430
O O4 0.716224 0.689893 0.094544
O O5 0.735965 0.561197 0.094083
O O6 0.000000 0.630377 0.066007
O O7 0.718831 0.626144 0.010586
O O8 0.272498 0.688621 0.924149
O O9 0.000000 0.722782 0.871681
O O10 0.173400 0.976102 0.335823
O O11 0.000000 0.967576 0.250000
O O12 0.500000 0.126842 0.542848
O O13 0.233748 0.062678 0.575561
O O14 0.000000 0.511422 0.877119
#
# Coordination Sequence:
#
# PCOD9473232 Si02
#       6
#     8  16  16   8  16  16
#     4  11  24  44  67  87 112 153 204 258 309 353
#     4  10  20  36  61  88 130 165 195 235 297 358
#     4  11  22  39  61  89 124 157 200 250 297 354
#     4  11  24  42  66  90 112 150 204 262 307 353
#     4   9  18  35  59  90 122 165 198 237 292 356
#     4  10  21  39  61  88 124 159 197 247 294 357
#
# _framework density 18.864146000000002
#
# number of rings (size 3 to 8) (size 9 to 14) (size 15 to 20)
#    0.000    1.800    3.000    1.200    1.400    3.200 
#    3.600    4.000    0.000    0.000    0.000    0.000 
#    0.000    0.000    0.000    0.000    0.000    0.000 
#
# Total GULP energy -223536.174619 kJ/mol
# GULP energy per Si atom -5588.404365 kJ/mol
# Density = 1.882121 g / cm^3
# Si number density = 18.864146 Si / 1000 Ang^3
#
#
#
# Elastic Constant Matrix: (Units=GPa)
#
#
# Indices 1 2 3 4 5 6 
#
# 1 92.7661 30.7132 65.8635 0.0000 0.0000 0.0000
# 2 30.7132 145.2469 79.3626 0.0000 0.0000 0.0000
# 3 65.8635 79.3626 193.4914 0.0000 0.0000 0.0000
# 4 0.0000 0.0000 0.0000 0.8513 0.0000 0.0000
# 5 0.0000 0.0000 0.0000 0.0000 40.2867 0.0000
# 6 0.0000 0.0000 0.0000 0.0000 0.0000 37.1368
#
#
#
# Elastic Compliance Matrix: (Units=1/GPa)
#
#
# Indices 1 2 3 4 5 6 
#
# 1 0.014240 -0.000467 -0.004656 0.000000 0.000000 0.000000
# 2 -0.000467 0.008889 -0.003487 0.000000 0.000000 0.000000
# 3 -0.004656 -0.003487 0.008183 0.000000 0.000000 0.000000
# 4 0.000000 0.000000 0.000000 1.174664 0.000000 0.000000
# 5 0.000000 0.000000 0.000000 0.000000 0.024822 0.000000
# 6 0.000000 0.000000 0.000000 0.000000 0.000000 0.026927
#
#
# Mechanical properties :
#
#
# Convention : Reuss Voigt Hill
#
# Bulk Modulus (GPa) = 70.95958 87.04255 79.00107
# Shear Modulus (GPa) = 3.90734 32.69262 18.29998
#
# Velocity S-wave (km/s) = 1.44076 4.16752 3.11801
# Velocity P-wave (km/s) = 6.36125 8.33064 7.41165
#
# Compressibility (1/GPa) = 0.01409253
#
# Stress axis : x y z
#
# Youngs Moduli (GPa) = 70.22517 112.50099 122.20408
#
# Poissons Ratio (x) = 0.05258 0.56892
# Poissons Ratio (y) = 0.03282 0.42610
# Poissons Ratio (z) = 0.32693 0.39226
#
# Static dielectric constant tensor:
#      x y z
#    x 1.691100 0.000000 0.000000 
#    y 0.000000 1.628890 0.000000 
#    z 0.000000 0.000000 1.608590 
# 
# From -- ./inp_files/66662.got.cif
#   From: 2010.05.17/outbox.cif.g08.bks.cpg/sg63_34_cif.got.tgz:66662.got - 2010.06.03 15:47:04.
