data_PCOD9473060
_publ_section_title
;
Structure prediction by ZEFSAII (Michael W. Deem and Ramdas Pophale) SiO2 
 PCOD9473060
Probable space group: C M C M
;
_chemical_formula_sum "Si O2"
_cell_formula_units_Z 96
_cell_length_a 23.148817
_cell_length_b 14.147872
_cell_length_c 13.754568
_cell_angle_alpha 90.000000
_cell_angle_beta 90.000000
_cell_angle_gamma 90.000000
_cell_volume 4504.710423
_symmetry_space_group_name_H-M "C M C M"
_symmetry_group_IT_number 63
_symmetry_cell_setting 'orthorhombic'
loop_
_space_group_symop_operation_xyz
x,y,z
-x,-y,1/2+z
x,-y,-z
-x,y,1/2-z
-x,-y,-z
x,y,1/2-z
-x,y,z
x,-y,1/2+z
1/2+x,1/2+y,z
1/2-x,1/2-y,1/2+z
1/2+x,1/2-y,-z
1/2-x,1/2+y,1/2-z
1/2-x,1/2-y,-z
1/2+x,1/2+y,1/2-z
1/2-x,1/2+y,z
1/2+x,1/2-y,1/2+z
loop_
_atom_site_type_symbol
_atom_site_label
_atom_site_fract_x
_atom_site_fract_y
_atom_site_fract_z
Si Si1 0.219708 0.753666 0.132414
Si Si2 0.569297 0.446899 0.639193
Si Si3 0.337114 0.153325 0.634702
Si Si4 0.108960 0.143958 0.942620
Si Si5 0.434241 0.158864 0.480720
Si Si6 0.340231 0.059862 0.365563
O O1 0.215669 0.762893 0.250000
O O2 0.284923 0.778664 0.105266
O O3 0.173431 0.825739 0.086927
O O4 0.201088 0.646934 0.106824
O O5 0.583884 0.419600 0.750000
O O6 0.500000 0.436259 0.625697
O O7 0.586220 0.556041 0.620245
O O8 0.601089 0.388681 0.554556
O O9 0.345872 0.161403 0.750000
O O10 0.395854 0.169992 0.577276
O O11 0.318958 0.045033 0.611742
O O12 0.072045 0.239451 0.928182
O O13 0.500000 0.135794 0.499614
O O14 0.401050 0.081669 0.416396
O O15 0.347882 0.064398 0.250000
#
# Coordination Sequence:
#
# PCOD9473060 Si02
#       6
#    16  16  16  16  16  16
#     4   9  19  39  63  88 122 158 202 253 302 366
#     4  10  20  36  57  85 124 164 204 252 305 363
#     4  10  22  41  62  89 125 162 200 252 314 369
#     4  10  20  37  59  86 119 159 206 251 304 364
#     4  11  23  39  60  87 120 159 208 257 306 364
#     4   9  20  39  62  88 120 158 204 254 305 364
#
# _framework density 21.311025000000001
#
# number of rings (size 3 to 8) (size 9 to 14) (size 15 to 20)
#    0.000    2.167    0.000    3.000    0.000    6.000 
#   12.000    1.667    0.000    0.000    0.000    0.000 
#    0.000    0.000    0.000    0.000    0.000    0.000 
#
# Total GULP energy -268369.955198 kJ/mol
# GULP energy per Si atom -5591.040733 kJ/mol
# Density = 2.126252 g / cm^3
# Si number density = 21.311025 Si / 1000 Ang^3
#
#
#
# Elastic Constant Matrix: (Units=GPa)
#
#
# Indices 1 2 3 4 5 6 
#
# 1 144.3887 42.2935 36.5651 0.0000 0.0000 0.0000
# 2 42.2935 81.9475 13.5089 0.0000 0.0000 0.0000
# 3 36.5651 13.5089 81.4609 0.0000 0.0000 0.0000
# 4 0.0000 0.0000 0.0000 26.5303 0.0000 0.0000
# 5 0.0000 0.0000 0.0000 0.0000 22.0874 0.0000
# 6 0.0000 0.0000 0.0000 0.0000 0.0000 8.9398
#
#
#
# Elastic Compliance Matrix: (Units=1/GPa)
#
#
# Indices 1 2 3 4 5 6 
#
# 1 0.008968 -0.004076 -0.003349 0.000000 0.000000 0.000000
# 2 -0.004076 0.014399 -0.000558 0.000000 0.000000 0.000000
# 3 -0.003349 -0.000558 0.013872 0.000000 0.000000 0.000000
# 4 0.000000 0.000000 0.000000 0.037693 0.000000 0.000000
# 5 0.000000 0.000000 0.000000 0.000000 0.045275 0.000000
# 6 0.000000 0.000000 0.000000 0.000000 0.000000 0.111860
#
#
# Mechanical properties :
#
#
# Convention : Reuss Voigt Hill
#
# Bulk Modulus (GPa) = 47.01251 54.72578 50.86914
# Shear Modulus (GPa) = 19.59833 25.87346 22.73590
#
# Velocity S-wave (km/s) = 3.03584 3.48816 3.26983
# Velocity P-wave (km/s) = 5.86485 6.47752 6.17878
#
# Compressibility (1/GPa) = 0.02127094
#
# Stress axis : x y z
#
# Youngs Moduli (GPa) = 111.50808 69.45072 72.08853
#
# Poissons Ratio (x) = 0.28310 0.24146
# Poissons Ratio (y) = 0.45454 0.04023
# Poissons Ratio (z) = 0.37349 0.03876
#
# Static dielectric constant tensor:
#      x y z
#    x 1.726350 0.000000 0.000000 
#    y 0.000000 1.793300 0.000000 
#    z 0.000000 0.000000 1.808900 
# 
# From -- ./inp_files/35333.got.cif
#   From: 2010.05.17/outbox.cif.g08.bks.cpg/sg63_18_cif.got.tgz:35333.got - 2010.06.03 15:47:04.
