data_PCOD9473260
_publ_section_title
;
Structure prediction by ZEFSAII (Michael W. Deem and Ramdas Pophale) SiO2 
 PCOD9473260
Probable space group: C M C M
;
_chemical_formula_sum "Si O2"
_cell_formula_units_Z 88
_cell_length_a 17.062649
_cell_length_b 11.627586
_cell_length_c 21.718131
_cell_angle_alpha 90.000000
_cell_angle_beta 90.000000
_cell_angle_gamma 90.000000
_cell_volume 4308.821128
_symmetry_space_group_name_H-M "C M C M"
_symmetry_group_IT_number 63
_symmetry_cell_setting 'orthorhombic'
loop_
_space_group_symop_operation_xyz
x,y,z
-x,-y,1/2+z
x,-y,-z
-x,y,1/2-z
-x,-y,-z
x,y,1/2-z
-x,y,z
x,-y,1/2+z
1/2+x,1/2+y,z
1/2-x,1/2-y,1/2+z
1/2+x,1/2-y,-z
1/2-x,1/2+y,1/2-z
1/2-x,1/2-y,-z
1/2+x,1/2+y,1/2-z
1/2-x,1/2+y,z
1/2+x,1/2-y,1/2+z
loop_
_atom_site_type_symbol
_atom_site_label
_atom_site_fract_x
_atom_site_fract_y
_atom_site_fract_z
Si Si1 0.909072 0.540879 0.819612
Si Si2 0.326061 0.602375 0.096102
Si Si3 0.693036 0.811743 0.822433
Si Si4 0.793098 0.500000 0.000000
Si Si5 0.092164 0.911082 0.323047
Si Si6 0.908904 0.682325 0.944348
O O1 0.892250 0.585047 0.750000
O O2 0.854475 0.430818 0.830996
O O3 0.901941 0.631569 0.874665
O O4 0.000000 0.502231 0.819765
O O5 0.271553 0.682003 0.138780
O O6 0.264923 0.530801 0.055394
O O7 0.376104 0.517223 0.138027
O O8 0.380851 0.686237 0.056520
O O9 0.710504 0.802229 0.750000
O O10 0.639653 0.703682 0.840058
O O11 0.850149 0.606483 0.985071
O O12 0.104619 0.931937 0.250000
O O13 0.000000 0.893745 0.332864
O O14 0.000000 0.670626 0.962922
#
# Coordination Sequence:
#
# PCOD9473260 Si02
#       6
#    16  16  16   8  16  16
#     4   9  18  35  61  93 124 155 196 249 309 374
#     4  12  24  42  62  93 123 164 203 264 310 367
#     4  10  20  36  62  93 126 161 202 247 303 372
#     4  12  25  46  63  86 122 164 220 262 309 358
#     4  10  22  41  65  95 130 165 200 243 305 380
#     4  11  24  43  65  90 121 160 207 258 315 372
#
# _framework density 20.423220000000001
#
# number of rings (size 3 to 8) (size 9 to 14) (size 15 to 20)
#    0.000    1.455    1.818    3.545    0.000    3.636 
#    0.000    5.455    0.000    0.000    0.000    0.000 
#    0.000    0.000    0.000    0.000    0.000    0.000 
#
# Total GULP energy -246002.104993 kJ/mol
# GULP energy per Si atom -5590.956932 kJ/mol
# Density = 2.037674 g / cm^3
# Si number density = 20.423220 Si / 1000 Ang^3
#
#
#
# Elastic Constant Matrix: (Units=GPa)
#
#
# Indices 1 2 3 4 5 6 
#
# 1 23.2514 28.2952 -2.4930 0.0000 0.0000 0.0000
# 2 28.2952 50.9441 -2.7644 0.0000 0.0000 0.0000
# 3 -2.4930 -2.7644 2.6877 0.0000 0.0000 0.0000
# 4 0.0000 0.0000 0.0000 13.6805 0.0000 0.0000
# 5 0.0000 0.0000 0.0000 0.0000 72.8857 0.0000
# 6 0.0000 0.0000 0.0000 0.0000 0.0000 39.4818
#
#
#
# Elastic Compliance Matrix: (Units=1/GPa)
#
#
# Indices 1 2 3 4 5 6 
#
# 1 0.139385 -0.074563 0.052600 0.000000 0.000000 0.000000
# 2 -0.074563 0.060676 -0.006755 0.000000 0.000000 0.000000
# 3 0.052600 -0.006755 0.413911 0.000000 0.000000 0.000000
# 4 0.000000 0.000000 0.000000 0.073097 0.000000 0.000000
# 5 0.000000 0.000000 0.000000 0.000000 0.013720 0.000000
# 6 0.000000 0.000000 0.000000 0.000000 0.000000 0.025328
#
#
# Mechanical properties :
#
#
# Convention : Reuss Voigt Hill
#
# Bulk Modulus (GPa) = 1.79683 13.66211 7.72947
# Shear Modulus (GPa) = 5.15961 28.79929 16.97945
#
# Velocity S-wave (km/s) = 1.59117 3.75924 2.88649
# Velocity P-wave (km/s) = 2.06337 5.05435 3.86031
#
# Compressibility (1/GPa) = 0.55653665
#
# Stress axis : x y z
#
# Youngs Moduli (GPa) = 7.17438 16.48094 2.41598
#
# Poissons Ratio (x) = 1.22886 -0.12708
# Poissons Ratio (y) = 0.53494 0.01632
# Poissons Ratio (z) = -0.37737 0.11133
#
# Static dielectric constant tensor:
#      x y z
#    x 1.709690 0.000000 0.000000 
#    y 0.000000 1.700740 0.000000 
#    z 0.000000 0.000000 1.729320 
# 
# From -- ./inp_files/55401.got.cif
#   From: 2010.05.17/outbox.cif.g08.bks.cpg/sg63_28_cif.got.tgz:55401.got - 2010.06.03 15:47:04.
