data_PCOD9473012
_publ_section_title
;
Structure prediction by ZEFSAII (Michael W. Deem and Ramdas Pophale) SiO2 
 PCOD9473012
Probable space group: C M C M
;
_chemical_formula_sum "Si O2"
_cell_formula_units_Z 64
_cell_length_a 19.240389
_cell_length_b 5.415472
_cell_length_c 27.807457
_cell_angle_alpha 90.000000
_cell_angle_beta 90.000000
_cell_angle_gamma 90.000000
_cell_volume 2897.419892
_symmetry_space_group_name_H-M "C M C M"
_symmetry_group_IT_number 63
_symmetry_cell_setting 'orthorhombic'
loop_
_space_group_symop_operation_xyz
x,y,z
-x,-y,1/2+z
x,-y,-z
-x,y,1/2-z
-x,-y,-z
x,y,1/2-z
-x,y,z
x,-y,1/2+z
1/2+x,1/2+y,z
1/2-x,1/2-y,1/2+z
1/2+x,1/2-y,-z
1/2-x,1/2+y,1/2-z
1/2-x,1/2-y,-z
1/2+x,1/2+y,1/2-z
1/2-x,1/2+y,z
1/2+x,1/2-y,1/2+z
loop_
_atom_site_type_symbol
_atom_site_label
_atom_site_fract_x
_atom_site_fract_y
_atom_site_fract_z
Si Si1 0.777990 0.212725 0.555265
Si Si2 0.576589 0.099916 0.053799
Si Si3 0.415178 0.290849 0.194405
Si Si4 0.083471 0.712487 0.855689
O O1 0.750000 0.250000 0.500000
O O2 0.753545 0.469419 0.578024
O O3 0.860950 0.208324 0.555796
O O4 0.500000 0.200150 0.066993
O O5 0.592557 0.872481 0.089333
O O6 0.574731 0.000000 0.000000
O O7 0.396167 0.326018 0.250000
O O8 0.500000 0.285558 0.192263
O O9 0.391179 0.025651 0.174536
O O10 0.390382 0.523546 0.162637
O O11 0.000000 0.723827 0.848375
#
# Coordination Sequence:
#
# PCOD9473012 Si02
#       4
#    16  16  16  16
#     4  10  20  38  56  75 104 148 189 239 267 317
#     4  10  20  36  56  82 117 157 189 227 282 332
#     4   9  16  29  48  69 100 139 173 218 278 328
#     4   9  18  30  45  73 105 136 180 221 263 333
#
# _framework density 22.088615999999998
#
# number of rings (size 3 to 8) (size 9 to 14) (size 15 to 20)
#    0.000    2.500    2.500    0.750    0.000    5.000 
#    0.000    6.250    0.000    0.000    0.000    0.000 
#    0.000   20.000    0.000    0.000    0.000    0.000 
#
# Total GULP energy -178638.600280 kJ/mol
# GULP energy per Si atom -5582.456259 kJ/mol
# Density = 2.203834 g / cm^3
# Si number density = 22.088616 Si / 1000 Ang^3
#
#
#
# Elastic Constant Matrix: (Units=GPa)
#
#
# Indices 1 2 3 4 5 6 
#
# 1 101.0522 21.8516 -6.3657 0.0000 0.0000 0.0000
# 2 21.8516 122.8231 23.6285 0.0000 0.0000 0.0000
# 3 -6.3657 23.6285 105.0379 0.0000 0.0000 0.0000
# 4 0.0000 0.0000 0.0000 16.5956 0.0000 0.0000
# 5 0.0000 0.0000 0.0000 0.0000 -1.0394 0.0000
# 6 0.0000 0.0000 0.0000 0.0000 0.0000 12.6274
#
#
#
# Elastic Compliance Matrix: (Units=1/GPa)
#
#
# Indices 1 2 3 4 5 6 
#
# 1 0.010411 -0.002063 0.001095 0.000000 0.000000 0.000000
# 2 -0.002063 0.008919 -0.002131 0.000000 0.000000 0.000000
# 3 0.001095 -0.002131 0.010066 0.000000 0.000000 0.000000
# 4 0.000000 0.000000 0.000000 0.060257 0.000000 0.000000
# 5 0.000000 0.000000 0.000000 0.000000 -0.962136 0.000000
# 6 0.000000 0.000000 0.000000 0.000000 0.000000 0.079193
#
#
# Mechanical properties :
#
#
# Convention : Reuss Voigt Hill
#
# Bulk Modulus (GPa) = 43.10805 45.23798 44.17301
# Shear Modulus (GPa) = -6.41552 24.95666 9.27057
#
# Velocity S-wave (km/s) = -1.70609 3.36496 2.05088
# Velocity P-wave (km/s) = 3.95946 5.96841 5.06455
#
# Compressibility (1/GPa) = 0.02319753
#
# Stress axis : x y z
#
# Youngs Moduli (GPa) = 96.05286 112.12253 99.34258
#
# Poissons Ratio (x) = 0.23129 -0.10878
# Poissons Ratio (y) = 0.19814 0.21173
# Poissons Ratio (z) = -0.10518 0.23897
#
# Static dielectric constant tensor:
#      x y z
#    x 1.844540 0.000000 0.000000 
#    y 0.000000 1.825720 0.000000 
#    z 0.000000 0.000000 1.823680 
# 
# From -- ./inp_files/70150.got.cif
#   From: 2010.05.17/outbox.cif.g08.bks.cpg/sg63_36_cif.got.tgz:70150.got - 2010.06.03 15:47:04.
