data_PCOD9473510
_publ_section_title
;
Structure prediction by ZEFSAII (Michael W. Deem and Ramdas Pophale) SiO2 
 PCOD9473510
Probable space group: C M C M
;
_chemical_formula_sum "Si O2"
_cell_formula_units_Z 72
_cell_length_a 26.653794
_cell_length_b 10.418744
_cell_length_c 13.950866
_cell_angle_alpha 90.000000
_cell_angle_beta 90.000000
_cell_angle_gamma 90.000000
_cell_volume 3874.142323
_symmetry_space_group_name_H-M "C M C M"
_symmetry_group_IT_number 63
_symmetry_cell_setting 'orthorhombic'
loop_
_space_group_symop_operation_xyz
x,y,z
-x,-y,1/2+z
x,-y,-z
-x,y,1/2-z
-x,-y,-z
x,y,1/2-z
-x,y,z
x,-y,1/2+z
1/2+x,1/2+y,z
1/2-x,1/2-y,1/2+z
1/2+x,1/2-y,-z
1/2-x,1/2+y,1/2-z
1/2-x,1/2-y,-z
1/2+x,1/2+y,1/2-z
1/2-x,1/2+y,z
1/2+x,1/2-y,1/2+z
loop_
_atom_site_type_symbol
_atom_site_label
_atom_site_fract_x
_atom_site_fract_y
_atom_site_fract_z
Si Si1 0.105894 0.477292 0.887564
Si Si2 0.273032 0.230841 0.250000
Si Si3 0.633389 0.311147 0.355079
Si Si4 0.692452 0.945999 0.250000
Si Si5 0.084369 0.000000 0.000000
Si Si6 0.500000 0.624488 0.366716
Si Si7 0.500000 0.925768 0.397845
O O1 0.107004 0.326329 0.865753
O O2 0.154059 0.540465 0.838202
O O3 0.052892 0.533036 0.853793
O O4 0.109771 0.500000 0.000000
O O5 0.307865 0.276499 0.160215
O O6 0.223169 0.314571 0.250000
O O7 0.272689 0.075483 0.250000
O O8 0.618683 0.367243 0.250000
O O9 0.618458 0.398064 0.443591
O O10 0.048228 0.060635 0.081553
O O11 0.500000 0.614425 0.250000
O O12 0.500000 0.772683 0.399265
O O13 0.500000 0.000000 0.500000
#
# Coordination Sequence:
#
# PCOD9473510 Si02
#       7
#    16   8  16   8   8   8   8
#     4  10  20  38  62  87 120 157 200 245 304 367
#     4   8  20  42  62  85 121 153 205 260 308 369
#     4   9  20  40  61  84 118 154 207 249 295 366
#     4  10  20  43  58  89 121 156 203 262 306 367
#     4  11  20  40  60  82 120 170 200 241 304 350
#     4  11  25  36  54  90 133 154 202 250 287 366
#     4  10  21  38  57  88 120 152 194 240 300 359
#
# _framework density 18.584758000000001
#
# number of rings (size 3 to 8) (size 9 to 14) (size 15 to 20)
#    0.667    1.556    1.111    3.333    1.556    0.889 
#   10.000    4.444    0.000    0.000    0.000    0.000 
#    0.000    0.000    0.000    0.000    0.000    0.000 
#
# Total GULP energy -200441.502410 kJ/mol
# GULP energy per Si atom -5567.819511 kJ/mol
# Density = 1.854246 g / cm^3
# Si number density = 18.584758 Si / 1000 Ang^3
#
#
#
# Elastic Constant Matrix: (Units=GPa)
#
#
# Indices 1 2 3 4 5 6 
#
# 1 78.6757 39.1781 11.1229 0.0000 0.0000 0.0000
# 2 39.1781 60.4721 7.8706 0.0000 0.0000 0.0000
# 3 11.1229 7.8706 117.0860 0.0000 0.0000 0.0000
# 4 0.0000 0.0000 0.0000 28.3109 0.0000 0.0000
# 5 0.0000 0.0000 0.0000 0.0000 7.1856 0.0000
# 6 0.0000 0.0000 0.0000 0.0000 0.0000 14.4144
#
#
#
# Elastic Compliance Matrix: (Units=1/GPa)
#
#
# Indices 1 2 3 4 5 6 
#
# 1 0.018875 -0.012101 -0.000980 0.000000 0.000000 0.000000
# 2 -0.012101 0.024441 -0.000493 0.000000 0.000000 0.000000
# 3 -0.000980 -0.000493 0.008667 0.000000 0.000000 0.000000
# 4 0.000000 0.000000 0.000000 0.035322 0.000000 0.000000
# 5 0.000000 0.000000 0.000000 0.000000 0.139168 0.000000
# 6 0.000000 0.000000 0.000000 0.000000 0.000000 0.069375
#
#
# Mechanical properties :
#
#
# Convention : Reuss Voigt Hill
#
# Bulk Modulus (GPa) = 40.26650 41.39743 40.83196
# Shear Modulus (GPa) = 15.09327 23.18632 19.13980
#
# Velocity S-wave (km/s) = 2.85288 3.53597 3.21263
# Velocity P-wave (km/s) = 5.70661 6.24452 5.98161
#
# Compressibility (1/GPa) = 0.02483454
#
# Stress axis : x y z
#
# Youngs Moduli (GPa) = 52.98078 40.91554 115.38076
#
# Poissons Ratio (x) = 0.49511 0.11303
# Poissons Ratio (y) = 0.64112 0.05692
# Poissons Ratio (z) = 0.05190 0.02019
#
# Static dielectric constant tensor:
#      x y z
#    x 1.650430 0.000000 0.000000 
#    y 0.000000 1.642470 0.000000 
#    z 0.000000 0.000000 1.705420 
# 
# From -- ./inp_files/37629.got.cif
#   From: 2010.05.17/outbox.cif.g08.bks.cpg/sg63_19_cif.got.tgz:37629.got - 2010.06.03 15:47:04.
