data_PCOD9473498
_publ_section_title
;
Structure prediction by ZEFSAII (Michael W. Deem and Ramdas Pophale) SiO2 
 PCOD9473498
Probable space group: C M C M
;
_chemical_formula_sum "Si O2"
_cell_formula_units_Z 80
_cell_length_a 28.860364
_cell_length_b 8.827381
_cell_length_c 15.952952
_cell_angle_alpha 90.000000
_cell_angle_beta 90.000000
_cell_angle_gamma 90.000000
_cell_volume 4064.196846
_symmetry_space_group_name_H-M "C M C M"
_symmetry_group_IT_number 63
_symmetry_cell_setting 'orthorhombic'
loop_
_space_group_symop_operation_xyz
x,y,z
-x,-y,1/2+z
x,-y,-z
-x,y,1/2-z
-x,-y,-z
x,y,1/2-z
-x,y,z
x,-y,1/2+z
1/2+x,1/2+y,z
1/2-x,1/2-y,1/2+z
1/2+x,1/2-y,-z
1/2-x,1/2+y,1/2-z
1/2-x,1/2-y,-z
1/2+x,1/2+y,1/2-z
1/2-x,1/2+y,z
1/2+x,1/2-y,1/2+z
loop_
_atom_site_type_symbol
_atom_site_label
_atom_site_fract_x
_atom_site_fract_y
_atom_site_fract_z
Si Si1 0.054062 0.679947 0.750000
Si Si2 0.798903 0.881798 0.345198
Si Si3 0.947953 0.310841 0.750000
Si Si4 0.382070 0.832198 0.406322
Si Si5 0.278240 0.295960 0.584427
Si Si6 0.886594 0.695288 0.092945
O O1 0.051951 0.495346 0.750000
O O2 0.084592 0.722619 0.831610
O O3 0.000000 0.731196 0.750000
O O4 0.811679 0.924642 0.250000
O O5 0.754757 0.772332 0.344620
O O6 0.784658 0.026956 0.399338
O O7 0.840679 0.791274 0.388582
O O8 0.922195 0.262153 0.834358
O O9 0.000000 0.255863 0.750000
O O10 0.329555 0.772358 0.408202
O O11 0.402442 0.786880 0.497107
O O12 0.377831 0.014645 0.398814
O O13 0.250000 0.250000 0.500000
#
# Coordination Sequence:
#
# PCOD9473498 Si02
#       6
#     8  16   8  16  16  16
#     4   9  20  38  62  91 128 167 214 273 330 381
#     4  12  25  40  61  89 127 165 217 256 317 381
#     4   9  18  36  62  93 124 159 208 271 328 381
#     4  10  22  37  61  91 127 167 212 264 321 379
#     4  12  25  40  60  90 125 173 208 260 311 383
#     4  10  20  38  61  91 125 167 209 264 318 387
#
# _framework density 19.684085
#
# number of rings (size 3 to 8) (size 9 to 14) (size 15 to 20)
#    0.000    1.400    3.000    2.400    5.600    0.800 
#    0.000    4.000    0.000    2.400    0.000    2.800 
#    0.000    0.000    0.000    0.000    0.000    0.000 
#
# Total GULP energy -223239.087440 kJ/mol
# GULP energy per Si atom -5580.977186 kJ/mol
# Density = 1.963928 g / cm^3
# Si number density = 19.684085 Si / 1000 Ang^3
#
#
#
# Elastic Constant Matrix: (Units=GPa)
#
#
# Indices 1 2 3 4 5 6 
#
# 1 163.8467 42.6339 94.2916 0.0000 0.0000 0.0000
# 2 42.6339 50.9900 55.2844 0.0000 0.0000 0.0000
# 3 94.2916 55.2844 191.4393 0.0000 0.0000 0.0000
# 4 0.0000 0.0000 0.0000 4.2223 0.0000 0.0000
# 5 0.0000 0.0000 0.0000 0.0000 21.3668 0.0000
# 6 0.0000 0.0000 0.0000 0.0000 0.0000 20.6521
#
#
#
# Elastic Compliance Matrix: (Units=1/GPa)
#
#
# Indices 1 2 3 4 5 6 
#
# 1 0.009039 -0.003975 -0.003304 0.000000 0.000000 0.000000
# 2 -0.003975 0.030300 -0.006792 0.000000 0.000000 0.000000
# 3 -0.003304 -0.006792 0.008812 0.000000 0.000000 0.000000
# 4 0.000000 0.000000 0.000000 0.236837 0.000000 0.000000
# 5 0.000000 0.000000 0.000000 0.000000 0.046802 0.000000
# 6 0.000000 0.000000 0.000000 0.000000 0.000000 0.048421
#
#
# Mechanical properties :
#
#
# Convention : Reuss Voigt Hill
#
# Bulk Modulus (GPa) = 49.97959 87.85510 68.91734
# Shear Modulus (GPa) = 12.04750 23.51931 17.78341
#
# Velocity S-wave (km/s) = 2.47663 3.46039 3.00899
# Velocity P-wave (km/s) = 5.79864 7.79071 6.86730
#
# Compressibility (1/GPa) = 0.02000817
#
# Stress axis : x y z
#
# Youngs Moduli (GPa) = 110.62944 33.00367 113.47665
#
# Poissons Ratio (x) = 0.13121 0.37494
# Poissons Ratio (y) = 0.43981 0.77072
# Poissons Ratio (z) = 0.36553 0.22416
#
# Static dielectric constant tensor:
#      x y z
#    x 1.658910 0.000000 0.000000 
#    y 0.000000 1.689800 0.000000 
#    z 0.000000 0.000000 1.592670 
# 
# From -- ./inp_files/37749.got.cif
#   From: 2010.05.17/outbox.cif.g08.bks.cpg/sg63_19_cif.got.tgz:37749.got - 2010.06.03 15:47:04.
