data_PCOD9473911
_publ_section_title
;
Structure prediction by ZEFSAII (Michael W. Deem and Ramdas Pophale) SiO2 
 PCOD9473911
Probable space group: C M C M
;
_chemical_formula_sum "Si O2"
_cell_formula_units_Z 96
_cell_length_a 21.009732
_cell_length_b 8.860819
_cell_length_c 26.642080
_cell_angle_alpha 90.000000
_cell_angle_beta 90.000000
_cell_angle_gamma 90.000000
_cell_volume 4959.781061
_symmetry_space_group_name_H-M "C M C M"
_symmetry_group_IT_number 63
_symmetry_cell_setting 'orthorhombic'
loop_
_space_group_symop_operation_xyz
x,y,z
-x,-y,1/2+z
x,-y,-z
-x,y,1/2-z
-x,-y,-z
x,y,1/2-z
-x,y,z
x,-y,1/2+z
1/2+x,1/2+y,z
1/2-x,1/2-y,1/2+z
1/2+x,1/2-y,-z
1/2-x,1/2+y,1/2-z
1/2-x,1/2-y,-z
1/2+x,1/2+y,1/2-z
1/2-x,1/2+y,z
1/2+x,1/2-y,1/2+z
loop_
_atom_site_type_symbol
_atom_site_label
_atom_site_fract_x
_atom_site_fract_y
_atom_site_fract_z
Si Si1 0.655608 0.777682 0.306270
Si Si2 0.073801 0.624065 0.901081
Si Si3 0.198803 0.075603 0.945281
Si Si4 0.430332 0.443410 0.942800
Si Si5 0.318084 0.896040 0.589257
Si Si6 0.725195 0.094331 0.193699
O O1 0.627845 0.771261 0.250000
O O2 0.605150 0.811764 0.349654
O O3 0.700714 0.633147 0.314296
O O4 0.704762 0.919348 0.307038
O O5 0.078161 0.763490 0.939640
O O6 0.116130 0.482951 0.918112
O O7 0.000000 0.585266 0.894210
O O8 0.132743 0.019077 0.920621
O O9 0.261424 0.017131 0.917364
O O10 0.194954 0.255682 0.946661
O O11 0.201692 0.000000 0.000000
O O12 0.500000 0.477440 0.919656
O O13 0.432851 0.500000 0.000000
O O14 0.312502 0.837242 0.646534
O O15 0.709336 0.150679 0.250000
#
# Coordination Sequence:
#
# PCOD9473911 Si02
#       6
#    16  16  16  16  16  16
#     4   9  17  30  51  80 112 144 179 222 272 324
#     4  10  21  36  54  78 109 146 189 231 274 330
#     4  11  22  36  56  82 111 140 178 227 279 334
#     4   9  19  37  57  77 105 140 177 222 277 331
#     4  11  21  35  57  82 111 145 182 227 279 328
#     4   9  17  30  50  79 110 138 173 216 264 319
#
# _framework density 19.355692000000001
#
# number of rings (size 3 to 8) (size 9 to 14) (size 15 to 20)
#    0.000    2.167    0.000    4.500    0.000    2.333 
#    0.000    0.000    0.000    9.500    0.000    0.000 
#    0.000    6.667    0.000    0.000    0.000    0.000 
#
# Total GULP energy -267572.373652 kJ/mol
# GULP energy per Si atom -5574.424451 kJ/mol
# Density = 1.931164 g / cm^3
# Si number density = 19.355692 Si / 1000 Ang^3
#
#
#
# Elastic Constant Matrix: (Units=GPa)
#
#
# Indices 1 2 3 4 5 6 
#
# 1 138.7889 59.3851 21.8511 0.0000 0.0000 0.0000
# 2 59.3851 83.4974 41.4929 0.0000 0.0000 0.0000
# 3 21.8511 41.4929 86.3168 0.0000 0.0000 0.0000
# 4 0.0000 0.0000 0.0000 24.4425 0.0000 0.0000
# 5 0.0000 0.0000 0.0000 0.0000 15.0648 0.0000
# 6 0.0000 0.0000 0.0000 0.0000 0.0000 33.4410
#
#
#
# Elastic Compliance Matrix: (Units=1/GPa)
#
#
# Indices 1 2 3 4 5 6 
#
# 1 0.010454 -0.008041 0.001219 0.000000 0.000000 0.000000
# 2 -0.008041 0.021920 -0.008501 0.000000 0.000000 0.000000
# 3 0.001219 -0.008501 0.015363 0.000000 0.000000 0.000000
# 4 0.000000 0.000000 0.000000 0.040912 0.000000 0.000000
# 5 0.000000 0.000000 0.000000 0.000000 0.066380 0.000000
# 6 0.000000 0.000000 0.000000 0.000000 0.000000 0.029903
#
#
# Mechanical properties :
#
#
# Convention : Reuss Voigt Hill
#
# Bulk Modulus (GPa) = 58.51254 61.56238 60.03746
# Shear Modulus (GPa) = 22.59625 26.98125 24.78875
#
# Velocity S-wave (km/s) = 3.42046 3.73764 3.58256
# Velocity P-wave (km/s) = 6.77460 7.10644 6.94250
#
# Compressibility (1/GPa) = 0.01709036
#
# Stress axis : x y z
#
# Youngs Moduli (GPa) = 95.65998 45.62106 65.08980
#
# Poissons Ratio (x) = 0.36682 -0.07933
# Poissons Ratio (y) = 0.76916 0.55336
# Poissons Ratio (z) = -0.11659 0.38784
#
# Static dielectric constant tensor:
#      x y z
#    x 1.690260 0.000000 0.000000 
#    y 0.000000 1.705220 0.000000 
#    z 0.000000 0.000000 1.743050 
# 
# From -- ./inp_files/70302.got.cif
#   From: 2010.05.17/outbox.cif.g08.bks.cpg/sg63_36_cif.got.tgz:70302.got - 2010.06.03 15:47:04.
