data_PCOD9473351
_publ_section_title
;
Structure prediction by ZEFSAII (Michael W. Deem and Ramdas Pophale) SiO2 
 PCOD9473351
Probable space group: C M C M
;
_chemical_formula_sum "Si O2"
_cell_formula_units_Z 100
_cell_length_a 23.150574
_cell_length_b 26.763392
_cell_length_c 8.735507
_cell_angle_alpha 90.000000
_cell_angle_beta 90.000000
_cell_angle_gamma 90.000000
_cell_volume 5412.414324
_symmetry_space_group_name_H-M "C M C M"
_symmetry_group_IT_number 63
_symmetry_cell_setting 'orthorhombic'
loop_
_space_group_symop_operation_xyz
x,y,z
-x,-y,1/2+z
x,-y,-z
-x,y,1/2-z
-x,-y,-z
x,y,1/2-z
-x,y,z
x,-y,1/2+z
1/2+x,1/2+y,z
1/2-x,1/2-y,1/2+z
1/2+x,1/2-y,-z
1/2-x,1/2+y,1/2-z
1/2-x,1/2-y,-z
1/2+x,1/2+y,1/2-z
1/2-x,1/2+y,z
1/2+x,1/2-y,1/2+z
loop_
_atom_site_type_symbol
_atom_site_label
_atom_site_fract_x
_atom_site_fract_y
_atom_site_fract_z
Si Si1 0.299275 0.682094 0.431766
Si Si2 0.000000 0.443113 0.933735
Si Si3 0.833949 0.713828 0.067441
Si Si4 0.694042 0.052062 0.429767
Si Si5 0.500000 0.530515 0.250000
Si Si6 0.310273 0.422812 0.423546
Si Si7 0.104153 0.376746 0.068852
Si Si8 0.407814 0.500000 0.000000
O O1 0.307030 0.674755 0.250000
O O2 0.230352 0.690387 0.458839
O O3 0.330781 0.732250 0.487955
O O4 0.320380 0.634060 0.524972
O O5 0.000000 0.446527 0.750000
O O6 0.000000 0.500000 0.000000
O O7 0.054645 0.410493 0.991109
O O8 0.840814 0.718520 0.250000
O O9 0.883599 0.678091 0.999960
O O10 0.681117 0.056449 0.250000
O O11 0.762065 0.056733 0.459731
O O12 0.662736 0.094404 0.526217
O O13 0.673444 0.000000 0.500000
O O14 0.550656 0.526784 0.380681
O O15 0.286999 0.424482 0.250000
O O16 0.366070 0.457532 0.431555
O O17 0.094439 0.374302 0.250000
#
# Coordination Sequence:
#
# PCOD9473351 Si02
#       8
#    16   8  16  16   4  16  16   8
#     4  10  21  35  58  90 129 166 204 253 316 377
#     4  12  26  46  68  92 126 170 224 267 315 380
#     4  10  20  37  59  88 127 166 207 254 314 377
#     4  12  24  37  55  86 128 163 199 252 317 370
#     4  10  24  46  64  86 116 166 204 248 286 368
#     4  12  23  36  59  93 126 160 202 256 309 372
#     4  12  24  41  64  91 124 166 213 262 316 377
#     4  11  24  42  66  90 124 163 214 248 306 363
#
# _framework density 18.476042
#
# number of rings (size 3 to 8) (size 9 to 14) (size 15 to 20)
#    0.000    0.800    3.200    5.520    2.240    1.280 
#    0.000    0.000    0.000    1.920    2.080    0.000 
#    0.000    0.000    0.000    0.000    0.000    0.000 
#
# Total GULP energy -278779.028360 kJ/mol
# GULP energy per Si atom -5575.580567 kJ/mol
# Density = 1.843399 g / cm^3
# Si number density = 18.476042 Si / 1000 Ang^3
#
#
#
# Elastic Constant Matrix: (Units=GPa)
#
#
# Indices 1 2 3 4 5 6 
#
# 1 61.2980 12.7005 13.0750 0.0000 0.0000 0.0000
# 2 12.7005 99.4987 22.4809 0.0000 0.0000 0.0000
# 3 13.0750 22.4809 112.7888 0.0000 0.0000 0.0000
# 4 0.0000 0.0000 0.0000 10.1983 0.0000 0.0000
# 5 0.0000 0.0000 0.0000 0.0000 42.4144 0.0000
# 6 0.0000 0.0000 0.0000 0.0000 0.0000 23.1273
#
#
#
# Elastic Compliance Matrix: (Units=1/GPa)
#
#
# Indices 1 2 3 4 5 6 
#
# 1 0.017033 -0.001810 -0.001614 0.000000 0.000000 0.000000
# 2 -0.001810 0.010717 -0.001926 0.000000 0.000000 0.000000
# 3 -0.001614 -0.001926 0.009437 0.000000 0.000000 0.000000
# 4 0.000000 0.000000 0.000000 0.098056 0.000000 0.000000
# 5 0.000000 0.000000 0.000000 0.000000 0.023577 0.000000
# 6 0.000000 0.000000 0.000000 0.000000 0.000000 0.043239
#
#
# Mechanical properties :
#
#
# Convention : Reuss Voigt Hill
#
# Bulk Modulus (GPa) = 37.75381 41.12202 39.43792
# Shear Modulus (GPa) = 22.56456 30.16995 26.36726
#
# Velocity S-wave (km/s) = 3.49848 4.04533 3.78180
# Velocity P-wave (km/s) = 6.06609 6.64265 6.36091
#
# Compressibility (1/GPa) = 0.02648739
#
# Stress axis : x y z
#
# Youngs Moduli (GPa) = 58.70986 93.31343 105.96421
#
# Poissons Ratio (x) = 0.16885 0.17101
# Poissons Ratio (y) = 0.10624 0.20411
# Poissons Ratio (z) = 0.09475 0.17974
#
# Static dielectric constant tensor:
#      x y z
#    x 1.640430 0.000000 0.000000 
#    y 0.000000 1.570270 0.000000 
#    z 0.000000 0.000000 1.629620 
# 
# From -- ./inp_files/8844.got.cif
#   From: 2010.05.17/outbox.cif.g08.bks.cpg/sg63_5_cif.got.tgz:8844.got - 2010.06.03 15:47:04.
