data_PCOD9473197
_publ_section_title
;
Structure prediction by ZEFSAII (Michael W. Deem and Ramdas Pophale) SiO2 
 PCOD9473197
Probable space group: C M C M
;
_chemical_formula_sum "Si O2"
_cell_formula_units_Z 80
_cell_length_a 7.934835
_cell_length_b 27.577144
_cell_length_c 18.345331
_cell_angle_alpha 90.000000
_cell_angle_beta 90.000000
_cell_angle_gamma 90.000000
_cell_volume 4014.326933
_symmetry_space_group_name_H-M "C M C M"
_symmetry_group_IT_number 63
_symmetry_cell_setting 'orthorhombic'
loop_
_space_group_symop_operation_xyz
x,y,z
-x,-y,1/2+z
x,-y,-z
-x,y,1/2-z
-x,-y,-z
x,y,1/2-z
-x,y,z
x,-y,1/2+z
1/2+x,1/2+y,z
1/2-x,1/2-y,1/2+z
1/2+x,1/2-y,-z
1/2-x,1/2+y,1/2-z
1/2-x,1/2-y,-z
1/2+x,1/2+y,1/2-z
1/2-x,1/2+y,z
1/2+x,1/2-y,1/2+z
loop_
_atom_site_type_symbol
_atom_site_label
_atom_site_fract_x
_atom_site_fract_y
_atom_site_fract_z
Si Si1 0.203265 0.645719 0.958963
Si Si2 0.000000 0.109229 0.329946
Si Si3 0.500000 0.513115 0.412673
Si Si4 0.204769 0.282440 0.166748
Si Si5 0.802491 0.324910 0.878614
Si Si6 0.313340 0.035605 0.569807
O O1 0.264247 0.677553 0.891218
O O2 0.247055 0.589008 0.954059
O O3 0.000000 0.646655 0.956177
O O4 0.247406 0.669112 0.036336
O O5 0.832721 0.141956 0.337252
O O6 0.000000 0.085834 0.250000
O O7 0.000000 0.069157 0.393085
O O8 0.500000 0.500000 0.500000
O O9 0.669467 0.488959 0.382530
O O10 0.247213 0.294919 0.250000
O O11 0.279375 0.230232 0.146451
O O12 0.000000 0.278580 0.162036
O O13 0.000000 0.339181 0.869924
O O14 0.500000 0.039764 0.602775
O O15 0.330595 0.000000 0.500000
#
# Coordination Sequence:
#
# PCOD9473197 Si02
#       6
#    16   8   8  16  16  16
#     4   9  19  35  59  91 119 157 206 252 298 364
#     4  12  26  42  62  92 126 160 199 251 316 369
#     4  10  20  36  60  86 112 152 196 235 290 353
#     4  10  20  37  58  83 123 165 199 246 307 362
#     4  11  22  39  63  87 119 159 206 252 301 361
#     4   9  17  33  57  84 115 144 186 242 292 336
#
# _framework density 19.928622000000001
#
# number of rings (size 3 to 8) (size 9 to 14) (size 15 to 20)
#    0.000    2.000    1.000    3.600    0.000    4.000 
#    3.600    1.000    0.000    1.200    0.000    0.000 
#    0.000    0.000    0.000    0.000    0.000    0.000 
#
# Total GULP energy -223083.200114 kJ/mol
# GULP energy per Si atom -5577.080003 kJ/mol
# Density = 1.988326 g / cm^3
# Si number density = 19.928622 Si / 1000 Ang^3
#
#
#
# Elastic Constant Matrix: (Units=GPa)
#
#
# Indices 1 2 3 4 5 6 
#
# 1 94.9969 18.6766 28.9753 0.0000 0.0000 0.0000
# 2 18.6766 83.9884 53.8164 0.0000 0.0000 0.0000
# 3 28.9753 53.8164 84.8429 0.0000 0.0000 0.0000
# 4 0.0000 0.0000 0.0000 0.4685 0.0000 0.0000
# 5 0.0000 0.0000 0.0000 0.0000 -0.5171 0.0000
# 6 0.0000 0.0000 0.0000 0.0000 0.0000 -14.0336
#
#
#
# Elastic Compliance Matrix: (Units=1/GPa)
#
#
# Indices 1 2 3 4 5 6 
#
# 1 0.011751 -0.000070 -0.003969 0.000000 0.000000 0.000000
# 2 -0.000070 0.020060 -0.012700 0.000000 0.000000 0.000000
# 3 -0.003969 -0.012700 0.021198 0.000000 0.000000 0.000000
# 4 0.000000 0.000000 0.000000 2.134518 0.000000 0.000000
# 5 0.000000 0.000000 0.000000 0.000000 -1.933953 0.000000
# 6 0.000000 0.000000 0.000000 0.000000 0.000000 -0.071258
#
#
# Mechanical properties :
#
#
# Convention : Reuss Voigt Hill
#
# Bulk Modulus (GPa) = 51.20183 51.86275 51.53229
# Shear Modulus (GPa) = 22.49178 8.00755 15.24967
#
# Velocity S-wave (km/s) = 3.36313 2.00670 2.76925
# Velocity P-wave (km/s) = 6.38978 5.60802 6.01162
#
# Compressibility (1/GPa) = 0.01953055
#
# Stress axis : x y z
#
# Youngs Moduli (GPa) = 85.09949 49.85124 47.17516
#
# Poissons Ratio (x) = 0.00349 0.18722
# Poissons Ratio (y) = 0.00596 0.59913
# Poissons Ratio (z) = 0.33773 0.63311
#
# Static dielectric constant tensor:
#      x y z
#    x 1.787780 0.000000 0.000000 
#    y 0.000000 1.708780 0.000000 
#    z 0.000000 0.000000 1.693040 
# 
# From -- ./inp_files/40578.got.cif
#   From: 2010.05.17/outbox.cif.g08.bks.cpg/sg63_21_cif.got.tgz:40578.got - 2010.06.03 15:47:04.
