data_PCOD9473110
_publ_section_title
;
Structure prediction by ZEFSAII (Michael W. Deem and Ramdas Pophale) SiO2 
 PCOD9473110
Probable space group: C M C M
;
_chemical_formula_sum "Si O2"
_cell_formula_units_Z 72
_cell_length_a 29.770233
_cell_length_b 14.327284
_cell_length_c 8.895707
_cell_angle_alpha 90.000000
_cell_angle_beta 90.000000
_cell_angle_gamma 90.000000
_cell_volume 3794.255510
_symmetry_space_group_name_H-M "C M C M"
_symmetry_group_IT_number 63
_symmetry_cell_setting 'orthorhombic'
loop_
_space_group_symop_operation_xyz
x,y,z
-x,-y,1/2+z
x,-y,-z
-x,y,1/2-z
-x,-y,-z
x,y,1/2-z
-x,y,z
x,-y,1/2+z
1/2+x,1/2+y,z
1/2-x,1/2-y,1/2+z
1/2+x,1/2-y,-z
1/2-x,1/2+y,1/2-z
1/2-x,1/2-y,-z
1/2+x,1/2+y,1/2-z
1/2-x,1/2+y,z
1/2+x,1/2-y,1/2+z
loop_
_atom_site_type_symbol
_atom_site_label
_atom_site_fract_x
_atom_site_fract_y
_atom_site_fract_z
Si Si1 0.184649 0.714057 0.069365
Si Si2 0.725546 0.397611 0.930227
Si Si3 0.000000 0.398526 0.071385
Si Si4 0.447882 0.594619 0.929318
Si Si5 0.915114 0.296156 0.569564
O O1 0.185324 0.728287 0.250000
O O2 0.224381 0.641694 0.031803
O O3 0.135449 0.675963 0.028865
O O4 0.194300 0.814161 0.993252
O O5 0.721396 0.403047 0.750000
O O6 0.717941 0.500000 0.000000
O O7 0.000000 0.402476 0.250000
O O8 0.000000 0.500000 0.000000
O O9 0.955253 0.347651 0.013185
O O10 0.448348 0.584829 0.750000
O O11 0.500000 0.607045 0.979060
O O12 0.420543 0.686642 0.966461
O O13 0.429958 0.500000 0.000000
O O14 0.921356 0.307340 0.750000
#
# Coordination Sequence:
#
# PCOD9473110 Si02
#       5
#    16  16   8  16  16
#     4   9  20  37  59  86 114 149 190 237 289 342
#     4  10  20  36  58  84 116 151 188 234 288 346
#     4  12  26  42  61  84 113 152 197 240 286 336
#     4   9  17  30  50  75 105 142 178 220 271 324
#     4  10  20  39  61  83 115 150 191 240 290 336
#
# _framework density 18.976054999999999
#
# number of rings (size 3 to 8) (size 9 to 14) (size 15 to 20)
#    0.000    2.222    1.111    1.667    0.000    4.444 
#    0.000    4.444    0.000    0.000    0.000    0.000 
#    0.000    0.000    0.000    0.000    0.000    0.000 
#
# Total GULP energy -200917.869232 kJ/mol
# GULP energy per Si atom -5581.051923 kJ/mol
# Density = 1.893287 g / cm^3
# Si number density = 18.976055 Si / 1000 Ang^3
#
#
#
# Elastic Constant Matrix: (Units=GPa)
#
#
# Indices 1 2 3 4 5 6 
#
# 1 112.3176 26.3846 41.2285 0.0000 0.0000 0.0000
# 2 26.3846 79.7605 33.6174 0.0000 0.0000 0.0000
# 3 41.2285 33.6174 40.9174 0.0000 0.0000 0.0000
# 4 0.0000 0.0000 0.0000 32.1346 0.0000 0.0000
# 5 0.0000 0.0000 0.0000 0.0000 18.0421 0.0000
# 6 0.0000 0.0000 0.0000 0.0000 0.0000 4.7424
#
#
#
# Elastic Compliance Matrix: (Units=1/GPa)
#
#
# Indices 1 2 3 4 5 6 
#
# 1 0.014347 0.002061 -0.016149 0.000000 0.000000 0.000000
# 2 0.002061 0.019475 -0.018076 0.000000 0.000000 0.000000
# 3 -0.016149 -0.018076 0.055563 0.000000 0.000000 0.000000
# 4 0.000000 0.000000 0.000000 0.031119 0.000000 0.000000
# 5 0.000000 0.000000 0.000000 0.000000 0.055426 0.000000
# 6 0.000000 0.000000 0.000000 0.000000 0.000000 0.210865
#
#
# Mechanical properties :
#
#
# Convention : Reuss Voigt Hill
#
# Bulk Modulus (GPa) = 39.91281 48.38404 44.14842
# Shear Modulus (GPa) = 10.88193 19.76814 15.32504
#
# Velocity S-wave (km/s) = 2.39729 3.23110 2.84491
# Velocity P-wave (km/s) = 5.36112 6.28274 5.84014
#
# Compressibility (1/GPa) = 0.02505461
#
# Stress axis : x y z
#
# Youngs Moduli (GPa) = 69.70015 51.34845 17.99761
#
# Poissons Ratio (x) = -0.10580 0.29065
# Poissons Ratio (y) = -0.14362 0.32533
# Poissons Ratio (z) = 1.12560 0.92820
#
# Static dielectric constant tensor:
#      x y z
#    x 1.712080 0.000000 0.000000 
#    y 0.000000 1.577510 0.000000 
#    z 0.000000 0.000000 1.632500 
# 
# From -- ./inp_files/13895.got.cif
#   From: 2010.05.17/outbox.cif.g08.bks.cpg/sg63_7_cif.got.tgz:13895.got - 2010.06.03 15:47:04.
