data_PCOD9473435
_publ_section_title
;
Structure prediction by ZEFSAII (Michael W. Deem and Ramdas Pophale) SiO2 
 PCOD9473435
Probable space group: C M C M
;
_chemical_formula_sum "Si O2"
_cell_formula_units_Z 52
_cell_length_a 10.373742
_cell_length_b 15.453407
_cell_length_c 15.286231
_cell_angle_alpha 90.000000
_cell_angle_beta 90.000000
_cell_angle_gamma 90.000000
_cell_volume 2450.530452
_symmetry_space_group_name_H-M "C M C M"
_symmetry_group_IT_number 63
_symmetry_cell_setting 'orthorhombic'
loop_
_space_group_symop_operation_xyz
x,y,z
-x,-y,1/2+z
x,-y,-z
-x,y,1/2-z
-x,-y,-z
x,y,1/2-z
-x,y,z
x,-y,1/2+z
1/2+x,1/2+y,z
1/2-x,1/2-y,1/2+z
1/2+x,1/2-y,-z
1/2-x,1/2+y,1/2-z
1/2-x,1/2-y,-z
1/2+x,1/2+y,1/2-z
1/2-x,1/2+y,z
1/2+x,1/2-y,1/2+z
loop_
_atom_site_type_symbol
_atom_site_label
_atom_site_fract_x
_atom_site_fract_y
_atom_site_fract_z
Si Si1 0.854923 0.011628 0.893901
Si Si2 0.264937 0.831621 0.883607
Si Si3 0.147963 0.348027 0.085966
Si Si4 0.000000 0.688934 0.250000
O O1 0.749894 0.084854 0.873202
O O2 0.000000 0.034904 0.866186
O O3 0.808668 0.919376 0.858708
O O4 0.857931 0.000000 0.000000
O O5 0.172283 0.748655 0.880222
O O6 0.387370 0.814020 0.824946
O O7 0.316257 0.843926 0.983023
O O8 0.000000 0.375300 0.097982
#
# Coordination Sequence:
#
# PCOD9473435 Si02
#       4
#    16  16  16   4
#     4   9  19  35  61  93 122 153 200 254 303 360
#     4  10  22  37  62  88 132 162 206 254 320 366
#     4  10  20  37  66  95 118 162 217 259 295 370
#     4  12  24  40  60  96 126 172 194 272 318 384
#
# _framework density 21.219895000000001
#
# number of rings (size 3 to 8) (size 9 to 14) (size 15 to 20)
#    0.000    2.154    1.538    0.923    4.308    5.538 
#    0.000    4.615    0.000    0.000    0.000    0.000 
#    0.000    0.000    0.000    0.000    0.000    0.000 
#
# Total GULP energy -144761.728406 kJ/mol
# GULP energy per Si atom -5567.758785 kJ/mol
# Density = 2.117160 g / cm^3
# Si number density = 21.219895 Si / 1000 Ang^3
#
#
#
# Elastic Constant Matrix: (Units=GPa)
#
#
# Indices 1 2 3 4 5 6 
#
# 1 200.0958 70.0655 7.6545 0.0000 0.0000 0.0000
# 2 70.0655 128.0584 12.8997 0.0000 0.0000 0.0000
# 3 7.6545 12.8997 36.6590 0.0000 0.0000 0.0000
# 4 0.0000 0.0000 0.0000 -15.2328 0.0000 0.0000
# 5 0.0000 0.0000 0.0000 0.0000 38.3903 0.0000
# 6 0.0000 0.0000 0.0000 0.0000 0.0000 8.9009
#
#
#
# Elastic Compliance Matrix: (Units=1/GPa)
#
#
# Indices 1 2 3 4 5 6 
#
# 1 0.006182 -0.003372 -0.000104 0.000000 0.000000 0.000000
# 2 -0.003372 0.009935 -0.002792 0.000000 0.000000 0.000000
# 3 -0.000104 -0.002792 0.028283 0.000000 0.000000 0.000000
# 4 0.000000 0.000000 0.000000 -0.065648 0.000000 0.000000
# 5 0.000000 0.000000 0.000000 0.000000 0.026048 0.000000
# 6 0.000000 0.000000 0.000000 0.000000 0.000000 0.112348
#
#
# Mechanical properties :
#
#
# Convention : Reuss Voigt Hill
#
# Bulk Modulus (GPa) = 31.38384 60.67250 46.02817
# Shear Modulus (GPa) = 35.63618 24.69125 30.16371
#
# Velocity S-wave (km/s) = 4.10246 3.41484 3.77435
# Velocity P-wave (km/s) = 6.10428 6.64850 6.38219
#
# Compressibility (1/GPa) = 0.03186353
#
# Stress axis : x y z
#
# Youngs Moduli (GPa) = 161.75037 100.65253 35.35739
#
# Poissons Ratio (x) = 0.33941 0.00369
# Poissons Ratio (y) = 0.54544 0.09871
# Poissons Ratio (z) = 0.01687 0.28101
#
# Static dielectric constant tensor:
#      x y z
#    x 1.709400 0.000000 0.000000 
#    y 0.000000 1.760250 0.000000 
#    z 0.000000 0.000000 1.787380 
# 
# From -- ./inp_files/39482.got.cif
#   From: 2010.05.17/outbox.cif.g08.bks.cpg/sg63_20_cif.got.tgz:39482.got - 2010.06.03 15:47:04.
