data_PCOD9473715
_publ_section_title
;
Structure prediction by ZEFSAII (Michael W. Deem and Ramdas Pophale) SiO2 
 PCOD9473715
Probable space group: C M C M
;
_chemical_formula_sum "Si O2"
_cell_formula_units_Z 68
_cell_length_a 15.591977
_cell_length_b 29.620796
_cell_length_c 7.290137
_cell_angle_alpha 90.000000
_cell_angle_beta 90.000000
_cell_angle_gamma 90.000000
_cell_volume 3366.926226
_symmetry_space_group_name_H-M "C M C M"
_symmetry_group_IT_number 63
_symmetry_cell_setting 'orthorhombic'
loop_
_space_group_symop_operation_xyz
x,y,z
-x,-y,1/2+z
x,-y,-z
-x,y,1/2-z
-x,-y,-z
x,y,1/2-z
-x,y,z
x,-y,1/2+z
1/2+x,1/2+y,z
1/2-x,1/2-y,1/2+z
1/2+x,1/2-y,-z
1/2-x,1/2+y,1/2-z
1/2-x,1/2-y,-z
1/2+x,1/2+y,1/2-z
1/2-x,1/2+y,z
1/2+x,1/2-y,1/2+z
loop_
_atom_site_type_symbol
_atom_site_label
_atom_site_fract_x
_atom_site_fract_y
_atom_site_fract_z
Si Si1 0.239111 0.133912 0.041105
Si Si2 0.343434 0.052803 0.469039
Si Si3 0.597703 0.702215 0.026635
Si Si4 0.902356 0.305713 0.028004
Si Si5 0.000000 0.431771 0.250000
O O1 0.211262 0.126569 0.250000
O O2 0.265234 0.084970 0.969710
O O3 0.166755 0.166266 0.958305
O O4 0.328068 0.161858 0.039145
O O5 0.358542 0.059719 0.250000
O O6 0.425192 0.066077 0.589918
O O7 0.326977 0.000000 0.500000
O O8 0.600759 0.703172 0.250000
O O9 0.500000 0.691429 0.974521
O O10 0.615633 0.753998 0.971442
O O11 0.901457 0.307993 0.250000
O O12 0.000000 0.317405 0.972456
#
# Coordination Sequence:
#
# PCOD9473715 Si02
#       5
#    16  16  16  16   4
#     4  10  21  33  50  77 106 136 178 227 269 322
#     4  11  24  38  56  84 111 148 185 223 269 330
#     4   8  15  32  54  75 100 136 180 225 272 325
#     4   9  18  30  49  75 104 140 179 213 264 328
#     4  12  24  40  62  78 114 150 186 220 278 314
#
# _framework density 20.196463000000001
#
# number of rings (size 3 to 8) (size 9 to 14) (size 15 to 20)
#    0.000    2.353    1.176    2.824    3.294    0.471 
#    0.000    0.000    0.000    2.824    0.000    0.000 
#    0.000    0.000    0.000    0.000    0.000    0.235 
#
# Total GULP energy -189278.592622 kJ/mol
# GULP energy per Si atom -5567.017430 kJ/mol
# Density = 2.015050 g / cm^3
# Si number density = 20.196463 Si / 1000 Ang^3
#
#
#
# Elastic Constant Matrix: (Units=GPa)
#
#
# Indices 1 2 3 4 5 6 
#
# 1 54.6209 36.3735 0.6719 0.0000 0.0000 0.0000
# 2 36.3735 41.9804 10.0299 0.0000 0.0000 0.0000
# 3 0.6719 10.0299 110.4511 0.0000 0.0000 0.0000
# 4 0.0000 0.0000 0.0000 9.9921 0.0000 0.0000
# 5 0.0000 0.0000 0.0000 0.0000 12.8200 0.0000
# 6 0.0000 0.0000 0.0000 0.0000 0.0000 -15.5063
#
#
#
# Elastic Compliance Matrix: (Units=1/GPa)
#
#
# Indices 1 2 3 4 5 6 
#
# 1 0.044424 -0.039278 0.003297 0.000000 0.000000 0.000000
# 2 -0.039278 0.059077 -0.005126 0.000000 0.000000 0.000000
# 3 0.003297 -0.005126 0.009499 0.000000 0.000000 0.000000
# 4 0.000000 0.000000 0.000000 0.100079 0.000000 0.000000
# 5 0.000000 0.000000 0.000000 0.000000 0.078003 0.000000
# 6 0.000000 0.000000 0.000000 0.000000 0.000000 -0.064490
#
#
# Mechanical properties :
#
#
# Convention : Reuss Voigt Hill
#
# Bulk Modulus (GPa) = 32.48267 33.46699 32.97483
# Shear Modulus (GPa) = 15.67059 12.12631 13.89845
#
# Velocity S-wave (km/s) = 2.78853 2.45300 2.62613
# Velocity P-wave (km/s) = 5.14647 4.96283 5.05548
#
# Compressibility (1/GPa) = 0.03078565
#
# Stress axis : x y z
#
# Youngs Moduli (GPa) = 22.51048 16.92694 105.27217
#
# Poissons Ratio (x) = 0.66486 -0.34703
# Poissons Ratio (y) = 0.88417 0.53960
# Poissons Ratio (z) = -0.07421 0.08676
#
# Static dielectric constant tensor:
#      x y z
#    x 1.683090 0.000000 0.000000 
#    y 0.000000 1.747770 0.000000 
#    z 0.000000 0.000000 1.772460 
# 
# From -- ./inp_files/4515.got.cif
#   From: 2010.05.17/outbox.cif.g08.bks.cpg/sg63_3_cif.got.tgz:4515.got - 2010.06.03 15:47:04.
