data_PCOD9473140
_publ_section_title
;
Structure prediction by ZEFSAII (Michael W. Deem and Ramdas Pophale) SiO2 
 PCOD9473140
Probable space group: C M C M
;
_chemical_formula_sum "Si O2"
_cell_formula_units_Z 112
_cell_length_a 22.627440
_cell_length_b 13.560051
_cell_length_c 19.454524
_cell_angle_alpha 90.000000
_cell_angle_beta 90.000000
_cell_angle_gamma 90.000000
_cell_volume 5969.216821
_symmetry_space_group_name_H-M "C M C M"
_symmetry_group_IT_number 63
_symmetry_cell_setting 'orthorhombic'
loop_
_space_group_symop_operation_xyz
x,y,z
-x,-y,1/2+z
x,-y,-z
-x,y,1/2-z
-x,-y,-z
x,y,1/2-z
-x,y,z
x,-y,1/2+z
1/2+x,1/2+y,z
1/2-x,1/2-y,1/2+z
1/2+x,1/2-y,-z
1/2-x,1/2+y,1/2-z
1/2-x,1/2-y,-z
1/2+x,1/2+y,1/2-z
1/2-x,1/2+y,z
1/2+x,1/2-y,1/2+z
loop_
_atom_site_type_symbol
_atom_site_label
_atom_site_fract_x
_atom_site_fract_y
_atom_site_fract_z
Si Si1 0.070245 0.225917 0.584053
Si Si2 0.431584 0.326017 0.826278
Si Si3 0.430942 0.928152 0.669755
Si Si4 0.655176 0.030695 0.573218
Si Si5 0.283147 0.449777 0.572606
Si Si6 0.649327 0.746733 0.446840
Si Si7 0.618550 0.539960 0.830738
O O1 0.077298 0.325053 0.629279
O O2 0.112605 0.234104 0.517510
O O3 0.090723 0.131864 0.628855
O O4 0.000000 0.216934 0.566239
O O5 0.408214 0.302138 0.750000
O O6 0.500000 0.300690 0.829257
O O7 0.396480 0.272535 0.885478
O O8 0.423550 0.443857 0.835208
O O9 0.416542 0.916066 0.750000
O O10 0.500000 0.954813 0.664249
O O11 0.390424 0.009160 0.633352
O O12 0.714039 0.966797 0.584422
O O13 0.673394 0.143685 0.562958
O O14 0.627244 0.000000 0.500000
O O15 0.298831 0.500000 0.500000
O O16 0.301106 0.336292 0.563462
O O17 0.321877 0.502221 0.631623
O O18 0.627439 0.562604 0.750000
#
# Coordination Sequence:
#
# PCOD9473140 Si02
#       7
#    16  16  16  16  16  16  16
#     4  11  21  35  60  91 123 162 203 247 295 354
#     4   9  19  35  56  86 124 161 199 246 298 354
#     4  10  23  42  62  89 125 160 199 246 296 353
#     4  11  24  41  64  90 115 159 197 248 301 355
#     4  10  22  40  62  89 119 157 198 250 299 353
#     4  11  22  39  61  91 119 155 202 250 297 358
#     4  10  20  36  58  88 125 163 199 245 301 354
#
# _framework density 18.762930000000001
#
# number of rings (size 3 to 8) (size 9 to 14) (size 15 to 20)
#    0.000    1.714    2.857    1.286    0.000    7.429 
#    0.000    3.571    0.000    0.000    0.000    0.000 
#    0.000    0.000    0.000    0.000    0.000    0.000 
#
# Total GULP energy -312669.617861 kJ/mol
# GULP energy per Si atom -5583.386033 kJ/mol
# Density = 1.872022 g / cm^3
# Si number density = 18.762930 Si / 1000 Ang^3
#
#
#
# Elastic Constant Matrix: (Units=GPa)
#
#
# Indices 1 2 3 4 5 6 
#
# 1 68.5536 32.8235 55.8159 0.0000 0.0000 0.0000
# 2 32.8235 84.3299 31.7750 0.0000 0.0000 0.0000
# 3 55.8159 31.7750 113.1276 0.0000 0.0000 0.0000
# 4 0.0000 0.0000 0.0000 26.5668 0.0000 0.0000
# 5 0.0000 0.0000 0.0000 0.0000 20.2382 0.0000
# 6 0.0000 0.0000 0.0000 0.0000 0.0000 10.9090
#
#
#
# Elastic Compliance Matrix: (Units=1/GPa)
#
#
# Indices 1 2 3 4 5 6 
#
# 1 0.026943 -0.006126 -0.011572 0.000000 0.000000 0.000000
# 2 -0.006126 0.014655 -0.001093 0.000000 0.000000 0.000000
# 3 -0.011572 -0.001093 0.014856 0.000000 0.000000 0.000000
# 4 0.000000 0.000000 0.000000 0.037641 0.000000 0.000000
# 5 0.000000 0.000000 0.000000 0.000000 0.049412 0.000000
# 6 0.000000 0.000000 0.000000 0.000000 0.000000 0.091667
#
#
# Mechanical properties :
#
#
# Convention : Reuss Voigt Hill
#
# Bulk Modulus (GPa) = 52.99645 56.31554 54.65599
# Shear Modulus (GPa) = 17.91806 21.24924 19.58365
#
# Velocity S-wave (km/s) = 3.09361 3.36893 3.23420
# Velocity P-wave (km/s) = 6.40837 6.72401 6.56809
#
# Compressibility (1/GPa) = 0.01886919
#
# Stress axis : x y z
#
# Youngs Moduli (GPa) = 37.11584 68.23705 67.31100
#
# Poissons Ratio (x) = 0.41805 0.77895
# Poissons Ratio (y) = 0.22739 0.07360
# Poissons Ratio (z) = 0.42952 0.07462
#
# Static dielectric constant tensor:
#      x y z
#    x 1.631430 0.000000 0.000000 
#    y 0.000000 1.654710 0.000000 
#    z 0.000000 0.000000 1.637800 
# 
# From -- ./inp_files/57591.got.cif
#   From: 2010.05.17/outbox.cif.g08.bks.cpg/sg63_29_cif.got.tgz:57591.got - 2010.06.03 15:47:04.
