data_PCOD9473571
_publ_section_title
;
Structure prediction by ZEFSAII (Michael W. Deem and Ramdas Pophale) SiO2 
 PCOD9473571
Probable space group: C M C M
;
_chemical_formula_sum "Si O2"
_cell_formula_units_Z 60
_cell_length_a 10.985638
_cell_length_b 19.166993
_cell_length_c 14.316324
_cell_angle_alpha 90.000000
_cell_angle_beta 90.000000
_cell_angle_gamma 90.000000
_cell_volume 3014.468755
_symmetry_space_group_name_H-M "C M C M"
_symmetry_group_IT_number 63
_symmetry_cell_setting 'orthorhombic'
loop_
_space_group_symop_operation_xyz
x,y,z
-x,-y,1/2+z
x,-y,-z
-x,y,1/2-z
-x,-y,-z
x,y,1/2-z
-x,y,z
x,-y,1/2+z
1/2+x,1/2+y,z
1/2-x,1/2-y,1/2+z
1/2+x,1/2-y,-z
1/2-x,1/2+y,1/2-z
1/2-x,1/2-y,-z
1/2+x,1/2+y,1/2-z
1/2-x,1/2+y,z
1/2+x,1/2-y,1/2+z
loop_
_atom_site_type_symbol
_atom_site_label
_atom_site_fract_x
_atom_site_fract_y
_atom_site_fract_z
Si Si1 0.198137 0.262987 0.250000
Si Si2 0.000000 0.615301 0.750000
Si Si3 0.637847 0.289063 0.549464
Si Si4 0.643918 0.613293 0.750000
Si Si5 0.272100 0.422278 0.042151
Si Si6 0.500000 0.074452 0.547606
O O1 0.111729 0.331225 0.250000
O O2 0.167470 0.219380 0.341409
O O3 0.327077 0.303084 0.250000
O O4 0.000000 0.568933 0.840985
O O5 0.500000 0.261596 0.533053
O O6 0.750000 0.250000 0.500000
O O7 0.643702 0.367779 0.511878
O O8 0.500000 0.601942 0.750000
O O9 0.697384 0.581985 0.652841
O O10 0.132785 0.395027 0.025947
O O11 0.282181 0.500000 0.000000
O O12 0.500000 0.000000 0.500000
#
# Coordination Sequence:
#
# PCOD9473571 Si02
#       6
#     8   4  16   8  16   8
#     4  12  24  41  66  94 129 180 224 269 334 408
#     4  12  16  40  68  86 124 168 220 264 328 394
#     4  12  25  41  68  99 132 173 228 274 334 401
#     4  12  24  41  64  95 130 176 220 274 341 394
#     4  11  25  43  68  99 135 175 222 277 341 404
#     4  10  20  38  68  96 124 176 220 266 330 406
#
# _framework density 19.904004
#
# number of rings (size 3 to 8) (size 9 to 14) (size 15 to 20)
#    0.000    0.533    6.667    0.800    1.867    3.200 
#    0.000    1.333    0.000    0.000    0.000    0.000 
#    0.000    0.000    0.000    0.000    0.000    0.000 
#
# Total GULP energy -167352.035555 kJ/mol
# GULP energy per Si atom -5578.401185 kJ/mol
# Density = 1.985870 g / cm^3
# Si number density = 19.904004 Si / 1000 Ang^3
#
#
#
# Elastic Constant Matrix: (Units=GPa)
#
#
# Indices 1 2 3 4 5 6 
#
# 1 148.1850 32.9792 37.7977 0.0000 0.0000 0.0000
# 2 32.9792 97.9641 70.4096 0.0000 0.0000 0.0000
# 3 37.7977 70.4096 169.9687 0.0000 0.0000 0.0000
# 4 0.0000 0.0000 0.0000 29.2903 0.0000 0.0000
# 5 0.0000 0.0000 0.0000 0.0000 20.4123 0.0000
# 6 0.0000 0.0000 0.0000 0.0000 0.0000 30.7389
#
#
#
# Elastic Compliance Matrix: (Units=1/GPa)
#
#
# Indices 1 2 3 4 5 6 
#
# 1 0.007385 -0.001859 -0.000872 0.000000 0.000000 0.000000
# 2 -0.001859 0.015004 -0.005802 0.000000 0.000000 0.000000
# 3 -0.000872 -0.005802 0.008481 0.000000 0.000000 0.000000
# 4 0.000000 0.000000 0.000000 0.034141 0.000000 0.000000
# 5 0.000000 0.000000 0.000000 0.000000 0.048990 0.000000
# 6 0.000000 0.000000 0.000000 0.000000 0.000000 0.032532
#
#
# Mechanical properties :
#
#
# Convention : Reuss Voigt Hill
#
# Bulk Modulus (GPa) = 72.44880 77.61009 75.02944
# Shear Modulus (GPa) = 29.72668 34.41705 32.07187
#
# Velocity S-wave (km/s) = 3.86878 4.16282 4.01849
# Velocity P-wave (km/s) = 7.51230 7.88557 7.70120
#
# Compressibility (1/GPa) = 0.01380285
#
# Stress axis : x y z
#
# Youngs Moduli (GPa) = 135.41834 66.65040 117.91410
#
# Poissons Ratio (x) = 0.12392 0.10282
# Poissons Ratio (y) = 0.25178 0.68412
# Poissons Ratio (z) = 0.11808 0.38669
#
# Static dielectric constant tensor:
#      x y z
#    x 1.815570 0.000000 0.000000 
#    y 0.000000 1.677800 0.000000 
#    z 0.000000 0.000000 1.653380 
# 
# From -- ./inp_files/29356.got.cif
#   From: 2010.05.17/outbox.cif.g08.bks.cpg/sg63_15_cif.got.tgz:29356.got - 2010.06.03 15:47:04.
