data_PCOD9473863
_publ_section_title
;
Structure prediction by ZEFSAII (Michael W. Deem and Ramdas Pophale) SiO2 
 PCOD9473863
Probable space group: C M C M
;
_chemical_formula_sum "Si O2"
_cell_formula_units_Z 96
_cell_length_a 8.286509
_cell_length_b 20.494168
_cell_length_c 29.729480
_cell_angle_alpha 90.000000
_cell_angle_beta 90.000000
_cell_angle_gamma 90.000000
_cell_volume 5048.812139
_symmetry_space_group_name_H-M "C M C M"
_symmetry_group_IT_number 63
_symmetry_cell_setting 'orthorhombic'
loop_
_space_group_symop_operation_xyz
x,y,z
-x,-y,1/2+z
x,-y,-z
-x,y,1/2-z
-x,-y,-z
x,y,1/2-z
-x,y,z
x,-y,1/2+z
1/2+x,1/2+y,z
1/2-x,1/2-y,1/2+z
1/2+x,1/2-y,-z
1/2-x,1/2+y,1/2-z
1/2-x,1/2-y,-z
1/2+x,1/2+y,1/2-z
1/2-x,1/2+y,z
1/2+x,1/2-y,1/2+z
loop_
_atom_site_type_symbol
_atom_site_label
_atom_site_fract_x
_atom_site_fract_y
_atom_site_fract_z
Si Si1 0.695046 0.740202 0.301987
Si Si2 0.191991 0.505845 0.871920
Si Si3 0.191828 0.940925 0.034657
Si Si4 0.806909 0.642618 0.120640
Si Si5 0.803056 0.388155 0.301702
Si Si6 0.806731 0.182947 0.021893
O O1 0.745178 0.727613 0.250000
O O2 0.500000 0.739165 0.302560
O O3 0.756119 0.688135 0.337870
O O4 0.746897 0.814326 0.314266
O O5 0.222750 0.540510 0.919343
O O6 0.256559 0.431749 0.873385
O O7 0.257364 0.554332 0.833667
O O8 0.000000 0.500392 0.864578
O O9 0.000000 0.934365 0.043598
O O10 0.251778 0.876064 0.009935
O O11 0.213417 0.000000 0.000000
O O12 0.749453 0.671330 0.072934
O O13 0.000000 0.640069 0.119135
O O14 0.756921 0.399212 0.250000
O O15 0.000000 0.388181 0.303430
O O16 0.000000 0.180866 0.022198
O O17 0.750000 0.250000 0.000000
#
# Coordination Sequence:
#
# PCOD9473863 Si02
#       6
#    16  16  16  16  16  16
#     4   9  19  37  60  83 110 149 194 238 286 340
#     4  10  21  35  57  86 112 147 189 232 278 331
#     4  10  21  39  59  80 111 151 186 226 282 334
#     4  11  23  37  55  85 120 151 188 235 286 337
#     4   8  16  34  58  83 109 140 184 231 277 332
#     4  11  24  41  60  83 114 151 190 235 284 339
#
# _framework density 19.014372999999999
#
# number of rings (size 3 to 8) (size 9 to 14) (size 15 to 20)
#    0.000    2.167    1.667    2.000    2.333    3.333 
#    0.000    1.667    0.000    1.500    0.000    0.000 
#    0.000    0.000    0.000    0.000    0.000    0.000 
#
# Total GULP energy -267898.379051 kJ/mol
# GULP energy per Si atom -5581.216230 kJ/mol
# Density = 1.897109 g / cm^3
# Si number density = 19.014373 Si / 1000 Ang^3
#
#
#
# Elastic Constant Matrix: (Units=GPa)
#
#
# Indices 1 2 3 4 5 6 
#
# 1 15.6739 24.8352 16.4010 0.0000 0.0000 0.0000
# 2 24.8352 174.4430 103.2533 0.0000 0.0000 0.0000
# 3 16.4010 103.2533 127.5226 0.0000 0.0000 0.0000
# 4 0.0000 0.0000 0.0000 37.4336 0.0000 0.0000
# 5 0.0000 0.0000 0.0000 0.0000 21.4880 0.0000
# 6 0.0000 0.0000 0.0000 0.0000 0.0000 17.7743
#
#
#
# Elastic Compliance Matrix: (Units=1/GPa)
#
#
# Indices 1 2 3 4 5 6 
#
# 1 0.082681 -0.010518 -0.002118 0.000000 0.000000 0.000000
# 2 -0.010518 0.012346 -0.008644 0.000000 0.000000 0.000000
# 3 -0.002118 -0.008644 0.015113 0.000000 0.000000 0.000000
# 4 0.000000 0.000000 0.000000 0.026714 0.000000 0.000000
# 5 0.000000 0.000000 0.000000 0.000000 0.046538 0.000000
# 6 0.000000 0.000000 0.000000 0.000000 0.000000 0.056261
#
#
# Mechanical properties :
#
#
# Convention : Reuss Voigt Hill
#
# Bulk Modulus (GPa) = 14.79689 67.40205 41.09947
# Shear Modulus (GPa) = 16.40747 26.88250 21.64499
#
# Velocity S-wave (km/s) = 2.94070 3.76413 3.37760
# Velocity P-wave (km/s) = 4.39649 7.37675 6.07230
#
# Compressibility (1/GPa) = 0.06758175
#
# Stress axis : x y z
#
# Youngs Moduli (GPa) = 12.09463 80.99621 66.16831
#
# Poissons Ratio (x) = 0.85189 0.14014
# Poissons Ratio (y) = 0.12721 0.57195
# Poissons Ratio (z) = 0.02561 0.70012
#
# Static dielectric constant tensor:
#      x y z
#    x 1.670260 0.000000 0.000000 
#    y 0.000000 1.741440 0.000000 
#    z 0.000000 0.000000 1.625100 
# 
# From -- ./inp_files/59929.got.cif
#   From: 2010.05.17/outbox.cif.g08.bks.cpg/sg63_30_cif.got.tgz:59929.got - 2010.06.03 15:47:04.
