data_PCOD9473691
_publ_section_title
;
Structure prediction by ZEFSAII (Michael W. Deem and Ramdas Pophale) SiO2 
 PCOD9473691
Probable space group: C M C M
;
_chemical_formula_sum "Si O2"
_cell_formula_units_Z 60
_cell_length_a 10.744472
_cell_length_b 15.601884
_cell_length_c 16.121459
_cell_angle_alpha 90.000000
_cell_angle_beta 90.000000
_cell_angle_gamma 90.000000
_cell_volume 2702.504751
_symmetry_space_group_name_H-M "C M C M"
_symmetry_group_IT_number 63
_symmetry_cell_setting 'orthorhombic'
loop_
_space_group_symop_operation_xyz
x,y,z
-x,-y,1/2+z
x,-y,-z
-x,y,1/2-z
-x,-y,-z
x,y,1/2-z
-x,y,z
x,-y,1/2+z
1/2+x,1/2+y,z
1/2-x,1/2-y,1/2+z
1/2+x,1/2-y,-z
1/2-x,1/2+y,1/2-z
1/2-x,1/2-y,-z
1/2+x,1/2+y,1/2-z
1/2-x,1/2+y,z
1/2+x,1/2-y,1/2+z
loop_
_atom_site_type_symbol
_atom_site_label
_atom_site_fract_x
_atom_site_fract_y
_atom_site_fract_z
Si Si1 0.356486 0.646348 0.071723
Si Si2 0.000000 0.416375 0.750000
Si Si3 0.294005 0.937167 0.250000
Si Si4 0.000000 0.246865 0.843799
Si Si5 0.143309 0.084355 0.250000
Si Si6 0.242058 0.670855 0.910754
O O1 0.500000 0.617767 0.062352
O O2 0.307775 0.619081 0.162276
O O3 0.348075 0.749681 0.070923
O O4 0.272062 0.618187 0.994230
O O5 0.884553 0.481096 0.750000
O O6 0.000000 0.349543 0.672624
O O7 0.306993 0.882047 0.332781
O O8 0.159433 0.982552 0.250000
O O9 0.124556 0.212928 0.886416
O O10 0.000000 0.211662 0.750000
O O11 0.000000 0.111508 0.250000
#
# Coordination Sequence:
#
# PCOD9473691 Si02
#       6
#    16   4   8   8   8  16
#     4  10  22  41  62  91 119 164 209 264 310 373
#     4  10  24  38  62  94 138 170 202 254 332 382
#     4  12  24  39  62  96 127 163 206 259 322 383
#     4  10  20  42  65  88 124 176 210 252 310 385
#     4  10  23  39  61  86 127 159 202 259 327 369
#     4  11  22  37  68  90 122 160 220 259 304 375
#
# _framework density 22.201626999999998
#
# number of rings (size 3 to 8) (size 9 to 14) (size 15 to 20)
#    0.400    1.067    2.667    2.400    3.733    1.067 
#    0.000    2.667    0.000    4.800    0.000    0.000 
#    0.000    0.000    0.000    0.000    0.000    0.000 
#
# Total GULP energy -167483.717906 kJ/mol
# GULP energy per Si atom -5582.790597 kJ/mol
# Density = 2.215110 g / cm^3
# Si number density = 22.201627 Si / 1000 Ang^3
#
#
#
# Elastic Constant Matrix: (Units=GPa)
#
#
# Indices 1 2 3 4 5 6 
#
# 1 54.2157 0.8100 -0.4817 0.0000 0.0000 0.0000
# 2 0.8100 56.4597 27.7798 0.0000 0.0000 0.0000
# 3 -0.4817 27.7798 182.7372 0.0000 0.0000 0.0000
# 4 0.0000 0.0000 0.0000 -82.0888 0.0000 0.0000
# 5 0.0000 0.0000 0.0000 0.0000 -5.9496 0.0000
# 6 0.0000 0.0000 0.0000 0.0000 0.0000 23.7690
#
#
#
# Elastic Compliance Matrix: (Units=1/GPa)
#
#
# Indices 1 2 3 4 5 6 
#
# 1 0.018450 -0.000312 0.000096 0.000000 0.000000 0.000000
# 2 -0.000312 0.019149 -0.002912 0.000000 0.000000 0.000000
# 3 0.000096 -0.002912 0.005915 0.000000 0.000000 0.000000
# 4 0.000000 0.000000 0.000000 -0.012182 0.000000 0.000000
# 5 0.000000 0.000000 0.000000 0.000000 -0.168077 0.000000
# 6 0.000000 0.000000 0.000000 0.000000 0.000000 0.042072
#
#
# Mechanical properties :
#
#
# Convention : Reuss Voigt Hill
#
# Bulk Modulus (GPa) = 26.83913 38.84764 32.84338
# Shear Modulus (GPa) = -65.79132 4.83308 -30.47912
#
# Velocity S-wave (km/s) = -5.44958 1.47703 -3.70920
# Velocity P-wave (km/s) = 5.24234 4.52156 1.87585
#
# Compressibility (1/GPa) = 0.03725904
#
# Stress axis : x y z
#
# Youngs Moduli (GPa) = 54.19954 52.22218 169.05440
#
# Poissons Ratio (x) = 0.01629 -0.01624
# Poissons Ratio (y) = 0.01691 0.49226
# Poissons Ratio (z) = -0.00521 0.15206
#
# Static dielectric constant tensor:
#      x y z
#    x 1.982390 0.000000 0.000000 
#    y 0.000000 1.798070 0.000000 
#    z 0.000000 0.000000 1.881290 
# 
# From -- ./inp_files/29074.got.cif
#   From: 2010.05.17/outbox.cif.g08.bks.cpg/sg63_15_cif.got.tgz:29074.got - 2010.06.03 15:47:04.
