data_PCOD9473369
_publ_section_title
;
Structure prediction by ZEFSAII (Michael W. Deem and Ramdas Pophale) SiO2 
 PCOD9473369
Probable space group: C M C M
;
_chemical_formula_sum "Si O2"
_cell_formula_units_Z 80
_cell_length_a 25.244594
_cell_length_b 11.475430
_cell_length_c 13.880844
_cell_angle_alpha 90.000000
_cell_angle_beta 90.000000
_cell_angle_gamma 90.000000
_cell_volume 4021.177391
_symmetry_space_group_name_H-M "C M C M"
_symmetry_group_IT_number 63
_symmetry_cell_setting 'orthorhombic'
loop_
_space_group_symop_operation_xyz
x,y,z
-x,-y,1/2+z
x,-y,-z
-x,y,1/2-z
-x,-y,-z
x,y,1/2-z
-x,y,z
x,-y,1/2+z
1/2+x,1/2+y,z
1/2-x,1/2-y,1/2+z
1/2+x,1/2-y,-z
1/2-x,1/2+y,1/2-z
1/2-x,1/2-y,-z
1/2+x,1/2+y,1/2-z
1/2-x,1/2+y,z
1/2+x,1/2-y,1/2+z
loop_
_atom_site_type_symbol
_atom_site_label
_atom_site_fract_x
_atom_site_fract_y
_atom_site_fract_z
Si Si1 0.059278 0.364252 0.473684
Si Si2 0.940080 0.172389 0.860215
Si Si3 0.667153 0.760736 0.446493
Si Si4 0.219637 0.204746 0.640759
Si Si5 0.850205 0.014245 0.139022
O O1 0.060882 0.500000 0.500000
O O2 0.062987 0.280445 0.567436
O O3 0.113924 0.330774 0.420866
O O4 0.000000 0.341748 0.430710
O O5 0.929129 0.209738 0.750000
O O6 0.899900 0.068881 0.882677
O O7 0.000000 0.127317 0.864687
O O8 0.718543 0.789163 0.383188
O O9 0.687126 0.773034 0.557580
O O10 0.654870 0.625175 0.427688
O O11 0.208852 0.245016 0.750000
O O12 0.200044 0.071338 0.634043
O O13 0.855552 0.054301 0.250000
#
# Coordination Sequence:
#
# PCOD9473369 Si02
#       5
#    16  16  16  16  16
#     4  10  22  39  58  85 118 155 203 250 297 360
#     4   9  18  35  60  87 116 154 197 243 299 360
#     4  11  22  37  62  88 119 158 201 246 307 353
#     4  10  22  38  56  85 121 158 198 242 294 362
#     4  10  20  37  60  90 123 152 195 249 297 356
#
# _framework density 19.894670999999999
#
# number of rings (size 3 to 8) (size 9 to 14) (size 15 to 20)
#    0.000    2.000    2.000    1.200    0.000    4.000 
#    0.000    4.000    0.000    4.200    0.000    0.000 
#    0.000    0.000    0.000    0.000    0.000    0.000 
#
# Total GULP energy -223117.605514 kJ/mol
# GULP energy per Si atom -5577.940138 kJ/mol
# Density = 1.984939 g / cm^3
# Si number density = 19.894671 Si / 1000 Ang^3
#
#
#
# Elastic Constant Matrix: (Units=GPa)
#
#
# Indices 1 2 3 4 5 6 
#
# 1 156.6060 49.1388 15.0306 0.0000 0.0000 0.0000
# 2 49.1388 62.0679 9.0973 0.0000 0.0000 0.0000
# 3 15.0306 9.0973 74.7569 0.0000 0.0000 0.0000
# 4 0.0000 0.0000 0.0000 18.7255 0.0000 0.0000
# 5 0.0000 0.0000 0.0000 0.0000 17.9097 0.0000
# 6 0.0000 0.0000 0.0000 0.0000 0.0000 9.3857
#
#
#
# Elastic Compliance Matrix: (Units=1/GPa)
#
#
# Indices 1 2 3 4 5 6 
#
# 1 0.008557 -0.006641 -0.000912 0.000000 0.000000 0.000000
# 2 -0.006641 0.021557 -0.001288 0.000000 0.000000 0.000000
# 3 -0.000912 -0.001288 0.013717 0.000000 0.000000 0.000000
# 4 0.000000 0.000000 0.000000 0.053403 0.000000 0.000000
# 5 0.000000 0.000000 0.000000 0.000000 0.055836 0.000000
# 6 0.000000 0.000000 0.000000 0.000000 0.000000 0.106546
#
#
# Mechanical properties :
#
#
# Convention : Reuss Voigt Hill
#
# Bulk Modulus (GPa) = 38.24253 48.88491 43.56372
# Shear Modulus (GPa) = 17.48167 23.88177 20.68172
#
# Velocity S-wave (km/s) = 2.96752 3.46845 3.22772
# Velocity P-wave (km/s) = 5.56829 6.37694 5.98629
#
# Compressibility (1/GPa) = 0.02614890
#
# Stress axis : x y z
#
# Youngs Moduli (GPa) = 116.86852 46.38770 72.90281
#
# Poissons Ratio (x) = 0.30804 0.06651
# Poissons Ratio (y) = 0.77607 0.09391
# Poissons Ratio (z) = 0.10662 0.05976
#
# Static dielectric constant tensor:
#      x y z
#    x 1.746820 0.000000 0.000000 
#    y 0.000000 1.643880 0.000000 
#    z 0.000000 0.000000 1.753510 
# 
# From -- ./inp_files/36456.got.cif
#   From: 2010.05.17/outbox.cif.g08.bks.cpg/sg63_19_cif.got.tgz:36456.got - 2010.06.03 15:47:04.
