data_PCOD9473127
_publ_section_title
;
Structure prediction by ZEFSAII (Michael W. Deem and Ramdas Pophale) SiO2 
 PCOD9473127
Probable space group: C M C M
;
_chemical_formula_sum "Si O2"
_cell_formula_units_Z 80
_cell_length_a 15.862985
_cell_length_b 27.373021
_cell_length_c 9.450129
_cell_angle_alpha 90.000000
_cell_angle_beta 90.000000
_cell_angle_gamma 90.000000
_cell_volume 4103.414428
_symmetry_space_group_name_H-M "C M C M"
_symmetry_group_IT_number 63
_symmetry_cell_setting 'orthorhombic'
loop_
_space_group_symop_operation_xyz
x,y,z
-x,-y,1/2+z
x,-y,-z
-x,y,1/2-z
-x,-y,-z
x,y,1/2-z
-x,y,z
x,-y,1/2+z
1/2+x,1/2+y,z
1/2-x,1/2-y,1/2+z
1/2+x,1/2-y,-z
1/2-x,1/2+y,1/2-z
1/2-x,1/2-y,-z
1/2+x,1/2+y,1/2-z
1/2-x,1/2+y,z
1/2+x,1/2-y,1/2+z
loop_
_atom_site_type_symbol
_atom_site_label
_atom_site_fract_x
_atom_site_fract_y
_atom_site_fract_z
Si Si1 0.333984 0.233188 0.917626
Si Si2 0.500000 0.609482 0.921110
Si Si3 0.500000 0.274884 0.076308
Si Si4 0.833978 0.948933 0.081501
Si Si5 0.401558 0.042120 0.402332
Si Si6 0.831967 0.383525 0.408902
O O1 0.335713 0.248203 0.750000
O O2 0.329474 0.174333 0.917826
O O3 0.250000 0.250000 0.000000
O O4 0.416598 0.251832 0.002665
O O5 0.500000 0.608423 0.750000
O O6 0.500000 0.666908 0.956537
O O7 0.417149 0.580289 0.967747
O O8 0.500000 0.268742 0.250000
O O9 0.840754 0.958761 0.250000
O O10 0.756374 0.911116 0.064557
O O11 0.825933 0.000000 0.000000
O O12 0.359895 0.041634 0.250000
O O13 0.500000 0.031158 0.387182
O O14 0.393347 0.093684 0.476715
O O15 0.364437 0.000000 0.500000
O O16 0.859788 0.397333 0.250000
#
# Coordination Sequence:
#
# PCOD9473127 Si02
#       6
#    16   8   8  16  16  16
#     4  11  24  43  65  93 126 166 214 267 324 386
#     4   9  19  38  62  84 116 159 199 240 303 376
#     4  11  23  42  68  94 125 169 216 268 325 386
#     4  10  20  36  58  86 117 154 197 243 297 364
#     4  10  21  36  55  81 112 148 191 236 287 348
#     4  10  22  38  58  82 116 157 199 244 300 364
#
# _framework density 19.495958000000002
#
# number of rings (size 3 to 8) (size 9 to 14) (size 15 to 20)
#    0.000    1.800    0.000    3.600    1.400    8.400 
#    0.000    4.000    0.000    0.000    0.000    0.000 
#    0.000    0.000    0.000    0.000    0.000    0.000 
#
# Total GULP energy -223171.430956 kJ/mol
# GULP energy per Si atom -5579.285774 kJ/mol
# Density = 1.945158 g / cm^3
# Si number density = 19.495958 Si / 1000 Ang^3
#
#
#
# Elastic Constant Matrix: (Units=GPa)
#
#
# Indices 1 2 3 4 5 6 
#
# 1 118.9440 48.3495 61.6576 0.0000 0.0000 0.0000
# 2 48.3495 120.8322 66.1998 0.0000 0.0000 0.0000
# 3 61.6576 66.1998 137.1740 0.0000 0.0000 0.0000
# 4 0.0000 0.0000 0.0000 34.0307 0.0000 0.0000
# 5 0.0000 0.0000 0.0000 0.0000 18.2603 0.0000
# 6 0.0000 0.0000 0.0000 0.0000 0.0000 34.6465
#
#
#
# Elastic Compliance Matrix: (Units=1/GPa)
#
#
# Indices 1 2 3 4 5 6 
#
# 1 0.011449 -0.002395 -0.003990 0.000000 0.000000 0.000000
# 2 -0.002395 0.011752 -0.004595 0.000000 0.000000 0.000000
# 3 -0.003990 -0.004595 0.011301 0.000000 0.000000 0.000000
# 4 0.000000 0.000000 0.000000 0.029385 0.000000 0.000000
# 5 0.000000 0.000000 0.000000 0.000000 0.054764 0.000000
# 6 0.000000 0.000000 0.000000 0.000000 0.000000 0.028863
#
#
# Mechanical properties :
#
#
# Convention : Reuss Voigt Hill
#
# Bulk Modulus (GPa) = 79.73525 81.04044 80.38784
# Shear Modulus (GPa) = 28.79271 30.77039 29.78155
#
# Velocity S-wave (km/s) = 3.84716 3.97709 3.91266
# Velocity P-wave (km/s) = 7.79239 7.92134 7.85713
#
# Compressibility (1/GPa) = 0.01254150
#
# Stress axis : x y z
#
# Youngs Moduli (GPa) = 87.34021 85.09480 88.48718
#
# Poissons Ratio (x) = 0.20381 0.35311
# Poissons Ratio (y) = 0.20919 0.40657
# Poissons Ratio (z) = 0.34853 0.39099
#
# Static dielectric constant tensor:
#      x y z
#    x 1.725500 0.000000 0.000000 
#    y 0.000000 1.676940 0.000000 
#    z 0.000000 0.000000 1.714360 
# 
# From -- ./inp_files/6493.got.cif
#   From: 2010.05.17/outbox.cif.g08.bks.cpg/sg63_4_cif.got.tgz:6493.got - 2010.06.03 15:47:04.
