data_PCOD9473902
_publ_section_title
;
Structure prediction by ZEFSAII (Michael W. Deem and Ramdas Pophale) SiO2 
 PCOD9473902
Probable space group: C M C M
;
_chemical_formula_sum "Si O2"
_cell_formula_units_Z 96
_cell_length_a 7.461446
_cell_length_b 20.177402
_cell_length_c 30.202742
_cell_angle_alpha 90.000000
_cell_angle_beta 90.000000
_cell_angle_gamma 90.000000
_cell_volume 4547.101198
_symmetry_space_group_name_H-M "C M C M"
_symmetry_group_IT_number 63
_symmetry_cell_setting 'orthorhombic'
loop_
_space_group_symop_operation_xyz
x,y,z
-x,-y,1/2+z
x,-y,-z
-x,y,1/2-z
-x,-y,-z
x,y,1/2-z
-x,y,z
x,-y,1/2+z
1/2+x,1/2+y,z
1/2-x,1/2-y,1/2+z
1/2+x,1/2-y,-z
1/2-x,1/2+y,1/2-z
1/2-x,1/2-y,-z
1/2+x,1/2+y,1/2-z
1/2-x,1/2+y,z
1/2+x,1/2-y,1/2+z
loop_
_atom_site_type_symbol
_atom_site_label
_atom_site_fract_x
_atom_site_fract_y
_atom_site_fract_z
Si Si1 0.212956 0.184453 0.528255
Si Si2 0.204745 0.440974 0.528367
Si Si3 0.285934 0.017947 0.300251
Si Si4 0.780772 0.767604 0.376102
Si Si5 0.785143 0.133935 0.699893
Si Si6 0.219930 0.614122 0.378207
O O1 0.250000 0.250000 0.500000
O O2 0.297016 0.122871 0.503060
O O3 0.275730 0.198246 0.578056
O O4 0.000000 0.172947 0.529510
O O5 0.290269 0.500000 0.500000
O O6 0.281665 0.418623 0.575621
O O7 0.000000 0.462126 0.538321
O O8 0.215660 0.026690 0.250000
O O9 0.500000 0.026431 0.298078
O O10 0.252201 0.941829 0.313852
O O11 0.220620 0.070138 0.336530
O O12 0.719665 0.811637 0.334749
O O13 0.724552 0.690856 0.374977
O O14 0.000000 0.767231 0.376148
O O15 0.715924 0.142531 0.750000
O O16 0.000000 0.140706 0.701625
O O17 0.000000 0.614614 0.379005
#
# Coordination Sequence:
#
# PCOD9473902 Si02
#       6
#    16  16  16  16  16  16
#     4  11  21  36  56  77 107 141 174 216 263 311
#     4  10  21  36  54  77 106 141 178 216 259 311
#     4   9  18  32  52  77 102 131 167 209 256 304
#     4   9  18  32  52  76 102 131 167 213 257 298
#     4   9  18  33  53  76 101 131 166 205 254 309
#     4   9  17  32  51  73 103 133 167 212 255 297
#
# _framework density 21.112351
#
# number of rings (size 3 to 8) (size 9 to 14) (size 15 to 20)
#    0.000    2.500    1.667    0.500    2.333    1.000 
#    0.000    5.000    0.000    0.000    0.000    4.667 
#    0.000    0.000    0.000    0.000    0.000    0.000 
#
# Total GULP energy -268012.906927 kJ/mol
# GULP energy per Si atom -5583.602228 kJ/mol
# Density = 2.106430 g / cm^3
# Si number density = 21.112351 Si / 1000 Ang^3
#
#
#
# Elastic Constant Matrix: (Units=GPa)
#
#
# Indices 1 2 3 4 5 6 
#
# 1 65.8586 -7.7257 2.8973 0.0000 0.0000 0.0000
# 2 -7.7257 141.5669 107.3949 0.0000 0.0000 0.0000
# 3 2.8973 107.3949 165.4509 0.0000 0.0000 0.0000
# 4 0.0000 0.0000 0.0000 42.6589 0.0000 0.0000
# 5 0.0000 0.0000 0.0000 0.0000 8.3836 0.0000
# 6 0.0000 0.0000 0.0000 0.0000 0.0000 37.8217
#
#
#
# Elastic Compliance Matrix: (Units=1/GPa)
#
#
# Indices 1 2 3 4 5 6 
#
# 1 0.015498 0.002072 -0.001616 0.000000 0.000000 0.000000
# 2 0.002072 0.014194 -0.009249 0.000000 0.000000 0.000000
# 3 -0.001616 -0.009249 0.012076 0.000000 0.000000 0.000000
# 4 0.000000 0.000000 0.000000 0.023442 0.000000 0.000000
# 5 0.000000 0.000000 0.000000 0.000000 0.119281 0.000000
# 6 0.000000 0.000000 0.000000 0.000000 0.000000 0.026440
#
#
# Mechanical properties :
#
#
# Convention : Reuss Voigt Hill
#
# Bulk Modulus (GPa) = 41.35569 64.22328 52.78948
# Shear Modulus (GPa) = 21.13466 35.79349 28.46407
#
# Velocity S-wave (km/s) = 3.16738 4.12197 3.67579
# Velocity P-wave (km/s) = 5.74520 7.28972 6.56305
#
# Compressibility (1/GPa) = 0.02418047
#
# Stress axis : x y z
#
# Youngs Moduli (GPa) = 64.52363 70.45406 82.80720
#
# Poissons Ratio (x) = -0.14598 0.13384
# Poissons Ratio (y) = -0.13369 0.76592
# Poissons Ratio (z) = 0.10429 0.65166
#
# Static dielectric constant tensor:
#      x y z
#    x 1.850540 0.000000 0.000000 
#    y 0.000000 1.716020 0.000000 
#    z 0.000000 0.000000 1.738620 
# 
# From -- ./inp_files/66890.got.cif
#   From: 2010.05.17/outbox.cif.g08.bks.cpg/sg63_34_cif.got.tgz:66890.got - 2010.06.03 15:47:04.
