data_PCOD9473222
_publ_section_title
;
Structure prediction by ZEFSAII (Michael W. Deem and Ramdas Pophale) SiO2 
 PCOD9473222
Probable space group: C M C M
;
_chemical_formula_sum "Si O2"
_cell_formula_units_Z 88
_cell_length_a 21.411149
_cell_length_b 5.687676
_cell_length_c 28.621471
_cell_angle_alpha 90.000000
_cell_angle_beta 90.000000
_cell_angle_gamma 90.000000
_cell_volume 3485.513531
_symmetry_space_group_name_H-M "C M C M"
_symmetry_group_IT_number 63
_symmetry_cell_setting 'orthorhombic'
loop_
_space_group_symop_operation_xyz
x,y,z
-x,-y,1/2+z
x,-y,-z
-x,y,1/2-z
-x,-y,-z
x,y,1/2-z
-x,y,z
x,-y,1/2+z
1/2+x,1/2+y,z
1/2-x,1/2-y,1/2+z
1/2+x,1/2-y,-z
1/2-x,1/2+y,1/2-z
1/2-x,1/2-y,-z
1/2+x,1/2+y,1/2-z
1/2-x,1/2+y,z
1/2+x,1/2-y,1/2+z
loop_
_atom_site_type_symbol
_atom_site_label
_atom_site_fract_x
_atom_site_fract_y
_atom_site_fract_z
Si Si1 0.102718 0.022374 0.413694
Si Si2 0.500000 0.248176 0.971536
Si Si3 0.315435 0.825810 0.250000
Si Si4 0.811974 0.336774 0.352677
Si Si5 0.434223 0.156008 0.154820
Si Si6 0.772223 0.878613 0.444088
Si Si7 0.610143 0.670601 0.750000
O O1 0.146342 0.124562 0.372543
O O2 0.153215 0.894821 0.446177
O O3 0.061854 0.219965 0.439294
O O4 0.062493 0.825150 0.389393
O O5 0.500000 0.500000 0.000000
O O6 0.500000 0.000000 0.000000
O O7 0.283448 0.809428 0.300934
O O8 0.357879 0.587480 0.250000
O O9 0.347935 0.085660 0.250000
O O10 0.867554 0.528073 0.349771
O O11 0.760362 0.383286 0.391849
O O12 0.500000 0.014275 0.156916
O O13 0.429067 0.301471 0.202754
O O14 0.749390 0.128605 0.462056
#
# Coordination Sequence:
#
# PCOD9473222 Si02
#       7
#    16   8   8  16  16  16   8
#     4  11  23  42  73  99 133 184 229 285 353 436
#     4  12  32  52  78 111 142 169 218 302 384 452
#     4  10  20  36  60  91 145 189 231 287 325 376
#     4  10  22  39  64 100 145 187 245 279 338 396
#     4  11  21  36  62  96 137 189 236 284 338 404
#     4  10  21  38  65  99 133 179 233 279 323 400
#     4  10  21  38  51  93 139 184 235 290 327 379
#
# _framework density 25.247356
#
# number of rings (size 3 to 8) (size 9 to 14) (size 15 to 20)
#    0.000    1.455    4.545    0.273    3.818    0.000 
#    0.000    5.455    0.000   13.091    0.000    0.000 
#    0.000    0.000    0.000    0.000    0.000    0.000 
#
# Total GULP energy -245564.642411 kJ/mol
# GULP energy per Si atom -5581.014600 kJ/mol
# Density = 2.518989 g / cm^3
# Si number density = 25.247356 Si / 1000 Ang^3
#
#
#
# Elastic Constant Matrix: (Units=GPa)
#
#
# Indices 1 2 3 4 5 6 
#
# 1 140.4925 56.4121 30.6540 0.0000 0.0000 0.0000
# 2 56.4121 137.0938 46.1332 0.0000 0.0000 0.0000
# 3 30.6540 46.1332 119.0832 0.0000 0.0000 0.0000
# 4 0.0000 0.0000 0.0000 41.3637 0.0000 0.0000
# 5 0.0000 0.0000 0.0000 0.0000 -2.6665 0.0000
# 6 0.0000 0.0000 0.0000 0.0000 0.0000 33.3485
#
#
#
# Elastic Compliance Matrix: (Units=1/GPa)
#
#
# Indices 1 2 3 4 5 6 
#
# 1 0.008623 -0.003221 -0.000972 0.000000 0.000000 0.000000
# 2 -0.003221 0.009591 -0.002886 0.000000 0.000000 0.000000
# 3 -0.000972 -0.002886 0.009766 0.000000 0.000000 0.000000
# 4 0.000000 0.000000 0.000000 0.024176 0.000000 0.000000
# 5 0.000000 0.000000 0.000000 0.000000 -0.375017 0.000000
# 6 0.000000 0.000000 0.000000 0.000000 0.000000 0.029986
#
#
# Mechanical properties :
#
#
# Convention : Reuss Voigt Hill
#
# Bulk Modulus (GPa) = 72.35288 73.67422 73.01355
# Shear Modulus (GPa) = -18.24095 31.97381 6.86643
#
# Velocity S-wave (km/s) = -2.69083 3.56254 1.65093
# Velocity P-wave (km/s) = 4.36643 6.79460 5.71106
#
# Compressibility (1/GPa) = 0.01382115
#
# Stress axis : x y z
#
# Youngs Moduli (GPa) = 115.96444 104.26323 102.39764
#
# Poissons Ratio (x) = 0.33587 0.09951
# Poissons Ratio (y) = 0.37356 0.29556
# Poissons Ratio (z) = 0.11270 0.30094
#
# Static dielectric constant tensor:
#      x y z
#    x 1.991380 0.000000 0.000000 
#    y 0.000000 2.017830 0.000000 
#    z 0.000000 0.000000 2.055250 
# 
# From -- ./inp_files/74255.got.cif
#   From: 2010.05.17/outbox.cif.g08.bks.cpg/sg63_38_cif.got.tgz:74255.got - 2010.06.03 15:47:04.
