data_PCOD9473358
_publ_section_title
;
Structure prediction by ZEFSAII (Michael W. Deem and Ramdas Pophale) SiO2 
 PCOD9473358
Probable space group: C M C M
;
_chemical_formula_sum "Si O2"
_cell_formula_units_Z 80
_cell_length_a 26.304305
_cell_length_b 9.158918
_cell_length_c 18.437980
_cell_angle_alpha 90.000000
_cell_angle_beta 90.000000
_cell_angle_gamma 90.000000
_cell_volume 4442.059197
_symmetry_space_group_name_H-M "C M C M"
_symmetry_group_IT_number 63
_symmetry_cell_setting 'orthorhombic'
loop_
_space_group_symop_operation_xyz
x,y,z
-x,-y,1/2+z
x,-y,-z
-x,y,1/2-z
-x,-y,-z
x,y,1/2-z
-x,y,z
x,-y,1/2+z
1/2+x,1/2+y,z
1/2-x,1/2-y,1/2+z
1/2+x,1/2-y,-z
1/2-x,1/2+y,1/2-z
1/2-x,1/2-y,-z
1/2+x,1/2+y,1/2-z
1/2-x,1/2+y,z
1/2+x,1/2-y,1/2+z
loop_
_atom_site_type_symbol
_atom_site_label
_atom_site_fract_x
_atom_site_fract_y
_atom_site_fract_z
Si Si1 0.205065 0.270548 0.834785
Si Si2 0.095840 0.565763 0.577853
Si Si3 0.694026 0.881288 0.335269
Si Si4 0.500000 0.725283 0.446705
Si Si5 0.500000 0.406134 0.390955
Si Si6 0.593081 0.227749 0.163954
O O1 0.205816 0.225801 0.750000
O O2 0.256712 0.203059 0.865065
O O3 0.205712 0.445707 0.838264
O O4 0.149428 0.226211 0.863607
O O5 0.111417 0.500000 0.500000
O O6 0.143290 0.640349 0.618211
O O7 0.049387 0.675625 0.566589
O O8 0.079847 0.425661 0.625996
O O9 0.685247 0.843670 0.250000
O O10 0.500000 0.580082 0.397959
O O11 0.500000 0.666137 0.529000
O O12 0.449825 0.345304 0.352174
O O13 0.597210 0.202025 0.250000
#
# Coordination Sequence:
#
# PCOD9473358 Si02
#       6
#    16  16  16   8   8  16
#     4   8  16  31  53  78 108 143 177 220 278 326
#     4  11  20  37  60  82 108 153 190 229 275 338
#     4   9  18  34  55  80 110 144 183 227 272 327
#     4  11  24  38  56  79 112 148 183 229 293 334
#     4  11  22  39  57  80 111 146 188 230 284 342
#     4  10  20  37  60  85 112 147 190 231 274 335
#
# _framework density 18.009664999999998
#
# number of rings (size 3 to 8) (size 9 to 14) (size 15 to 20)
#    0.000    2.200    2.000    3.000    0.000    1.600 
#    0.000   11.500    4.400    0.000    0.000    0.000 
#    0.000    0.000    0.000    0.000    0.000    0.000 
#
# Total GULP energy -223029.568732 kJ/mol
# GULP energy per Si atom -5575.739218 kJ/mol
# Density = 1.796867 g / cm^3
# Si number density = 18.009665 Si / 1000 Ang^3
#
#
#
# Elastic Constant Matrix: (Units=GPa)
#
#
# Indices 1 2 3 4 5 6 
#
# 1 141.9828 49.0623 34.8687 0.0000 0.0000 0.0000
# 2 49.0623 35.5299 23.7422 0.0000 0.0000 0.0000
# 3 34.8687 23.7422 64.9504 0.0000 0.0000 0.0000
# 4 0.0000 0.0000 0.0000 24.0182 0.0000 0.0000
# 5 0.0000 0.0000 0.0000 0.0000 -9.0575 0.0000
# 6 0.0000 0.0000 0.0000 0.0000 0.0000 38.4268
#
#
#
# Elastic Compliance Matrix: (Units=1/GPa)
#
#
# Indices 1 2 3 4 5 6 
#
# 1 0.013487 -0.018241 -0.000573 0.000000 0.000000 0.000000
# 2 -0.018241 0.061914 -0.012839 0.000000 0.000000 0.000000
# 3 -0.000573 -0.012839 0.020397 0.000000 0.000000 0.000000
# 4 0.000000 0.000000 0.000000 0.041635 0.000000 0.000000
# 5 0.000000 0.000000 0.000000 0.000000 -0.110405 0.000000
# 6 0.000000 0.000000 0.000000 0.000000 0.000000 0.026024
#
#
# Mechanical properties :
#
#
# Convention : Reuss Voigt Hill
#
# Bulk Modulus (GPa) = 30.77721 50.86773 40.82247
# Shear Modulus (GPa) = 39.31183 19.66348 29.48766
#
# Velocity S-wave (km/s) = 4.67713 3.30787 4.05078
# Velocity P-wave (km/s) = 6.80396 6.54945 6.67792
#
# Compressibility (1/GPa) = 0.03249157
#
# Stress axis : x y z
#
# Youngs Moduli (GPa) = 74.14562 16.15148 49.02662
#
# Poissons Ratio (x) = 0.29462 0.02807
# Poissons Ratio (y) = 1.35251 0.62947
# Poissons Ratio (z) = 0.04245 0.20738
#
# Static dielectric constant tensor:
#      x y z
#    x 1.638030 0.000000 0.000000 
#    y 0.000000 1.593180 0.000000 
#    z 0.000000 0.000000 1.629350 
# 
# From -- ./inp_files/48825.got.cif
#   From: 2010.05.17/outbox.cif.g08.bks.cpg/sg63_25_cif.got.tgz:48825.got - 2010.06.03 15:47:04.
