data_PCOD9473415
_publ_section_title
;
Structure prediction by ZEFSAII (Michael W. Deem and Ramdas Pophale) SiO2 
 PCOD9473415
Probable space group: C M C M
;
_chemical_formula_sum "Si O2"
_cell_formula_units_Z 116
_cell_length_a 7.587143
_cell_length_b 29.096060
_cell_length_c 21.989075
_cell_angle_alpha 90.000000
_cell_angle_beta 90.000000
_cell_angle_gamma 90.000000
_cell_volume 4854.219536
_symmetry_space_group_name_H-M "C M C M"
_symmetry_group_IT_number 63
_symmetry_cell_setting 'orthorhombic'
loop_
_space_group_symop_operation_xyz
x,y,z
-x,-y,1/2+z
x,-y,-z
-x,y,1/2-z
-x,-y,-z
x,y,1/2-z
-x,y,z
x,-y,1/2+z
1/2+x,1/2+y,z
1/2-x,1/2-y,1/2+z
1/2+x,1/2-y,-z
1/2-x,1/2+y,1/2-z
1/2-x,1/2-y,-z
1/2+x,1/2+y,1/2-z
1/2-x,1/2+y,z
1/2+x,1/2-y,1/2+z
loop_
_atom_site_type_symbol
_atom_site_label
_atom_site_fract_x
_atom_site_fract_y
_atom_site_fract_z
Si Si1 0.786815 0.523241 0.183174
Si Si2 0.205652 0.645623 0.684052
Si Si3 0.294744 0.384240 0.508804
Si Si4 0.792817 0.937679 0.390537
Si Si5 0.712042 0.201113 0.567737
Si Si6 0.800171 0.379864 0.855522
Si Si7 0.291218 0.775412 0.651721
Si Si8 0.000000 0.746296 0.750000
O O1 0.731090 0.505886 0.250000
O O2 0.733453 0.490135 0.128073
O O3 0.718542 0.575162 0.174707
O O4 0.000000 0.524521 0.182268
O O5 0.287595 0.652014 0.750000
O O6 0.211185 0.592940 0.663097
O O7 0.280168 0.673501 0.627641
O O8 0.000000 0.658724 0.689526
O O9 0.500000 0.394792 0.518988
O O10 0.225682 0.417628 0.454856
O O11 0.278311 0.331628 0.485725
O O12 0.199861 0.389277 0.572540
O O13 0.000000 0.927829 0.390570
O O14 0.500000 0.200294 0.564598
O O15 0.772002 0.252366 0.584494
O O16 0.729405 0.328597 0.846681
O O17 0.000000 0.377270 0.832326
O O18 0.500000 0.772860 0.667652
O O19 0.157127 0.750251 0.697140
#
# Coordination Sequence:
#
# PCOD9473415 Si02
#       8
#    16  16  16  16  16  16  16   4
#     4  10  22  41  64  88 121 161 207 258 323 394
#     4   9  18  31  53  81 117 158 203 252 308 377
#     4  10  22  40  64  90 128 168 211 267 323 390
#     4  10  21  37  55  87 123 158 202 255 316 381
#     4  10  20  37  62  92 127 168 216 263 323 389
#     4  10  24  44  65  92 120 163 218 272 329 380
#     4  11  25  44  67  97 135 174 221 275 326 385
#     4  12  26  44  68  98 136 178 222 266 334 398
#
# _framework density 23.896733999999999
#
# number of rings (size 3 to 8) (size 9 to 14) (size 15 to 20)
#    0.000    1.931    0.690    1.862    2.897    6.069 
#    0.000    2.759    0.000    0.000    0.000    0.000 
#    0.000    0.000    0.000    0.000    0.000    0.000 
#
# Total GULP energy -323513.271441 kJ/mol
# GULP energy per Si atom -5577.815025 kJ/mol
# Density = 2.384234 g / cm^3
# Si number density = 23.896734 Si / 1000 Ang^3
#
#
#
# Elastic Constant Matrix: (Units=GPa)
#
#
# Indices 1 2 3 4 5 6 
#
# 1 96.0650 -1.7783 2.1607 0.0000 0.0000 0.0000
# 2 -1.7783 102.7300 0.7884 0.0000 0.0000 0.0000
# 3 2.1607 0.7884 67.0501 0.0000 0.0000 0.0000
# 4 0.0000 0.0000 0.0000-1530.7728 0.0000 0.0000
# 5 0.0000 0.0000 0.0000 0.0000 15.9701 0.0000
# 6 0.0000 0.0000 0.0000 0.0000 0.0000 18.5517
#
#
#
# Elastic Compliance Matrix: (Units=1/GPa)
#
#
# Indices 1 2 3 4 5 6 
#
# 1 0.010421 0.000183 -0.000338 0.000000 0.000000 0.000000
# 2 0.000183 0.009738 -0.000120 0.000000 0.000000 0.000000
# 3 -0.000338 -0.000120 0.014927 0.000000 0.000000 0.000000
# 4 0.000000 0.000000 0.000000 -0.000653 0.000000 0.000000
# 5 0.000000 0.000000 0.000000 0.000000 0.062617 0.000000
# 6 0.000000 0.000000 0.000000 0.000000 0.000000 0.053903
#
#
# Mechanical properties :
#
#
# Convention : Reuss Voigt Hill
#
# Bulk Modulus (GPa) = 28.95639 29.79854 29.37747
# Shear Modulus (GPa) = 30.67203 -281.60524 -125.46661
#
# Velocity S-wave (km/s) = 3.58652 -10.86731 -7.25380
# Velocity P-wave (km/s) = 5.41243 12.04025 7.60504
#
# Compressibility (1/GPa) = 0.03453469
#
# Stress axis : x y z
#
# Youngs Moduli (GPa) = 95.96373 102.68687 66.99485
#
# Poissons Ratio (x) = -0.01879 0.02264
# Poissons Ratio (y) = -0.01756 0.00807
# Poissons Ratio (z) = 0.03243 0.01236
#
# Static dielectric constant tensor:
#      x y z
#    x 1.895290 0.000000 0.000000 
#    y 0.000000 1.987070 0.000000 
#    z 0.000000 0.000000 1.643030 
# 
# From -- ./inp_files/60488.got.cif
#   From: 2010.05.17/outbox.cif.g08.bks.cpg/sg63_31_cif.got.tgz:60488.got - 2010.06.03 15:47:04.
