data_PCOD9473437
_publ_section_title
;
Structure prediction by ZEFSAII (Michael W. Deem and Ramdas Pophale) SiO2 
 PCOD9473437
Probable space group: C M C M
;
_chemical_formula_sum "Si O2"
_cell_formula_units_Z 96
_cell_length_a 14.395263
_cell_length_b 20.492458
_cell_length_c 17.343724
_cell_angle_alpha 90.000000
_cell_angle_beta 90.000000
_cell_angle_gamma 90.000000
_cell_volume 5116.300110
_symmetry_space_group_name_H-M "C M C M"
_symmetry_group_IT_number 63
_symmetry_cell_setting 'orthorhombic'
loop_
_space_group_symop_operation_xyz
x,y,z
-x,-y,1/2+z
x,-y,-z
-x,y,1/2-z
-x,-y,-z
x,y,1/2-z
-x,y,z
x,-y,1/2+z
1/2+x,1/2+y,z
1/2-x,1/2-y,1/2+z
1/2+x,1/2-y,-z
1/2-x,1/2+y,1/2-z
1/2-x,1/2-y,-z
1/2+x,1/2+y,1/2-z
1/2-x,1/2+y,z
1/2+x,1/2-y,1/2+z
loop_
_atom_site_type_symbol
_atom_site_label
_atom_site_fract_x
_atom_site_fract_y
_atom_site_fract_z
Si Si1 0.296879 0.241808 0.416060
Si Si2 0.799167 0.364911 0.340665
Si Si3 0.000000 0.690542 0.840852
Si Si4 0.197224 0.878966 0.658580
Si Si5 0.000000 0.165530 0.407560
Si Si6 0.191247 0.982718 0.089834
Si Si7 0.500000 0.429158 0.340697
Si Si8 0.000000 0.796551 0.421398
O O1 0.250000 0.250000 0.500000
O O2 0.255222 0.299016 0.362583
O O3 0.265002 0.172951 0.381757
O O4 0.406806 0.253836 0.420564
O O5 0.785795 0.379630 0.250000
O O6 0.759995 0.423267 0.391855
O O7 0.907056 0.349914 0.355564
O O8 0.000000 0.708865 0.750000
O O9 0.000000 0.757551 0.887761
O O10 0.198620 0.869594 0.750000
O O11 0.093086 0.864968 0.627406
O O12 0.220833 0.952579 0.635569
O O13 0.000000 0.161257 0.499655
O O14 0.091165 0.959538 0.120607
O O15 0.186804 0.000000 0.000000
O O16 0.500000 0.443427 0.250000
O O17 0.500000 0.351180 0.354925
#
# Coordination Sequence:
#
# PCOD9473437 Si02
#       8
#    16  16   8  16   8  16   8   8
#     4  12  23  41  64  93 131 173 213 261 320 382
#     4  11  22  41  66  92 125 168 218 266 316 383
#     4  10  20  37  66  97 122 160 222 276 310 361
#     4  12  24  39  63  96 132 167 213 272 327 376
#     4  12  21  38  64  94 130 162 210 270 328 371
#     4  12  25  43  63  92 131 172 213 261 325 392
#     4  12  24  41  66  95 130 170 212 262 320 387
#     4  12  24  40  66  98 130 168 216 260 310 391
#
# _framework density 18.763559999999998
#
# number of rings (size 3 to 8) (size 9 to 14) (size 15 to 20)
#    0.000    0.333    5.000    5.500    0.000    0.667 
#    0.000    1.250    0.000    0.000    0.000    0.000 
#    0.000    0.000    0.000    0.000    0.000    0.000 
#
# Total GULP energy -268675.203755 kJ/mol
# GULP energy per Si atom -5597.400078 kJ/mol
# Density = 1.872085 g / cm^3
# Si number density = 18.763560 Si / 1000 Ang^3
#
#
#
# Elastic Constant Matrix: (Units=GPa)
#
#
# Indices 1 2 3 4 5 6 
#
# 1 116.5028 26.5528 13.7680 0.0000 0.0000 0.0000
# 2 26.5528 86.5391 -10.2351 0.0000 0.0000 0.0000
# 3 13.7680 -10.2351 55.1477 0.0000 0.0000 0.0000
# 4 0.0000 0.0000 0.0000 39.6901 0.0000 0.0000
# 5 0.0000 0.0000 0.0000 0.0000 2.6711 0.0000
# 6 0.0000 0.0000 0.0000 0.0000 0.0000 -46.9255
#
#
#
# Elastic Compliance Matrix: (Units=1/GPa)
#
#
# Indices 1 2 3 4 5 6 
#
# 1 0.009704 -0.003337 -0.003042 0.000000 0.000000 0.000000
# 2 -0.003337 0.012962 0.003239 0.000000 0.000000 0.000000
# 3 -0.003042 0.003239 0.019494 0.000000 0.000000 0.000000
# 4 0.000000 0.000000 0.000000 0.025195 0.000000 0.000000
# 5 0.000000 0.000000 0.000000 0.000000 0.374373 0.000000
# 6 0.000000 0.000000 0.000000 0.000000 0.000000 -0.021310
#
#
# Mechanical properties :
#
#
# Convention : Reuss Voigt Hill
#
# Bulk Modulus (GPa) = 27.87111 35.37344 31.62227
# Shear Modulus (GPa) = 11.39841 14.29407 12.84624
#
# Velocity S-wave (km/s) = 2.46738 2.76307 2.61940
# Velocity P-wave (km/s) = 4.79618 5.39189 5.10274
#
# Compressibility (1/GPa) = 0.03587945
#
# Stress axis : x y z
#
# Youngs Moduli (GPa) = 103.05516 77.14588 51.29866
#
# Poissons Ratio (x) = 0.25744 0.15605
# Poissons Ratio (y) = 0.34391 -0.16615
# Poissons Ratio (z) = 0.31348 -0.24987
#
# Static dielectric constant tensor:
#      x y z
#    x 1.624160 0.000000 0.000000 
#    y 0.000000 1.626040 0.000000 
#    z 0.000000 0.000000 1.657360 
# 
# From -- ./inp_files/32008.got.cif
#   From: 2010.05.17/outbox.cif.g08.bks.cpg/sg63_17_cif.got.tgz:32008.got - 2010.06.03 15:47:04.
