data_PCOD9473424
_publ_section_title
;
Structure prediction by ZEFSAII (Michael W. Deem and Ramdas Pophale) SiO2 
 PCOD9473424
Probable space group: C M C M
;
_chemical_formula_sum "Si O2"
_cell_formula_units_Z 100
_cell_length_a 7.669435
_cell_length_b 29.003762
_cell_length_c 19.137089
_cell_angle_alpha 90.000000
_cell_angle_beta 90.000000
_cell_angle_gamma 90.000000
_cell_volume 4256.901296
_symmetry_space_group_name_H-M "C M C M"
_symmetry_group_IT_number 63
_symmetry_cell_setting 'orthorhombic'
loop_
_space_group_symop_operation_xyz
x,y,z
-x,-y,1/2+z
x,-y,-z
-x,y,1/2-z
-x,-y,-z
x,y,1/2-z
-x,y,z
x,-y,1/2+z
1/2+x,1/2+y,z
1/2-x,1/2-y,1/2+z
1/2+x,1/2-y,-z
1/2-x,1/2+y,1/2-z
1/2-x,1/2-y,-z
1/2+x,1/2+y,1/2-z
1/2-x,1/2+y,z
1/2+x,1/2-y,1/2+z
loop_
_atom_site_type_symbol
_atom_site_label
_atom_site_fract_x
_atom_site_fract_y
_atom_site_fract_z
Si Si1 0.500000 0.052791 0.250000
Si Si2 0.303406 0.922514 0.355953
Si Si3 0.800026 0.066031 0.490515
Si Si4 0.293391 0.776850 0.673467
Si Si5 0.802183 0.022297 0.350479
Si Si6 0.711698 0.833465 0.539891
Si Si7 0.788863 0.677641 0.879628
O O1 0.653964 0.049106 0.309722
O O2 0.500000 0.924183 0.328316
O O3 0.310152 0.928038 0.440012
O O4 0.228132 0.871205 0.347322
O O5 0.209008 0.968344 0.330645
O O6 0.762974 0.027652 0.433029
O O7 0.777776 0.114654 0.450820
O O8 0.000000 0.060731 0.514054
O O9 0.221830 0.790133 0.750000
O O10 0.500000 0.786777 0.675194
O O11 0.224570 0.802265 0.604118
O O12 0.268899 0.722484 0.661562
O O13 0.000000 0.038683 0.339400
O O14 0.500000 0.833257 0.539702
O O15 0.766990 0.818544 0.461317
O O16 0.000000 0.675605 0.879042
#
# Coordination Sequence:
#
# PCOD9473424 Si02
#       7
#     4  16  16  16  16  16  16
#     4  12  26  44  62  82 120 184 210 242 312 354
#     4  10  20  37  63  92 119 154 198 249 316 372
#     4  10  21  36  60  94 122 146 191 256 312 365
#     4  10  21  37  54  81 114 151 196 244 300 366
#     4  11  24  42  62  91 124 160 213 257 295 367
#     4   9  19  36  58  83 114 152 197 244 299 369
#     4   9  19  35  57  85 114 148 196 245 295 364
#
# _framework density 23.491266
#
# number of rings (size 3 to 8) (size 9 to 14) (size 15 to 20)
#    0.000    2.080    0.800    3.120    2.240    6.080 
#    2.880    0.000    0.000    0.000    0.000    0.000 
#    0.000    0.000    0.000    0.000    0.000    0.000 
#
# Total GULP energy -278876.555740 kJ/mol
# GULP energy per Si atom -5577.531115 kJ/mol
# Density = 2.343780 g / cm^3
# Si number density = 23.491266 Si / 1000 Ang^3
#
#
#
# Elastic Constant Matrix: (Units=GPa)
#
#
# Indices 1 2 3 4 5 6 
#
# 1 74.7919 -18.3218 23.4254 0.0000 0.0000 0.0000
# 2 -18.3218 54.6584 7.2801 0.0000 0.0000 0.0000
# 3 23.4254 7.2801 105.8201 0.0000 0.0000 0.0000
# 4 0.0000 0.0000 0.0000 -57.3076 0.0000 0.0000
# 5 0.0000 0.0000 0.0000 0.0000 31.6076 0.0000
# 6 0.0000 0.0000 0.0000 0.0000 0.0000 22.2618
#
#
#
# Elastic Compliance Matrix: (Units=1/GPa)
#
#
# Indices 1 2 3 4 5 6 
#
# 1 0.016059 0.005911 -0.003962 0.000000 0.000000 0.000000
# 2 0.005911 0.020640 -0.002728 0.000000 0.000000 0.000000
# 3 -0.003962 -0.002728 0.010515 0.000000 0.000000 0.000000
# 4 0.000000 0.000000 0.000000 -0.017450 0.000000 0.000000
# 5 0.000000 0.000000 0.000000 0.000000 0.031638 0.000000
# 6 0.000000 0.000000 0.000000 0.000000 0.000000 0.044920
#
#
# Mechanical properties :
#
#
# Convention : Reuss Voigt Hill
#
# Bulk Modulus (GPa) = 21.90319 28.89311 25.39815
# Shear Modulus (GPa) = 40.61751 14.17147 27.39449
#
# Velocity S-wave (km/s) = 4.16269 2.45881 3.41861
# Velocity P-wave (km/s) = 5.69633 4.51522 5.13982
#
# Compressibility (1/GPa) = 0.04565545
#
# Stress axis : x y z
#
# Youngs Moduli (GPa) = 62.26943 48.44920 95.10487
#
# Poissons Ratio (x) = -0.28637 0.37678
# Poissons Ratio (y) = -0.36806 0.25949
# Poissons Ratio (z) = 0.24669 0.13219
#
# Static dielectric constant tensor:
#      x y z
#    x 1.847070 0.000000 0.000000 
#    y 0.000000 1.906620 0.000000 
#    z 0.000000 0.000000 1.902580 
# 
# From -- ./inp_files/51527.got.cif
#   From: 2010.05.17/outbox.cif.g08.bks.cpg/sg63_26_cif.got.tgz:51527.got - 2010.06.03 15:47:04.
