data_PCOD9473319
_publ_section_title
;
Structure prediction by ZEFSAII (Michael W. Deem and Ramdas Pophale) SiO2 
 PCOD9473319
Probable space group: C M C M
;
_chemical_formula_sum "Si O2"
_cell_formula_units_Z 116
_cell_length_a 23.919605
_cell_length_b 28.347773
_cell_length_c 7.754865
_cell_angle_alpha 90.000000
_cell_angle_beta 90.000000
_cell_angle_gamma 90.000000
_cell_volume 5258.322178
_symmetry_space_group_name_H-M "C M C M"
_symmetry_group_IT_number 63
_symmetry_cell_setting 'orthorhombic'
loop_
_space_group_symop_operation_xyz
x,y,z
-x,-y,1/2+z
x,-y,-z
-x,y,1/2-z
-x,-y,-z
x,y,1/2-z
-x,y,z
x,-y,1/2+z
1/2+x,1/2+y,z
1/2-x,1/2-y,1/2+z
1/2+x,1/2-y,-z
1/2-x,1/2+y,1/2-z
1/2-x,1/2-y,-z
1/2+x,1/2+y,1/2-z
1/2-x,1/2+y,z
1/2+x,1/2-y,1/2+z
loop_
_atom_site_type_symbol
_atom_site_label
_atom_site_fract_x
_atom_site_fract_y
_atom_site_fract_z
Si Si1 0.628473 0.332264 0.953932
Si Si2 0.436380 0.052926 0.954621
Si Si3 0.281303 0.551432 0.549884
Si Si4 0.563098 0.760839 0.959038
Si Si5 0.250785 0.849693 0.554774
Si Si6 0.000000 0.045317 0.250000
Si Si7 0.872841 0.352519 0.542928
Si Si8 0.412718 0.430898 0.053982
O O1 0.631106 0.344027 0.750000
O O2 0.692037 0.333131 0.024952
O O3 0.601594 0.281643 0.979002
O O4 0.591845 0.373838 0.038414
O O5 0.440169 0.055090 0.750000
O O6 0.500000 0.059030 0.026351
O O7 0.396280 0.095528 0.007661
O O8 0.417247 0.000000 0.000000
O O9 0.260799 0.500000 0.500000
O O10 0.269631 0.560964 0.750000
O O11 0.255299 0.593677 0.442622
O O12 0.348533 0.553170 0.527767
O O13 0.563536 0.760277 0.750000
O O14 0.500000 0.752990 0.018212
O O15 0.585181 0.811790 0.016565
O O16 0.251592 0.830453 0.750000
O O17 0.310945 0.841150 0.472201
O O18 0.951638 0.049740 0.403764
O O19 0.868480 0.349092 0.750000
O O20 0.430630 0.443538 0.250000
#
# Coordination Sequence:
#
# PCOD9473319 Si02
#       8
#    16  16  16  16  16   4  16  16
#     4  10  20  37  58  85 116 153 201 252 304 358
#     4  10  21  37  59  86 117 156 196 238 290 350
#     4  10  21  37  62  85 113 153 195 245 301 363
#     4  10  22  37  56  84 118 157 196 244 299 358
#     4   9  20  38  60  84 113 151 195 248 302 356
#     4  12  22  36  62  86 118 164 194 258 308 366
#     4  10  21  39  60  85 119 156 197 244 298 354
#     4  10  22  38  58  87 118 157 204 251 308 368
#
# _framework density 22.060269000000002
#
# number of rings (size 3 to 8) (size 9 to 14) (size 15 to 20)
#    0.000    2.069    0.690    1.862    2.897    4.414 
#    0.000    0.345    0.000    0.000    0.000    0.000 
#    0.000    0.000    0.000    0.000    0.000    0.000 
#
# Total GULP energy -323566.325707 kJ/mol
# GULP energy per Si atom -5578.729754 kJ/mol
# Density = 2.201006 g / cm^3
# Si number density = 22.060269 Si / 1000 Ang^3
#
#
#
# Elastic Constant Matrix: (Units=GPa)
#
#
# Indices 1 2 3 4 5 6 
#
# 1 94.3658 43.2666 16.7627 0.0000 0.0000 0.0000
# 2 43.2666 112.5498 -1.6058 0.0000 0.0000 0.0000
# 3 16.7627 -1.6058 82.1782 0.0000 0.0000 0.0000
# 4 0.0000 0.0000 0.0000 17.8040 0.0000 0.0000
# 5 0.0000 0.0000 0.0000 0.0000 14.6466 0.0000
# 6 0.0000 0.0000 0.0000 0.0000 0.0000 -0.6668
#
#
#
# Elastic Compliance Matrix: (Units=1/GPa)
#
#
# Indices 1 2 3 4 5 6 
#
# 1 0.013503 -0.005232 -0.002857 0.000000 0.000000 0.000000
# 2 -0.005232 0.010914 0.001280 0.000000 0.000000 0.000000
# 3 -0.002857 0.001280 0.012776 0.000000 0.000000 0.000000
# 4 0.000000 0.000000 0.000000 0.056167 0.000000 0.000000
# 5 0.000000 0.000000 0.000000 0.000000 0.068275 0.000000
# 6 0.000000 0.000000 0.000000 0.000000 0.000000 -1.499790
#
#
# Mechanical properties :
#
#
# Convention : Reuss Voigt Hill
#
# Bulk Modulus (GPa) = 42.41195 45.10454 43.75824
# Shear Modulus (GPa) = -3.79744 21.73479 8.96868
#
# Velocity S-wave (km/s) = -1.31344 3.14227 2.01850
# Velocity P-wave (km/s) = 4.11911 5.80134 5.03103
#
# Compressibility (1/GPa) = 0.02357826
#
# Stress axis : x y z
#
# Youngs Moduli (GPa) = 74.05648 91.62211 78.26941
#
# Poissons Ratio (x) = 0.47934 0.22358
# Poissons Ratio (y) = 0.38744 -0.10022
# Poissons Ratio (z) = 0.21155 -0.11732
#
# Static dielectric constant tensor:
#      x y z
#    x 1.823420 0.000000 0.000000 
#    y 0.000000 1.787480 0.000000 
#    z 0.000000 0.000000 1.824560 
# 
# From -- ./inp_files/11155.got.cif
#   From: 2010.05.17/outbox.cif.g08.bks.cpg/sg63_6_cif.got.tgz:11155.got - 2010.06.03 15:47:04.
