data_PCOD9473800
_publ_section_title
;
Structure prediction by ZEFSAII (Michael W. Deem and Ramdas Pophale) SiO2 
 PCOD9473800
Probable space group: C M C M
;
_chemical_formula_sum "Si O2"
_cell_formula_units_Z 64
_cell_length_a 9.339957
_cell_length_b 41.621044
_cell_length_c 9.809021
_cell_angle_alpha 90.000000
_cell_angle_beta 90.000000
_cell_angle_gamma 90.000000
_cell_volume 3813.146673
_symmetry_space_group_name_H-M "C M C M"
_symmetry_group_IT_number 63
_symmetry_cell_setting 'orthorhombic'
loop_
_space_group_symop_operation_xyz
x,y,z
-x,-y,1/2+z
x,-y,-z
-x,y,1/2-z
-x,-y,-z
x,y,1/2-z
-x,y,z
x,-y,1/2+z
1/2+x,1/2+y,z
1/2-x,1/2-y,1/2+z
1/2+x,1/2-y,-z
1/2-x,1/2+y,1/2-z
1/2-x,1/2-y,-z
1/2+x,1/2+y,1/2-z
1/2-x,1/2+y,z
1/2+x,1/2-y,1/2+z
loop_
_atom_site_type_symbol
_atom_site_label
_atom_site_fract_x
_atom_site_fract_y
_atom_site_fract_z
Si Si1 0.670710 0.149974 0.088057
Si Si2 0.829936 0.096829 0.588338
Si Si3 0.171383 0.276194 0.909770
Si Si4 0.330256 0.969096 0.089090
O O1 0.695941 0.145495 0.250000
O O2 0.500000 0.146066 0.065433
O O3 0.708825 0.186940 0.053973
O O4 0.757665 0.124736 0.999431
O O5 0.803892 0.102202 0.750000
O O6 0.758537 0.062619 0.553004
O O7 0.000000 0.095815 0.566355
O O8 0.205502 0.271674 0.750000
O O9 0.000000 0.273161 0.924560
O O10 0.250000 0.250000 0.000000
O O11 0.308992 0.975706 0.250000
O O12 0.500000 0.962903 0.068115
O O13 0.290244 0.000000 0.000000
#
# Coordination Sequence:
#
# PCOD9473800 Si02
#       4
#    16  16  16  16
#     4   9  19  36  55  74  99 133 172 211 250 296
#     4  10  21  35  51  75 106 136 167 206 252 300
#     4   9  19  35  53  75 103 133 167 208 252 299
#     4   9  18  33  52  73  98 130 168 207 246 292
#
# _framework density 16.784039
#
# number of rings (size 3 to 8) (size 9 to 14) (size 15 to 20)
#    0.000    2.750    0.000    2.250    0.000    6.000 
#    0.000   10.000    0.000    0.000    0.000    0.000 
#    0.000    0.000    0.000    0.000    0.000    0.000 
#
# Total GULP energy -178485.949986 kJ/mol
# GULP energy per Si atom -5577.685937 kJ/mol
# Density = 1.674584 g / cm^3
# Si number density = 16.784039 Si / 1000 Ang^3
#
#
#
# Elastic Constant Matrix: (Units=GPa)
#
#
# Indices 1 2 3 4 5 6 
#
# 1 67.9795 101.0742 66.3912 0.0000 0.0000 0.0000
# 2 101.0742 201.2774 113.7107 0.0000 0.0000 0.0000
# 3 66.3912 113.7107 75.2718 0.0000 0.0000 0.0000
# 4 0.0000 0.0000 0.0000 42.1384 0.0000 0.0000
# 5 0.0000 0.0000 0.0000 0.0000 29.2956 0.0000
# 6 0.0000 0.0000 0.0000 0.0000 0.0000 32.5030
#
#
#
# Elastic Compliance Matrix: (Units=1/GPa)
#
#
# Indices 1 2 3 4 5 6 
#
# 1 0.106377 -0.002810 -0.089582 0.000000 0.000000 0.000000
# 2 -0.002810 0.033974 -0.048846 0.000000 0.000000 0.000000
# 3 -0.089582 -0.048846 0.166088 0.000000 0.000000 0.000000
# 4 0.000000 0.000000 0.000000 0.023731 0.000000 0.000000
# 5 0.000000 0.000000 0.000000 0.000000 0.034135 0.000000
# 6 0.000000 0.000000 0.000000 0.000000 0.000000 0.030766
#
#
# Mechanical properties :
#
#
# Convention : Reuss Voigt Hill
#
# Bulk Modulus (GPa) = 41.72867 100.76455 71.24661
# Shear Modulus (GPa) = 7.29357 25.01091 16.15224
#
# Velocity S-wave (km/s) = 2.08686 3.86445 3.10555
# Velocity P-wave (km/s) = 5.54281 8.94864 7.44315
#
# Compressibility (1/GPa) = 0.02396434
#
# Stress axis : x y z
#
# Youngs Moduli (GPa) = 9.40053 29.43391 6.02090
#
# Poissons Ratio (x) = 0.08270 0.53936
# Poissons Ratio (y) = 0.02641 0.29410
# Poissons Ratio (z) = 0.84212 1.43772
#
# Static dielectric constant tensor:
#      x y z
#    x 1.553320 0.000000 0.000000 
#    y 0.000000 1.539360 0.000000 
#    z 0.000000 0.000000 1.550520 
# 
# From -- ./inp_files/16183.got.cif
#   From: 2010.05.17/outbox.cif.g08.bks.cpg/sg63_9_cif.got.tgz:16183.got - 2010.06.03 15:47:04.
