data_PCOD9473256
_publ_section_title
;
Structure prediction by ZEFSAII (Michael W. Deem and Ramdas Pophale) SiO2 
 PCOD9473256
Probable space group: C M C M
;
_chemical_formula_sum "Si O2"
_cell_formula_units_Z 72
_cell_length_a 18.205042
_cell_length_b 24.425674
_cell_length_c 8.515175
_cell_angle_alpha 90.000000
_cell_angle_beta 90.000000
_cell_angle_gamma 90.000000
_cell_volume 3786.446453
_symmetry_space_group_name_H-M "C M C M"
_symmetry_group_IT_number 63
_symmetry_cell_setting 'orthorhombic'
loop_
_space_group_symop_operation_xyz
x,y,z
-x,-y,1/2+z
x,-y,-z
-x,y,1/2-z
-x,-y,-z
x,y,1/2-z
-x,y,z
x,-y,1/2+z
1/2+x,1/2+y,z
1/2-x,1/2-y,1/2+z
1/2+x,1/2-y,-z
1/2-x,1/2+y,1/2-z
1/2-x,1/2-y,-z
1/2+x,1/2+y,1/2-z
1/2-x,1/2+y,z
1/2+x,1/2-y,1/2+z
loop_
_atom_site_type_symbol
_atom_site_label
_atom_site_fract_x
_atom_site_fract_y
_atom_site_fract_z
Si Si1 0.211767 0.061995 0.561295
Si Si2 0.142796 0.377218 0.561377
Si Si3 0.832900 0.253956 0.939544
Si Si4 0.000000 0.438679 0.436817
Si Si5 0.915980 0.144156 0.558360
O O1 0.213715 0.061134 0.750000
O O2 0.282993 0.094904 0.501709
O O3 0.139182 0.095650 0.510454
O O4 0.212152 0.000000 0.500000
O O5 0.144141 0.379655 0.750000
O O6 0.138205 0.313591 0.512742
O O7 0.072475 0.408852 0.498680
O O8 0.831611 0.252206 0.750000
O O9 0.881194 0.202238 0.992846
O O10 0.750000 0.250000 0.000000
O O11 0.000000 0.500000 0.500000
O O12 0.000000 0.438988 0.250000
O O13 0.916793 0.144554 0.750000
O O14 0.000000 0.137600 0.505478
#
# Coordination Sequence:
#
# PCOD9473256 Si02
#       5
#    16  16  16   8  16
#     4  11  22  38  61  86 117 157 203 250 300 360
#     4  11  23  39  62  92 123 157 199 247 303 364
#     4  10  20  36  62  89 119 154 195 243 294 355
#     4  12  26  44  64  88 124 162 203 252 301 360
#     4   9  19  36  59  87 119 157 197 243 299 356
#
# _framework density 19.01519
#
# number of rings (size 3 to 8) (size 9 to 14) (size 15 to 20)
#    0.000    1.556    2.222    3.000    1.556    1.333 
#    0.000    0.000    0.000    4.667    0.000    0.000 
#    0.000    0.000    0.000    0.000    0.000    0.000 
#
# Total GULP energy -201174.632987 kJ/mol
# GULP energy per Si atom -5588.184250 kJ/mol
# Density = 1.897191 g / cm^3
# Si number density = 19.015190 Si / 1000 Ang^3
#
#
#
# Elastic Constant Matrix: (Units=GPa)
#
#
# Indices 1 2 3 4 5 6 
#
# 1 146.7479 55.4947 25.1326 0.0000 0.0000 0.0000
# 2 55.4947 141.7955 34.8755 0.0000 0.0000 0.0000
# 3 25.1326 34.8755 43.2262 0.0000 0.0000 0.0000
# 4 0.0000 0.0000 0.0000 11.1527 0.0000 0.0000
# 5 0.0000 0.0000 0.0000 0.0000 22.2669 0.0000
# 6 0.0000 0.0000 0.0000 0.0000 0.0000 35.3344
#
#
#
# Elastic Compliance Matrix: (Units=1/GPa)
#
#
# Indices 1 2 3 4 5 6 
#
# 1 0.008249 -0.002556 -0.002734 0.000000 0.000000 0.000000
# 2 -0.002556 0.009590 -0.006252 0.000000 0.000000 0.000000
# 3 -0.002734 -0.006252 0.029768 0.000000 0.000000 0.000000
# 4 0.000000 0.000000 0.000000 0.089664 0.000000 0.000000
# 5 0.000000 0.000000 0.000000 0.000000 0.044910 0.000000
# 6 0.000000 0.000000 0.000000 0.000000 0.000000 0.028301
#
#
# Mechanical properties :
#
#
# Convention : Reuss Voigt Hill
#
# Bulk Modulus (GPa) = 40.77638 62.53058 51.65348
# Shear Modulus (GPa) = 20.68339 28.16859 24.42599
#
# Velocity S-wave (km/s) = 3.30165 3.85304 3.58795
# Velocity P-wave (km/s) = 6.00210 7.26295 6.66242
#
# Compressibility (1/GPa) = 0.02452400
#
# Stress axis : x y z
#
# Youngs Moduli (GPa) = 121.22298 104.27108 33.59365
#
# Poissons Ratio (x) = 0.26653 0.09185
# Poissons Ratio (y) = 0.30986 0.21001
# Poissons Ratio (z) = 0.33142 0.65185
#
# Static dielectric constant tensor:
#      x y z
#    x 1.622520 0.000000 0.000000 
#    y 0.000000 1.656520 0.000000 
#    z 0.000000 0.000000 1.536510 
# 
# From -- ./inp_files/4662.got.cif
#   From: 2010.05.17/outbox.cif.g08.bks.cpg/sg63_3_cif.got.tgz:4662.got - 2010.06.03 15:47:04.
