data_PCOD9473264
_publ_section_title
;
Structure prediction by ZEFSAII (Michael W. Deem and Ramdas Pophale) SiO2 
 PCOD9473264
Probable space group: C M C M
;
_chemical_formula_sum "Si O2"
_cell_formula_units_Z 76
_cell_length_a 7.654889
_cell_length_b 27.059254
_cell_length_c 19.901188
_cell_angle_alpha 90.000000
_cell_angle_beta 90.000000
_cell_angle_gamma 90.000000
_cell_volume 4122.244234
_symmetry_space_group_name_H-M "C M C M"
_symmetry_group_IT_number 63
_symmetry_cell_setting 'orthorhombic'
loop_
_space_group_symop_operation_xyz
x,y,z
-x,-y,1/2+z
x,-y,-z
-x,y,1/2-z
-x,-y,-z
x,y,1/2-z
-x,y,z
x,-y,1/2+z
1/2+x,1/2+y,z
1/2-x,1/2-y,1/2+z
1/2+x,1/2-y,-z
1/2-x,1/2+y,1/2-z
1/2-x,1/2-y,-z
1/2+x,1/2+y,1/2-z
1/2-x,1/2+y,z
1/2+x,1/2-y,1/2+z
loop_
_atom_site_type_symbol
_atom_site_label
_atom_site_fract_x
_atom_site_fract_y
_atom_site_fract_z
Si Si1 0.288850 0.700572 0.172491
Si Si2 0.500000 0.952974 0.250000
Si Si3 0.500000 0.058058 0.015022
Si Si4 0.292824 0.596858 0.386356
Si Si5 0.797660 0.965653 0.750000
Si Si6 0.299587 0.688467 0.670170
Si Si7 0.000000 0.618932 0.877928
O O1 0.232958 0.692179 0.250000
O O2 0.500000 0.703016 0.172808
O O3 0.240112 0.653676 0.127816
O O4 0.219908 0.753952 0.150969
O O5 0.500000 0.918877 0.315609
O O6 0.332137 0.988501 0.250000
O O7 0.330090 0.072719 0.058373
O O8 0.500000 0.088787 0.946390
O O9 0.500000 0.000000 0.000000
O O10 0.500000 0.595255 0.402908
O O11 0.269924 0.567596 0.316145
O O12 0.000000 0.981770 0.750000
O O13 0.253986 0.685794 0.750000
O O14 0.500000 0.673119 0.662317
O O15 0.168101 0.654060 0.630138
#
# Coordination Sequence:
#
# PCOD9473264 Si02
#       7
#    16   4   8  16   8  16   8
#     4   9  16  32  63  97 130 161 191 250 319 377
#     4  12  24  40  66  84 120 162 220 278 312 358
#     4  12  28  45  63  88 124 175 227 260 313 374
#     4  10  21  40  65  95 129 163 205 260 324 375
#     4  10  20  38  63  97 123 153 206 272 320 371
#     4  10  20  36  62  96 126 157 203 250 316 384
#     4  12  24  44  63  85 125 175 209 265 316 368
#
# _framework density 18.43656
#
# number of rings (size 3 to 8) (size 9 to 14) (size 15 to 20)
#    0.000    1.684    3.158    1.895    1.474    2.105 
#    0.000    1.053    0.000    0.000    0.000    0.000 
#    0.000    0.000    0.000    0.000    0.000    0.000 
#
# Total GULP energy -212329.608495 kJ/mol
# GULP energy per Si atom -5587.621276 kJ/mol
# Density = 1.839460 g / cm^3
# Si number density = 18.436560 Si / 1000 Ang^3
#
#
#
# Elastic Constant Matrix: (Units=GPa)
#
#
# Indices 1 2 3 4 5 6 
#
# 1 98.0452 83.9052 69.9734 0.0000 0.0000 0.0000
# 2 83.9052 158.3657 77.9163 0.0000 0.0000 0.0000
# 3 69.9734 77.9163 116.2179 0.0000 0.0000 0.0000
# 4 0.0000 0.0000 0.0000 18.6566 0.0000 0.0000
# 5 0.0000 0.0000 0.0000 0.0000 20.0176 0.0000
# 6 0.0000 0.0000 0.0000 0.0000 0.0000 61.9743
#
#
#
# Elastic Compliance Matrix: (Units=1/GPa)
#
#
# Indices 1 2 3 4 5 6 
#
# 1 0.023245 -0.008102 -0.008563 0.000000 0.000000 0.000000
# 2 -0.008102 0.012247 -0.003332 0.000000 0.000000 0.000000
# 3 -0.008563 -0.003332 0.015994 0.000000 0.000000 0.000000
# 4 0.000000 0.000000 0.000000 0.053600 0.000000 0.000000
# 5 0.000000 0.000000 0.000000 0.000000 0.049956 0.000000
# 6 0.000000 0.000000 0.000000 0.000000 0.000000 0.016136
#
#
# Mechanical properties :
#
#
# Convention : Reuss Voigt Hill
#
# Bulk Modulus (GPa) = 87.03167 92.91316 89.97242
# Shear Modulus (GPa) = 23.25538 29.51863 26.38701
#
# Velocity S-wave (km/s) = 3.55543 4.00571 3.78727
# Velocity P-wave (km/s) = 8.01020 8.47937 8.24812
#
# Compressibility (1/GPa) = 0.01149007
#
# Stress axis : x y z
#
# Youngs Moduli (GPa) = 43.02056 81.65408 62.52160
#
# Poissons Ratio (x) = 0.66159 0.53539
# Poissons Ratio (y) = 0.34857 0.20834
# Poissons Ratio (z) = 0.36840 0.27210
#
# Static dielectric constant tensor:
#      x y z
#    x 1.645380 0.000000 0.000000 
#    y 0.000000 1.619510 0.000000 
#    z 0.000000 0.000000 1.605400 
# 
# From -- ./inp_files/40645.got.cif
#   From: 2010.05.17/outbox.cif.g08.bks.cpg/sg63_21_cif.got.tgz:40645.got - 2010.06.03 15:47:04.
