data_PCOD9473804
_publ_section_title
;
Structure prediction by ZEFSAII (Michael W. Deem and Ramdas Pophale) SiO2 
 PCOD9473804
Probable space group: C M C M
;
_chemical_formula_sum "Si O2"
_cell_formula_units_Z 96
_cell_length_a 9.152510
_cell_length_b 25.652873
_cell_length_c 24.013608
_cell_angle_alpha 90.000000
_cell_angle_beta 90.000000
_cell_angle_gamma 90.000000
_cell_volume 5638.111237
_symmetry_space_group_name_H-M "C M C M"
_symmetry_group_IT_number 63
_symmetry_cell_setting 'orthorhombic'
loop_
_space_group_symop_operation_xyz
x,y,z
-x,-y,1/2+z
x,-y,-z
-x,y,1/2-z
-x,-y,-z
x,y,1/2-z
-x,y,z
x,-y,1/2+z
1/2+x,1/2+y,z
1/2-x,1/2-y,1/2+z
1/2+x,1/2-y,-z
1/2-x,1/2+y,1/2-z
1/2-x,1/2-y,-z
1/2+x,1/2+y,1/2-z
1/2-x,1/2+y,z
1/2+x,1/2-y,1/2+z
loop_
_atom_site_type_symbol
_atom_site_label
_atom_site_fract_x
_atom_site_fract_y
_atom_site_fract_z
Si Si1 0.325417 0.901250 0.120462
Si Si2 0.175184 0.561412 0.496846
Si Si3 0.675083 0.187874 0.314491
Si Si4 0.825138 0.809988 0.185371
Si Si5 0.674336 0.400359 0.614345
Si Si6 0.174399 0.004294 0.815200
O O1 0.500000 0.900697 0.125786
O O2 0.289449 0.912138 0.055868
O O3 0.257871 0.848290 0.144271
O O4 0.259624 0.948670 0.156166
O O5 0.214216 0.500000 0.500000
O O6 0.256443 0.588194 0.445652
O O7 0.000000 0.564326 0.488162
O O8 0.713632 0.175925 0.250000
O O9 0.500000 0.181351 0.319946
O O10 0.707627 0.248978 0.324088
O O11 0.757453 0.149971 0.356194
O O12 0.788262 0.822250 0.250000
O O13 0.000000 0.816822 0.179660
O O14 0.500000 0.395368 0.610207
O O15 0.707437 0.450583 0.653045
O O16 0.210165 0.000248 0.750000
O O17 0.000000 0.013860 0.820013
#
# Coordination Sequence:
#
# PCOD9473804 Si02
#       6
#    16  16  16  16  16  16
#     4  11  22  35  55  82 108 140 185 231 272 319
#     4  10  21  39  57  75 108 150 188 228 275 327
#     4   9  19  37  60  83 110 148 186 219 269 334
#     4   9  19  37  59  82 111 147 182 220 273 333
#     4  11  22  35  56  84 112 142 184 232 276 323
#     4  10  21  35  51  76 112 146 173 213 273 334
#
# _framework density 17.026979000000001
#
# number of rings (size 3 to 8) (size 9 to 14) (size 15 to 20)
#    0.000    2.000    1.667    3.000    0.000    6.667 
#    0.000    2.500    0.000    0.000    0.000    0.000 
#    0.000    0.000    0.000    0.000    0.000    0.000 
#
# Total GULP energy -268052.284287 kJ/mol
# GULP energy per Si atom -5584.422589 kJ/mol
# Density = 1.698823 g / cm^3
# Si number density = 17.026979 Si / 1000 Ang^3
#
#
#
# Elastic Constant Matrix: (Units=GPa)
#
#
# Indices 1 2 3 4 5 6 
#
# 1 43.2468 59.7293 72.6893 0.0000 0.0000 0.0000
# 2 59.7293 114.8059 99.4008 0.0000 0.0000 0.0000
# 3 72.6893 99.4008 168.9095 0.0000 0.0000 0.0000
# 4 0.0000 0.0000 0.0000 14.6209 0.0000 0.0000
# 5 0.0000 0.0000 0.0000 0.0000 30.0785 0.0000
# 6 0.0000 0.0000 0.0000 0.0000 0.0000 31.4144
#
#
#
# Elastic Compliance Matrix: (Units=1/GPa)
#
#
# Indices 1 2 3 4 5 6 
#
# 1 0.145739 -0.043876 -0.036897 0.000000 0.000000 0.000000
# 2 -0.043876 0.030968 0.000658 0.000000 0.000000 0.000000
# 3 -0.036897 0.000658 0.021412 0.000000 0.000000 0.000000
# 4 0.000000 0.000000 0.000000 0.068395 0.000000 0.000000
# 5 0.000000 0.000000 0.000000 0.000000 0.033246 0.000000
# 6 0.000000 0.000000 0.000000 0.000000 0.000000 0.031833
#
#
# Mechanical properties :
#
#
# Convention : Reuss Voigt Hill
#
# Bulk Modulus (GPa) = 26.39434 87.84455 57.11944
# Shear Modulus (GPa) = 9.91168 21.56561 15.73865
#
# Velocity S-wave (km/s) = 2.41533 3.56273 3.04359
# Velocity P-wave (km/s) = 4.82841 8.28417 6.78015
#
# Compressibility (1/GPa) = 0.03788691
#
# Stress axis : x y z
#
# Youngs Moduli (GPa) = 6.86157 32.29103 46.70288
#
# Poissons Ratio (x) = 1.41682 1.72322
# Poissons Ratio (y) = 0.30106 -0.03071
# Poissons Ratio (z) = 0.25317 -0.02123
#
# Static dielectric constant tensor:
#      x y z
#    x 1.561760 0.000000 0.000000 
#    y 0.000000 1.553420 0.000000 
#    z 0.000000 0.000000 1.552770 
# 
# From -- ./inp_files/51260.got.cif
#   From: 2010.05.17/outbox.cif.g08.bks.cpg/sg63_26_cif.got.tgz:51260.got - 2010.06.03 15:47:04.
