data_PCOD9473668
_publ_section_title
;
Structure prediction by ZEFSAII (Michael W. Deem and Ramdas Pophale) SiO2 
 PCOD9473668
Probable space group: C M C M
;
_chemical_formula_sum "Si O2"
_cell_formula_units_Z 112
_cell_length_a 15.722424
_cell_length_b 22.029097
_cell_length_c 15.120074
_cell_angle_alpha 90.000000
_cell_angle_beta 90.000000
_cell_angle_gamma 90.000000
_cell_volume 5236.849777
_symmetry_space_group_name_H-M "C M C M"
_symmetry_group_IT_number 63
_symmetry_cell_setting 'orthorhombic'
loop_
_space_group_symop_operation_xyz
x,y,z
-x,-y,1/2+z
x,-y,-z
-x,y,1/2-z
-x,-y,-z
x,y,1/2-z
-x,y,z
x,-y,1/2+z
1/2+x,1/2+y,z
1/2-x,1/2-y,1/2+z
1/2+x,1/2-y,-z
1/2-x,1/2+y,1/2-z
1/2-x,1/2-y,-z
1/2+x,1/2+y,1/2-z
1/2-x,1/2+y,z
1/2+x,1/2-y,1/2+z
loop_
_atom_site_type_symbol
_atom_site_label
_atom_site_fract_x
_atom_site_fract_y
_atom_site_fract_z
Si Si1 0.662175 0.858531 0.645868
Si Si2 0.406902 0.490625 0.395059
Si Si3 0.147421 0.121230 0.147285
Si Si4 0.911866 0.752223 0.854619
Si Si5 0.596582 0.071845 0.520435
Si Si6 0.257818 0.398514 0.145905
Si Si7 0.226400 0.770831 0.097684
O O1 0.644403 0.873365 0.750000
O O2 0.755567 0.883373 0.616579
O O3 0.604005 0.888724 0.570654
O O4 0.673627 0.785152 0.638465
O O5 0.401957 0.500000 0.500000
O O6 0.500000 0.464473 0.372120
O O7 0.400386 0.558771 0.359213
O O8 0.325920 0.452663 0.364356
O O9 0.158138 0.136556 0.250000
O O10 0.100977 0.179622 0.107380
O O11 0.922075 0.755757 0.750000
O O12 0.821431 0.721630 0.863931
O O13 0.000000 0.725948 0.892124
O O14 0.500000 0.079839 0.555959
O O15 0.673055 0.089794 0.587261
O O16 0.606975 0.000000 0.500000
O O17 0.237471 0.392412 0.250000
O O18 0.307241 0.338267 0.110579
O O19 0.250000 0.750000 0.000000
#
# Coordination Sequence:
#
# PCOD9473668 Si02
#       7
#    16  16  16  16  16  16  16
#     4  10  20  40  68  95 126 170 218 268 329 395
#     4  11  24  39  60  92 131 170 208 253 312 388
#     4   9  17  32  58  88 118 154 195 245 306 374
#     4   9  18  33  57  89 118 149 200 261 315 371
#     4  11  25  44  66  96 132 170 224 284 335 390
#     4  12  25  43  67  95 133 178 220 270 332 392
#     4  11  22  40  63  90 127 172 217 270 324 395
#
# _framework density 21.386904000000001
#
# number of rings (size 3 to 8) (size 9 to 14) (size 15 to 20)
#    0.000    1.571    1.429    5.143    2.000    4.571 
#    0.000    2.143    0.000    1.714    0.000    0.000 
#    0.000    0.000    0.000    0.000    0.000    0.000 
#
# Total GULP energy -312155.914302 kJ/mol
# GULP energy per Si atom -5574.212755 kJ/mol
# Density = 2.133823 g / cm^3
# Si number density = 21.386904 Si / 1000 Ang^3
#
#
#
# Elastic Constant Matrix: (Units=GPa)
#
#
# Indices 1 2 3 4 5 6 
#
# 1 73.6651 20.7592 21.5755 0.0000 0.0000 0.0000
# 2 20.7592 109.1060 12.2946 0.0000 0.0000 0.0000
# 3 21.5755 12.2946 94.9988 0.0000 0.0000 0.0000
# 4 0.0000 0.0000 0.0000 24.7021 0.0000 0.0000
# 5 0.0000 0.0000 0.0000 0.0000 28.1536 0.0000
# 6 0.0000 0.0000 0.0000 0.0000 0.0000 -40.3317
#
#
#
# Elastic Compliance Matrix: (Units=1/GPa)
#
#
# Indices 1 2 3 4 5 6 
#
# 1 0.015206 -0.002541 -0.003125 0.000000 0.000000 0.000000
# 2 -0.002541 0.009726 -0.000682 0.000000 0.000000 0.000000
# 3 -0.003125 -0.000682 0.011324 0.000000 0.000000 0.000000
# 4 0.000000 0.000000 0.000000 0.040482 0.000000 0.000000
# 5 0.000000 0.000000 0.000000 0.000000 0.035519 0.000000
# 6 0.000000 0.000000 0.000000 0.000000 0.000000 -0.024794
#
#
# Mechanical properties :
#
#
# Convention : Reuss Voigt Hill
#
# Bulk Modulus (GPa) = 42.44209 43.00315 42.72262
# Shear Modulus (GPa) = 46.29109 17.38086 31.83597
#
# Velocity S-wave (km/s) = 4.65742 2.85386 3.86239
# Velocity P-wave (km/s) = 6.98642 5.56868 6.31745
#
# Compressibility (1/GPa) = 0.02356152
#
# Stress axis : x y z
#
# Youngs Moduli (GPa) = 65.76261 102.82044 88.30568
#
# Poissons Ratio (x) = 0.26128 0.27592
# Poissons Ratio (y) = 0.16711 0.06019
# Poissons Ratio (z) = 0.20549 0.07008
#
# Static dielectric constant tensor:
#      x y z
#    x 1.829110 0.000000 0.000000 
#    y 0.000000 1.821840 0.000000 
#    z 0.000000 0.000000 1.751360 
# 
# From -- ./inp_files/32297.got.cif
#   From: 2010.05.17/outbox.cif.g08.bks.cpg/sg63_17_cif.got.tgz:32297.got - 2010.06.03 15:47:04.
