data_PCOD9473855
_publ_section_title
;
Structure prediction by ZEFSAII (Michael W. Deem and Ramdas Pophale) SiO2 
 PCOD9473855
Probable space group: C M C M
;
_chemical_formula_sum "Si O2"
_cell_formula_units_Z 112
_cell_length_a 16.330117
_cell_length_b 14.158389
_cell_length_c 23.738813
_cell_angle_alpha 90.000000
_cell_angle_beta 90.000000
_cell_angle_gamma 90.000000
_cell_volume 5488.607011
_symmetry_space_group_name_H-M "C M C M"
_symmetry_group_IT_number 63
_symmetry_cell_setting 'orthorhombic'
loop_
_space_group_symop_operation_xyz
x,y,z
-x,-y,1/2+z
x,-y,-z
-x,y,1/2-z
-x,-y,-z
x,y,1/2-z
-x,y,z
x,-y,1/2+z
1/2+x,1/2+y,z
1/2-x,1/2-y,1/2+z
1/2+x,1/2-y,-z
1/2-x,1/2+y,1/2-z
1/2-x,1/2-y,-z
1/2+x,1/2+y,1/2-z
1/2-x,1/2+y,z
1/2+x,1/2-y,1/2+z
loop_
_atom_site_type_symbol
_atom_site_label
_atom_site_fract_x
_atom_site_fract_y
_atom_site_fract_z
Si Si1 0.681210 0.180371 0.975822
Si Si2 0.910377 0.198662 0.106110
Si Si3 0.409467 0.898887 0.573301
Si Si4 0.297954 0.039413 0.874388
Si Si5 0.591742 0.306455 0.128813
Si Si6 0.860385 0.000198 0.568110
Si Si7 0.730086 0.786364 0.313946
O O1 0.607507 0.242043 0.950862
O O2 0.709040 0.119105 0.923154
O O3 0.750000 0.250000 0.000000
O O4 0.652477 0.106507 0.021887
O O5 0.834534 0.226323 0.147735
O O6 0.000000 0.224337 0.129768
O O7 0.912035 0.090792 0.085782
O O8 0.500000 0.926578 0.555659
O O9 0.410674 0.791441 0.594748
O O10 0.375274 0.972709 0.618285
O O11 0.218539 0.981254 0.891734
O O12 0.297015 0.103526 0.819503
O O13 0.500000 0.316269 0.155532
O O14 0.604734 0.398825 0.089308
O O15 0.674421 0.292088 0.165896
O O16 0.846881 0.000000 0.500000
O O17 0.726487 0.752655 0.250000
#
# Coordination Sequence:
#
# PCOD9473855 Si02
#       7
#    16  16  16  16  16  16  16
#     4  11  20  34  56  83 119 161 198 238 291 350
#     4  11  23  37  57  89 124 158 201 246 290 351
#     4  11  21  34  54  84 122 158 191 234 293 360
#     4  10  21  35  56  84 114 152 200 246 290 348
#     4  10  22  39  60  89 121 152 196 250 300 359
#     4  11  20  35  59  89 126 164 195 229 287 364
#     4  10  23  44  66  84 110 153 203 259 315 357
#
# _framework density 20.405906000000002
#
# number of rings (size 3 to 8) (size 9 to 14) (size 15 to 20)
#    0.000    1.429    0.000    8.143    0.000    6.286 
#    0.000    6.429    0.000    4.286    0.000    0.000 
#    0.000    0.000    0.000    0.000    0.000    0.000 
#
# Total GULP energy -311992.989170 kJ/mol
# GULP energy per Si atom -5571.303378 kJ/mol
# Density = 2.035946 g / cm^3
# Si number density = 20.405906 Si / 1000 Ang^3
#
#
#
# Elastic Constant Matrix: (Units=GPa)
#
#
# Indices 1 2 3 4 5 6 
#
# 1 113.4085 39.1023 14.5263 0.0000 0.0000 0.0000
# 2 39.1023 86.3696 23.0002 0.0000 0.0000 0.0000
# 3 14.5263 23.0002 57.2321 0.0000 0.0000 0.0000
# 4 0.0000 0.0000 0.0000 11.0145 0.0000 0.0000
# 5 0.0000 0.0000 0.0000 0.0000 6.0907 0.0000
# 6 0.0000 0.0000 0.0000 0.0000 0.0000 3.6711
#
#
#
# Elastic Compliance Matrix: (Units=1/GPa)
#
#
# Indices 1 2 3 4 5 6 
#
# 1 0.010485 -0.004522 -0.000844 0.000000 0.000000 0.000000
# 2 -0.004522 0.014916 -0.004847 0.000000 0.000000 0.000000
# 3 -0.000844 -0.004847 0.019635 0.000000 0.000000 0.000000
# 4 0.000000 0.000000 0.000000 0.090789 0.000000 0.000000
# 5 0.000000 0.000000 0.000000 0.000000 0.164185 0.000000
# 6 0.000000 0.000000 0.000000 0.000000 0.000000 0.272394
#
#
# Mechanical properties :
#
#
# Convention : Reuss Voigt Hill
#
# Bulk Modulus (GPa) = 40.63325 45.58530 43.10928
# Shear Modulus (GPa) = 8.31900 16.18070 12.24985
#
# Velocity S-wave (km/s) = 2.02129 2.81898 2.45278
# Velocity P-wave (km/s) = 5.04016 5.74311 5.40308
#
# Compressibility (1/GPa) = 0.02461039
#
# Stress axis : x y z
#
# Youngs Moduli (GPa) = 95.37459 67.04145 50.93031
#
# Poissons Ratio (x) = 0.30317 0.04298
# Poissons Ratio (y) = 0.43130 0.24684
# Poissons Ratio (z) = 0.08048 0.32493
#
# Static dielectric constant tensor:
#      x y z
#    x 1.782000 0.000000 0.000000 
#    y 0.000000 1.769670 0.000000 
#    z 0.000000 0.000000 1.800940 
# 
# From -- ./inp_files/62999.got.cif
#   From: 2010.05.17/outbox.cif.g08.bks.cpg/sg63_32_cif.got.tgz:62999.got - 2010.06.03 15:47:04.
