data_PCOD9473949
_publ_section_title
;
Structure prediction by ZEFSAII (Michael W. Deem and Ramdas Pophale) SiO2 
 PCOD9473949
Probable space group: C M C M
;
_chemical_formula_sum "Si O2"
_cell_formula_units_Z 96
_cell_length_a 27.601144
_cell_length_b 20.921537
_cell_length_c 8.490018
_cell_angle_alpha 90.000000
_cell_angle_beta 90.000000
_cell_angle_gamma 90.000000
_cell_volume 4902.631832
_symmetry_space_group_name_H-M "C M C M"
_symmetry_group_IT_number 63
_symmetry_cell_setting 'orthorhombic'
loop_
_space_group_symop_operation_xyz
x,y,z
-x,-y,1/2+z
x,-y,-z
-x,y,1/2-z
-x,-y,-z
x,y,1/2-z
-x,y,z
x,-y,1/2+z
1/2+x,1/2+y,z
1/2-x,1/2-y,1/2+z
1/2+x,1/2-y,-z
1/2-x,1/2+y,1/2-z
1/2-x,1/2-y,-z
1/2+x,1/2+y,1/2-z
1/2-x,1/2+y,z
1/2+x,1/2-y,1/2+z
loop_
_atom_site_type_symbol
_atom_site_label
_atom_site_fract_x
_atom_site_fract_y
_atom_site_fract_z
Si Si1 0.699217 0.765352 0.425755
Si Si2 0.943729 0.308830 0.940480
Si Si3 0.717847 0.913562 0.426599
Si Si4 0.884552 0.190325 0.567942
Si Si5 0.326309 0.569947 0.063403
Si Si6 0.613212 0.065940 0.559597
O O1 0.691523 0.737296 0.250000
O O2 0.750000 0.750000 0.500000
O O3 0.702031 0.840454 0.409588
O O4 0.660029 0.739002 0.545097
O O5 0.938132 0.309247 0.750000
O O6 0.926903 0.237452 0.995340
O O7 0.000000 0.318391 0.979123
O O8 0.912946 0.368458 0.007507
O O9 0.723722 0.941762 0.250000
O O10 0.770587 0.917970 0.505616
O O11 0.668456 0.936954 0.507778
O O12 0.894505 0.176047 0.750000
O O13 0.863703 0.125226 0.491964
O O14 0.325736 0.568998 0.250000
O O15 0.340356 0.500000 0.000000
O O16 0.615751 0.065890 0.750000
O O17 0.588889 0.000000 0.500000
#
# Coordination Sequence:
#
# PCOD9473949 Si02
#       6
#    16  16  16  16  16  16
#     4  11  20  32  53  83 117 153 196 239 282 338
#     4  10  23  43  66  90 114 146 192 246 302 356
#     4  10  21  36  55  83 121 160 202 240 279 335
#     4  11  22  38  61  86 117 152 193 243 296 353
#     4  12  25  39  59  86 122 161 200 239 287 347
#     4  11  23  39  59  86 120 160 201 244 290 342
#
# _framework density 19.581318
#
# number of rings (size 3 to 8) (size 9 to 14) (size 15 to 20)
#    0.000    1.167    3.333    3.500    0.000    4.667 
#    0.000    0.000    0.000    0.500    0.000    0.000 
#    0.000    0.000    0.000    0.000    0.000    0.000 
#
# Total GULP energy -267430.110888 kJ/mol
# GULP energy per Si atom -5571.460643 kJ/mol
# Density = 1.953675 g / cm^3
# Si number density = 19.581318 Si / 1000 Ang^3
#
#
#
# Elastic Constant Matrix: (Units=GPa)
#
#
# Indices 1 2 3 4 5 6 
#
# 1 84.2667 49.4483 22.1708 0.0000 0.0000 0.0000
# 2 49.4483 157.9141 37.4286 0.0000 0.0000 0.0000
# 3 22.1708 37.4286 59.9749 0.0000 0.0000 0.0000
# 4 0.0000 0.0000 0.0000 24.4854 0.0000 0.0000
# 5 0.0000 0.0000 0.0000 0.0000 12.5221 0.0000
# 6 0.0000 0.0000 0.0000 0.0000 0.0000 9.2098
#
#
#
# Elastic Compliance Matrix: (Units=1/GPa)
#
#
# Indices 1 2 3 4 5 6 
#
# 1 0.015005 -0.003971 -0.003068 0.000000 0.000000 0.000000
# 2 -0.003971 0.008483 -0.003826 0.000000 0.000000 0.000000
# 3 -0.003068 -0.003826 0.020196 0.000000 0.000000 0.000000
# 4 0.000000 0.000000 0.000000 0.040841 0.000000 0.000000
# 5 0.000000 0.000000 0.000000 0.000000 0.079859 0.000000
# 6 0.000000 0.000000 0.000000 0.000000 0.000000 0.108580
#
#
# Mechanical properties :
#
#
# Convention : Reuss Voigt Hill
#
# Bulk Modulus (GPa) = 45.55375 57.80567 51.67971
# Shear Modulus (GPa) = 16.55566 22.11732 19.33649
#
# Velocity S-wave (km/s) = 2.91087 3.36447 3.14586
# Velocity P-wave (km/s) = 5.88319 6.68414 6.29642
#
# Compressibility (1/GPa) = 0.02195209
#
# Stress axis : x y z
#
# Youngs Moduli (GPa) = 66.64566 117.88442 49.51576
#
# Poissons Ratio (x) = 0.46814 0.15194
# Poissons Ratio (y) = 0.26466 0.18944
# Poissons Ratio (z) = 0.20450 0.45101
#
# Static dielectric constant tensor:
#      x y z
#    x 1.699800 0.000000 0.000000 
#    y 0.000000 1.737060 0.000000 
#    z 0.000000 0.000000 1.633370 
# 
# From -- ./inp_files/12438.got.cif
#   From: 2010.05.17/outbox.cif.g08.bks.cpg/sg63_7_cif.got.tgz:12438.got - 2010.06.03 15:47:04.
