data_PCOD9473164
_publ_section_title
;
Structure prediction by ZEFSAII (Michael W. Deem and Ramdas Pophale) SiO2 
 PCOD9473164
Probable space group: C M C M
;
_chemical_formula_sum "Si O2"
_cell_formula_units_Z 96
_cell_length_a 18.926568
_cell_length_b 15.369977
_cell_length_c 14.298769
_cell_angle_alpha 90.000000
_cell_angle_beta 90.000000
_cell_angle_gamma 90.000000
_cell_volume 4159.524983
_symmetry_space_group_name_H-M "C M C M"
_symmetry_group_IT_number 63
_symmetry_cell_setting 'orthorhombic'
loop_
_space_group_symop_operation_xyz
x,y,z
-x,-y,1/2+z
x,-y,-z
-x,y,1/2-z
-x,-y,-z
x,y,1/2-z
-x,y,z
x,-y,1/2+z
1/2+x,1/2+y,z
1/2-x,1/2-y,1/2+z
1/2+x,1/2-y,-z
1/2-x,1/2+y,1/2-z
1/2-x,1/2-y,-z
1/2+x,1/2+y,1/2-z
1/2-x,1/2+y,z
1/2+x,1/2-y,1/2+z
loop_
_atom_site_type_symbol
_atom_site_label
_atom_site_fract_x
_atom_site_fract_y
_atom_site_fract_z
Si Si1 0.134923 0.501357 0.144337
Si Si2 0.579783 0.626721 0.935684
Si Si3 0.422473 0.172811 0.637841
Si Si4 0.083104 0.681777 0.359711
Si Si5 0.209534 0.009049 0.609520
Si Si6 0.880429 0.145110 0.144579
O O1 0.107024 0.513039 0.250000
O O2 0.092661 0.422255 0.098460
O O3 0.128031 0.598875 0.106084
O O4 0.214891 0.466653 0.149368
O O5 0.500000 0.605786 0.903232
O O6 0.593240 0.728422 0.914786
O O7 0.641503 0.572139 0.884352
O O8 0.582908 0.611561 0.048462
O O9 0.424460 0.161591 0.750000
O O10 0.500000 0.204208 0.606692
O O11 0.369480 0.252732 0.624612
O O12 0.098283 0.700041 0.250000
O O13 0.000000 0.658217 0.367248
O O14 0.222829 0.000000 0.500000
O O15 0.187889 0.915097 0.648083
O O16 0.913586 0.139270 0.250000
#
# Coordination Sequence:
#
# PCOD9473164 Si02
#       6
#    16  16  16  16  16  16
#     4  10  20  36  59  85 117 156 198 244 292 349
#     4  10  22  40  61  87 118 152 196 249 299 353
#     4   9  18  33  56  87 118 149 189 240 297 351
#     4   9  19  37  61  88 119 159 203 245 293 347
#     4  10  23  39  56  81 115 154 195 239 293 354
#     4  10  21  38  60  86 117 152 194 245 300 357
#
# _framework density 23.079559
#
# number of rings (size 3 to 8) (size 9 to 14) (size 15 to 20)
#    0.000    2.333    0.000    1.500    0.000   10.667 
#    0.000    6.667    0.000    4.000    0.000    0.000 
#    0.000    0.000    0.000    0.000    0.000    0.000 
#
# Total GULP energy -267519.460552 kJ/mol
# GULP energy per Si atom -5573.322095 kJ/mol
# Density = 2.302703 g / cm^3
# Si number density = 23.079559 Si / 1000 Ang^3
#
#
#
# Elastic Constant Matrix: (Units=GPa)
#
#
# Indices 1 2 3 4 5 6 
#
# 1 53.2685 36.0825 1.2248 0.0000 0.0000 0.0000
# 2 36.0825 114.2661 6.2946 0.0000 0.0000 0.0000
# 3 1.2248 6.2946 105.5588 0.0000 0.0000 0.0000
# 4 0.0000 0.0000 0.0000 30.2313 0.0000 0.0000
# 5 0.0000 0.0000 0.0000 0.0000 8.8139 0.0000
# 6 0.0000 0.0000 0.0000 0.0000 0.0000 24.5714
#
#
#
# Elastic Compliance Matrix: (Units=1/GPa)
#
#
# Indices 1 2 3 4 5 6 
#
# 1 0.023884 -0.007552 0.000173 0.000000 0.000000 0.000000
# 2 -0.007552 0.011168 -0.000578 0.000000 0.000000 0.000000
# 3 0.000173 -0.000578 0.009506 0.000000 0.000000 0.000000
# 4 0.000000 0.000000 0.000000 0.033078 0.000000 0.000000
# 5 0.000000 0.000000 0.000000 0.000000 0.113458 0.000000
# 6 0.000000 0.000000 0.000000 0.000000 0.000000 0.040698
#
#
# Mechanical properties :
#
#
# Convention : Reuss Voigt Hill
#
# Bulk Modulus (GPa) = 34.91078 40.03304 37.47191
# Shear Modulus (GPa) = 19.43611 28.02275 23.72943
#
# Velocity S-wave (km/s) = 2.90510 3.48829 3.20997
# Velocity P-wave (km/s) = 5.13926 5.79720 5.47812
#
# Compressibility (1/GPa) = 0.02864444
#
# Stress axis : x y z
#
# Youngs Moduli (GPa) = 41.86897 89.54183 105.19815
#
# Poissons Ratio (x) = 0.67618 -0.01822
# Poissons Ratio (y) = 0.31618 0.06084
# Poissons Ratio (z) = -0.00725 0.05179
#
# Static dielectric constant tensor:
#      x y z
#    x 1.847250 0.000000 0.000000 
#    y 0.000000 1.866560 0.000000 
#    z 0.000000 0.000000 1.948560 
# 
# From -- ./inp_files/35395.got.cif
#   From: 2010.05.17/outbox.cif.g08.bks.cpg/sg63_18_cif.got.tgz:35395.got - 2010.06.03 15:47:04.
