data_PCOD9473742
_publ_section_title
;
Structure prediction by ZEFSAII (Michael W. Deem and Ramdas Pophale) SiO2 
 PCOD9473742
Probable space group: C M C M
;
_chemical_formula_sum "Si O2"
_cell_formula_units_Z 96
_cell_length_a 22.596864
_cell_length_b 8.819535
_cell_length_c 25.619776
_cell_angle_alpha 90.000000
_cell_angle_beta 90.000000
_cell_angle_gamma 90.000000
_cell_volume 5105.863358
_symmetry_space_group_name_H-M "C M C M"
_symmetry_group_IT_number 63
_symmetry_cell_setting 'orthorhombic'
loop_
_space_group_symop_operation_xyz
x,y,z
-x,-y,1/2+z
x,-y,-z
-x,y,1/2-z
-x,-y,-z
x,y,1/2-z
-x,y,z
x,-y,1/2+z
1/2+x,1/2+y,z
1/2-x,1/2-y,1/2+z
1/2+x,1/2-y,-z
1/2-x,1/2+y,1/2-z
1/2-x,1/2-y,-z
1/2+x,1/2+y,1/2-z
1/2-x,1/2+y,z
1/2+x,1/2-y,1/2+z
loop_
_atom_site_type_symbol
_atom_site_label
_atom_site_fract_x
_atom_site_fract_y
_atom_site_fract_z
Si Si1 0.844311 0.102809 0.096620
Si Si2 0.274350 0.122963 0.037954
Si Si3 0.434500 0.681013 0.488222
Si Si4 0.209372 0.703639 0.689229
Si Si5 0.882279 0.234761 0.903745
Si Si6 0.333635 0.138905 0.189660
O O1 0.782786 0.059604 0.067939
O O2 0.826848 0.195957 0.147890
O O3 0.877514 0.944833 0.107040
O O4 0.883798 0.199620 0.055442
O O5 0.319991 0.197589 0.076604
O O6 0.250000 0.250000 0.000000
O O7 0.302901 0.000000 0.000000
O O8 0.432949 0.500000 0.500000
O O9 0.500000 0.721418 0.469201
O O10 0.422451 0.755088 0.544844
O O11 0.194995 0.738914 0.750000
O O12 0.279075 0.742042 0.683265
O O13 0.194180 0.527604 0.679636
O O14 0.887387 0.321007 0.849020
O O15 0.351844 0.143408 0.250000
#
# Coordination Sequence:
#
# PCOD9473742 Si02
#       6
#    16  16  16  16  16  16
#     4  11  20  33  52  78 105 137 173 212 263 313
#     4  12  21  31  45  75 110 137 169 206 255 315
#     4   9  19  36  55  77 104 134 172 218 263 305
#     4  10  21  34  50  74 107 143 175 211 257 310
#     4  11  21  32  53  78 104 139 173 213 261 312
#     4  10  21  34  49  74 107 142 176 211 255 309
#
# _framework density 18.801914
#
# number of rings (size 3 to 8) (size 9 to 14) (size 15 to 20)
#    0.000    1.500    5.000    1.500    2.333    2.000 
#    0.000    0.000    0.000    5.500    0.000    7.000 
#    0.000    0.000    0.000    0.000    0.000    0.000 
#
# Total GULP energy -267663.715671 kJ/mol
# GULP energy per Si atom -5576.327410 kJ/mol
# Density = 1.875912 g / cm^3
# Si number density = 18.801914 Si / 1000 Ang^3
#
#
#
# Elastic Constant Matrix: (Units=GPa)
#
#
# Indices 1 2 3 4 5 6 
#
# 1 49.6380 -8.4507 23.0431 0.0000 0.0000 0.0000
# 2 -8.4507 50.2841 31.7066 0.0000 0.0000 0.0000
# 3 23.0431 31.7066 120.6730 0.0000 0.0000 0.0000
# 4 0.0000 0.0000 0.0000 34.5812 0.0000 0.0000
# 5 0.0000 0.0000 0.0000 0.0000 12.4687 0.0000
# 6 0.0000 0.0000 0.0000 0.0000 0.0000 7.5953
#
#
#
# Elastic Compliance Matrix: (Units=1/GPa)
#
#
# Indices 1 2 3 4 5 6 
#
# 1 0.024862 0.008596 -0.007006 0.000000 0.000000 0.000000
# 2 0.008596 0.026808 -0.008685 0.000000 0.000000 0.000000
# 3 -0.007006 -0.008685 0.011907 0.000000 0.000000 0.000000
# 4 0.000000 0.000000 0.000000 0.028917 0.000000 0.000000
# 5 0.000000 0.000000 0.000000 0.000000 0.080201 0.000000
# 6 0.000000 0.000000 0.000000 0.000000 0.000000 0.131661
#
#
# Mechanical properties :
#
#
# Convention : Reuss Voigt Hill
#
# Bulk Modulus (GPa) = 20.24878 34.79925 27.52402
# Shear Modulus (GPa) = 14.92502 22.54878 18.73690
#
# Velocity S-wave (km/s) = 2.82051 3.46682 3.16023
# Velocity P-wave (km/s) = 4.62601 5.87994 5.29025
#
# Compressibility (1/GPa) = 0.04938568
#
# Stress axis : x y z
#
# Youngs Moduli (GPa) = 40.22268 37.30224 83.98633
#
# Poissons Ratio (x) = -0.32064 0.58841
# Poissons Ratio (y) = -0.34575 0.72944
# Poissons Ratio (z) = 0.28180 0.32398
#
# Static dielectric constant tensor:
#      x y z
#    x 1.653470 0.000000 0.000000 
#    y 0.000000 1.732740 0.000000 
#    z 0.000000 0.000000 1.832870 
# 
# From -- ./inp_files/64956.got.cif
#   From: 2010.05.17/outbox.cif.g08.bks.cpg/sg63_33_cif.got.tgz:64956.got - 2010.06.03 15:47:04.
