data_PCOD9473206
_publ_section_title
;
Structure prediction by ZEFSAII (Michael W. Deem and Ramdas Pophale) SiO2 
 PCOD9473206
Probable space group: C M C M
;
_chemical_formula_sum "Si O2"
_cell_formula_units_Z 80
_cell_length_a 18.959945
_cell_length_b 15.771309
_cell_length_c 13.826891
_cell_angle_alpha 90.000000
_cell_angle_beta 90.000000
_cell_angle_gamma 90.000000
_cell_volume 4134.560518
_symmetry_space_group_name_H-M "C M C M"
_symmetry_group_IT_number 63
_symmetry_cell_setting 'orthorhombic'
loop_
_space_group_symop_operation_xyz
x,y,z
-x,-y,1/2+z
x,-y,-z
-x,y,1/2-z
-x,-y,-z
x,y,1/2-z
-x,y,z
x,-y,1/2+z
1/2+x,1/2+y,z
1/2-x,1/2-y,1/2+z
1/2+x,1/2-y,-z
1/2-x,1/2+y,1/2-z
1/2-x,1/2-y,-z
1/2+x,1/2+y,1/2-z
1/2-x,1/2+y,z
1/2+x,1/2-y,1/2+z
loop_
_atom_site_type_symbol
_atom_site_label
_atom_site_fract_x
_atom_site_fract_y
_atom_site_fract_z
Si Si1 0.771981 0.541583 0.132765
Si Si2 0.581394 0.277947 0.480798
Si Si3 0.199932 0.780049 0.635006
Si Si4 0.691433 0.372903 0.365782
Si Si5 0.921734 0.399096 0.633629
O O1 0.771681 0.538343 0.250000
O O2 0.734311 0.629804 0.107003
O O3 0.729918 0.458599 0.101337
O O4 0.854128 0.545769 0.104354
O O5 0.500000 0.295714 0.502243
O O6 0.628995 0.265880 0.575496
O O7 0.619112 0.351816 0.419563
O O8 0.584662 0.192088 0.417225
O O9 0.186947 0.780501 0.750000
O O10 0.256223 0.706054 0.615041
O O11 0.680112 0.376714 0.250000
O O12 0.917819 0.386662 0.750000
O O13 0.000000 0.434128 0.611793
#
# Coordination Sequence:
#
# PCOD9473206 Si02
#       5
#    16  16  16  16  16
#     4   9  18  34  57  84 113 149 189 229 278 337
#     4  11  22  36  57  86 116 149 191 235 288 336
#     4  10  21  39  57  78 113 153 195 235 275 336
#     4  10  20  36  60  88 113 145 190 235 283 337
#     4   9  17  32  56  86 118 147 180 233 293 340
#
# _framework density 19.349094000000001
#
# number of rings (size 3 to 8) (size 9 to 14) (size 15 to 20)
#    0.000    2.200    2.000    1.200    0.000    2.400 
#    0.000    3.000    0.000    9.600    0.000    0.000 
#    0.000    0.000    0.000    0.000    0.000    0.000 
#
# Total GULP energy -223485.273125 kJ/mol
# GULP energy per Si atom -5587.131828 kJ/mol
# Density = 1.930505 g / cm^3
# Si number density = 19.349094 Si / 1000 Ang^3
#
#
#
# Elastic Constant Matrix: (Units=GPa)
#
#
# Indices 1 2 3 4 5 6 
#
# 1 112.4438 -3.4051 35.2758 0.0000 0.0000 0.0000
# 2 -3.4051 56.1907 15.7816 0.0000 0.0000 0.0000
# 3 35.2758 15.7816 76.5768 0.0000 0.0000 0.0000
# 4 0.0000 0.0000 0.0000 17.4672 0.0000 0.0000
# 5 0.0000 0.0000 0.0000 0.0000 32.9823 0.0000
# 6 0.0000 0.0000 0.0000 0.0000 0.0000 29.9795
#
#
#
# Elastic Compliance Matrix: (Units=1/GPa)
#
#
# Indices 1 2 3 4 5 6 
#
# 1 0.010634 0.002144 -0.005340 0.000000 0.000000 0.000000
# 2 0.002144 0.019322 -0.004970 0.000000 0.000000 0.000000
# 3 -0.005340 -0.004970 0.016543 0.000000 0.000000 0.000000
# 4 0.000000 0.000000 0.000000 0.057250 0.000000 0.000000
# 5 0.000000 0.000000 0.000000 0.000000 0.030319 0.000000
# 6 0.000000 0.000000 0.000000 0.000000 0.000000 0.033356
#
#
# Mechanical properties :
#
#
# Convention : Reuss Voigt Hill
#
# Bulk Modulus (GPa) = 33.14873 37.83509 35.49191
# Shear Modulus (GPa) = 25.79818 29.25642 27.52730
#
# Velocity S-wave (km/s) = 3.65540 3.89270 3.77592
# Velocity P-wave (km/s) = 5.91482 6.30877 6.11497
#
# Compressibility (1/GPa) = 0.03016707
#
# Stress axis : x y z
#
# Youngs Moduli (GPa) = 94.04109 51.75369 60.44806
#
# Poissons Ratio (x) = -0.11097 0.32282
# Poissons Ratio (y) = -0.20165 0.30042
# Poissons Ratio (z) = 0.50222 0.25721
#
# Static dielectric constant tensor:
#      x y z
#    x 1.657690 0.000000 0.000000 
#    y 0.000000 1.656790 0.000000 
#    z 0.000000 0.000000 1.721600 
# 
# From -- ./inp_files/33857.got.cif
#   From: 2010.05.17/outbox.cif.g08.bks.cpg/sg63_17_cif.got.tgz:33857.got - 2010.06.03 15:47:04.
