data_PCOD9473791
_publ_section_title
;
Structure prediction by ZEFSAII (Michael W. Deem and Ramdas Pophale) SiO2 
 PCOD9473791
Probable space group: C M C M
;
_chemical_formula_sum "Si O2"
_cell_formula_units_Z 112
_cell_length_a 14.213957
_cell_length_b 31.736803
_cell_length_c 13.456541
_cell_angle_alpha 90.000000
_cell_angle_beta 90.000000
_cell_angle_gamma 90.000000
_cell_volume 6070.320371
_symmetry_space_group_name_H-M "C M C M"
_symmetry_group_IT_number 63
_symmetry_cell_setting 'orthorhombic'
loop_
_space_group_symop_operation_xyz
x,y,z
-x,-y,1/2+z
x,-y,-z
-x,y,1/2-z
-x,-y,-z
x,y,1/2-z
-x,y,z
x,-y,1/2+z
1/2+x,1/2+y,z
1/2-x,1/2-y,1/2+z
1/2+x,1/2-y,-z
1/2-x,1/2+y,1/2-z
1/2-x,1/2-y,-z
1/2+x,1/2+y,1/2-z
1/2-x,1/2+y,z
1/2+x,1/2-y,1/2+z
loop_
_atom_site_type_symbol
_atom_site_label
_atom_site_fract_x
_atom_site_fract_y
_atom_site_fract_z
Si Si1 0.885273 0.234879 0.135156
Si Si2 0.386707 0.120288 0.363163
Si Si3 0.112883 0.323835 0.047705
Si Si4 0.252075 0.614126 0.636196
Si Si5 0.389704 0.649430 0.472704
Si Si6 0.893115 0.939238 0.632389
Si Si7 0.788969 0.455073 0.519797
O O1 0.853467 0.236304 0.250000
O O2 0.856836 0.192213 0.079570
O O3 0.000000 0.234470 0.137613
O O4 0.856549 0.276725 0.075421
O O5 0.353624 0.126091 0.250000
O O6 0.500000 0.117653 0.362093
O O7 0.361355 0.158231 0.438486
O O8 0.345600 0.077631 0.410907
O O9 0.000000 0.325542 0.055755
O O10 0.160861 0.356291 0.123429
O O11 0.278599 0.609179 0.750000
O O12 0.331280 0.637000 0.569722
O O13 0.230410 0.570117 0.581842
O O14 0.500000 0.653892 0.496927
O O15 0.380995 0.609978 0.397418
O O16 0.883483 0.944297 0.750000
O O17 0.810670 0.962672 0.574553
O O18 0.000000 0.951262 0.603766
O O19 0.835562 0.500000 0.500000
#
# Coordination Sequence:
#
# PCOD9473791 Si02
#       7
#    16  16  16  16  16  16  16
#     4   9  16  28  50  77 103 133 169 209 248 283
#     4   9  18  34  55  76 101 133 164 197 244 300
#     4   9  18  33  52  75 102 130 164 206 247 288
#     4  10  21  35  50  70  98 134 170 203 248 301
#     4   9  18  32  49  72 102 134 170 207 242 287
#     4   9  17  31  52  75  99 128 162 203 251 299
#     4  10  21  35  53  75 100 126 161 209 252 297
#
# _framework density 18.450426
#
# number of rings (size 3 to 8) (size 9 to 14) (size 15 to 20)
#    0.000    2.714    0.000    1.286    0.000    5.143 
#    0.000    1.429    0.000    2.571    0.000    0.000 
#    0.000    0.000    0.000    0.000    0.000    0.000 
#
# Total GULP energy -312336.457162 kJ/mol
# GULP energy per Si atom -5577.436735 kJ/mol
# Density = 1.840843 g / cm^3
# Si number density = 18.450426 Si / 1000 Ang^3
#
#
#
# Elastic Constant Matrix: (Units=GPa)
#
#
# Indices 1 2 3 4 5 6 
#
# 1 33.8191 15.0768 18.7995 0.0000 0.0000 0.0000
# 2 15.0768 90.7750 53.8659 0.0000 0.0000 0.0000
# 3 18.7995 53.8659 131.6268 0.0000 0.0000 0.0000
# 4 0.0000 0.0000 0.0000 6.7257 0.0000 0.0000
# 5 0.0000 0.0000 0.0000 0.0000 18.8332 0.0000
# 6 0.0000 0.0000 0.0000 0.0000 0.0000 18.4360
#
#
#
# Elastic Compliance Matrix: (Units=1/GPa)
#
#
# Indices 1 2 3 4 5 6 
#
# 1 0.032959 -0.003541 -0.003258 0.000000 0.000000 0.000000
# 2 -0.003541 0.014930 -0.005604 0.000000 0.000000 0.000000
# 3 -0.003258 -0.005604 0.010356 0.000000 0.000000 0.000000
# 4 0.000000 0.000000 0.000000 0.148684 0.000000 0.000000
# 5 0.000000 0.000000 0.000000 0.000000 0.053098 0.000000
# 6 0.000000 0.000000 0.000000 0.000000 0.000000 0.054242
#
#
# Mechanical properties :
#
#
# Convention : Reuss Voigt Hill
#
# Bulk Modulus (GPa) = 29.90572 47.96727 38.93650
# Shear Modulus (GPa) = 14.27673 20.03090 17.15381
#
# Velocity S-wave (km/s) = 2.78472 3.29851 3.05245
# Velocity P-wave (km/s) = 5.15591 6.36877 5.79417
#
# Compressibility (1/GPa) = 0.03343842
#
# Stress axis : x y z
#
# Youngs Moduli (GPa) = 30.34095 66.98036 96.56269
#
# Poissons Ratio (x) = 0.23715 0.31464
# Poissons Ratio (y) = 0.10743 0.54114
# Poissons Ratio (z) = 0.09886 0.37536
#
# Static dielectric constant tensor:
#      x y z
#    x 1.669170 0.000000 0.000000 
#    y 0.000000 1.624070 0.000000 
#    z 0.000000 0.000000 1.614790 
# 
# From -- ./inp_files/20047.got.cif
#   From: 2010.05.17/outbox.cif.g08.bks.cpg/sg63_11_cif.got.tgz:20047.got - 2010.06.03 15:47:04.
