data_PCOD9473452
_publ_section_title
;
Structure prediction by ZEFSAII (Michael W. Deem and Ramdas Pophale) SiO2 
 PCOD9473452
Probable space group: C M C M
;
_chemical_formula_sum "Si O2"
_cell_formula_units_Z 64
_cell_length_a 11.252525
_cell_length_b 10.973221
_cell_length_c 23.434253
_cell_angle_alpha 90.000000
_cell_angle_beta 90.000000
_cell_angle_gamma 90.000000
_cell_volume 2893.578220
_symmetry_space_group_name_H-M "C M C M"
_symmetry_group_IT_number 63
_symmetry_cell_setting 'orthorhombic'
loop_
_space_group_symop_operation_xyz
x,y,z
-x,-y,1/2+z
x,-y,-z
-x,y,1/2-z
-x,-y,-z
x,y,1/2-z
-x,y,z
x,-y,1/2+z
1/2+x,1/2+y,z
1/2-x,1/2-y,1/2+z
1/2+x,1/2-y,-z
1/2-x,1/2+y,1/2-z
1/2-x,1/2-y,-z
1/2+x,1/2+y,1/2-z
1/2-x,1/2+y,z
1/2+x,1/2-y,1/2+z
loop_
_atom_site_type_symbol
_atom_site_label
_atom_site_fract_x
_atom_site_fract_y
_atom_site_fract_z
Si Si1 0.500000 0.876609 0.038171
Si Si2 0.000000 0.875977 0.463305
Si Si3 0.128409 0.638442 0.351872
Si Si4 0.249986 0.204160 0.934936
Si Si5 0.878156 0.171685 0.750000
Si Si6 0.630005 0.949899 0.250000
O O1 0.374338 0.867492 0.072501
O O2 0.500000 0.748356 0.001988
O O3 0.500000 0.000000 0.000000
O O4 0.125456 0.869977 0.429126
O O5 0.000000 0.000000 0.500000
O O6 0.231494 0.677766 0.394834
O O7 0.118466 0.747564 0.306604
O O8 0.139159 0.527607 0.308262
O O9 0.000000 0.627222 0.382415
O O10 0.250000 0.250000 0.000000
O O11 0.000000 0.093838 0.750000
O O12 0.747995 0.123208 0.750000
O O13 0.500000 0.890045 0.250000
#
# Coordination Sequence:
#
# PCOD9473452 Si02
#       6
#     8   8  16  16   8   8
#     4  10  22  40  54  83 130 159 192 252 313 350
#     4  10  20  38  62  81 112 163 214 242 281 372
#     4   9  18  39  63  80 116 158 195 241 300 371
#     4  10  20  38  58  85 119 157 204 251 304 369
#     4   9  19  39  58  86 110 149 201 247 294 356
#     4   9  19  39  64  86 114 151 197 245 306 362
#
# _framework density 22.117944000000001
#
# number of rings (size 3 to 8) (size 9 to 14) (size 15 to 20)
#    0.000    2.500    1.250    2.250    0.000    0.000 
#   22.500    1.250    0.000    0.000    0.000    0.000 
#    0.000    0.000    0.000    0.000    0.000    0.000 
#
# Total GULP energy -178234.893490 kJ/mol
# GULP energy per Si atom -5569.840422 kJ/mol
# Density = 2.206760 g / cm^3
# Si number density = 22.117944 Si / 1000 Ang^3
#
#
#
# Elastic Constant Matrix: (Units=GPa)
#
#
# Indices 1 2 3 4 5 6 
#
# 1 217.3403 39.5347 10.1330 0.0000 0.0000 0.0000
# 2 39.5347 60.8590 5.0367 0.0000 0.0000 0.0000
# 3 10.1330 5.0367 91.7934 0.0000 0.0000 0.0000
# 4 0.0000 0.0000 0.0000 18.7279 0.0000 0.0000
# 5 0.0000 0.0000 0.0000 0.0000 36.5312 0.0000
# 6 0.0000 0.0000 0.0000 0.0000 0.0000 20.4866
#
#
#
# Elastic Compliance Matrix: (Units=1/GPa)
#
#
# Indices 1 2 3 4 5 6 
#
# 1 0.005232 -0.003366 -0.000393 0.000000 0.000000 0.000000
# 2 -0.003366 0.018672 -0.000653 0.000000 0.000000 0.000000
# 3 -0.000393 -0.000653 0.010973 0.000000 0.000000 0.000000
# 4 0.000000 0.000000 0.000000 0.053396 0.000000 0.000000
# 5 0.000000 0.000000 0.000000 0.000000 0.027374 0.000000
# 6 0.000000 0.000000 0.000000 0.000000 0.000000 0.048812
#
#
# Mechanical properties :
#
#
# Convention : Reuss Voigt Hill
#
# Bulk Modulus (GPa) = 38.38281 53.26684 45.82483
# Shear Modulus (GPa) = 27.47740 36.16836 31.82288
#
# Velocity S-wave (km/s) = 3.52847 4.04821 3.79724
# Velocity P-wave (km/s) = 5.83022 6.78130 6.32367
#
# Compressibility (1/GPa) = 0.02605333
#
# Stress axis : x y z
#
# Youngs Moduli (GPa) = 191.14295 53.55587 91.13097
#
# Poissons Ratio (x) = 0.18027 0.03580
# Poissons Ratio (y) = 0.64340 0.05950
# Poissons Ratio (z) = 0.07509 0.03497
#
# Static dielectric constant tensor:
#      x y z
#    x 1.714820 0.000000 0.000000 
#    y 0.000000 1.900720 0.000000 
#    z 0.000000 0.000000 1.856330 
# 
# From -- ./inp_files/60900.got.cif
#   From: 2010.05.17/outbox.cif.g08.bks.cpg/sg63_31_cif.got.tgz:60900.got - 2010.06.03 15:47:04.
