data_PCOD9473628
_publ_section_title
;
Structure prediction by ZEFSAII (Michael W. Deem and Ramdas Pophale) SiO2 
 PCOD9473628
Probable space group: C M C M
;
_chemical_formula_sum "Si O2"
_cell_formula_units_Z 96
_cell_length_a 19.870605
_cell_length_b 9.070576
_cell_length_c 26.225764
_cell_angle_alpha 90.000000
_cell_angle_beta 90.000000
_cell_angle_gamma 90.000000
_cell_volume 4726.874867
_symmetry_space_group_name_H-M "C M C M"
_symmetry_group_IT_number 63
_symmetry_cell_setting 'orthorhombic'
loop_
_space_group_symop_operation_xyz
x,y,z
-x,-y,1/2+z
x,-y,-z
-x,y,1/2-z
-x,-y,-z
x,y,1/2-z
-x,y,z
x,-y,1/2+z
1/2+x,1/2+y,z
1/2-x,1/2-y,1/2+z
1/2+x,1/2-y,-z
1/2-x,1/2+y,1/2-z
1/2-x,1/2-y,-z
1/2+x,1/2+y,1/2-z
1/2-x,1/2+y,z
1/2+x,1/2-y,1/2+z
loop_
_atom_site_type_symbol
_atom_site_label
_atom_site_fract_x
_atom_site_fract_y
_atom_site_fract_z
Si Si1 0.421321 0.885581 0.546298
Si Si2 0.421178 0.694537 0.807843
Si Si3 0.695751 0.349112 0.469782
Si Si4 0.579373 0.017776 0.842813
Si Si5 0.200303 0.050284 0.857756
Si Si6 0.309695 0.242097 0.808701
O O1 0.500000 0.838783 0.549109
O O2 0.370332 0.751311 0.538226
O O3 0.405853 0.971629 0.598836
O O4 0.414193 0.000000 0.500000
O O5 0.409863 0.643432 0.750000
O O6 0.500000 0.679149 0.820013
O O7 0.405213 0.868374 0.811696
O O8 0.374685 0.607199 0.846453
O O9 0.681519 0.500000 0.500000
O O10 0.750000 0.250000 0.500000
O O11 0.721327 0.400872 0.414160
O O12 0.500000 0.049074 0.838134
O O13 0.623684 0.152231 0.823703
O O14 0.248395 0.130572 0.817516
O O15 0.202082 0.878024 0.846496
O O16 0.312796 0.291177 0.750000
#
# Coordination Sequence:
#
# PCOD9473628 Si02
#       6
#    16  16  16  16  16  16
#     4  10  23  44  70  98 130 170 220 274 331 396
#     4  10  20  39  68  97 128 169 216 266 322 388
#     4  12  27  44  69  99 134 174 223 278 336 399
#     4  10  22  42  67  96 131 172 217 269 326 392
#     4  12  26  44  65  95 133 175 218 273 333 395
#     4  12  26  42  65  95 132 175 220 270 327 396
#
# _framework density 20.309401000000001
#
# number of rings (size 3 to 8) (size 9 to 14) (size 15 to 20)
#    0.000    1.000    1.667    4.500    7.000    2.000 
#    0.000    0.000    0.000    0.000    0.000    0.000 
#    0.000    0.000    0.000    0.000    0.000    0.000 
#
# Total GULP energy -268537.579745 kJ/mol
# GULP energy per Si atom -5594.532911 kJ/mol
# Density = 2.026318 g / cm^3
# Si number density = 20.309401 Si / 1000 Ang^3
#
#
#
# Elastic Constant Matrix: (Units=GPa)
#
#
# Indices 1 2 3 4 5 6 
#
# 1 54.4770 33.2067 13.2792 0.0000 0.0000 0.0000
# 2 33.2067 85.3053 7.8465 0.0000 0.0000 0.0000
# 3 13.2792 7.8465 91.0812 0.0000 0.0000 0.0000
# 4 0.0000 0.0000 0.0000 27.7840 0.0000 0.0000
# 5 0.0000 0.0000 0.0000 0.0000 27.6814 0.0000
# 6 0.0000 0.0000 0.0000 0.0000 0.0000 34.7254
#
#
#
# Elastic Compliance Matrix: (Units=1/GPa)
#
#
# Indices 1 2 3 4 5 6 
#
# 1 0.024756 -0.009379 -0.002801 0.000000 0.000000 0.000000
# 2 -0.009379 0.015370 0.000043 0.000000 0.000000 0.000000
# 3 -0.002801 0.000043 0.011384 0.000000 0.000000 0.000000
# 4 0.000000 0.000000 0.000000 0.035992 0.000000 0.000000
# 5 0.000000 0.000000 0.000000 0.000000 0.036125 0.000000
# 6 0.000000 0.000000 0.000000 0.000000 0.000000 0.028797
#
#
# Mechanical properties :
#
#
# Convention : Reuss Voigt Hill
#
# Bulk Modulus (GPa) = 36.71673 37.72535 37.22104
# Shear Modulus (GPa) = 26.91392 29.80689 28.36040
#
# Velocity S-wave (km/s) = 3.64427 3.83513 3.74092
# Velocity P-wave (km/s) = 5.98545 6.18277 6.08491
#
# Compressibility (1/GPa) = 0.02723554
#
# Stress axis : x y z
#
# Youngs Moduli (GPa) = 40.39369 65.06332 87.84337
#
# Poissons Ratio (x) = 0.61024 0.24608
# Poissons Ratio (y) = 0.37886 -0.00381
# Poissons Ratio (z) = 0.11316 -0.00282
#
# Static dielectric constant tensor:
#      x y z
#    x 1.720960 0.000000 0.000000 
#    y 0.000000 1.682110 0.000000 
#    z 0.000000 0.000000 1.751700 
# 
# From -- ./inp_files/70307.got.cif
#   From: 2010.05.17/outbox.cif.g08.bks.cpg/sg63_36_cif.got.tgz:70307.got - 2010.06.03 15:47:04.
