data_PCOD9473737
_publ_section_title
;
Structure prediction by ZEFSAII (Michael W. Deem and Ramdas Pophale) SiO2 
 PCOD9473737
Probable space group: C M C M
;
_chemical_formula_sum "Si O2"
_cell_formula_units_Z 112
_cell_length_a 19.505697
_cell_length_b 16.981685
_cell_length_c 15.202707
_cell_angle_alpha 90.000000
_cell_angle_beta 90.000000
_cell_angle_gamma 90.000000
_cell_volume 5035.738618
_symmetry_space_group_name_H-M "C M C M"
_symmetry_group_IT_number 63
_symmetry_cell_setting 'orthorhombic'
loop_
_space_group_symop_operation_xyz
x,y,z
-x,-y,1/2+z
x,-y,-z
-x,y,1/2-z
-x,-y,-z
x,y,1/2-z
-x,y,z
x,-y,1/2+z
1/2+x,1/2+y,z
1/2-x,1/2-y,1/2+z
1/2+x,1/2-y,-z
1/2-x,1/2+y,1/2-z
1/2-x,1/2-y,-z
1/2+x,1/2+y,1/2-z
1/2-x,1/2+y,z
1/2+x,1/2-y,1/2+z
loop_
_atom_site_type_symbol
_atom_site_label
_atom_site_fract_x
_atom_site_fract_y
_atom_site_fract_z
Si Si1 0.923694 0.283070 0.404744
Si Si2 0.871262 0.120187 0.348747
Si Si3 0.822530 0.962664 0.409143
Si Si4 0.422738 0.352179 0.348388
Si Si5 0.073536 0.329718 0.609714
Si Si6 0.721295 0.170734 0.105857
Si Si7 0.777191 0.661024 0.891954
O O1 0.907262 0.189346 0.403868
O O2 0.925792 0.315612 0.504426
O O3 0.855517 0.322589 0.363367
O O4 0.000000 0.295976 0.366965
O O5 0.894868 0.134549 0.250000
O O6 0.789004 0.131246 0.356636
O O7 0.873820 0.027937 0.369742
O O8 0.871967 0.887663 0.419755
O O9 0.757299 0.921128 0.363601
O O10 0.798326 0.000000 0.500000
O O11 0.399503 0.375562 0.250000
O O12 0.500000 0.380765 0.362162
O O13 0.425736 0.258381 0.352358
O O14 0.147844 0.363387 0.634436
O O15 0.000000 0.367269 0.633538
O O16 0.731782 0.262459 0.132776
O O17 0.723761 0.163629 0.999388
#
# Coordination Sequence:
#
# PCOD9473737 Si02
#       7
#    16  16  16  16  16  16  16
#     4   9  19  37  60  83 108 141 187 235 276 326
#     4  11  23  34  50  80 113 144 178 222 281 336
#     4  12  21  35  55  77 106 150 186 224 272 330
#     4  10  21  34  47  71 107 141 175 216 261 318
#     4   9  16  30  56  81 102 133 174 219 266 317
#     4   9  16  33  52  76 105 132 176 229 267 311
#     4   9  17  32  57  80 102 137 184 230 269 314
#
# _framework density 22.241026999999999
#
# number of rings (size 3 to 8) (size 9 to 14) (size 15 to 20)
#    0.000    2.143    2.857    2.143    0.000    1.714 
#    0.000    0.714    0.000    1.286    0.000    0.000 
#    0.000    0.000    0.000    0.000    0.000    0.000 
#
# Total GULP energy -311924.791466 kJ/mol
# GULP energy per Si atom -5570.085562 kJ/mol
# Density = 2.219041 g / cm^3
# Si number density = 22.241027 Si / 1000 Ang^3
#
#
#
# Elastic Constant Matrix: (Units=GPa)
#
#
# Indices 1 2 3 4 5 6 
#
# 1 130.7541 -9.9299 -0.2975 0.0000 0.0000 0.0000
# 2 -9.9299 15.7404 -2.6089 0.0000 0.0000 0.0000
# 3 -0.2975 -2.6089 23.1418 0.0000 0.0000 0.0000
# 4 0.0000 0.0000 0.0000 35.1869 0.0000 0.0000
# 5 0.0000 0.0000 0.0000 0.0000 -1.2980 0.0000
# 6 0.0000 0.0000 0.0000 0.0000 0.0000 19.9951
#
#
#
# Elastic Compliance Matrix: (Units=1/GPa)
#
#
# Indices 1 2 3 4 5 6 
#
# 1 0.008044 0.005188 0.000688 0.000000 0.000000 0.000000
# 2 0.005188 0.068087 0.007743 0.000000 0.000000 0.000000
# 3 0.000688 0.007743 0.044093 0.000000 0.000000 0.000000
# 4 0.000000 0.000000 0.000000 0.028420 0.000000 0.000000
# 5 0.000000 0.000000 0.000000 0.000000 -0.770436 0.000000
# 6 0.000000 0.000000 0.000000 0.000000 0.000000 0.050012
#
#
# Mechanical properties :
#
#
# Convention : Reuss Voigt Hill
#
# Bulk Modulus (GPa) = 6.78138 15.99598 11.38868
# Shear Modulus (GPa) = -9.09314 22.94166 6.92426
#
# Velocity S-wave (km/s) = -2.02419 3.21518 1.76636
# Velocity P-wave (km/s) = 1.55160 4.58159 3.04824
#
# Compressibility (1/GPa) = 0.14746265
#
# Stress axis : x y z
#
# Youngs Moduli (GPa) = 124.32354 14.68708 22.67908
#
# Poissons Ratio (x) = -0.07620 -0.01561
# Poissons Ratio (y) = -0.64503 -0.17560
# Poissons Ratio (z) = -0.08557 -0.11372
#
# Static dielectric constant tensor:
#      x y z
#    x 1.877930 0.000000 0.000000 
#    y 0.000000 1.859160 0.000000 
#    z 0.000000 0.000000 1.947950 
# 
# From -- ./inp_files/47356.got.cif
#   From: 2010.05.17/outbox.cif.g08.bks.cpg/sg63_24_cif.got.tgz:47356.got - 2010.06.03 15:47:04.
