data_PCOD9473228
_publ_section_title
;
Structure prediction by ZEFSAII (Michael W. Deem and Ramdas Pophale) SiO2 
 PCOD9473228
Probable space group: C M C M
;
_chemical_formula_sum "Si O2"
_cell_formula_units_Z 116
_cell_length_a 10.450115
_cell_length_b 25.036571
_cell_length_c 25.227229
_cell_angle_alpha 90.000000
_cell_angle_beta 90.000000
_cell_angle_gamma 90.000000
_cell_volume 6600.327224
_symmetry_space_group_name_H-M "C M C M"
_symmetry_group_IT_number 63
_symmetry_cell_setting 'orthorhombic'
loop_
_space_group_symop_operation_xyz
x,y,z
-x,-y,1/2+z
x,-y,-z
-x,y,1/2-z
-x,-y,-z
x,y,1/2-z
-x,y,z
x,-y,1/2+z
1/2+x,1/2+y,z
1/2-x,1/2-y,1/2+z
1/2+x,1/2-y,-z
1/2-x,1/2+y,1/2-z
1/2-x,1/2-y,-z
1/2+x,1/2+y,1/2-z
1/2-x,1/2+y,z
1/2+x,1/2-y,1/2+z
loop_
_atom_site_type_symbol
_atom_site_label
_atom_site_fract_x
_atom_site_fract_y
_atom_site_fract_z
Si Si1 0.150424 0.181614 0.893123
Si Si2 0.151561 0.221192 0.104728
Si Si3 0.000000 0.478422 0.750000
Si Si4 0.346919 0.369127 0.690087
Si Si5 0.144908 0.549283 0.460080
Si Si6 0.716154 0.978477 0.841716
Si Si7 0.846628 0.088063 0.688971
Si Si8 0.146286 0.862086 0.511977
O O1 0.250969 0.229843 0.892275
O O2 0.184282 0.138866 0.847528
O O3 0.000000 0.197852 0.886166
O O4 0.158701 0.153552 0.950568
O O5 0.188238 0.178259 0.150108
O O6 0.163261 0.189922 0.049002
O O7 0.000000 0.235660 0.111202
O O8 0.889997 0.478357 0.703545
O O9 0.297442 0.360731 0.750000
O O10 0.500000 0.369475 0.691975
O O11 0.301911 0.426241 0.669065
O O12 0.162325 0.500000 0.500000
O O13 0.161022 0.528079 0.400468
O O14 0.250244 0.594061 0.471883
O O15 0.000000 0.570372 0.466859
O O16 0.791583 0.033844 0.835486
O O17 0.801902 0.094015 0.750000
O O18 0.000000 0.083816 0.689800
O O19 0.000000 0.881335 0.521460
#
# Coordination Sequence:
#
# PCOD9473228 Si02
#       8
#    16  16   4  16  16  16  16  16
#     4  10  22  40  59  86 115 152 198 246 292 345
#     4  10  21  38  58  86 116 150 195 243 291 348
#     4  12  24  36  56  88 124 156 188 240 280 362
#     4  10  20  36  61  87 115 149 195 242 292 352
#     4  11  24  38  56  87 124 157 191 239 297 355
#     4  12  21  39  59  84 120 153 192 236 294 348
#     4  10  21  38  61  84 112 149 197 241 285 346
#     4  10  21  39  61  84 115 150 199 247 286 347
#
# _framework density 17.574885999999999
#
# number of rings (size 3 to 8) (size 9 to 14) (size 15 to 20)
#    0.000    1.517    3.448    1.655    0.000    3.586 
#    2.483    0.000    0.000    0.000    0.000    0.000 
#    0.000    0.000    0.000    0.000    0.000    0.000 
#
# Total GULP energy -323183.464339 kJ/mol
# GULP energy per Si atom -5572.128696 kJ/mol
# Density = 1.753488 g / cm^3
# Si number density = 17.574886 Si / 1000 Ang^3
#
#
#
# Elastic Constant Matrix: (Units=GPa)
#
#
# Indices 1 2 3 4 5 6 
#
# 1 96.3321 90.2441 49.2533 0.0000 0.0000 0.0000
# 2 90.2441 117.4158 61.8333 0.0000 0.0000 0.0000
# 3 49.2533 61.8333 109.9948 0.0000 0.0000 0.0000
# 4 0.0000 0.0000 0.0000 13.0718 0.0000 0.0000
# 5 0.0000 0.0000 0.0000 0.0000 25.3300 0.0000
# 6 0.0000 0.0000 0.0000 0.0000 0.0000 52.4258
#
#
#
# Elastic Compliance Matrix: (Units=1/GPa)
#
#
# Indices 1 2 3 4 5 6 
#
# 1 0.037129 -0.028100 -0.000829 0.000000 0.000000 0.000000
# 2 -0.028100 0.033365 -0.006174 0.000000 0.000000 0.000000
# 3 -0.000829 -0.006174 0.012933 0.000000 0.000000 0.000000
# 4 0.000000 0.000000 0.000000 0.076501 0.000000 0.000000
# 5 0.000000 0.000000 0.000000 0.000000 0.039479 0.000000
# 6 0.000000 0.000000 0.000000 0.000000 0.000000 0.019075
#
#
# Mechanical properties :
#
#
# Convention : Reuss Voigt Hill
#
# Bulk Modulus (GPa) = 75.63378 80.71155 78.17267
# Shear Modulus (GPa) = 17.05937 26.32632 21.69284
#
# Velocity S-wave (km/s) = 3.11893 3.87454 3.51709
# Velocity P-wave (km/s) = 7.48992 8.12651 7.81470
#
# Compressibility (1/GPa) = 0.01322161
#
# Stress axis : x y z
#
# Youngs Moduli (GPa) = 26.93315 29.97135 77.32144
#
# Poissons Ratio (x) = 0.84220 0.06411
# Poissons Ratio (y) = 0.75683 0.47734
# Poissons Ratio (z) = 0.02233 0.18503
#
# Static dielectric constant tensor:
#      x y z
#    x 1.588480 0.000000 0.000000 
#    y 0.000000 1.561400 0.000000 
#    z 0.000000 0.000000 1.609430 
# 
# From -- ./inp_files/60476.got.cif
#   From: 2010.05.17/outbox.cif.g08.bks.cpg/sg63_31_cif.got.tgz:60476.got - 2010.06.03 15:47:04.
