data_PCOD9473407
_publ_section_title
;
Structure prediction by ZEFSAII (Michael W. Deem and Ramdas Pophale) SiO2 
 PCOD9473407
Probable space group: C M C M
;
_chemical_formula_sum "Si O2"
_cell_formula_units_Z 64
_cell_length_a 18.257047
_cell_length_b 8.487883
_cell_length_c 18.429937
_cell_angle_alpha 90.000000
_cell_angle_beta 90.000000
_cell_angle_gamma 90.000000
_cell_volume 2855.970839
_symmetry_space_group_name_H-M "C M C M"
_symmetry_group_IT_number 63
_symmetry_cell_setting 'orthorhombic'
loop_
_space_group_symop_operation_xyz
x,y,z
-x,-y,1/2+z
x,-y,-z
-x,y,1/2-z
-x,-y,-z
x,y,1/2-z
-x,y,z
x,-y,1/2+z
1/2+x,1/2+y,z
1/2-x,1/2-y,1/2+z
1/2+x,1/2-y,-z
1/2-x,1/2+y,1/2-z
1/2-x,1/2-y,-z
1/2+x,1/2+y,1/2-z
1/2-x,1/2+y,z
1/2+x,1/2-y,1/2+z
loop_
_atom_site_type_symbol
_atom_site_label
_atom_site_fract_x
_atom_site_fract_y
_atom_site_fract_z
Si Si1 0.219423 0.566074 0.419160
Si Si2 0.920164 0.357913 0.094735
Si Si3 0.626835 0.540540 0.334829
Si Si4 0.880087 0.835611 0.044573
O O1 0.231793 0.500000 0.500000
O O2 0.148284 0.471675 0.391137
O O3 0.290709 0.557129 0.368813
O O4 0.193909 0.745680 0.431190
O O5 0.911651 0.204799 0.145270
O O6 0.000000 0.431492 0.104190
O O7 0.914541 0.288179 0.012135
O O8 0.629408 0.512987 0.250000
O O9 0.589029 0.398193 0.379347
O O10 0.878441 0.000000 0.000000
#
# Coordination Sequence:
#
# PCOD9473407 Si02
#       4
#    16  16  16  16
#     4  10  20  37  62  90 121 158 204 251 301 363
#     4  10  22  40  63  90 121 158 202 254 309 363
#     4  11  23  38  58  87 124 165 206 250 303 363
#     4   9  20  36  58  86 118 152 198 249 300 354
#
# _framework density 22.409191
#
# number of rings (size 3 to 8) (size 9 to 14) (size 15 to 20)
#    0.000    2.000    0.000    3.750    0.000   20.500 
#    0.000    0.000    0.000    0.000    0.000    7.000 
#    0.000    0.000    0.000    0.000    0.000    0.000 
#
# Total GULP energy -178554.118828 kJ/mol
# GULP energy per Si atom -5579.816213 kJ/mol
# Density = 2.235819 g / cm^3
# Si number density = 22.409191 Si / 1000 Ang^3
#
#
#
# Elastic Constant Matrix: (Units=GPa)
#
#
# Indices 1 2 3 4 5 6 
#
# 1 127.7283 8.7706 14.4369 0.0000 0.0000 0.0000
# 2 8.7706 78.8988 10.8731 0.0000 0.0000 0.0000
# 3 14.4369 10.8731 147.0399 0.0000 0.0000 0.0000
# 4 0.0000 0.0000 0.0000 16.7906 0.0000 0.0000
# 5 0.0000 0.0000 0.0000 0.0000 3.3884 0.0000
# 6 0.0000 0.0000 0.0000 0.0000 0.0000 12.8944
#
#
#
# Elastic Compliance Matrix: (Units=1/GPa)
#
#
# Indices 1 2 3 4 5 6 
#
# 1 0.007965 -0.000786 -0.000724 0.000000 0.000000 0.000000
# 2 -0.000786 0.012882 -0.000875 0.000000 0.000000 0.000000
# 3 -0.000724 -0.000875 0.006937 0.000000 0.000000 0.000000
# 4 0.000000 0.000000 0.000000 0.059557 0.000000 0.000000
# 5 0.000000 0.000000 0.000000 0.000000 0.295126 0.000000
# 6 0.000000 0.000000 0.000000 0.000000 0.000000 0.077553
#
#
# Mechanical properties :
#
#
# Convention : Reuss Voigt Hill
#
# Bulk Modulus (GPa) = 43.45189 46.86979 45.16084
# Shear Modulus (GPa) = 10.58286 27.92044 19.25165
#
# Velocity S-wave (km/s) = 2.17550 3.53361 2.93421
# Velocity P-wave (km/s) = 5.07373 6.13265 5.62815
#
# Compressibility (1/GPa) = 0.02301396
#
# Stress axis : x y z
#
# Youngs Moduli (GPa) = 125.55105 77.62501 144.16092
#
# Poissons Ratio (x) = 0.06098 0.10436
# Poissons Ratio (y) = 0.09864 0.12621
# Poissons Ratio (z) = 0.09089 0.06796
#
# Static dielectric constant tensor:
#      x y z
#    x 1.913400 0.000000 0.000000 
#    y 0.000000 1.888770 0.000000 
#    z 0.000000 0.000000 1.804750 
# 
# From -- ./inp_files/46534.got.cif
#   From: 2010.05.17/outbox.cif.g08.bks.cpg/sg63_24_cif.got.tgz:46534.got - 2010.06.03 15:47:04.
