data_PCOD9473882
_publ_section_title
;
Structure prediction by ZEFSAII (Michael W. Deem and Ramdas Pophale) SiO2 
 PCOD9473882
Probable space group: C M C M
;
_chemical_formula_sum "Si O2"
_cell_formula_units_Z 112
_cell_length_a 28.255837
_cell_length_b 15.206521
_cell_length_c 14.067537
_cell_angle_alpha 90.000000
_cell_angle_beta 90.000000
_cell_angle_gamma 90.000000
_cell_volume 6044.440526
_symmetry_space_group_name_H-M "C M C M"
_symmetry_group_IT_number 63
_symmetry_cell_setting 'orthorhombic'
loop_
_space_group_symop_operation_xyz
x,y,z
-x,-y,1/2+z
x,-y,-z
-x,y,1/2-z
-x,-y,-z
x,y,1/2-z
-x,y,z
x,-y,1/2+z
1/2+x,1/2+y,z
1/2-x,1/2-y,1/2+z
1/2+x,1/2-y,-z
1/2-x,1/2+y,1/2-z
1/2-x,1/2-y,-z
1/2+x,1/2+y,1/2-z
1/2-x,1/2+y,z
1/2+x,1/2-y,1/2+z
loop_
_atom_site_type_symbol
_atom_site_label
_atom_site_fract_x
_atom_site_fract_y
_atom_site_fract_z
Si Si1 0.944992 0.231657 0.141017
Si Si2 0.635293 0.749339 0.505512
Si Si3 0.283509 0.235495 0.861834
Si Si4 0.354717 0.560248 0.906293
Si Si5 0.948069 0.978481 0.612722
Si Si6 0.304955 0.865263 0.863175
Si Si7 0.745269 0.955746 0.360767
O O1 0.930327 0.253629 0.250000
O O2 0.911339 0.266781 0.057401
O O3 0.000000 0.257744 0.129603
O O4 0.943567 0.125508 0.130342
O O5 0.675237 0.727491 0.426671
O O6 0.633779 0.661170 0.568609
O O7 0.652498 0.829561 0.571838
O O8 0.296324 0.235835 0.750000
O O9 0.235899 0.291376 0.870771
O O10 0.273716 0.136856 0.898208
O O11 0.400440 0.524001 0.851590
O O12 0.302194 0.547837 0.865568
O O13 0.352242 0.500000 0.000000
O O14 0.000000 0.006515 0.648034
O O15 0.949026 0.000000 0.500000
O O16 0.317320 0.871322 0.750000
O O17 0.280093 0.956056 0.896571
O O18 0.733095 0.954872 0.250000
#
# Coordination Sequence:
#
# PCOD9473882 Si02
#       7
#    16  16  16  16  16  16  16
#     4  10  21  37  57  82 112 148 191 238 292 347
#     4  12  21  34  56  81 113 148 185 241 284 338
#     4  10  21  36  52  78 113 150 195 239 282 333
#     4  11  20  30  49  77 101 145 191 222 269 330
#     4   9  17  32  50  72 104 142 185 228 267 324
#     4  10  22  37  54  79 111 151 195 241 284 336
#     4  10  22  37  52  74 111 152 191 235 282 337
#
# _framework density 18.529423999999999
#
# number of rings (size 3 to 8) (size 9 to 14) (size 15 to 20)
#    0.000    1.714    4.286    1.714    2.000    0.571 
#    0.000    0.000    0.000    0.429    0.000    2.000 
#    0.000    3.429    0.000    0.000    0.000    0.000 
#
# Total GULP energy -312306.413089 kJ/mol
# GULP energy per Si atom -5576.900234 kJ/mol
# Density = 1.848725 g / cm^3
# Si number density = 18.529424 Si / 1000 Ang^3
#
#
#
# Elastic Constant Matrix: (Units=GPa)
#
#
# Indices 1 2 3 4 5 6 
#
# 1 96.8872 22.0990 31.9100 0.0000 0.0000 0.0000
# 2 22.0990 70.4812 19.9358 0.0000 0.0000 0.0000
# 3 31.9100 19.9358 89.5861 0.0000 0.0000 0.0000
# 4 0.0000 0.0000 0.0000 14.9821 0.0000 0.0000
# 5 0.0000 0.0000 0.0000 0.0000 37.7941 0.0000
# 6 0.0000 0.0000 0.0000 0.0000 0.0000 22.7683
#
#
#
# Elastic Compliance Matrix: (Units=1/GPa)
#
#
# Indices 1 2 3 4 5 6 
#
# 1 0.012178 -0.002765 -0.003722 0.000000 0.000000 0.000000
# 2 -0.002765 0.015769 -0.002524 0.000000 0.000000 0.000000
# 3 -0.003722 -0.002524 0.013050 0.000000 0.000000 0.000000
# 4 0.000000 0.000000 0.000000 0.066746 0.000000 0.000000
# 5 0.000000 0.000000 0.000000 0.000000 0.026459 0.000000
# 6 0.000000 0.000000 0.000000 0.000000 0.000000 0.043921
#
#
# Mechanical properties :
#
#
# Convention : Reuss Voigt Hill
#
# Bulk Modulus (GPa) = 43.52856 44.98267 44.25561
# Shear Modulus (GPa) = 24.53326 27.30955 25.92141
#
# Velocity S-wave (km/s) = 3.64265 3.84324 3.74429
# Velocity P-wave (km/s) = 6.42141 6.63498 6.52907
#
# Compressibility (1/GPa) = 0.02297342
#
# Stress axis : x y z
#
# Youngs Moduli (GPa) = 82.11522 63.41459 76.62831
#
# Poissons Ratio (x) = 0.17537 0.28523
# Poissons Ratio (y) = 0.22709 0.19342
# Poissons Ratio (z) = 0.30566 0.16007
#
# Static dielectric constant tensor:
#      x y z
#    x 1.673000 0.000000 0.000000 
#    y 0.000000 1.634810 0.000000 
#    z 0.000000 0.000000 1.670220 
# 
# From -- ./inp_files/37948.got.cif
#   From: 2010.05.17/outbox.cif.g08.bks.cpg/sg63_19_cif.got.tgz:37948.got - 2010.06.03 15:47:04.
