data_PCOD9473885
_publ_section_title
;
Structure prediction by ZEFSAII (Michael W. Deem and Ramdas Pophale) SiO2 
 PCOD9473885
Probable space group: C M C M
;
_chemical_formula_sum "Si O2"
_cell_formula_units_Z 112
_cell_length_a 16.184254
_cell_length_b 28.690527
_cell_length_c 14.169759
_cell_angle_alpha 90.000000
_cell_angle_beta 90.000000
_cell_angle_gamma 90.000000
_cell_volume 6579.511876
_symmetry_space_group_name_H-M "C M C M"
_symmetry_group_IT_number 63
_symmetry_cell_setting 'orthorhombic'
loop_
_space_group_symop_operation_xyz
x,y,z
-x,-y,1/2+z
x,-y,-z
-x,y,1/2-z
-x,-y,-z
x,y,1/2-z
-x,y,z
x,-y,1/2+z
1/2+x,1/2+y,z
1/2-x,1/2-y,1/2+z
1/2+x,1/2-y,-z
1/2-x,1/2+y,1/2-z
1/2-x,1/2-y,-z
1/2+x,1/2+y,1/2-z
1/2-x,1/2+y,z
1/2+x,1/2-y,1/2+z
loop_
_atom_site_type_symbol
_atom_site_label
_atom_site_fract_x
_atom_site_fract_y
_atom_site_fract_z
Si Si1 0.406151 0.280706 0.635704
Si Si2 0.899754 0.323260 0.139019
Si Si3 0.743927 0.967498 0.352392
Si Si4 0.823391 0.601714 0.002331
Si Si5 0.676064 0.377892 0.636334
Si Si6 0.091345 0.538745 0.143496
Si Si7 0.593345 0.523844 0.102416
O O1 0.408825 0.280875 0.750000
O O2 0.500000 0.283443 0.600727
O O3 0.372798 0.229442 0.611454
O O4 0.360576 0.327790 0.608141
O O5 0.879181 0.331485 0.250000
O O6 0.000000 0.324840 0.133131
O O7 0.859959 0.360015 0.068054
O O8 0.736818 0.943804 0.250000
O O9 0.732786 0.932595 0.438585
O O10 0.666630 0.002636 0.361530
O O11 0.828989 0.996353 0.353262
O O12 0.763808 0.618665 0.085587
O O13 0.894654 0.573928 0.057722
O O14 0.682704 0.380615 0.750000
O O15 0.619418 0.421769 0.604990
O O16 0.095936 0.559683 0.250000
O O17 0.000000 0.516932 0.135701
O O18 0.500000 0.519343 0.142206
O O19 0.589589 0.500000 0.000000
#
# Coordination Sequence:
#
# PCOD9473885 Si02
#       7
#    16  16  16  16  16  16  16
#     4   8  16  33  55  78 103 132 172 222 270 315
#     4   9  19  36  56  78 104 134 173 221 271 321
#     4  11  22  37  52  73 105 142 183 222 264 313
#     4  12  21  33  51  78 109 140 173 220 260 322
#     4  11  21  34  54  79 107 141 176 218 267 316
#     4  10  21  36  53  73 104 144 183 224 267 311
#     4  11  21  36  56  79 107 141 180 222 268 314
#
# _framework density 17.022539999999999
#
# number of rings (size 3 to 8) (size 9 to 14) (size 15 to 20)
#    0.000    1.714    2.857    3.429    0.000    4.000 
#    0.000    1.429    0.000    0.000    0.000    0.000 
#    0.000    3.429    0.000    0.000    0.000    0.000 
#
# Total GULP energy -312018.376007 kJ/mol
# GULP energy per Si atom -5571.756714 kJ/mol
# Density = 1.698380 g / cm^3
# Si number density = 17.022540 Si / 1000 Ang^3
#
#
#
# Elastic Constant Matrix: (Units=GPa)
#
#
# Indices 1 2 3 4 5 6 
#
# 1 101.4510 32.2999 25.5141 0.0000 0.0000 0.0000
# 2 32.2999 79.7528 33.1718 0.0000 0.0000 0.0000
# 3 25.5141 33.1718 74.1679 0.0000 0.0000 0.0000
# 4 0.0000 0.0000 0.0000 13.5968 0.0000 0.0000
# 5 0.0000 0.0000 0.0000 0.0000 -24.8142 0.0000
# 6 0.0000 0.0000 0.0000 0.0000 0.0000 25.7232
#
#
#
# Elastic Compliance Matrix: (Units=1/GPa)
#
#
# Indices 1 2 3 4 5 6 
#
# 1 0.011634 -0.003744 -0.002328 0.000000 0.000000 0.000000
# 2 -0.003744 0.016609 -0.006141 0.000000 0.000000 0.000000
# 3 -0.002328 -0.006141 0.017030 0.000000 0.000000 0.000000
# 4 0.000000 0.000000 0.000000 0.073547 0.000000 0.000000
# 5 0.000000 0.000000 0.000000 0.000000 -0.040299 0.000000
# 6 0.000000 0.000000 0.000000 0.000000 0.000000 0.038875
#
#
# Mechanical properties :
#
#
# Convention : Reuss Voigt Hill
#
# Bulk Modulus (GPa) = 47.96358 48.59372 48.27865
# Shear Modulus (GPa) = 33.60892 13.86021 23.73457
#
# Velocity S-wave (km/s) = 4.44822 2.85656 3.73809
# Velocity P-wave (km/s) = 7.39053 6.28399 6.85961
#
# Compressibility (1/GPa) = 0.02084915
#
# Stress axis : x y z
#
# Youngs Moduli (GPa) = 85.95251 60.20831 58.71945
#
# Poissons Ratio (x) = 0.22540 0.13669
# Poissons Ratio (y) = 0.32178 0.36057
# Poissons Ratio (z) = 0.20009 0.36971
#
# Static dielectric constant tensor:
#      x y z
#    x 1.589720 0.000000 0.000000 
#    y 0.000000 1.583780 0.000000 
#    z 0.000000 0.000000 1.592590 
# 
# From -- ./inp_files/32555.got.cif
#   From: 2010.05.17/outbox.cif.g08.bks.cpg/sg63_17_cif.got.tgz:32555.got - 2010.06.03 15:47:04.
