data_PCOD9473233
_publ_section_title
;
Structure prediction by ZEFSAII (Michael W. Deem and Ramdas Pophale) SiO2 
 PCOD9473233
Probable space group: C M C M
;
_chemical_formula_sum "Si O2"
_cell_formula_units_Z 96
_cell_length_a 23.409563
_cell_length_b 12.046605
_cell_length_c 15.275551
_cell_angle_alpha 90.000000
_cell_angle_beta 90.000000
_cell_angle_gamma 90.000000
_cell_volume 4307.793349
_symmetry_space_group_name_H-M "C M C M"
_symmetry_group_IT_number 63
_symmetry_cell_setting 'orthorhombic'
loop_
_space_group_symop_operation_xyz
x,y,z
-x,-y,1/2+z
x,-y,-z
-x,y,1/2-z
-x,-y,-z
x,y,1/2-z
-x,y,z
x,-y,1/2+z
1/2+x,1/2+y,z
1/2-x,1/2-y,1/2+z
1/2+x,1/2-y,-z
1/2-x,1/2+y,1/2-z
1/2-x,1/2-y,-z
1/2+x,1/2+y,1/2-z
1/2-x,1/2+y,z
1/2+x,1/2-y,1/2+z
loop_
_atom_site_type_symbol
_atom_site_label
_atom_site_fract_x
_atom_site_fract_y
_atom_site_fract_z
Si Si1 0.837298 0.310460 0.347764
Si Si2 0.263413 0.386793 0.643153
Si Si3 0.935230 0.247739 0.591516
Si Si4 0.363760 0.947079 0.643465
Si Si5 0.936615 0.158956 0.394884
Si Si6 0.135392 0.043777 0.646324
O O1 0.815190 0.339301 0.250000
O O2 0.791260 0.228026 0.390497
O O3 0.857947 0.425706 0.387501
O O4 0.892121 0.231877 0.341664
O O5 0.265592 0.382348 0.750000
O O6 0.197867 0.397025 0.619104
O O7 0.303110 0.492937 0.617630
O O8 0.914310 0.373073 0.605362
O O9 0.937260 0.212810 0.490580
O O10 0.000000 0.230667 0.627290
O O11 0.885664 0.168484 0.630915
O O12 0.370011 0.945552 0.750000
O O13 0.911539 0.035521 0.397845
O O14 0.000000 0.158072 0.358644
O O15 0.132749 0.024859 0.750000
#
# Coordination Sequence:
#
# PCOD9473233 Si02
#       6
#    16  16  16  16  16  16
#     4   9  19  36  58  84 110 143 195 243 281 336
#     4   8  17  34  58  85 110 143 188 235 289 336
#     4  11  24  38  55  83 121 160 189 227 290 351
#     4  10  21  36  58  84 115 151 189 238 284 339
#     4  10  21  38  58  79 112 155 194 233 281 338
#     4  10  20  36  61  89 114 143 189 243 286 338
#
# _framework density 22.285191999999999
#
# number of rings (size 3 to 8) (size 9 to 14) (size 15 to 20)
#    0.000    2.333    0.000    3.000    2.333    6.000 
#    0.000    6.667    7.333    0.000    0.000    0.000 
#    0.000    0.000    0.000    0.000    0.000    0.000 
#
# Total GULP energy -267855.942000 kJ/mol
# GULP energy per Si atom -5580.332125 kJ/mol
# Density = 2.223447 g / cm^3
# Si number density = 22.285192 Si / 1000 Ang^3
#
#
#
# Elastic Constant Matrix: (Units=GPa)
#
#
# Indices 1 2 3 4 5 6 
#
# 1 62.3007 11.0740 4.4391 0.0000 0.0000 0.0000
# 2 11.0740 102.6933 -7.8927 0.0000 0.0000 0.0000
# 3 4.4391 -7.8927 38.4186 0.0000 0.0000 0.0000
# 4 0.0000 0.0000 0.0000 20.5481 0.0000 0.0000
# 5 0.0000 0.0000 0.0000 0.0000 14.3646 0.0000
# 6 0.0000 0.0000 0.0000 0.0000 0.0000 6.7201
#
#
#
# Elastic Compliance Matrix: (Units=1/GPa)
#
#
# Indices 1 2 3 4 5 6 
#
# 1 0.016566 -0.001964 -0.002318 0.000000 0.000000 0.000000
# 2 -0.001964 0.010127 0.002307 0.000000 0.000000 0.000000
# 3 -0.002318 0.002307 0.026771 0.000000 0.000000 0.000000
# 4 0.000000 0.000000 0.000000 0.048666 0.000000 0.000000
# 5 0.000000 0.000000 0.000000 0.000000 0.069616 0.000000
# 6 0.000000 0.000000 0.000000 0.000000 0.000000 0.148808
#
#
# Mechanical properties :
#
#
# Convention : Reuss Voigt Hill
#
# Bulk Modulus (GPa) = 20.19632 24.29483 22.24557
# Shear Modulus (GPa) = 14.66244 21.37936 18.02090
#
# Velocity S-wave (km/s) = 2.56783 3.10070 2.84676
# Velocity P-wave (km/s) = 4.22776 4.87284 4.56172
#
# Compressibility (1/GPa) = 0.04951397
#
# Stress axis : x y z
#
# Youngs Moduli (GPa) = 60.36639 98.74672 37.35394
#
# Poissons Ratio (x) = 0.19399 0.08657
# Poissons Ratio (y) = 0.11859 -0.08619
# Poissons Ratio (z) = 0.13991 -0.22785
#
# Static dielectric constant tensor:
#      x y z
#    x 1.796850 0.000000 0.000000 
#    y 0.000000 1.855570 0.000000 
#    z 0.000000 0.000000 1.858370 
# 
# From -- ./inp_files/48033.got.cif
#   From: 2010.05.17/outbox.cif.g08.bks.cpg/sg63_25_cif.got.tgz:48033.got - 2010.06.03 15:47:04.
