data_PCOD9473901
_publ_section_title
;
Structure prediction by ZEFSAII (Michael W. Deem and Ramdas Pophale) SiO2 
 PCOD9473901
Probable space group: C M C M
;
_chemical_formula_sum "Si O2"
_cell_formula_units_Z 80
_cell_length_a 9.050310
_cell_length_b 19.700632
_cell_length_c 25.962121
_cell_angle_alpha 90.000000
_cell_angle_beta 90.000000
_cell_angle_gamma 90.000000
_cell_volume 4628.963791
_symmetry_space_group_name_H-M "C M C M"
_symmetry_group_IT_number 63
_symmetry_cell_setting 'orthorhombic'
loop_
_space_group_symop_operation_xyz
x,y,z
-x,-y,1/2+z
x,-y,-z
-x,y,1/2-z
-x,-y,-z
x,y,1/2-z
-x,y,z
x,-y,1/2+z
1/2+x,1/2+y,z
1/2-x,1/2-y,1/2+z
1/2+x,1/2-y,-z
1/2-x,1/2+y,1/2-z
1/2-x,1/2-y,-z
1/2+x,1/2+y,1/2-z
1/2-x,1/2+y,z
1/2+x,1/2-y,1/2+z
loop_
_atom_site_type_symbol
_atom_site_label
_atom_site_fract_x
_atom_site_fract_y
_atom_site_fract_z
Si Si1 0.823560 0.625855 0.310406
Si Si2 0.676570 0.272889 0.612342
Si Si3 0.323632 0.880445 0.416364
Si Si4 0.175978 0.985932 0.880645
Si Si5 0.325148 0.383548 0.526696
O O1 0.788961 0.629711 0.250000
O O2 0.761366 0.690405 0.341510
O O3 0.748764 0.560525 0.336874
O O4 0.000000 0.621905 0.316674
O O5 0.500000 0.279029 0.621236
O O6 0.714515 0.194569 0.604178
O O7 0.707273 0.316460 0.560600
O O8 0.500000 0.888220 0.414303
O O9 0.268221 0.885800 0.475100
O O10 0.245895 0.940119 0.384710
O O11 0.203311 0.946358 0.934770
O O12 0.000000 0.988711 0.873574
O O13 0.500000 0.384064 0.513819
#
# Coordination Sequence:
#
# PCOD9473901 Si02
#       5
#    16  16  16  16  16
#     4  10  21  38  60  82 101 126 168 220 267 314
#     4   9  20  36  53  77 108 141 176 212 255 309
#     4  11  21  32  50  79 112 143 176 215 258 302
#     4  10  21  36  54  77 106 141 178 214 257 310
#     4   9  18  33  51  73 105 145 183 214 250 303
#
# _framework density 17.282485999999999
#
# number of rings (size 3 to 8) (size 9 to 14) (size 15 to 20)
#    0.000    2.200    0.000    4.200    0.000    9.600 
#    0.000    1.000    0.000    1.200    0.000    0.000 
#    0.000    0.000    0.000    0.000    0.000    0.000 
#
# Total GULP energy -223366.361044 kJ/mol
# GULP energy per Si atom -5584.159026 kJ/mol
# Density = 1.724315 g / cm^3
# Si number density = 17.282486 Si / 1000 Ang^3
#
#
#
# Elastic Constant Matrix: (Units=GPa)
#
#
# Indices 1 2 3 4 5 6 
#
# 1 53.9400 47.4113 47.5777 0.0000 0.0000 0.0000
# 2 47.4113 115.5968 29.7618 0.0000 0.0000 0.0000
# 3 47.5777 29.7618 84.0490 0.0000 0.0000 0.0000
# 4 0.0000 0.0000 0.0000 3.7890 0.0000 0.0000
# 5 0.0000 0.0000 0.0000 0.0000 29.6324 0.0000
# 6 0.0000 0.0000 0.0000 0.0000 0.0000 32.5227
#
#
#
# Elastic Compliance Matrix: (Units=1/GPa)
#
#
# Indices 1 2 3 4 5 6 
#
# 1 0.055200 -0.016059 -0.025561 0.000000 0.000000 0.000000
# 2 -0.016059 0.014191 0.004066 0.000000 0.000000 0.000000
# 3 -0.025561 0.004066 0.024927 0.000000 0.000000 0.000000
# 4 0.000000 0.000000 0.000000 0.263924 0.000000 0.000000
# 5 0.000000 0.000000 0.000000 0.000000 0.033747 0.000000
# 6 0.000000 0.000000 0.000000 0.000000 0.000000 0.030748
#
#
# Mechanical properties :
#
#
# Convention : Reuss Voigt Hill
#
# Bulk Modulus (GPa) = 52.05650 55.89860 53.97755
# Shear Modulus (GPa) = 9.91574 21.77782 15.84678
#
# Velocity S-wave (km/s) = 2.39790 3.55365 3.03137
# Velocity P-wave (km/s) = 6.15247 7.01799 6.59944
#
# Compressibility (1/GPa) = 0.01920990
#
# Stress axis : x y z
#
# Youngs Moduli (GPa) = 18.11582 70.46945 40.11659
#
# Poissons Ratio (x) = 1.13168 1.02541
# Poissons Ratio (y) = 0.29092 -0.16310
# Poissons Ratio (z) = 0.46305 -0.28651
#
# Static dielectric constant tensor:
#      x y z
#    x 1.572590 0.000000 0.000000 
#    y 0.000000 1.586450 0.000000 
#    z 0.000000 0.000000 1.553200 
# 
# From -- ./inp_files/66558.got.cif
#   From: 2010.05.17/outbox.cif.g08.bks.cpg/sg63_34_cif.got.tgz:66558.got - 2010.06.03 15:47:04.
