data_PCOD9473809
_publ_section_title
;
Structure prediction by ZEFSAII (Michael W. Deem and Ramdas Pophale) SiO2 
 PCOD9473809
Probable space group: C M C M
;
_chemical_formula_sum "Si O2"
_cell_formula_units_Z 120
_cell_length_a 28.791211
_cell_length_b 28.450706
_cell_length_c 8.780928
_cell_angle_alpha 90.000000
_cell_angle_beta 90.000000
_cell_angle_gamma 90.000000
_cell_volume 7192.724007
_symmetry_space_group_name_H-M "C M C M"
_symmetry_group_IT_number 63
_symmetry_cell_setting 'orthorhombic'
loop_
_space_group_symop_operation_xyz
x,y,z
-x,-y,1/2+z
x,-y,-z
-x,y,1/2-z
-x,-y,-z
x,y,1/2-z
-x,y,z
x,-y,1/2+z
1/2+x,1/2+y,z
1/2-x,1/2-y,1/2+z
1/2+x,1/2-y,-z
1/2-x,1/2+y,1/2-z
1/2-x,1/2-y,-z
1/2+x,1/2+y,1/2-z
1/2-x,1/2+y,z
1/2+x,1/2-y,1/2+z
loop_
_atom_site_type_symbol
_atom_site_label
_atom_site_fract_x
_atom_site_fract_y
_atom_site_fract_z
Si Si1 0.332649 0.949408 0.932836
Si Si2 0.000000 0.551697 0.567408
Si Si3 0.053288 0.287583 0.566203
Si Si4 0.781994 0.708852 0.932084
Si Si5 0.859886 0.765665 0.067291
Si Si6 0.799715 0.144536 0.566825
Si Si7 0.223628 0.950363 0.568578
Si Si8 0.911086 0.614543 0.567042
O O1 0.336452 0.950326 0.750000
O O2 0.278246 0.944296 0.974811
O O3 0.364406 0.908073 0.999450
O O4 0.348230 0.000000 0.000000
O O5 0.000000 0.500000 0.500000
O O6 0.046084 0.580332 0.523026
O O7 0.000000 0.548582 0.750000
O O8 0.053814 0.292371 0.750000
O O9 0.086732 0.243741 0.527606
O O10 0.075106 0.334539 0.495457
O O11 0.000000 0.282211 0.516721
O O12 0.784411 0.711978 0.750000
O O13 0.752504 0.662797 0.971635
O O14 0.750000 0.750000 0.000000
O O15 0.831393 0.721131 0.002158
O O16 0.854748 0.764816 0.250000
O O17 0.835613 0.814392 0.016234
O O18 0.802747 0.141174 0.750000
O O19 0.804858 0.093897 0.493349
O O20 0.221367 0.952017 0.750000
O O21 0.208196 0.000000 0.500000
O O22 0.907410 0.616273 0.750000
#
# Coordination Sequence:
#
# PCOD9473809 Si02
#       8
#    16   8  16  16  16  16  16  16
#     4  10  21  36  51  71  94 124 164 206 250 297
#     4  10  22  36  50  68  88 114 154 208 263 310
#     4  10  21  37  55  74  98 130 168 211 259 310
#     4   9  17  29  46  71  99 130 163 201 245 288
#     4   9  19  34  51  73 100 130 167 209 251 299
#     4   9  18  32  49  71 101 132 164 202 243 292
#     4  10  21  35  52  73 101 133 165 201 240 290
#     4  11  22  36  51  69  94 125 163 209 259 309
#
# _framework density 16.683526000000001
#
# number of rings (size 3 to 8) (size 9 to 14) (size 15 to 20)
#    0.000    2.267    0.667    2.800    1.867    6.933 
#    0.000    0.000    0.000    0.000    0.000    0.000 
#    0.000    0.533    0.000    0.933    0.000    1.333 
#
# Total GULP energy -334651.786561 kJ/mol
# GULP energy per Si atom -5577.529776 kJ/mol
# Density = 1.664555 g / cm^3
# Si number density = 16.683526 Si / 1000 Ang^3
#
#
#
# Elastic Constant Matrix: (Units=GPa)
#
#
# Indices 1 2 3 4 5 6 
#
# 1 77.7739 53.7598 20.0255 0.0000 0.0000 0.0000
# 2 53.7598 123.8806 30.0411 0.0000 0.0000 0.0000
# 3 20.0255 30.0411 12.2927 0.0000 0.0000 0.0000
# 4 0.0000 0.0000 0.0000 24.5585 0.0000 0.0000
# 5 0.0000 0.0000 0.0000 0.0000 12.2666 0.0000
# 6 0.0000 0.0000 0.0000 0.0000 0.0000 24.5823
#
#
#
# Elastic Compliance Matrix: (Units=1/GPa)
#
#
# Indices 1 2 3 4 5 6 
#
# 1 0.022376 -0.002138 -0.031228 0.000000 0.000000 0.000000
# 2 -0.002138 0.020020 -0.045442 0.000000 0.000000 0.000000
# 3 -0.031228 -0.045442 0.243274 0.000000 0.000000 0.000000
# 4 0.000000 0.000000 0.000000 0.040719 0.000000 0.000000
# 5 0.000000 0.000000 0.000000 0.000000 0.081522 0.000000
# 6 0.000000 0.000000 0.000000 0.000000 0.000000 0.040680
#
#
# Mechanical properties :
#
#
# Convention : Reuss Voigt Hill
#
# Bulk Modulus (GPa) = 7.80919 46.84441 27.32680
# Shear Modulus (GPa) = 7.70545 19.62288 13.66417
#
# Velocity S-wave (km/s) = 2.15142 3.43327 2.86496
# Velocity P-wave (km/s) = 3.29582 6.62236 5.23059
#
# Compressibility (1/GPa) = 0.12805433
#
# Stress axis : x y z
#
# Youngs Moduli (GPa) = 44.69061 49.95077 4.11059
#
# Poissons Ratio (x) = 0.10678 0.12837
# Poissons Ratio (y) = 0.09553 0.18679
# Poissons Ratio (z) = 1.39560 2.26988
#
# Static dielectric constant tensor:
#      x y z
#    x 1.581250 0.000000 0.000000 
#    y 0.000000 1.560290 0.000000 
#    z 0.000000 0.000000 1.556830 
# 
# From -- ./inp_files/13151.got.cif
#   From: 2010.05.17/outbox.cif.g08.bks.cpg/sg63_7_cif.got.tgz:13151.got - 2010.06.03 15:47:04.
