data_PCOD9473704
_publ_section_title
;
Structure prediction by ZEFSAII (Michael W. Deem and Ramdas Pophale) SiO2 
 PCOD9473704
Probable space group: C M C M
;
_chemical_formula_sum "Si O2"
_cell_formula_units_Z 80
_cell_length_a 31.479703
_cell_length_b 5.238328
_cell_length_c 25.681238
_cell_angle_alpha 90.000000
_cell_angle_beta 90.000000
_cell_angle_gamma 90.000000
_cell_volume 4234.862075
_symmetry_space_group_name_H-M "C M C M"
_symmetry_group_IT_number 63
_symmetry_cell_setting 'orthorhombic'
loop_
_space_group_symop_operation_xyz
x,y,z
-x,-y,1/2+z
x,-y,-z
-x,y,1/2-z
-x,-y,-z
x,y,1/2-z
-x,y,z
x,-y,1/2+z
1/2+x,1/2+y,z
1/2-x,1/2-y,1/2+z
1/2+x,1/2-y,-z
1/2-x,1/2+y,1/2-z
1/2-x,1/2-y,-z
1/2+x,1/2+y,1/2-z
1/2-x,1/2+y,z
1/2+x,1/2-y,1/2+z
loop_
_atom_site_type_symbol
_atom_site_label
_atom_site_fract_x
_atom_site_fract_y
_atom_site_fract_z
Si Si1 0.861577 0.442513 0.419104
Si Si2 0.103016 0.548948 0.692592
Si Si3 0.084626 0.939365 0.055961
Si Si4 0.048918 0.053407 0.832582
Si Si5 0.766459 0.307908 0.441239
O O1 0.865344 0.470344 0.356462
O O2 0.887343 0.680707 0.443283
O O3 0.813577 0.419066 0.438332
O O4 0.884446 0.178045 0.433211
O O5 0.122775 0.555997 0.750000
O O6 0.072197 0.304280 0.688688
O O7 0.074647 0.802597 0.684627
O O8 0.052973 0.927391 0.104584
O O9 0.064667 0.000000 0.000000
O O10 0.000000 0.039778 0.816999
O O11 0.750000 0.250000 0.500000
O O12 0.736701 0.526379 0.416712
#
# Coordination Sequence:
#
# PCOD9473704 Si02
#       5
#    16  16  16  16  16
#     4  10  21  36  52  77 111 138 180 221 259 324
#     4  10  21  37  57  79 103 143 182 221 276 317
#     4  10  21  33  54  75 106 152 178 210 262 325
#     4  10  21  36  53  82 111 135 181 231 268 315
#     4  10  21  32  50  79 107 138 166 215 267 314
#
# _framework density 18.890815
#
# number of rings (size 3 to 8) (size 9 to 14) (size 15 to 20)
#    0.000    2.000    0.000    3.000    8.400    2.800 
#    0.000    0.000    0.000    8.400    0.000    0.000 
#    0.000    0.000    0.000    0.000    0.000    0.000 
#
# Total GULP energy -223158.316875 kJ/mol
# GULP energy per Si atom -5578.957922 kJ/mol
# Density = 1.884782 g / cm^3
# Si number density = 18.890815 Si / 1000 Ang^3
#
#
#
# Elastic Constant Matrix: (Units=GPa)
#
#
# Indices 1 2 3 4 5 6 
#
# 1 61.0384 20.1817 25.6678 0.0000 0.0000 0.0000
# 2 20.1817 156.2864 3.0231 0.0000 0.0000 0.0000
# 3 25.6678 3.0231 104.2669 0.0000 0.0000 0.0000
# 4 0.0000 0.0000 0.0000 35.1937 0.0000 0.0000
# 5 0.0000 0.0000 0.0000 0.0000 2.0188 0.0000
# 6 0.0000 0.0000 0.0000 0.0000 0.0000 1.7879
#
#
#
# Elastic Compliance Matrix: (Units=1/GPa)
#
#
# Indices 1 2 3 4 5 6 
#
# 1 0.019120 -0.002379 -0.004638 0.000000 0.000000 0.000000
# 2 -0.002379 0.006698 0.000392 0.000000 0.000000 0.000000
# 3 -0.004638 0.000392 0.010721 0.000000 0.000000 0.000000
# 4 0.000000 0.000000 0.000000 0.028414 0.000000 0.000000
# 5 0.000000 0.000000 0.000000 0.000000 0.495339 0.000000
# 6 0.000000 0.000000 0.000000 0.000000 0.000000 0.559307
#
#
# Mechanical properties :
#
#
# Convention : Reuss Voigt Hill
#
# Bulk Modulus (GPa) = 42.94041 46.59298 44.76669
# Shear Modulus (GPa) = 4.38361 25.98136 15.18248
#
# Velocity S-wave (km/s) = 1.52497 3.71259 2.83803
# Velocity P-wave (km/s) = 5.08733 6.56473 5.87267
#
# Compressibility (1/GPa) = 0.02328809
#
# Stress axis : x y z
#
# Youngs Moduli (GPa) = 52.30078 149.29415 93.27350
#
# Poissons Ratio (x) = 0.35522 0.43259
# Poissons Ratio (y) = 0.12444 -0.03652
# Poissons Ratio (z) = 0.24257 -0.05845
#
# Static dielectric constant tensor:
#      x y z
#    x 1.629820 0.000000 0.000000 
#    y 0.000000 1.713370 0.000000 
#    z 0.000000 0.000000 1.722700 
# 
# From -- ./inp_files/65636.got.cif
#   From: 2010.05.17/outbox.cif.g08.bks.cpg/sg63_33_cif.got.tgz:65636.got - 2010.06.03 15:47:04.
