data_PCOD9473426
_publ_section_title
;
Structure prediction by ZEFSAII (Michael W. Deem and Ramdas Pophale) SiO2 
 PCOD9473426
Probable space group: C M C M
;
_chemical_formula_sum "Si O2"
_cell_formula_units_Z 64
_cell_length_a 18.547050
_cell_length_b 12.385564
_cell_length_c 11.550712
_cell_angle_alpha 90.000000
_cell_angle_beta 90.000000
_cell_angle_gamma 90.000000
_cell_volume 2653.379601
_symmetry_space_group_name_H-M "C M C M"
_symmetry_group_IT_number 63
_symmetry_cell_setting 'orthorhombic'
loop_
_space_group_symop_operation_xyz
x,y,z
-x,-y,1/2+z
x,-y,-z
-x,y,1/2-z
-x,-y,-z
x,y,1/2-z
-x,y,z
x,-y,1/2+z
1/2+x,1/2+y,z
1/2-x,1/2-y,1/2+z
1/2+x,1/2-y,-z
1/2-x,1/2+y,1/2-z
1/2-x,1/2-y,-z
1/2+x,1/2+y,1/2-z
1/2-x,1/2+y,z
1/2+x,1/2-y,1/2+z
loop_
_atom_site_type_symbol
_atom_site_label
_atom_site_fract_x
_atom_site_fract_y
_atom_site_fract_z
Si Si1 0.421388 0.827761 0.115738
Si Si2 0.291790 0.749998 0.624234
Si Si3 0.298726 0.991204 0.622118
Si Si4 0.418407 0.378729 0.047497
O O1 0.424352 0.799868 0.250000
O O2 0.500000 0.871549 0.079417
O O3 0.360965 0.920037 0.108092
O O4 0.411309 0.714934 0.049953
O O5 0.251012 0.745042 0.750000
O O6 0.250000 0.750000 0.500000
O O7 0.327282 0.868718 0.625721
O O8 0.351392 0.657197 0.624894
O O9 0.264778 0.006060 0.750000
O O10 0.255910 0.000000 0.500000
O O11 0.500000 0.368845 0.096511
O O12 0.412302 0.500000 0.000000
#
# Coordination Sequence:
#
# PCOD9473426 Si02
#       4
#    16  16  16  16
#     4   9  18  34  61  98 138 177 218 275 349 420
#     4  11  26  46  69 101 141 187 237 295 361 429
#     4  10  20  37  63  95 129 169 222 278 338 406
#     4  10  22  42  70 103 141 188 242 296 357 433
#
# _framework density 24.120183999999998
#
# number of rings (size 3 to 8) (size 9 to 14) (size 15 to 20)
#    0.000    2.000    2.500    0.000    0.000    6.000 
#    0.000    7.500    0.000    0.000    0.000    0.000 
#    0.000    0.000    0.000    0.000    0.000    0.000 
#
# Total GULP energy -178298.469456 kJ/mol
# GULP energy per Si atom -5571.827170 kJ/mol
# Density = 2.406528 g / cm^3
# Si number density = 24.120184 Si / 1000 Ang^3
#
#
#
# Elastic Constant Matrix: (Units=GPa)
#
#
# Indices 1 2 3 4 5 6 
#
# 1 105.6057 51.8743 55.9461 0.0000 0.0000 0.0000
# 2 51.8743 180.4260 32.3913 0.0000 0.0000 0.0000
# 3 55.9461 32.3913 219.1808 0.0000 0.0000 0.0000
# 4 0.0000 0.0000 0.0000 28.3869 0.0000 0.0000
# 5 0.0000 0.0000 0.0000 0.0000 14.8440 0.0000
# 6 0.0000 0.0000 0.0000 0.0000 0.0000 35.8191
#
#
#
# Elastic Compliance Matrix: (Units=1/GPa)
#
#
# Indices 1 2 3 4 5 6 
#
# 1 0.012422 -0.003084 -0.002715 0.000000 0.000000 0.000000
# 2 -0.003084 0.006459 -0.000167 0.000000 0.000000 0.000000
# 3 -0.002715 -0.000167 0.005280 0.000000 0.000000 0.000000
# 4 0.000000 0.000000 0.000000 0.035228 0.000000 0.000000
# 5 0.000000 0.000000 0.000000 0.000000 0.067367 0.000000
# 6 0.000000 0.000000 0.000000 0.000000 0.000000 0.027918
#
#
# Mechanical properties :
#
#
# Convention : Reuss Voigt Hill
#
# Bulk Modulus (GPa) = 81.77432 87.29290 84.53361
# Shear Modulus (GPa) = 29.29390 40.14338 34.71864
#
# Velocity S-wave (km/s) = 3.48874 4.08402 3.79806
# Velocity P-wave (km/s) = 7.08554 7.64907 7.37269
#
# Compressibility (1/GPa) = 0.01222878
#
# Stress axis : x y z
#
# Youngs Moduli (GPa) = 80.49915 154.81779 189.38697
#
# Poissons Ratio (x) = 0.47748 0.51420
# Poissons Ratio (y) = 0.24827 0.03169
# Poissons Ratio (z) = 0.21856 0.02591
#
# Static dielectric constant tensor:
#      x y z
#    x 2.006290 0.000000 0.000000 
#    y 0.000000 1.894360 0.000000 
#    z 0.000000 0.000000 2.025070 
# 
# From -- ./inp_files/22120.got.cif
#   From: 2010.05.17/outbox.cif.g08.bks.cpg/sg63_12_cif.got.tgz:22120.got - 2010.06.03 15:47:04.
