data_PCOD9473807
_publ_section_title
;
Structure prediction by ZEFSAII (Michael W. Deem and Ramdas Pophale) SiO2 
 PCOD9473807
Probable space group: C M C M
;
_chemical_formula_sum "Si O2"
_cell_formula_units_Z 96
_cell_length_a 14.559164
_cell_length_b 13.585878
_cell_length_c 26.818763
_cell_angle_alpha 90.000000
_cell_angle_beta 90.000000
_cell_angle_gamma 90.000000
_cell_volume 5304.725197
_symmetry_space_group_name_H-M "C M C M"
_symmetry_group_IT_number 63
_symmetry_cell_setting 'orthorhombic'
loop_
_space_group_symop_operation_xyz
x,y,z
-x,-y,1/2+z
x,-y,-z
-x,y,1/2-z
-x,-y,-z
x,y,1/2-z
-x,y,z
x,-y,1/2+z
1/2+x,1/2+y,z
1/2-x,1/2-y,1/2+z
1/2+x,1/2-y,-z
1/2-x,1/2+y,1/2-z
1/2-x,1/2-y,-z
1/2+x,1/2+y,1/2-z
1/2-x,1/2+y,z
1/2+x,1/2-y,1/2+z
loop_
_atom_site_type_symbol
_atom_site_label
_atom_site_fract_x
_atom_site_fract_y
_atom_site_fract_z
Si Si1 0.607416 0.380086 0.943072
Si Si2 0.500000 0.081328 0.690331
Si Si3 0.606808 0.392752 0.436905
Si Si4 0.304263 0.917909 0.191888
Si Si5 0.500000 0.309521 0.810311
Si Si6 0.199492 0.108591 0.308248
Si Si7 0.749372 0.248789 0.615971
O O1 0.500000 0.361822 0.929791
O O2 0.632213 0.492342 0.926501
O O3 0.676599 0.298600 0.921700
O O4 0.612451 0.380664 0.003216
O O5 0.500000 0.085147 0.750000
O O6 0.597429 0.033959 0.678012
O O7 0.500000 0.195701 0.672816
O O8 0.500000 0.381145 0.422413
O O9 0.670315 0.310618 0.411498
O O10 0.308554 0.884602 0.250000
O O11 0.293648 0.830212 0.153731
O O12 0.221529 0.993900 0.188233
O O13 0.500000 0.307619 0.750000
O O14 0.404625 0.363316 0.823628
O O15 0.212088 0.136458 0.250000
O O16 0.269657 0.163391 0.345113
#
# Coordination Sequence:
#
# PCOD9473807 Si02
#       7
#    16   8  16  16   8  16  16
#     4   9  20  37  62  85 107 139 178 226 275 336
#     4   9  16  32  54  71  99 143 183 223 262 305
#     4   9  20  41  58  80 114 142 173 222 286 332
#     4  10  21  35  51  79 115 148 182 225 270 312
#     4   9  16  32  56  75  99 139 187 233 262 299
#     4  10  21  35  53  80 115 149 182 224 272 316
#     4  12  20  32  58  87 106 144 183 230 260 325
#
# _framework density 18.097073000000002
#
# number of rings (size 3 to 8) (size 9 to 14) (size 15 to 20)
#    0.000    2.167    1.667    3.000    2.333    0.000 
#    3.000    0.000    0.000    1.000    0.000    7.000 
#    0.000    0.000    0.000    0.000    0.000    0.000 
#
# Total GULP energy -267328.413249 kJ/mol
# GULP energy per Si atom -5569.341943 kJ/mol
# Density = 1.805588 g / cm^3
# Si number density = 18.097073 Si / 1000 Ang^3
#
#
#
# Elastic Constant Matrix: (Units=GPa)
#
#
# Indices 1 2 3 4 5 6 
#
# 1 100.7184 62.9251 40.8705 0.0000 0.0000 0.0000
# 2 62.9251 91.5078 36.0872 0.0000 0.0000 0.0000
# 3 40.8705 36.0872 74.7399 0.0000 0.0000 0.0000
# 4 0.0000 0.0000 0.0000 37.0673 0.0000 0.0000
# 5 0.0000 0.0000 0.0000 0.0000 21.6996 0.0000
# 6 0.0000 0.0000 0.0000 0.0000 0.0000 38.2519
#
#
#
# Elastic Compliance Matrix: (Units=1/GPa)
#
#
# Indices 1 2 3 4 5 6 
#
# 1 0.018801 -0.010961 -0.004989 0.000000 0.000000 0.000000
# 2 -0.010961 0.019889 -0.003609 0.000000 0.000000 0.000000
# 3 -0.004989 -0.003609 0.017850 0.000000 0.000000 0.000000
# 4 0.000000 0.000000 0.000000 0.026978 0.000000 0.000000
# 5 0.000000 0.000000 0.000000 0.000000 0.046084 0.000000
# 6 0.000000 0.000000 0.000000 0.000000 0.000000 0.026142
#
#
# Mechanical properties :
#
#
# Convention : Reuss Voigt Hill
#
# Bulk Modulus (GPa) = 57.39753 60.74796 59.07274
# Shear Modulus (GPa) = 24.91654 27.87598 26.39626
#
# Velocity S-wave (km/s) = 3.71459 3.92900 3.82330
# Velocity P-wave (km/s) = 7.08399 7.36365 7.22517
#
# Compressibility (1/GPa) = 0.01742235
#
# Stress axis : x y z
#
# Youngs Moduli (GPa) = 53.18806 50.27962 56.02145
#
# Poissons Ratio (x) = 0.55113 0.27947
# Poissons Ratio (y) = 0.58301 0.20218
# Poissons Ratio (z) = 0.26534 0.18146
#
# Static dielectric constant tensor:
#      x y z
#    x 1.635710 0.000000 0.000000 
#    y 0.000000 1.629340 0.000000 
#    z 0.000000 0.000000 1.665170 
# 
# From -- ./inp_files/72795.got.cif
#   From: 2010.05.17/outbox.cif.g08.bks.cpg/sg63_37_cif.got.tgz:72795.got - 2010.06.03 15:47:04.
