data_PCOD9473460
_publ_section_title
;
Structure prediction by ZEFSAII (Michael W. Deem and Ramdas Pophale) SiO2 
 PCOD9473460
Probable space group: C M C M
;
_chemical_formula_sum "Si O2"
_cell_formula_units_Z 96
_cell_length_a 21.950704
_cell_length_b 12.783682
_cell_length_c 16.418870
_cell_angle_alpha 90.000000
_cell_angle_beta 90.000000
_cell_angle_gamma 90.000000
_cell_volume 4607.312568
_symmetry_space_group_name_H-M "C M C M"
_symmetry_group_IT_number 63
_symmetry_cell_setting 'orthorhombic'
loop_
_space_group_symop_operation_xyz
x,y,z
-x,-y,1/2+z
x,-y,-z
-x,y,1/2-z
-x,-y,-z
x,y,1/2-z
-x,y,z
x,-y,1/2+z
1/2+x,1/2+y,z
1/2-x,1/2-y,1/2+z
1/2+x,1/2-y,-z
1/2-x,1/2+y,1/2-z
1/2-x,1/2-y,-z
1/2+x,1/2+y,1/2-z
1/2-x,1/2+y,z
1/2+x,1/2-y,1/2+z
loop_
_atom_site_type_symbol
_atom_site_label
_atom_site_fract_x
_atom_site_fract_y
_atom_site_fract_z
Si Si1 0.875592 0.465938 0.659063
Si Si2 0.069185 0.253761 0.604277
Si Si3 0.268375 0.085972 0.442241
Si Si4 0.159298 0.831664 0.846097
Si Si5 0.929274 0.974155 0.348115
Si Si6 0.115140 0.649642 0.552335
O O1 0.885975 0.503380 0.750000
O O2 0.896510 0.345878 0.651836
O O3 0.804878 0.467564 0.632471
O O4 0.905958 0.539535 0.590495
O O5 0.093282 0.136139 0.614939
O O6 0.072185 0.291587 0.511031
O O7 0.000000 0.250429 0.634108
O O8 0.219347 0.159942 0.401766
O O9 0.322554 0.132379 0.499066
O O10 0.237615 0.000000 0.500000
O O11 0.172983 0.835419 0.750000
O O12 0.127829 0.724240 0.871772
O O13 0.114532 0.928626 0.866689
O O14 0.929325 0.962173 0.250000
O O15 0.000000 0.992565 0.373661
#
# Coordination Sequence:
#
# PCOD9473460 Si02
#       6
#    16  16  16  16  16  16
#     4  10  20  38  59  84 117 151 191 241 294 343
#     4  10  21  38  61  85 112 152 200 244 284 337
#     4   9  20  37  59  82 113 151 193 241 278 335
#     4  11  22  37  59  86 116 154 193 234 291 353
#     4   9  20  38  58  84 116 149 193 245 289 337
#     4  10  22  37  57  84 120 152 186 239 294 345
#
# _framework density 20.836441000000001
#
# number of rings (size 3 to 8) (size 9 to 14) (size 15 to 20)
#    0.000    2.167    0.000    3.500    2.333    3.000 
#    3.000    1.667    0.000    3.000    0.000    0.000 
#    0.000    0.000    0.000    0.000    0.000    0.000 
#
# Total GULP energy -267659.911839 kJ/mol
# GULP energy per Si atom -5576.248163 kJ/mol
# Density = 2.078902 g / cm^3
# Si number density = 20.836441 Si / 1000 Ang^3
#
#
#
# Elastic Constant Matrix: (Units=GPa)
#
#
# Indices 1 2 3 4 5 6 
#
# 1 28.6952 9.2567 14.4990 0.0000 0.0000 0.0000
# 2 9.2567 83.0022 29.7741 0.0000 0.0000 0.0000
# 3 14.4990 29.7741 89.4738 0.0000 0.0000 0.0000
# 4 0.0000 0.0000 0.0000 37.2339 0.0000 0.0000
# 5 0.0000 0.0000 0.0000 0.0000 7.5132 0.0000
# 6 0.0000 0.0000 0.0000 0.0000 0.0000 36.5379
#
#
#
# Elastic Compliance Matrix: (Units=1/GPa)
#
#
# Indices 1 2 3 4 5 6 
#
# 1 0.038348 -0.002325 -0.005440 0.000000 0.000000 0.000000
# 2 -0.002325 0.013822 -0.004223 0.000000 0.000000 0.000000
# 3 -0.005440 -0.004223 0.013463 0.000000 0.000000 0.000000
# 4 0.000000 0.000000 0.000000 0.026857 0.000000 0.000000
# 5 0.000000 0.000000 0.000000 0.000000 0.133100 0.000000
# 6 0.000000 0.000000 0.000000 0.000000 0.000000 0.027369
#
#
# Mechanical properties :
#
#
# Convention : Reuss Voigt Hill
#
# Bulk Modulus (GPa) = 24.00582 34.24788 29.12685
# Shear Modulus (GPa) = 17.19270 26.09974 21.64622
#
# Velocity S-wave (km/s) = 2.87562 3.54305 3.22664
# Velocity P-wave (km/s) = 4.75096 5.76280 5.28117
#
# Compressibility (1/GPa) = 0.04165656
#
# Stress axis : x y z
#
# Youngs Moduli (GPa) = 26.07696 72.34876 74.27610
#
# Poissons Ratio (x) = 0.16822 0.40410
# Poissons Ratio (y) = 0.06063 0.31365
# Poissons Ratio (z) = 0.14187 0.30551
#
# Static dielectric constant tensor:
#      x y z
#    x 1.748920 0.000000 0.000000 
#    y 0.000000 1.761340 0.000000 
#    z 0.000000 0.000000 1.757430 
# 
# From -- ./inp_files/48052.got.cif
#   From: 2010.05.17/outbox.cif.g08.bks.cpg/sg63_25_cif.got.tgz:48052.got - 2010.06.03 15:47:04.
