data_PCOD9473755
_publ_section_title
;
Structure prediction by ZEFSAII (Michael W. Deem and Ramdas Pophale) SiO2 
 PCOD9473755
Probable space group: C M C M
;
_chemical_formula_sum "Si O2"
_cell_formula_units_Z 84
_cell_length_a 13.769567
_cell_length_b 12.887274
_cell_length_c 24.380704
_cell_angle_alpha 90.000000
_cell_angle_beta 90.000000
_cell_angle_gamma 90.000000
_cell_volume 4326.409143
_symmetry_space_group_name_H-M "C M C M"
_symmetry_group_IT_number 63
_symmetry_cell_setting 'orthorhombic'
loop_
_space_group_symop_operation_xyz
x,y,z
-x,-y,1/2+z
x,-y,-z
-x,y,1/2-z
-x,-y,-z
x,y,1/2-z
-x,y,z
x,-y,1/2+z
1/2+x,1/2+y,z
1/2-x,1/2-y,1/2+z
1/2+x,1/2-y,-z
1/2-x,1/2+y,1/2-z
1/2-x,1/2-y,-z
1/2+x,1/2+y,1/2-z
1/2-x,1/2+y,z
1/2+x,1/2-y,1/2+z
loop_
_atom_site_type_symbol
_atom_site_label
_atom_site_fract_x
_atom_site_fract_y
_atom_site_fract_z
Si Si1 0.500000 0.608334 0.750000
Si Si2 0.205371 0.459820 0.388134
Si Si3 0.114987 0.299703 0.473034
Si Si4 0.390932 0.440378 0.942030
Si Si5 0.809909 0.824911 0.190580
Si Si6 0.613361 0.173243 0.099602
O O1 0.587621 0.618119 0.703284
O O2 0.172676 0.378832 0.434755
O O3 0.307103 0.512074 0.405278
O O4 0.227144 0.400898 0.331756
O O5 0.129158 0.552955 0.386341
O O6 0.124091 0.181603 0.452913
O O7 0.145088 0.308287 0.536703
O O8 0.000000 0.326906 0.470901
O O9 0.500000 0.454908 0.919696
O O10 0.386875 0.500000 0.000000
O O11 0.783580 0.777546 0.250000
O O12 0.828711 0.741686 0.143144
O O13 0.500000 0.201029 0.102913
#
# Coordination Sequence:
#
# PCOD9473755 Si02
#       6
#     4  16  16  16  16  16
#     4   8  20  44  60  80 106 154 192 256 294 340
#     4  12  23  34  59  89 117 148 192 242 296 350
#     4  10  22  39  56  86 129 159 186 234 292 351
#     4  10  21  34  51  78 113 154 192 227 277 341
#     4  10  22  40  61  82 112 145 198 252 292 335
#     4  11  21  38  63  87 118 161 197 232 285 354
#
# _framework density 19.415638999999999
#
# number of rings (size 3 to 8) (size 9 to 14) (size 15 to 20)
#    0.571    0.952    0.952    4.571    1.333    6.095 
#    0.000    0.000    0.000    1.714    0.000    0.000 
#    0.000    0.000    0.000    0.000    0.000    0.000 
#
# Total GULP energy -234020.400258 kJ/mol
# GULP energy per Si atom -5571.914292 kJ/mol
# Density = 1.937145 g / cm^3
# Si number density = 19.415639 Si / 1000 Ang^3
#
#
#
# Elastic Constant Matrix: (Units=GPa)
#
#
# Indices 1 2 3 4 5 6 
#
# 1 56.4853 11.7154 26.5726 0.0000 0.0000 0.0000
# 2 11.7154 55.3202 19.1567 0.0000 0.0000 0.0000
# 3 26.5726 19.1567 98.8283 0.0000 0.0000 0.0000
# 4 0.0000 0.0000 0.0000 4.6291 0.0000 0.0000
# 5 0.0000 0.0000 0.0000 0.0000 33.8539 0.0000
# 6 0.0000 0.0000 0.0000 0.0000 0.0000 31.0730
#
#
#
# Elastic Compliance Matrix: (Units=1/GPa)
#
#
# Indices 1 2 3 4 5 6 
#
# 1 0.020616 -0.002622 -0.005035 0.000000 0.000000 0.000000
# 2 -0.002622 0.019711 -0.003116 0.000000 0.000000 0.000000
# 3 -0.005035 -0.003116 0.012076 0.000000 0.000000 0.000000
# 4 0.000000 0.000000 0.000000 0.216024 0.000000 0.000000
# 5 0.000000 0.000000 0.000000 0.000000 0.029539 0.000000
# 6 0.000000 0.000000 0.000000 0.000000 0.000000 0.032182
#
#
# Mechanical properties :
#
#
# Convention : Reuss Voigt Hill
#
# Bulk Modulus (GPa) = 32.40712 36.16923 34.28818
# Shear Modulus (GPa) = 13.81290 24.12381 18.96836
#
# Velocity S-wave (km/s) = 2.67016 3.52873 3.12903
# Velocity P-wave (km/s) = 5.12190 5.93902 5.54553
#
# Compressibility (1/GPa) = 0.03085742
#
# Stress axis : x y z
#
# Youngs Moduli (GPa) = 48.50555 50.73348 82.80720
#
# Poissons Ratio (x) = 0.13305 0.41692
# Poissons Ratio (y) = 0.12720 0.25799
# Poissons Ratio (z) = 0.24422 0.15806
#
# Static dielectric constant tensor:
#      x y z
#    x 1.698290 0.000000 0.000000 
#    y 0.000000 1.679100 0.000000 
#    z 0.000000 0.000000 1.668000 
# 
# From -- ./inp_files/62688.got.cif
#   From: 2010.05.17/outbox.cif.g08.bks.cpg/sg63_32_cif.got.tgz:62688.got - 2010.06.03 15:47:04.
