data_PCOD9473236
_publ_section_title
;
Structure prediction by ZEFSAII (Michael W. Deem and Ramdas Pophale) SiO2 
 PCOD9473236
Probable space group: C M C M
;
_chemical_formula_sum "Si O2"
_cell_formula_units_Z 80
_cell_length_a 7.979091
_cell_length_b 25.540146
_cell_length_c 19.193007
_cell_angle_alpha 90.000000
_cell_angle_beta 90.000000
_cell_angle_gamma 90.000000
_cell_volume 3911.288179
_symmetry_space_group_name_H-M "C M C M"
_symmetry_group_IT_number 63
_symmetry_cell_setting 'orthorhombic'
loop_
_space_group_symop_operation_xyz
x,y,z
-x,-y,1/2+z
x,-y,-z
-x,y,1/2-z
-x,-y,-z
x,y,1/2-z
-x,y,z
x,-y,1/2+z
1/2+x,1/2+y,z
1/2-x,1/2-y,1/2+z
1/2+x,1/2-y,-z
1/2-x,1/2+y,1/2-z
1/2-x,1/2-y,-z
1/2+x,1/2+y,1/2-z
1/2-x,1/2+y,z
1/2+x,1/2-y,1/2+z
loop_
_atom_site_type_symbol
_atom_site_label
_atom_site_fract_x
_atom_site_fract_y
_atom_site_fract_z
Si Si1 0.794664 0.832740 0.079623
Si Si2 0.300710 0.026289 0.071974
Si Si3 0.302711 0.354629 0.924043
Si Si4 0.801025 0.263964 0.671726
Si Si5 0.702727 0.433137 0.170169
O O1 0.735702 0.780996 0.119834
O O2 0.742590 0.883993 0.123088
O O3 0.000000 0.832777 0.077886
O O4 0.736268 0.836887 0.999982
O O5 0.500000 0.032593 0.065581
O O6 0.225612 0.083548 0.082706
O O7 0.261120 0.986379 0.133965
O O8 0.236963 0.000000 0.000000
O O9 0.500000 0.344124 0.922641
O O10 0.224678 0.320190 0.863068
O O11 0.731234 0.260630 0.750000
O O12 0.000000 0.254624 0.676713
O O13 0.759585 0.428251 0.250000
O O14 0.500000 0.432863 0.170396
#
# Coordination Sequence:
#
# PCOD9473236 Si02
#       5
#    16  16  16  16  16
#     4   9  18  35  60  88 115 149 191 235 286 345
#     4  11  23  39  59  84 116 154 193 237 288 345
#     4  11  22  37  61  87 115 151 194 243 287 339
#     4  10  21  38  59  84 118 156 192 234 286 345
#     4  10  20  36  61  90 118 150 191 239 291 347
#
# _framework density 20.453619
#
# number of rings (size 3 to 8) (size 9 to 14) (size 15 to 20)
#    0.000    1.800    2.000    2.400    0.000    4.800 
#    0.000    2.000    0.000    2.400    0.000    0.000 
#    0.000    0.000    0.000    0.000    0.000    0.000 
#
# Total GULP energy -223539.269910 kJ/mol
# GULP energy per Si atom -5588.481748 kJ/mol
# Density = 2.040707 g / cm^3
# Si number density = 20.453619 Si / 1000 Ang^3
#
#
#
# Elastic Constant Matrix: (Units=GPa)
#
#
# Indices 1 2 3 4 5 6 
#
# 1 14.9245 -13.7082 -1.2908 0.0000 0.0000 0.0000
# 2 -13.7082 95.5447 7.0224 0.0000 0.0000 0.0000
# 3 -1.2908 7.0224 49.8288 0.0000 0.0000 0.0000
# 4 0.0000 0.0000 0.0000 26.2633 0.0000 0.0000
# 5 0.0000 0.0000 0.0000 0.0000 15.1500 0.0000
# 6 0.0000 0.0000 0.0000 0.0000 0.0000 -6.1031
#
#
#
# Elastic Compliance Matrix: (Units=1/GPa)
#
#
# Indices 1 2 3 4 5 6 
#
# 1 0.077184 0.011041 0.000443 0.000000 0.000000 0.000000
# 2 0.011041 0.012155 -0.001427 0.000000 0.000000 0.000000
# 3 0.000443 -0.001427 0.020281 0.000000 0.000000 0.000000
# 4 0.000000 0.000000 0.000000 0.038076 0.000000 0.000000
# 5 0.000000 0.000000 0.000000 0.000000 0.066007 0.000000
# 6 0.000000 0.000000 0.000000 0.000000 0.000000 -0.163851
#
#
# Mechanical properties :
#
#
# Convention : Reuss Voigt Hill
#
# Bulk Modulus (GPa) = 7.70795 16.03828 11.87311
# Shear Modulus (GPa) = 68.50962 18.28034 43.39498
#
# Velocity S-wave (km/s) = 5.79377 2.99280 4.61111
# Velocity P-wave (km/s) = 6.96662 4.44981 5.84528
#
# Compressibility (1/GPa) = 0.12973623
#
# Stress axis : x y z
#
# Youngs Moduli (GPa) = 12.95605 82.26834 49.30644
#
# Poissons Ratio (x) = -0.90835 -0.02186
# Poissons Ratio (y) = -0.14305 0.07036
# Poissons Ratio (z) = -0.00575 0.11740
#
# Static dielectric constant tensor:
#      x y z
#    x 1.735440 0.000000 0.000000 
#    y 0.000000 1.681830 0.000000 
#    z 0.000000 0.000000 1.719460 
# 
# From -- ./inp_files/40456.got.cif
#   From: 2010.05.17/outbox.cif.g08.bks.cpg/sg63_21_cif.got.tgz:40456.got - 2010.06.03 15:47:04.
