data_PCOD9473775
_publ_section_title
;
Structure prediction by ZEFSAII (Michael W. Deem and Ramdas Pophale) SiO2 
 PCOD9473775
Probable space group: C M C M
;
_chemical_formula_sum "Si O2"
_cell_formula_units_Z 80
_cell_length_a 22.679085
_cell_length_b 11.434790
_cell_length_c 16.486844
_cell_angle_alpha 90.000000
_cell_angle_beta 90.000000
_cell_angle_gamma 90.000000
_cell_volume 4275.542724
_symmetry_space_group_name_H-M "C M C M"
_symmetry_group_IT_number 63
_symmetry_cell_setting 'orthorhombic'
loop_
_space_group_symop_operation_xyz
x,y,z
-x,-y,1/2+z
x,-y,-z
-x,y,1/2-z
-x,-y,-z
x,y,1/2-z
-x,y,z
x,-y,1/2+z
1/2+x,1/2+y,z
1/2-x,1/2-y,1/2+z
1/2+x,1/2-y,-z
1/2-x,1/2+y,1/2-z
1/2-x,1/2-y,-z
1/2+x,1/2+y,1/2-z
1/2-x,1/2+y,z
1/2+x,1/2-y,1/2+z
loop_
_atom_site_type_symbol
_atom_site_label
_atom_site_fract_x
_atom_site_fract_y
_atom_site_fract_z
Si Si1 0.208110 0.765114 0.920082
Si Si2 0.500000 0.705869 0.524418
Si Si3 0.373055 0.510310 0.095719
Si Si4 0.614573 0.134041 0.484436
Si Si5 0.175410 0.761940 0.157745
Si Si6 0.500000 0.524320 0.122386
O O1 0.177411 0.890646 0.905962
O O2 0.253704 0.737636 0.849268
O O3 0.250000 0.750000 0.000000
O O4 0.154608 0.679052 0.940887
O O5 0.557050 0.786515 0.522992
O O6 0.500000 0.612729 0.597365
O O7 0.500000 0.622697 0.446868
O O8 0.347594 0.385874 0.123279
O O9 0.431337 0.538403 0.149666
O O10 0.391453 0.500000 0.000000
O O11 0.650760 0.161234 0.401879
O O12 0.600600 0.000000 0.500000
O O13 0.156314 0.746367 0.250000
#
# Coordination Sequence:
#
# PCOD9473775 Si02
#       6
#    16   8  16  16  16   8
#     4  10  21  34  58  84 116 163 202 243 293 355
#     4  11  17  34  60  95 114 148 205 259 293 350
#     4  12  18  37  64  88 120 159 202 251 305 355
#     4  11  22  37  60  89 121 161 202 242 300 364
#     4  11  25  40  59  91 124 157 203 253 305 361
#     4  11  16  32  62  91 123 151 195 265 304 336
#
# _framework density 18.711075000000001
#
# number of rings (size 3 to 8) (size 9 to 14) (size 15 to 20)
#    0.000    1.000   10.000    0.300    5.600    0.800 
#    0.000    2.000    0.000    0.000    0.000    2.100 
#    0.000    0.000    0.000    0.000    0.000    0.000 
#
# Total GULP energy -222726.951059 kJ/mol
# GULP energy per Si atom -5568.173776 kJ/mol
# Density = 1.866849 g / cm^3
# Si number density = 18.711075 Si / 1000 Ang^3
#
#
#
# Elastic Constant Matrix: (Units=GPa)
#
#
# Indices 1 2 3 4 5 6 
#
# 1 122.1015 34.5049 17.4448 0.0000 0.0000 0.0000
# 2 34.5049 113.7386 32.2894 0.0000 0.0000 0.0000
# 3 17.4448 32.2894 71.6829 0.0000 0.0000 0.0000
# 4 0.0000 0.0000 0.0000 8.5437 0.0000 0.0000
# 5 0.0000 0.0000 0.0000 0.0000 -5.8384 0.0000
# 6 0.0000 0.0000 0.0000 0.0000 0.0000 31.2323
#
#
#
# Elastic Compliance Matrix: (Units=1/GPa)
#
#
# Indices 1 2 3 4 5 6 
#
# 1 0.009034 -0.002427 -0.001105 0.000000 0.000000 0.000000
# 2 -0.002427 0.010733 -0.004244 0.000000 0.000000 0.000000
# 3 -0.001105 -0.004244 0.016131 0.000000 0.000000 0.000000
# 4 0.000000 0.000000 0.000000 0.117046 0.000000 0.000000
# 5 0.000000 0.000000 0.000000 0.000000 -0.171279 0.000000
# 6 0.000000 0.000000 0.000000 0.000000 0.000000 0.032018
#
#
# Mechanical properties :
#
#
# Convention : Reuss Voigt Hill
#
# Bulk Modulus (GPa) = 49.15104 52.88902 51.02003
# Shear Modulus (GPa) = 138.82447 21.67312 80.24879
#
# Velocity S-wave (km/s) = 8.62292 3.40708 6.55603
# Velocity P-wave (km/s) = 11.20112 6.61854 9.19974
#
# Compressibility (1/GPa) = 0.02034545
#
# Stress axis : x y z
#
# Youngs Moduli (GPa) = 110.69788 93.16914 61.99214
#
# Poissons Ratio (x) = 0.22610 0.06852
# Poissons Ratio (y) = 0.26863 0.26310
# Poissons Ratio (z) = 0.12235 0.39542
#
# Static dielectric constant tensor:
#      x y z
#    x 1.728220 0.000000 0.000000 
#    y 0.000000 1.620010 0.000000 
#    z 0.000000 0.000000 1.670040 
# 
# From -- ./inp_files/46832.got.cif
#   From: 2010.05.17/outbox.cif.g08.bks.cpg/sg63_24_cif.got.tgz:46832.got - 2010.06.03 15:47:04.
