data_PCOD9473757
_publ_section_title
;
Structure prediction by ZEFSAII (Michael W. Deem and Ramdas Pophale) SiO2 
 PCOD9473757
Probable space group: C M C M
;
_chemical_formula_sum "Si O2"
_cell_formula_units_Z 88
_cell_length_a 23.061337
_cell_length_b 13.426079
_cell_length_c 15.354756
_cell_angle_alpha 90.000000
_cell_angle_beta 90.000000
_cell_angle_gamma 90.000000
_cell_volume 4754.190721
_symmetry_space_group_name_H-M "C M C M"
_symmetry_group_IT_number 63
_symmetry_cell_setting 'orthorhombic'
loop_
_space_group_symop_operation_xyz
x,y,z
-x,-y,1/2+z
x,-y,-z
-x,y,1/2-z
-x,-y,-z
x,y,1/2-z
-x,y,z
x,-y,1/2+z
1/2+x,1/2+y,z
1/2-x,1/2-y,1/2+z
1/2+x,1/2-y,-z
1/2-x,1/2+y,1/2-z
1/2-x,1/2-y,-z
1/2+x,1/2+y,1/2-z
1/2-x,1/2+y,z
1/2+x,1/2-y,1/2+z
loop_
_atom_site_type_symbol
_atom_site_label
_atom_site_fract_x
_atom_site_fract_y
_atom_site_fract_z
Si Si1 0.326853 0.726440 0.571515
Si Si2 0.265507 0.595994 0.057409
Si Si3 0.720539 0.722852 0.750000
Si Si4 0.839958 0.360906 0.250000
Si Si5 0.065818 0.641602 0.417150
Si Si6 0.433290 0.080542 0.619706
Si Si7 0.261604 0.940800 0.750000
O O1 0.318544 0.652216 0.490645
O O2 0.286815 0.823749 0.553186
O O3 0.301207 0.677710 0.659729
O O4 0.389816 0.768853 0.592498
O O5 0.272336 0.565739 0.158254
O O6 0.250295 0.500000 0.000000
O O7 0.790324 0.721825 0.750000
O O8 0.701243 0.838232 0.750000
O O9 0.883331 0.360371 0.331154
O O10 0.802050 0.462374 0.250000
O O11 0.080340 0.537267 0.369763
O O12 0.067403 0.610471 0.518876
O O13 0.000000 0.668109 0.393833
O O14 0.500000 0.096038 0.649332
#
# Coordination Sequence:
#
# PCOD9473757 Si02
#       7
#    16  16   8   8  16  16   8
#     4  10  21  34  55  74 109 144 184 225 279 338
#     4  10  21  34  52  77 106 145 179 224 280 327
#     4  10  22  35  46  83 105 138 190 227 257 333
#     4  12  21  32  54  71 113 149 169 226 273 319
#     4   9  19  34  52  76 105 139 182 224 263 327
#     4   9  19  32  50  77 106 141 180 213 265 333
#     4  10  22  33  45  78 106 133 189 219 252 336
#
# _framework density 18.509985
#
# number of rings (size 3 to 8) (size 9 to 14) (size 15 to 20)
#    0.000    2.182    0.000    4.636   12.727    0.000 
#    0.000    1.364    0.000    0.545    0.000    0.000 
#    0.000    0.000    0.000    0.000    0.000    0.000 
#
# Total GULP energy -245356.196743 kJ/mol
# GULP energy per Si atom -5576.277199 kJ/mol
# Density = 1.846786 g / cm^3
# Si number density = 18.509985 Si / 1000 Ang^3
#
#
#
# Elastic Constant Matrix: (Units=GPa)
#
#
# Indices 1 2 3 4 5 6 
#
# 1 76.6506 11.1153 22.0937 0.0000 0.0000 0.0000
# 2 11.1153 49.5334 22.8744 0.0000 0.0000 0.0000
# 3 22.0937 22.8744 105.8725 0.0000 0.0000 0.0000
# 4 0.0000 0.0000 0.0000 13.4961 0.0000 0.0000
# 5 0.0000 0.0000 0.0000 0.0000 19.6454 0.0000
# 6 0.0000 0.0000 0.0000 0.0000 0.0000 35.2453
#
#
#
# Elastic Compliance Matrix: (Units=1/GPa)
#
#
# Indices 1 2 3 4 5 6 
#
# 1 0.014057 -0.001999 -0.002502 0.000000 0.000000 0.000000
# 2 -0.001999 0.022710 -0.004489 0.000000 0.000000 0.000000
# 3 -0.002502 -0.004489 0.010937 0.000000 0.000000 0.000000
# 4 0.000000 0.000000 0.000000 0.074095 0.000000 0.000000
# 5 0.000000 0.000000 0.000000 0.000000 0.050903 0.000000
# 6 0.000000 0.000000 0.000000 0.000000 0.000000 0.028373
#
#
# Mechanical properties :
#
#
# Convention : Reuss Voigt Hill
#
# Bulk Modulus (GPa) = 33.64257 38.24705 35.94481
# Shear Modulus (GPa) = 21.83750 25.40890 23.62320
#
# Velocity S-wave (km/s) = 3.43850 3.70903 3.57633
# Velocity P-wave (km/s) = 5.82917 6.24903 6.04275
#
# Compressibility (1/GPa) = 0.02972424
#
# Stress axis : x y z
#
# Youngs Moduli (GPa) = 71.13806 44.03299 91.43003
#
# Poissons Ratio (x) = 0.08803 0.22872
# Poissons Ratio (y) = 0.14222 0.41047
# Poissons Ratio (z) = 0.17795 0.19768
#
# Static dielectric constant tensor:
#      x y z
#    x 1.638260 0.000000 0.000000 
#    y 0.000000 1.649480 0.000000 
#    z 0.000000 0.000000 1.715860 
# 
# From -- ./inp_files/35266.got.cif
#   From: 2010.05.17/outbox.cif.g08.bks.cpg/sg63_18_cif.got.tgz:35266.got - 2010.06.03 15:47:04.
