data_PCOD9473678
_publ_section_title
;
Structure prediction by ZEFSAII (Michael W. Deem and Ramdas Pophale) SiO2 
 PCOD9473678
Probable space group: C M C M
;
_chemical_formula_sum "Si O2"
_cell_formula_units_Z 68
_cell_length_a 21.289607
_cell_length_b 9.544605
_cell_length_c 15.811700
_cell_angle_alpha 90.000000
_cell_angle_beta 90.000000
_cell_angle_gamma 90.000000
_cell_volume 3212.951503
_symmetry_space_group_name_H-M "C M C M"
_symmetry_group_IT_number 63
_symmetry_cell_setting 'orthorhombic'
loop_
_space_group_symop_operation_xyz
x,y,z
-x,-y,1/2+z
x,-y,-z
-x,y,1/2-z
-x,-y,-z
x,y,1/2-z
-x,y,z
x,-y,1/2+z
1/2+x,1/2+y,z
1/2-x,1/2-y,1/2+z
1/2+x,1/2-y,-z
1/2-x,1/2+y,1/2-z
1/2-x,1/2-y,-z
1/2+x,1/2+y,1/2-z
1/2-x,1/2+y,z
1/2+x,1/2-y,1/2+z
loop_
_atom_site_type_symbol
_atom_site_label
_atom_site_fract_x
_atom_site_fract_y
_atom_site_fract_z
Si Si1 0.217392 0.708430 0.087335
Si Si2 0.904162 0.488168 0.905133
Si Si3 0.427381 0.290867 0.852692
Si Si4 0.824920 0.990708 0.651864
Si Si5 0.500000 0.922838 0.750000
O O1 0.157629 0.605847 0.083589
O O2 0.194902 0.857697 0.121301
O O3 0.269766 0.622124 0.138599
O O4 0.250000 0.750000 0.000000
O O5 0.892291 0.649434 0.879391
O O6 0.945948 0.431076 0.826797
O O7 0.932340 0.500000 0.000000
O O8 0.429214 0.291402 0.750000
O O9 0.500000 0.285420 0.880746
O O10 0.388298 0.422890 0.886053
O O11 0.837741 0.005608 0.750000
#
# Coordination Sequence:
#
# PCOD9473678 Si02
#       5
#    16  16  16  16   4
#     4  12  26  46  68 102 142 186 244 309 367 439
#     4  12  24  44  75 106 145 193 240 302 368 441
#     4  10  20  41  66 102 146 191 238 293 359 443
#     4  11  24  40  68 100 135 185 243 298 367 434
#     4  12  26  44  72 112 152 184 256 294 376 450
#
# _framework density 21.164341
#
# number of rings (size 3 to 8) (size 9 to 14) (size 15 to 20)
#    0.000    0.706    2.353    6.000    3.294    1.882 
#    2.118    0.000    0.000    2.824    0.000    0.000 
#    0.000    0.000    0.000    0.000    0.000    0.000 
#
# Total GULP energy -189294.669316 kJ/mol
# GULP energy per Si atom -5567.490274 kJ/mol
# Density = 2.111617 g / cm^3
# Si number density = 21.164341 Si / 1000 Ang^3
#
#
#
# Elastic Constant Matrix: (Units=GPa)
#
#
# Indices 1 2 3 4 5 6 
#
# 1 130.4454 87.4611 42.2598 0.0000 0.0000 0.0000
# 2 87.4611 172.1647 19.0118 0.0000 0.0000 0.0000
# 3 42.2598 19.0118 100.0291 0.0000 0.0000 0.0000
# 4 0.0000 0.0000 0.0000 31.5078 0.0000 0.0000
# 5 0.0000 0.0000 0.0000 0.0000 30.2623 0.0000
# 6 0.0000 0.0000 0.0000 0.0000 0.0000 -18.7547
#
#
#
# Elastic Compliance Matrix: (Units=1/GPa)
#
#
# Indices 1 2 3 4 5 6 
#
# 1 0.013305 -0.006270 -0.004429 0.000000 0.000000 0.000000
# 2 -0.006270 0.008888 0.000960 0.000000 0.000000 0.000000
# 3 -0.004429 0.000960 0.011686 0.000000 0.000000 0.000000
# 4 0.000000 0.000000 0.000000 0.031738 0.000000 0.000000
# 5 0.000000 0.000000 0.000000 0.000000 0.033044 0.000000
# 6 0.000000 0.000000 0.000000 0.000000 0.000000 -0.053320
#
#
# Mechanical properties :
#
#
# Convention : Reuss Voigt Hill
#
# Bulk Modulus (GPa) = 69.44742 77.78940 73.61841
# Shear Modulus (GPa) = 71.81878 25.53016 48.67447
#
# Velocity S-wave (km/s) = 5.83160 3.47693 4.80086
# Velocity P-wave (km/s) = 8.84466 7.27691 8.09881
#
# Compressibility (1/GPa) = 0.01439938
#
# Stress axis : x y z
#
# Youngs Moduli (GPa) = 75.16099 112.51710 85.57275
#
# Poissons Ratio (x) = 0.70546 0.37903
# Poissons Ratio (y) = 0.47125 -0.08212
# Poissons Ratio (z) = 0.33291 -0.10798
#
# Static dielectric constant tensor:
#      x y z
#    x 1.860840 0.000000 0.000000 
#    y 0.000000 1.722260 0.000000 
#    z 0.000000 0.000000 1.776650 
# 
# From -- ./inp_files/46615.got.cif
#   From: 2010.05.17/outbox.cif.g08.bks.cpg/sg63_24_cif.got.tgz:46615.got - 2010.06.03 15:47:04.
