data_PCOD9473261
_publ_section_title
;
Structure prediction by ZEFSAII (Michael W. Deem and Ramdas Pophale) SiO2 
 PCOD9473261
Probable space group: C M C M
;
_chemical_formula_sum "Si O2"
_cell_formula_units_Z 112
_cell_length_a 12.814247
_cell_length_b 14.406164
_cell_length_c 27.131846
_cell_angle_alpha 90.000000
_cell_angle_beta 90.000000
_cell_angle_gamma 90.000000
_cell_volume 5008.651201
_symmetry_space_group_name_H-M "C M C M"
_symmetry_group_IT_number 63
_symmetry_cell_setting 'orthorhombic'
loop_
_space_group_symop_operation_xyz
x,y,z
-x,-y,1/2+z
x,-y,-z
-x,y,1/2-z
-x,-y,-z
x,y,1/2-z
-x,y,z
x,-y,1/2+z
1/2+x,1/2+y,z
1/2-x,1/2-y,1/2+z
1/2+x,1/2-y,-z
1/2-x,1/2+y,1/2-z
1/2-x,1/2-y,-z
1/2+x,1/2+y,1/2-z
1/2-x,1/2+y,z
1/2+x,1/2-y,1/2+z
loop_
_atom_site_type_symbol
_atom_site_label
_atom_site_fract_x
_atom_site_fract_y
_atom_site_fract_z
Si Si1 0.812287 0.890362 0.598283
Si Si2 0.383495 0.084560 0.029741
Si Si3 0.167476 0.817839 0.192178
Si Si4 0.308587 0.209322 0.952834
Si Si5 0.885629 0.095301 0.593029
Si Si6 0.802010 0.392481 0.691981
Si Si7 0.112329 0.405957 0.190865
O O1 0.695484 0.890507 0.573502
O O2 0.854398 0.792450 0.579431
O O3 0.797527 0.890955 0.656740
O O4 0.868415 0.985761 0.584052
O O5 0.500000 0.064227 0.048390
O O6 0.392517 0.151971 0.982871
O O7 0.332468 0.000000 0.000000
O O8 0.147532 0.840120 0.250000
O O9 0.112643 0.880315 0.151298
O O10 0.144378 0.708287 0.184941
O O11 0.289957 0.839460 0.181456
O O12 0.216996 0.149797 0.926344
O O13 0.250000 0.250000 0.000000
O O14 0.000000 0.123979 0.572509
O O15 0.777843 0.399145 0.750000
O O16 0.862528 0.486799 0.677514
O O17 0.104541 0.406512 0.250000
O O18 0.000000 0.378387 0.169688
#
# Coordination Sequence:
#
# PCOD9473261 Si02
#       7
#    16  16  16  16  16  16  16
#     4  11  22  41  66  94 134 168 212 263 323 385
#     4  10  21  40  67  94 121 157 205 259 325 387
#     4  10  21  40  62  91 134 175 215 270 321 370
#     4  10  23  43  64  90 126 162 204 265 325 382
#     4  12  25  42  65  96 130 174 221 262 315 387
#     4  10  20  36  62  93 133 173 211 263 319 372
#     4   9  18  34  59  88 118 160 212 260 311 366
#
# _framework density 22.361311000000001
#
# number of rings (size 3 to 8) (size 9 to 14) (size 15 to 20)
#    0.000    1.714    4.286    0.000    0.000    4.286 
#    0.000    7.857    0.000    0.857    0.000    0.000 
#    0.000    0.000    0.000    0.000    0.000    0.000 
#
# Total GULP energy -311885.368228 kJ/mol
# GULP energy per Si atom -5569.381576 kJ/mol
# Density = 2.231042 g / cm^3
# Si number density = 22.361311 Si / 1000 Ang^3
#
#
#
# Elastic Constant Matrix: (Units=GPa)
#
#
# Indices 1 2 3 4 5 6 
#
# 1 69.3518 6.5146 11.3877 0.0000 0.0000 0.0000
# 2 6.5146 79.3857 11.0505 0.0000 0.0000 0.0000
# 3 11.3877 11.0505 63.1233 0.0000 0.0000 0.0000
# 4 0.0000 0.0000 0.0000 32.3314 0.0000 0.0000
# 5 0.0000 0.0000 0.0000 0.0000 20.0952 0.0000
# 6 0.0000 0.0000 0.0000 0.0000 0.0000 41.8713
#
#
#
# Elastic Compliance Matrix: (Units=1/GPa)
#
#
# Indices 1 2 3 4 5 6 
#
# 1 0.014918 -0.000871 -0.002539 0.000000 0.000000 0.000000
# 2 -0.000871 0.012962 -0.002112 0.000000 0.000000 0.000000
# 3 -0.002539 -0.002112 0.016670 0.000000 0.000000 0.000000
# 4 0.000000 0.000000 0.000000 0.030930 0.000000 0.000000
# 5 0.000000 0.000000 0.000000 0.000000 0.049763 0.000000
# 6 0.000000 0.000000 0.000000 0.000000 0.000000 0.023883
#
#
# Mechanical properties :
#
#
# Convention : Reuss Voigt Hill
#
# Bulk Modulus (GPa) = 29.84498 29.97404 29.90951
# Shear Modulus (GPa) = 29.18214 31.05343 30.11779
#
# Velocity S-wave (km/s) = 3.61644 3.73059 3.67395
# Velocity P-wave (km/s) = 5.55102 5.65596 5.60374
#
# Compressibility (1/GPa) = 0.03350648
#
# Stress axis : x y z
#
# Youngs Moduli (GPa) = 67.03346 77.14748 59.98882
#
# Poissons Ratio (x) = 0.06718 0.15230
# Poissons Ratio (y) = 0.05837 0.12670
# Poissons Ratio (z) = 0.17019 0.16294
#
# Static dielectric constant tensor:
#      x y z
#    x 1.793380 0.000000 0.000000 
#    y 0.000000 1.926460 0.000000 
#    z 0.000000 0.000000 1.843110 
# 
# From -- ./inp_files/72840.got.cif
#   From: 2010.05.17/outbox.cif.g08.bks.cpg/sg63_37_cif.got.tgz:72840.got - 2010.06.03 15:47:04.
