data_PCOD9473378
_publ_section_title
;
Structure prediction by ZEFSAII (Michael W. Deem and Ramdas Pophale) SiO2 
 PCOD9473378
Probable space group: C M C M
;
_chemical_formula_sum "Si O2"
_cell_formula_units_Z 104
_cell_length_a 20.354402
_cell_length_b 29.039775
_cell_length_c 7.959047
_cell_angle_alpha 90.000000
_cell_angle_beta 90.000000
_cell_angle_gamma 90.000000
_cell_volume 4704.491238
_symmetry_space_group_name_H-M "C M C M"
_symmetry_group_IT_number 63
_symmetry_cell_setting 'orthorhombic'
loop_
_space_group_symop_operation_xyz
x,y,z
-x,-y,1/2+z
x,-y,-z
-x,y,1/2-z
-x,-y,-z
x,y,1/2-z
-x,y,z
x,-y,1/2+z
1/2+x,1/2+y,z
1/2-x,1/2-y,1/2+z
1/2+x,1/2-y,-z
1/2-x,1/2+y,1/2-z
1/2-x,1/2-y,-z
1/2+x,1/2+y,1/2-z
1/2-x,1/2+y,z
1/2+x,1/2-y,1/2+z
loop_
_atom_site_type_symbol
_atom_site_label
_atom_site_fract_x
_atom_site_fract_y
_atom_site_fract_z
Si Si1 0.577723 0.669537 0.939415
Si Si2 0.929017 0.446349 0.047837
Si Si3 0.319106 0.500000 0.500000
Si Si4 0.217501 0.573075 0.552569
Si Si5 0.764941 0.326365 0.945228
Si Si6 0.157398 0.248075 0.446663
Si Si7 0.078212 0.069559 0.053495
O O1 0.603997 0.668896 0.750000
O O2 0.500000 0.664990 0.931258
O O3 0.592975 0.718355 0.022973
O O4 0.598893 0.622946 0.033353
O O5 0.928918 0.441712 0.250000
O O6 0.858194 0.428123 0.991021
O O7 0.000000 0.427307 0.986943
O O8 0.928764 0.500000 0.000000
O O9 0.264780 0.538946 0.448934
O O10 0.374587 0.462455 0.442250
O O11 0.221436 0.558123 0.750000
O O12 0.237600 0.626023 0.540466
O O13 0.752648 0.335686 0.750000
O O14 0.710980 0.289748 0.007270
O O15 0.831722 0.296752 0.965167
O O16 0.167543 0.256045 0.250000
O O17 0.087956 0.056652 0.250000
O O18 0.000000 0.064471 0.015183
#
# Coordination Sequence:
#
# PCOD9473378 Si02
#       7
#    16  16   8  16  16  16  16
#     4  10  21  37  59  87 118 152 192 237 286 344
#     4   9  18  35  57  79 105 141 182 222 269 328
#     4  12  23  36  57  86 114 154 200 256 299 348
#     4  11  23  37  55  84 116 149 190 241 293 346
#     4  10  22  38  58  83 114 148 185 233 287 346
#     4  10  20  37  61  86 111 146 188 230 284 345
#     4  10  22  39  57  80 115 159 204 247 294 349
#
# _framework density 22.106534
#
# number of rings (size 3 to 8) (size 9 to 14) (size 15 to 20)
#    0.000    1.846    0.769    3.000    0.000    8.308 
#    0.000    2.308    0.000    2.769    0.000    0.000 
#    0.000    0.000    0.000    0.000    0.000    0.000 
#
# Total GULP energy -289510.625919 kJ/mol
# GULP energy per Si atom -5567.512037 kJ/mol
# Density = 2.205622 g / cm^3
# Si number density = 22.106534 Si / 1000 Ang^3
#
#
#
# Elastic Constant Matrix: (Units=GPa)
#
#
# Indices 1 2 3 4 5 6 
#
# 1 111.1492 25.8740 21.7707 0.0000 0.0000 0.0000
# 2 25.8740 104.5060 16.2866 0.0000 0.0000 0.0000
# 3 21.7707 16.2866 55.0155 0.0000 0.0000 0.0000
# 4 0.0000 0.0000 0.0000 10.4363 0.0000 0.0000
# 5 0.0000 0.0000 0.0000 0.0000 6.4166 0.0000
# 6 0.0000 0.0000 0.0000 0.0000 0.0000 29.5551
#
#
#
# Elastic Compliance Matrix: (Units=1/GPa)
#
#
# Indices 1 2 3 4 5 6 
#
# 1 0.010127 -0.001974 -0.003423 0.000000 0.000000 0.000000
# 2 -0.001974 0.010416 -0.002303 0.000000 0.000000 0.000000
# 3 -0.003423 -0.002303 0.020213 0.000000 0.000000 0.000000
# 4 0.000000 0.000000 0.000000 0.095819 0.000000 0.000000
# 5 0.000000 0.000000 0.000000 0.000000 0.155846 0.000000
# 6 0.000000 0.000000 0.000000 0.000000 0.000000 0.033835
#
#
# Mechanical properties :
#
#
# Convention : Reuss Voigt Hill
#
# Bulk Modulus (GPa) = 39.43642 44.28150 41.85896
# Shear Modulus (GPa) = 14.28131 23.06423 18.67277
#
# Velocity S-wave (km/s) = 2.54445 3.23355 2.90948
# Velocity P-wave (km/s) = 5.14882 5.83229 5.50118
#
# Compressibility (1/GPa) = 0.02535727
#
# Stress axis : x y z
#
# Youngs Moduli (GPa) = 98.74727 96.00301 49.47336
#
# Poissons Ratio (x) = 0.18949 0.16935
# Poissons Ratio (y) = 0.19491 0.11391
# Poissons Ratio (z) = 0.33802 0.22105
#
# Static dielectric constant tensor:
#      x y z
#    x 1.940090 0.000000 0.000000 
#    y 0.000000 1.820950 0.000000 
#    z 0.000000 0.000000 1.906790 
# 
# From -- ./inp_files/8809.got.cif
#   From: 2010.05.17/outbox.cif.g08.bks.cpg/sg63_5_cif.got.tgz:8809.got - 2010.06.03 15:47:04.
