data_PCOD9473894
_publ_section_title
;
Structure prediction by ZEFSAII (Michael W. Deem and Ramdas Pophale) SiO2 
 PCOD9473894
Probable space group: C M C M
;
_chemical_formula_sum "Si O2"
_cell_formula_units_Z 116
_cell_length_a 7.416408
_cell_length_b 30.346533
_cell_length_c 24.038236
_cell_angle_alpha 90.000000
_cell_angle_beta 90.000000
_cell_angle_gamma 90.000000
_cell_volume 5410.099964
_symmetry_space_group_name_H-M "C M C M"
_symmetry_group_IT_number 63
_symmetry_cell_setting 'orthorhombic'
loop_
_space_group_symop_operation_xyz
x,y,z
-x,-y,1/2+z
x,-y,-z
-x,y,1/2-z
-x,-y,-z
x,y,1/2-z
-x,y,z
x,-y,1/2+z
1/2+x,1/2+y,z
1/2-x,1/2-y,1/2+z
1/2+x,1/2-y,-z
1/2-x,1/2+y,1/2-z
1/2-x,1/2-y,-z
1/2+x,1/2+y,1/2-z
1/2-x,1/2+y,z
1/2+x,1/2-y,1/2+z
loop_
_atom_site_type_symbol
_atom_site_label
_atom_site_fract_x
_atom_site_fract_y
_atom_site_fract_z
Si Si1 0.208758 0.194332 0.148896
Si Si2 0.213883 0.299987 0.519608
Si Si3 0.719078 0.949686 0.063783
Si Si4 0.720531 0.789477 0.313061
Si Si5 0.292471 0.598722 0.169332
Si Si6 0.717837 0.952950 0.934955
Si Si7 0.720613 0.146093 0.588137
Si Si8 0.000000 0.436227 0.750000
O O1 0.214727 0.193557 0.081815
O O2 0.284581 0.240445 0.170562
O O3 0.281748 0.148690 0.173150
O O4 0.000000 0.194280 0.165829
O O5 0.250000 0.250000 0.500000
O O6 0.279158 0.332328 0.470545
O O7 0.000000 0.306423 0.523806
O O8 0.500000 0.950139 0.065439
O O9 0.778014 0.904703 0.092687
O O10 0.775985 0.997980 0.084149
O O11 0.771311 0.946958 0.998915
O O12 0.773266 0.800374 0.250000
O O13 0.500000 0.789086 0.314748
O O14 0.778581 0.823785 0.360295
O O15 0.500000 0.597003 0.187760
O O16 0.289012 0.584265 0.105244
O O17 0.158544 0.567388 0.202152
O O18 0.500000 0.951144 0.934029
O O19 0.500000 0.146832 0.587422
#
# Coordination Sequence:
#
# PCOD9473894 Si02
#       8
#    16  16  16  16  16  16  16   4
#     4  10  21  36  53  80 111 145 189 237 290 351
#     4  11  20  31  51  78 112 150 187 235 297 355
#     4   8  15  27  54  84 115 155 191 238 300 359
#     4   9  17  30  48  68 102 145 186 233 284 331
#     4  11  24  40  62  88 120 156 198 251 301 357
#     4   9  16  33  56  85 119 154 189 239 302 365
#     4   9  16  28  47  76 107 142 188 238 283 344
#     4  12  26  44  64  84 120 156 210 244 302 364
#
# _framework density 21.441376000000002
#
# number of rings (size 3 to 8) (size 9 to 14) (size 15 to 20)
#    0.000    2.345    2.069    2.276    1.931    1.103 
#    0.000    1.379    1.517    1.655    0.000    0.000 
#    0.000    0.000    0.000    0.000    0.000    0.000 
#
# Total GULP energy -323380.502589 kJ/mol
# GULP energy per Si atom -5575.525907 kJ/mol
# Density = 2.139257 g / cm^3
# Si number density = 21.441376 Si / 1000 Ang^3
#
#
#
# Elastic Constant Matrix: (Units=GPa)
#
#
# Indices 1 2 3 4 5 6 
#
# 1 86.3439 1.8972 -2.0564 0.0000 0.0000 0.0000
# 2 1.8972 106.8890 12.0049 0.0000 0.0000 0.0000
# 3 -2.0564 12.0049 58.8883 0.0000 0.0000 0.0000
# 4 0.0000 0.0000 0.0000 -15.3974 0.0000 0.0000
# 5 0.0000 0.0000 0.0000 0.0000 -3.8546 0.0000
# 6 0.0000 0.0000 0.0000 0.0000 0.0000 -5.0907
#
#
#
# Elastic Compliance Matrix: (Units=1/GPa)
#
#
# Indices 1 2 3 4 5 6 
#
# 1 0.011598 -0.000257 0.000457 0.000000 0.000000 0.000000
# 2 -0.000257 0.009580 -0.001962 0.000000 0.000000 0.000000
# 3 0.000457 -0.001962 0.017397 0.000000 0.000000 0.000000
# 4 0.000000 0.000000 0.000000 -0.064946 0.000000 0.000000
# 5 0.000000 0.000000 0.000000 0.000000 -0.259433 0.000000
# 6 0.000000 0.000000 0.000000 0.000000 0.000000 -0.196436
#
#
# Mechanical properties :
#
#
# Convention : Reuss Voigt Hill
#
# Bulk Modulus (GPa) = 28.52889 30.64584 29.58736
# Shear Modulus (GPa) = -10.70593 11.14982 0.22195
#
# Velocity S-wave (km/s) = -2.23695 2.28286 0.32208
# Velocity P-wave (km/s) = 2.58118 4.61221 3.73731
#
# Compressibility (1/GPa) = 0.03505219
#
# Stress axis : x y z
#
# Youngs Moduli (GPa) = 86.22072 104.37950 57.48030
#
# Poissons Ratio (x) = 0.02685 -0.02629
# Poissons Ratio (y) = 0.02218 0.11278
# Poissons Ratio (z) = -0.03944 0.20480
#
# Static dielectric constant tensor:
#      x y z
#    x 1.831250 0.000000 0.000000 
#    y 0.000000 1.785400 0.000000 
#    z 0.000000 0.000000 1.861420 
# 
# From -- ./inp_files/60605.got.cif
#   From: 2010.05.17/outbox.cif.g08.bks.cpg/sg63_31_cif.got.tgz:60605.got - 2010.06.03 15:47:04.
