data_PCOD9473219
_publ_section_title
;
Structure prediction by ZEFSAII (Michael W. Deem and Ramdas Pophale) SiO2 
 PCOD9473219
Probable space group: C M C M
;
_chemical_formula_sum "Si O2"
_cell_formula_units_Z 64
_cell_length_a 7.670548
_cell_length_b 24.399963
_cell_length_c 17.963282
_cell_angle_alpha 90.000000
_cell_angle_beta 90.000000
_cell_angle_gamma 90.000000
_cell_volume 3362.027392
_symmetry_space_group_name_H-M "C M C M"
_symmetry_group_IT_number 63
_symmetry_cell_setting 'orthorhombic'
loop_
_space_group_symop_operation_xyz
x,y,z
-x,-y,1/2+z
x,-y,-z
-x,y,1/2-z
-x,-y,-z
x,y,1/2-z
-x,y,z
x,-y,1/2+z
1/2+x,1/2+y,z
1/2-x,1/2-y,1/2+z
1/2+x,1/2-y,-z
1/2-x,1/2+y,1/2-z
1/2-x,1/2-y,-z
1/2+x,1/2+y,1/2-z
1/2-x,1/2+y,z
1/2+x,1/2-y,1/2+z
loop_
_atom_site_type_symbol
_atom_site_label
_atom_site_fract_x
_atom_site_fract_y
_atom_site_fract_z
Si Si1 0.802492 0.861440 0.917523
Si Si2 0.500000 0.928514 0.661270
Si Si3 0.210658 0.748758 0.164035
Si Si4 0.500000 0.942055 0.161204
Si Si5 0.293159 0.633721 0.594103
O O1 0.666983 0.899450 0.874664
O O2 0.785005 0.800160 0.885348
O O3 0.000000 0.880744 0.906162
O O4 0.766115 0.861472 0.005587
O O5 0.500000 0.919653 0.750000
O O6 0.500000 0.993203 0.645954
O O7 0.265540 0.743561 0.250000
O O8 0.254957 0.808441 0.132193
O O9 0.000000 0.743947 0.161586
O O10 0.500000 0.934061 0.250000
O O11 0.330004 0.913013 0.126942
O O12 0.500000 0.623974 0.607590
#
# Coordination Sequence:
#
# PCOD9473219 Si02
#       5
#    16   8  16   8  16
#     4  11  23  39  63  92 124 165 207 252 311 373
#     4  11  25  45  63  89 127 163 210 265 310 363
#     4  10  20  36  60  90 128 164 200 253 311 367
#     4  11  25  43  67  91 119 167 214 255 312 375
#     4  10  23  41  62  92 127 161 204 258 311 368
#
# _framework density 19.036133
#
# number of rings (size 3 to 8) (size 9 to 14) (size 15 to 20)
#    0.000    1.500    1.250    3.000    1.750    6.500 
#    0.000    5.000    0.000    0.000    0.000    0.000 
#    0.000    0.000    0.000    0.000    0.000    0.000 
#
# Total GULP energy -178975.068142 kJ/mol
# GULP energy per Si atom -5592.970879 kJ/mol
# Density = 1.899281 g / cm^3
# Si number density = 19.036133 Si / 1000 Ang^3
#
#
#
# Elastic Constant Matrix: (Units=GPa)
#
#
# Indices 1 2 3 4 5 6 
#
# 1 76.0599 44.1211 38.4578 0.0000 0.0000 0.0000
# 2 44.1211 80.6118 28.0194 0.0000 0.0000 0.0000
# 3 38.4578 28.0194 55.5842 0.0000 0.0000 0.0000
# 4 0.0000 0.0000 0.0000 147.0161 0.0000 0.0000
# 5 0.0000 0.0000 0.0000 0.0000 16.8555 0.0000
# 6 0.0000 0.0000 0.0000 0.0000 0.0000 0.1384
#
#
#
# Elastic Compliance Matrix: (Units=1/GPa)
#
#
# Indices 1 2 3 4 5 6 
#
# 1 0.024845 -0.009243 -0.012531 0.000000 0.000000 0.000000
# 2 -0.009243 0.018479 -0.002920 0.000000 0.000000 0.000000
# 3 -0.012531 -0.002920 0.028132 0.000000 0.000000 0.000000
# 4 0.000000 0.000000 0.000000 0.006802 0.000000 0.000000
# 5 0.000000 0.000000 0.000000 0.000000 0.059328 0.000000
# 6 0.000000 0.000000 0.000000 0.000000 0.000000 7.225617
#
#
# Mechanical properties :
#
#
# Convention : Reuss Voigt Hill
#
# Bulk Modulus (GPa) = 45.31182 48.16138 46.73660
# Shear Modulus (GPa) = 0.67386 39.57916 20.12651
#
# Velocity S-wave (km/s) = 0.59562 4.56473 3.25511
# Velocity P-wave (km/s) = 4.93232 7.28953 6.22354
#
# Compressibility (1/GPa) = 0.02206930
#
# Stress axis : x y z
#
# Youngs Moduli (GPa) = 40.24956 54.11540 35.54620
#
# Poissons Ratio (x) = 0.50019 0.44541
# Poissons Ratio (y) = 0.37202 0.10380
# Poissons Ratio (z) = 0.50435 0.15802
#
# Static dielectric constant tensor:
#      x y z
#    x 1.673170 0.000000 0.000000 
#    y 0.000000 1.617400 0.000000 
#    z 0.000000 0.000000 1.634520 
# 
# From -- ./inp_files/27531.got.cif
#   From: 2010.05.17/outbox.cif.g08.bks.cpg/sg63_14_cif.got.tgz:27531.got - 2010.06.03 15:47:04.
