data_PCOD9473113
_publ_section_title
;
Structure prediction by ZEFSAII (Michael W. Deem and Ramdas Pophale) SiO2 
 PCOD9473113
Probable space group: C M C M
;
_chemical_formula_sum "Si O2"
_cell_formula_units_Z 104
_cell_length_a 22.136017
_cell_length_b 27.840794
_cell_length_c 9.254105
_cell_angle_alpha 90.000000
_cell_angle_beta 90.000000
_cell_angle_gamma 90.000000
_cell_volume 5703.159523
_symmetry_space_group_name_H-M "C M C M"
_symmetry_group_IT_number 63
_symmetry_cell_setting 'orthorhombic'
loop_
_space_group_symop_operation_xyz
x,y,z
-x,-y,1/2+z
x,-y,-z
-x,y,1/2-z
-x,-y,-z
x,y,1/2-z
-x,y,z
x,-y,1/2+z
1/2+x,1/2+y,z
1/2-x,1/2-y,1/2+z
1/2+x,1/2-y,-z
1/2-x,1/2+y,1/2-z
1/2-x,1/2-y,-z
1/2+x,1/2+y,1/2-z
1/2-x,1/2+y,z
1/2+x,1/2-y,1/2+z
loop_
_atom_site_type_symbol
_atom_site_label
_atom_site_fract_x
_atom_site_fract_y
_atom_site_fract_z
Si Si1 0.399754 0.602642 0.913731
Si Si2 0.000000 0.049646 0.418078
Si Si3 0.773345 0.949459 0.079103
Si Si4 0.821454 0.627559 0.575869
Si Si5 0.883476 0.789763 0.415143
Si Si6 0.733409 0.298603 0.919865
Si Si7 0.429523 0.181120 0.078134
O O1 0.411877 0.584569 0.750000
O O2 0.329643 0.587728 0.944056
O O3 0.416852 0.659162 0.910726
O O4 0.441117 0.577783 0.030174
O O5 0.000000 0.042103 0.250000
O O6 0.000000 0.000000 0.500000
O O7 0.772440 0.958567 0.250000
O O8 0.708906 0.924258 0.042263
O O9 0.782876 0.000000 0.000000
O O10 0.822030 0.632995 0.750000
O O11 0.773243 0.662463 0.500895
O O12 0.884982 0.645998 0.510243
O O13 0.856756 0.785714 0.250000
O O14 0.836493 0.801288 0.541451
O O15 0.913992 0.738123 0.443544
O O16 0.745153 0.298763 0.750000
O O17 0.750000 0.250000 0.000000
O O18 0.420912 0.172470 0.250000
O O19 0.500000 0.173679 0.042935
#
# Coordination Sequence:
#
# PCOD9473113 Si02
#       7
#    16   8  16  16  16  16  16
#     4  10  21  39  61  85 117 157 195 242 299 352
#     4  12  26  42  58  80 110 154 210 258 297 348
#     4  10  22  39  61  89 117 147 191 244 302 362
#     4  11  22  39  60  86 118 155 197 244 298 358
#     4  10  20  36  58  84 117 154 192 232 283 345
#     4  12  22  33  54  84 117 153 190 233 282 338
#     4  10  22  38  59  88 120 160 202 240 288 354
#
# _framework density 18.235506000000001
#
# number of rings (size 3 to 8) (size 9 to 14) (size 15 to 20)
#    0.000    1.385    3.077    3.000    1.077    4.000 
#    0.000    0.000    0.000    0.462    0.000    0.000 
#    0.000    0.000    0.000    0.000    0.000    0.000 
#
# Total GULP energy -289673.788203 kJ/mol
# GULP energy per Si atom -5570.649773 kJ/mol
# Density = 1.819400 g / cm^3
# Si number density = 18.235506 Si / 1000 Ang^3
#
#
#
# Elastic Constant Matrix: (Units=GPa)
#
#
# Indices 1 2 3 4 5 6 
#
# 1 97.0665 28.8554 51.6528 0.0000 0.0000 0.0000
# 2 28.8554 71.0307 34.7315 0.0000 0.0000 0.0000
# 3 51.6528 34.7315 78.6135 0.0000 0.0000 0.0000
# 4 0.0000 0.0000 0.0000 26.2455 0.0000 0.0000
# 5 0.0000 0.0000 0.0000 0.0000 32.6774 0.0000
# 6 0.0000 0.0000 0.0000 0.0000 0.0000 17.1337
#
#
#
# Elastic Compliance Matrix: (Units=1/GPa)
#
#
# Indices 1 2 3 4 5 6 
#
# 1 0.016007 -0.001735 -0.009751 0.000000 0.000000 0.000000
# 2 -0.001735 0.018146 -0.006877 0.000000 0.000000 0.000000
# 3 -0.009751 -0.006877 0.022165 0.000000 0.000000 0.000000
# 4 0.000000 0.000000 0.000000 0.038102 0.000000 0.000000
# 5 0.000000 0.000000 0.000000 0.000000 0.030602 0.000000
# 6 0.000000 0.000000 0.000000 0.000000 0.000000 0.058365
#
#
# Mechanical properties :
#
#
# Convention : Reuss Voigt Hill
#
# Bulk Modulus (GPa) = 51.03894 53.02113 52.03003
# Shear Modulus (GPa) = 22.06119 23.97603 23.01861
#
# Velocity S-wave (km/s) = 3.48198 3.62995 3.55673
# Velocity P-wave (km/s) = 6.64945 6.83430 6.74250
#
# Compressibility (1/GPa) = 0.01959288
#
# Stress axis : x y z
#
# Youngs Moduli (GPa) = 62.47402 55.10935 45.11533
#
# Poissons Ratio (x) = 0.09560 0.43991
# Poissons Ratio (y) = 0.10838 0.31026
# Poissons Ratio (z) = 0.60917 0.37899
#
# Static dielectric constant tensor:
#      x y z
#    x 1.714520 0.000000 0.000000 
#    y 0.000000 1.619970 0.000000 
#    z 0.000000 0.000000 1.602030 
# 
# From -- ./inp_files/8733.got.cif
#   From: 2010.05.17/outbox.cif.g08.bks.cpg/sg63_5_cif.got.tgz:8733.got - 2010.06.03 15:47:04.
