data_PCOD9473149
_publ_section_title
;
Structure prediction by ZEFSAII (Michael W. Deem and Ramdas Pophale) SiO2 
 PCOD9473149
Probable space group: C M C M
;
_chemical_formula_sum "Si O2"
_cell_formula_units_Z 116
_cell_length_a 18.124520
_cell_length_b 25.053519
_cell_length_c 14.463909
_cell_angle_alpha 90.000000
_cell_angle_beta 90.000000
_cell_angle_gamma 90.000000
_cell_volume 6567.815280
_symmetry_space_group_name_H-M "C M C M"
_symmetry_group_IT_number 63
_symmetry_cell_setting 'orthorhombic'
loop_
_space_group_symop_operation_xyz
x,y,z
-x,-y,1/2+z
x,-y,-z
-x,y,1/2-z
-x,-y,-z
x,y,1/2-z
-x,y,z
x,-y,1/2+z
1/2+x,1/2+y,z
1/2-x,1/2-y,1/2+z
1/2+x,1/2-y,-z
1/2-x,1/2+y,1/2-z
1/2-x,1/2-y,-z
1/2+x,1/2+y,1/2-z
1/2-x,1/2+y,z
1/2+x,1/2-y,1/2+z
loop_
_atom_site_type_symbol
_atom_site_label
_atom_site_fract_x
_atom_site_fract_y
_atom_site_fract_z
Si Si1 0.584939 0.658442 0.360576
Si Si2 0.336916 0.258128 0.988829
Si Si3 0.413152 0.672542 0.639929
Si Si4 0.581379 0.851391 0.056874
Si Si5 0.325917 0.433498 0.139825
Si Si6 0.000000 0.638353 0.750000
Si Si7 0.673690 0.445405 0.640157
Si Si8 0.695777 0.062058 0.998916
O O1 0.588462 0.666434 0.250000
O O2 0.500000 0.667478 0.389245
O O3 0.639427 0.698638 0.411863
O O4 0.611769 0.598407 0.380456
O O5 0.374430 0.202827 0.959908
O O6 0.250000 0.250000 0.000000
O O7 0.370827 0.282472 0.082680
O O8 0.402808 0.679050 0.750000
O O9 0.500000 0.674415 0.620223
O O10 0.380382 0.614403 0.613497
O O11 0.500000 0.846500 0.013213
O O12 0.563335 0.860358 0.165965
O O13 0.627177 0.899036 0.010762
O O14 0.317249 0.431435 0.250000
O O15 0.349651 0.494065 0.115493
O O16 0.248373 0.426381 0.088796
O O17 0.687523 0.444060 0.750000
O O18 0.748362 0.431191 0.585223
O O19 0.673177 0.000000 0.000000
#
# Coordination Sequence:
#
# PCOD9473149 Si02
#       8
#    16  16  16  16  16   4  16  16
#     4  10  21  34  55  81 111 145 184 232 285 337
#     4  12  24  38  57  81 110 147 188 230 286 343
#     4  10  21  37  55  81 112 151 195 239 282 336
#     4  10  22  39  61  86 115 142 182 234 290 337
#     4   9  18  31  54  81 112 151 193 238 282 327
#     4   8  24  40  62  96 110 144 184 244 294 342
#     4   9  18  34  52  81 118 155 195 233 277 334
#     4  10  20  36  59  83 114 149 186 232 284 339
#
# _framework density 17.661885999999999
#
# number of rings (size 3 to 8) (size 9 to 14) (size 15 to 20)
#    0.414    1.655    0.000    3.724    1.931    1.379 
#    0.000    3.448    0.000    5.379    0.000    0.000 
#    0.000    0.000    0.000    0.000    0.000    0.000 
#
# Total GULP energy -322899.717225 kJ/mol
# GULP energy per Si atom -5567.236504 kJ/mol
# Density = 1.762169 g / cm^3
# Si number density = 17.661886 Si / 1000 Ang^3
#
#
#
# Elastic Constant Matrix: (Units=GPa)
#
#
# Indices 1 2 3 4 5 6 
#
# 1 92.7136 31.3037 15.6563 0.0000 0.0000 0.0000
# 2 31.3037 46.3273 10.8665 0.0000 0.0000 0.0000
# 3 15.6563 10.8665 63.4392 0.0000 0.0000 0.0000
# 4 0.0000 0.0000 0.0000 20.0729 0.0000 0.0000
# 5 0.0000 0.0000 0.0000 0.0000 26.6222 0.0000
# 6 0.0000 0.0000 0.0000 0.0000 0.0000 -10.9576
#
#
#
# Elastic Compliance Matrix: (Units=1/GPa)
#
#
# Indices 1 2 3 4 5 6 
#
# 1 0.014199 -0.009140 -0.001939 0.000000 0.000000 0.000000
# 2 -0.009140 0.028372 -0.002604 0.000000 0.000000 0.000000
# 3 -0.001939 -0.002604 0.016688 0.000000 0.000000 0.000000
# 4 0.000000 0.000000 0.000000 0.049818 0.000000 0.000000
# 5 0.000000 0.000000 0.000000 0.000000 0.037563 0.000000
# 6 0.000000 0.000000 0.000000 0.000000 0.000000 -0.091261
#
#
# Mechanical properties :
#
#
# Convention : Reuss Voigt Hill
#
# Bulk Modulus (GPa) = 31.35422 35.34811 33.35116
# Shear Modulus (GPa) = 53.54725 16.79110 35.16917
#
# Velocity S-wave (km/s) = 5.51215 3.08668 4.46718
# Velocity P-wave (km/s) = 7.63562 5.72370 6.74772
#
# Compressibility (1/GPa) = 0.03189364
#
# Stress axis : x y z
#
# Youngs Moduli (GPa) = 70.42641 35.24580 59.92448
#
# Poissons Ratio (x) = 0.32214 0.11618
# Poissons Ratio (y) = 0.64368 0.15606
# Poissons Ratio (z) = 0.13654 0.09179
#
# Static dielectric constant tensor:
#      x y z
#    x 1.574290 0.000000 0.000000 
#    y 0.000000 1.619330 0.000000 
#    z 0.000000 0.000000 1.611580 
# 
# From -- ./inp_files/34385.got.cif
#   From: 2010.05.17/outbox.cif.g08.bks.cpg/sg63_18_cif.got.tgz:34385.got - 2010.06.03 15:47:04.
