data_PCOD9473572
_publ_section_title
;
Structure prediction by ZEFSAII (Michael W. Deem and Ramdas Pophale) SiO2 
 PCOD9473572
Probable space group: C M C M
;
_chemical_formula_sum "Si O2"
_cell_formula_units_Z 88
_cell_length_a 22.253779
_cell_length_b 9.114843
_cell_length_c 22.618366
_cell_angle_alpha 90.000000
_cell_angle_beta 90.000000
_cell_angle_gamma 90.000000
_cell_volume 4587.902613
_symmetry_space_group_name_H-M "C M C M"
_symmetry_group_IT_number 63
_symmetry_cell_setting 'orthorhombic'
loop_
_space_group_symop_operation_xyz
x,y,z
-x,-y,1/2+z
x,-y,-z
-x,y,1/2-z
-x,-y,-z
x,y,1/2-z
-x,y,z
x,-y,1/2+z
1/2+x,1/2+y,z
1/2-x,1/2-y,1/2+z
1/2+x,1/2-y,-z
1/2-x,1/2+y,1/2-z
1/2-x,1/2-y,-z
1/2+x,1/2+y,1/2-z
1/2-x,1/2+y,z
1/2+x,1/2-y,1/2+z
loop_
_atom_site_type_symbol
_atom_site_label
_atom_site_fract_x
_atom_site_fract_y
_atom_site_fract_z
Si Si1 0.000000 0.626819 0.750000
Si Si2 0.355234 0.054025 0.123732
Si Si3 0.736564 0.620533 0.046629
Si Si4 0.567556 0.166718 0.025955
Si Si5 0.500000 0.382742 0.653816
Si Si6 0.117962 0.778359 0.909220
Si Si7 0.103919 0.382804 0.750000
Si Si8 0.500000 0.361873 0.250000
O O1 0.000000 0.736735 0.694705
O O2 0.057905 0.521379 0.750000
O O3 0.295302 0.073471 0.084137
O O4 0.404245 0.153365 0.089992
O O5 0.355635 0.104525 0.191276
O O6 0.376574 0.884640 0.118744
O O7 0.683650 0.652087 0.092881
O O8 0.716557 0.500000 0.000000
O O9 0.750000 0.750000 0.000000
O O10 0.500000 0.221911 0.027552
O O11 0.605467 0.256199 0.978909
O O12 0.566893 0.000000 0.000000
O O13 0.438302 0.366465 0.616916
O O14 0.500000 0.528195 0.693782
O O15 0.059216 0.242135 0.750000
#
# Coordination Sequence:
#
# PCOD9473572 Si02
#       8
#     4  16  16  16   8  16   8   4
#     4  10  20  38  72  94 122 172 226 264 318 398
#     4  11  22  39  66  99 130 177 234 272 326 403
#     4  12  23  42  66  98 139 182 219 272 346 406
#     4   9  17  29  56  98 128 151 206 280 328 378
#     4  11  22  44  68  98 135 174 221 278 341 399
#     4  11  21  39  69 101 130 171 225 279 336 407
#     4  11  24  42  68  98 127 178 229 279 324 396
#     4  10  28  46  60  98 144 180 212 282 364 396
#
# _framework density 19.180878
#
# number of rings (size 3 to 8) (size 9 to 14) (size 15 to 20)
#    0.000    1.273    6.364    0.545    3.818    1.455 
#    0.000    3.182    0.000    0.000    0.000    0.000 
#    0.000    0.000    0.000    0.000    0.000    0.000 
#
# Total GULP energy -245447.732880 kJ/mol
# GULP energy per Si atom -5578.357565 kJ/mol
# Density = 1.913722 g / cm^3
# Si number density = 19.180878 Si / 1000 Ang^3
#
#
#
# Elastic Constant Matrix: (Units=GPa)
#
#
# Indices 1 2 3 4 5 6 
#
# 1 89.3411 12.6551 19.8784 0.0000 0.0000 0.0000
# 2 12.6551 69.9167 21.7170 0.0000 0.0000 0.0000
# 3 19.8784 21.7170 114.3579 0.0000 0.0000 0.0000
# 4 0.0000 0.0000 0.0000 17.3173 0.0000 0.0000
# 5 0.0000 0.0000 0.0000 0.0000 19.3199 0.0000
# 6 0.0000 0.0000 0.0000 0.0000 0.0000 25.0215
#
#
#
# Elastic Compliance Matrix: (Units=1/GPa)
#
#
# Indices 1 2 3 4 5 6 
#
# 1 0.011808 -0.001594 -0.001750 0.000000 0.000000 0.000000
# 2 -0.001594 0.015414 -0.002650 0.000000 0.000000 0.000000
# 3 -0.001750 -0.002650 0.009552 0.000000 0.000000 0.000000
# 4 0.000000 0.000000 0.000000 0.057746 0.000000 0.000000
# 5 0.000000 0.000000 0.000000 0.000000 0.051760 0.000000
# 6 0.000000 0.000000 0.000000 0.000000 0.000000 0.039966
#
#
# Mechanical properties :
#
#
# Convention : Reuss Voigt Hill
#
# Bulk Modulus (GPa) = 40.34417 42.45743 41.40080
# Shear Modulus (GPa) = 24.21355 26.95609 25.58482
#
# Velocity S-wave (km/s) = 3.55685 3.75288 3.65618
# Velocity P-wave (km/s) = 6.16015 6.40017 6.28131
#
# Compressibility (1/GPa) = 0.02478673
#
# Stress axis : x y z
#
# Youngs Moduli (GPa) = 84.68717 64.87442 104.69073
#
# Poissons Ratio (x) = 0.10339 0.18320
# Poissons Ratio (y) = 0.13497 0.27745
# Poissons Ratio (z) = 0.14819 0.17193
#
# Static dielectric constant tensor:
#      x y z
#    x 1.678740 0.000000 0.000000 
#    y 0.000000 1.575780 0.000000 
#    z 0.000000 0.000000 1.641960 
# 
# From -- ./inp_files/57433.got.cif
#   From: 2010.05.17/outbox.cif.g08.bks.cpg/sg63_29_cif.got.tgz:57433.got - 2010.06.03 15:47:04.
