data_PCOD9473442
_publ_section_title
;
Structure prediction by ZEFSAII (Michael W. Deem and Ramdas Pophale) SiO2 
 PCOD9473442
Probable space group: C M C M
;
_chemical_formula_sum "Si O2"
_cell_formula_units_Z 84
_cell_length_a 12.648188
_cell_length_b 23.863091
_cell_length_c 14.957080
_cell_angle_alpha 90.000000
_cell_angle_beta 90.000000
_cell_angle_gamma 90.000000
_cell_volume 4514.418595
_symmetry_space_group_name_H-M "C M C M"
_symmetry_group_IT_number 63
_symmetry_cell_setting 'orthorhombic'
loop_
_space_group_symop_operation_xyz
x,y,z
-x,-y,1/2+z
x,-y,-z
-x,y,1/2-z
-x,-y,-z
x,y,1/2-z
-x,y,z
x,-y,1/2+z
1/2+x,1/2+y,z
1/2-x,1/2-y,1/2+z
1/2+x,1/2-y,-z
1/2-x,1/2+y,1/2-z
1/2-x,1/2-y,-z
1/2+x,1/2+y,1/2-z
1/2-x,1/2+y,z
1/2+x,1/2-y,1/2+z
loop_
_atom_site_type_symbol
_atom_site_label
_atom_site_fract_x
_atom_site_fract_y
_atom_site_fract_z
Si Si1 0.872763 0.256970 0.350038
Si Si2 0.659361 0.029221 0.907426
Si Si3 0.777311 0.866196 0.646537
Si Si4 0.382009 0.484518 0.643110
Si Si5 0.123180 0.647819 0.982567
Si Si6 0.000000 0.498718 0.750000
O O1 0.838379 0.275421 0.250000
O O2 0.836591 0.193106 0.361206
O O3 0.835152 0.298190 0.428270
O O4 0.000000 0.259119 0.351252
O O5 0.633605 0.094646 0.917023
O O6 0.592723 0.002414 0.827895
O O7 0.784684 0.019849 0.894974
O O8 0.628864 0.000000 0.000000
O O9 0.739986 0.871579 0.750000
O O10 0.852585 0.919205 0.628127
O O11 0.685856 0.865400 0.572925
O O12 0.382280 0.492790 0.750000
O O13 0.500000 0.497395 0.609735
O O14 0.000000 0.656316 0.003602
#
# Coordination Sequence:
#
# PCOD9473442 Si02
#       6
#    16  16  16  16  16   4
#     4   9  19  35  60  85 111 147 193 246 303 358
#     4  12  24  41  59  92 123 162 206 247 303 363
#     4  10  20  38  57  83 114 152 193 246 305 356
#     4  10  21  39  62  86 118 156 202 250 302 359
#     4  11  23  36  56  85 120 151 200 247 293 370
#     4  12  26  40  66  82 128 172 198 254 300 362
#
# _framework density 18.607047000000001
#
# number of rings (size 3 to 8) (size 9 to 14) (size 15 to 20)
#    0.000    1.524    3.810    1.429    1.333    3.048 
#    0.000    0.000    0.000    1.143    0.000    0.000 
#    0.000    0.000    0.000    0.000    0.000    0.000 
#
# Total GULP energy -233961.175580 kJ/mol
# GULP energy per Si atom -5570.504180 kJ/mol
# Density = 1.856470 g / cm^3
# Si number density = 18.607047 Si / 1000 Ang^3
#
#
#
# Elastic Constant Matrix: (Units=GPa)
#
#
# Indices 1 2 3 4 5 6 
#
# 1 91.5769 -11.8456 36.2941 0.0000 0.0000 0.0000
# 2 -11.8456 27.9234 -3.7685 0.0000 0.0000 0.0000
# 3 36.2941 -3.7685 90.9440 0.0000 0.0000 0.0000
# 4 0.0000 0.0000 0.0000 16.3970 0.0000 0.0000
# 5 0.0000 0.0000 0.0000 0.0000 -4.2017 0.0000
# 6 0.0000 0.0000 0.0000 0.0000 0.0000 7.9386
#
#
#
# Elastic Compliance Matrix: (Units=1/GPa)
#
#
# Indices 1 2 3 4 5 6 
#
# 1 0.013654 0.005085 -0.005238 0.000000 0.000000 0.000000
# 2 0.005085 0.037908 -0.000459 0.000000 0.000000 0.000000
# 3 -0.005238 -0.000459 0.013067 0.000000 0.000000 0.000000
# 4 0.000000 0.000000 0.000000 0.060987 0.000000 0.000000
# 5 0.000000 0.000000 0.000000 0.000000 -0.237997 0.000000
# 6 0.000000 0.000000 0.000000 0.000000 0.000000 0.125968
#
#
# Mechanical properties :
#
#
# Convention : Reuss Voigt Hill
#
# Bulk Modulus (GPa) = 15.77160 27.97825 21.87493
# Shear Modulus (GPa) = 139.10711 16.67773 77.89242
#
# Velocity S-wave (km/s) = 8.65579 2.99710 6.47709
# Velocity P-wave (km/s) = 10.41113 5.20056 8.22913
#
# Compressibility (1/GPa) = 0.06340511
#
# Stress axis : x y z
#
# Youngs Moduli (GPa) = 73.24099 26.37996 76.52731
#
# Poissons Ratio (x) = -0.13415 0.40086
# Poissons Ratio (y) = -0.37244 0.03510
# Poissons Ratio (z) = 0.38365 0.01210
#
# Static dielectric constant tensor:
#      x y z
#    x 1.637780 0.000000 0.000000 
#    y 0.000000 1.650120 0.000000 
#    z 0.000000 0.000000 1.650310 
# 
# From -- ./inp_files/29861.got.cif
#   From: 2010.05.17/outbox.cif.g08.bks.cpg/sg63_15_cif.got.tgz:29861.got - 2010.06.03 15:47:04.
