data_PCOD9473685
_publ_section_title
;
Structure prediction by ZEFSAII (Michael W. Deem and Ramdas Pophale) SiO2 
 PCOD9473685
Probable space group: C M C M
;
_chemical_formula_sum "Si O2"
_cell_formula_units_Z 68
_cell_length_a 9.545331
_cell_length_b 19.909410
_cell_length_c 17.083467
_cell_angle_alpha 90.000000
_cell_angle_beta 90.000000
_cell_angle_gamma 90.000000
_cell_volume 3246.574672
_symmetry_space_group_name_H-M "C M C M"
_symmetry_group_IT_number 63
_symmetry_cell_setting 'orthorhombic'
loop_
_space_group_symop_operation_xyz
x,y,z
-x,-y,1/2+z
x,-y,-z
-x,y,1/2-z
-x,-y,-z
x,y,1/2-z
-x,y,z
x,-y,1/2+z
1/2+x,1/2+y,z
1/2-x,1/2-y,1/2+z
1/2+x,1/2-y,-z
1/2-x,1/2+y,1/2-z
1/2-x,1/2-y,-z
1/2+x,1/2+y,1/2-z
1/2-x,1/2+y,z
1/2+x,1/2-y,1/2+z
loop_
_atom_site_type_symbol
_atom_site_label
_atom_site_fract_x
_atom_site_fract_y
_atom_site_fract_z
Si Si1 0.843573 0.219941 0.160070
Si Si2 0.739495 0.866864 0.130237
Si Si3 0.836492 0.518217 0.335247
Si Si4 0.170129 0.631608 0.452937
Si Si5 0.500000 0.637088 0.750000
O O1 0.812131 0.201508 0.250000
O O2 0.844196 0.300327 0.154044
O O3 0.725752 0.190812 0.102910
O O4 0.000000 0.194921 0.139846
O O5 0.879022 0.863268 0.181217
O O6 0.674129 0.939304 0.149384
O O7 0.745220 0.864267 0.036255
O O8 0.770095 0.532769 0.250000
O O9 0.785744 0.563793 0.406661
O O10 0.000000 0.535836 0.329980
O O11 0.000000 0.633568 0.463865
#
# Coordination Sequence:
#
# PCOD9473685 Si02
#       5
#    16  16  16  16   4
#     4  11  24  43  67 100 138 181 222 275 337 395
#     4  12  24  44  67  96 129 175 232 280 329 402
#     4  10  20  41  69  98 131 175 223 273 325 396
#     4  11  25  42  70 103 137 177 224 278 336 396
#     4  12  28  44  68 100 130 180 228 274 358 388
#
# _framework density 20.945152
#
# number of rings (size 3 to 8) (size 9 to 14) (size 15 to 20)
#    0.000    0.941    2.353    4.235    3.294    5.176 
#    2.118    1.176    0.000    0.000    0.000    0.000 
#    0.000    0.000    0.000    0.000    0.000    0.000 
#
# Total GULP energy -189268.528119 kJ/mol
# GULP energy per Si atom -5566.721415 kJ/mol
# Density = 2.089748 g / cm^3
# Si number density = 20.945152 Si / 1000 Ang^3
#
#
#
# Elastic Constant Matrix: (Units=GPa)
#
#
# Indices 1 2 3 4 5 6 
#
# 1 75.7856 13.6386 63.3832 0.0000 0.0000 0.0000
# 2 13.6386 80.3973 33.6531 0.0000 0.0000 0.0000
# 3 63.3832 33.6531 188.7806 0.0000 0.0000 0.0000
# 4 0.0000 0.0000 0.0000 26.1808 0.0000 0.0000
# 5 0.0000 0.0000 0.0000 0.0000 56.0549 0.0000
# 6 0.0000 0.0000 0.0000 0.0000 0.0000 -84.2433
#
#
#
# Elastic Compliance Matrix: (Units=1/GPa)
#
#
# Indices 1 2 3 4 5 6 
#
# 1 0.018372 -0.000578 -0.006065 0.000000 0.000000 0.000000
# 2 -0.000578 0.013459 -0.002205 0.000000 0.000000 0.000000
# 3 -0.006065 -0.002205 0.007727 0.000000 0.000000 0.000000
# 4 0.000000 0.000000 0.000000 0.038196 0.000000 0.000000
# 5 0.000000 0.000000 0.000000 0.000000 0.017840 0.000000
# 6 0.000000 0.000000 0.000000 0.000000 0.000000 -0.011870
#
#
# Mechanical properties :
#
#
# Convention : Reuss Voigt Hill
#
# Bulk Modulus (GPa) = 45.74352 62.92370 54.33361
# Shear Modulus (GPa) = 45.99518 15.21773 30.60645
#
# Velocity S-wave (km/s) = 4.69121 2.69839 3.82680
# Velocity P-wave (km/s) = 7.15754 6.30997 6.74708
#
# Compressibility (1/GPa) = 0.02186102
#
# Stress axis : x y z
#
# Youngs Moduli (GPa) = 54.43112 74.29766 129.42063
#
# Poissons Ratio (x) = 0.04292 0.78498
# Poissons Ratio (y) = 0.03145 0.28542
# Poissons Ratio (z) = 0.33014 0.16385
#
# Static dielectric constant tensor:
#      x y z
#    x 1.733360 0.000000 0.000000 
#    y 0.000000 1.763740 0.000000 
#    z 0.000000 0.000000 1.773120 
# 
# From -- ./inp_files/39953.got.cif
#   From: 2010.05.17/outbox.cif.g08.bks.cpg/sg63_20_cif.got.tgz:39953.got - 2010.06.03 15:47:04.
