data_PCOD9473963
_publ_section_title
;
Structure prediction by ZEFSAII (Michael W. Deem and Ramdas Pophale) SiO2 
 PCOD9473963
Probable space group: C M C M
;
_chemical_formula_sum "Si O2"
_cell_formula_units_Z 64
_cell_length_a 7.694101
_cell_length_b 24.813748
_cell_length_c 18.504409
_cell_angle_alpha 90.000000
_cell_angle_beta 90.000000
_cell_angle_gamma 90.000000
_cell_volume 3532.852205
_symmetry_space_group_name_H-M "C M C M"
_symmetry_group_IT_number 63
_symmetry_cell_setting 'orthorhombic'
loop_
_space_group_symop_operation_xyz
x,y,z
-x,-y,1/2+z
x,-y,-z
-x,y,1/2-z
-x,-y,-z
x,y,1/2-z
-x,y,z
x,-y,1/2+z
1/2+x,1/2+y,z
1/2-x,1/2-y,1/2+z
1/2+x,1/2-y,-z
1/2-x,1/2+y,1/2-z
1/2-x,1/2-y,-z
1/2+x,1/2+y,1/2-z
1/2-x,1/2+y,z
1/2+x,1/2-y,1/2+z
loop_
_atom_site_type_symbol
_atom_site_label
_atom_site_fract_x
_atom_site_fract_y
_atom_site_fract_z
Si Si1 0.290859 0.307434 0.918851
Si Si2 0.199392 0.812422 0.412129
Si Si3 0.500000 0.997942 0.837806
Si Si4 0.000000 0.378351 0.163386
Si Si5 0.297280 0.415960 0.836847
O O1 0.500000 0.301496 0.914520
O O2 0.212430 0.250974 0.893095
O O3 0.241916 0.359858 0.873390
O O4 0.247299 0.315481 0.003275
O O5 0.331430 0.847373 0.365958
O O6 0.000000 0.830279 0.405048
O O7 0.500000 0.999220 0.750000
O O8 0.500000 0.059581 0.862286
O O9 0.670143 0.964090 0.859705
O O10 0.000000 0.377637 0.250000
O O11 0.286176 0.410517 0.750000
O O12 0.500000 0.425984 0.855242
#
# Coordination Sequence:
#
# PCOD9473963 Si02
#       5
#    16  16   8   8  16
#     4   9  18  35  57  83 117 147 180 227 276 337
#     4  10  21  36  56  82 112 153 187 217 279 340
#     4   9  20  37  55  77 107 147 188 229 280 333
#     4  11  24  41  57  79 114 147 189 237 274 327
#     4   9  18  33  55  82 108 141 183 232 282 324
#
# _framework density 18.115673000000001
#
# number of rings (size 3 to 8) (size 9 to 14) (size 15 to 20)
#    0.000    2.500    1.250    0.000    3.500    2.500 
#    0.000    5.000    0.000    4.500    0.000    0.000 
#    0.000    0.000    0.000    0.000    0.000    0.000 
#
# Total GULP energy -178552.679403 kJ/mol
# GULP energy per Si atom -5579.771231 kJ/mol
# Density = 1.807444 g / cm^3
# Si number density = 18.115673 Si / 1000 Ang^3
#
#
#
# Elastic Constant Matrix: (Units=GPa)
#
#
# Indices 1 2 3 4 5 6 
#
# 1 98.2695 86.5175 38.7213 0.0000 0.0000 0.0000
# 2 86.5175 166.4506 53.2967 0.0000 0.0000 0.0000
# 3 38.7213 53.2967 31.9869 0.0000 0.0000 0.0000
# 4 0.0000 0.0000 0.0000 150.0323 0.0000 0.0000
# 5 0.0000 0.0000 0.0000 0.0000 25.0956 0.0000
# 6 0.0000 0.0000 0.0000 0.0000 0.0000 8.2138
#
#
#
# Elastic Compliance Matrix: (Units=1/GPa)
#
#
# Indices 1 2 3 4 5 6 
#
# 1 0.022142 -0.006274 -0.016351 0.000000 0.000000 0.000000
# 2 -0.006274 0.014656 -0.016826 0.000000 0.000000 0.000000
# 3 -0.016351 -0.016826 0.079091 0.000000 0.000000 0.000000
# 4 0.000000 0.000000 0.000000 0.006665 0.000000 0.000000
# 5 0.000000 0.000000 0.000000 0.000000 0.039848 0.000000
# 6 0.000000 0.000000 0.000000 0.000000 0.000000 0.121747
#
#
# Mechanical properties :
#
#
# Convention : Reuss Voigt Hill
#
# Bulk Modulus (GPa) = 27.03491 72.64202 49.83846
# Shear Modulus (GPa) = 13.31984 44.54643 28.93313
#
# Velocity S-wave (km/s) = 2.71452 4.96421 4.00075
# Velocity P-wave (km/s) = 4.97802 8.54657 6.99373
#
# Compressibility (1/GPa) = 0.03698921
#
# Stress axis : x y z
#
# Youngs Moduli (GPa) = 45.16272 68.23044 12.64360
#
# Poissons Ratio (x) = 0.42805 0.20673
# Poissons Ratio (y) = 0.28333 0.21274
# Poissons Ratio (z) = 0.73845 1.14804
#
# Static dielectric constant tensor:
#      x y z
#    x 1.635690 0.000000 0.000000 
#    y 0.000000 1.599590 0.000000 
#    z 0.000000 0.000000 1.605850 
# 
# From -- ./inp_files/39884.got.cif
#   From: 2010.05.17/outbox.cif.g08.bks.cpg/sg63_20_cif.got.tgz:39884.got - 2010.06.03 15:47:04.
