data_PCOD9473179
_publ_section_title
;
Structure prediction by ZEFSAII (Michael W. Deem and Ramdas Pophale) SiO2 
 PCOD9473179
Probable space group: C M C M
;
_chemical_formula_sum "Si O2"
_cell_formula_units_Z 116
_cell_length_a 28.596056
_cell_length_b 25.805897
_cell_length_c 7.895012
_cell_angle_alpha 90.000000
_cell_angle_beta 90.000000
_cell_angle_gamma 90.000000
_cell_volume 5826.099439
_symmetry_space_group_name_H-M "C M C M"
_symmetry_group_IT_number 63
_symmetry_cell_setting 'orthorhombic'
loop_
_space_group_symop_operation_xyz
x,y,z
-x,-y,1/2+z
x,-y,-z
-x,y,1/2-z
-x,-y,-z
x,y,1/2-z
-x,y,z
x,-y,1/2+z
1/2+x,1/2+y,z
1/2-x,1/2-y,1/2+z
1/2+x,1/2-y,-z
1/2-x,1/2+y,1/2-z
1/2-x,1/2-y,-z
1/2+x,1/2+y,1/2-z
1/2-x,1/2+y,z
1/2+x,1/2-y,1/2+z
loop_
_atom_site_type_symbol
_atom_site_label
_atom_site_fract_x
_atom_site_fract_y
_atom_site_fract_z
Si Si1 0.697258 0.753263 0.938092
Si Si2 0.762421 0.940064 0.450782
Si Si3 0.947660 0.134994 0.455130
Si Si4 0.902708 0.757977 0.045968
Si Si5 0.133938 0.939630 0.549332
Si Si6 0.179115 0.367114 0.047677
Si Si7 0.073220 0.358253 0.054337
Si Si8 0.000000 0.378438 0.750000
O O1 0.698480 0.731317 0.750000
O O2 0.650187 0.729807 0.020247
O O3 0.750000 0.750000 0.000000
O O4 0.685764 0.814062 0.947246
O O5 0.761201 0.937395 0.250000
O O6 0.813791 0.921065 0.504184
O O7 0.718275 0.907211 0.512836
O O8 0.758470 0.000000 0.500000
O O9 0.947311 0.133260 0.250000
O O10 0.935124 0.193375 0.507725
O O11 0.907475 0.096233 0.520977
O O12 0.000000 0.121094 0.512205
O O13 0.900676 0.750082 0.250000
O O14 0.920380 0.704288 0.965767
O O15 0.130524 0.937861 0.750000
O O16 0.129612 0.000000 0.500000
O O17 0.186270 0.356381 0.250000
O O18 0.125059 0.382558 0.031048
O O19 0.058363 0.368521 0.250000
O O20 0.040193 0.375948 0.902283
#
# Coordination Sequence:
#
# PCOD9473179 Si02
#       8
#    16  16  16  16  16  16  16   4
#     4  10  21  34  52  77 110 151 190 230 282 343
#     4  10  20  36  59  88 117 146 186 232 291 355
#     4  10  23  39  55  77 106 146 191 240 297 352
#     4  10  21  37  53  79 113 146 196 242 285 351
#     4  10  21  38  57  80 107 140 185 236 296 360
#     4   9  20  37  56  80 118 151 187 235 287 344
#     4  10  21  38  58  84 120 160 195 246 292 337
#     4  12  22  36  60  90 118 156 210 232 288 348
#
# _framework density 19.910405000000001
#
# number of rings (size 3 to 8) (size 9 to 14) (size 15 to 20)
#    0.000    2.069    0.690    2.690    3.862    4.414 
#    0.000    0.000    0.000    0.000    0.000    0.483 
#    0.000    0.000    0.000    0.000    0.000    0.000 
#
# Total GULP energy -322915.625510 kJ/mol
# GULP energy per Si atom -5567.510785 kJ/mol
# Density = 1.986509 g / cm^3
# Si number density = 19.910405 Si / 1000 Ang^3
#
#
#
# Elastic Constant Matrix: (Units=GPa)
#
#
# Indices 1 2 3 4 5 6 
#
# 1 159.1241 44.9957 39.1162 0.0000 0.0000 0.0000
# 2 44.9957 38.9802 -0.6823 0.0000 0.0000 0.0000
# 3 39.1162 -0.6823 74.5303 0.0000 0.0000 0.0000
# 4 0.0000 0.0000 0.0000 13.9168 0.0000 0.0000
# 5 0.0000 0.0000 0.0000 0.0000 -6.2831 0.0000
# 6 0.0000 0.0000 0.0000 0.0000 0.0000 16.1549
#
#
#
# Elastic Compliance Matrix: (Units=1/GPa)
#
#
# Indices 1 2 3 4 5 6 
#
# 1 0.011653 -0.013560 -0.006240 0.000000 0.000000 0.000000
# 2 -0.013560 0.041438 0.007496 0.000000 0.000000 0.000000
# 3 -0.006240 0.007496 0.016761 0.000000 0.000000 0.000000
# 4 0.000000 0.000000 0.000000 0.071855 0.000000 0.000000
# 5 0.000000 0.000000 0.000000 0.000000 -0.159157 0.000000
# 6 0.000000 0.000000 0.000000 0.000000 0.000000 0.061901
#
#
# Mechanical properties :
#
#
# Convention : Reuss Voigt Hill
#
# Bulk Modulus (GPa) = 22.10242 48.83263 35.46753
# Shear Modulus (GPa) = 59.42479 17.37139 38.39809
#
# Velocity S-wave (km/s) = 5.46908 2.95698 4.39628
# Velocity P-wave (km/s) = 7.14186 6.01978 6.60469
#
# Compressibility (1/GPa) = 0.04524391
#
# Stress axis : x y z
#
# Youngs Moduli (GPa) = 85.81666 24.13241 59.66260
#
# Poissons Ratio (x) = 0.32724 0.37229
# Poissons Ratio (y) = 1.16369 -0.44724
# Poissons Ratio (z) = 0.53549 -0.18090
#
# Static dielectric constant tensor:
#      x y z
#    x 1.781290 0.000000 0.000000 
#    y 0.000000 1.682960 0.000000 
#    z 0.000000 0.000000 1.722850 
# 
# From -- ./inp_files/13160.got.cif
#   From: 2010.05.17/outbox.cif.g08.bks.cpg/sg63_7_cif.got.tgz:13160.got - 2010.06.03 15:47:04.
