data_PCOD9473466
_publ_section_title
;
Structure prediction by ZEFSAII (Michael W. Deem and Ramdas Pophale) SiO2 
 PCOD9473466
Probable space group: C M C M
;
_chemical_formula_sum "Si O2"
_cell_formula_units_Z 88
_cell_length_a 16.756340
_cell_length_b 7.873687
_cell_length_c 29.630572
_cell_angle_alpha 90.000000
_cell_angle_beta 90.000000
_cell_angle_gamma 90.000000
_cell_volume 3909.285114
_symmetry_space_group_name_H-M "C M C M"
_symmetry_group_IT_number 63
_symmetry_cell_setting 'orthorhombic'
loop_
_space_group_symop_operation_xyz
x,y,z
-x,-y,1/2+z
x,-y,-z
-x,y,1/2-z
-x,-y,-z
x,y,1/2-z
-x,y,z
x,-y,1/2+z
1/2+x,1/2+y,z
1/2-x,1/2-y,1/2+z
1/2+x,1/2-y,-z
1/2-x,1/2+y,1/2-z
1/2-x,1/2-y,-z
1/2+x,1/2+y,1/2-z
1/2-x,1/2+y,z
1/2+x,1/2-y,1/2+z
loop_
_atom_site_type_symbol
_atom_site_label
_atom_site_fract_x
_atom_site_fract_y
_atom_site_fract_z
Si Si1 0.314066 0.586984 0.059413
Si Si2 0.851035 0.717966 0.480002
Si Si3 0.000000 0.613132 0.071063
Si Si4 0.500000 0.420939 0.141629
Si Si5 0.836661 0.345206 0.199047
Si Si6 0.672850 0.507547 0.663011
Si Si7 0.500000 0.166678 0.645824
O O1 0.226496 0.619957 0.038592
O O2 0.344594 0.404692 0.042792
O O3 0.318826 0.578489 0.113146
O O4 0.358723 0.738123 0.033008
O O5 0.924170 0.621799 0.460135
O O6 0.000000 0.450510 0.102441
O O7 0.000000 0.788945 0.100411
O O8 0.411865 0.392490 0.163755
O O9 0.500000 0.628868 0.135249
O O10 0.836680 0.413304 0.250000
O O11 0.755631 0.398434 0.173263
O O12 0.834428 0.141607 0.198937
O O13 0.919784 0.381420 0.173522
#
# Coordination Sequence:
#
# PCOD9473466 Si02
#       7
#    16  16   8   8  16  16   8
#     4  10  20  38  59  94 127 180 212 281 323 401
#     4  10  22  36  62  92 135 168 233 267 334 393
#     4  12  22  43  67 104 129 186 222 281 334 401
#     4  10  24  42  63 102 132 176 229 268 333 406
#     4  11  24  43  68  98 130 171 221 287 351 413
#     4  11  22  40  66  93 132 174 222 271 343 409
#     4  10  25  44  71  96 139 178 220 283 349 415
#
# _framework density 22.510508999999999
#
# number of rings (size 3 to 8) (size 9 to 14) (size 15 to 20)
#    0.000    1.455    1.818    3.000    2.545    3.636 
#    0.000    1.364    0.000   14.182    0.000    0.000 
#    0.000    0.000    0.000    0.000    0.000    0.000 
#
# Total GULP energy -245658.681036 kJ/mol
# GULP energy per Si atom -5583.151842 kJ/mol
# Density = 2.245927 g / cm^3
# Si number density = 22.510509 Si / 1000 Ang^3
#
#
#
# Elastic Constant Matrix: (Units=GPa)
#
#
# Indices 1 2 3 4 5 6 
#
# 1 172.7974 38.6227 35.2157 0.0000 0.0000 0.0000
# 2 38.6227 67.3192 30.4347 0.0000 0.0000 0.0000
# 3 35.2157 30.4347 109.6312 0.0000 0.0000 0.0000
# 4 0.0000 0.0000 0.0000 29.6591 0.0000 0.0000
# 5 0.0000 0.0000 0.0000 0.0000 20.1944 0.0000
# 6 0.0000 0.0000 0.0000 0.0000 0.0000 14.7181
#
#
#
# Elastic Compliance Matrix: (Units=1/GPa)
#
#
# Indices 1 2 3 4 5 6 
#
# 1 0.006787 -0.003325 -0.001257 0.000000 0.000000 0.000000
# 2 -0.003325 0.018616 -0.004100 0.000000 0.000000 0.000000
# 3 -0.001257 -0.004100 0.010663 0.000000 0.000000 0.000000
# 4 0.000000 0.000000 0.000000 0.033716 0.000000 0.000000
# 5 0.000000 0.000000 0.000000 0.000000 0.049519 0.000000
# 6 0.000000 0.000000 0.000000 0.000000 0.000000 0.067944
#
#
# Mechanical properties :
#
#
# Convention : Reuss Voigt Hill
#
# Bulk Modulus (GPa) = 53.47069 62.03267 57.75168
# Shear Modulus (GPa) = 23.71441 29.27932 26.49686
#
# Velocity S-wave (km/s) = 3.24926 3.61043 3.43459
# Velocity P-wave (km/s) = 6.15485 6.70800 6.43737
#
# Compressibility (1/GPa) = 0.01870184
#
# Stress axis : x y z
#
# Youngs Moduli (GPa) = 147.35063 53.71736 93.77924
#
# Poissons Ratio (x) = 0.17863 0.11786
# Poissons Ratio (y) = 0.49000 0.38448
# Poissons Ratio (z) = 0.18519 0.22023
#
# Static dielectric constant tensor:
#      x y z
#    x 1.892800 0.000000 0.000000 
#    y 0.000000 1.847820 0.000000 
#    z 0.000000 0.000000 1.862150 
# 
# From -- ./inp_files/73853.got.cif
#   From: 2010.05.17/outbox.cif.g08.bks.cpg/sg63_37_cif.got.tgz:73853.got - 2010.06.03 15:47:04.
