data_PCOD9473580
_publ_section_title
;
Structure prediction by ZEFSAII (Michael W. Deem and Ramdas Pophale) SiO2 
 PCOD9473580
Probable space group: C M C M
;
_chemical_formula_sum "Si O2"
_cell_formula_units_Z 96
_cell_length_a 24.008771
_cell_length_b 8.961574
_cell_length_c 21.667895
_cell_angle_alpha 90.000000
_cell_angle_beta 90.000000
_cell_angle_gamma 90.000000
_cell_volume 4661.985806
_symmetry_space_group_name_H-M "C M C M"
_symmetry_group_IT_number 63
_symmetry_cell_setting 'orthorhombic'
loop_
_space_group_symop_operation_xyz
x,y,z
-x,-y,1/2+z
x,-y,-z
-x,y,1/2-z
-x,-y,-z
x,y,1/2-z
-x,y,z
x,-y,1/2+z
1/2+x,1/2+y,z
1/2-x,1/2-y,1/2+z
1/2+x,1/2-y,-z
1/2-x,1/2+y,1/2-z
1/2-x,1/2-y,-z
1/2+x,1/2+y,1/2-z
1/2-x,1/2+y,z
1/2+x,1/2-y,1/2+z
loop_
_atom_site_type_symbol
_atom_site_label
_atom_site_fract_x
_atom_site_fract_y
_atom_site_fract_z
Si Si1 0.665087 0.912823 0.062977
Si Si2 0.318382 0.593260 0.640909
Si Si3 0.856962 0.842028 0.486602
Si Si4 0.438351 0.338910 0.176778
Si Si5 0.281470 0.922777 0.820049
Si Si6 0.436040 0.897085 0.579426
O O1 0.692501 0.978455 0.124424
O O2 0.599948 0.955008 0.072437
O O3 0.670077 0.740020 0.045198
O O4 0.683584 0.000000 0.000000
O O5 0.312719 0.621748 0.567461
O O6 0.384222 0.574919 0.652893
O O7 0.298361 0.750450 0.670595
O O8 0.283477 0.459502 0.669620
O O9 0.901748 0.726725 0.459190
O O10 0.884057 0.000000 0.500000
O O11 0.436067 0.334439 0.250000
O O12 0.500000 0.395128 0.157635
O O13 0.433688 0.173125 0.147915
O O14 0.297016 0.966361 0.750000
O O15 0.500000 0.911242 0.561617
#
# Coordination Sequence:
#
# PCOD9473580 Si02
#       6
#    16  16  16  16  16  16
#     4  10  20  39  60  88 122 164 211 256 310 365
#     4  11  24  40  59  92 126 163 206 255 314 373
#     4  10  22  39  58  86 123 163 211 257 306 369
#     4   9  16  32  59  87 117 154 202 253 300 363
#     4  12  24  40  62  90 127 163 203 258 313 376
#     4   9  18  34  59  90 122 159 207 263 316 366
#
# _framework density 20.592082999999999
#
# number of rings (size 3 to 8) (size 9 to 14) (size 15 to 20)
#    0.000    1.833    5.000    1.500    2.333    4.667 
#    0.000    0.000    0.000    0.000    0.000    1.167 
#    0.000   11.667    0.000    0.000    0.000    0.000 
#
# Total GULP energy -267645.925597 kJ/mol
# GULP energy per Si atom -5575.956783 kJ/mol
# Density = 2.054521 g / cm^3
# Si number density = 20.592083 Si / 1000 Ang^3
#
#
#
# Elastic Constant Matrix: (Units=GPa)
#
#
# Indices 1 2 3 4 5 6 
#
# 1 82.7289 17.5840 23.1264 0.0000 0.0000 0.0000
# 2 17.5840 46.3025 1.7610 0.0000 0.0000 0.0000
# 3 23.1264 1.7610 84.3155 0.0000 0.0000 0.0000
# 4 0.0000 0.0000 0.0000 12.5201 0.0000 0.0000
# 5 0.0000 0.0000 0.0000 0.0000 20.3081 0.0000
# 6 0.0000 0.0000 0.0000 0.0000 0.0000 17.9521
#
#
#
# Elastic Compliance Matrix: (Units=1/GPa)
#
#
# Indices 1 2 3 4 5 6 
#
# 1 0.014273 -0.005276 -0.003805 0.000000 0.000000 0.000000
# 2 -0.005276 0.023564 0.000955 0.000000 0.000000 0.000000
# 3 -0.003805 0.000955 0.012884 0.000000 0.000000 0.000000
# 4 0.000000 0.000000 0.000000 0.079872 0.000000 0.000000
# 5 0.000000 0.000000 0.000000 0.000000 0.049242 0.000000
# 6 0.000000 0.000000 0.000000 0.000000 0.000000 0.055704
#
#
# Mechanical properties :
#
#
# Convention : Reuss Voigt Hill
#
# Bulk Modulus (GPa) = 29.01062 33.14330 31.07696
# Shear Modulus (GPa) = 18.99132 21.54773 20.26953
#
# Velocity S-wave (km/s) = 3.04017 3.23833 3.14082
# Velocity P-wave (km/s) = 5.14221 5.48749 5.31765
#
# Compressibility (1/GPa) = 0.03447014
#
# Stress axis : x y z
#
# Youngs Moduli (GPa) = 70.06466 42.43715 77.61682
#
# Poissons Ratio (x) = 0.22388 0.29530
# Poissons Ratio (y) = 0.36963 -0.07411
# Poissons Ratio (z) = 0.26656 -0.04052
#
# Static dielectric constant tensor:
#      x y z
#    x 1.803220 0.000000 0.000000 
#    y 0.000000 1.736410 0.000000 
#    z 0.000000 0.000000 1.797040 
# 
# From -- ./inp_files/64939.got.cif
#   From: 2010.05.17/outbox.cif.g08.bks.cpg/sg63_33_cif.got.tgz:64939.got - 2010.06.03 15:47:04.
