data_PCOD9473006
_publ_section_title
;
Structure prediction by ZEFSAII (Michael W. Deem and Ramdas Pophale) SiO2 
 PCOD9473006
Probable space group: C M C M
;
_chemical_formula_sum "Si O2"
_cell_formula_units_Z 96
_cell_length_a 8.746571
_cell_length_b 30.946158
_cell_length_c 19.718233
_cell_angle_alpha 90.000000
_cell_angle_beta 90.000000
_cell_angle_gamma 90.000000
_cell_volume 5337.188709
_symmetry_space_group_name_H-M "C M C M"
_symmetry_group_IT_number 63
_symmetry_cell_setting 'orthorhombic'
loop_
_space_group_symop_operation_xyz
x,y,z
-x,-y,1/2+z
x,-y,-z
-x,y,1/2-z
-x,-y,-z
x,y,1/2-z
-x,y,z
x,-y,1/2+z
1/2+x,1/2+y,z
1/2-x,1/2-y,1/2+z
1/2+x,1/2-y,-z
1/2-x,1/2+y,1/2-z
1/2-x,1/2-y,-z
1/2+x,1/2+y,1/2-z
1/2-x,1/2+y,z
1/2+x,1/2-y,1/2+z
loop_
_atom_site_type_symbol
_atom_site_label
_atom_site_fract_x
_atom_site_fract_y
_atom_site_fract_z
Si Si1 0.815267 0.698252 0.171035
Si Si2 0.684291 0.533591 0.171713
Si Si3 0.316383 0.768098 0.429546
Si Si4 0.315592 0.887583 0.911176
Si Si5 0.815597 0.632257 0.935185
Si Si6 0.684399 0.434748 0.171919
O O1 0.772213 0.697377 0.250000
O O2 0.744127 0.738310 0.130964
O O3 0.768508 0.654019 0.133298
O O4 0.000000 0.701140 0.166744
O O5 0.729536 0.542512 0.250000
O O6 0.500000 0.535407 0.168874
O O7 0.752590 0.569019 0.122113
O O8 0.730298 0.484233 0.155561
O O9 0.500000 0.766321 0.432632
O O10 0.250000 0.750000 0.500000
O O11 0.269865 0.818149 0.421751
O O12 0.500000 0.889032 0.910223
O O13 0.266059 0.880798 0.988821
O O14 0.751454 0.599489 0.879935
O O15 0.000000 0.630660 0.933656
O O16 0.729982 0.425997 0.250000
O O17 0.500000 0.433196 0.169340
#
# Coordination Sequence:
#
# PCOD9473006 Si02
#       6
#    16  16  16  16  16  16
#     4  10  21  38  59  84 116 151 188 232 281 335
#     4   9  19  36  56  80 112 147 185 231 278 326
#     4  11  22  39  60  81 112 150 189 232 282 336
#     4  10  20  36  56  81 114 149 185 225 276 335
#     4  10  22  38  57  82 112 145 184 230 277 331
#     4   9  20  39  59  80 110 147 187 231 278 331
#
# _framework density 17.986996999999999
#
# number of rings (size 3 to 8) (size 9 to 14) (size 15 to 20)
#    0.000    2.167    1.667    2.000    0.000    6.333 
#    0.000    8.333    0.000    0.000    0.000    0.000 
#    0.000    0.000    0.000    0.000    0.000    0.000 
#
# Total GULP energy -267987.379369 kJ/mol
# GULP energy per Si atom -5583.070404 kJ/mol
# Density = 1.794606 g / cm^3
# Si number density = 17.986997 Si / 1000 Ang^3
#
#
#
# Elastic Constant Matrix: (Units=GPa)
#
#
# Indices 1 2 3 4 5 6 
#
# 1 13.8516 40.2372 40.2239 0.0000 0.0000 0.0000
# 2 40.2372 194.5343 136.7162 0.0000 0.0000 0.0000
# 3 40.2239 136.7162 173.6318 0.0000 0.0000 0.0000
# 4 0.0000 0.0000 0.0000 41.9265 0.0000 0.0000
# 5 0.0000 0.0000 0.0000 0.0000 33.3380 0.0000
# 6 0.0000 0.0000 0.0000 0.0000 0.0000 36.8274
#
#
#
# Elastic Compliance Matrix: (Units=1/GPa)
#
#
# Indices 1 2 3 4 5 6 
#
# 1 0.271084 -0.026724 -0.041758 0.000000 0.000000 0.000000
# 2 -0.026724 0.014144 -0.004946 0.000000 0.000000 0.000000
# 3 -0.041758 -0.004946 0.019327 0.000000 0.000000 0.000000
# 4 0.000000 0.000000 0.000000 0.023851 0.000000 0.000000
# 5 0.000000 0.000000 0.000000 0.000000 0.029996 0.000000
# 6 0.000000 0.000000 0.000000 0.000000 0.000000 0.027154
#
#
# Mechanical properties :
#
#
# Convention : Reuss Voigt Hill
#
# Bulk Modulus (GPa) = 6.34114 90.70807 48.52460
# Shear Modulus (GPa) = 8.54732 33.40775 20.97754
#
# Velocity S-wave (km/s) = 2.18226 4.31435 3.41876
# Velocity P-wave (km/s) = 3.14368 8.68086 6.52841
#
# Compressibility (1/GPa) = 0.15770041
#
# Stress axis : x y z
#
# Youngs Moduli (GPa) = 3.68889 70.70187 51.73993
#
# Poissons Ratio (x) = 1.88942 2.16056
# Poissons Ratio (y) = 0.09858 0.25590
# Poissons Ratio (z) = 0.15404 0.34968
#
# Static dielectric constant tensor:
#      x y z
#    x 1.611530 0.000000 0.000000 
#    y 0.000000 1.592900 0.000000 
#    z 0.000000 0.000000 1.593960 
# 
# From -- ./inp_files/51281.got.cif
#   From: 2010.05.17/outbox.cif.g08.bks.cpg/sg63_26_cif.got.tgz:51281.got - 2010.06.03 15:47:04.
