data_PCOD9473425
_publ_section_title
;
Structure prediction by ZEFSAII (Michael W. Deem and Ramdas Pophale) SiO2 
 PCOD9473425
Probable space group: C M C M
;
_chemical_formula_sum "Si O2"
_cell_formula_units_Z 64
_cell_length_a 17.037495
_cell_length_b 10.909050
_cell_length_c 13.866281
_cell_angle_alpha 90.000000
_cell_angle_beta 90.000000
_cell_angle_gamma 90.000000
_cell_volume 2577.226989
_symmetry_space_group_name_H-M "C M C M"
_symmetry_group_IT_number 63
_symmetry_cell_setting 'orthorhombic'
loop_
_space_group_symop_operation_xyz
x,y,z
-x,-y,1/2+z
x,-y,-z
-x,y,1/2-z
-x,-y,-z
x,y,1/2-z
-x,y,z
x,-y,1/2+z
1/2+x,1/2+y,z
1/2-x,1/2-y,1/2+z
1/2+x,1/2-y,-z
1/2-x,1/2+y,1/2-z
1/2-x,1/2-y,-z
1/2+x,1/2+y,1/2-z
1/2-x,1/2+y,z
1/2+x,1/2-y,1/2+z
loop_
_atom_site_type_symbol
_atom_site_label
_atom_site_fract_x
_atom_site_fract_y
_atom_site_fract_z
Si Si1 0.656988 0.603091 0.363118
Si Si2 0.089376 0.629185 0.134433
Si Si3 0.372116 0.859241 0.139482
Si Si4 0.193365 0.852683 0.074210
O O1 0.683675 0.615226 0.250000
O O2 0.600210 0.719757 0.381506
O O3 0.639119 0.460013 0.378911
O O4 0.708645 0.620824 0.460799
O O5 0.103737 0.634037 0.250000
O O6 0.100501 0.489103 0.099794
O O7 0.147370 0.726574 0.087560
O O8 0.000000 0.664985 0.115695
O O9 0.393669 0.872397 0.250000
O O10 0.277367 0.855736 0.126996
#
# Coordination Sequence:
#
# PCOD9473425 Si02
#       4
#    16  16  16  16
#     4  10  22  38  58  90 127 163 211 272 329 381
#     4  10  22  41  65  96 135 175 214 261 322 390
#     4  10  20  37  63  93 127 168 215 267 322 383
#     4  11  21  37  64  92 122 167 220 268 318 383
#
# _framework density 24.832891
#
# number of rings (size 3 to 8) (size 9 to 14) (size 15 to 20)
#    0.000    1.750    0.000    4.500    0.000    7.000 
#    0.000    6.250    0.000    8.250    0.000    0.000 
#    0.000    0.000    0.000    0.000    0.000    0.000 
#
# Total GULP energy -178186.928872 kJ/mol
# GULP energy per Si atom -5568.341527 kJ/mol
# Density = 2.477637 g / cm^3
# Si number density = 24.832891 Si / 1000 Ang^3
#
#
#
# Elastic Constant Matrix: (Units=GPa)
#
#
# Indices 1 2 3 4 5 6 
#
# 1 58.7287 53.4717 20.3391 0.0000 0.0000 0.0000
# 2 53.4717 203.5623 41.3604 0.0000 0.0000 0.0000
# 3 20.3391 41.3604 150.2750 0.0000 0.0000 0.0000
# 4 0.0000 0.0000 0.0000 33.0075 0.0000 0.0000
# 5 0.0000 0.0000 0.0000 0.0000 1.5667 0.0000
# 6 0.0000 0.0000 0.0000 0.0000 0.0000 34.4406
#
#
#
# Elastic Compliance Matrix: (Units=1/GPa)
#
#
# Indices 1 2 3 4 5 6 
#
# 1 0.022701 -0.005655 -0.001516 0.000000 0.000000 0.000000
# 2 -0.005655 0.006612 -0.001054 0.000000 0.000000 0.000000
# 3 -0.001516 -0.001054 0.007150 0.000000 0.000000 0.000000
# 4 0.000000 0.000000 0.000000 0.030296 0.000000 0.000000
# 5 0.000000 0.000000 0.000000 0.000000 0.638265 0.000000
# 6 0.000000 0.000000 0.000000 0.000000 0.000000 0.029036
#
#
# Mechanical properties :
#
#
# Convention : Reuss Voigt Hill
#
# Bulk Modulus (GPa) = 49.96971 71.43428 60.70200
# Shear Modulus (GPa) = 6.60343 33.62929 20.11636
#
# Velocity S-wave (km/s) = 1.63246 3.68397 2.84926
# Velocity P-wave (km/s) = 4.87025 6.85011 5.94320
#
# Compressibility (1/GPa) = 0.02001212
#
# Stress axis : x y z
#
# Youngs Moduli (GPa) = 44.05004 151.23424 139.86233
#
# Poissons Ratio (x) = 0.85526 0.21204
# Poissons Ratio (y) = 0.24911 0.14748
# Poissons Ratio (z) = 0.06678 0.15948
#
# Static dielectric constant tensor:
#      x y z
#    x 1.890750 0.000000 0.000000 
#    y 0.000000 2.128550 0.000000 
#    z 0.000000 0.000000 2.061540 
# 
# From -- ./inp_files/33367.got.cif
#   From: 2010.05.17/outbox.cif.g08.bks.cpg/sg63_17_cif.got.tgz:33367.got - 2010.06.03 15:47:04.
