data_PCOD9473597
_publ_section_title
;
Structure prediction by ZEFSAII (Michael W. Deem and Ramdas Pophale) SiO2 
 PCOD9473597
Probable space group: C M C M
;
_chemical_formula_sum "Si O2"
_cell_formula_units_Z 80
_cell_length_a 9.030472
_cell_length_b 25.398479
_cell_length_c 18.773149
_cell_angle_alpha 90.000000
_cell_angle_beta 90.000000
_cell_angle_gamma 90.000000
_cell_volume 4305.814213
_symmetry_space_group_name_H-M "C M C M"
_symmetry_group_IT_number 63
_symmetry_cell_setting 'orthorhombic'
loop_
_space_group_symop_operation_xyz
x,y,z
-x,-y,1/2+z
x,-y,-z
-x,y,1/2-z
-x,-y,-z
x,y,1/2-z
-x,y,z
x,-y,1/2+z
1/2+x,1/2+y,z
1/2-x,1/2-y,1/2+z
1/2+x,1/2-y,-z
1/2-x,1/2+y,1/2-z
1/2-x,1/2-y,-z
1/2+x,1/2+y,1/2-z
1/2-x,1/2+y,z
1/2+x,1/2-y,1/2+z
loop_
_atom_site_type_symbol
_atom_site_label
_atom_site_fract_x
_atom_site_fract_y
_atom_site_fract_z
Si Si1 0.322278 0.606341 0.581578
Si Si2 0.822895 0.516049 0.832319
Si Si3 0.822788 0.770789 0.427244
Si Si4 0.823378 0.815827 0.666651
Si Si5 0.322332 0.578059 0.419629
O O1 0.500000 0.601419 0.590035
O O2 0.240910 0.571135 0.639556
O O3 0.284293 0.668040 0.584500
O O4 0.284412 0.584916 0.502613
O O5 0.780295 0.506929 0.750000
O O6 0.756745 0.470407 0.881934
O O7 0.000000 0.516002 0.837084
O O8 0.750000 0.750000 0.500000
O O9 0.763606 0.733640 0.364677
O O10 0.000000 0.767330 0.433438
O O11 0.793517 0.824140 0.750000
O O12 0.785240 0.867926 0.621639
O O13 0.000000 0.807059 0.657682
O O14 0.500000 0.570650 0.414821
#
# Coordination Sequence:
#
# PCOD9473597 Si02
#       5
#    16  16  16  16  16
#     4  10  22  40  63  88 115 153 202 245 289 355
#     4  11  25  41  57  85 123 157 195 245 300 353
#     4  11  22  39  62  88 121 157 198 247 295 351
#     4  10  21  38  61  90 124 160 198 243 299 357
#     4  10  20  39  64  88 116 154 200 245 293 354
#
# _framework density 18.579528
#
# number of rings (size 3 to 8) (size 9 to 14) (size 15 to 20)
#    0.000    1.600    2.000    2.400    0.000    9.200 
#    0.000    4.000    0.000    0.000    0.000    0.000 
#    0.000    0.000    0.000    0.000    0.000    0.000 
#
# Total GULP energy -223593.931747 kJ/mol
# GULP energy per Si atom -5589.848294 kJ/mol
# Density = 1.853724 g / cm^3
# Si number density = 18.579528 Si / 1000 Ang^3
#
#
#
# Elastic Constant Matrix: (Units=GPa)
#
#
# Indices 1 2 3 4 5 6 
#
# 1 19.1702 26.5105 8.9334 0.0000 0.0000 0.0000
# 2 26.5105 91.0586 0.6072 0.0000 0.0000 0.0000
# 3 8.9334 0.6072 29.9739 0.0000 0.0000 0.0000
# 4 0.0000 0.0000 0.0000 24.3014 0.0000 0.0000
# 5 0.0000 0.0000 0.0000 0.0000 31.9445 0.0000
# 6 0.0000 0.0000 0.0000 0.0000 0.0000 36.3792
#
#
#
# Elastic Compliance Matrix: (Units=1/GPa)
#
#
# Indices 1 2 3 4 5 6 
#
# 1 0.112441 -0.032517 -0.032853 0.000000 0.000000 0.000000
# 2 -0.032517 0.020387 0.009278 0.000000 0.000000 0.000000
# 3 -0.032853 0.009278 0.042966 0.000000 0.000000 0.000000
# 4 0.000000 0.000000 0.000000 0.041150 0.000000 0.000000
# 5 0.000000 0.000000 0.000000 0.000000 0.031304 0.000000
# 6 0.000000 0.000000 0.000000 0.000000 0.000000 0.027488
#
#
# Mechanical properties :
#
#
# Convention : Reuss Voigt Hill
#
# Bulk Modulus (GPa) = 15.72061 23.58943 19.65502
# Shear Modulus (GPa) = 12.22124 25.46845 18.84484
#
# Velocity S-wave (km/s) = 2.56750 3.70642 3.18823
# Velocity P-wave (km/s) = 4.15561 5.57143 4.91477
#
# Compressibility (1/GPa) = 0.06361076
#
# Stress axis : x y z
#
# Youngs Moduli (GPa) = 8.89352 49.05113 23.27419
#
# Poissons Ratio (x) = 1.59498 0.76464
# Poissons Ratio (y) = 0.28919 -0.21595
# Poissons Ratio (z) = 0.29218 -0.45511
#
# Static dielectric constant tensor:
#      x y z
#    x 1.619050 0.000000 0.000000 
#    y 0.000000 1.618320 0.000000 
#    z 0.000000 0.000000 1.625000 
# 
# From -- ./inp_files/40515.got.cif
#   From: 2010.05.17/outbox.cif.g08.bks.cpg/sg63_21_cif.got.tgz:40515.got - 2010.06.03 15:47:04.
