data_PCOD9473768
_publ_section_title
;
Structure prediction by ZEFSAII (Michael W. Deem and Ramdas Pophale) SiO2 
 PCOD9473768
Probable space group: C M C M
;
_chemical_formula_sum "Si O2"
_cell_formula_units_Z 100
_cell_length_a 18.632359
_cell_length_b 14.467494
_cell_length_c 18.308159
_cell_angle_alpha 90.000000
_cell_angle_beta 90.000000
_cell_angle_gamma 90.000000
_cell_volume 4935.212188
_symmetry_space_group_name_H-M "C M C M"
_symmetry_group_IT_number 63
_symmetry_cell_setting 'orthorhombic'
loop_
_space_group_symop_operation_xyz
x,y,z
-x,-y,1/2+z
x,-y,-z
-x,y,1/2-z
-x,-y,-z
x,y,1/2-z
-x,y,z
x,-y,1/2+z
1/2+x,1/2+y,z
1/2-x,1/2-y,1/2+z
1/2+x,1/2-y,-z
1/2-x,1/2+y,1/2-z
1/2-x,1/2-y,-z
1/2+x,1/2+y,1/2-z
1/2-x,1/2+y,z
1/2+x,1/2-y,1/2+z
loop_
_atom_site_type_symbol
_atom_site_label
_atom_site_fract_x
_atom_site_fract_y
_atom_site_fract_z
Si Si1 0.580549 0.359786 0.461088
Si Si2 0.844416 0.643952 0.880510
Si Si3 0.415741 0.852336 0.961749
Si Si4 0.585138 0.972374 0.828012
Si Si5 0.000000 0.119583 0.250000
Si Si6 0.372468 0.645370 0.369183
Si Si7 0.712811 0.520902 0.584585
O O1 0.500000 0.392797 0.448083
O O2 0.586877 0.253609 0.435619
O O3 0.596434 0.357665 0.547808
O O4 0.638278 0.423873 0.423299
O O5 0.899788 0.580702 0.836182
O O6 0.844801 0.750010 0.856488
O O7 0.770124 0.588287 0.878472
O O8 0.871541 0.641340 0.964217
O O9 0.500000 0.873993 0.977653
O O10 0.386763 0.919959 0.899350
O O11 0.614166 0.939677 0.750000
O O12 0.500000 0.955852 0.828483
O O13 0.063941 0.122549 0.186397
O O14 0.307211 0.571998 0.371958
O O15 0.734683 0.500000 0.500000
#
# Coordination Sequence:
#
# PCOD9473768 Si02
#       7
#    16  16  16  16   4  16  16
#     4   9  18  36  64  93 118 152 210 264 304 359
#     4  11  22  37  60  90 123 156 207 257 311 374
#     4   9  18  34  58  89 119 156 203 258 306 361
#     4  10  21  34  55  83 118 162 206 252 315 374
#     4  12  24  44  66  88 130 166 204 264 302 372
#     4  10  24  38  64  93 122 163 206 253 312 358
#     4  10  22  38  62  93 121 158 200 256 318 364
#
# _framework density 20.262554000000002
#
# number of rings (size 3 to 8) (size 9 to 14) (size 15 to 20)
#    0.000    2.080    0.800    1.920    4.480    9.280 
#    1.440    0.000    1.760    0.000    0.000    0.000 
#    0.000    0.000    0.000    0.000    0.000    0.000 
#
# Total GULP energy -278640.443816 kJ/mol
# GULP energy per Si atom -5572.808876 kJ/mol
# Density = 2.021644 g / cm^3
# Si number density = 20.262554 Si / 1000 Ang^3
#
#
#
# Elastic Constant Matrix: (Units=GPa)
#
#
# Indices 1 2 3 4 5 6 
#
# 1 51.6578 19.7903 6.7786 0.0000 0.0000 0.0000
# 2 19.7903 79.6287 25.6122 0.0000 0.0000 0.0000
# 3 6.7786 25.6122 57.4588 0.0000 0.0000 0.0000
# 4 0.0000 0.0000 0.0000 -4.9573 0.0000 0.0000
# 5 0.0000 0.0000 0.0000 0.0000 -30.2229 0.0000
# 6 0.0000 0.0000 0.0000 0.0000 0.0000 26.6061
#
#
#
# Elastic Compliance Matrix: (Units=1/GPa)
#
#
# Indices 1 2 3 4 5 6 
#
# 1 0.021397 -0.005260 -0.000180 0.000000 0.000000 0.000000
# 2 -0.005260 0.015953 -0.006491 0.000000 0.000000 0.000000
# 3 -0.000180 -0.006491 0.020318 0.000000 0.000000 0.000000
# 4 0.000000 0.000000 0.000000 -0.201722 0.000000 0.000000
# 5 0.000000 0.000000 0.000000 0.000000 -0.033087 0.000000
# 6 0.000000 0.000000 0.000000 0.000000 0.000000 0.037585
#
#
# Mechanical properties :
#
#
# Convention : Reuss Voigt Hill
#
# Bulk Modulus (GPa) = 29.57900 32.56751 31.07325
# Shear Modulus (GPa) = -47.88055 7.38946 -20.24554
#
# Velocity S-wave (km/s) = -4.86635 1.91175 -3.16438
# Velocity P-wave (km/s) = 4.11650 4.58047 1.42040
#
# Compressibility (1/GPa) = 0.03380777
#
# Stress axis : x y z
#
# Youngs Moduli (GPa) = 46.73576 62.68312 49.21714
#
# Poissons Ratio (x) = 0.32972 0.00884
# Poissons Ratio (y) = 0.24583 0.31945
# Poissons Ratio (z) = 0.00839 0.40685
#
# Static dielectric constant tensor:
#      x y z
#    x 1.718510 0.000000 0.000000 
#    y 0.000000 1.747330 0.000000 
#    z 0.000000 0.000000 1.744470 
# 
# From -- ./inp_files/55642.got.cif
#   From: 2010.05.17/outbox.cif.g08.bks.cpg/sg63_28_cif.got.tgz:55642.got - 2010.06.03 15:47:04.
