data_PCOD9473128
_publ_section_title
;
Structure prediction by ZEFSAII (Michael W. Deem and Ramdas Pophale) SiO2 
 PCOD9473128
Probable space group: C M C M
;
_chemical_formula_sum "Si O2"
_cell_formula_units_Z 96
_cell_length_a 17.601924
_cell_length_b 10.614353
_cell_length_c 23.489318
_cell_angle_alpha 90.000000
_cell_angle_beta 90.000000
_cell_angle_gamma 90.000000
_cell_volume 4388.580568
_symmetry_space_group_name_H-M "C M C M"
_symmetry_group_IT_number 63
_symmetry_cell_setting 'orthorhombic'
loop_
_space_group_symop_operation_xyz
x,y,z
-x,-y,1/2+z
x,-y,-z
-x,y,1/2-z
-x,-y,-z
x,y,1/2-z
-x,y,z
x,-y,1/2+z
1/2+x,1/2+y,z
1/2-x,1/2-y,1/2+z
1/2+x,1/2-y,-z
1/2-x,1/2+y,1/2-z
1/2-x,1/2-y,-z
1/2+x,1/2+y,1/2-z
1/2-x,1/2+y,z
1/2+x,1/2-y,1/2+z
loop_
_atom_site_type_symbol
_atom_site_label
_atom_site_fract_x
_atom_site_fract_y
_atom_site_fract_z
Si Si1 0.623631 0.320358 0.185759
Si Si2 0.306822 0.850111 0.184391
Si Si3 0.648953 0.092166 0.110231
Si Si4 0.585535 0.808422 0.994432
Si Si5 0.185199 0.814797 0.584041
Si Si6 0.417694 0.546666 0.576496
O O1 0.596489 0.325611 0.250000
O O2 0.714903 0.343123 0.185880
O O3 0.611498 0.185302 0.156311
O O4 0.587687 0.418739 0.142744
O O5 0.332835 0.856635 0.250000
O O6 0.334470 0.729160 0.148384
O O7 0.329180 0.969039 0.145586
O O8 0.598852 0.084424 0.053372
O O9 0.725141 0.161022 0.086293
O O10 0.500000 0.816807 0.018177
O O11 0.589393 0.677163 0.957687
O O12 0.651123 0.789954 0.041431
O O13 0.146652 0.945024 0.565977
O O14 0.500000 0.489903 0.563801
#
# Coordination Sequence:
#
# PCOD9473128 Si02
#       6
#    16  16  16  16  16  16
#     4   9  18  33  55  82 113 149 192 241 287 336
#     4  10  21  37  58  85 116 152 194 241 288 338
#     4  10  20  37  59  86 113 153 198 239 286 345
#     4  10  22  40  61  85 117 154 194 242 294 349
#     4  11  21  36  58  90 119 151 193 237 294 352
#     4  10  20  36  58  86 119 153 191 239 298 350
#
# _framework density 21.874953000000001
#
# number of rings (size 3 to 8) (size 9 to 14) (size 15 to 20)
#    0.000    2.000    1.667    2.000    0.000    3.667 
#    3.000    2.500    0.000    5.000    0.000    0.000 
#    0.000    0.000    0.000    0.000    0.000    0.000 
#
# Total GULP energy -268009.823542 kJ/mol
# GULP energy per Si atom -5583.537990 kJ/mol
# Density = 2.182516 g / cm^3
# Si number density = 21.874953 Si / 1000 Ang^3
#
#
#
# Elastic Constant Matrix: (Units=GPa)
#
#
# Indices 1 2 3 4 5 6 
#
# 1 39.6315 4.5588 22.1205 0.0000 0.0000 0.0000
# 2 4.5588 42.2522 15.2008 0.0000 0.0000 0.0000
# 3 22.1205 15.2008 151.2947 0.0000 0.0000 0.0000
# 4 0.0000 0.0000 0.0000 33.1086 0.0000 0.0000
# 5 0.0000 0.0000 0.0000 0.0000 -9.1718 0.0000
# 6 0.0000 0.0000 0.0000 0.0000 0.0000 17.9136
#
#
#
# Elastic Compliance Matrix: (Units=1/GPa)
#
#
# Indices 1 2 3 4 5 6 
#
# 1 0.027576 -0.001582 -0.003873 0.000000 0.000000 0.000000
# 2 -0.001582 0.024646 -0.002245 0.000000 0.000000 0.000000
# 3 -0.003873 -0.002245 0.007401 0.000000 0.000000 0.000000
# 4 0.000000 0.000000 0.000000 0.030204 0.000000 0.000000
# 5 0.000000 0.000000 0.000000 0.000000 -0.109030 0.000000
# 6 0.000000 0.000000 0.000000 0.000000 0.000000 0.055823
#
#
# Mechanical properties :
#
#
# Convention : Reuss Voigt Hill
#
# Bulk Modulus (GPa) = 22.61237 35.21543 28.91390
# Shear Modulus (GPa) = 74.89348 21.12330 48.00839
#
# Velocity S-wave (km/s) = 5.85759 3.11084 4.68982
# Velocity P-wave (km/s) = 7.49053 5.38856 6.52475
#
# Compressibility (1/GPa) = 0.04422359
#
# Stress axis : x y z
#
# Youngs Moduli (GPa) = 36.26331 40.57502 135.10925
#
# Poissons Ratio (x) = 0.06419 0.52327
# Poissons Ratio (y) = 0.05737 0.30331
# Poissons Ratio (z) = 0.14044 0.09109
#
# Static dielectric constant tensor:
#      x y z
#    x 1.785100 0.000000 0.000000 
#    y 0.000000 1.812450 0.000000 
#    z 0.000000 0.000000 1.812730 
# 
# From -- ./inp_files/63670.got.cif
#   From: 2010.05.17/outbox.cif.g08.bks.cpg/sg63_32_cif.got.tgz:63670.got - 2010.06.03 15:47:04.
