data_PCOD9473272
_publ_section_title
;
Structure prediction by ZEFSAII (Michael W. Deem and Ramdas Pophale) SiO2 
 PCOD9473272
Probable space group: C M C M
;
_chemical_formula_sum "Si O2"
_cell_formula_units_Z 64
_cell_length_a 21.619976
_cell_length_b 8.567588
_cell_length_c 14.298754
_cell_angle_alpha 90.000000
_cell_angle_beta 90.000000
_cell_angle_gamma 90.000000
_cell_volume 2648.573173
_symmetry_space_group_name_H-M "C M C M"
_symmetry_group_IT_number 63
_symmetry_cell_setting 'orthorhombic'
loop_
_space_group_symop_operation_xyz
x,y,z
-x,-y,1/2+z
x,-y,-z
-x,y,1/2-z
-x,-y,-z
x,y,1/2-z
-x,y,z
x,-y,1/2+z
1/2+x,1/2+y,z
1/2-x,1/2-y,1/2+z
1/2+x,1/2-y,-z
1/2-x,1/2+y,1/2-z
1/2-x,1/2-y,-z
1/2+x,1/2+y,1/2-z
1/2-x,1/2+y,z
1/2+x,1/2-y,1/2+z
loop_
_atom_site_type_symbol
_atom_site_label
_atom_site_fract_x
_atom_site_fract_y
_atom_site_fract_z
Si Si1 0.930383 0.693590 0.144238
Si Si2 0.157575 0.164226 0.250000
Si Si3 0.070526 0.048582 0.399698
Si Si4 0.805829 0.661644 0.447400
Si Si5 0.775589 0.177160 0.750000
O O1 0.916155 0.634183 0.250000
O O2 0.932457 0.882386 0.151693
O O3 0.880837 0.666801 0.062589
O O4 0.000000 0.641584 0.120261
O O5 0.201374 0.313661 0.250000
O O6 0.114698 0.158953 0.341213
O O7 0.195992 0.997752 0.250000
O O8 0.000000 0.106979 0.411024
O O9 0.097059 0.000000 0.500000
O O10 0.796562 0.500000 0.500000
O O11 0.750000 0.750000 0.500000
O O12 0.793580 0.724091 0.341499
#
# Coordination Sequence:
#
# PCOD9473272 Si02
#       5
#    16   8  16  16   8
#     4  10  20  41  68  93 131 179 228 279 338 409
#     4  12  23  40  66  90 131 174 212 262 338 388
#     4  10  20  36  63  94 122 159 218 273 321 386
#     4  12  26  42  68  99 135 177 226 276 341 401
#     4  12  26  44  60  96 140 172 224 274 330 412
#
# _framework density 24.163954
#
# number of rings (size 3 to 8) (size 9 to 14) (size 15 to 20)
#    0.000    1.000    5.000    1.875    3.500    0.500 
#    0.000    0.000    0.000    0.000    0.000    3.500 
#    0.000    0.000    0.000    0.000    0.000    0.000 
#
# Total GULP energy -178210.866958 kJ/mol
# GULP energy per Si atom -5569.089592 kJ/mol
# Density = 2.410896 g / cm^3
# Si number density = 24.163954 Si / 1000 Ang^3
#
#
#
# Elastic Constant Matrix: (Units=GPa)
#
#
# Indices 1 2 3 4 5 6 
#
# 1 178.5927 27.4108 46.7463 0.0000 0.0000 0.0000
# 2 27.4108 46.5519 9.6369 0.0000 0.0000 0.0000
# 3 46.7463 9.6369 138.2236 0.0000 0.0000 0.0000
# 4 0.0000 0.0000 0.0000 10.3762 0.0000 0.0000
# 5 0.0000 0.0000 0.0000 0.0000 35.5559 0.0000
# 6 0.0000 0.0000 0.0000 0.0000 0.0000 22.7525
#
#
#
# Elastic Compliance Matrix: (Units=1/GPa)
#
#
# Indices 1 2 3 4 5 6 
#
# 1 0.006664 -0.003508 -0.002009 0.000000 0.000000 0.000000
# 2 -0.003508 0.023642 -0.000462 0.000000 0.000000 0.000000
# 3 -0.002009 -0.000462 0.007946 0.000000 0.000000 0.000000
# 4 0.000000 0.000000 0.000000 0.096374 0.000000 0.000000
# 5 0.000000 0.000000 0.000000 0.000000 0.028125 0.000000
# 6 0.000000 0.000000 0.000000 0.000000 0.000000 0.043951
#
#
# Mechanical properties :
#
#
# Convention : Reuss Voigt Hill
#
# Bulk Modulus (GPa) = 38.03045 58.99515 48.51280
# Shear Modulus (GPa) = 21.98525 32.37519 27.18022
#
# Velocity S-wave (km/s) = 3.01962 3.66432 3.35748
# Velocity P-wave (km/s) = 5.28490 6.50926 5.92877
#
# Compressibility (1/GPa) = 0.02629472
#
# Stress axis : x y z
#
# Youngs Moduli (GPa) = 150.06971 42.29672 125.84466
#
# Poissons Ratio (x) = 0.14837 0.25282
# Poissons Ratio (y) = 0.52641 0.05815
# Poissons Ratio (z) = 0.30149 0.01954
#
# Static dielectric constant tensor:
#      x y z
#    x 2.161580 0.000000 0.000000 
#    y 0.000000 1.900680 0.000000 
#    z 0.000000 0.000000 2.059680 
# 
# From -- ./inp_files/36239.got.cif
#   From: 2010.05.17/outbox.cif.g08.bks.cpg/sg63_19_cif.got.tgz:36239.got - 2010.06.03 15:47:04.
