data_PCOD9473815
_publ_section_title
;
Structure prediction by ZEFSAII (Michael W. Deem and Ramdas Pophale) SiO2 
 PCOD9473815
Probable space group: C M C M
;
_chemical_formula_sum "Si O2"
_cell_formula_units_Z 80
_cell_length_a 21.497170
_cell_length_b 13.815234
_cell_length_c 14.943645
_cell_angle_alpha 90.000000
_cell_angle_beta 90.000000
_cell_angle_gamma 90.000000
_cell_volume 4438.089725
_symmetry_space_group_name_H-M "C M C M"
_symmetry_group_IT_number 63
_symmetry_cell_setting 'orthorhombic'
loop_
_space_group_symop_operation_xyz
x,y,z
-x,-y,1/2+z
x,-y,-z
-x,y,1/2-z
-x,-y,-z
x,y,1/2-z
-x,y,z
x,-y,1/2+z
1/2+x,1/2+y,z
1/2-x,1/2-y,1/2+z
1/2+x,1/2-y,-z
1/2-x,1/2+y,1/2-z
1/2-x,1/2-y,-z
1/2+x,1/2+y,1/2-z
1/2-x,1/2+y,z
1/2+x,1/2-y,1/2+z
loop_
_atom_site_type_symbol
_atom_site_label
_atom_site_fract_x
_atom_site_fract_y
_atom_site_fract_z
Si Si1 0.823864 0.413139 0.856831
Si Si2 0.637202 0.867440 0.145680
Si Si3 0.692003 0.664191 0.355601
Si Si4 0.069657 0.687633 0.028548
Si Si5 0.069214 0.894931 0.544230
O O1 0.828005 0.393763 0.750000
O O2 0.833214 0.527773 0.869415
O O3 0.756573 0.378252 0.891174
O O4 0.878334 0.357865 0.908505
O O5 0.616852 0.861473 0.250000
O O6 0.685526 0.779598 0.130319
O O7 0.583845 0.848591 0.072675
O O8 0.692341 0.646468 0.250000
O O9 0.629189 0.618098 0.394045
O O10 0.073579 0.804419 0.024293
O O11 0.000000 0.659375 0.055382
O O12 0.000000 0.884572 0.587094
O O13 0.071422 0.000000 0.500000
#
# Coordination Sequence:
#
# PCOD9473815 Si02
#       5
#    16  16  16  16  16
#     4  10  21  35  52  78 109 138 173 215 256 306
#     4   9  19  35  54  78 105 132 171 219 259 302
#     4   9  19  35  54  76 102 135 174 214 257 304
#     4  10  21  36  54  76 104 139 175 212 260 312
#     4   9  19  35  54  78 105 132 169 215 260 310
#
# _framework density 18.025773000000001
#
# number of rings (size 3 to 8) (size 9 to 14) (size 15 to 20)
#    0.000    2.600    0.000    0.600    0.000    9.200 
#    0.000    9.000    0.000    3.600    0.000    0.000 
#    0.000    0.000    0.000    0.000    0.000    0.000 
#
# Total GULP energy -222906.976277 kJ/mol
# GULP energy per Si atom -5572.674407 kJ/mol
# Density = 1.798475 g / cm^3
# Si number density = 18.025773 Si / 1000 Ang^3
#
#
#
# Elastic Constant Matrix: (Units=GPa)
#
#
# Indices 1 2 3 4 5 6 
#
# 1 176.4200 82.3581 49.9831 0.0000 0.0000 0.0000
# 2 82.3581 114.4140 45.5068 0.0000 0.0000 0.0000
# 3 49.9831 45.5068 37.9094 0.0000 0.0000 0.0000
# 4 0.0000 0.0000 0.0000 14.7220 0.0000 0.0000
# 5 0.0000 0.0000 0.0000 0.0000 40.9346 0.0000
# 6 0.0000 0.0000 0.0000 0.0000 0.0000 12.7098
#
#
#
# Elastic Compliance Matrix: (Units=1/GPa)
#
#
# Indices 1 2 3 4 5 6 
#
# 1 0.009789 -0.003661 -0.008512 0.000000 0.000000 0.000000
# 2 -0.003661 0.018095 -0.016895 0.000000 0.000000 0.000000
# 3 -0.008512 -0.016895 0.057883 0.000000 0.000000 0.000000
# 4 0.000000 0.000000 0.000000 0.067926 0.000000 0.000000
# 5 0.000000 0.000000 0.000000 0.000000 0.024429 0.000000
# 6 0.000000 0.000000 0.000000 0.000000 0.000000 0.078680
#
#
# Mechanical properties :
#
#
# Convention : Reuss Voigt Hill
#
# Bulk Modulus (GPa) = 36.19111 76.04880 56.11996
# Shear Modulus (GPa) = 15.42511 23.73295 19.57903
#
# Velocity S-wave (km/s) = 2.92845 3.63245 3.29928
# Velocity P-wave (km/s) = 5.61742 7.73779 6.76125
#
# Compressibility (1/GPa) = 0.02763109
#
# Stress axis : x y z
#
# Youngs Moduli (GPa) = 102.15692 55.26413 17.27633
#
# Poissons Ratio (x) = 0.20230 0.14706
# Poissons Ratio (y) = 0.37396 0.29188
# Poissons Ratio (z) = 0.86958 0.93368
#
# Static dielectric constant tensor:
#      x y z
#    x 1.612810 0.000000 0.000000 
#    y 0.000000 1.619180 0.000000 
#    z 0.000000 0.000000 1.618650 
# 
# From -- ./inp_files/56652.got.cif
#   From: 2010.05.17/outbox.cif.g08.bks.cpg/sg63_29_cif.got.tgz:56652.got - 2010.06.03 15:47:04.
