data_PCOD9473903
_publ_section_title
;
Structure prediction by ZEFSAII (Michael W. Deem and Ramdas Pophale) SiO2 
 PCOD9473903
Probable space group: C M C M
;
_chemical_formula_sum "Si O2"
_cell_formula_units_Z 72
_cell_length_a 14.528775
_cell_length_b 25.666297
_cell_length_c 9.280718
_cell_angle_alpha 90.000000
_cell_angle_beta 90.000000
_cell_angle_gamma 90.000000
_cell_volume 3460.778389
_symmetry_space_group_name_H-M "C M C M"
_symmetry_group_IT_number 63
_symmetry_cell_setting 'orthorhombic'
loop_
_space_group_symop_operation_xyz
x,y,z
-x,-y,1/2+z
x,-y,-z
-x,y,1/2-z
-x,-y,-z
x,y,1/2-z
-x,y,z
x,-y,1/2+z
1/2+x,1/2+y,z
1/2-x,1/2-y,1/2+z
1/2+x,1/2-y,-z
1/2-x,1/2+y,1/2-z
1/2-x,1/2-y,-z
1/2+x,1/2+y,1/2-z
1/2-x,1/2+y,z
1/2+x,1/2-y,1/2+z
loop_
_atom_site_type_symbol
_atom_site_label
_atom_site_fract_x
_atom_site_fract_y
_atom_site_fract_z
Si Si1 0.500000 0.942452 0.426872
Si Si2 0.107309 0.955162 0.404476
Si Si3 0.867766 0.638265 0.080086
Si Si4 0.152035 0.258507 0.078226
Si Si5 0.645012 0.358347 0.588103
O O1 0.500000 0.944516 0.250000
O O2 0.586141 0.908713 0.490772
O O3 0.500000 0.000000 0.500000
O O4 0.153125 0.953518 0.250000
O O5 0.108853 0.899360 0.476273
O O6 0.000000 0.969090 0.387927
O O7 0.151869 0.000000 0.500000
O O8 0.893366 0.636816 0.250000
O O9 0.756344 0.638210 0.076945
O O10 0.893543 0.692964 0.002734
O O11 0.162131 0.269314 0.250000
O O12 0.110840 0.200574 0.066129
O O13 0.250000 0.250000 0.000000
O O14 0.619574 0.374502 0.750000
#
# Coordination Sequence:
#
# PCOD9473903 Si02
#       5
#     8  16  16  16  16
#     4  12  26  44  64  86 116 156 201 248 301 354
#     4  10  21  36  54  77 108 146 186 230 281 333
#     4  10  21  39  61  86 116 151 192 240 293 346
#     4   9  17  32  55  84 115 148 185 230 286 342
#     4   9  19  35  58  86 115 149 189 233 284 343
#
# _framework density 20.804569000000001
#
# number of rings (size 3 to 8) (size 9 to 14) (size 15 to 20)
#    0.000    2.222    0.000    4.333    0.000    7.556 
#    2.000    0.000    0.000    0.000    0.000    0.000 
#    0.000    0.000    0.000    0.000    0.000    0.000 
#
# Total GULP energy -200690.356126 kJ/mol
# GULP energy per Si atom -5574.732115 kJ/mol
# Density = 2.075722 g / cm^3
# Si number density = 20.804569 Si / 1000 Ang^3
#
#
#
# Elastic Constant Matrix: (Units=GPa)
#
#
# Indices 1 2 3 4 5 6 
#
# 1 62.4958 15.5822 18.0569 0.0000 0.0000 0.0000
# 2 15.5822 155.3409 115.7087 0.0000 0.0000 0.0000
# 3 18.0569 115.7087 205.4786 0.0000 0.0000 0.0000
# 4 0.0000 0.0000 0.0000 35.1149 0.0000 0.0000
# 5 0.0000 0.0000 0.0000 0.0000 11.1114 0.0000
# 6 0.0000 0.0000 0.0000 0.0000 0.0000 26.3730
#
#
#
# Elastic Compliance Matrix: (Units=1/GPa)
#
#
# Indices 1 2 3 4 5 6 
#
# 1 0.016506 -0.000991 -0.000893 0.000000 0.000000 0.000000
# 2 -0.000991 0.011148 -0.006191 0.000000 0.000000 0.000000
# 3 -0.000893 -0.006191 0.008431 0.000000 0.000000 0.000000
# 4 0.000000 0.000000 0.000000 0.028478 0.000000 0.000000
# 5 0.000000 0.000000 0.000000 0.000000 0.089998 0.000000
# 6 0.000000 0.000000 0.000000 0.000000 0.000000 0.037918
#
#
# Mechanical properties :
#
#
# Convention : Reuss Voigt Hill
#
# Bulk Modulus (GPa) = 50.15749 80.22342 65.19046
# Shear Modulus (GPa) = 23.22643 32.78436 28.00539
#
# Velocity S-wave (km/s) = 3.34490 3.97397 3.67293
# Velocity P-wave (km/s) = 6.25132 7.72663 7.02780
#
# Compressibility (1/GPa) = 0.01993720
#
# Stress axis : x y z
#
# Youngs Moduli (GPa) = 60.58397 89.70210 118.60797
#
# Poissons Ratio (x) = 0.08889 0.10586
# Poissons Ratio (y) = 0.06003 0.73425
# Poissons Ratio (z) = 0.05407 0.55531
#
# Static dielectric constant tensor:
#      x y z
#    x 1.843330 0.000000 0.000000 
#    y 0.000000 1.724970 0.000000 
#    z 0.000000 0.000000 1.766070 
# 
# From -- ./inp_files/4602.got.cif
#   From: 2010.05.17/outbox.cif.g08.bks.cpg/sg63_3_cif.got.tgz:4602.got - 2010.06.03 15:47:04.
