data_PCOD9473740
_publ_section_title
;
Structure prediction by ZEFSAII (Michael W. Deem and Ramdas Pophale) SiO2 
 PCOD9473740
Probable space group: C M C M
;
_chemical_formula_sum "Si O2"
_cell_formula_units_Z 96
_cell_length_a 14.486852
_cell_length_b 26.968201
_cell_length_c 13.650696
_cell_angle_alpha 90.000000
_cell_angle_beta 90.000000
_cell_angle_gamma 90.000000
_cell_volume 5333.113111
_symmetry_space_group_name_H-M "C M C M"
_symmetry_group_IT_number 63
_symmetry_cell_setting 'orthorhombic'
loop_
_space_group_symop_operation_xyz
x,y,z
-x,-y,1/2+z
x,-y,-z
-x,y,1/2-z
-x,-y,-z
x,y,1/2-z
-x,y,z
x,-y,1/2+z
1/2+x,1/2+y,z
1/2-x,1/2-y,1/2+z
1/2+x,1/2-y,-z
1/2-x,1/2+y,1/2-z
1/2-x,1/2-y,-z
1/2+x,1/2+y,1/2-z
1/2-x,1/2+y,z
1/2+x,1/2-y,1/2+z
loop_
_atom_site_type_symbol
_atom_site_label
_atom_site_fract_x
_atom_site_fract_y
_atom_site_fract_z
Si Si1 0.280739 0.054429 0.978872
Si Si2 0.607360 0.582550 0.865730
Si Si3 0.889672 0.706543 0.457134
Si Si4 0.610868 0.137395 0.637885
Si Si5 0.390947 0.319257 0.015349
Si Si6 0.751018 0.136410 0.136775
O O1 0.180783 0.050924 0.926606
O O2 0.342415 0.088533 0.907460
O O3 0.269794 0.085742 0.078577
O O4 0.318121 0.000000 0.000000
O O5 0.621979 0.577824 0.750000
O O6 0.500000 0.570793 0.887228
O O7 0.623633 0.639368 0.900919
O O8 0.866826 0.682288 0.563366
O O9 0.862451 0.764036 0.454398
O O10 0.835389 0.673100 0.379957
O O11 0.000000 0.703091 0.443278
O O12 0.640413 0.145811 0.750000
O O13 0.500000 0.131891 0.636972
O O14 0.500000 0.317609 0.993895
O O15 0.334727 0.337780 0.921587
O O16 0.770288 0.128587 0.250000
#
# Coordination Sequence:
#
# PCOD9473740 Si02
#       6
#    16  16  16  16  16  16
#     4  10  21  36  54  72  96 130 167 208 254 300
#     4   9  18  33  53  77 102 128 163 206 248 292
#     4   9  18  33  52  75 104 136 167 199 239 289
#     4   9  18  33  53  77 102 128 163 206 248 292
#     4   9  18  33  52  75 104 136 167 199 239 289
#     4  10  21  34  48  72 104 134 167 206 246 290
#
# _framework density 18.000743
#
# number of rings (size 3 to 8) (size 9 to 14) (size 15 to 20)
#    0.000    2.667    0.000    1.000    0.000    4.000 
#    0.000    3.333    0.000    0.000    0.000    0.000 
#    0.000    0.000    0.000    0.000    0.000    0.000 
#
# Total GULP energy -267757.474787 kJ/mol
# GULP energy per Si atom -5578.280725 kJ/mol
# Density = 1.795977 g / cm^3
# Si number density = 18.000743 Si / 1000 Ang^3
#
#
#
# Elastic Constant Matrix: (Units=GPa)
#
#
# Indices 1 2 3 4 5 6 
#
# 1 23.3570 -0.1546 3.2872 0.0000 0.0000 0.0000
# 2 -0.1546 47.9336 -9.6609 0.0000 0.0000 0.0000
# 3 3.2872 -9.6609 65.1463 0.0000 0.0000 0.0000
# 4 0.0000 0.0000 0.0000 4.7490 0.0000 0.0000
# 5 0.0000 0.0000 0.0000 0.0000 7.1539 0.0000
# 6 0.0000 0.0000 0.0000 0.0000 0.0000 16.4238
#
#
#
# Elastic Compliance Matrix: (Units=1/GPa)
#
#
# Indices 1 2 3 4 5 6 
#
# 1 0.043124 -0.000309 -0.002222 0.000000 0.000000 0.000000
# 2 -0.000309 0.021507 0.003205 0.000000 0.000000 0.000000
# 3 -0.002222 0.003205 0.015937 0.000000 0.000000 0.000000
# 4 0.000000 0.000000 0.000000 0.210571 0.000000 0.000000
# 5 0.000000 0.000000 0.000000 0.000000 0.139784 0.000000
# 6 0.000000 0.000000 0.000000 0.000000 0.000000 0.060887
#
#
# Mechanical properties :
#
#
# Convention : Reuss Voigt Hill
#
# Bulk Modulus (GPa) = 12.20733 13.70891 12.95812
# Shear Modulus (GPa) = 9.65684 15.19636 12.42660
#
# Velocity S-wave (km/s) = 2.31869 2.90868 2.63028
# Velocity P-wave (km/s) = 3.73694 4.34889 4.05448
#
# Compressibility (1/GPa) = 0.08191799
#
# Stress axis : x y z
#
# Youngs Moduli (GPa) = 23.18876 46.49613 62.74521
#
# Poissons Ratio (x) = 0.01435 0.13941
# Poissons Ratio (y) = 0.00716 -0.20110
# Poissons Ratio (z) = 0.05152 -0.14902
#
# Static dielectric constant tensor:
#      x y z
#    x 1.644260 0.000000 0.000000 
#    y 0.000000 1.607680 0.000000 
#    z 0.000000 0.000000 1.583410 
# 
# From -- ./inp_files/21323.got.cif
#   From: 2010.05.17/outbox.cif.g08.bks.cpg/sg63_11_cif.got.tgz:21323.got - 2010.06.03 15:47:04.
