data_PCOD9473699
_publ_section_title
;
Structure prediction by ZEFSAII (Michael W. Deem and Ramdas Pophale) SiO2 
 PCOD9473699
Probable space group: C M C M
;
_chemical_formula_sum "Si O2"
_cell_formula_units_Z 96
_cell_length_a 7.672969
_cell_length_b 28.963425
_cell_length_c 23.607327
_cell_angle_alpha 90.000000
_cell_angle_beta 90.000000
_cell_angle_gamma 90.000000
_cell_volume 5246.385226
_symmetry_space_group_name_H-M "C M C M"
_symmetry_group_IT_number 63
_symmetry_cell_setting 'orthorhombic'
loop_
_space_group_symop_operation_xyz
x,y,z
-x,-y,1/2+z
x,-y,-z
-x,y,1/2-z
-x,-y,-z
x,y,1/2-z
-x,y,z
x,-y,1/2+z
1/2+x,1/2+y,z
1/2-x,1/2-y,1/2+z
1/2+x,1/2-y,-z
1/2-x,1/2+y,1/2-z
1/2-x,1/2-y,-z
1/2+x,1/2+y,1/2-z
1/2-x,1/2+y,z
1/2+x,1/2-y,1/2+z
loop_
_atom_site_type_symbol
_atom_site_label
_atom_site_fract_x
_atom_site_fract_y
_atom_site_fract_z
Si Si1 0.207440 0.303958 0.003535
Si Si2 0.000000 0.758044 0.182037
Si Si3 0.212673 0.053440 0.000066
Si Si4 0.794569 0.189424 0.182341
Si Si5 0.800121 0.123474 0.090608
Si Si6 0.500000 0.367006 0.182827
Si Si7 0.799135 0.375984 0.401931
O O1 0.293165 0.333643 0.953386
O O2 0.000000 0.309566 0.997261
O O3 0.250000 0.250000 0.000000
O O4 0.255171 0.330220 0.061953
O O5 0.173213 0.731557 0.162243
O O6 0.000000 0.811944 0.172569
O O7 0.000000 0.752744 0.250000
O O8 0.281243 0.082234 0.946658
O O9 0.000000 0.056475 0.998310
O O10 0.276533 0.080612 0.056120
O O11 0.261406 0.000000 0.000000
O O12 0.780204 0.184126 0.250000
O O13 0.729742 0.144232 0.148829
O O14 0.000000 0.197258 0.169549
O O15 0.000000 0.110960 0.102390
O O16 0.500000 0.375917 0.250000
O O17 0.328992 0.384400 0.150210
O O18 0.000000 0.370565 0.384637
#
# Coordination Sequence:
#
# PCOD9473699 Si02
#       7
#    16   8  16  16  16   8  16
#     4  10  21  31  47  74 106 144 175 217 275 321
#     4   9  20  34  50  73 100 144 188 218 259 308
#     4   9  17  34  60  85 111 141 178 225 280 341
#     4   9  18  32  49  71 103 140 179 222 263 312
#     4   9  18  30  47  74 103 135 176 214 264 324
#     4  11  24  40  59  79 109 152 194 234 274 318
#     4  10  22  38  56  83 113 143 186 232 280 337
#
# _framework density 18.298314000000001
#
# number of rings (size 3 to 8) (size 9 to 14) (size 15 to 20)
#    0.000    2.500    0.833    0.500    5.833    1.333 
#    0.000    1.667    0.000    1.000    0.000    0.000 
#    0.000    0.000    0.000    0.000    0.000    0.000 
#
# Total GULP energy -267633.644624 kJ/mol
# GULP energy per Si atom -5575.700930 kJ/mol
# Density = 1.825667 g / cm^3
# Si number density = 18.298314 Si / 1000 Ang^3
#
#
#
# Elastic Constant Matrix: (Units=GPa)
#
#
# Indices 1 2 3 4 5 6 
#
# 1 67.1891 4.0691 30.1842 0.0000 0.0000 0.0000
# 2 4.0691 94.3851 11.8801 0.0000 0.0000 0.0000
# 3 30.1842 11.8801 63.6967 0.0000 0.0000 0.0000
# 4 0.0000 0.0000 0.0000 16.1897 0.0000 0.0000
# 5 0.0000 0.0000 0.0000 0.0000 1.5293 0.0000
# 6 0.0000 0.0000 0.0000 0.0000 0.0000 22.0494
#
#
#
# Elastic Compliance Matrix: (Units=1/GPa)
#
#
# Indices 1 2 3 4 5 6 
#
# 1 0.018918 0.000320 -0.009025 0.000000 0.000000 0.000000
# 2 0.000320 0.010855 -0.002176 0.000000 0.000000 0.000000
# 3 -0.009025 -0.002176 0.020382 0.000000 0.000000 0.000000
# 4 0.000000 0.000000 0.000000 0.061768 0.000000 0.000000
# 5 0.000000 0.000000 0.000000 0.000000 0.653876 0.000000
# 6 0.000000 0.000000 0.000000 0.000000 0.000000 0.045353
#
#
# Mechanical properties :
#
#
# Convention : Reuss Voigt Hill
#
# Bulk Modulus (GPa) = 35.21897 35.28196 35.25047
# Shear Modulus (GPa) = 5.93559 19.89619 12.91589
#
# Velocity S-wave (km/s) = 1.80301 3.30104 2.65967
# Velocity P-wave (km/s) = 4.86038 5.81829 5.36078
#
# Compressibility (1/GPa) = 0.02839379
#
# Stress axis : x y z
#
# Youngs Moduli (GPa) = 52.85919 92.12333 49.06336
#
# Poissons Ratio (x) = -0.02951 0.44278
# Poissons Ratio (y) = -0.01693 0.10678
# Poissons Ratio (z) = 0.47703 0.20049
#
# Static dielectric constant tensor:
#      x y z
#    x 1.667900 0.000000 0.000000 
#    y 0.000000 1.618910 0.000000 
#    z 0.000000 0.000000 1.639240 
# 
# From -- ./inp_files/60342.got.cif
#   From: 2010.05.17/outbox.cif.g08.bks.cpg/sg63_31_cif.got.tgz:60342.got - 2010.06.03 15:47:04.
