data_PCOD9473721
_publ_section_title
;
Structure prediction by ZEFSAII (Michael W. Deem and Ramdas Pophale) SiO2 
 PCOD9473721
Probable space group: C M C M
;
_chemical_formula_sum "Si O2"
_cell_formula_units_Z 68
_cell_length_a 7.454741
_cell_length_b 24.415269
_cell_length_c 14.782827
_cell_angle_alpha 90.000000
_cell_angle_beta 90.000000
_cell_angle_gamma 90.000000
_cell_volume 2690.615052
_symmetry_space_group_name_H-M "C M C M"
_symmetry_group_IT_number 63
_symmetry_cell_setting 'orthorhombic'
loop_
_space_group_symop_operation_xyz
x,y,z
-x,-y,1/2+z
x,-y,-z
-x,y,1/2-z
-x,-y,-z
x,y,1/2-z
-x,y,z
x,-y,1/2+z
1/2+x,1/2+y,z
1/2-x,1/2-y,1/2+z
1/2+x,1/2-y,-z
1/2-x,1/2+y,1/2-z
1/2-x,1/2-y,-z
1/2+x,1/2+y,1/2-z
1/2-x,1/2+y,z
1/2+x,1/2-y,1/2+z
loop_
_atom_site_type_symbol
_atom_site_label
_atom_site_fract_x
_atom_site_fract_y
_atom_site_fract_z
Si Si1 0.708188 0.107836 0.849841
Si Si2 0.286689 0.125954 0.457416
Si Si3 0.787205 0.261601 0.894163
Si Si4 0.500000 0.221097 0.750000
Si Si5 0.212592 0.017224 0.148836
O O1 0.790271 0.115741 0.750000
O O2 0.500000 0.124983 0.840160
O O3 0.705173 0.042279 0.867285
O O4 0.790709 0.131844 0.941182
O O5 0.500000 0.132152 0.468177
O O6 0.232700 0.173703 0.388794
O O7 0.252957 0.065709 0.419542
O O8 0.659274 0.228324 0.828582
O O9 0.000000 0.255313 0.875091
O O10 0.750000 0.250000 0.000000
O O11 0.267481 0.034774 0.250000
O O12 0.000000 0.008235 0.147586
#
# Coordination Sequence:
#
# PCOD9473721 Si02
#       5
#    16  16  16   4  16
#     4   9  18  36  56  80 117 166 214 266 328 396
#     4  10  22  37  59  89 124 164 215 274 330 409
#     4  11  25  48  73 110 144 181 235 291 354 428
#     4  12  26  48  84 100 146 192 220 300 362 418
#     4  10  21  33  52  82 120 161 212 265 326 396
#
# _framework density 25.273033000000002
#
# number of rings (size 3 to 8) (size 9 to 14) (size 15 to 20)
#    0.000    1.882    1.176    1.765    3.294    5.176 
#    2.118    0.000    0.000    0.000    0.000    0.000 
#    0.000    0.000    0.000    0.000    0.000    0.000 
#
# Total GULP energy -189812.010249 kJ/mol
# GULP energy per Si atom -5582.706184 kJ/mol
# Density = 2.521551 g / cm^3
# Si number density = 25.273033 Si / 1000 Ang^3
#
#
#
# Elastic Constant Matrix: (Units=GPa)
#
#
# Indices 1 2 3 4 5 6 
#
# 1 133.8767 18.0303 33.3451 0.0000 0.0000 0.0000
# 2 18.0303 116.0134 34.9735 0.0000 0.0000 0.0000
# 3 33.3451 34.9735 147.4329 0.0000 0.0000 0.0000
# 4 0.0000 0.0000 0.0000 84.1029 0.0000 0.0000
# 5 0.0000 0.0000 0.0000 0.0000 9.7092 0.0000
# 6 0.0000 0.0000 0.0000 0.0000 0.0000 13.6107
#
#
#
# Elastic Compliance Matrix: (Units=1/GPa)
#
#
# Indices 1 2 3 4 5 6 
#
# 1 0.007975 -0.000749 -0.001626 0.000000 0.000000 0.000000
# 2 -0.000749 0.009354 -0.002049 0.000000 0.000000 0.000000
# 3 -0.001626 -0.002049 0.007637 0.000000 0.000000 0.000000
# 4 0.000000 0.000000 0.000000 0.011890 0.000000 0.000000
# 5 0.000000 0.000000 0.000000 0.000000 0.102995 0.000000
# 6 0.000000 0.000000 0.000000 0.000000 0.000000 0.073471
#
#
# Mechanical properties :
#
#
# Convention : Reuss Voigt Hill
#
# Bulk Modulus (GPa) = 62.04832 63.33564 62.69198
# Shear Modulus (GPa) = 21.97372 42.21618 32.09495
#
# Velocity S-wave (km/s) = 2.95185 4.09149 3.56747
# Velocity P-wave (km/s) = 6.01850 6.88733 6.46752
#
# Compressibility (1/GPa) = 0.01611647
#
# Stress axis : x y z
#
# Youngs Moduli (GPa) = 125.38420 106.90639 130.94699
#
# Poissons Ratio (x) = 0.08011 0.21293
# Poissons Ratio (y) = 0.09395 0.26837
# Poissons Ratio (z) = 0.20388 0.21910
#
# Static dielectric constant tensor:
#      x y z
#    x 1.944130 0.000000 0.000000 
#    y 0.000000 2.102710 0.000000 
#    z 0.000000 0.000000 -18.202090 
# 
# From -- ./inp_files/27775.got.cif
#   From: 2010.05.17/outbox.cif.g08.bks.cpg/sg63_14_cif.got.tgz:27775.got - 2010.06.03 15:47:04.
