data_PCOD9473083
_publ_section_title
;
Structure prediction by ZEFSAII (Michael W. Deem and Ramdas Pophale) SiO2 
 PCOD9473083
Probable space group: C M C M
;
_chemical_formula_sum "Si O2"
_cell_formula_units_Z 64
_cell_length_a 7.570965
_cell_length_b 25.079093
_cell_length_c 15.820940
_cell_angle_alpha 90.000000
_cell_angle_beta 90.000000
_cell_angle_gamma 90.000000
_cell_volume 3003.968318
_symmetry_space_group_name_H-M "C M C M"
_symmetry_group_IT_number 63
_symmetry_cell_setting 'orthorhombic'
loop_
_space_group_symop_operation_xyz
x,y,z
-x,-y,1/2+z
x,-y,-z
-x,y,1/2-z
-x,-y,-z
x,y,1/2-z
-x,y,z
x,-y,1/2+z
1/2+x,1/2+y,z
1/2-x,1/2-y,1/2+z
1/2+x,1/2-y,-z
1/2-x,1/2+y,1/2-z
1/2-x,1/2-y,-z
1/2+x,1/2+y,1/2-z
1/2-x,1/2+y,z
1/2+x,1/2-y,1/2+z
loop_
_atom_site_type_symbol
_atom_site_label
_atom_site_fract_x
_atom_site_fract_y
_atom_site_fract_z
Si Si1 0.716524 0.672417 0.250000
Si Si2 0.788047 0.748708 0.900084
Si Si3 0.209744 0.950512 0.750000
Si Si4 0.211543 0.522836 0.912957
Si Si5 0.715072 0.867223 0.346228
O O1 0.500000 0.671971 0.250000
O O2 0.772963 0.704983 0.334912
O O3 0.777476 0.610741 0.250000
O O4 0.720420 0.691195 0.869720
O O5 0.000000 0.749102 0.891461
O O6 0.750000 0.750000 0.000000
O O7 0.000000 0.946439 0.750000
O O8 0.259498 0.984308 0.666900
O O9 0.279940 0.582608 0.898930
O O10 0.000000 0.527637 0.921014
O O11 0.283340 0.500000 0.000000
O O12 0.759653 0.879097 0.250000
O O13 0.500000 0.865445 0.352220
#
# Coordination Sequence:
#
# PCOD9473083 Si02
#       5
#     8  16   8  16  16
#     4   9  20  38  55  75 113 155 180 211 272 340
#     4  10  20  36  58  82 107 142 184 224 271 325
#     4  11  23  38  55  79 115 155 186 219 274 340
#     4  10  21  37  59  85 111 142 185 235 280 322
#     4   9  16  32  58  80 102 137 182 226 270 320
#
# _framework density 21.305150999999999
#
# number of rings (size 3 to 8) (size 9 to 14) (size 15 to 20)
#    0.000    2.250    2.500    0.375    3.500    0.500 
#    0.000    3.125    0.000    0.000    0.000    0.000 
#    0.000    0.000    0.000    0.000    0.000    0.000 
#
# Total GULP energy -178561.667809 kJ/mol
# GULP energy per Si atom -5580.052119 kJ/mol
# Density = 2.125666 g / cm^3
# Si number density = 21.305151 Si / 1000 Ang^3
#
#
#
# Elastic Constant Matrix: (Units=GPa)
#
#
# Indices 1 2 3 4 5 6 
#
# 1 47.5930 -8.3287 -16.0394 0.0000 0.0000 0.0000
# 2 -8.3287 98.4548 -1.2019 0.0000 0.0000 0.0000
# 3 -16.0394 -1.2019 72.0542 0.0000 0.0000 0.0000
# 4 0.0000 0.0000 0.0000 95.8296 0.0000 0.0000
# 5 0.0000 0.0000 0.0000 0.0000 31.5915 0.0000
# 6 0.0000 0.0000 0.0000 0.0000 0.0000 11.3349
#
#
#
# Elastic Compliance Matrix: (Units=1/GPa)
#
#
# Indices 1 2 3 4 5 6 
#
# 1 0.023110 0.002018 0.005178 0.000000 0.000000 0.000000
# 2 0.002018 0.010335 0.000622 0.000000 0.000000 0.000000
# 3 0.005178 0.000622 0.015041 0.000000 0.000000 0.000000
# 4 0.000000 0.000000 0.000000 0.010435 0.000000 0.000000
# 5 0.000000 0.000000 0.000000 0.000000 0.031654 0.000000
# 6 0.000000 0.000000 0.000000 0.000000 0.000000 0.088223
#
#
# Mechanical properties :
#
#
# Convention : Reuss Voigt Hill
#
# Bulk Modulus (GPa) = 15.59531 18.55133 17.07332
# Shear Modulus (GPa) = 27.09476 43.99598 35.54537
#
# Velocity S-wave (km/s) = 3.57002 4.54920 4.08903
# Velocity P-wave (km/s) = 4.93247 6.02661 5.50678
#
# Compressibility (1/GPa) = 0.06412183
#
# Stress axis : x y z
#
# Youngs Moduli (GPa) = 43.27186 96.75613 66.48311
#
# Poissons Ratio (x) = -0.19527 -0.34424
# Poissons Ratio (y) = -0.08733 -0.04133
# Poissons Ratio (z) = -0.22406 -0.06015
#
# Static dielectric constant tensor:
#      x y z
#    x 1.921200 0.000000 0.000000 
#    y 0.000000 1.814930 0.000000 
#    z 0.000000 0.000000 1.776450 
# 
# From -- ./inp_files/27550.got.cif
#   From: 2010.05.17/outbox.cif.g08.bks.cpg/sg63_14_cif.got.tgz:27550.got - 2010.06.03 15:47:04.
