data_PCOD9473069
_publ_section_title
;
Structure prediction by ZEFSAII (Michael W. Deem and Ramdas Pophale) SiO2 
 PCOD9473069
Probable space group: C M C M
;
_chemical_formula_sum "Si O2"
_cell_formula_units_Z 116
_cell_length_a 30.024294
_cell_length_b 13.271588
_cell_length_c 15.836551
_cell_angle_alpha 90.000000
_cell_angle_beta 90.000000
_cell_angle_gamma 90.000000
_cell_volume 6310.391427
_symmetry_space_group_name_H-M "C M C M"
_symmetry_group_IT_number 63
_symmetry_cell_setting 'orthorhombic'
loop_
_space_group_symop_operation_xyz
x,y,z
-x,-y,1/2+z
x,-y,-z
-x,y,1/2-z
-x,-y,-z
x,y,1/2-z
-x,y,z
x,-y,1/2+z
1/2+x,1/2+y,z
1/2-x,1/2-y,1/2+z
1/2+x,1/2-y,-z
1/2-x,1/2+y,1/2-z
1/2-x,1/2-y,-z
1/2+x,1/2+y,1/2-z
1/2-x,1/2+y,z
1/2+x,1/2-y,1/2+z
loop_
_atom_site_type_symbol
_atom_site_label
_atom_site_fract_x
_atom_site_fract_y
_atom_site_fract_z
Si Si1 0.120534 0.277272 0.649903
Si Si2 0.450117 0.097356 0.054290
Si Si3 0.375326 0.382040 0.002756
Si Si4 0.164588 0.630412 0.649353
Si Si5 0.427309 0.226294 0.599219
Si Si6 0.500000 0.767144 0.250000
Si Si7 0.296264 0.081901 0.351410
Si Si8 0.282268 0.691352 0.063311
O O1 0.118543 0.255478 0.750000
O O2 0.083642 0.361212 0.624263
O O3 0.115121 0.179663 0.589740
O O4 0.167696 0.330746 0.629205
O O5 0.500000 0.077160 0.087840
O O6 0.451137 0.183632 0.983588
O O7 0.435883 0.000000 0.000000
O O8 0.384263 0.500000 0.000000
O O9 0.404602 0.330348 0.929221
O O10 0.323516 0.361859 0.982419
O O11 0.162471 0.624448 0.750000
O O12 0.114949 0.653542 0.617313
O O13 0.184802 0.525060 0.616926
O O14 0.195796 0.723222 0.622554
O O15 0.460865 0.231827 0.676200
O O16 0.293088 0.076332 0.250000
O O17 0.248803 0.112135 0.388418
O O18 0.250000 0.750000 0.000000
#
# Coordination Sequence:
#
# PCOD9473069 Si02
#       8
#    16  16  16  16  16   4  16  16
#     4  10  21  40  61  85 122 167 211 259 318 377
#     4  10  20  36  57  90 126 161 200 250 316 379
#     4  10  23  43  62  87 124 162 208 267 322 368
#     4  10  21  37  56  85 125 156 199 257 307 363
#     4  10  21  39  63  90 126 158 200 261 318 373
#     4  12  20  40  72  96 118 166 208 260 316 392
#     4  10  21  36  57  84 120 161 207 253 307 367
#     4  11  22  36  56  85 116 163 209 252 300 372
#
# _framework density 18.382377999999999
#
# number of rings (size 3 to 8) (size 9 to 14) (size 15 to 20)
#    0.000    1.793    2.759    1.241    1.931    0.276 
#    2.483    0.345    0.000    0.000    0.000    0.000 
#    0.000    0.000    0.000    0.000    0.000    0.000 
#
# Total GULP energy -323067.162345 kJ/mol
# GULP energy per Si atom -5570.123489 kJ/mol
# Density = 1.834054 g / cm^3
# Si number density = 18.382378 Si / 1000 Ang^3
#
#
#
# Elastic Constant Matrix: (Units=GPa)
#
#
# Indices 1 2 3 4 5 6 
#
# 1 118.3486 42.9619 36.1838 0.0000 0.0000 0.0000
# 2 42.9619 113.4290 24.7997 0.0000 0.0000 0.0000
# 3 36.1838 24.7997 53.0058 0.0000 0.0000 0.0000
# 4 0.0000 0.0000 0.0000 21.5644 0.0000 0.0000
# 5 0.0000 0.0000 0.0000 0.0000 30.4717 0.0000
# 6 0.0000 0.0000 0.0000 0.0000 0.0000 -0.9603
#
#
#
# Elastic Compliance Matrix: (Units=1/GPa)
#
#
# Indices 1 2 3 4 5 6 
#
# 1 0.011495 -0.002939 -0.006472 0.000000 0.000000 0.000000
# 2 -0.002939 0.010572 -0.002940 0.000000 0.000000 0.000000
# 3 -0.006472 -0.002940 0.024660 0.000000 0.000000 0.000000
# 4 0.000000 0.000000 0.000000 0.046373 0.000000 0.000000
# 5 0.000000 0.000000 0.000000 0.000000 0.032817 0.000000
# 6 0.000000 0.000000 0.000000 0.000000 0.000000 -1.041296
#
#
# Mechanical properties :
#
#
# Convention : Reuss Voigt Hill
#
# Bulk Modulus (GPa) = 45.40368 54.74157 50.07263
# Shear Modulus (GPa) = -5.66037 22.27102 8.30533
#
# Velocity S-wave (km/s) = -1.75668 3.48450 2.12789
# Velocity P-wave (km/s) = 4.54298 6.78476 5.77372
#
# Compressibility (1/GPa) = 0.02202465
#
# Stress axis : x y z
#
# Youngs Moduli (GPa) = 86.99270 94.58938 40.55224
#
# Poissons Ratio (x) = 0.27798 0.26246
# Poissons Ratio (y) = 0.25566 0.11923
# Poissons Ratio (z) = 0.56302 0.27811
#
# Static dielectric constant tensor:
#      x y z
#    x 1.596920 0.000000 0.000000 
#    y 0.000000 1.610160 0.000000 
#    z 0.000000 0.000000 1.630750 
# 
# From -- ./inp_files/49639.got.cif
#   From: 2010.05.17/outbox.cif.g08.bks.cpg/sg63_25_cif.got.tgz:49639.got - 2010.06.03 15:47:04.
