data_PCOD9473105
_publ_section_title
;
Structure prediction by ZEFSAII (Michael W. Deem and Ramdas Pophale) SiO2 
 PCOD9473105
Probable space group: C M C M
;
_chemical_formula_sum "Si O2"
_cell_formula_units_Z 80
_cell_length_a 30.358242
_cell_length_b 10.724564
_cell_length_c 12.984220
_cell_angle_alpha 90.000000
_cell_angle_beta 90.000000
_cell_angle_gamma 90.000000
_cell_volume 4227.388185
_symmetry_space_group_name_H-M "C M C M"
_symmetry_group_IT_number 63
_symmetry_cell_setting 'orthorhombic'
loop_
_space_group_symop_operation_xyz
x,y,z
-x,-y,1/2+z
x,-y,-z
-x,y,1/2-z
-x,-y,-z
x,y,1/2-z
-x,y,z
x,-y,1/2+z
1/2+x,1/2+y,z
1/2-x,1/2-y,1/2+z
1/2+x,1/2-y,-z
1/2-x,1/2+y,1/2-z
1/2-x,1/2-y,-z
1/2+x,1/2+y,1/2-z
1/2-x,1/2+y,z
1/2+x,1/2-y,1/2+z
loop_
_atom_site_type_symbol
_atom_site_label
_atom_site_fract_x
_atom_site_fract_y
_atom_site_fract_z
Si Si1 0.113001 0.879156 0.074103
Si Si2 0.199536 0.299985 0.135420
Si Si3 0.552634 0.226674 0.750000
Si Si4 0.892586 0.372441 0.439432
Si Si5 0.290922 0.376337 0.064163
Si Si6 0.447368 0.477082 0.250000
O O1 0.162276 0.876293 0.121502
O O2 0.074476 0.908928 0.153096
O O3 0.106560 0.749220 0.013906
O O4 0.114149 0.000000 0.000000
O O5 0.193032 0.241686 0.250000
O O6 0.156139 0.382036 0.112958
O O7 0.248131 0.358737 0.133506
O O8 0.202572 0.219103 0.031188
O O9 0.500000 0.219168 0.750000
O O10 0.573253 0.160436 0.849501
O O11 0.564719 0.374939 0.750000
O O12 0.901764 0.500000 0.500000
O O13 0.283352 0.500000 0.000000
O O14 0.500000 0.468737 0.250000
#
# Coordination Sequence:
#
# PCOD9473105 Si02
#       6
#    16  16   8  16  16   8
#     4  10  21  40  64  91 126 162 207 260 307 370
#     4  10  20  36  58  83 120 164 202 242 302 371
#     4  11  24  43  68  93 119 163 213 255 324 389
#     4  11  23  41  64  91 129 166 206 258 314 377
#     4   9  20  35  54  87 119 153 203 253 297 356
#     4  11  24  41  68  99 123 157 213 263 322 379
#
# _framework density 18.924213999999999
#
# number of rings (size 3 to 8) (size 9 to 14) (size 15 to 20)
#    0.000    1.800    3.000    0.600    1.400    3.200 
#    0.000    1.000    0.000    0.000    0.000    0.000 
#    0.000    0.000    0.000    0.000    0.000    0.000 
#
# Total GULP energy -222723.354103 kJ/mol
# GULP energy per Si atom -5568.083853 kJ/mol
# Density = 1.888114 g / cm^3
# Si number density = 18.924214 Si / 1000 Ang^3
#
#
#
# Elastic Constant Matrix: (Units=GPa)
#
#
# Indices 1 2 3 4 5 6 
#
# 1 132.6201 48.5696 63.7327 0.0000 0.0000 0.0000
# 2 48.5696 107.0010 47.5520 0.0000 0.0000 0.0000
# 3 63.7327 47.5520 103.6814 0.0000 0.0000 0.0000
# 4 0.0000 0.0000 0.0000 20.4309 0.0000 0.0000
# 5 0.0000 0.0000 0.0000 0.0000 37.4325 0.0000
# 6 0.0000 0.0000 0.0000 0.0000 0.0000 18.0618
#
#
#
# Elastic Compliance Matrix: (Units=1/GPa)
#
#
# Indices 1 2 3 4 5 6 
#
# 1 0.011229 -0.002549 -0.005733 0.000000 0.000000 0.000000
# 2 -0.002549 0.012317 -0.004082 0.000000 0.000000 0.000000
# 3 -0.005733 -0.004082 0.015041 0.000000 0.000000 0.000000
# 4 0.000000 0.000000 0.000000 0.048946 0.000000 0.000000
# 5 0.000000 0.000000 0.000000 0.000000 0.026715 0.000000
# 6 0.000000 0.000000 0.000000 0.000000 0.000000 0.055365
#
#
# Mechanical properties :
#
#
# Convention : Reuss Voigt Hill
#
# Bulk Modulus (GPa) = 72.15881 73.66790 72.91335
# Shear Modulus (GPa) = 25.13046 27.41493 26.27269
#
# Velocity S-wave (km/s) = 3.64806 3.81027 3.73005
# Velocity P-wave (km/s) = 7.48049 7.64002 7.56067
#
# Compressibility (1/GPa) = 0.01385832
#
# Stress axis : x y z
#
# Youngs Moduli (GPa) = 89.05350 81.18934 66.48317
#
# Poissons Ratio (x) = 0.20696 0.38118
# Poissons Ratio (y) = 0.22701 0.27138
# Poissons Ratio (z) = 0.51058 0.33142
#
# Static dielectric constant tensor:
#      x y z
#    x 1.684840 0.000000 0.000000 
#    y 0.000000 1.731740 0.000000 
#    z 0.000000 0.000000 1.509560 
# 
# From -- ./inp_files/25673.got.cif
#   From: 2010.05.17/outbox.cif.g08.bks.cpg/sg63_13_cif.got.tgz:25673.got - 2010.06.03 15:47:04.
