data_PCOD9473535
_publ_section_title
;
Structure prediction by ZEFSAII (Michael W. Deem and Ramdas Pophale) SiO2 
 PCOD9473535
Probable space group: C M C M
;
_chemical_formula_sum "Si O2"
_cell_formula_units_Z 80
_cell_length_a 18.396811
_cell_length_b 19.367227
_cell_length_c 11.366965
_cell_angle_alpha 90.000000
_cell_angle_beta 90.000000
_cell_angle_gamma 90.000000
_cell_volume 4049.995235
_symmetry_space_group_name_H-M "C M C M"
_symmetry_group_IT_number 63
_symmetry_cell_setting 'orthorhombic'
loop_
_space_group_symop_operation_xyz
x,y,z
-x,-y,1/2+z
x,-y,-z
-x,y,1/2-z
-x,-y,-z
x,y,1/2-z
-x,y,z
x,-y,1/2+z
1/2+x,1/2+y,z
1/2-x,1/2-y,1/2+z
1/2+x,1/2-y,-z
1/2-x,1/2+y,1/2-z
1/2-x,1/2-y,-z
1/2+x,1/2+y,1/2-z
1/2-x,1/2+y,z
1/2+x,1/2-y,1/2+z
loop_
_atom_site_type_symbol
_atom_site_label
_atom_site_fract_x
_atom_site_fract_y
_atom_site_fract_z
Si Si1 0.500000 0.244222 0.608905
Si Si2 0.344364 0.816858 0.434317
Si Si3 0.727733 0.328343 0.618288
Si Si4 0.500000 0.657532 0.620913
Si Si5 0.793788 0.465762 0.374159
Si Si6 0.136545 0.929392 0.447595
O O1 0.500000 0.265442 0.750000
O O2 0.427950 0.200503 0.582975
O O3 0.500000 0.301457 0.504176
O O4 0.302256 0.749803 0.385188
O O5 0.308307 0.825806 0.563253
O O6 0.325867 0.889014 0.375265
O O7 0.727393 0.354274 0.750000
O O8 0.674953 0.376731 0.540463
O O9 0.500000 0.694385 0.750000
O O10 0.573174 0.612022 0.615803
O O11 0.813088 0.500000 0.500000
O O12 0.815106 0.500153 0.250000
O O13 0.706610 0.456346 0.376756
O O14 0.104195 0.000000 0.500000
#
# Coordination Sequence:
#
# PCOD9473535 Si02
#       6
#     8  16  16   8  16  16
#     4  12  24  43  64  89 122 165 210 248 301 373
#     4  10  22  38  62  91 117 157 204 255 304 357
#     4  10  20  38  63  91 119 156 210 259 303 354
#     4  12  25  39  55  89 131 167 205 256 306 349
#     4  10  21  39  63  90 118 155 200 252 306 366
#     4  10  22  38  59  87 123 167 208 244 299 363
#
# _framework density 19.753108999999998
#
# number of rings (size 3 to 8) (size 9 to 14) (size 15 to 20)
#    0.000    1.600    2.000    2.700    0.000    8.800 
#    0.000    1.500    0.000    0.000    0.000    0.000 
#    0.000    0.000    0.000    0.000    0.000    0.000 
#
# Total GULP energy -222853.642267 kJ/mol
# GULP energy per Si atom -5571.341057 kJ/mol
# Density = 1.970815 g / cm^3
# Si number density = 19.753109 Si / 1000 Ang^3
#
#
#
# Elastic Constant Matrix: (Units=GPa)
#
#
# Indices 1 2 3 4 5 6 
#
# 1 90.4796 12.5725 33.4162 0.0000 0.0000 0.0000
# 2 12.5725 95.8032 43.5737 0.0000 0.0000 0.0000
# 3 33.4162 43.5737 175.3398 0.0000 0.0000 0.0000
# 4 0.0000 0.0000 0.0000 6.2549 0.0000 0.0000
# 5 0.0000 0.0000 0.0000 0.0000 -20.4875 0.0000
# 6 0.0000 0.0000 0.0000 0.0000 0.0000 -6.1994
#
#
#
# Elastic Compliance Matrix: (Units=1/GPa)
#
#
# Indices 1 2 3 4 5 6 
#
# 1 0.011919 -0.000599 -0.002123 0.000000 0.000000 0.000000
# 2 -0.000599 0.011798 -0.002818 0.000000 0.000000 0.000000
# 3 -0.002123 -0.002818 0.006808 0.000000 0.000000 0.000000
# 4 0.000000 0.000000 0.000000 0.159874 0.000000 0.000000
# 5 0.000000 0.000000 0.000000 0.000000 -0.048810 0.000000
# 6 0.000000 0.000000 0.000000 0.000000 0.000000 -0.161305
#
#
# Mechanical properties :
#
#
# Convention : Reuss Voigt Hill
#
# Bulk Modulus (GPa) = 51.42202 60.08305 55.75254
# Shear Modulus (GPa) = -2321.66644 14.05092 -1153.80776
#
# Velocity S-wave (km/s) = -34.32046 2.66997 -24.19468
# Velocity P-wave (km/s) = 39.29932 6.32361 27.42670
#
# Compressibility (1/GPa) = 0.01944692
#
# Stress axis : x y z
#
# Youngs Moduli (GPa) = 83.89674 84.75806 146.88489
#
# Poissons Ratio (x) = 0.05075 0.31181
# Poissons Ratio (y) = 0.05023 0.41391
# Poissons Ratio (z) = 0.17810 0.23884
#
# Static dielectric constant tensor:
#      x y z
#    x 1.653570 0.000000 0.000000 
#    y 0.000000 1.710020 0.000000 
#    z 0.000000 0.000000 1.764720 
# 
# From -- ./inp_files/22515.got.cif
#   From: 2010.05.17/outbox.cif.g08.bks.cpg/sg63_12_cif.got.tgz:22515.got - 2010.06.03 15:47:04.
