data_PCOD9473371
_publ_section_title
;
Structure prediction by ZEFSAII (Michael W. Deem and Ramdas Pophale) SiO2 
 PCOD9473371
Probable space group: C M C M
;
_chemical_formula_sum "Si O2"
_cell_formula_units_Z 116
_cell_length_a 26.720905
_cell_length_b 7.493346
_cell_length_c 26.120187
_cell_angle_alpha 90.000000
_cell_angle_beta 90.000000
_cell_angle_gamma 90.000000
_cell_volume 5230.018573
_symmetry_space_group_name_H-M "C M C M"
_symmetry_group_IT_number 63
_symmetry_cell_setting 'orthorhombic'
loop_
_space_group_symop_operation_xyz
x,y,z
-x,-y,1/2+z
x,-y,-z
-x,y,1/2-z
-x,-y,-z
x,y,1/2-z
-x,y,z
x,-y,1/2+z
1/2+x,1/2+y,z
1/2-x,1/2-y,1/2+z
1/2+x,1/2-y,-z
1/2-x,1/2+y,1/2-z
1/2-x,1/2-y,-z
1/2+x,1/2+y,1/2-z
1/2-x,1/2+y,z
1/2+x,1/2-y,1/2+z
loop_
_atom_site_type_symbol
_atom_site_label
_atom_site_fract_x
_atom_site_fract_y
_atom_site_fract_z
Si Si1 0.560054 0.162005 0.583697
Si Si2 0.909936 0.389240 0.669906
Si Si3 0.196898 0.526915 0.691734
Si Si4 0.891186 0.205009 0.517510
Si Si5 0.000000 0.448353 0.750000
Si Si6 0.790516 0.877069 0.451160
Si Si7 0.219012 0.835212 0.622734
Si Si8 0.558482 0.565299 0.883910
O O1 0.500000 0.139119 0.578001
O O2 0.586099 0.181994 0.528445
O O3 0.568793 0.356033 0.609876
O O4 0.582763 0.006714 0.618345
O O5 0.855783 0.429033 0.691980
O O6 0.955785 0.443640 0.705855
O O7 0.913098 0.178757 0.658389
O O8 0.214421 0.555998 0.750000
O O9 0.188839 0.709443 0.660408
O O10 0.237469 0.419908 0.658041
O O11 0.835420 0.257846 0.535195
O O12 0.929612 0.169541 0.563305
O O13 0.881865 0.000000 0.500000
O O14 0.744911 0.779048 0.422954
O O15 0.776006 0.000000 0.500000
O O16 0.810508 0.010552 0.406756
O O17 0.500000 0.582763 0.872586
#
# Coordination Sequence:
#
# PCOD9473371 Si02
#       8
#    16  16  16  16   4  16  16  16
#     4  10  21  39  64  93 130 176 216 267 322 389
#     4  12  24  43  68  93 131 174 217 274 334 389
#     4  11  24  43  69  93 126 169 221 283 341 385
#     4   9  19  33  58  88 128 162 209 253 310 385
#     4  12  24  48  66  94 136 166 220 284 322 388
#     4  10  20  37  60  90 129 165 205 261 319 400
#     4  10  23  41  64  93 127 166 218 270 333 393
#     4  10  20  37  60  90 127 168 209 259 314 382
#
# _framework density 22.179653999999999
#
# number of rings (size 3 to 8) (size 9 to 14) (size 15 to 20)
#    0.000    1.655    2.069    2.069    5.793    2.207 
#    0.000    2.759    0.000    0.000    0.000    0.000 
#    0.000    0.000    0.000    0.000    0.000    0.000 
#
# Total GULP energy -323592.556995 kJ/mol
# GULP energy per Si atom -5579.182017 kJ/mol
# Density = 2.212917 g / cm^3
# Si number density = 22.179654 Si / 1000 Ang^3
#
#
#
# Elastic Constant Matrix: (Units=GPa)
#
#
# Indices 1 2 3 4 5 6 
#
# 1 65.6466 10.2925 20.9257 0.0000 0.0000 0.0000
# 2 10.2925 67.5404 36.7568 0.0000 0.0000 0.0000
# 3 20.9257 36.7568 72.2836 0.0000 0.0000 0.0000
# 4 0.0000 0.0000 0.0000 7.3821 0.0000 0.0000
# 5 0.0000 0.0000 0.0000 0.0000 108.2584 0.0000
# 6 0.0000 0.0000 0.0000 0.0000 0.0000 19.7816
#
#
#
# Elastic Compliance Matrix: (Units=1/GPa)
#
#
# Indices 1 2 3 4 5 6 
#
# 1 0.016782 0.000120 -0.004919 0.000000 0.000000 0.000000
# 2 0.000120 0.020472 -0.010445 0.000000 0.000000 0.000000
# 3 -0.004919 -0.010445 0.020570 0.000000 0.000000 0.000000
# 4 0.000000 0.000000 0.000000 0.135464 0.000000 0.000000
# 5 0.000000 0.000000 0.000000 0.000000 0.009237 0.000000
# 6 0.000000 0.000000 0.000000 0.000000 0.000000 0.050552
#
#
# Mechanical properties :
#
#
# Convention : Reuss Voigt Hill
#
# Bulk Modulus (GPa) = 36.58267 37.93561 37.25914
# Shear Modulus (GPa) = 17.08365 36.25079 26.66722
#
# Velocity S-wave (km/s) = 2.77833 4.04718 3.47122
# Velocity P-wave (km/s) = 5.17897 6.24343 5.73595
#
# Compressibility (1/GPa) = 0.02733535
#
# Stress axis : x y z
#
# Youngs Moduli (GPa) = 59.58621 48.84728 48.61504
#
# Poissons Ratio (x) = -0.00585 0.23915
# Poissons Ratio (y) = -0.00713 0.50777
# Poissons Ratio (z) = 0.29312 0.51020
#
# Static dielectric constant tensor:
#      x y z
#    x 1.818400 0.000000 0.000000 
#    y 0.000000 1.854070 0.000000 
#    z 0.000000 0.000000 1.851480 
# 
# From -- ./inp_files/65488.got.cif
#   From: 2010.05.17/outbox.cif.g08.bks.cpg/sg63_33_cif.got.tgz:65488.got - 2010.06.03 15:47:04.
