data_PCOD9473279
_publ_section_title
;
Structure prediction by ZEFSAII (Michael W. Deem and Ramdas Pophale) SiO2 
 PCOD9473279
Probable space group: C M C M
;
_chemical_formula_sum "Si O2"
_cell_formula_units_Z 96
_cell_length_a 18.935741
_cell_length_b 15.329971
_cell_length_c 15.296863
_cell_angle_alpha 90.000000
_cell_angle_beta 90.000000
_cell_angle_gamma 90.000000
_cell_volume 4440.440092
_symmetry_space_group_name_H-M "C M C M"
_symmetry_group_IT_number 63
_symmetry_cell_setting 'orthorhombic'
loop_
_space_group_symop_operation_xyz
x,y,z
-x,-y,1/2+z
x,-y,-z
-x,y,1/2-z
-x,-y,-z
x,y,1/2-z
-x,y,z
x,-y,1/2+z
1/2+x,1/2+y,z
1/2-x,1/2-y,1/2+z
1/2+x,1/2-y,-z
1/2-x,1/2+y,1/2-z
1/2-x,1/2-y,-z
1/2+x,1/2+y,1/2-z
1/2-x,1/2+y,z
1/2+x,1/2-y,1/2+z
loop_
_atom_site_type_symbol
_atom_site_label
_atom_site_fract_x
_atom_site_fract_y
_atom_site_fract_z
Si Si1 0.706802 0.779995 0.643300
Si Si2 0.194998 0.382832 0.147646
Si Si3 0.577708 0.528555 0.651914
Si Si4 0.418760 0.702868 0.960013
Si Si5 0.280807 0.541952 0.408612
Si Si6 0.083991 0.247023 0.151661
O O1 0.701201 0.785675 0.750000
O O2 0.751247 0.693249 0.618684
O O3 0.632678 0.765593 0.594491
O O4 0.748187 0.863198 0.605586
O O5 0.206680 0.390830 0.250000
O O6 0.216597 0.475471 0.111969
O O7 0.117958 0.342231 0.134797
O O8 0.576379 0.566254 0.750000
O O9 0.500000 0.484459 0.638479
O O10 0.583355 0.608351 0.585139
O O11 0.648028 0.471337 0.647350
O O12 0.500000 0.733203 0.956474
O O13 0.398118 0.696301 0.062297
O O14 0.304222 0.500000 0.500000
O O15 0.109991 0.219648 0.250000
O O16 0.000000 0.249237 0.156871
#
# Coordination Sequence:
#
# PCOD9473279 Si02
#       6
#    16  16  16  16  16  16
#     4  11  23  39  64  95 127 167 213 264 320 377
#     4  10  21  40  63  86 123 167 209 260 314 375
#     4  10  21  40  64  89 126 171 211 259 317 375
#     4  10  20  36  65  97 124 162 213 264 319 377
#     4  12  25  38  61  94 128 169 210 266 316 382
#     4   9  19  36  59  88 123 166 209 253 312 381
#
# _framework density 21.619478999999998
#
# number of rings (size 3 to 8) (size 9 to 14) (size 15 to 20)
#    0.000    1.667    1.667    3.000    2.333    2.667 
#    0.000    1.667    0.000    8.000    0.000    0.000 
#    0.000    0.000    0.000    0.000    0.000    0.000 
#
# Total GULP energy -267968.472406 kJ/mol
# GULP energy per Si atom -5582.676508 kJ/mol
# Density = 2.157027 g / cm^3
# Si number density = 21.619479 Si / 1000 Ang^3
#
#
#
# Elastic Constant Matrix: (Units=GPa)
#
#
# Indices 1 2 3 4 5 6 
#
# 1 96.8957 36.5775 62.9870 0.0000 0.0000 0.0000
# 2 36.5775 60.9850 23.1531 0.0000 0.0000 0.0000
# 3 62.9870 23.1531 98.5088 0.0000 0.0000 0.0000
# 4 0.0000 0.0000 0.0000 27.0994 0.0000 0.0000
# 5 0.0000 0.0000 0.0000 0.0000 27.5635 0.0000
# 6 0.0000 0.0000 0.0000 0.0000 0.0000 29.0968
#
#
#
# Elastic Compliance Matrix: (Units=1/GPa)
#
#
# Indices 1 2 3 4 5 6 
#
# 1 0.020796 -0.008152 -0.011381 0.000000 0.000000 0.000000
# 2 -0.008152 0.021200 0.000230 0.000000 0.000000 0.000000
# 3 -0.011381 0.000230 0.017374 0.000000 0.000000 0.000000
# 4 0.000000 0.000000 0.000000 0.036901 0.000000 0.000000
# 5 0.000000 0.000000 0.000000 0.000000 0.036280 0.000000
# 6 0.000000 0.000000 0.000000 0.000000 0.000000 0.034368
#
#
# Mechanical properties :
#
#
# Convention : Reuss Voigt Hill
#
# Bulk Modulus (GPa) = 48.16151 55.75829 51.95990
# Shear Modulus (GPa) = 23.53530 25.66341 24.59935
#
# Velocity S-wave (km/s) = 3.30300 3.44910 3.37684
# Velocity P-wave (km/s) = 6.07220 6.45821 6.26818
#
# Compressibility (1/GPa) = 0.02076347
#
# Stress axis : x y z
#
# Youngs Moduli (GPa) = 48.08629 47.17050 57.55591
#
# Poissons Ratio (x) = 0.38454 0.65504
# Poissons Ratio (y) = 0.39201 -0.01323
# Poissons Ratio (z) = 0.54727 -0.01084
#
# Static dielectric constant tensor:
#      x y z
#    x 1.823620 0.000000 0.000000 
#    y 0.000000 1.779640 0.000000 
#    z 0.000000 0.000000 1.891580 
# 
# From -- ./inp_files/35306.got.cif
#   From: 2010.05.17/outbox.cif.g08.bks.cpg/sg63_18_cif.got.tgz:35306.got - 2010.06.03 15:47:04.
