data_PCOD9473568
_publ_section_title
;
Structure prediction by ZEFSAII (Michael W. Deem and Ramdas Pophale) SiO2 
 PCOD9473568
Probable space group: C M C M
;
_chemical_formula_sum "Si O2"
_cell_formula_units_Z 116
_cell_length_a 16.219947
_cell_length_b 12.064194
_cell_length_c 27.170773
_cell_angle_alpha 90.000000
_cell_angle_beta 90.000000
_cell_angle_gamma 90.000000
_cell_volume 5316.792817
_symmetry_space_group_name_H-M "C M C M"
_symmetry_group_IT_number 63
_symmetry_cell_setting 'orthorhombic'
loop_
_space_group_symop_operation_xyz
x,y,z
-x,-y,1/2+z
x,-y,-z
-x,y,1/2-z
-x,-y,-z
x,y,1/2-z
-x,y,z
x,-y,1/2+z
1/2+x,1/2+y,z
1/2-x,1/2-y,1/2+z
1/2+x,1/2-y,-z
1/2-x,1/2+y,1/2-z
1/2-x,1/2-y,-z
1/2+x,1/2+y,1/2-z
1/2-x,1/2+y,z
1/2+x,1/2-y,1/2+z
loop_
_atom_site_type_symbol
_atom_site_label
_atom_site_fract_x
_atom_site_fract_y
_atom_site_fract_z
Si Si1 0.146503 0.136567 0.598952
Si Si2 0.855476 0.748219 0.673438
Si Si3 0.833226 0.276867 0.804756
Si Si4 0.650876 0.734682 0.500143
Si Si5 0.000000 0.802713 0.750000
Si Si6 0.598523 0.995319 0.853829
Si Si7 0.406395 0.392730 0.585614
Si Si8 0.680557 0.059135 0.948825
O O1 0.140238 0.194930 0.651352
O O2 0.119139 0.218356 0.555054
O O3 0.239755 0.102703 0.581619
O O4 0.099673 0.020773 0.599075
O O5 0.765466 0.764767 0.695753
O O6 0.875425 0.618632 0.664064
O O7 0.854614 0.817367 0.622764
O O8 0.927539 0.796067 0.707341
O O9 0.865422 0.251185 0.750000
O O10 0.860542 0.400014 0.820771
O O11 0.750000 0.750000 0.500000
O O12 0.627072 0.627589 0.468921
O O13 0.623437 0.840041 0.468111
O O14 0.500000 0.986515 0.851515
O O15 0.631669 0.985323 0.909730
O O16 0.500000 0.354298 0.588135
O O17 0.704622 0.000000 0.000000
#
# Coordination Sequence:
#
# PCOD9473568 Si02
#       8
#    16  16  16  16   4  16  16  16
#     4  11  23  44  66 102 148 191 239 294 368 444
#     4  12  24  48  73 111 143 185 252 316 373 430
#     4  12  28  47  74 105 143 195 250 300 370 450
#     4  10  20  38  66  97 138 183 230 284 358 430
#     4  12  24  44  80 108 144 184 252 328 378 414
#     4  12  26  47  75 106 150 191 242 313 371 435
#     4  12  24  42  69 104 144 186 236 302 364 436
#     4  11  21  40  71 104 139 186 242 296 364 433
#
# _framework density 21.817665000000002
#
# number of rings (size 3 to 8) (size 9 to 14) (size 15 to 20)
#    0.000    0.552    4.828    4.552    0.966    2.207 
#    1.241    1.379    0.000    0.000    0.000    0.000 
#    0.000    0.000    0.000    0.000    0.000    0.000 
#
# Total GULP energy -323729.621220 kJ/mol
# GULP energy per Si atom -5581.545193 kJ/mol
# Density = 2.176801 g / cm^3
# Si number density = 21.817665 Si / 1000 Ang^3
#
#
#
# Elastic Constant Matrix: (Units=GPa)
#
#
# Indices 1 2 3 4 5 6 
#
# 1 37.3910 7.4809 14.0883 0.0000 0.0000 0.0000
# 2 7.4809 91.1450 46.6373 0.0000 0.0000 0.0000
# 3 14.0883 46.6373 179.1275 0.0000 0.0000 0.0000
# 4 0.0000 0.0000 0.0000 -13.2725 0.0000 0.0000
# 5 0.0000 0.0000 0.0000 0.0000 18.8877 0.0000
# 6 0.0000 0.0000 0.0000 0.0000 0.0000 19.1300
#
#
#
# Elastic Compliance Matrix: (Units=1/GPa)
#
#
# Indices 1 2 3 4 5 6 
#
# 1 0.027702 -0.001337 -0.001831 0.000000 0.000000 0.000000
# 2 -0.001337 0.012722 -0.003207 0.000000 0.000000 0.000000
# 3 -0.001831 -0.003207 0.006562 0.000000 0.000000 0.000000
# 4 0.000000 0.000000 0.000000 -0.075344 0.000000 0.000000
# 5 0.000000 0.000000 0.000000 0.000000 0.052945 0.000000
# 6 0.000000 0.000000 0.000000 0.000000 0.000000 0.052274
#
#
# Mechanical properties :
#
#
# Convention : Reuss Voigt Hill
#
# Bulk Modulus (GPa) = 29.20901 49.34183 39.27542
# Shear Modulus (GPa) = 49.49411 20.91282 35.20347
#
# Velocity S-wave (km/s) = 4.76808 3.09937 4.02124
# Velocity P-wave (km/s) = 6.61284 5.95590 6.29295
#
# Compressibility (1/GPa) = 0.03423601
#
# Stress axis : x y z
#
# Youngs Moduli (GPa) = 36.09889 78.60188 152.40137
#
# Poissons Ratio (x) = 0.10509 0.27899
# Poissons Ratio (y) = 0.04826 0.48878
# Poissons Ratio (z) = 0.06608 0.25209
#
# Static dielectric constant tensor:
#      x y z
#    x 1.783200 0.000000 0.000000 
#    y 0.000000 1.854720 0.000000 
#    z 0.000000 0.000000 1.815760 
# 
# From -- ./inp_files/70022.got.cif
#   From: 2010.05.17/outbox.cif.g08.bks.cpg/sg63_36_cif.got.tgz:70022.got - 2010.06.03 15:47:04.
