data_PCOD9473036
_publ_section_title
;
Structure prediction by ZEFSAII (Michael W. Deem and Ramdas Pophale) SiO2 
 PCOD9473036
Probable space group: C M C M
;
_chemical_formula_sum "Si O2"
_cell_formula_units_Z 96
_cell_length_a 27.424592
_cell_length_b 10.476056
_cell_length_c 17.714357
_cell_angle_alpha 90.000000
_cell_angle_beta 90.000000
_cell_angle_gamma 90.000000
_cell_volume 5089.362428
_symmetry_space_group_name_H-M "C M C M"
_symmetry_group_IT_number 63
_symmetry_cell_setting 'orthorhombic'
loop_
_space_group_symop_operation_xyz
x,y,z
-x,-y,1/2+z
x,-y,-z
-x,y,1/2-z
-x,-y,-z
x,y,1/2-z
-x,y,z
x,-y,1/2+z
1/2+x,1/2+y,z
1/2-x,1/2-y,1/2+z
1/2+x,1/2-y,-z
1/2-x,1/2+y,1/2-z
1/2-x,1/2-y,-z
1/2+x,1/2+y,1/2-z
1/2-x,1/2+y,z
1/2+x,1/2-y,1/2+z
loop_
_atom_site_type_symbol
_atom_site_label
_atom_site_fract_x
_atom_site_fract_y
_atom_site_fract_z
Si Si1 0.896866 0.106382 0.089502
Si Si2 0.442718 0.352836 0.427037
Si Si3 0.734127 0.203741 0.840526
Si Si4 0.624374 0.135762 0.839794
Si Si5 0.943338 0.592805 0.340915
Si Si6 0.783299 0.031575 0.086298
O O1 0.901486 0.231902 0.139443
O O2 0.840790 0.061969 0.089676
O O3 0.928857 0.985186 0.113402
O O4 0.912784 0.144245 0.004854
O O5 0.500000 0.352884 0.445012
O O6 0.431778 0.228425 0.378250
O O7 0.734283 0.222745 0.750000
O O8 0.680523 0.150973 0.864767
O O9 0.741944 0.340232 0.880948
O O10 0.771079 0.093173 0.864721
O O11 0.626067 0.122262 0.750000
O O12 0.593675 0.015844 0.869077
O O13 0.939794 0.602852 0.250000
O O14 0.000000 0.560583 0.358465
O O15 0.769624 0.000000 0.000000
#
# Coordination Sequence:
#
# PCOD9473036 Si02
#       6
#    16  16  16  16  16  16
#     4  10  20  36  57  82 113 144 187 229 280 336
#     4  10  20  36  57  81 115 149 185 233 281 339
#     4  10  22  39  59  85 116 154 194 237 289 348
#     4   9  20  38  56  80 113 147 185 232 281 337
#     4   9  19  36  57  82 112 147 189 235 283 337
#     4  11  21  39  60  84 116 149 193 241 289 340
#
# _framework density 18.862873
#
# number of rings (size 3 to 8) (size 9 to 14) (size 15 to 20)
#    0.000    2.167    1.667    2.000    0.000    4.667 
#    6.000    3.333    0.000    0.000    0.000    0.000 
#    0.000    0.000    0.000    0.000    0.000    0.000 
#
# Total GULP energy -267753.815980 kJ/mol
# GULP energy per Si atom -5578.204500 kJ/mol
# Density = 1.881994 g / cm^3
# Si number density = 18.862873 Si / 1000 Ang^3
#
#
#
# Elastic Constant Matrix: (Units=GPa)
#
#
# Indices 1 2 3 4 5 6 
#
# 1 53.3995 53.5121 23.7375 0.0000 0.0000 0.0000
# 2 53.5121 143.6602 38.5408 0.0000 0.0000 0.0000
# 3 23.7375 38.5408 28.2793 0.0000 0.0000 0.0000
# 4 0.0000 0.0000 0.0000 43.3172 0.0000 0.0000
# 5 0.0000 0.0000 0.0000 0.0000 12.8782 0.0000
# 6 0.0000 0.0000 0.0000 0.0000 0.0000 38.6281
#
#
#
# Elastic Compliance Matrix: (Units=1/GPa)
#
#
# Indices 1 2 3 4 5 6 
#
# 1 0.035013 -0.008130 -0.018310 0.000000 0.000000 0.000000
# 2 -0.008130 0.012861 -0.010703 0.000000 0.000000 0.000000
# 3 -0.018310 -0.010703 0.065317 0.000000 0.000000 0.000000
# 4 0.000000 0.000000 0.000000 0.023085 0.000000 0.000000
# 5 0.000000 0.000000 0.000000 0.000000 0.077650 0.000000
# 6 0.000000 0.000000 0.000000 0.000000 0.000000 0.025888
#
#
# Mechanical properties :
#
#
# Convention : Reuss Voigt Hill
#
# Bulk Modulus (GPa) = 25.70328 50.76889 38.23608
# Shear Modulus (GPa) = 15.28731 26.26796 20.77764
#
# Velocity S-wave (km/s) = 2.84992 3.73577 3.32250
# Velocity P-wave (km/s) = 4.94827 6.75138 5.91889
#
# Compressibility (1/GPa) = 0.03890555
#
# Stress axis : x y z
#
# Youngs Moduli (GPa) = 28.56072 77.75719 15.30988
#
# Poissons Ratio (x) = 0.63216 0.28032
# Poissons Ratio (y) = 0.23220 0.16386
# Poissons Ratio (z) = 0.52294 0.83223
#
# Static dielectric constant tensor:
#      x y z
#    x 1.666410 0.000000 0.000000 
#    y 0.000000 1.571770 0.000000 
#    z 0.000000 0.000000 1.644660 
# 
# From -- ./inp_files/58098.got.cif
#   From: 2010.05.17/outbox.cif.g08.bks.cpg/sg63_30_cif.got.tgz:58098.got - 2010.06.03 15:47:04.
