data_PCOD9473247
_publ_section_title
;
Structure prediction by ZEFSAII (Michael W. Deem and Ramdas Pophale) SiO2 
 PCOD9473247
Probable space group: C M C M
;
_chemical_formula_sum "Si O2"
_cell_formula_units_Z 112
_cell_length_a 21.661555
_cell_length_b 13.744384
_cell_length_c 16.521990
_cell_angle_alpha 90.000000
_cell_angle_beta 90.000000
_cell_angle_gamma 90.000000
_cell_volume 4919.005011
_symmetry_space_group_name_H-M "C M C M"
_symmetry_group_IT_number 63
_symmetry_cell_setting 'orthorhombic'
loop_
_space_group_symop_operation_xyz
x,y,z
-x,-y,1/2+z
x,-y,-z
-x,y,1/2-z
-x,-y,-z
x,y,1/2-z
-x,y,z
x,-y,1/2+z
1/2+x,1/2+y,z
1/2-x,1/2-y,1/2+z
1/2+x,1/2-y,-z
1/2-x,1/2+y,1/2-z
1/2-x,1/2-y,-z
1/2+x,1/2+y,1/2-z
1/2-x,1/2+y,z
1/2+x,1/2-y,1/2+z
loop_
_atom_site_type_symbol
_atom_site_label
_atom_site_fract_x
_atom_site_fract_y
_atom_site_fract_z
Si Si1 0.568604 0.788968 0.901903
Si Si2 0.073064 0.093674 0.341998
Si Si3 0.893997 0.076981 0.564599
Si Si4 0.804042 0.368064 0.660299
Si Si5 0.257997 0.614416 0.993983
Si Si6 0.315591 0.898150 0.338771
Si Si7 0.571362 0.198174 0.910523
O O1 0.500000 0.819600 0.874351
O O2 0.569366 0.671437 0.908806
O O3 0.627453 0.823985 0.851817
O O4 0.578205 0.825305 0.994473
O O5 0.083239 0.124402 0.250000
O O6 0.086069 0.187655 0.396600
O O7 0.000000 0.068159 0.350295
O O8 0.113849 0.999164 0.361985
O O9 0.830004 0.116343 0.528051
O O10 0.922469 0.000000 0.500000
O O11 0.780170 0.340227 0.750000
O O12 0.764255 0.343307 0.579757
O O13 0.809526 0.485321 0.660183
O O14 0.220818 0.646285 0.914721
O O15 0.243882 0.500000 0.000000
O O16 0.295012 0.864639 0.250000
O O17 0.385427 0.866845 0.355635
O O18 0.500000 0.186705 0.888593
#
# Coordination Sequence:
#
# PCOD9473247 Si02
#       7
#    16  16  16  16  16  16  16
#     4  11  23  38  63  94 124 162 210 261 317 390
#     4  10  21  37  59  91 128 164 210 266 320 381
#     4  11  22  39  64  88 121 169 211 258 317 378
#     4  10  22  42  65  90 129 172 211 263 327 386
#     4   9  20  39  63  90 122 161 212 264 313 372
#     4  10  20  38  63  91 125 165 209 262 322 384
#     4  10  20  36  61  93 126 163 210 266 319 381
#
# _framework density 22.768830999999999
#
# number of rings (size 3 to 8) (size 9 to 14) (size 15 to 20)
#    0.000    1.857    2.857    0.857    0.000    4.000 
#    0.000    5.000    0.000    0.000    0.000    0.000 
#    0.000    0.000    0.000    0.000    0.000    0.000 
#
# Total GULP energy -312784.864379 kJ/mol
# GULP energy per Si atom -5585.444007 kJ/mol
# Density = 2.271701 g / cm^3
# Si number density = 22.768831 Si / 1000 Ang^3
#
#
#
# Elastic Constant Matrix: (Units=GPa)
#
#
# Indices 1 2 3 4 5 6 
#
# 1 76.9178 16.9095 61.4090 0.0000 0.0000 0.0000
# 2 16.9095 63.7819 19.5597 0.0000 0.0000 0.0000
# 3 61.4090 19.5597 129.5512 0.0000 0.0000 0.0000
# 4 0.0000 0.0000 0.0000 16.0226 0.0000 0.0000
# 5 0.0000 0.0000 0.0000 0.0000 1088.3625 0.0000
# 6 0.0000 0.0000 0.0000 0.0000 0.0000 26.8110
#
#
#
# Elastic Compliance Matrix: (Units=1/GPa)
#
#
# Indices 1 2 3 4 5 6 
#
# 1 0.021345 -0.002680 -0.009713 0.000000 0.000000 0.000000
# 2 -0.002680 0.016776 -0.001262 0.000000 0.000000 0.000000
# 3 -0.009713 -0.001262 0.012514 0.000000 0.000000 0.000000
# 4 0.000000 0.000000 0.000000 0.062412 0.000000 0.000000
# 5 0.000000 0.000000 0.000000 0.000000 0.000919 0.000000
# 6 0.000000 0.000000 0.000000 0.000000 0.000000 0.037298
#
#
# Mechanical properties :
#
#
# Convention : Reuss Voigt Hill
#
# Bulk Modulus (GPa) = 42.87563 51.77859 47.32711
# Shear Modulus (GPa) = 26.83136 237.73073 132.28104
#
# Velocity S-wave (km/s) = 3.43654 10.22924 7.63044
# Velocity P-wave (km/s) = 5.88372 12.73997 9.92282
#
# Compressibility (1/GPa) = 0.02332327
#
# Stress axis : x y z
#
# Youngs Moduli (GPa) = 46.85002 59.60849 79.91262
#
# Poissons Ratio (x) = 0.15976 0.77619
# Poissons Ratio (y) = 0.12556 0.10089
# Poissons Ratio (z) = 0.45506 0.07525
#
# Static dielectric constant tensor:
#      x y z
#    x 1.854570 0.000000 0.000000 
#    y 0.000000 1.831200 0.000000 
#    z 0.000000 0.000000 1.930170 
# 
# From -- ./inp_files/36882.got.cif
#   From: 2010.05.17/outbox.cif.g08.bks.cpg/sg63_19_cif.got.tgz:36882.got - 2010.06.03 15:47:04.
