data_PCOD9473590
_publ_section_title
;
Structure prediction by ZEFSAII (Michael W. Deem and Ramdas Pophale) SiO2 
 PCOD9473590
Probable space group: C M C M
;
_chemical_formula_sum "Si O2"
_cell_formula_units_Z 76
_cell_length_a 12.540086
_cell_length_b 19.926564
_cell_length_c 15.388108
_cell_angle_alpha 90.000000
_cell_angle_beta 90.000000
_cell_angle_gamma 90.000000
_cell_volume 3845.193141
_symmetry_space_group_name_H-M "C M C M"
_symmetry_group_IT_number 63
_symmetry_cell_setting 'orthorhombic'
loop_
_space_group_symop_operation_xyz
x,y,z
-x,-y,1/2+z
x,-y,-z
-x,y,1/2-z
-x,-y,-z
x,y,1/2-z
-x,y,z
x,-y,1/2+z
1/2+x,1/2+y,z
1/2-x,1/2-y,1/2+z
1/2+x,1/2-y,-z
1/2-x,1/2+y,1/2-z
1/2-x,1/2-y,-z
1/2+x,1/2+y,1/2-z
1/2-x,1/2+y,z
1/2+x,1/2-y,1/2+z
loop_
_atom_site_type_symbol
_atom_site_label
_atom_site_fract_x
_atom_site_fract_y
_atom_site_fract_z
Si Si1 0.500000 0.629721 0.150530
Si Si2 0.381822 0.074372 0.250000
Si Si3 0.236595 0.051138 0.750000
Si Si4 0.500000 0.497245 0.250000
Si Si5 0.879088 0.374649 0.111710
Si Si6 0.682654 0.275606 0.852743
Si Si7 0.380471 0.834750 0.921739
O O1 0.500000 0.657405 0.250000
O O2 0.500000 0.550065 0.167852
O O3 0.606633 0.663751 0.114472
O O4 0.500000 0.041666 0.250000
O O5 0.376186 0.119027 0.163569
O O6 0.284676 0.023460 0.250000
O O7 0.289785 0.087919 0.832649
O O8 0.108909 0.045046 0.750000
O O9 0.872781 0.295737 0.134700
O O10 0.000000 0.398550 0.130998
O O11 0.860822 0.377558 0.008477
O O12 0.706366 0.284006 0.750000
O O13 0.791751 0.279056 0.906077
O O14 0.500000 0.806715 0.929943
#
# Coordination Sequence:
#
# PCOD9473590 Si02
#       7
#     8   8   8   4  16  16  16
#     4   8  18  34  65  88 109 150 216 259 279 350
#     4  10  20  39  62  86 114 162 213 242 301 355
#     4  12  24  40  62  86 122 167 205 250 304 367
#     4  10  22  40  56  90 122 162 212 250 298 362
#     4  11  23  39  60  92 126 158 208 252 307 365
#     4  11  18  35  63  91 114 156 201 256 311 356
#     4  10  22  38  60  92 125 157 199 256 309 370
#
# _framework density 19.764937
#
# number of rings (size 3 to 8) (size 9 to 14) (size 15 to 20)
#    0.316    1.263    3.158    2.842    0.000    0.842 
#    1.895    4.211    0.000    2.526    0.000    0.000 
#    0.000    0.000    0.000    0.000    0.000    0.000 
#
# Total GULP energy -211949.154940 kJ/mol
# GULP energy per Si atom -5577.609341 kJ/mol
# Density = 1.971995 g / cm^3
# Si number density = 19.764937 Si / 1000 Ang^3
#
#
#
# Elastic Constant Matrix: (Units=GPa)
#
#
# Indices 1 2 3 4 5 6 
#
# 1 137.9590 34.9475 46.7805 0.0000 0.0000 0.0000
# 2 34.9475 46.9422 22.9892 0.0000 0.0000 0.0000
# 3 46.7805 22.9892 110.3920 0.0000 0.0000 0.0000
# 4 0.0000 0.0000 0.0000 -23.9573 0.0000 0.0000
# 5 0.0000 0.0000 0.0000 0.0000 6.6449 0.0000
# 6 0.0000 0.0000 0.0000 0.0000 0.0000 27.2588
#
#
#
# Elastic Compliance Matrix: (Units=1/GPa)
#
#
# Indices 1 2 3 4 5 6 
#
# 1 0.009703 -0.005802 -0.002904 0.000000 0.000000 0.000000
# 2 -0.005802 0.027191 -0.003204 0.000000 0.000000 0.000000
# 3 -0.002904 -0.003204 0.010956 0.000000 0.000000 0.000000
# 4 0.000000 0.000000 0.000000 -0.041741 0.000000 0.000000
# 5 0.000000 0.000000 0.000000 0.000000 0.150490 0.000000
# 6 0.000000 0.000000 0.000000 0.000000 0.000000 0.036685
#
#
# Mechanical properties :
#
#
# Convention : Reuss Voigt Hill
#
# Bulk Modulus (GPa) = 41.61146 56.08086 48.84616
# Shear Modulus (GPa) = 22.21100 14.69435 18.45267
#
# Velocity S-wave (km/s) = 3.35589 2.72960 3.05881
# Velocity P-wave (km/s) = 6.00956 6.19433 6.10265
#
# Compressibility (1/GPa) = 0.02403184
#
# Stress axis : x y z
#
# Youngs Moduli (GPa) = 103.06397 36.77680 91.27174
#
# Poissons Ratio (x) = 0.21336 0.26501
# Poissons Ratio (y) = 0.59793 0.29244
# Poissons Ratio (z) = 0.29925 0.11784
#
# Static dielectric constant tensor:
#      x y z
#    x 1.752760 0.000000 0.000000 
#    y 0.000000 1.686370 0.000000 
#    z 0.000000 0.000000 1.712530 
# 
# From -- ./inp_files/29815.got.cif
#   From: 2010.05.17/outbox.cif.g08.bks.cpg/sg63_15_cif.got.tgz:29815.got - 2010.06.03 15:47:04.
