data_PCOD9473354
_publ_section_title
;
Structure prediction by ZEFSAII (Michael W. Deem and Ramdas Pophale) SiO2 
 PCOD9473354
Probable space group: C M C M
;
_chemical_formula_sum "Si O2"
_cell_formula_units_Z 112
_cell_length_a 13.164125
_cell_length_b 25.002285
_cell_length_c 13.193941
_cell_angle_alpha 90.000000
_cell_angle_beta 90.000000
_cell_angle_gamma 90.000000
_cell_volume 4342.564088
_symmetry_space_group_name_H-M "C M C M"
_symmetry_group_IT_number 63
_symmetry_cell_setting 'orthorhombic'
loop_
_space_group_symop_operation_xyz
x,y,z
-x,-y,1/2+z
x,-y,-z
-x,y,1/2-z
-x,-y,-z
x,y,1/2-z
-x,y,z
x,-y,1/2+z
1/2+x,1/2+y,z
1/2-x,1/2-y,1/2+z
1/2+x,1/2-y,-z
1/2-x,1/2+y,1/2-z
1/2-x,1/2-y,-z
1/2+x,1/2+y,1/2-z
1/2-x,1/2+y,z
1/2+x,1/2-y,1/2+z
loop_
_atom_site_type_symbol
_atom_site_label
_atom_site_fract_x
_atom_site_fract_y
_atom_site_fract_z
Si Si1 0.114795 0.203889 0.627174
Si Si2 0.885238 0.471114 0.130364
Si Si3 0.884726 0.636935 0.503138
Si Si4 0.313270 0.643227 0.372668
Si Si5 0.317090 0.527189 0.371508
Si Si6 0.120431 0.087677 0.865143
Si Si7 0.167018 0.259066 0.129371
O O1 0.108886 0.199638 0.750000
O O2 0.150611 0.144874 0.590256
O O3 0.211072 0.241029 0.608568
O O4 0.000000 0.218140 0.594816
O O5 0.880289 0.459791 0.250000
O O6 0.863555 0.415577 0.072612
O O7 0.803352 0.517645 0.110728
O O8 0.000000 0.488329 0.107729
O O9 0.800421 0.641168 0.416731
O O10 0.878628 0.690587 0.571490
O O11 0.000000 0.632013 0.464177
O O12 0.308141 0.644128 0.250000
O O13 0.358331 0.585158 0.402486
O O14 0.367580 0.699220 0.399798
O O15 0.335277 0.526229 0.250000
O O16 0.358529 0.470383 0.409908
O O17 0.163132 0.086580 0.750000
O O18 0.000000 0.092620 0.857970
O O19 0.151548 0.266445 0.250000
#
# Coordination Sequence:
#
# PCOD9473354 Si02
#       7
#    16  16  16  16  16  16  16
#     4   8  14  26  49  82 112 138 174 222 277 332
#     4   9  18  33  55  84 114 144 184 234 284 332
#     4  11  23  38  59  86 114 146 188 238 288 336
#     4  10  23  40  56  77 109 152 196 231 273 336
#     4   9  17  32  53  77 110 150 187 227 277 332
#     4   8  13  23  44  75 105 132 169 218 270 324
#     4  10  20  37  60  84 113 146 182 229 282 338
#
# _framework density 25.791215000000001
#
# number of rings (size 3 to 8) (size 9 to 14) (size 15 to 20)
#    0.000    2.714    0.000    2.571    0.000    5.143 
#    0.000    5.000    0.000    3.429    0.000    3.000 
#    0.000    0.000    0.000    0.000    0.000    0.000 
#
# Total GULP energy -313299.908602 kJ/mol
# GULP energy per Si atom -5594.641225 kJ/mol
# Density = 2.573251 g / cm^3
# Si number density = 25.791215 Si / 1000 Ang^3
#
#
#
# Elastic Constant Matrix: (Units=GPa)
#
#
# Indices 1 2 3 4 5 6 
#
# 1 60.8769 0.0010 -8.3848 0.0000 0.0000 0.0000
# 2 0.0010 172.0927 34.2700 0.0000 0.0000 0.0000
# 3 -8.3848 34.2700 94.9416 0.0000 0.0000 0.0000
# 4 0.0000 0.0000 0.0000 51.2599 0.0000 0.0000
# 5 0.0000 0.0000 0.0000 0.0000 16.6235 0.0000
# 6 0.0000 0.0000 0.0000 0.0000 0.0000 -23.3541
#
#
#
# Elastic Compliance Matrix: (Units=1/GPa)
#
#
# Indices 1 2 3 4 5 6 
#
# 1 0.016645 -0.000316 0.001584 0.000000 0.000000 0.000000
# 2 -0.000316 0.006267 -0.002290 0.000000 0.000000 0.000000
# 3 0.001584 -0.002290 0.011499 0.000000 0.000000 0.000000
# 4 0.000000 0.000000 0.000000 0.019508 0.000000 0.000000
# 5 0.000000 0.000000 0.000000 0.000000 0.060156 0.000000
# 6 0.000000 0.000000 0.000000 0.000000 0.000000 -0.042819
#
#
# Mechanical properties :
#
#
# Convention : Reuss Voigt Hill
#
# Bulk Modulus (GPa) = 30.89501 42.18707 36.54104
# Shear Modulus (GPa) = 59.46111 29.04084 44.25098
#
# Velocity S-wave (km/s) = 4.80675 3.35923 4.14664
# Velocity P-wave (km/s) = 6.54304 5.60701 6.09302
#
# Compressibility (1/GPa) = 0.03236769
#
# Stress axis : x y z
#
# Youngs Moduli (GPa) = 60.07904 159.57024 86.96223
#
# Poissons Ratio (x) = 0.05034 -0.13774
# Poissons Ratio (y) = 0.01896 0.19914
# Poissons Ratio (z) = -0.09516 0.36541
#
# Static dielectric constant tensor:
#      x y z
#    x 1.978620 0.000000 0.000000 
#    y 0.000000 2.042300 0.000000 
#    z 0.000000 0.000000 2.100250 
# 
# From -- ./inp_files/32290.got.cif
#   From: 2010.05.17/outbox.cif.g08.bks.cpg/sg63_17_cif.got.tgz:32290.got - 2010.06.03 15:47:04.
