data_PCOD9473138
_publ_section_title
;
Structure prediction by ZEFSAII (Michael W. Deem and Ramdas Pophale) SiO2 
 PCOD9473138
Probable space group: C M C M
;
_chemical_formula_sum "Si O2"
_cell_formula_units_Z 116
_cell_length_a 15.929668
_cell_length_b 18.238287
_cell_length_c 21.179281
_cell_angle_alpha 90.000000
_cell_angle_beta 90.000000
_cell_angle_gamma 90.000000
_cell_volume 6153.213476
_symmetry_space_group_name_H-M "C M C M"
_symmetry_group_IT_number 63
_symmetry_cell_setting 'orthorhombic'
loop_
_space_group_symop_operation_xyz
x,y,z
-x,-y,1/2+z
x,-y,-z
-x,y,1/2-z
-x,-y,-z
x,y,1/2-z
-x,y,z
x,-y,1/2+z
1/2+x,1/2+y,z
1/2-x,1/2-y,1/2+z
1/2+x,1/2-y,-z
1/2-x,1/2+y,1/2-z
1/2-x,1/2-y,-z
1/2+x,1/2+y,1/2-z
1/2-x,1/2+y,z
1/2+x,1/2-y,1/2+z
loop_
_atom_site_type_symbol
_atom_site_label
_atom_site_fract_x
_atom_site_fract_y
_atom_site_fract_z
Si Si1 0.869948 0.787362 0.652078
Si Si2 0.596313 0.816101 0.564430
Si Si3 0.742504 0.073677 0.039945
Si Si4 0.593235 0.403501 0.174183
Si Si5 0.685891 0.446010 0.822796
Si Si6 0.179097 0.246442 0.825326
Si Si7 0.500000 0.230690 0.750000
Si Si8 0.906161 0.831769 0.513285
O O1 0.868423 0.871398 0.677310
O O2 0.773888 0.761781 0.653970
O O3 0.927030 0.737699 0.695425
O O4 0.902197 0.793325 0.581541
O O5 0.500000 0.839807 0.556306
O O6 0.664490 0.870603 0.534533
O O7 0.619538 0.802598 0.637670
O O8 0.605766 0.735216 0.534548
O O9 0.754087 0.060876 0.115914
O O10 0.828964 0.111332 0.014899
O O11 0.728930 0.000000 0.000000
O O12 0.586762 0.399739 0.250000
O O13 0.500000 0.393690 0.147343
O O14 0.630238 0.483084 0.161265
O O15 0.652416 0.336108 0.156971
O O16 0.719312 0.454152 0.750000
O O17 0.173220 0.255388 0.750000
O O18 0.000000 0.864060 0.504944
#
# Coordination Sequence:
#
# PCOD9473138 Si02
#       8
#    16  16  16  16  16  16   4  16
#     4  11  21  33  62  90 125 157 195 248 300 366
#     4  11  24  41  64  86 117 166 214 253 301 358
#     4  11  25  40  61  89 121 162 199 253 308 362
#     4   9  20  33  53  83 120 155 188 234 297 361
#     4  10  20  36  58  88 117 158 191 241 301 368
#     4  11  21  38  58  91 124 158 203 251 305 357
#     4  12  20  32  60 100 120 156 200 254 304 352
#     4  10  22  40  61  89 121 159 202 248 305 372
#
# _framework density 18.851938000000001
#
# number of rings (size 3 to 8) (size 9 to 14) (size 15 to 20)
#    0.000    1.517    4.828    0.828    2.897    1.931 
#    0.000    0.000    0.000    0.000    0.000    0.000 
#    0.000    0.000    0.000    0.000    0.000    0.000 
#
# Total GULP energy -322991.727594 kJ/mol
# GULP energy per Si atom -5568.822890 kJ/mol
# Density = 1.880903 g / cm^3
# Si number density = 18.851938 Si / 1000 Ang^3
#
#
#
# Elastic Constant Matrix: (Units=GPa)
#
#
# Indices 1 2 3 4 5 6 
#
# 1 136.0393 68.4817 21.8582 0.0000 0.0000 0.0000
# 2 68.4817 77.5305 9.3032 0.0000 0.0000 0.0000
# 3 21.8582 9.3032 77.3816 0.0000 0.0000 0.0000
# 4 0.0000 0.0000 0.0000 22.7520 0.0000 0.0000
# 5 0.0000 0.0000 0.0000 0.0000 19.3821 0.0000
# 6 0.0000 0.0000 0.0000 0.0000 0.0000 -42.1047
#
#
#
# Elastic Compliance Matrix: (Units=1/GPa)
#
#
# Indices 1 2 3 4 5 6 
#
# 1 0.013678 -0.011788 -0.002446 0.000000 0.000000 0.000000
# 2 -0.011788 0.023246 0.000535 0.000000 0.000000 0.000000
# 3 -0.002446 0.000535 0.013550 0.000000 0.000000 0.000000
# 4 0.000000 0.000000 0.000000 0.043952 0.000000 0.000000
# 5 0.000000 0.000000 0.000000 0.000000 0.051594 0.000000
# 6 0.000000 0.000000 0.000000 0.000000 0.000000 -0.023750
#
#
# Mechanical properties :
#
#
# Convention : Reuss Voigt Hill
#
# Bulk Modulus (GPa) = 43.33704 54.47086 48.90395
# Shear Modulus (GPa) = 31.77424 12.75976 22.26700
#
# Velocity S-wave (km/s) = 4.10989 2.60444 3.44052
# Velocity P-wave (km/s) = 6.74979 6.16449 6.46377
#
# Compressibility (1/GPa) = 0.02307495
#
# Stress axis : x y z
#
# Youngs Moduli (GPa) = 73.11040 43.01788 73.80242
#
# Poissons Ratio (x) = 0.50709 0.18055
# Poissons Ratio (y) = 0.86183 -0.03949
# Poissons Ratio (z) = 0.17886 -0.02302
#
# Static dielectric constant tensor:
#      x y z
#    x 1.655670 0.000000 0.000000 
#    y 0.000000 1.643010 0.000000 
#    z 0.000000 0.000000 1.707820 
# 
# From -- ./inp_files/63206.got.cif
#   From: 2010.05.17/outbox.cif.g08.bks.cpg/sg63_32_cif.got.tgz:63206.got - 2010.06.03 15:47:04.
