data_PCOD9473216
_publ_section_title
;
Structure prediction by ZEFSAII (Michael W. Deem and Ramdas Pophale) SiO2 
 PCOD9473216
Probable space group: C M C M
;
_chemical_formula_sum "Si O2"
_cell_formula_units_Z 100
_cell_length_a 23.979041
_cell_length_b 14.738206
_cell_length_c 14.039842
_cell_angle_alpha 90.000000
_cell_angle_beta 90.000000
_cell_angle_gamma 90.000000
_cell_volume 4961.793127
_symmetry_space_group_name_H-M "C M C M"
_symmetry_group_IT_number 63
_symmetry_cell_setting 'orthorhombic'
loop_
_space_group_symop_operation_xyz
x,y,z
-x,-y,1/2+z
x,-y,-z
-x,y,1/2-z
-x,-y,-z
x,y,1/2-z
-x,y,z
x,-y,1/2+z
1/2+x,1/2+y,z
1/2-x,1/2-y,1/2+z
1/2+x,1/2-y,-z
1/2-x,1/2+y,1/2-z
1/2-x,1/2-y,-z
1/2+x,1/2+y,1/2-z
1/2-x,1/2+y,z
1/2+x,1/2-y,1/2+z
loop_
_atom_site_type_symbol
_atom_site_label
_atom_site_fract_x
_atom_site_fract_y
_atom_site_fract_z
Si Si1 0.736107 0.963105 0.358893
Si Si2 0.000000 0.230042 0.359513
Si Si3 0.000000 0.404108 0.250000
Si Si4 0.134257 0.579004 0.435273
Si Si5 0.134426 0.052059 0.863726
Si Si6 0.695537 0.219722 0.941922
Si Si7 0.608100 0.639819 0.058204
Si Si8 0.563148 0.080133 0.250000
O O1 0.736055 0.989430 0.250000
O O2 0.800200 0.962268 0.389674
O O3 0.713686 0.860437 0.371217
O O4 0.693548 0.032755 0.407070
O O5 0.945548 0.197136 0.413475
O O6 0.000000 0.193439 0.250000
O O7 0.000000 0.337998 0.340491
O O8 0.052624 0.470937 0.250000
O O9 0.106532 0.500000 0.500000
O O10 0.150444 0.668736 0.491698
O O11 0.097710 0.601389 0.343923
O O12 0.129956 0.074314 0.750000
O O13 0.105215 0.956895 0.888650
O O14 0.113040 0.122100 0.944286
O O15 0.663249 0.307537 0.905109
O O16 0.750000 0.250000 0.000000
O O17 0.500000 0.118095 0.250000
#
# Coordination Sequence:
#
# PCOD9473216 Si02
#       8
#    16   8   4  16  16  16  16   8
#     4  10  20  36  60  89 128 165 211 258 325 398
#     4  10  24  41  65 103 124 162 221 282 308 373
#     4   8  24  40  70  86 136 150 236 278 308 350
#     4  10  22  36  63  91 127 169 215 259 324 394
#     4  10  22  40  62  91 124 170 211 265 332 410
#     4  11  22  38  61  96 128 165 208 267 327 391
#     4  11  23  41  65  88 130 166 216 269 334 375
#     4  10  22  44  62  93 127 179 221 267 314 382
#
# _framework density 20.154004
#
# number of rings (size 3 to 8) (size 9 to 14) (size 15 to 20)
#    0.480    1.280    2.400    1.440    8.960    2.880 
#    4.320    1.200    0.000    0.000    0.000    0.000 
#    0.000    0.000    0.000    0.000    0.000    0.000 
#
# Total GULP energy -278874.722150 kJ/mol
# GULP energy per Si atom -5577.494443 kJ/mol
# Density = 2.010813 g / cm^3
# Si number density = 20.154004 Si / 1000 Ang^3
#
#
#
# Elastic Constant Matrix: (Units=GPa)
#
#
# Indices 1 2 3 4 5 6 
#
# 1 71.6548 -9.0222 20.1352 0.0000 0.0000 0.0000
# 2 -9.0222 46.9669 -13.6974 0.0000 0.0000 0.0000
# 3 20.1352 -13.6974 94.2027 0.0000 0.0000 0.0000
# 4 0.0000 0.0000 0.0000 15.6559 0.0000 0.0000
# 5 0.0000 0.0000 0.0000 0.0000 19.3949 0.0000
# 6 0.0000 0.0000 0.0000 0.0000 0.0000 5.4693
#
#
#
# Elastic Compliance Matrix: (Units=1/GPa)
#
#
# Indices 1 2 3 4 5 6 
#
# 1 0.015032 0.002037 -0.002917 0.000000 0.000000 0.000000
# 2 0.002037 0.022510 0.002838 0.000000 0.000000 0.000000
# 3 -0.002917 0.002838 0.011651 0.000000 0.000000 0.000000
# 4 0.000000 0.000000 0.000000 0.063874 0.000000 0.000000
# 5 0.000000 0.000000 0.000000 0.000000 0.051560 0.000000
# 6 0.000000 0.000000 0.000000 0.000000 0.000000 0.182840
#
#
# Mechanical properties :
#
#
# Convention : Reuss Voigt Hill
#
# Bulk Modulus (GPa) = 18.82902 23.07286 20.95094
# Shear Modulus (GPa) = 13.84064 22.46460 18.15262
#
# Velocity S-wave (km/s) = 2.62342 3.34225 3.00441
# Velocity P-wave (km/s) = 4.30573 5.13491 4.73849
#
# Compressibility (1/GPa) = 0.05310952
#
# Stress axis : x y z
#
# Youngs Moduli (GPa) = 66.52517 44.42380 85.82611
#
# Poissons Ratio (x) = -0.09049 0.25034
# Poissons Ratio (y) = -0.13551 -0.24355
# Poissons Ratio (z) = 0.19404 -0.12606
#
# Static dielectric constant tensor:
#      x y z
#    x 1.704470 0.000000 0.000000 
#    y 0.000000 1.711710 0.000000 
#    z 0.000000 0.000000 1.738240 
# 
# From -- ./inp_files/36835.got.cif
#   From: 2010.05.17/outbox.cif.g08.bks.cpg/sg63_19_cif.got.tgz:36835.got - 2010.06.03 15:47:04.
