data_PCOD9473101
_publ_section_title
;
Structure prediction by ZEFSAII (Michael W. Deem and Ramdas Pophale) SiO2 
 PCOD9473101
Probable space group: C M C M
;
_chemical_formula_sum "Si O2"
_cell_formula_units_Z 80
_cell_length_a 18.434580
_cell_length_b 19.822132
_cell_length_c 11.589864
_cell_angle_alpha 90.000000
_cell_angle_beta 90.000000
_cell_angle_gamma 90.000000
_cell_volume 4235.083243
_symmetry_space_group_name_H-M "C M C M"
_symmetry_group_IT_number 63
_symmetry_cell_setting 'orthorhombic'
loop_
_space_group_symop_operation_xyz
x,y,z
-x,-y,1/2+z
x,-y,-z
-x,y,1/2-z
-x,-y,-z
x,y,1/2-z
-x,y,z
x,-y,1/2+z
1/2+x,1/2+y,z
1/2-x,1/2-y,1/2+z
1/2+x,1/2-y,-z
1/2-x,1/2+y,1/2-z
1/2-x,1/2-y,-z
1/2+x,1/2+y,1/2-z
1/2-x,1/2+y,z
1/2+x,1/2-y,1/2+z
loop_
_atom_site_type_symbol
_atom_site_label
_atom_site_fract_x
_atom_site_fract_y
_atom_site_fract_z
Si Si1 0.500000 0.688301 0.389627
Si Si2 0.000000 0.339669 0.117330
Si Si3 0.209395 0.045676 0.882916
Si Si4 0.806435 0.684872 0.117182
Si Si5 0.368391 0.927537 0.034310
Si Si6 0.153053 0.824585 0.998636
O O1 0.500000 0.682319 0.250000
O O2 0.500000 0.765709 0.436444
O O3 0.423917 0.660867 0.439043
O O4 0.929161 0.382600 0.091860
O O5 0.000000 0.323487 0.250000
O O6 0.193300 0.021851 0.750000
O O7 0.295872 0.059733 0.891349
O O8 0.170320 0.117108 0.908198
O O9 0.194127 0.000000 0.000000
O O10 0.817465 0.696449 0.250000
O O11 0.721156 0.675783 0.089223
O O12 0.842658 0.615874 0.075094
O O13 0.839753 0.749380 0.051322
O O14 0.398209 0.000000 0.000000
#
# Coordination Sequence:
#
# PCOD9473101 Si02
#       6
#     8   8  16  16  16  16
#     4  11  22  37  60  88 119 159 202 251 307 356
#     4  11  21  35  53  78 119 161 202 243 292 352
#     4  10  22  40  65  93 121 157 201 252 309 367
#     4  10  20  36  58  83 113 154 202 252 300 351
#     4  10  21  36  56  84 121 158 204 245 293 353
#     4  10  21  38  59  86 117 151 200 250 302 361
#
# _framework density 18.889828999999999
#
# number of rings (size 3 to 8) (size 9 to 14) (size 15 to 20)
#    0.000    1.800    2.000    2.100    0.000    8.800 
#    0.000    4.000    0.000    0.000    0.000    0.000 
#    0.000    0.000    0.000    0.000    0.000    0.000 
#
# Total GULP energy -222844.925349 kJ/mol
# GULP energy per Si atom -5571.123134 kJ/mol
# Density = 1.884684 g / cm^3
# Si number density = 18.889829 Si / 1000 Ang^3
#
#
#
# Elastic Constant Matrix: (Units=GPa)
#
#
# Indices 1 2 3 4 5 6 
#
# 1 76.7925 3.6099 25.4054 0.0000 0.0000 0.0000
# 2 3.6099 62.0755 9.8967 0.0000 0.0000 0.0000
# 3 25.4054 9.8967 78.1406 0.0000 0.0000 0.0000
# 4 0.0000 0.0000 0.0000 17.3356 0.0000 0.0000
# 5 0.0000 0.0000 0.0000 0.0000 1.3985 0.0000
# 6 0.0000 0.0000 0.0000 0.0000 0.0000 24.4602
#
#
#
# Elastic Compliance Matrix: (Units=1/GPa)
#
#
# Indices 1 2 3 4 5 6 
#
# 1 0.014592 -0.000094 -0.004732 0.000000 0.000000 0.000000
# 2 -0.000094 0.016442 -0.002052 0.000000 0.000000 0.000000
# 3 -0.004732 -0.002052 0.014596 0.000000 0.000000 0.000000
# 4 0.000000 0.000000 0.000000 0.057685 0.000000 0.000000
# 5 0.000000 0.000000 0.000000 0.000000 0.715072 0.000000
# 6 0.000000 0.000000 0.000000 0.000000 0.000000 0.040883
#
#
# Mechanical properties :
#
#
# Convention : Reuss Voigt Hill
#
# Bulk Modulus (GPa) = 31.37400 32.75917 32.06659
# Shear Modulus (GPa) = 5.65835 20.51198 13.08516
#
# Velocity S-wave (km/s) = 1.73261 3.29884 2.63479
# Velocity P-wave (km/s) = 4.54396 5.64709 5.12529
#
# Compressibility (1/GPa) = 0.03187353
#
# Stress axis : x y z
#
# Youngs Moduli (GPa) = 68.53011 60.81980 68.51239
#
# Poissons Ratio (x) = 0.00572 0.32422
# Poissons Ratio (y) = 0.00645 0.14058
# Poissons Ratio (z) = 0.32431 0.12479
#
# Static dielectric constant tensor:
#      x y z
#    x 1.637630 0.000000 0.000000 
#    y 0.000000 1.676590 0.000000 
#    z 0.000000 0.000000 1.662370 
# 
# From -- ./inp_files/21053.got.cif
#   From: 2010.05.17/outbox.cif.g08.bks.cpg/sg63_11_cif.got.tgz:21053.got - 2010.06.03 15:47:04.
