data_PCOD9473151
_publ_section_title
;
Structure prediction by ZEFSAII (Michael W. Deem and Ramdas Pophale) SiO2 
 PCOD9473151
Probable space group: C M C M
;
_chemical_formula_sum "Si O2"
_cell_formula_units_Z 72
_cell_length_a 16.115778
_cell_length_b 11.749031
_cell_length_c 20.367830
_cell_angle_alpha 90.000000
_cell_angle_beta 90.000000
_cell_angle_gamma 90.000000
_cell_volume 3856.542195
_symmetry_space_group_name_H-M "C M C M"
_symmetry_group_IT_number 63
_symmetry_cell_setting 'orthorhombic'
loop_
_space_group_symop_operation_xyz
x,y,z
-x,-y,1/2+z
x,-y,-z
-x,y,1/2-z
-x,-y,-z
x,y,1/2-z
-x,y,z
x,-y,1/2+z
1/2+x,1/2+y,z
1/2-x,1/2-y,1/2+z
1/2+x,1/2-y,-z
1/2-x,1/2+y,1/2-z
1/2-x,1/2-y,-z
1/2+x,1/2+y,1/2-z
1/2-x,1/2+y,z
1/2+x,1/2-y,1/2+z
loop_
_atom_site_type_symbol
_atom_site_label
_atom_site_fract_x
_atom_site_fract_y
_atom_site_fract_z
Si Si1 0.093222 0.868387 0.625339
Si Si2 0.705610 0.021820 0.750000
Si Si3 0.652666 0.602905 0.651889
Si Si4 0.293927 0.627460 0.503813
Si Si5 0.599346 0.765947 0.250000
Si Si6 0.097952 0.704995 0.250000
O O1 0.144241 0.871675 0.558287
O O2 0.131685 0.791926 0.683242
O O3 0.000000 0.828826 0.611499
O O4 0.092401 0.994887 0.655013
O O5 0.763918 0.055997 0.811958
O O6 0.627435 0.105492 0.750000
O O7 0.665140 0.897155 0.750000
O O8 0.666025 0.627889 0.575718
O O9 0.617980 0.712561 0.688684
O O10 0.251053 0.500000 0.500000
O O11 0.250000 0.750000 0.500000
O O12 0.500000 0.751045 0.250000
O O13 0.000000 0.671510 0.250000
#
# Coordination Sequence:
#
# PCOD9473151 Si02
#       6
#    16   8  16  16   8   8
#     4  10  21  38  62  89 117 154 197 246 303 360
#     4  11  23  35  60  85 120 159 202 240 311 360
#     4  10  23  36  61  86 116 154 199 251 297 361
#     4  10  22  38  61  87 120 155 199 245 299 357
#     4  10  20  36  59  83 119 155 196 241 295 372
#     4  11  24  39  58  88 125 158 202 257 309 358
#
# _framework density 18.669574000000001
#
# number of rings (size 3 to 8) (size 9 to 14) (size 15 to 20)
#    0.000    1.778    0.000    3.667   12.444    5.778 
#    0.000    0.000    0.000    0.667    0.000    0.000 
#    0.000    0.000    0.000    0.000    0.000    0.000 
#
# Total GULP energy -200540.550817 kJ/mol
# GULP energy per Si atom -5570.570856 kJ/mol
# Density = 1.862708 g / cm^3
# Si number density = 18.669574 Si / 1000 Ang^3
#
#
#
# Elastic Constant Matrix: (Units=GPa)
#
#
# Indices 1 2 3 4 5 6 
#
# 1 61.4818 33.6414 28.4488 0.0000 0.0000 0.0000
# 2 33.6414 121.2822 40.4862 0.0000 0.0000 0.0000
# 3 28.4488 40.4862 133.4082 0.0000 0.0000 0.0000
# 4 0.0000 0.0000 0.0000 131.8440 0.0000 0.0000
# 5 0.0000 0.0000 0.0000 0.0000 7.9560 0.0000
# 6 0.0000 0.0000 0.0000 0.0000 0.0000 29.8774
#
#
#
# Elastic Compliance Matrix: (Units=1/GPa)
#
#
# Indices 1 2 3 4 5 6 
#
# 1 0.020130 -0.004619 -0.002891 0.000000 0.000000 0.000000
# 2 -0.004619 0.010234 -0.002121 0.000000 0.000000 0.000000
# 3 -0.002891 -0.002121 0.008756 0.000000 0.000000 0.000000
# 4 0.000000 0.000000 0.000000 0.007585 0.000000 0.000000
# 5 0.000000 0.000000 0.000000 0.000000 0.125691 0.000000
# 6 0.000000 0.000000 0.000000 0.000000 0.000000 0.033470
#
#
# Mechanical properties :
#
#
# Convention : Reuss Voigt Hill
#
# Bulk Modulus (GPa) = 50.35484 57.92500 54.13992
# Shear Modulus (GPa) = 21.57526 48.17519 34.87522
#
# Velocity S-wave (km/s) = 3.40315 5.08529 4.32675
# Velocity P-wave (km/s) = 6.51706 8.09777 7.35004
#
# Compressibility (1/GPa) = 0.01985907
#
# Stress axis : x y z
#
# Youngs Moduli (GPa) = 49.67742 97.71000 114.20805
#
# Poissons Ratio (x) = 0.45128 0.33017
# Poissons Ratio (y) = 0.22944 0.24223
# Poissons Ratio (z) = 0.14362 0.20724
#
# Static dielectric constant tensor:
#      x y z
#    x 1.655730 0.000000 0.000000 
#    y 0.000000 1.681680 0.000000 
#    z 0.000000 0.000000 1.669010 
# 
# From -- ./inp_files/55267.got.cif
#   From: 2010.05.17/outbox.cif.g08.bks.cpg/sg63_28_cif.got.tgz:55267.got - 2010.06.03 15:47:04.
