data_PCOD9473867
_publ_section_title
;
Structure prediction by ZEFSAII (Michael W. Deem and Ramdas Pophale) SiO2 
 PCOD9473867
Probable space group: C M C M
;
_chemical_formula_sum "Si O2"
_cell_formula_units_Z 92
_cell_length_a 19.132303
_cell_length_b 28.990710
_cell_length_c 8.838477
_cell_angle_alpha 90.000000
_cell_angle_beta 90.000000
_cell_angle_gamma 90.000000
_cell_volume 4902.341238
_symmetry_space_group_name_H-M "C M C M"
_symmetry_group_IT_number 63
_symmetry_cell_setting 'orthorhombic'
loop_
_space_group_symop_operation_xyz
x,y,z
-x,-y,1/2+z
x,-y,-z
-x,y,1/2-z
-x,-y,-z
x,y,1/2-z
-x,y,z
x,-y,1/2+z
1/2+x,1/2+y,z
1/2-x,1/2-y,1/2+z
1/2+x,1/2-y,-z
1/2-x,1/2+y,1/2-z
1/2-x,1/2-y,-z
1/2+x,1/2+y,1/2-z
1/2-x,1/2+y,z
1/2+x,1/2-y,1/2+z
loop_
_atom_site_type_symbol
_atom_site_label
_atom_site_fract_x
_atom_site_fract_y
_atom_site_fract_z
Si Si1 0.500000 0.630878 0.750000
Si Si2 0.856103 0.877107 0.418490
Si Si3 0.418942 0.197428 0.067994
Si Si4 0.500000 0.050576 0.931484
Si Si5 0.269059 0.449158 0.929419
Si Si6 0.184444 0.223125 0.932110
Si Si7 0.360635 0.893781 0.068483
O O1 0.562660 0.630200 0.879491
O O2 0.823600 0.885429 0.250000
O O3 0.837337 0.920618 0.519752
O O4 0.824299 0.829641 0.482682
O O5 0.416456 0.191117 0.250000
O O6 0.500000 0.194501 0.020485
O O7 0.384633 0.246849 0.033985
O O8 0.373138 0.157915 0.989893
O O9 0.500000 0.047090 0.750000
O O10 0.430722 0.078318 0.976105
O O11 0.500000 0.000000 0.000000
O O12 0.264002 0.452584 0.750000
O O13 0.267969 0.500000 0.000000
O O14 0.204743 0.419143 0.993994
O O15 0.191178 0.221710 0.750000
O O16 0.250000 0.250000 0.000000
O O17 0.354667 0.894050 0.250000
#
# Coordination Sequence:
#
# PCOD9473867 Si02
#       7
#     4  16  16   8  16  16  16
#     4   8  20  40  74  92 120 158 216 246 334 362
#     4   9  20  40  67  93 123 164 206 262 312 378
#     4  10  21  35  57  87 122 165 212 258 308 364
#     4  10  22  36  53  78 113 156 211 261 306 359
#     4  12  25  42  66  94 126 160 205 255 320 385
#     4  10  21  35  57  89 125 164 211 255 306 362
#     4  11  22  39  58  85 123 168 213 261 313 365
#
# _framework density 18.766545000000001
#
# number of rings (size 3 to 8) (size 9 to 14) (size 15 to 20)
#    0.522    1.217    0.870    3.652    1.217    6.957 
#    0.000    0.870    0.000    0.000    0.000    0.000 
#    0.000    0.000    0.000    0.000    0.000    0.000 
#
# Total GULP energy -256249.286519 kJ/mol
# GULP energy per Si atom -5570.636663 kJ/mol
# Density = 1.872383 g / cm^3
# Si number density = 18.766545 Si / 1000 Ang^3
#
#
#
# Elastic Constant Matrix: (Units=GPa)
#
#
# Indices 1 2 3 4 5 6 
#
# 1 92.0543 24.7218 20.8095 0.0000 0.0000 0.0000
# 2 24.7218 107.1458 43.9887 0.0000 0.0000 0.0000
# 3 20.8095 43.9887 56.8680 0.0000 0.0000 0.0000
# 4 0.0000 0.0000 0.0000 24.0406 0.0000 0.0000
# 5 0.0000 0.0000 0.0000 0.0000 22.3908 0.0000
# 6 0.0000 0.0000 0.0000 0.0000 0.0000 24.9922
#
#
#
# Elastic Compliance Matrix: (Units=1/GPa)
#
#
# Indices 1 2 3 4 5 6 
#
# 1 0.011987 -0.001414 -0.003293 0.000000 0.000000 0.000000
# 2 -0.001414 0.013843 -0.010190 0.000000 0.000000 0.000000
# 3 -0.003293 -0.010190 0.026672 0.000000 0.000000 0.000000
# 4 0.000000 0.000000 0.000000 0.041596 0.000000 0.000000
# 5 0.000000 0.000000 0.000000 0.000000 0.044661 0.000000
# 6 0.000000 0.000000 0.000000 0.000000 0.000000 0.040012
#
#
# Mechanical properties :
#
#
# Convention : Reuss Voigt Hill
#
# Bulk Modulus (GPa) = 44.03741 48.34533 46.19137
# Shear Modulus (GPa) = 23.13361 25.38794 24.26077
#
# Velocity S-wave (km/s) = 3.51480 3.68207 3.59941
# Velocity P-wave (km/s) = 6.32365 6.62527 6.47622
#
# Compressibility (1/GPa) = 0.02270796
#
# Stress axis : x y z
#
# Youngs Moduli (GPa) = 83.42209 72.23853 37.49253
#
# Poissons Ratio (x) = 0.10215 0.12345
# Poissons Ratio (y) = 0.11796 0.38207
# Poissons Ratio (z) = 0.27468 0.73614
#
# Static dielectric constant tensor:
#      x y z
#    x 1.656090 0.000000 0.000000 
#    y 0.000000 1.648460 0.000000 
#    z 0.000000 0.000000 1.605640 
# 
# From -- ./inp_files/8675.got.cif
#   From: 2010.05.17/outbox.cif.g08.bks.cpg/sg63_5_cif.got.tgz:8675.got - 2010.06.03 15:47:04.
