data_PCOD9473783
_publ_section_title
;
Structure prediction by ZEFSAII (Michael W. Deem and Ramdas Pophale) SiO2 
 PCOD9473783
Probable space group: C M C M
;
_chemical_formula_sum "Si O2"
_cell_formula_units_Z 96
_cell_length_a 9.776917
_cell_length_b 32.323419
_cell_length_c 14.882739
_cell_angle_alpha 90.000000
_cell_angle_beta 90.000000
_cell_angle_gamma 90.000000
_cell_volume 4703.293553
_symmetry_space_group_name_H-M "C M C M"
_symmetry_group_IT_number 63
_symmetry_cell_setting 'orthorhombic'
loop_
_space_group_symop_operation_xyz
x,y,z
-x,-y,1/2+z
x,-y,-z
-x,y,1/2-z
-x,-y,-z
x,y,1/2-z
-x,y,z
x,-y,1/2+z
1/2+x,1/2+y,z
1/2-x,1/2-y,1/2+z
1/2+x,1/2-y,-z
1/2-x,1/2+y,1/2-z
1/2-x,1/2-y,-z
1/2+x,1/2+y,1/2-z
1/2-x,1/2+y,z
1/2+x,1/2-y,1/2+z
loop_
_atom_site_type_symbol
_atom_site_label
_atom_site_fract_x
_atom_site_fract_y
_atom_site_fract_z
Si Si1 0.343485 0.620276 0.889950
Si Si2 0.342588 0.713199 0.889911
Si Si3 0.340675 0.710924 0.109004
Si Si4 0.157613 0.879377 0.893884
Si Si5 0.155783 0.030112 0.356738
Si Si6 0.153566 0.542733 0.856255
O O1 0.500000 0.611003 0.860547
O O2 0.306245 0.666728 0.859714
O O3 0.236828 0.585319 0.864129
O O4 0.345752 0.621333 0.998233
O O5 0.500000 0.720796 0.864896
O O6 0.246005 0.750139 0.858850
O O7 0.337740 0.712358 0.999486
O O8 0.500000 0.714020 0.134982
O O9 0.286292 0.665287 0.135700
O O10 0.216837 0.923803 0.868193
O O11 0.000000 0.880383 0.861289
O O12 0.143162 0.023280 0.250000
O O13 0.000000 0.028922 0.394555
O O14 0.252591 0.994231 0.393874
O O15 0.139870 0.534590 0.750000
O O16 0.000000 0.544950 0.894648
#
# Coordination Sequence:
#
# PCOD9473783 Si02
#       6
#    16  16  16  16  16  16
#     4   9  17  30  48  68  91 119 151 187 224 263
#     4   8  14  24  39  62  89 115 146 182 217 256
#     4   8  13  23  40  61  88 120 148 177 217 260
#     4   8  15  28  46  70  95 117 148 190 226 255
#     4   9  17  31  51  69  86 116 155 185 215 265
#     4  10  21  35  48  64  89 117 146 185 230 273
#
# _framework density 20.411228000000001
#
# number of rings (size 3 to 8) (size 9 to 14) (size 15 to 20)
#    0.000    3.333    0.000    2.500    0.000    2.333 
#    0.000    7.500    0.000    1.000    0.000    2.333 
#    0.000    0.000    0.000    0.000    0.000    0.000 
#
# Total GULP energy -267469.986931 kJ/mol
# GULP energy per Si atom -5572.291394 kJ/mol
# Density = 2.036477 g / cm^3
# Si number density = 20.411228 Si / 1000 Ang^3
#
#
#
# Elastic Constant Matrix: (Units=GPa)
#
#
# Indices 1 2 3 4 5 6 
#
# 1 107.1480 120.1505 3.6581 0.0000 0.0000 0.0000
# 2 120.1505 217.0716 -0.2986 0.0000 0.0000 0.0000
# 3 3.6581 -0.2986 47.9566 0.0000 0.0000 0.0000
# 4 0.0000 0.0000 0.0000 34.0156 0.0000 0.0000
# 5 0.0000 0.0000 0.0000 0.0000 4.8720 0.0000
# 6 0.0000 0.0000 0.0000 0.0000 0.0000 29.8365
#
#
#
# Elastic Compliance Matrix: (Units=1/GPa)
#
#
# Indices 1 2 3 4 5 6 
#
# 1 0.024790 -0.013724 -0.001976 0.000000 0.000000 0.000000
# 2 -0.013724 0.012205 0.001123 0.000000 0.000000 0.000000
# 3 -0.001976 0.001123 0.021010 0.000000 0.000000 0.000000
# 4 0.000000 0.000000 0.000000 0.029398 0.000000 0.000000
# 5 0.000000 0.000000 0.000000 0.000000 0.205256 0.000000
# 6 0.000000 0.000000 0.000000 0.000000 0.000000 0.033516
#
#
# Mechanical properties :
#
#
# Convention : Reuss Voigt Hill
#
# Bulk Modulus (GPa) = 34.66297 68.79958 51.73127
# Shear Modulus (GPa) = 13.70064 30.32256 22.01160
#
# Velocity S-wave (km/s) = 2.59362 3.85851 3.28747
# Velocity P-wave (km/s) = 5.09788 7.32330 6.30948
#
# Compressibility (1/GPa) = 0.02884923
#
# Stress axis : x y z
#
# Youngs Moduli (GPa) = 40.33910 81.93588 47.59656
#
# Poissons Ratio (x) = 1.12449 0.09407
# Poissons Ratio (y) = 0.55362 -0.05344
# Poissons Ratio (z) = 0.07973 -0.09200
#
# Static dielectric constant tensor:
#      x y z
#    x 1.709620 0.000000 0.000000 
#    y 0.000000 1.745350 0.000000 
#    z 0.000000 0.000000 1.780140 
# 
# From -- ./inp_files/51426.got.cif
#   From: 2010.05.17/outbox.cif.g08.bks.cpg/sg63_26_cif.got.tgz:51426.got - 2010.06.03 15:47:04.
