data_PCOD9473278
_publ_section_title
;
Structure prediction by ZEFSAII (Michael W. Deem and Ramdas Pophale) SiO2 
 PCOD9473278
Probable space group: C M C M
;
_chemical_formula_sum "Si O2"
_cell_formula_units_Z 96
_cell_length_a 20.148667
_cell_length_b 14.611761
_cell_length_c 17.891223
_cell_angle_alpha 90.000000
_cell_angle_beta 90.000000
_cell_angle_gamma 90.000000
_cell_volume 5267.310355
_symmetry_space_group_name_H-M "C M C M"
_symmetry_group_IT_number 63
_symmetry_cell_setting 'orthorhombic'
loop_
_space_group_symop_operation_xyz
x,y,z
-x,-y,1/2+z
x,-y,-z
-x,y,1/2-z
-x,-y,-z
x,y,1/2-z
-x,y,z
x,-y,1/2+z
1/2+x,1/2+y,z
1/2-x,1/2-y,1/2+z
1/2+x,1/2-y,-z
1/2-x,1/2+y,1/2-z
1/2-x,1/2-y,-z
1/2+x,1/2+y,1/2-z
1/2-x,1/2+y,z
1/2+x,1/2-y,1/2+z
loop_
_atom_site_type_symbol
_atom_site_label
_atom_site_fract_x
_atom_site_fract_y
_atom_site_fract_z
Si Si1 0.078743 0.234191 0.061169
Si Si2 0.307626 0.585507 0.838383
Si Si3 0.921818 0.025912 0.413193
Si Si4 0.690441 0.761960 0.940726
Si Si5 0.811334 0.472561 0.912721
Si Si6 0.421232 0.090018 0.837596
O O1 0.093651 0.133724 0.093875
O O2 0.093308 0.314809 0.119811
O O3 0.000000 0.235776 0.043929
O O4 0.122840 0.249928 0.988052
O O5 0.301563 0.594325 0.750000
O O6 0.375837 0.535675 0.861698
O O7 0.304458 0.683167 0.879270
O O8 0.248929 0.522877 0.871425
O O9 0.000000 0.011835 0.398903
O O10 0.908939 0.000000 0.500000
O O11 0.693529 0.863576 0.907748
O O12 0.750000 0.750000 0.000000
O O13 0.878467 0.511724 0.876769
O O14 0.809191 0.500000 0.000000
O O15 0.404791 0.096843 0.750000
O O16 0.500000 0.073085 0.844452
#
# Coordination Sequence:
#
# PCOD9473278 Si02
#       6
#    16  16  16  16  16  16
#     4  10  20  36  64  94 120 159 206 250 296 355
#     4  12  26  41  60  90 128 160 197 256 316 361
#     4  10  20  38  65  92 122 162 207 250 294 357
#     4  12  23  40  64  90 119 157 206 253 299 363
#     4  12  23  40  67  91 117 160 209 254 295 363
#     4  10  22  40  61  92 130 159 196 255 310 354
#
# _framework density 18.225621
#
# number of rings (size 3 to 8) (size 9 to 14) (size 15 to 20)
#    0.000    1.000    5.000    2.000    0.000    3.333 
#    0.000    1.667    0.000    0.000    0.000    0.000 
#    0.000    0.000    0.000    0.000    0.000    0.000 
#
# Total GULP energy -268382.292242 kJ/mol
# GULP energy per Si atom -5591.297755 kJ/mol
# Density = 1.818414 g / cm^3
# Si number density = 18.225621 Si / 1000 Ang^3
#
#
#
# Elastic Constant Matrix: (Units=GPa)
#
#
# Indices 1 2 3 4 5 6 
#
# 1 59.6323 67.7585 67.5655 0.0000 0.0000 0.0000
# 2 67.7585 200.7740 87.3838 0.0000 0.0000 0.0000
# 3 67.5655 87.3838 156.2406 0.0000 0.0000 0.0000
# 4 0.0000 0.0000 0.0000 29.0466 0.0000 0.0000
# 5 0.0000 0.0000 0.0000 0.0000 21.7578 0.0000
# 6 0.0000 0.0000 0.0000 0.0000 0.0000 28.0220
#
#
#
# Elastic Compliance Matrix: (Units=1/GPa)
#
#
# Indices 1 2 3 4 5 6 
#
# 1 0.040815 -0.008053 -0.013146 0.000000 0.000000 0.000000
# 2 -0.008053 0.008172 -0.001088 0.000000 0.000000 0.000000
# 3 -0.013146 -0.001088 0.012694 0.000000 0.000000 0.000000
# 4 0.000000 0.000000 0.000000 0.034427 0.000000 0.000000
# 5 0.000000 0.000000 0.000000 0.000000 0.045960 0.000000
# 6 0.000000 0.000000 0.000000 0.000000 0.000000 0.035686
#
#
# Mechanical properties :
#
#
# Convention : Reuss Voigt Hill
#
# Bulk Modulus (GPa) = 58.45768 95.78473 77.12120
# Shear Modulus (GPa) = 21.92680 28.69457 25.31068
#
# Velocity S-wave (km/s) = 3.47230 3.97219 3.73063
# Velocity P-wave (km/s) = 6.94406 8.58526 7.80790
#
# Compressibility (1/GPa) = 0.01710639
#
# Stress axis : x y z
#
# Youngs Moduli (GPa) = 24.50094 122.36896 78.77689
#
# Poissons Ratio (x) = 0.98540 1.03563
# Poissons Ratio (y) = 0.19730 0.08572
# Poissons Ratio (z) = 0.32210 0.13316
#
# Static dielectric constant tensor:
#      x y z
#    x 1.635480 0.000000 0.000000 
#    y 0.000000 1.609430 0.000000 
#    z 0.000000 0.000000 1.581860 
# 
# From -- ./inp_files/35318.got.cif
#   From: 2010.05.17/outbox.cif.g08.bks.cpg/sg63_18_cif.got.tgz:35318.got - 2010.06.03 15:47:04.
