data_PCOD9473333
_publ_section_title
;
Structure prediction by ZEFSAII (Michael W. Deem and Ramdas Pophale) SiO2 
 PCOD9473333
Probable space group: C M C M
;
_chemical_formula_sum "Si O2"
_cell_formula_units_Z 96
_cell_length_a 7.753752
_cell_length_b 20.475484
_cell_length_c 28.900447
_cell_angle_alpha 90.000000
_cell_angle_beta 90.000000
_cell_angle_gamma 90.000000
_cell_volume 4588.287709
_symmetry_space_group_name_H-M "C M C M"
_symmetry_group_IT_number 63
_symmetry_cell_setting 'orthorhombic'
loop_
_space_group_symop_operation_xyz
x,y,z
-x,-y,1/2+z
x,-y,-z
-x,y,1/2-z
-x,-y,-z
x,y,1/2-z
-x,y,z
x,-y,1/2+z
1/2+x,1/2+y,z
1/2-x,1/2-y,1/2+z
1/2+x,1/2-y,-z
1/2-x,1/2+y,1/2-z
1/2-x,1/2-y,-z
1/2+x,1/2+y,1/2-z
1/2-x,1/2+y,z
1/2+x,1/2-y,1/2+z
loop_
_atom_site_type_symbol
_atom_site_label
_atom_site_fract_x
_atom_site_fract_y
_atom_site_fract_z
Si Si1 0.699752 0.225868 0.106387
Si Si2 0.197902 0.110204 0.456213
Si Si3 0.703568 0.491284 0.397693
Si Si4 0.698327 0.855312 0.057194
Si Si5 0.210879 0.945855 0.301680
Si Si6 0.210337 0.794097 0.198248
O O1 0.500000 0.206212 0.111237
O O2 0.796657 0.167179 0.081717
O O3 0.708883 0.290076 0.074179
O O4 0.768654 0.248773 0.156320
O O5 0.290224 0.134589 0.502293
O O6 0.000000 0.096721 0.470341
O O7 0.275456 0.045547 0.432487
O O8 0.500000 0.506297 0.394206
O O9 0.724983 0.419599 0.418987
O O10 0.772672 0.487802 0.345281
O O11 0.500000 0.849257 0.071300
O O12 0.265066 0.965897 0.250000
O O13 0.261637 0.869863 0.308664
O O14 0.000000 0.946586 0.302282
O O15 0.263325 0.774294 0.250000
O O16 0.000000 0.793967 0.196925
#
# Coordination Sequence:
#
# PCOD9473333 Si02
#       6
#    16  16  16  16  16  16
#     4  11  21  37  60  83 112 146 186 228 273 327
#     4  11  24  39  55  79 115 150 185 228 278 330
#     4  10  20  37  59  83 111 146 184 225 272 324
#     4  12  24  38  58  82 109 143 188 234 277 327
#     4   8  13  26  53  85 109 134 177 224 265 319
#     4   8  14  27  53  85 109 135 178 226 267 319
#
# _framework density 20.922837999999999
#
# number of rings (size 3 to 8) (size 9 to 14) (size 15 to 20)
#    0.000    2.000    1.667    4.500    0.000    3.333 
#    0.000    0.833    0.000    4.500    0.000    0.000 
#    0.000    0.000    0.000    0.000    0.000    0.000 
#
# Total GULP energy -268076.387962 kJ/mol
# GULP energy per Si atom -5584.924749 kJ/mol
# Density = 2.087522 g / cm^3
# Si number density = 20.922838 Si / 1000 Ang^3
#
#
#
# Elastic Constant Matrix: (Units=GPa)
#
#
# Indices 1 2 3 4 5 6 
#
# 1 28.5388 -4.9461 1.7494 0.0000 0.0000 0.0000
# 2 -4.9461 28.9492 -17.5642 0.0000 0.0000 0.0000
# 3 1.7494 -17.5642 90.2734 0.0000 0.0000 0.0000
# 4 0.0000 0.0000 0.0000 -15.3408 0.0000 0.0000
# 5 0.0000 0.0000 0.0000 0.0000 7.2223 0.0000
# 6 0.0000 0.0000 0.0000 0.0000 0.0000 10.4281
#
#
#
# Elastic Compliance Matrix: (Units=1/GPa)
#
#
# Indices 1 2 3 4 5 6 
#
# 1 0.036135 0.006518 0.000568 0.000000 0.000000 0.000000
# 2 0.006518 0.040343 0.007723 0.000000 0.000000 0.000000
# 3 0.000568 0.007723 0.012569 0.000000 0.000000 0.000000
# 4 0.000000 0.000000 0.000000 -0.065185 0.000000 0.000000
# 5 0.000000 0.000000 0.000000 0.000000 0.138460 0.000000
# 6 0.000000 0.000000 0.000000 0.000000 0.000000 0.095895
#
#
# Mechanical properties :
#
#
# Convention : Reuss Voigt Hill
#
# Bulk Modulus (GPa) = 8.42703 11.80440 10.11571
# Shear Modulus (GPa) = 18.64614 11.69673 15.17143
#
# Velocity S-wave (km/s) = 2.98851 2.36697 2.69571
# Velocity P-wave (km/s) = 3.99308 3.62273 3.81241
#
# Compressibility (1/GPa) = 0.11866579
#
# Stress axis : x y z
#
# Youngs Moduli (GPa) = 27.67408 24.78757 79.56019
#
# Poissons Ratio (x) = -0.16158 -0.04519
# Poissons Ratio (y) = -0.18039 -0.61445
# Poissons Ratio (z) = -0.01572 -0.19144
#
# Static dielectric constant tensor:
#      x y z
#    x 1.768690 0.000000 0.000000 
#    y 0.000000 1.714320 0.000000 
#    z 0.000000 0.000000 1.774940 
# 
# From -- ./inp_files/66935.got.cif
#   From: 2010.05.17/outbox.cif.g08.bks.cpg/sg63_34_cif.got.tgz:66935.got - 2010.06.03 15:47:04.
