data_PCOD9473612
_publ_section_title
;
Structure prediction by ZEFSAII (Michael W. Deem and Ramdas Pophale) SiO2 
 PCOD9473612
Probable space group: C M C M
;
_chemical_formula_sum "Si O2"
_cell_formula_units_Z 80
_cell_length_a 14.761905
_cell_length_b 11.488012
_cell_length_c 24.359339
_cell_angle_alpha 90.000000
_cell_angle_beta 90.000000
_cell_angle_gamma 90.000000
_cell_volume 4130.977086
_symmetry_space_group_name_H-M "C M C M"
_symmetry_group_IT_number 63
_symmetry_cell_setting 'orthorhombic'
loop_
_space_group_symop_operation_xyz
x,y,z
-x,-y,1/2+z
x,-y,-z
-x,y,1/2-z
-x,-y,-z
x,y,1/2-z
-x,y,z
x,-y,1/2+z
1/2+x,1/2+y,z
1/2-x,1/2-y,1/2+z
1/2+x,1/2-y,-z
1/2-x,1/2+y,1/2-z
1/2-x,1/2-y,-z
1/2+x,1/2+y,1/2-z
1/2-x,1/2+y,z
1/2+x,1/2-y,1/2+z
loop_
_atom_site_type_symbol
_atom_site_label
_atom_site_fract_x
_atom_site_fract_y
_atom_site_fract_z
Si Si1 0.649959 0.226359 0.631223
Si Si2 0.604856 0.941780 0.750000
Si Si3 0.105253 0.722978 0.750000
Si Si4 0.500000 0.356748 0.050465
Si Si5 0.606412 0.043988 0.126788
Si Si6 0.808852 0.727170 0.055762
Si Si7 0.500000 0.390545 0.579260
O O1 0.651972 0.261366 0.694559
O O2 0.746389 0.222063 0.603320
O O3 0.586565 0.320680 0.601496
O O4 0.609644 0.096339 0.626458
O O5 0.500000 0.902978 0.750000
O O6 0.638931 0.913367 0.812047
O O7 0.605516 0.082594 0.750000
O O8 0.000000 0.759794 0.750000
O O9 0.406017 0.288595 0.056764
O O10 0.500000 0.471162 0.088968
O O11 0.500000 0.383813 0.985946
O O12 0.500000 0.076601 0.120771
O O13 0.666221 0.096813 0.077173
O O14 0.750000 0.750000 0.000000
#
# Coordination Sequence:
#
# PCOD9473612 Si02
#       7
#    16   8   8   8  16  16   8
#     4  11  22  39  68 100 120 166 215 262 318 378
#     4   7  14  31  60  92 115 159 194 255 330 361
#     4   9  16  35  64  95 131 153 206 268 316 374
#     4  11  26  45  59  86 135 174 205 257 322 382
#     4  10  20  39  66  91 126 158 213 268 312 378
#     4  12  26  41  62  93 128 171 213 258 322 378
#     4  11  22  42  67  88 129 175 205 259 321 380
#
# _framework density 19.365879
#
# number of rings (size 3 to 8) (size 9 to 14) (size 15 to 20)
#    0.000    1.600    5.000    1.200    2.800    1.600 
#    0.000    2.000    0.000    3.600    0.000    0.000 
#    0.000    0.000    0.000    0.000    0.000    0.000 
#
# Total GULP energy -222709.874533 kJ/mol
# GULP energy per Si atom -5567.746863 kJ/mol
# Density = 1.932180 g / cm^3
# Si number density = 19.365879 Si / 1000 Ang^3
#
#
#
# Elastic Constant Matrix: (Units=GPa)
#
#
# Indices 1 2 3 4 5 6 
#
# 1 121.6777 28.2439 62.0404 0.0000 0.0000 0.0000
# 2 28.2439 76.6916 44.2782 0.0000 0.0000 0.0000
# 3 62.0404 44.2782 140.2863 0.0000 0.0000 0.0000
# 4 0.0000 0.0000 0.0000 26.8877 0.0000 0.0000
# 5 0.0000 0.0000 0.0000 0.0000 39.4662 0.0000
# 6 0.0000 0.0000 0.0000 0.0000 0.0000 25.9014
#
#
#
# Elastic Compliance Matrix: (Units=1/GPa)
#
#
# Indices 1 2 3 4 5 6 
#
# 1 0.010748 -0.001484 -0.004284 0.000000 0.000000 0.000000
# 2 -0.001484 0.016150 -0.004441 0.000000 0.000000 0.000000
# 3 -0.004284 -0.004441 0.010425 0.000000 0.000000 0.000000
# 4 0.000000 0.000000 0.000000 0.037192 0.000000 0.000000
# 5 0.000000 0.000000 0.000000 0.000000 0.025338 0.000000
# 6 0.000000 0.000000 0.000000 0.000000 0.000000 0.038608
#
#
# Mechanical properties :
#
#
# Convention : Reuss Voigt Hill
#
# Bulk Modulus (GPa) = 59.16259 67.53118 63.34689
# Shear Modulus (GPa) = 30.39260 32.05726 31.22493
#
# Velocity S-wave (km/s) = 3.96585 4.07301 4.01979
# Velocity P-wave (km/s) = 7.18240 7.55421 7.37065
#
# Compressibility (1/GPa) = 0.01690257
#
# Stress axis : x y z
#
# Youngs Moduli (GPa) = 93.04450 61.91995 95.92588
#
# Poissons Ratio (x) = 0.09192 0.41099
# Poissons Ratio (y) = 0.13812 0.42599
# Poissons Ratio (z) = 0.39865 0.27498
#
# Static dielectric constant tensor:
#      x y z
#    x 1.685370 0.000000 0.000000 
#    y 0.000000 1.723450 0.000000 
#    z 0.000000 0.000000 1.718660 
# 
# From -- ./inp_files/62638.got.cif
#   From: 2010.05.17/outbox.cif.g08.bks.cpg/sg63_32_cif.got.tgz:62638.got - 2010.06.03 15:47:04.
