data_PCOD9473795
_publ_section_title
;
Structure prediction by ZEFSAII (Michael W. Deem and Ramdas Pophale) SiO2 
 PCOD9473795
Probable space group: C M C M
;
_chemical_formula_sum "Si O2"
_cell_formula_units_Z 96
_cell_length_a 27.320788
_cell_length_b 13.286141
_cell_length_c 15.895630
_cell_angle_alpha 90.000000
_cell_angle_beta 90.000000
_cell_angle_gamma 90.000000
_cell_volume 5769.920425
_symmetry_space_group_name_H-M "C M C M"
_symmetry_group_IT_number 63
_symmetry_cell_setting 'orthorhombic'
loop_
_space_group_symop_operation_xyz
x,y,z
-x,-y,1/2+z
x,-y,-z
-x,y,1/2-z
-x,-y,-z
x,y,1/2-z
-x,y,z
x,-y,1/2+z
1/2+x,1/2+y,z
1/2-x,1/2-y,1/2+z
1/2+x,1/2-y,-z
1/2-x,1/2+y,1/2-z
1/2-x,1/2-y,-z
1/2+x,1/2+y,1/2-z
1/2-x,1/2+y,z
1/2+x,1/2-y,1/2+z
loop_
_atom_site_type_symbol
_atom_site_label
_atom_site_fract_x
_atom_site_fract_y
_atom_site_fract_z
Si Si1 0.894432 0.380537 0.005883
Si Si2 0.558688 0.746950 0.349902
Si Si3 0.192928 0.770756 0.496879
Si Si4 0.442595 0.774085 0.653476
Si Si5 0.855353 0.128335 0.659042
Si Si6 0.873916 0.071968 0.081964
O O1 0.921096 0.335920 0.089278
O O2 0.841021 0.328019 0.004914
O O3 0.891787 0.500000 0.000000
O O4 0.923149 0.342940 0.922248
O O5 0.571411 0.757544 0.250000
O O6 0.500000 0.743768 0.355956
O O7 0.582438 0.644623 0.388126
O O8 0.250000 0.750000 0.500000
O O9 0.179317 0.822480 0.408993
O O10 0.170815 0.852690 0.561636
O O11 0.435426 0.812957 0.750000
O O12 0.500000 0.754701 0.642892
O O13 0.409664 0.674081 0.646416
O O14 0.838141 0.159811 0.750000
O O15 0.858876 0.009467 0.650329
O O16 0.884469 0.000000 0.000000
#
# Coordination Sequence:
#
# PCOD9473795 Si02
#       6
#    16  16  16  16  16  16
#     4  10  21  35  52  73  99 134 175 216 253 295
#     4  10  21  35  50  74 110 145 173 204 247 299
#     4   9  19  36  54  71  96 129 164 206 257 303
#     4   9  18  32  51  76 104 133 167 208 251 296
#     4   9  17  31  51  76 103 126 157 202 249 299
#     4   9  18  32  53  77 100 131 165 204 253 304
#
# _framework density 16.638010999999999
#
# number of rings (size 3 to 8) (size 9 to 14) (size 15 to 20)
#    0.000    2.667    0.000    2.000    0.000    5.000 
#    0.000    7.500    0.000    4.000    0.000    0.000 
#    0.000    0.000    0.000    0.000    0.000    0.000 
#
# Total GULP energy -267204.546907 kJ/mol
# GULP energy per Si atom -5566.761394 kJ/mol
# Density = 1.660014 g / cm^3
# Si number density = 16.638011 Si / 1000 Ang^3
#
#
#
# Elastic Constant Matrix: (Units=GPa)
#
#
# Indices 1 2 3 4 5 6 
#
# 1 137.0031 62.2626 63.7189 0.0000 0.0000 0.0000
# 2 62.2626 133.4310 56.7079 0.0000 0.0000 0.0000
# 3 63.7189 56.7079 94.4485 0.0000 0.0000 0.0000
# 4 0.0000 0.0000 0.0000 6.7359 0.0000 0.0000
# 5 0.0000 0.0000 0.0000 0.0000 7.4138 0.0000
# 6 0.0000 0.0000 0.0000 0.0000 0.0000 6.0158
#
#
#
# Elastic Compliance Matrix: (Units=1/GPa)
#
#
# Indices 1 2 3 4 5 6 
#
# 1 0.011336 -0.002738 -0.006004 0.000000 0.000000 0.000000
# 2 -0.002738 0.010723 -0.004591 0.000000 0.000000 0.000000
# 3 -0.006004 -0.004591 0.017395 0.000000 0.000000 0.000000
# 4 0.000000 0.000000 0.000000 0.148459 0.000000 0.000000
# 5 0.000000 0.000000 0.000000 0.000000 0.134884 0.000000
# 6 0.000000 0.000000 0.000000 0.000000 0.000000 0.166228
#
#
# Mechanical properties :
#
#
# Convention : Reuss Voigt Hill
#
# Bulk Modulus (GPa) = 78.19810 81.14015 79.66912
# Shear Modulus (GPa) = 9.61625 16.17931 12.89778
#
# Velocity S-wave (km/s) = 2.40671 3.12176 2.78726
# Velocity P-wave (km/s) = 7.40437 7.86560 7.63847
#
# Compressibility (1/GPa) = 0.01278804
#
# Stress axis : x y z
#
# Youngs Moduli (GPa) = 88.21742 93.25374 57.48891
#
# Poissons Ratio (x) = 0.25533 0.34514
# Poissons Ratio (y) = 0.24154 0.26395
# Poissons Ratio (z) = 0.52962 0.42815
#
# Static dielectric constant tensor:
#      x y z
#    x 1.530610 0.000000 0.000000 
#    y 0.000000 1.549160 0.000000 
#    z 0.000000 0.000000 1.616990 
# 
# From -- ./inp_files/48959.got.cif
#   From: 2010.05.17/outbox.cif.g08.bks.cpg/sg63_25_cif.got.tgz:48959.got - 2010.06.03 15:47:04.
