data_PCOD9473593
_publ_section_title
;
Structure prediction by ZEFSAII (Michael W. Deem and Ramdas Pophale) SiO2 
 PCOD9473593
Probable space group: C M C M
;
_chemical_formula_sum "Si O2"
_cell_formula_units_Z 72
_cell_length_a 14.405400
_cell_length_b 19.057917
_cell_length_c 13.859404
_cell_angle_alpha 90.000000
_cell_angle_beta 90.000000
_cell_angle_gamma 90.000000
_cell_volume 3804.918053
_symmetry_space_group_name_H-M "C M C M"
_symmetry_group_IT_number 63
_symmetry_cell_setting 'orthorhombic'
loop_
_space_group_symop_operation_xyz
x,y,z
-x,-y,1/2+z
x,-y,-z
-x,y,1/2-z
-x,-y,-z
x,y,1/2-z
-x,y,z
x,-y,1/2+z
1/2+x,1/2+y,z
1/2-x,1/2-y,1/2+z
1/2+x,1/2-y,-z
1/2-x,1/2+y,1/2-z
1/2-x,1/2-y,-z
1/2+x,1/2+y,1/2-z
1/2-x,1/2+y,z
1/2+x,1/2-y,1/2+z
loop_
_atom_site_type_symbol
_atom_site_label
_atom_site_fract_x
_atom_site_fract_y
_atom_site_fract_z
Si Si1 0.110376 0.755063 0.436581
Si Si2 0.719125 0.612561 0.641224
Si Si3 0.390957 0.795596 0.357506
Si Si4 0.610333 0.902174 0.864072
Si Si5 0.265300 0.000000 0.000000
O O1 0.164181 0.816767 0.384083
O O2 0.132591 0.752594 0.551053
O O3 0.132513 0.678136 0.394366
O O4 0.000000 0.765390 0.425292
O O5 0.698275 0.590255 0.750000
O O6 0.827425 0.635646 0.635743
O O7 0.704481 0.552789 0.563483
O O8 0.374791 0.765329 0.250000
O O9 0.500000 0.812841 0.365849
O O10 0.626991 0.911494 0.750000
O O11 0.500000 0.912232 0.882010
O O12 0.670584 0.954986 0.927580
#
# Coordination Sequence:
#
# PCOD9473593 Si02
#       5
#    16  16  16  16   8
#     4  10  20  39  63  85 111 146 195 247 285 328
#     4  11  23  38  58  85 115 154 195 234 286 341
#     4   9  18  33  56  87 118 146 181 228 284 340
#     4  10  21  36  56  83 112 146 189 237 288 342
#     4  12  23  36  53  78 122 154 186 228 288 354
#
# _framework density 18.922877
#
# number of rings (size 3 to 8) (size 9 to 14) (size 15 to 20)
#    0.000    1.778    2.222    2.333    0.000    2.222 
#    0.000    3.889    0.000    0.000    0.000    0.000 
#    0.000    0.000    0.000    0.000    0.000    0.000 
#
# Total GULP energy -201052.462762 kJ/mol
# GULP energy per Si atom -5584.790632 kJ/mol
# Density = 1.887981 g / cm^3
# Si number density = 18.922877 Si / 1000 Ang^3
#
#
#
# Elastic Constant Matrix: (Units=GPa)
#
#
# Indices 1 2 3 4 5 6 
#
# 1 21.3931 18.9046 13.1468 0.0000 0.0000 0.0000
# 2 18.9046 81.3683 30.7098 0.0000 0.0000 0.0000
# 3 13.1468 30.7098 104.7458 0.0000 0.0000 0.0000
# 4 0.0000 0.0000 0.0000 23.5899 0.0000 0.0000
# 5 0.0000 0.0000 0.0000 0.0000 17.0793 0.0000
# 6 0.0000 0.0000 0.0000 0.0000 0.0000 14.2989
#
#
#
# Elastic Compliance Matrix: (Units=1/GPa)
#
#
# Indices 1 2 3 4 5 6 
#
# 1 0.060194 -0.012519 -0.003885 0.000000 0.000000 0.000000
# 2 -0.012519 0.016423 -0.003244 0.000000 0.000000 0.000000
# 3 -0.003885 -0.003244 0.010985 0.000000 0.000000 0.000000
# 4 0.000000 0.000000 0.000000 0.042391 0.000000 0.000000
# 5 0.000000 0.000000 0.000000 0.000000 0.058550 0.000000
# 6 0.000000 0.000000 0.000000 0.000000 0.000000 0.069935
#
#
# Mechanical properties :
#
#
# Convention : Reuss Voigt Hill
#
# Bulk Modulus (GPa) = 20.70068 37.00328 28.85198
# Shear Modulus (GPa) = 15.92989 20.64336 18.28663
#
# Velocity S-wave (km/s) = 2.90458 3.30649 3.11203
# Velocity P-wave (km/s) = 4.71297 5.84589 5.30973
#
# Compressibility (1/GPa) = 0.04830759
#
# Stress axis : x y z
#
# Youngs Moduli (GPa) = 16.61298 60.89189 91.02953
#
# Poissons Ratio (x) = 0.76230 0.35362
# Poissons Ratio (y) = 0.20798 0.29526
# Poissons Ratio (z) = 0.06454 0.19751
#
# Static dielectric constant tensor:
#      x y z
#    x 1.663070 0.000000 0.000000 
#    y 0.000000 1.626900 0.000000 
#    z 0.000000 0.000000 1.694550 
# 
# From -- ./inp_files/33662.got.cif
#   From: 2010.05.17/outbox.cif.g08.bks.cpg/sg63_17_cif.got.tgz:33662.got - 2010.06.03 15:47:04.
