data_PCOD9473688
_publ_section_title
;
Structure prediction by ZEFSAII (Michael W. Deem and Ramdas Pophale) SiO2 
 PCOD9473688
Probable space group: C M C M
;
_chemical_formula_sum "Si O2"
_cell_formula_units_Z 104
_cell_length_a 22.166393
_cell_length_b 9.661761
_cell_length_c 26.074303
_cell_angle_alpha 90.000000
_cell_angle_beta 90.000000
_cell_angle_gamma 90.000000
_cell_volume 5584.239382
_symmetry_space_group_name_H-M "C M C M"
_symmetry_group_IT_number 63
_symmetry_cell_setting 'orthorhombic'
loop_
_space_group_symop_operation_xyz
x,y,z
-x,-y,1/2+z
x,-y,-z
-x,y,1/2-z
-x,-y,-z
x,y,1/2-z
-x,y,z
x,-y,1/2+z
1/2+x,1/2+y,z
1/2-x,1/2-y,1/2+z
1/2+x,1/2-y,-z
1/2-x,1/2+y,1/2-z
1/2-x,1/2-y,-z
1/2+x,1/2+y,1/2-z
1/2-x,1/2+y,z
1/2+x,1/2-y,1/2+z
loop_
_atom_site_type_symbol
_atom_site_label
_atom_site_fract_x
_atom_site_fract_y
_atom_site_fract_z
Si Si1 0.665202 0.529725 0.389898
Si Si2 0.693850 0.970294 0.384998
Si Si3 0.873704 0.732747 0.086397
Si Si4 0.000000 0.366688 0.462201
Si Si5 0.500000 0.900301 0.612737
Si Si6 0.369878 0.763009 0.311248
Si Si7 0.634473 0.767797 0.467775
Si Si8 0.000000 0.391996 0.188730
O O1 0.734786 0.483967 0.388961
O O2 0.628374 0.388573 0.394207
O O3 0.646757 0.622051 0.340987
O O4 0.653703 0.628340 0.438969
O O5 0.673099 0.879306 0.336634
O O6 0.664427 0.892085 0.434619
O O7 0.666900 0.124099 0.382704
O O8 0.941202 0.675018 0.092150
O O9 0.850100 0.729266 0.027716
O O10 0.000000 0.500000 0.500000
O O11 0.061887 0.284495 0.467080
O O12 0.000000 0.442642 0.408058
O O13 0.500000 0.945604 0.671654
O O14 0.363427 0.752742 0.250000
O O15 0.437959 0.811531 0.324785
O O16 0.000000 0.392703 0.250000
#
# Coordination Sequence:
#
# PCOD9473688 Si02
#       8
#    16  16  16   8   8  16  16   8
#     4  11  26  39  54  91 132 163 202 247 311 376
#     4  11  22  40  62  86 120 164 215 256 292 360
#     4  12  22  36  60  91 123 163 203 256 310 351
#     4  12  18  37  61  89 112 160 225 258 290 359
#     4  12  20  36  61  91 125 151 199 271 307 352
#     4  10  22  44  70  90 116 159 205 257 319 380
#     4  11  22  38  61  85 124 171 209 250 298 367
#     4  10  20  41  72  95 110 149 209 258 312 377
#
# _framework density 18.623843000000001
#
# number of rings (size 3 to 8) (size 9 to 14) (size 15 to 20)
#    0.000    0.923    4.615    3.692    0.000    5.538 
#    0.000    3.077    0.000    0.000    0.000    0.000 
#    0.000    0.000    0.000    0.000    0.000    0.000 
#
# Total GULP energy -290336.543722 kJ/mol
# GULP energy per Si atom -5583.395072 kJ/mol
# Density = 1.858145 g / cm^3
# Si number density = 18.623843 Si / 1000 Ang^3
#
#
#
# Elastic Constant Matrix: (Units=GPa)
#
#
# Indices 1 2 3 4 5 6 
#
# 1 94.5276 16.2724 34.6255 0.0000 0.0000 0.0000
# 2 16.2724 110.7054 46.1583 0.0000 0.0000 0.0000
# 3 34.6255 46.1583 93.5732 0.0000 0.0000 0.0000
# 4 0.0000 0.0000 0.0000 19.0893 0.0000 0.0000
# 5 0.0000 0.0000 0.0000 0.0000 6.5690 0.0000
# 6 0.0000 0.0000 0.0000 0.0000 0.0000 -41.6534
#
#
#
# Elastic Compliance Matrix: (Units=1/GPa)
#
#
# Indices 1 2 3 4 5 6 
#
# 1 0.012239 0.000112 -0.004584 0.000000 0.000000 0.000000
# 2 0.000112 0.011373 -0.005652 0.000000 0.000000 0.000000
# 3 -0.004584 -0.005652 0.015171 0.000000 0.000000 0.000000
# 4 0.000000 0.000000 0.000000 0.052385 0.000000 0.000000
# 5 0.000000 0.000000 0.000000 0.000000 0.152230 0.000000
# 6 0.000000 0.000000 0.000000 0.000000 0.000000 -0.024008
#
#
# Mechanical properties :
#
#
# Convention : Reuss Voigt Hill
#
# Bulk Modulus (GPa) = 53.94991 54.76875 54.35933
# Shear Modulus (GPa) = 20.34043 10.25098 15.29571
#
# Velocity S-wave (km/s) = 3.30839 2.34865 2.86894
# Velocity P-wave (km/s) = 6.60492 6.06849 6.34238
#
# Compressibility (1/GPa) = 0.01853571
#
# Stress axis : x y z
#
# Youngs Moduli (GPa) = 81.70749 87.92819 65.91490
#
# Poissons Ratio (x) = -0.00989 0.30217
# Poissons Ratio (y) = -0.00919 0.37253
# Poissons Ratio (z) = 0.37457 0.49694
#
# Static dielectric constant tensor:
#      x y z
#    x 1.715090 0.000000 0.000000 
#    y 0.000000 1.628110 0.000000 
#    z 0.000000 0.000000 1.797630 
# 
# From -- ./inp_files/70421.got.cif
#   From: 2010.05.17/outbox.cif.g08.bks.cpg/sg63_36_cif.got.tgz:70421.got - 2010.06.03 15:47:04.
