data_PCOD9473071
_publ_section_title
;
Structure prediction by ZEFSAII (Michael W. Deem and Ramdas Pophale) SiO2 
 PCOD9473071
Probable space group: C M C M
;
_chemical_formula_sum "Si O2"
_cell_formula_units_Z 80
_cell_length_a 7.498429
_cell_length_b 19.106709
_cell_length_c 25.932285
_cell_angle_alpha 90.000000
_cell_angle_beta 90.000000
_cell_angle_gamma 90.000000
_cell_volume 3715.326274
_symmetry_space_group_name_H-M "C M C M"
_symmetry_group_IT_number 63
_symmetry_cell_setting 'orthorhombic'
loop_
_space_group_symop_operation_xyz
x,y,z
-x,-y,1/2+z
x,-y,-z
-x,y,1/2-z
-x,-y,-z
x,y,1/2-z
-x,y,z
x,-y,1/2+z
1/2+x,1/2+y,z
1/2-x,1/2-y,1/2+z
1/2+x,1/2-y,-z
1/2-x,1/2+y,1/2-z
1/2-x,1/2-y,-z
1/2+x,1/2+y,1/2-z
1/2-x,1/2+y,z
1/2+x,1/2-y,1/2+z
loop_
_atom_site_type_symbol
_atom_site_label
_atom_site_fract_x
_atom_site_fract_y
_atom_site_fract_z
Si Si1 0.215476 0.076584 0.308635
Si Si2 0.704500 0.423193 0.494670
Si Si3 0.718735 0.676531 0.903870
Si Si4 0.792718 0.335563 0.591931
Si Si5 0.217169 0.083446 0.808430
O O1 0.272436 0.093008 0.250000
O O2 0.278208 0.129830 0.351915
O O3 0.000000 0.077367 0.309221
O O4 0.271440 0.996541 0.320525
O O5 0.787987 0.500000 0.500000
O O6 0.500000 0.435180 0.477284
O O7 0.779832 0.370696 0.451881
O O8 0.704196 0.384871 0.549465
O O9 0.500000 0.678792 0.903746
O O10 0.778863 0.756576 0.908029
O O11 0.775268 0.638181 0.851387
O O12 0.000000 0.332617 0.577174
O O13 0.273806 0.099919 0.750000
O O14 0.000000 0.083506 0.808540
#
# Coordination Sequence:
#
# PCOD9473071 Si02
#       5
#    16  16  16  16  16
#     4   9  18  34  56  78 100 133 178 218 247 286
#     4  10  20  36  58  76  94 130 179 221 251 292
#     4   9  18  31  48  75 106 133 165 205 253 307
#     4  11  22  33  49  77 111 138 160 200 262 319
#     4   8  14  28  52  77  98 125 168 217 252 284
#
# _framework density 21.532430999999999
#
# number of rings (size 3 to 8) (size 9 to 14) (size 15 to 20)
#    0.000    2.600    0.000    3.600    0.000    4.800 
#    0.000    3.000    0.000    2.400    0.000    0.000 
#    0.000    0.000    0.000    0.000    0.000    0.000 
#
# Total GULP energy -223411.009330 kJ/mol
# GULP energy per Si atom -5585.275233 kJ/mol
# Density = 2.148342 g / cm^3
# Si number density = 21.532431 Si / 1000 Ang^3
#
#
#
# Elastic Constant Matrix: (Units=GPa)
#
#
# Indices 1 2 3 4 5 6 
#
# 1 58.0002 1.6593 -7.7523 0.0000 0.0000 0.0000
# 2 1.6593 200.7216 109.3322 0.0000 0.0000 0.0000
# 3 -7.7523 109.3322 125.6052 0.0000 0.0000 0.0000
# 4 0.0000 0.0000 0.0000 -63.4104 0.0000 0.0000
# 5 0.0000 0.0000 0.0000 0.0000 -2.6269 0.0000
# 6 0.0000 0.0000 0.0000 0.0000 0.0000 -15.4427
#
#
#
# Elastic Compliance Matrix: (Units=1/GPa)
#
#
# Indices 1 2 3 4 5 6 
#
# 1 0.017590 -0.001401 0.002305 0.000000 0.000000 0.000000
# 2 -0.001401 0.009585 -0.008430 0.000000 0.000000 0.000000
# 3 0.002305 -0.008430 0.015442 0.000000 0.000000 0.000000
# 4 0.000000 0.000000 0.000000 -0.015770 0.000000 0.000000
# 5 0.000000 0.000000 0.000000 0.000000 -0.380676 0.000000
# 6 0.000000 0.000000 0.000000 0.000000 0.000000 -0.064755
#
#
# Mechanical properties :
#
#
# Convention : Reuss Voigt Hill
#
# Bulk Modulus (GPa) = 36.27830 65.64503 50.96166
# Shear Modulus (GPa) = -12.67926 2.44317 -5.11804
#
# Velocity S-wave (km/s) = -2.42924 1.06635 -1.54339
# Velocity P-wave (km/s) = 3.00275 5.66294 4.53241
#
# Compressibility (1/GPa) = 0.02756469
#
# Stress axis : x y z
#
# Youngs Moduli (GPa) = 56.85206 104.32530 64.76019
#
# Poissons Ratio (x) = 0.14616 -0.14928
# Poissons Ratio (y) = 0.07965 0.54593
# Poissons Ratio (z) = -0.13105 0.87946
#
# Static dielectric constant tensor:
#      x y z
#    x 1.865650 0.000000 0.000000 
#    y 0.000000 1.751620 0.000000 
#    z 0.000000 0.000000 1.735770 
# 
# From -- ./inp_files/66561.got.cif
#   From: 2010.05.17/outbox.cif.g08.bks.cpg/sg63_34_cif.got.tgz:66561.got - 2010.06.03 15:47:04.
