data_PCOD9473945
_publ_section_title
;
Structure prediction by ZEFSAII (Michael W. Deem and Ramdas Pophale) SiO2 
 PCOD9473945
Probable space group: C M C M
;
_chemical_formula_sum "Si O2"
_cell_formula_units_Z 56
_cell_length_a 14.537800
_cell_length_b 20.312942
_cell_length_c 9.109506
_cell_angle_alpha 90.000000
_cell_angle_beta 90.000000
_cell_angle_gamma 90.000000
_cell_volume 2690.087117
_symmetry_space_group_name_H-M "C M C M"
_symmetry_group_IT_number 63
_symmetry_cell_setting 'orthorhombic'
loop_
_space_group_symop_operation_xyz
x,y,z
-x,-y,1/2+z
x,-y,-z
-x,y,1/2-z
-x,-y,-z
x,y,1/2-z
-x,y,z
x,-y,1/2+z
1/2+x,1/2+y,z
1/2-x,1/2-y,1/2+z
1/2+x,1/2-y,-z
1/2-x,1/2+y,1/2-z
1/2-x,1/2-y,-z
1/2+x,1/2+y,1/2-z
1/2-x,1/2+y,z
1/2+x,1/2-y,1/2+z
loop_
_atom_site_type_symbol
_atom_site_label
_atom_site_fract_x
_atom_site_fract_y
_atom_site_fract_z
Si Si1 0.856844 0.810646 0.579320
Si Si2 0.500000 0.073315 0.571471
Si Si3 0.864357 0.324621 0.922450
Si Si4 0.393553 0.559018 0.910979
O O1 0.880924 0.805153 0.750000
O O2 0.888998 0.745582 0.494471
O O3 0.746534 0.822265 0.568759
O O4 0.894935 0.875218 0.503780
O O5 0.500000 0.070114 0.750000
O O6 0.586916 0.116271 0.510638
O O7 0.500000 0.000000 0.500000
O O8 0.889181 0.328127 0.750000
O O9 0.351734 0.569246 0.750000
O O10 0.500000 0.540260 0.889824
O O11 0.346830 0.500000 0.000000
#
# Coordination Sequence:
#
# PCOD9473945 Si02
#       4
#    16   8  16  16
#     4  10  21  38  62  90 120 158 201 247 299 358
#     4  12  26  44  66  92 123 162 207 256 312 372
#     4  10  22  41  63  89 121 156 200 250 300 357
#     4  10  21  36  55  82 117 156 196 242 293 349
#
# _framework density 20.817170999999998
#
# number of rings (size 3 to 8) (size 9 to 14) (size 15 to 20)
#    0.000    1.714    0.000    3.857    2.000    6.286 
#    0.000    0.000    0.000    0.000    0.000    0.000 
#    0.000    0.000    0.000    0.000    0.000    0.000 
#
# Total GULP energy -156281.932875 kJ/mol
# GULP energy per Si atom -5581.497603 kJ/mol
# Density = 2.076979 g / cm^3
# Si number density = 20.817171 Si / 1000 Ang^3
#
#
#
# Elastic Constant Matrix: (Units=GPa)
#
#
# Indices 1 2 3 4 5 6 
#
# 1 62.5944 24.5480 38.5896 0.0000 0.0000 0.0000
# 2 24.5480 185.4055 101.2343 0.0000 0.0000 0.0000
# 3 38.5896 101.2343 203.0918 0.0000 0.0000 0.0000
# 4 0.0000 0.0000 0.0000 37.5333 0.0000 0.0000
# 5 0.0000 0.0000 0.0000 0.0000 33.1608 0.0000
# 6 0.0000 0.0000 0.0000 0.0000 0.0000 36.4577
#
#
#
# Elastic Compliance Matrix: (Units=1/GPa)
#
#
# Indices 1 2 3 4 5 6 
#
# 1 0.018164 -0.000715 -0.003095 0.000000 0.000000 0.000000
# 2 -0.000715 0.007439 -0.003572 0.000000 0.000000 0.000000
# 3 -0.003095 -0.003572 0.007292 0.000000 0.000000 0.000000
# 4 0.000000 0.000000 0.000000 0.026643 0.000000 0.000000
# 5 0.000000 0.000000 0.000000 0.000000 0.030156 0.000000
# 6 0.000000 0.000000 0.000000 0.000000 0.000000 0.027429
#
#
# Mechanical properties :
#
#
# Convention : Reuss Voigt Hill
#
# Bulk Modulus (GPa) = 55.15322 86.64837 70.90080
# Shear Modulus (GPa) = 36.24987 40.54504 38.39745
#
# Velocity S-wave (km/s) = 4.17747 4.41803 4.29943
# Velocity P-wave (km/s) = 7.05832 8.23038 7.66678
#
# Compressibility (1/GPa) = 0.01813131
#
# Stress axis : x y z
#
# Youngs Moduli (GPa) = 55.05289 134.43307 137.12730
#
# Poissons Ratio (x) = 0.09613 0.42440
# Poissons Ratio (y) = 0.03937 0.48982
# Poissons Ratio (z) = 0.17039 0.48020
#
# Static dielectric constant tensor:
#      x y z
#    x 1.846790 0.000000 0.000000 
#    y 0.000000 1.689500 0.000000 
#    z 0.000000 0.000000 1.785670 
# 
# From -- ./inp_files/3977.got.cif
#   From: 2010.05.17/outbox.cif.g08.bks.cpg/sg63_2_cif.got.tgz:3977.got - 2010.06.03 15:47:04.
