data_PCOD9473172
_publ_section_title
;
Structure prediction by ZEFSAII (Michael W. Deem and Ramdas Pophale) SiO2 
 PCOD9473172
Probable space group: C M C M
;
_chemical_formula_sum "Si O2"
_cell_formula_units_Z 112
_cell_length_a 14.493675
_cell_length_b 24.146235
_cell_length_c 17.575598
_cell_angle_alpha 90.000000
_cell_angle_beta 90.000000
_cell_angle_gamma 90.000000
_cell_volume 6150.891302
_symmetry_space_group_name_H-M "C M C M"
_symmetry_group_IT_number 63
_symmetry_cell_setting 'orthorhombic'
loop_
_space_group_symop_operation_xyz
x,y,z
-x,-y,1/2+z
x,-y,-z
-x,y,1/2-z
-x,-y,-z
x,y,1/2-z
-x,y,z
x,-y,1/2+z
1/2+x,1/2+y,z
1/2-x,1/2-y,1/2+z
1/2+x,1/2-y,-z
1/2-x,1/2+y,1/2-z
1/2-x,1/2-y,-z
1/2+x,1/2+y,1/2-z
1/2-x,1/2+y,z
1/2+x,1/2-y,1/2+z
loop_
_atom_site_type_symbol
_atom_site_label
_atom_site_fract_x
_atom_site_fract_y
_atom_site_fract_z
Si Si1 0.249366 0.444281 0.661267
Si Si2 0.109321 0.961940 0.338195
Si Si3 0.389947 0.651398 0.923515
Si Si4 0.109214 0.479089 0.415940
Si Si5 0.751667 0.226974 0.838878
Si Si6 0.109728 0.348110 0.077228
Si Si7 0.747848 0.164132 0.441800
O O1 0.254688 0.429574 0.750000
O O2 0.336818 0.482638 0.640619
O O3 0.163430 0.484521 0.644622
O O4 0.243569 0.390366 0.609631
O O5 0.133962 0.948401 0.250000
O O6 0.130917 0.910255 0.392144
O O7 0.000000 0.971020 0.341112
O O8 0.500000 0.658060 0.929363
O O9 0.343157 0.693587 0.864196
O O10 0.335862 0.660841 0.002117
O O11 0.138403 0.500000 0.500000
O O12 0.126097 0.413578 0.408884
O O13 0.000000 0.488397 0.409554
O O14 0.752250 0.239280 0.750000
O O15 0.665009 0.188069 0.861418
O O16 0.746743 0.281953 0.889630
O O17 0.000000 0.338282 0.076509
O O18 0.158675 0.333889 0.997009
#
# Coordination Sequence:
#
# PCOD9473172 Si02
#       7
#    16  16  16  16  16  16  16
#     4  11  22  36  57  84 119 159 191 229 288 347
#     4   9  19  35  56  85 117 147 185 236 289 341
#     4  10  21  38  62  87 110 143 191 242 289 338
#     4  10  20  36  59  87 117 148 186 236 289 343
#     4  11  24  40  58  84 116 150 192 241 288 338
#     4  10  21  39  64  86 111 150 195 241 289 341
#     4  11  23  38  57  83 117 153 194 236 281 343
#
# _framework density 18.208743999999999
#
# number of rings (size 3 to 8) (size 9 to 14) (size 15 to 20)
#    0.000    1.714    1.429    4.286    0.000    6.000 
#    0.000    2.857    0.000    5.143    0.000    0.000 
#    0.000    0.000    0.000    0.000    0.000    0.000 
#
# Total GULP energy -312810.723600 kJ/mol
# GULP energy per Si atom -5585.905779 kJ/mol
# Density = 1.816730 g / cm^3
# Si number density = 18.208744 Si / 1000 Ang^3
#
#
#
# Elastic Constant Matrix: (Units=GPa)
#
#
# Indices 1 2 3 4 5 6 
#
# 1 83.5732 18.7531 17.6164 0.0000 0.0000 0.0000
# 2 18.7531 57.8067 10.2570 0.0000 0.0000 0.0000
# 3 17.6164 10.2570 52.3447 0.0000 0.0000 0.0000
# 4 0.0000 0.0000 0.0000 22.8455 0.0000 0.0000
# 5 0.0000 0.0000 0.0000 0.0000 12.4155 0.0000
# 6 0.0000 0.0000 0.0000 0.0000 0.0000 1.5592
#
#
#
# Elastic Compliance Matrix: (Units=1/GPa)
#
#
# Indices 1 2 3 4 5 6 
#
# 1 0.013615 -0.003734 -0.003850 0.000000 0.000000 0.000000
# 2 -0.003734 0.018946 -0.002456 0.000000 0.000000 0.000000
# 3 -0.003850 -0.002456 0.020881 0.000000 0.000000 0.000000
# 4 0.000000 0.000000 0.000000 0.043772 0.000000 0.000000
# 5 0.000000 0.000000 0.000000 0.000000 0.080544 0.000000
# 6 0.000000 0.000000 0.000000 0.000000 0.000000 0.641369
#
#
# Mechanical properties :
#
#
# Convention : Reuss Voigt Hill
#
# Bulk Modulus (GPa) = 29.97409 31.88641 30.93025
# Shear Modulus (GPa) = 5.88008 17.17057 11.52533
#
# Velocity S-wave (km/s) = 1.79896 3.07414 2.51859
# Velocity P-wave (km/s) = 4.56203 5.49090 5.04788
#
# Compressibility (1/GPa) = 0.03336214
#
# Stress axis : x y z
#
# Youngs Moduli (GPa) = 73.44844 52.78150 47.88994
#
# Poissons Ratio (x) = 0.19707 0.18440
# Poissons Ratio (y) = 0.27423 0.11762
# Poissons Ratio (z) = 0.28281 0.12963
#
# Static dielectric constant tensor:
#      x y z
#    x 1.741470 0.000000 0.000000 
#    y 0.000000 1.608970 0.000000 
#    z 0.000000 0.000000 1.618210 
# 
# From -- ./inp_files/32264.got.cif
#   From: 2010.05.17/outbox.cif.g08.bks.cpg/sg63_17_cif.got.tgz:32264.got - 2010.06.03 15:47:04.
