data_PCOD9473275
_publ_section_title
;
Structure prediction by ZEFSAII (Michael W. Deem and Ramdas Pophale) SiO2 
 PCOD9473275
Probable space group: C M C M
;
_chemical_formula_sum "Si O2"
_cell_formula_units_Z 104
_cell_length_a 19.441445
_cell_length_b 14.567179
_cell_length_c 18.541913
_cell_angle_alpha 90.000000
_cell_angle_beta 90.000000
_cell_angle_gamma 90.000000
_cell_volume 5251.199728
_symmetry_space_group_name_H-M "C M C M"
_symmetry_group_IT_number 63
_symmetry_cell_setting 'orthorhombic'
loop_
_space_group_symop_operation_xyz
x,y,z
-x,-y,1/2+z
x,-y,-z
-x,y,1/2-z
-x,-y,-z
x,y,1/2-z
-x,y,z
x,-y,1/2+z
1/2+x,1/2+y,z
1/2-x,1/2-y,1/2+z
1/2+x,1/2-y,-z
1/2-x,1/2+y,1/2-z
1/2-x,1/2-y,-z
1/2+x,1/2+y,1/2-z
1/2-x,1/2+y,z
1/2+x,1/2-y,1/2+z
loop_
_atom_site_type_symbol
_atom_site_label
_atom_site_fract_x
_atom_site_fract_y
_atom_site_fract_z
Si Si1 0.114648 0.125437 0.168155
Si Si2 0.000000 0.275290 0.670125
Si Si3 0.284967 0.667048 0.573357
Si Si4 0.250189 0.506753 0.332167
Si Si5 0.000000 0.750365 0.486030
Si Si6 0.638536 0.754573 0.043385
Si Si7 0.845864 0.662708 0.334412
Si Si8 0.500000 0.560603 0.071037
O O1 0.090167 0.138342 0.250000
O O2 0.120259 0.219164 0.122814
O O3 0.065602 0.057128 0.123317
O O4 0.189802 0.082060 0.170175
O O5 0.000000 0.216696 0.596835
O O6 0.928667 0.330891 0.664260
O O7 0.000000 0.230502 0.750000
O O8 0.277788 0.575731 0.619510
O O9 0.337780 0.667294 0.506102
O O10 0.207633 0.686561 0.545848
O O11 0.312453 0.753168 0.621128
O O12 0.237549 0.473659 0.250000
O O13 0.184255 0.564601 0.358853
O O14 0.928156 0.701707 0.505538
O O15 0.000000 0.837025 0.538422
O O16 0.825763 0.672877 0.250000
O O17 0.500000 0.500000 0.000000
#
# Coordination Sequence:
#
# PCOD9473275 Si02
#       8
#    16   8  16  16   8  16  16   8
#     4  10  21  38  56  80 114 155 198 240 292 357
#     4  10  20  36  64  86 117 163 196 247 310 355
#     4  11  21  37  59  90 120 156 202 251 305 360
#     4  10  22  37  60  89 121 158 200 246 297 362
#     4  10  20  39  55  83 120 148 203 243 295 362
#     4  10  22  37  59  85 115 157 198 249 301 355
#     4  10  20  38  61  90 124 159 200 250 303 359
#     4  10  23  35  56  81 114 157 187 244 295 358
#
# _framework density 19.804997
#
# number of rings (size 3 to 8) (size 9 to 14) (size 15 to 20)
#    0.000    1.846    3.077    0.692    4.308    0.615 
#    0.000    1.538    0.000    0.923    0.000    0.000 
#    0.000    0.000    0.000    0.000    0.000    0.000 
#
# Total GULP energy -289759.748658 kJ/mol
# GULP energy per Si atom -5572.302859 kJ/mol
# Density = 1.975992 g / cm^3
# Si number density = 19.804997 Si / 1000 Ang^3
#
#
#
# Elastic Constant Matrix: (Units=GPa)
#
#
# Indices 1 2 3 4 5 6 
#
# 1 128.8980 2.8496 27.1850 0.0000 0.0000 0.0000
# 2 2.8496 25.8025 17.3439 0.0000 0.0000 0.0000
# 3 27.1850 17.3439 125.6826 0.0000 0.0000 0.0000
# 4 0.0000 0.0000 0.0000 16.3599 0.0000 0.0000
# 5 0.0000 0.0000 0.0000 0.0000 31.3660 0.0000
# 6 0.0000 0.0000 0.0000 0.0000 0.0000 9.4515
#
#
#
# Elastic Compliance Matrix: (Units=1/GPa)
#
#
# Indices 1 2 3 4 5 6 
#
# 1 0.008131 0.000313 -0.001802 0.000000 0.000000 0.000000
# 2 0.000313 0.042730 -0.005964 0.000000 0.000000 0.000000
# 3 -0.001802 -0.005964 0.009169 0.000000 0.000000 0.000000
# 4 0.000000 0.000000 0.000000 0.061125 0.000000 0.000000
# 5 0.000000 0.000000 0.000000 0.000000 0.031882 0.000000
# 6 0.000000 0.000000 0.000000 0.000000 0.000000 0.105803
#
#
# Mechanical properties :
#
#
# Convention : Reuss Voigt Hill
#
# Bulk Modulus (GPa) = 22.16084 41.68225 31.92154
# Shear Modulus (GPa) = 17.31368 26.96914 22.14141
#
# Velocity S-wave (km/s) = 2.95991 3.69417 3.34723
# Velocity P-wave (km/s) = 4.78489 6.26800 5.57598
#
# Compressibility (1/GPa) = 0.04512465
#
# Stress axis : x y z
#
# Youngs Moduli (GPa) = 122.98323 23.40251 109.05839
#
# Poissons Ratio (x) = -0.00733 0.19652
# Poissons Ratio (y) = -0.03853 0.65048
# Poissons Ratio (z) = 0.22161 0.13958
#
# Static dielectric constant tensor:
#      x y z
#    x 1.769650 0.000000 0.000000 
#    y 0.000000 1.679350 0.000000 
#    z 0.000000 0.000000 1.760280 
# 
# From -- ./inp_files/47170.got.cif
#   From: 2010.05.17/outbox.cif.g08.bks.cpg/sg63_24_cif.got.tgz:47170.got - 2010.06.03 15:47:04.
