data_PCOD9473349
_publ_section_title
;
Structure prediction by ZEFSAII (Michael W. Deem and Ramdas Pophale) SiO2 
 PCOD9473349
Probable space group: C M C M
;
_chemical_formula_sum "Si O2"
_cell_formula_units_Z 96
_cell_length_a 25.810790
_cell_length_b 24.182023
_cell_length_c 8.662865
_cell_angle_alpha 90.000000
_cell_angle_beta 90.000000
_cell_angle_gamma 90.000000
_cell_volume 5406.988847
_symmetry_space_group_name_H-M "C M C M"
_symmetry_group_IT_number 63
_symmetry_cell_setting 'orthorhombic'
loop_
_space_group_symop_operation_xyz
x,y,z
-x,-y,1/2+z
x,-y,-z
-x,y,1/2-z
-x,-y,-z
x,y,1/2-z
-x,y,z
x,-y,1/2+z
1/2+x,1/2+y,z
1/2-x,1/2-y,1/2+z
1/2+x,1/2-y,-z
1/2-x,1/2+y,1/2-z
1/2-x,1/2-y,-z
1/2+x,1/2+y,1/2-z
1/2-x,1/2+y,z
1/2+x,1/2-y,1/2+z
loop_
_atom_site_type_symbol
_atom_site_label
_atom_site_fract_x
_atom_site_fract_y
_atom_site_fract_z
Si Si1 0.810363 0.939414 0.564471
Si Si2 0.500000 0.561622 0.564237
Si Si3 0.809004 0.559979 0.435580
Si Si4 0.060960 0.249675 0.435257
Si Si5 0.095084 0.366641 0.564131
Si Si6 0.599300 0.634375 0.935488
Si Si7 0.000000 0.561935 0.934973
O O1 0.813354 0.940352 0.750000
O O2 0.750482 0.929270 0.517436
O O3 0.848792 0.893708 0.498313
O O4 0.825030 0.000000 0.500000
O O5 0.500000 0.500000 0.500000
O O6 0.500000 0.558938 0.750000
O O7 0.449013 0.595468 0.516119
O O8 0.824564 0.500000 0.500000
O O9 0.809710 0.556643 0.250000
O O10 0.849927 0.606610 0.482132
O O11 0.063552 0.250649 0.250000
O O12 0.086123 0.305152 0.502187
O O13 0.088549 0.195090 0.499002
O O14 0.000000 0.248300 0.480067
O O15 0.091501 0.366646 0.750000
O O16 0.050037 0.405294 0.496027
O O17 0.600497 0.636449 0.750000
O O18 0.000000 0.561201 0.750000
O O19 0.000000 0.500000 0.000000
#
# Coordination Sequence:
#
# PCOD9473349 Si02
#       7
#    16   8  16  16  16  16   8
#     4  10  20  37  59  86 118 151 190 236 286 342
#     4  10  22  35  52  79 112 143 177 225 277 332
#     4   9  20  37  59  86 116 151 190 234 287 341
#     4  11  23  39  59  84 114 152 193 236 287 342
#     4  11  22  38  60  85 114 151 192 237 287 343
#     4  11  22  38  58  83 113 151 194 235 284 340
#     4  12  24  37  54  83 118 151 187 235 289 344
#
# _framework density 17.754798000000001
#
# number of rings (size 3 to 8) (size 9 to 14) (size 15 to 20)
#    0.000    1.500    1.667    3.750    0.000    6.667 
#    0.000    0.833    0.000    0.000    0.000    0.000 
#    0.000    0.000    0.000    0.000    0.000    0.000 
#
# Total GULP energy -268259.516628 kJ/mol
# GULP energy per Si atom -5588.739930 kJ/mol
# Density = 1.771439 g / cm^3
# Si number density = 17.754798 Si / 1000 Ang^3
#
#
#
# Elastic Constant Matrix: (Units=GPa)
#
#
# Indices 1 2 3 4 5 6 
#
# 1 118.1867 102.2518 42.8127 0.0000 0.0000 0.0000
# 2 102.2518 199.4361 53.8429 0.0000 0.0000 0.0000
# 3 42.8127 53.8429 60.7621 0.0000 0.0000 0.0000
# 4 0.0000 0.0000 0.0000 36.9586 0.0000 0.0000
# 5 0.0000 0.0000 0.0000 0.0000 20.8573 0.0000
# 6 0.0000 0.0000 0.0000 0.0000 0.0000 21.0972
#
#
#
# Elastic Compliance Matrix: (Units=1/GPa)
#
#
# Indices 1 2 3 4 5 6 
#
# 1 0.016458 -0.006977 -0.005414 0.000000 0.000000 0.000000
# 2 -0.006977 0.009548 -0.003545 0.000000 0.000000 0.000000
# 3 -0.005414 -0.003545 0.023414 0.000000 0.000000 0.000000
# 4 0.000000 0.000000 0.000000 0.027057 0.000000 0.000000
# 5 0.000000 0.000000 0.000000 0.000000 0.047945 0.000000
# 6 0.000000 0.000000 0.000000 0.000000 0.000000 0.047400
#
#
# Mechanical properties :
#
#
# Convention : Reuss Voigt Hill
#
# Bulk Modulus (GPa) = 56.98555 86.24439 71.61497
# Shear Modulus (GPa) = 23.86125 27.74777 25.80451
#
# Velocity S-wave (km/s) = 3.66995 3.95756 3.81646
# Velocity P-wave (km/s) = 7.07980 8.34049 7.73587
#
# Compressibility (1/GPa) = 0.01754831
#
# Stress axis : x y z
#
# Youngs Moduli (GPa) = 60.75893 104.73199 42.70920
#
# Poissons Ratio (x) = 0.73067 0.23125
# Poissons Ratio (y) = 0.42389 0.15141
# Poissons Ratio (z) = 0.32898 0.37130
#
# Static dielectric constant tensor:
#      x y z
#    x 1.606100 0.000000 0.000000 
#    y 0.000000 1.564560 0.000000 
#    z 0.000000 0.000000 1.597620 
# 
# From -- ./inp_files/10509.got.cif
#   From: 2010.05.17/outbox.cif.g08.bks.cpg/sg63_6_cif.got.tgz:10509.got - 2010.06.03 15:47:04.
