data_PCOD9473296
_publ_section_title
;
Structure prediction by ZEFSAII (Michael W. Deem and Ramdas Pophale) SiO2 
 PCOD9473296
Probable space group: C M C M
;
_chemical_formula_sum "Si O2"
_cell_formula_units_Z 88
_cell_length_a 19.574716
_cell_length_b 18.617413
_cell_length_c 13.362859
_cell_angle_alpha 90.000000
_cell_angle_beta 90.000000
_cell_angle_gamma 90.000000
_cell_volume 4869.834351
_symmetry_space_group_name_H-M "C M C M"
_symmetry_group_IT_number 63
_symmetry_cell_setting 'orthorhombic'
loop_
_space_group_symop_operation_xyz
x,y,z
-x,-y,1/2+z
x,-y,-z
-x,y,1/2-z
-x,-y,-z
x,y,1/2-z
-x,y,z
x,-y,1/2+z
1/2+x,1/2+y,z
1/2-x,1/2-y,1/2+z
1/2+x,1/2-y,-z
1/2-x,1/2+y,1/2-z
1/2-x,1/2-y,-z
1/2+x,1/2+y,1/2-z
1/2-x,1/2+y,z
1/2+x,1/2-y,1/2+z
loop_
_atom_site_type_symbol
_atom_site_label
_atom_site_fract_x
_atom_site_fract_y
_atom_site_fract_z
Si Si1 0.805843 0.239110 0.368221
Si Si2 0.423007 0.694635 0.984275
Si Si3 0.922617 0.955065 0.132316
Si Si4 0.692656 0.500000 0.000000
Si Si5 0.791432 0.635113 0.018198
Si Si6 0.920859 0.343393 0.631457
O O1 0.813651 0.241187 0.250000
O O2 0.869639 0.204773 0.427154
O O3 0.797582 0.317901 0.417246
O O4 0.742104 0.190146 0.401708
O O5 0.500000 0.697688 0.023973
O O6 0.414896 0.620297 0.925559
O O7 0.415033 0.760827 0.906855
O O8 0.917158 0.943113 0.250000
O O9 0.000000 0.983059 0.112942
O O10 0.860473 0.002755 0.092577
O O11 0.741345 0.568920 0.000582
O O12 0.865009 0.615324 0.064567
O O13 0.907161 0.348451 0.750000
O O14 0.000000 0.365043 0.614613
#
# Coordination Sequence:
#
# PCOD9473296 Si02
#       6
#    16  16  16   8  16  16
#     4  10  20  37  57  81 111 149 190 236 288 337
#     4   9  17  33  56  85 114 144 186 230 277 336
#     4  10  21  37  57  81 116 160 198 231 271 333
#     4  12  23  40  55  82 118 154 196 232 287 342
#     4  10  22  37  55  82 111 147 188 239 284 342
#     4   9  17  32  57  83 106 136 181 238 290 335
#
# _framework density 18.070429000000001
#
# number of rings (size 3 to 8) (size 9 to 14) (size 15 to 20)
#    0.000    2.182    1.818    1.364    0.000    4.727 
#    0.000    0.455    0.000    0.000    0.000    0.000 
#    0.000    0.000    0.000    0.000    0.000    0.000 
#
# Total GULP energy -245472.160716 kJ/mol
# GULP energy per Si atom -5578.912744 kJ/mol
# Density = 1.802930 g / cm^3
# Si number density = 18.070429 Si / 1000 Ang^3
#
#
#
# Elastic Constant Matrix: (Units=GPa)
#
#
# Indices 1 2 3 4 5 6 
#
# 1 115.8208 24.5212 52.1937 0.0000 0.0000 0.0000
# 2 24.5212 27.4120 22.5314 0.0000 0.0000 0.0000
# 3 52.1937 22.5314 135.8284 0.0000 0.0000 0.0000
# 4 0.0000 0.0000 0.0000 9.6655 0.0000 0.0000
# 5 0.0000 0.0000 0.0000 0.0000 23.7533 0.0000
# 6 0.0000 0.0000 0.0000 0.0000 0.0000 12.2115
#
#
#
# Elastic Compliance Matrix: (Units=1/GPa)
#
#
# Indices 1 2 3 4 5 6 
#
# 1 0.011746 -0.007870 -0.003208 0.000000 0.000000 0.000000
# 2 -0.007870 0.047513 -0.004857 0.000000 0.000000 0.000000
# 3 -0.003208 -0.004857 0.009401 0.000000 0.000000 0.000000
# 4 0.000000 0.000000 0.000000 0.103460 0.000000 0.000000
# 5 0.000000 0.000000 0.000000 0.000000 0.042099 0.000000
# 6 0.000000 0.000000 0.000000 0.000000 0.000000 0.081890
#
#
# Mechanical properties :
#
#
# Convention : Reuss Voigt Hill
#
# Bulk Modulus (GPa) = 27.18238 53.06152 40.12195
# Shear Modulus (GPa) = 14.69533 21.11372 17.90452
#
# Velocity S-wave (km/s) = 2.85480 3.42191 3.15114
# Velocity P-wave (km/s) = 5.09330 6.71119 5.95742
#
# Compressibility (1/GPa) = 0.03678853
#
# Stress axis : x y z
#
# Youngs Moduli (GPa) = 85.13544 21.04674 106.37556
#
# Poissons Ratio (x) = 0.16565 0.34125
# Poissons Ratio (y) = 0.67006 0.51669
# Poissons Ratio (z) = 0.27311 0.10223
#
# Static dielectric constant tensor:
#      x y z
#    x 1.664780 0.000000 0.000000 
#    y 0.000000 1.614480 0.000000 
#    z 0.000000 0.000000 1.586900 
# 
# From -- ./inp_files/22576.got.cif
#   From: 2010.05.17/outbox.cif.g08.bks.cpg/sg63_12_cif.got.tgz:22576.got - 2010.06.03 15:47:04.
