data_PCOD9473841
_publ_section_title
;
Structure prediction by ZEFSAII (Michael W. Deem and Ramdas Pophale) SiO2 
 PCOD9473841
Probable space group: C M C M
;
_chemical_formula_sum "Si O2"
_cell_formula_units_Z 96
_cell_length_a 8.777259
_cell_length_b 25.889926
_cell_length_c 23.942372
_cell_angle_alpha 90.000000
_cell_angle_beta 90.000000
_cell_angle_gamma 90.000000
_cell_volume 5440.726528
_symmetry_space_group_name_H-M "C M C M"
_symmetry_group_IT_number 63
_symmetry_cell_setting 'orthorhombic'
loop_
_space_group_symop_operation_xyz
x,y,z
-x,-y,1/2+z
x,-y,-z
-x,y,1/2-z
-x,-y,-z
x,y,1/2-z
-x,y,z
x,-y,1/2+z
1/2+x,1/2+y,z
1/2-x,1/2-y,1/2+z
1/2+x,1/2-y,-z
1/2-x,1/2+y,1/2-z
1/2-x,1/2-y,-z
1/2+x,1/2+y,1/2-z
1/2-x,1/2+y,z
1/2+x,1/2-y,1/2+z
loop_
_atom_site_type_symbol
_atom_site_label
_atom_site_fract_x
_atom_site_fract_y
_atom_site_fract_z
Si Si1 0.316715 0.945508 0.814480
Si Si2 0.681672 0.692084 0.998595
Si Si3 0.317986 0.745224 0.315414
Si Si4 0.817749 0.942123 0.185074
Si Si5 0.182063 0.653186 0.112769
Si Si6 0.318131 0.848751 0.384294
O O1 0.278092 0.931783 0.750000
O O2 0.500000 0.951545 0.817155
O O3 0.272615 0.899712 0.856188
O O4 0.239490 0.000089 0.827581
O O5 0.500000 0.695871 0.998125
O O6 0.737721 0.662533 0.053752
O O7 0.750000 0.750000 0.000000
O O8 0.740993 0.663597 0.943332
O O9 0.280866 0.745997 0.250000
O O10 0.500000 0.736046 0.321394
O O11 0.229081 0.700547 0.347458
O O12 0.284575 0.800147 0.343861
O O13 0.775124 0.931391 0.250000
O O14 0.743068 0.900238 0.144780
O O15 0.000000 0.939762 0.180752
O O16 0.000000 0.653022 0.105036
O O17 0.500000 0.851756 0.391507
#
# Coordination Sequence:
#
# PCOD9473841 Si02
#       6
#    16  16  16  16  16  16
#     4   9  19  37  60  86 117 154 194 236 287 345
#     4  12  24  40  60  84 115 155 197 240 289 346
#     4  10  21  35  54  83 117 151 188 234 289 347
#     4  10  21  37  59  88 120 155 194 238 290 345
#     4  11  22  37  59  86 116 153 195 240 290 346
#     4  11  22  38  60  85 115 154 196 240 290 345
#
# _framework density 17.644701999999999
#
# number of rings (size 3 to 8) (size 9 to 14) (size 15 to 20)
#    0.000    1.500    1.667    4.000    0.000    4.667 
#    0.000    2.500    0.000    5.000    0.000    0.000 
#    0.000    0.000    0.000    0.000    0.000    0.000 
#
# Total GULP energy -268279.612854 kJ/mol
# GULP energy per Si atom -5589.158601 kJ/mol
# Density = 1.760454 g / cm^3
# Si number density = 17.644702 Si / 1000 Ang^3
#
#
#
# Elastic Constant Matrix: (Units=GPa)
#
#
# Indices 1 2 3 4 5 6 
#
# 1 80.8870 69.2560 72.9122 0.0000 0.0000 0.0000
# 2 69.2560 140.2478 92.8542 0.0000 0.0000 0.0000
# 3 72.9122 92.8542 143.6091 0.0000 0.0000 0.0000
# 4 0.0000 0.0000 0.0000 10.3581 0.0000 0.0000
# 5 0.0000 0.0000 0.0000 0.0000 31.9840 0.0000
# 6 0.0000 0.0000 0.0000 0.0000 0.0000 24.4530
#
#
#
# Elastic Compliance Matrix: (Units=1/GPa)
#
#
# Indices 1 2 3 4 5 6 
#
# 1 0.026474 -0.007299 -0.008722 0.000000 0.000000 0.000000
# 2 -0.007299 0.014479 -0.005656 0.000000 0.000000 0.000000
# 3 -0.008722 -0.005656 0.015049 0.000000 0.000000 0.000000
# 4 0.000000 0.000000 0.000000 0.096543 0.000000 0.000000
# 5 0.000000 0.000000 0.000000 0.000000 0.031266 0.000000
# 6 0.000000 0.000000 0.000000 0.000000 0.000000 0.040895
#
#
# Mechanical properties :
#
#
# Convention : Reuss Voigt Hill
#
# Bulk Modulus (GPa) = 79.06254 92.75430 85.90842
# Shear Modulus (GPa) = 18.36369 22.00713 20.18541
#
# Velocity S-wave (km/s) = 3.22956 3.53546 3.38597
# Velocity P-wave (km/s) = 7.66891 8.32753 8.00500
#
# Compressibility (1/GPa) = 0.01264822
#
# Stress axis : x y z
#
# Youngs Moduli (GPa) = 37.77240 69.06427 66.44929
#
# Poissons Ratio (x) = 0.50407 0.57959
# Poissons Ratio (y) = 0.27568 0.37586
# Poissons Ratio (z) = 0.32946 0.39065
#
# Static dielectric constant tensor:
#      x y z
#    x 1.592110 0.000000 0.000000 
#    y 0.000000 1.566140 0.000000 
#    z 0.000000 0.000000 1.586830 
# 
# From -- ./inp_files/51420.got.cif
#   From: 2010.05.17/outbox.cif.g08.bks.cpg/sg63_26_cif.got.tgz:51420.got - 2010.06.03 15:47:04.
