data_PCOD9473957
_publ_section_title
;
Structure prediction by ZEFSAII (Michael W. Deem and Ramdas Pophale) SiO2 
 PCOD9473957
Probable space group: C M C M
;
_chemical_formula_sum "Si O2"
_cell_formula_units_Z 96
_cell_length_a 15.410608
_cell_length_b 26.524041
_cell_length_c 13.564646
_cell_angle_alpha 90.000000
_cell_angle_beta 90.000000
_cell_angle_gamma 90.000000
_cell_volume 5544.570735
_symmetry_space_group_name_H-M "C M C M"
_symmetry_group_IT_number 63
_symmetry_cell_setting 'orthorhombic'
loop_
_space_group_symop_operation_xyz
x,y,z
-x,-y,1/2+z
x,-y,-z
-x,y,1/2-z
-x,-y,-z
x,y,1/2-z
-x,y,z
x,-y,1/2+z
1/2+x,1/2+y,z
1/2-x,1/2-y,1/2+z
1/2+x,1/2-y,-z
1/2-x,1/2+y,1/2-z
1/2-x,1/2-y,-z
1/2+x,1/2+y,1/2-z
1/2-x,1/2+y,z
1/2+x,1/2-y,1/2+z
loop_
_atom_site_type_symbol
_atom_site_label
_atom_site_fract_x
_atom_site_fract_y
_atom_site_fract_z
Si Si1 0.602641 0.134534 0.633116
Si Si2 0.225786 0.555742 0.973768
Si Si3 0.594346 0.675032 0.494966
Si Si4 0.899311 0.081935 0.632386
Si Si5 0.252930 0.860058 0.865370
Si Si6 0.659987 0.220041 0.016168
O O1 0.613448 0.140562 0.750000
O O2 0.500000 0.127341 0.612140
O O3 0.660661 0.087845 0.595045
O O4 0.635512 0.184351 0.575650
O O5 0.320881 0.552853 0.921695
O O6 0.195261 0.500000 0.000000
O O7 0.232491 0.589003 0.073070
O O8 0.500000 0.662205 0.454781
O O9 0.610499 0.638374 0.587866
O O10 0.665293 0.662971 0.412402
O O11 0.596554 0.733069 0.527029
O O12 0.887754 0.080970 0.750000
O O13 0.000000 0.066022 0.611639
O O14 0.247512 0.867900 0.750000
O O15 0.326181 0.818982 0.894761
O O16 0.750000 0.250000 0.000000
#
# Coordination Sequence:
#
# PCOD9473957 Si02
#       6
#    16  16  16  16  16  16
#     4  10  21  37  57  81 108 138 176 223 270 314
#     4  10  21  36  56  77 101 136 177 224 272 321
#     4   9  17  30  49  74 103 134 167 202 245 301
#     4   9  18  33  53  79 110 140 173 216 264 317
#     4   9  19  33  47  69 101 134 168 208 255 303
#     4   9  18  31  48  73 104 137 169 206 250 300
#
# _framework density 17.314235
#
# number of rings (size 3 to 8) (size 9 to 14) (size 15 to 20)
#    0.000    2.667    0.000    2.000    0.000    5.667 
#    0.000    0.000    0.000   12.000    0.000    0.000 
#    0.000    0.000    0.000    0.000    0.000    0.000 
#
# Total GULP energy -267240.160451 kJ/mol
# GULP energy per Si atom -5567.503343 kJ/mol
# Density = 1.727483 g / cm^3
# Si number density = 17.314235 Si / 1000 Ang^3
#
#
#
# Elastic Constant Matrix: (Units=GPa)
#
#
# Indices 1 2 3 4 5 6 
#
# 1 70.4313 16.2414 24.7197 0.0000 0.0000 0.0000
# 2 16.2414 68.9382 6.4796 0.0000 0.0000 0.0000
# 3 24.7197 6.4796 83.4203 0.0000 0.0000 0.0000
# 4 0.0000 0.0000 0.0000 5.1668 0.0000 0.0000
# 5 0.0000 0.0000 0.0000 0.0000 20.5146 0.0000
# 6 0.0000 0.0000 0.0000 0.0000 0.0000 10.0195
#
#
#
# Elastic Compliance Matrix: (Units=1/GPa)
#
#
# Indices 1 2 3 4 5 6 
#
# 1 0.016636 -0.003481 -0.004659 0.000000 0.000000 0.000000
# 2 -0.003481 0.015341 -0.000160 0.000000 0.000000 0.000000
# 3 -0.004659 -0.000160 0.013381 0.000000 0.000000 0.000000
# 4 0.000000 0.000000 0.000000 0.193542 0.000000 0.000000
# 5 0.000000 0.000000 0.000000 0.000000 0.048746 0.000000
# 6 0.000000 0.000000 0.000000 0.000000 0.000000 0.099806
#
#
# Mechanical properties :
#
#
# Convention : Reuss Voigt Hill
#
# Bulk Modulus (GPa) = 34.77491 35.29681 35.03586
# Shear Modulus (GPa) = 12.08786 18.83012 15.45899
#
# Velocity S-wave (km/s) = 2.64511 3.30138 2.99130
# Velocity P-wave (km/s) = 5.42743 5.91290 5.67536
#
# Compressibility (1/GPa) = 0.02875636
#
# Stress axis : x y z
#
# Youngs Moduli (GPa) = 60.10917 65.18481 74.73499
#
# Poissons Ratio (x) = 0.22694 0.34822
# Poissons Ratio (y) = 0.20927 0.01195
# Poissons Ratio (z) = 0.28007 0.01043
#
# Static dielectric constant tensor:
#      x y z
#    x 1.431900 0.000000 0.000000 
#    y 0.000000 1.599310 0.000000 
#    z 0.000000 0.000000 1.548980 
# 
# From -- ./inp_files/21508.got.cif
#   From: 2010.05.17/outbox.cif.g08.bks.cpg/sg63_11_cif.got.tgz:21508.got - 2010.06.03 15:47:04.
