data_PCOD9473079
_publ_section_title
;
Structure prediction by ZEFSAII (Michael W. Deem and Ramdas Pophale) SiO2 
 PCOD9473079
Probable space group: C M C M
;
_chemical_formula_sum "Si O2"
_cell_formula_units_Z 96
_cell_length_a 15.985829
_cell_length_b 23.777366
_cell_length_c 13.831469
_cell_angle_alpha 90.000000
_cell_angle_beta 90.000000
_cell_angle_gamma 90.000000
_cell_volume 5257.353911
_symmetry_space_group_name_H-M "C M C M"
_symmetry_group_IT_number 63
_symmetry_cell_setting 'orthorhombic'
loop_
_space_group_symop_operation_xyz
x,y,z
-x,-y,1/2+z
x,-y,-z
-x,y,1/2-z
-x,-y,-z
x,y,1/2-z
-x,y,z
x,-y,1/2+z
1/2+x,1/2+y,z
1/2-x,1/2-y,1/2+z
1/2+x,1/2-y,-z
1/2-x,1/2+y,1/2-z
1/2-x,1/2-y,-z
1/2+x,1/2+y,1/2-z
1/2-x,1/2+y,z
1/2+x,1/2-y,1/2+z
loop_
_atom_site_type_symbol
_atom_site_label
_atom_site_fract_x
_atom_site_fract_y
_atom_site_fract_z
Si Si1 0.759226 0.462286 0.635061
Si Si2 0.094683 0.554150 0.636669
Si Si3 0.906626 0.969808 0.133104
Si Si4 0.182469 0.362092 0.000914
Si Si5 0.338797 0.651269 0.635771
Si Si6 0.402312 0.224902 0.139709
O O1 0.757474 0.450155 0.750000
O O2 0.833580 0.507672 0.619431
O O3 0.670663 0.490139 0.606594
O O4 0.779729 0.407802 0.573094
O O5 0.101962 0.570686 0.750000
O O6 0.113581 0.605539 0.565391
O O7 0.000000 0.532565 0.621925
O O8 0.906805 0.969823 0.250000
O O9 0.886310 0.905544 0.104528
O O10 0.000000 0.986578 0.102812
O O11 0.254853 0.343948 0.074312
O O12 0.146636 0.311042 0.938917
O O13 0.319167 0.644697 0.750000
O O14 0.390577 0.708420 0.624718
O O15 0.373548 0.212455 0.250000
O O16 0.500000 0.210720 0.134101
#
# Coordination Sequence:
#
# PCOD9473079 Si02
#       6
#    16  16  16  16  16  16
#     4  10  21  36  53  80 116 150 186 226 277 337
#     4  10  21  36  54  78 111 151 192 229 272 331
#     4   9  17  33  57  81 108 145 184 226 275 327
#     4  12  21  34  56  83 113 145 181 232 284 341
#     4  10  20  36  58  81 108 143 185 234 279 329
#     4  10  22  39  57  80 109 145 191 236 281 334
#
# _framework density 18.260135999999999
#
# number of rings (size 3 to 8) (size 9 to 14) (size 15 to 20)
#    0.000    1.833    1.667    3.000    0.000    4.000 
#    0.000    4.167    0.000    0.000    0.000    0.000 
#    0.000    0.000    0.000    0.000    0.000    0.000 
#
# Total GULP energy -268055.732562 kJ/mol
# GULP energy per Si atom -5584.494428 kJ/mol
# Density = 1.821858 g / cm^3
# Si number density = 18.260136 Si / 1000 Ang^3
#
#
#
# Elastic Constant Matrix: (Units=GPa)
#
#
# Indices 1 2 3 4 5 6 
#
# 1 111.6011 14.2351 22.4943 0.0000 0.0000 0.0000
# 2 14.2351 48.6182 24.0996 0.0000 0.0000 0.0000
# 3 22.4943 24.0996 77.7589 0.0000 0.0000 0.0000
# 4 0.0000 0.0000 0.0000 27.1200 0.0000 0.0000
# 5 0.0000 0.0000 0.0000 0.0000 -3.8149 0.0000
# 6 0.0000 0.0000 0.0000 0.0000 0.0000 115.6430
#
#
#
# Elastic Compliance Matrix: (Units=1/GPa)
#
#
# Indices 1 2 3 4 5 6 
#
# 1 0.009633 -0.001700 -0.002260 0.000000 0.000000 0.000000
# 2 -0.001700 0.024602 -0.007133 0.000000 0.000000 0.000000
# 3 -0.002260 -0.007133 0.015725 0.000000 0.000000 0.000000
# 4 0.000000 0.000000 0.000000 0.036873 0.000000 0.000000
# 5 0.000000 0.000000 0.000000 0.000000 -0.262133 0.000000
# 6 0.000000 0.000000 0.000000 0.000000 0.000000 0.008647
#
#
# Mechanical properties :
#
#
# Convention : Reuss Voigt Hill
#
# Bulk Modulus (GPa) = 36.00537 39.95956 37.98247
# Shear Modulus (GPa) = -36.97961 39.59958 1.30998
#
# Velocity S-wave (km/s) = -4.50505 4.66191 0.84791
# Velocity P-wave (km/s) = 2.70183 7.13505 4.66953
#
# Compressibility (1/GPa) = 0.02777363
#
# Stress axis : x y z
#
# Youngs Moduli (GPa) = 103.81171 40.64707 63.59454
#
# Poissons Ratio (x) = 0.06911 0.14370
# Poissons Ratio (y) = 0.17652 0.45362
# Poissons Ratio (z) = 0.23458 0.28993
#
# Static dielectric constant tensor:
#      x y z
#    x 1.628750 0.000000 0.000000 
#    y 0.000000 1.600780 0.000000 
#    z 0.000000 0.000000 1.646360 
# 
# From -- ./inp_files/31901.got.cif
#   From: 2010.05.17/outbox.cif.g08.bks.cpg/sg63_16_cif.got.tgz:31901.got - 2010.06.03 15:47:04.
