data_PCOD9473129
_publ_section_title
;
Structure prediction by ZEFSAII (Michael W. Deem and Ramdas Pophale) SiO2 
 PCOD9473129
Probable space group: C M C M
;
_chemical_formula_sum "Si O2"
_cell_formula_units_Z 84
_cell_length_a 14.918102
_cell_length_b 12.347859
_cell_length_c 21.233216
_cell_angle_alpha 90.000000
_cell_angle_beta 90.000000
_cell_angle_gamma 90.000000
_cell_volume 3911.298952
_symmetry_space_group_name_H-M "C M C M"
_symmetry_group_IT_number 63
_symmetry_cell_setting 'orthorhombic'
loop_
_space_group_symop_operation_xyz
x,y,z
-x,-y,1/2+z
x,-y,-z
-x,y,1/2-z
-x,-y,-z
x,y,1/2-z
-x,y,z
x,-y,1/2+z
1/2+x,1/2+y,z
1/2-x,1/2-y,1/2+z
1/2+x,1/2-y,-z
1/2-x,1/2+y,1/2-z
1/2-x,1/2-y,-z
1/2+x,1/2+y,1/2-z
1/2-x,1/2+y,z
1/2+x,1/2-y,1/2+z
loop_
_atom_site_type_symbol
_atom_site_label
_atom_site_fract_x
_atom_site_fract_y
_atom_site_fract_z
Si Si1 0.899501 0.445601 0.825890
Si Si2 0.897617 0.877194 0.992502
Si Si3 0.359371 0.693677 0.352374
Si Si4 0.336145 0.268780 0.390208
Si Si5 0.210829 0.962919 0.179596
Si Si6 0.500000 0.231788 0.750000
O O1 0.890438 0.429248 0.750000
O O2 0.891010 0.331395 0.862131
O O3 0.812284 0.515115 0.845552
O O4 0.000000 0.491090 0.835981
O O5 0.847631 0.789929 0.036090
O O6 0.000000 0.881094 0.015865
O O7 0.897558 0.839527 0.920496
O O8 0.859881 0.000000 0.000000
O O9 0.265333 0.749331 0.368225
O O10 0.334253 0.580336 0.319550
O O11 0.422256 0.759448 0.305655
O O12 0.354076 0.385008 0.359170
O O13 0.219288 0.918436 0.250000
#
# Coordination Sequence:
#
# PCOD9473129 Si02
#       6
#    16  16  16  16  16   4
#     4   9  19  37  56  84 121 161 209 260 309 370
#     4  11  22  39  62  90 125 161 208 259 315 376
#     4  11  23  41  61  87 125 164 203 261 314 368
#     4  11  22  37  63  87 124 165 210 253 312 381
#     4  10  20  36  58  86 119 160 203 252 317 368
#     4  12  24  44  62  92 128 158 206 268 314 364
#
# _framework density 21.476241000000002
#
# number of rings (size 3 to 8) (size 9 to 14) (size 15 to 20)
#    0.000    1.524    3.810    1.714    2.667    0.000 
#    3.429    0.000    0.000    0.000    0.000    7.333 
#    0.000    0.000    0.000    0.000    0.000    0.000 
#
# Total GULP energy -233892.709479 kJ/mol
# GULP energy per Si atom -5568.874035 kJ/mol
# Density = 2.142736 g / cm^3
# Si number density = 21.476241 Si / 1000 Ang^3
#
#
#
# Elastic Constant Matrix: (Units=GPa)
#
#
# Indices 1 2 3 4 5 6 
#
# 1 65.1706 -11.3172 15.0865 0.0000 0.0000 0.0000
# 2 -11.3172 49.9879 12.6731 0.0000 0.0000 0.0000
# 3 15.0865 12.6731 119.7793 0.0000 0.0000 0.0000
# 4 0.0000 0.0000 0.0000 10.7105 0.0000 0.0000
# 5 0.0000 0.0000 0.0000 0.0000 25.6171 0.0000
# 6 0.0000 0.0000 0.0000 0.0000 0.0000 2.8811
#
#
#
# Elastic Compliance Matrix: (Units=1/GPa)
#
#
# Indices 1 2 3 4 5 6 
#
# 1 0.016711 0.004436 -0.002574 0.000000 0.000000 0.000000
# 2 0.004436 0.021734 -0.002858 0.000000 0.000000 0.000000
# 3 -0.002574 -0.002858 0.008975 0.000000 0.000000 0.000000
# 4 0.000000 0.000000 0.000000 0.093366 0.000000 0.000000
# 5 0.000000 0.000000 0.000000 0.000000 0.039036 0.000000
# 6 0.000000 0.000000 0.000000 0.000000 0.000000 0.347090
#
#
# Mechanical properties :
#
#
# Convention : Reuss Voigt Hill
#
# Bulk Modulus (GPa) = 22.01352 29.75807 25.88579
# Shear Modulus (GPa) = 9.19038 22.40811 15.79924
#
# Velocity S-wave (km/s) = 2.07090 3.23366 2.71525
# Velocity P-wave (km/s) = 3.99882 5.27527 4.68076
#
# Compressibility (1/GPa) = 0.04542663
#
# Stress axis : x y z
#
# Youngs Moduli (GPa) = 59.84253 46.01149 111.41686
#
# Poissons Ratio (x) = -0.20410 0.28679
# Poissons Ratio (y) = -0.26545 0.31845
# Poissons Ratio (z) = 0.15404 0.13151
#
# Static dielectric constant tensor:
#      x y z
#    x 1.791880 0.000000 0.000000 
#    y 0.000000 1.827460 0.000000 
#    z 0.000000 0.000000 1.876580 
# 
# From -- ./inp_files/62698.got.cif
#   From: 2010.05.17/outbox.cif.g08.bks.cpg/sg63_32_cif.got.tgz:62698.got - 2010.06.03 15:47:04.
