data_PCOD9473141
_publ_section_title
;
Structure prediction by ZEFSAII (Michael W. Deem and Ramdas Pophale) SiO2 
 PCOD9473141
Probable space group: C M C M
;
_chemical_formula_sum "Si O2"
_cell_formula_units_Z 88
_cell_length_a 11.153000
_cell_length_b 14.350071
_cell_length_c 25.074686
_cell_angle_alpha 90.000000
_cell_angle_beta 90.000000
_cell_angle_gamma 90.000000
_cell_volume 4013.111768
_symmetry_space_group_name_H-M "C M C M"
_symmetry_group_IT_number 63
_symmetry_cell_setting 'orthorhombic'
loop_
_space_group_symop_operation_xyz
x,y,z
-x,-y,1/2+z
x,-y,-z
-x,y,1/2-z
-x,-y,-z
x,y,1/2-z
-x,y,z
x,-y,1/2+z
1/2+x,1/2+y,z
1/2-x,1/2-y,1/2+z
1/2+x,1/2-y,-z
1/2-x,1/2+y,1/2-z
1/2-x,1/2-y,-z
1/2+x,1/2+y,1/2-z
1/2-x,1/2+y,z
1/2+x,1/2-y,1/2+z
loop_
_atom_site_type_symbol
_atom_site_label
_atom_site_fract_x
_atom_site_fract_y
_atom_site_fract_z
Si Si1 0.638572 0.445326 0.391085
Si Si2 0.000000 0.506350 0.361286
Si Si3 0.500000 0.176829 0.057997
Si Si4 0.259321 0.712845 0.559226
Si Si5 0.500000 0.183109 0.927983
Si Si6 0.257710 0.925630 0.688297
Si Si7 0.139746 0.776205 0.309966
O O1 0.500000 0.448399 0.406805
O O2 0.716840 0.399316 0.438210
O O3 0.673966 0.537306 0.359308
O O4 0.661105 0.363296 0.347766
O O5 0.000000 0.581741 0.409286
O O6 0.883454 0.523510 0.325104
O O7 0.000000 0.408044 0.391121
O O8 0.618217 0.234391 0.076048
O O9 0.500000 0.165507 0.993100
O O10 0.250000 0.750000 0.500000
O O11 0.127913 0.731834 0.583456
O O12 0.220644 0.944135 0.750000
O O13 0.281355 0.815570 0.683265
O O14 0.158672 0.810536 0.250000
O O15 0.000000 0.747528 0.313923
#
# Coordination Sequence:
#
# PCOD9473141 Si02
#       7
#    16   8   8  16   8  16  16
#     4  11  21  37  62  86 115 161 208 247 306 378
#     4  12  20  36  58  86 114 155 204 247 299 362
#     4  10  21  37  65  87 117 158 207 249 306 374
#     4  10  20  36  58  89 121 156 198 250 306 363
#     4  10  21  37  59  91 123 153 197 258 311 361
#     4  11  22  35  57  88 121 152 196 257 308 355
#     4   9  18  34  57  84 110 145 199 251 295 357
#
# _framework density 21.928121000000001
#
# number of rings (size 3 to 8) (size 9 to 14) (size 15 to 20)
#    0.000    1.636    3.636    2.182    0.000    1.091 
#    0.000    0.000   10.000    0.000    0.000   12.727 
#    0.000    0.000    0.000    0.000    0.000    0.000 
#
# Total GULP energy -245425.002114 kJ/mol
# GULP energy per Si atom -5577.840957 kJ/mol
# Density = 2.187821 g / cm^3
# Si number density = 21.928121 Si / 1000 Ang^3
#
#
#
# Elastic Constant Matrix: (Units=GPa)
#
#
# Indices 1 2 3 4 5 6 
#
# 1 122.1354 3.6299 -6.3680 0.0000 0.0000 0.0000
# 2 3.6299 50.4449 -2.2150 0.0000 0.0000 0.0000
# 3 -6.3680 -2.2150 47.8673 0.0000 0.0000 0.0000
# 4 0.0000 0.0000 0.0000 29.8751 0.0000 0.0000
# 5 0.0000 0.0000 0.0000 0.0000 25.1713 0.0000
# 6 0.0000 0.0000 0.0000 0.0000 0.0000 23.8758
#
#
#
# Elastic Compliance Matrix: (Units=1/GPa)
#
#
# Indices 1 2 3 4 5 6 
#
# 1 0.008260 -0.000547 0.001074 0.000000 0.000000 0.000000
# 2 -0.000547 0.019900 0.000848 0.000000 0.000000 0.000000
# 3 0.001074 0.000848 0.021073 0.000000 0.000000 0.000000
# 4 0.000000 0.000000 0.000000 0.033473 0.000000 0.000000
# 5 0.000000 0.000000 0.000000 0.000000 0.039728 0.000000
# 6 0.000000 0.000000 0.000000 0.000000 0.000000 0.041883
#
#
# Mechanical properties :
#
#
# Convention : Reuss Voigt Hill
#
# Bulk Modulus (GPa) = 19.23745 23.39349 21.31547
# Shear Modulus (GPa) = 27.94924 30.81115 29.38020
#
# Velocity S-wave (km/s) = 3.57401 3.75253 3.66436
# Velocity P-wave (km/s) = 5.08167 5.42833 5.25786
#
# Compressibility (1/GPa) = 0.05198195
#
# Stress axis : x y z
#
# Youngs Moduli (GPa) = 121.06730 50.25073 47.45373
#
# Poissons Ratio (x) = 0.02750 -0.05094
# Poissons Ratio (y) = 0.06625 -0.04024
# Poissons Ratio (z) = -0.12997 -0.04262
#
# Static dielectric constant tensor:
#      x y z
#    x 1.852660 0.000000 0.000000 
#    y 0.000000 1.800460 0.000000 
#    z 0.000000 0.000000 1.987280 
# 
# From -- ./inp_files/72768.got.cif
#   From: 2010.05.17/outbox.cif.g08.bks.cpg/sg63_37_cif.got.tgz:72768.got - 2010.06.03 15:47:04.
