data_PCOD9473826
_publ_section_title
;
Structure prediction by ZEFSAII (Michael W. Deem and Ramdas Pophale) SiO2 
 PCOD9473826
Probable space group: C M C M
;
_chemical_formula_sum "Si O2"
_cell_formula_units_Z 96
_cell_length_a 22.163794
_cell_length_b 8.698285
_cell_length_c 25.326909
_cell_angle_alpha 90.000000
_cell_angle_beta 90.000000
_cell_angle_gamma 90.000000
_cell_volume 4882.698727
_symmetry_space_group_name_H-M "C M C M"
_symmetry_group_IT_number 63
_symmetry_cell_setting 'orthorhombic'
loop_
_space_group_symop_operation_xyz
x,y,z
-x,-y,1/2+z
x,-y,-z
-x,y,1/2-z
-x,-y,-z
x,y,1/2-z
-x,y,z
x,-y,1/2+z
1/2+x,1/2+y,z
1/2-x,1/2-y,1/2+z
1/2+x,1/2-y,-z
1/2-x,1/2+y,1/2-z
1/2-x,1/2-y,-z
1/2+x,1/2+y,1/2-z
1/2-x,1/2+y,z
1/2+x,1/2-y,1/2+z
loop_
_atom_site_type_symbol
_atom_site_label
_atom_site_fract_x
_atom_site_fract_y
_atom_site_fract_z
Si Si1 0.847037 0.136115 0.094131
Si Si2 0.276703 0.871501 0.960426
Si Si3 0.433187 0.818821 0.486700
Si Si4 0.207037 0.670199 0.688229
Si Si5 0.888167 0.203291 0.906372
Si Si6 0.335244 0.180019 0.188724
O O1 0.781633 0.079405 0.072613
O O2 0.882801 0.243723 0.051874
O O3 0.831676 0.230361 0.146948
O O4 0.883055 0.978587 0.101110
O O5 0.326989 0.789095 0.926395
O O6 0.250000 0.750000 0.000000
O O7 0.300472 0.000000 0.000000
O O8 0.500000 0.796408 0.463029
O O9 0.430368 0.737218 0.543962
O O10 0.426890 0.000000 0.500000
O O11 0.195331 0.709242 0.750000
O O12 0.278117 0.705392 0.679383
O O13 0.190509 0.491915 0.679948
O O14 0.891391 0.280429 0.848948
O O15 0.351660 0.192654 0.250000
#
# Coordination Sequence:
#
# PCOD9473826 Si02
#       6
#    16  16  16  16  16  16
#     4  12  23  36  57  85 116 153 189 234 289 339
#     4  12  22  33  49  81 118 151 188 227 278 345
#     4  11  25  43  62  84 111 148 191 236 287 343
#     4  10  21  35  53  80 117 157 194 234 280 338
#     4  12  23  35  58  84 115 155 187 235 288 339
#     4  10  21  35  53  81 118 157 194 233 280 338
#
# _framework density 19.661259000000001
#
# number of rings (size 3 to 8) (size 9 to 14) (size 15 to 20)
#    0.000    0.833    5.000    3.000    2.333    3.333 
#    0.000    0.000    0.000    1.000    0.000    7.000 
#    0.000    0.000    0.000    0.000    0.000    0.000 
#
# Total GULP energy -267854.311131 kJ/mol
# GULP energy per Si atom -5580.298149 kJ/mol
# Density = 1.961651 g / cm^3
# Si number density = 19.661259 Si / 1000 Ang^3
#
#
#
# Elastic Constant Matrix: (Units=GPa)
#
#
# Indices 1 2 3 4 5 6 
#
# 1 64.5110 -1.7577 17.1930 0.0000 0.0000 0.0000
# 2 -1.7577 75.3847 36.0852 0.0000 0.0000 0.0000
# 3 17.1930 36.0852 116.7625 0.0000 0.0000 0.0000
# 4 0.0000 0.0000 0.0000 35.0400 0.0000 0.0000
# 5 0.0000 0.0000 0.0000 0.0000 11.2364 0.0000
# 6 0.0000 0.0000 0.0000 0.0000 0.0000 8.5928
#
#
#
# Elastic Compliance Matrix: (Units=1/GPa)
#
#
# Indices 1 2 3 4 5 6 
#
# 1 0.016340 0.001799 -0.002962 0.000000 0.000000 0.000000
# 2 0.001799 0.015766 -0.005137 0.000000 0.000000 0.000000
# 3 -0.002962 -0.005137 0.010588 0.000000 0.000000 0.000000
# 4 0.000000 0.000000 0.000000 0.028539 0.000000 0.000000
# 5 0.000000 0.000000 0.000000 0.000000 0.088997 0.000000
# 6 0.000000 0.000000 0.000000 0.000000 0.000000 0.116377
#
#
# Mechanical properties :
#
#
# Convention : Reuss Voigt Hill
#
# Bulk Modulus (GPa) = 33.23011 39.96659 36.59835
# Shear Modulus (GPa) = 16.70905 24.64967 20.67936
#
# Velocity S-wave (km/s) = 2.91837 3.54463 3.24664
# Velocity P-wave (km/s) = 5.31920 6.09297 5.71918
#
# Compressibility (1/GPa) = 0.03009319
#
# Stress axis : x y z
#
# Youngs Moduli (GPa) = 61.20091 63.42592 94.44434
#
# Poissons Ratio (x) = -0.11409 0.27973
# Poissons Ratio (y) = -0.11009 0.48520
# Poissons Ratio (z) = 0.18127 0.32585
#
# Static dielectric constant tensor:
#      x y z
#    x 1.737650 0.000000 0.000000 
#    y 0.000000 1.673980 0.000000 
#    z 0.000000 0.000000 1.731240 
# 
# From -- ./inp_files/64955.got.cif
#   From: 2010.05.17/outbox.cif.g08.bks.cpg/sg63_33_cif.got.tgz:64955.got - 2010.06.03 15:47:04.
