data_PCOD9473710
_publ_section_title
;
Structure prediction by ZEFSAII (Michael W. Deem and Ramdas Pophale) SiO2 
 PCOD9473710
Probable space group: C M C M
;
_chemical_formula_sum "Si O2"
_cell_formula_units_Z 96
_cell_length_a 7.174023
_cell_length_b 19.994740
_cell_length_c 24.762023
_cell_angle_alpha 90.000000
_cell_angle_beta 90.000000
_cell_angle_gamma 90.000000
_cell_volume 3551.932047
_symmetry_space_group_name_H-M "C M C M"
_symmetry_group_IT_number 63
_symmetry_cell_setting 'orthorhombic'
loop_
_space_group_symop_operation_xyz
x,y,z
-x,-y,1/2+z
x,-y,-z
-x,y,1/2-z
-x,-y,-z
x,y,1/2-z
-x,y,z
x,-y,1/2+z
1/2+x,1/2+y,z
1/2-x,1/2-y,1/2+z
1/2+x,1/2-y,-z
1/2-x,1/2+y,1/2-z
1/2-x,1/2-y,-z
1/2+x,1/2+y,1/2-z
1/2-x,1/2+y,z
1/2+x,1/2-y,1/2+z
loop_
_atom_site_type_symbol
_atom_site_label
_atom_site_fract_x
_atom_site_fract_y
_atom_site_fract_z
Si Si1 0.725421 0.290736 0.342954
Si Si2 0.726910 0.372885 0.930941
Si Si3 0.210828 0.147245 0.190946
Si Si4 0.225641 0.939280 0.308215
Si Si5 0.725285 0.480578 0.422137
Si Si6 0.725818 0.668552 0.541983
O O1 0.500000 0.288387 0.341687
O O2 0.796231 0.227822 0.310509
O O3 0.779716 0.362364 0.318865
O O4 0.786555 0.289100 0.405935
O O5 0.500000 0.369037 0.929415
O O6 0.791989 0.364416 0.869227
O O7 0.779456 0.449002 0.947320
O O8 0.788126 0.324151 0.979826
O O9 0.289443 0.127883 0.250000
O O10 0.000000 0.119058 0.189661
O O11 0.289296 0.962242 0.250000
O O12 0.282017 0.982316 0.359319
O O13 0.000000 0.939551 0.308324
O O14 0.500000 0.479470 0.425634
O O15 0.781105 0.407719 0.442484
O O16 0.500000 0.671249 0.541939
#
# Coordination Sequence:
#
# PCOD9473710 Si02
#       6
#    16  16  16  16  16  16
#     4   9  17  30  48  67  86 112 148 187 223 256
#     4   9  16  26  40  59  89 123 144 169 217 268
#     4  10  21  33  43  61  91 123 151 177 210 258
#     4   8  13  21  36  60  85 107 138 182 222 252
#     4   8  13  21  36  60  88 115 140 170 215 266
#     4   8  14  25  43  67  88 107 141 186 224 259
#
# _framework density 27.027543999999999
#
# number of rings (size 3 to 8) (size 9 to 14) (size 15 to 20)
#    0.000    3.333    0.000    3.000    0.000    4.333 
#    0.000    3.333    0.000    0.000    0.000    4.667 
#    0.000    6.667    0.000    0.000    0.000    0.000 
#
# Total GULP energy -268185.402778 kJ/mol
# GULP energy per Si atom -5587.195891 kJ/mol
# Density = 2.696603 g / cm^3
# Si number density = 27.027544 Si / 1000 Ang^3
#
#
#
# Elastic Constant Matrix: (Units=GPa)
#
#
# Indices 1 2 3 4 5 6 
#
# 1 143.1144 -8.0843 0.2603 0.0000 0.0000 0.0000
# 2 -8.0843 69.8898 14.8876 0.0000 0.0000 0.0000
# 3 0.2603 14.8876 211.5578 0.0000 0.0000 0.0000
# 4 0.0000 0.0000 0.0000 25.1532 0.0000 0.0000
# 5 0.0000 0.0000 0.0000 0.0000 -15.5452 0.0000
# 6 0.0000 0.0000 0.0000 0.0000 0.0000 25.1452
#
#
#
# Elastic Compliance Matrix: (Units=1/GPa)
#
#
# Indices 1 2 3 4 5 6 
#
# 1 0.007034 0.000828 -0.000067 0.000000 0.000000 0.000000
# 2 0.000828 0.014623 -0.001030 0.000000 0.000000 0.000000
# 3 -0.000067 -0.001030 0.004799 0.000000 0.000000 0.000000
# 4 0.000000 0.000000 0.000000 0.039756 0.000000 0.000000
# 5 0.000000 0.000000 0.000000 0.000000 -0.064329 0.000000
# 6 0.000000 0.000000 0.000000 0.000000 0.000000 0.039769
#
#
# Mechanical properties :
#
#
# Convention : Reuss Voigt Hill
#
# Bulk Modulus (GPa) = 38.58177 48.74327 43.66252
# Shear Modulus (GPa) = 98.36371 34.78387 66.57379
#
# Velocity S-wave (km/s) = 6.03928 3.59134 4.96843
# Velocity P-wave (km/s) = 7.93325 5.93892 7.00740
#
# Compressibility (1/GPa) = 0.02591898
#
# Stress axis : x y z
#
# Youngs Moduli (GPa) = 142.16045 68.38341 208.35889
#
# Poissons Ratio (x) = -0.05662 0.01394
# Poissons Ratio (y) = -0.11770 0.21463
# Poissons Ratio (z) = 0.00951 0.07044
#
# Static dielectric constant tensor:
#      x y z
#    x 2.096920 0.000000 0.000000 
#    y 0.000000 2.043530 0.000000 
#    z 0.000000 0.000000 2.117420 
# 
# From -- ./inp_files/61657.got.cif
#   From: 2010.05.17/outbox.cif.g08.bks.cpg/sg63_31_cif.got.tgz:61657.got - 2010.06.03 15:47:04.
