data_PCOD9473280
_publ_section_title
;
Structure prediction by ZEFSAII (Michael W. Deem and Ramdas Pophale) SiO2 
 PCOD9473280
Probable space group: C M C M
;
_chemical_formula_sum "Si O2"
_cell_formula_units_Z 88
_cell_length_a 11.300023
_cell_length_b 13.987669
_cell_length_c 24.474173
_cell_angle_alpha 90.000000
_cell_angle_beta 90.000000
_cell_angle_gamma 90.000000
_cell_volume 3868.411804
_symmetry_space_group_name_H-M "C M C M"
_symmetry_group_IT_number 63
_symmetry_cell_setting 'orthorhombic'
loop_
_space_group_symop_operation_xyz
x,y,z
-x,-y,1/2+z
x,-y,-z
-x,y,1/2-z
-x,-y,-z
x,y,1/2-z
-x,y,z
x,-y,1/2+z
1/2+x,1/2+y,z
1/2-x,1/2-y,1/2+z
1/2+x,1/2-y,-z
1/2-x,1/2+y,1/2-z
1/2-x,1/2-y,-z
1/2+x,1/2+y,1/2-z
1/2-x,1/2+y,z
1/2+x,1/2-y,1/2+z
loop_
_atom_site_type_symbol
_atom_site_label
_atom_site_fract_x
_atom_site_fract_y
_atom_site_fract_z
Si Si1 0.869421 0.691599 0.250000
Si Si2 0.241525 0.852172 0.443256
Si Si3 0.861665 0.005507 0.635358
Si Si4 0.000000 0.120740 0.007996
Si Si5 0.000000 0.678992 0.940116
Si Si6 0.209673 0.201852 0.150987
Si Si7 0.134669 0.921225 0.250000
Si Si8 0.500000 0.170828 0.811424
O O1 0.806762 0.666638 0.193804
O O2 0.871375 0.807668 0.250000
O O3 0.000000 0.652421 0.250000
O O4 0.374908 0.852236 0.466269
O O5 0.240945 0.766103 0.398445
O O6 0.125759 0.850214 0.480792
O O7 0.219827 0.948498 0.409777
O O8 0.854400 0.893172 0.631548
O O9 0.000000 0.037103 0.629315
O O10 0.814236 0.041752 0.693689
O O11 0.000000 0.204370 0.056084
O O12 0.000000 0.000000 0.000000
O O13 0.000000 0.638511 0.876708
O O14 0.117684 0.264758 0.185873
O O15 0.000000 0.960831 0.250000
O O16 0.500000 0.123050 0.750000
#
# Coordination Sequence:
#
# PCOD9473280 Si02
#       8
#     8  16  16   8   8  16   8   8
#     4  11  21  35  55  92 146 194 232 288 369 413
#     4  11  25  44  75 103 141 180 233 297 363 417
#     4  11  21  39  68 103 130 187 249 292 343 425
#     4  12  28  50  83 106 131 187 254 299 345 428
#     4  10  26  50  68 108 150 182 224 303 368 420
#     4  11  22  37  65  98 146 182 231 299 351 415
#     4   9  19  32  57  94 140 175 241 297 340 414
#     4  10  20  36  66 100 129 179 228 272 341 417
#
# _framework density 22.748353999999999
#
# number of rings (size 3 to 8) (size 9 to 14) (size 15 to 20)
#    0.000    1.273    4.545    1.091    6.364    0.000 
#    1.636    0.455    0.000    0.000    0.000    0.000 
#    0.000    0.000    0.000    0.000    0.000    0.000 
#
# Total GULP energy -245148.733906 kJ/mol
# GULP energy per Si atom -5571.562134 kJ/mol
# Density = 2.269658 g / cm^3
# Si number density = 22.748354 Si / 1000 Ang^3
#
#
#
# Elastic Constant Matrix: (Units=GPa)
#
#
# Indices 1 2 3 4 5 6 
#
# 1 162.8385 22.0491 31.7442 0.0000 0.0000 0.0000
# 2 22.0491 46.3388 14.0539 0.0000 0.0000 0.0000
# 3 31.7442 14.0539 43.3354 0.0000 0.0000 0.0000
# 4 0.0000 0.0000 0.0000 -161.4910 0.0000 0.0000
# 5 0.0000 0.0000 0.0000 0.0000 259.2266 0.0000
# 6 0.0000 0.0000 0.0000 0.0000 0.0000 7.0268
#
#
#
# Elastic Compliance Matrix: (Units=1/GPa)
#
#
# Indices 1 2 3 4 5 6 
#
# 1 0.007338 -0.002064 -0.004706 0.000000 0.000000 0.000000
# 2 -0.002064 0.024515 -0.006438 0.000000 0.000000 0.000000
# 3 -0.004706 -0.006438 0.028611 0.000000 0.000000 0.000000
# 4 0.000000 0.000000 0.000000 -0.006192 0.000000 0.000000
# 5 0.000000 0.000000 0.000000 0.000000 0.003858 0.000000
# 6 0.000000 0.000000 0.000000 0.000000 0.000000 0.142313
#
#
# Mechanical properties :
#
#
# Convention : Reuss Voigt Hill
#
# Bulk Modulus (GPa) = 29.37091 43.13411 36.25251
# Shear Modulus (GPa) = 20.99012 33.26351 27.12681
#
# Velocity S-wave (km/s) = 3.04091 3.82807 3.45697
# Velocity P-wave (km/s) = 5.02680 6.20817 5.64846
#
# Compressibility (1/GPa) = 0.03404729
#
# Stress axis : x y z
#
# Youngs Moduli (GPa) = 136.27836 40.79128 34.95190
#
# Poissons Ratio (x) = 0.08421 0.16447
# Poissons Ratio (y) = 0.28133 0.22502
# Poissons Ratio (z) = 0.64129 0.26262
#
# Static dielectric constant tensor:
#      x y z
#    x 1.879450 0.000000 0.000000 
#    y 0.000000 1.832340 0.000000 
#    z 0.000000 0.000000 1.941260 
# 
# From -- ./inp_files/68252.got.cif
#   From: 2010.05.17/outbox.cif.g08.bks.cpg/sg63_35_cif.got.tgz:68252.got - 2010.06.03 15:47:04.
