data_PCOD9473920
_publ_section_title
;
Structure prediction by ZEFSAII (Michael W. Deem and Ramdas Pophale) SiO2 
 PCOD9473920
Probable space group: C M C M
;
_chemical_formula_sum "Si O2"
_cell_formula_units_Z 112
_cell_length_a 23.735269
_cell_length_b 10.994705
_cell_length_c 20.906112
_cell_angle_alpha 90.000000
_cell_angle_beta 90.000000
_cell_angle_gamma 90.000000
_cell_volume 5455.706669
_symmetry_space_group_name_H-M "C M C M"
_symmetry_group_IT_number 63
_symmetry_cell_setting 'orthorhombic'
loop_
_space_group_symop_operation_xyz
x,y,z
-x,-y,1/2+z
x,-y,-z
-x,y,1/2-z
-x,-y,-z
x,y,1/2-z
-x,y,z
x,-y,1/2+z
1/2+x,1/2+y,z
1/2-x,1/2-y,1/2+z
1/2+x,1/2-y,-z
1/2-x,1/2+y,1/2-z
1/2-x,1/2-y,-z
1/2+x,1/2+y,1/2-z
1/2-x,1/2+y,z
1/2+x,1/2-y,1/2+z
loop_
_atom_site_type_symbol
_atom_site_label
_atom_site_fract_x
_atom_site_fract_y
_atom_site_fract_z
Si Si1 0.847634 0.091415 0.361357
Si Si2 0.932891 0.698001 0.821960
Si Si3 0.126701 0.785067 0.515213
Si Si4 0.665422 0.324590 0.379780
Si Si5 0.718474 0.905953 0.676060
Si Si6 0.718881 0.086528 0.560359
Si Si7 0.063614 0.578543 0.556575
O O1 0.893271 0.184356 0.332771
O O2 0.857841 0.103652 0.438254
O O3 0.784138 0.127653 0.340613
O O4 0.851962 0.949026 0.344921
O O5 0.925509 0.656177 0.750000
O O6 0.915812 0.591617 0.871142
O O7 0.000000 0.724796 0.831460
O O8 0.125256 0.799592 0.439730
O O9 0.173607 0.685614 0.537763
O O10 0.069003 0.718761 0.535089
O O11 0.678851 0.210637 0.335305
O O12 0.723959 0.349779 0.417526
O O13 0.716228 0.946843 0.750000
O O14 0.703275 0.005252 0.622086
O O15 0.729713 0.000000 0.500000
O O16 0.091589 0.500000 0.500000
O O17 0.000000 0.533794 0.561477
#
# Coordination Sequence:
#
# PCOD9473920 Si02
#       7
#    16  16  16  16  16  16  16
#     4  10  21  36  54  82 112 147 183 234 275 326
#     4   9  18  35  59  84 111 147 191 233 277 334
#     4  11  19  35  58  80 105 143 187 229 271 331
#     4  11  21  34  54  78 110 147 185 223 271 327
#     4  11  23  36  51  78 113 147 182 225 281 334
#     4  11  20  34  55  76 103 143 185 228 262 321
#     4   9  19  34  55  83 112 140 177 232 292 332
#
# _framework density 20.528963000000001
#
# number of rings (size 3 to 8) (size 9 to 14) (size 15 to 20)
#    0.000    1.714    2.857    3.429    0.000    2.857 
#    0.000    1.429    0.000    3.429    0.000    0.000 
#    0.000    0.000    0.000    0.000    0.000    0.000 
#
# Total GULP energy -312142.893451 kJ/mol
# GULP energy per Si atom -5573.980240 kJ/mol
# Density = 2.048224 g / cm^3
# Si number density = 20.528963 Si / 1000 Ang^3
#
#
#
# Elastic Constant Matrix: (Units=GPa)
#
#
# Indices 1 2 3 4 5 6 
#
# 1 49.1175 -1.8038 12.4272 0.0000 0.0000 0.0000
# 2 -1.8038 46.8323 30.6821 0.0000 0.0000 0.0000
# 3 12.4272 30.6821 144.3408 0.0000 0.0000 0.0000
# 4 0.0000 0.0000 0.0000 26.5029 0.0000 0.0000
# 5 0.0000 0.0000 0.0000 0.0000 14.8256 0.0000
# 6 0.0000 0.0000 0.0000 0.0000 0.0000 18.8829
#
#
#
# Elastic Compliance Matrix: (Units=1/GPa)
#
#
# Indices 1 2 3 4 5 6 
#
# 1 0.021027 0.002319 -0.002303 0.000000 0.000000 0.000000
# 2 0.002319 0.025063 -0.005527 0.000000 0.000000 0.000000
# 3 -0.002303 -0.005527 0.008301 0.000000 0.000000 0.000000
# 4 0.000000 0.000000 0.000000 0.037732 0.000000 0.000000
# 5 0.000000 0.000000 0.000000 0.000000 0.067451 0.000000
# 6 0.000000 0.000000 0.000000 0.000000 0.000000 0.052958
#
#
# Mechanical properties :
#
#
# Convention : Reuss Voigt Hill
#
# Bulk Modulus (GPa) = 23.05826 35.87797 29.46812
# Shear Modulus (GPa) = 21.00737 25.30796 23.15766
#
# Velocity S-wave (km/s) = 3.20238 3.51492 3.36229
# Velocity P-wave (km/s) = 4.99301 5.82989 5.42760
#
# Compressibility (1/GPa) = 0.04336840
#
# Stress axis : x y z
#
# Youngs Moduli (GPa) = 47.55737 39.89904 120.46349
#
# Poissons Ratio (x) = -0.09252 0.27746
# Poissons Ratio (y) = -0.11028 0.66583
# Poissons Ratio (z) = 0.10954 0.22053
#
# Static dielectric constant tensor:
#      x y z
#    x 1.810860 0.000000 0.000000 
#    y 0.000000 1.750330 0.000000 
#    z 0.000000 0.000000 1.810880 
# 
# From -- ./inp_files/58307.got.cif
#   From: 2010.05.17/outbox.cif.g08.bks.cpg/sg63_30_cif.got.tgz:58307.got - 2010.06.03 15:47:04.
