data_PCOD9473912
_publ_section_title
;
Structure prediction by ZEFSAII (Michael W. Deem and Ramdas Pophale) SiO2 
 PCOD9473912
Probable space group: C M C M
;
_chemical_formula_sum "Si O2"
_cell_formula_units_Z 72
_cell_length_a 15.664493
_cell_length_b 29.216669
_cell_length_c 8.190520
_cell_angle_alpha 90.000000
_cell_angle_beta 90.000000
_cell_angle_gamma 90.000000
_cell_volume 3748.508660
_symmetry_space_group_name_H-M "C M C M"
_symmetry_group_IT_number 63
_symmetry_cell_setting 'orthorhombic'
loop_
_space_group_symop_operation_xyz
x,y,z
-x,-y,1/2+z
x,-y,-z
-x,y,1/2-z
-x,-y,-z
x,y,1/2-z
-x,y,z
x,-y,1/2+z
1/2+x,1/2+y,z
1/2-x,1/2-y,1/2+z
1/2+x,1/2-y,-z
1/2-x,1/2+y,1/2-z
1/2-x,1/2-y,-z
1/2+x,1/2+y,1/2-z
1/2-x,1/2+y,z
1/2+x,1/2-y,1/2+z
loop_
_atom_site_type_symbol
_atom_site_label
_atom_site_fract_x
_atom_site_fract_y
_atom_site_fract_z
Si Si1 0.312944 0.052415 0.447722
Si Si2 0.733223 0.641577 0.440332
Si Si3 0.597293 0.813182 0.440505
Si Si4 0.500000 0.947069 0.553376
Si Si5 0.096583 0.212548 0.560722
O O1 0.314190 0.053225 0.250000
O O2 0.243814 0.089563 0.502827
O O3 0.407411 0.069170 0.505957
O O4 0.299779 0.000000 0.500000
O O5 0.710270 0.640644 0.250000
O O6 0.827218 0.663353 0.460596
O O7 0.665585 0.673703 0.528398
O O8 0.603856 0.825791 0.250000
O O9 0.500000 0.823144 0.497484
O O10 0.610258 0.758432 0.456942
O O11 0.500000 0.943252 0.750000
O O12 0.500000 0.000000 0.500000
O O13 0.101509 0.226725 0.750000
O O14 0.000000 0.196017 0.528378
#
# Coordination Sequence:
#
# PCOD9473912 Si02
#       5
#    16  16  16   8  16
#     4   9  19  33  51  74 103 139 175 214 259 306
#     4  11  22  34  54  81 109 142 177 218 266 317
#     4  10  21  36  54  79 111 144 178 217 259 310
#     4   8  14  28  46  66  94 130 168 202 240 294
#     4  10  21  38  58  78 103 138 178 222 270 317
#
# _framework density 19.207637999999999
#
# number of rings (size 3 to 8) (size 9 to 14) (size 15 to 20)
#    0.000    2.222    0.000    2.667    1.556    4.444 
#    0.000    0.000    0.000    0.667    0.000    0.000 
#    0.000    0.000    0.000    0.000    0.000    0.000 
#
# Total GULP energy -200866.875282 kJ/mol
# GULP energy per Si atom -5579.635425 kJ/mol
# Density = 1.916392 g / cm^3
# Si number density = 19.207638 Si / 1000 Ang^3
#
#
#
# Elastic Constant Matrix: (Units=GPa)
#
#
# Indices 1 2 3 4 5 6 
#
# 1 47.1035 34.2221 -3.1086 0.0000 0.0000 0.0000
# 2 34.2221 68.1227 -6.8685 0.0000 0.0000 0.0000
# 3 -3.1086 -6.8685 25.9291 0.0000 0.0000 0.0000
# 4 0.0000 0.0000 0.0000 20.7113 0.0000 0.0000
# 5 0.0000 0.0000 0.0000 0.0000 10.3018 0.0000
# 6 0.0000 0.0000 0.0000 0.0000 0.0000 28.8608
#
#
#
# Elastic Compliance Matrix: (Units=1/GPa)
#
#
# Indices 1 2 3 4 5 6 
#
# 1 0.033437 -0.016843 -0.000453 0.000000 0.000000 0.000000
# 2 -0.016843 0.023566 0.004223 0.000000 0.000000 0.000000
# 3 -0.000453 0.004223 0.039631 0.000000 0.000000 0.000000
# 4 0.000000 0.000000 0.000000 0.048283 0.000000 0.000000
# 5 0.000000 0.000000 0.000000 0.000000 0.097070 0.000000
# 6 0.000000 0.000000 0.000000 0.000000 0.000000 0.034649
#
#
# Mechanical properties :
#
#
# Convention : Reuss Voigt Hill
#
# Bulk Modulus (GPa) = 14.18655 21.07169 17.62912
# Shear Modulus (GPa) = 15.32437 19.76882 17.54659
#
# Velocity S-wave (km/s) = 2.82765 3.21162 3.02573
# Velocity P-wave (km/s) = 4.25002 4.97463 4.62654
#
# Compressibility (1/GPa) = 0.07048932
#
# Stress axis : x y z
#
# Youngs Moduli (GPa) = 29.90714 42.43320 25.23271
#
# Poissons Ratio (x) = 0.71470 0.01143
# Poissons Ratio (y) = 0.50373 -0.10657
# Poissons Ratio (z) = 0.01355 -0.17921
#
# Static dielectric constant tensor:
#      x y z
#    x 1.669890 0.000000 0.000000 
#    y 0.000000 1.676090 0.000000 
#    z 0.000000 0.000000 1.652150 
# 
# From -- ./inp_files/4585.got.cif
#   From: 2010.05.17/outbox.cif.g08.bks.cpg/sg63_3_cif.got.tgz:4585.got - 2010.06.03 15:47:04.
