data_PCOD9473433
_publ_section_title
;
Structure prediction by ZEFSAII (Michael W. Deem and Ramdas Pophale) SiO2 
 PCOD9473433
Probable space group: C M C M
;
_chemical_formula_sum "Si O2"
_cell_formula_units_Z 96
_cell_length_a 27.910121
_cell_length_b 8.512831
_cell_length_c 18.744778
_cell_angle_alpha 90.000000
_cell_angle_beta 90.000000
_cell_angle_gamma 90.000000
_cell_volume 4453.649470
_symmetry_space_group_name_H-M "C M C M"
_symmetry_group_IT_number 63
_symmetry_cell_setting 'orthorhombic'
loop_
_space_group_symop_operation_xyz
x,y,z
-x,-y,1/2+z
x,-y,-z
-x,y,1/2-z
-x,-y,-z
x,y,1/2-z
-x,y,z
x,-y,1/2+z
1/2+x,1/2+y,z
1/2-x,1/2-y,1/2+z
1/2+x,1/2-y,-z
1/2-x,1/2+y,1/2-z
1/2-x,1/2-y,-z
1/2+x,1/2+y,1/2-z
1/2-x,1/2+y,z
1/2+x,1/2-y,1/2+z
loop_
_atom_site_type_symbol
_atom_site_label
_atom_site_fract_x
_atom_site_fract_y
_atom_site_fract_z
Si Si1 0.447454 0.845583 0.451864
Si Si2 0.414242 0.055747 0.334224
Si Si3 0.791747 0.027094 0.164213
Si Si4 0.810534 0.662071 0.336315
Si Si5 0.371355 0.404308 0.567052
Si Si6 0.945014 0.092117 0.666554
O O1 0.500000 0.771639 0.461392
O O2 0.403116 0.733887 0.465627
O O3 0.445442 0.000000 0.500000
O O4 0.440043 0.912939 0.372622
O O5 0.412674 0.028002 0.250000
O O6 0.360024 0.085425 0.361895
O O7 0.440945 0.221163 0.346410
O O8 0.796643 0.047084 0.250000
O O9 0.805004 0.846586 0.145755
O O10 0.737446 0.069161 0.144005
O O11 0.828597 0.135801 0.120999
O O12 0.813247 0.659014 0.250000
O O13 0.351659 0.500000 0.500000
O O14 0.409200 0.503267 0.614512
O O15 0.931276 0.067197 0.750000
O O16 0.000000 0.042707 0.656985
#
# Coordination Sequence:
#
# PCOD9473433 Si02
#       6
#    16  16  16  16  16  16
#     4  11  26  44  61  86 122 166 211 256 307 370
#     4  10  20  38  64  93 123 157 199 250 308 369
#     4  10  21  40  65  95 125 159 204 254 307 371
#     4   9  19  36  63  93 122 159 200 245 304 364
#     4  12  25  41  62  90 123 166 210 258 313 369
#     4  10  20  37  64  93 121 157 202 254 309 369
#
# _framework density 21.555354999999999
#
# number of rings (size 3 to 8) (size 9 to 14) (size 15 to 20)
#    0.000    1.667    1.667    2.500    2.333    5.000 
#    0.000    1.667    0.000    0.000    0.000    0.000 
#    0.000    0.000    0.000    0.000    0.000    0.000 
#
# Total GULP energy -268302.896646 kJ/mol
# GULP energy per Si atom -5589.643680 kJ/mol
# Density = 2.150629 g / cm^3
# Si number density = 21.555355 Si / 1000 Ang^3
#
#
#
# Elastic Constant Matrix: (Units=GPa)
#
#
# Indices 1 2 3 4 5 6 
#
# 1 96.5966 -0.5605 18.5280 0.0000 0.0000 0.0000
# 2 -0.5605 13.3733 0.3946 0.0000 0.0000 0.0000
# 3 18.5280 0.3946 46.4006 0.0000 0.0000 0.0000
# 4 0.0000 0.0000 0.0000 24.9116 0.0000 0.0000
# 5 0.0000 0.0000 0.0000 0.0000 8.1956 0.0000
# 6 0.0000 0.0000 0.0000 0.0000 0.0000 33.6664
#
#
#
# Elastic Compliance Matrix: (Units=1/GPa)
#
#
# Indices 1 2 3 4 5 6 
#
# 1 0.011216 0.000602 -0.004484 0.000000 0.000000 0.000000
# 2 0.000602 0.074827 -0.000877 0.000000 0.000000 0.000000
# 3 -0.004484 -0.000877 0.023349 0.000000 0.000000 0.000000
# 4 0.000000 0.000000 0.000000 0.040142 0.000000 0.000000
# 5 0.000000 0.000000 0.000000 0.000000 0.122017 0.000000
# 6 0.000000 0.000000 0.000000 0.000000 0.000000 0.029703
#
#
# Mechanical properties :
#
#
# Convention : Reuss Voigt Hill
#
# Bulk Modulus (GPa) = 10.01241 21.45495 15.73368
# Shear Modulus (GPa) = 14.53224 22.55528 18.54376
#
# Velocity S-wave (km/s) = 2.59932 3.23830 2.93624
# Velocity P-wave (km/s) = 3.69644 4.89461 4.33710
#
# Compressibility (1/GPa) = 0.09987602
#
# Stress axis : x y z
#
# Youngs Moduli (GPa) = 89.15965 13.36412 42.82790
#
# Poissons Ratio (x) = -0.00805 0.19203
# Poissons Ratio (y) = -0.05371 0.03756
# Poissons Ratio (z) = 0.39976 0.01172
#
# Static dielectric constant tensor:
#      x y z
#    x 1.780560 0.000000 0.000000 
#    y 0.000000 1.795430 0.000000 
#    z 0.000000 0.000000 1.782320 
# 
# From -- ./inp_files/58101.got.cif
#   From: 2010.05.17/outbox.cif.g08.bks.cpg/sg63_30_cif.got.tgz:58101.got - 2010.06.03 15:47:04.
