data_PCOD9473327
_publ_section_title
;
Structure prediction by ZEFSAII (Michael W. Deem and Ramdas Pophale) SiO2 
 PCOD9473327
Probable space group: C M C M
;
_chemical_formula_sum "Si O2"
_cell_formula_units_Z 80
_cell_length_a 18.892509
_cell_length_b 13.920639
_cell_length_c 17.575390
_cell_angle_alpha 90.000000
_cell_angle_beta 90.000000
_cell_angle_gamma 90.000000
_cell_volume 4622.253711
_symmetry_space_group_name_H-M "C M C M"
_symmetry_group_IT_number 63
_symmetry_cell_setting 'orthorhombic'
loop_
_space_group_symop_operation_xyz
x,y,z
-x,-y,1/2+z
x,-y,-z
-x,y,1/2-z
-x,-y,-z
x,y,1/2-z
-x,y,z
x,-y,1/2+z
1/2+x,1/2+y,z
1/2-x,1/2-y,1/2+z
1/2+x,1/2-y,-z
1/2-x,1/2+y,1/2-z
1/2-x,1/2-y,-z
1/2+x,1/2+y,1/2-z
1/2-x,1/2+y,z
1/2+x,1/2-y,1/2+z
loop_
_atom_site_type_symbol
_atom_site_label
_atom_site_fract_x
_atom_site_fract_y
_atom_site_fract_z
Si Si1 0.000000 0.886108 0.499449
Si Si2 0.780988 0.337708 0.665142
Si Si3 0.350972 0.305196 0.451957
Si Si4 0.230375 0.463378 0.417965
Si Si5 0.500000 0.709014 0.163689
Si Si6 0.650895 0.216859 0.621253
O O1 0.069282 0.843820 0.458132
O O2 0.000000 0.859060 0.589326
O O3 0.000000 0.000000 0.500000
O O4 0.810527 0.346091 0.750000
O O5 0.832642 0.277351 0.609323
O O6 0.760324 0.441719 0.632019
O O7 0.708873 0.276445 0.667159
O O8 0.299023 0.395468 0.433913
O O9 0.338694 0.258695 0.535291
O O10 0.205652 0.500000 0.500000
O O11 0.173368 0.393371 0.380593
O O12 0.500000 0.668322 0.250000
O O13 0.427605 0.767729 0.151769
#
# Coordination Sequence:
#
# PCOD9473327 Si02
#       6
#     8  16  16  16   8  16
#     4  10  22  38  63  87 112 156 200 220 285 356
#     4  11  22  35  56  86 116 147 191 240 288 333
#     4  10  20  37  59  84 115 152 189 239 279 350
#     4  11  18  34  61  83 111 148 193 235 280 337
#     4  10  22  38  56  82 117 145 184 243 283 324
#     4  10  20  37  59  81 110 152 190 231 288 346
#
# _framework density 17.307573999999999
#
# number of rings (size 3 to 8) (size 9 to 14) (size 15 to 20)
#    0.000    1.600    4.000    2.400    2.800    4.000 
#    0.000    3.000    0.000    0.000    0.000    0.000 
#    0.000    0.000    0.000    0.000    0.000    0.000 
#
# Total GULP energy -222985.610713 kJ/mol
# GULP energy per Si atom -5574.640268 kJ/mol
# Density = 1.726818 g / cm^3
# Si number density = 17.307574 Si / 1000 Ang^3
#
#
#
# Elastic Constant Matrix: (Units=GPa)
#
#
# Indices 1 2 3 4 5 6 
#
# 1 99.4149 36.5717 30.5907 0.0000 0.0000 0.0000
# 2 36.5717 119.2084 35.7097 0.0000 0.0000 0.0000
# 3 30.5907 35.7097 111.9666 0.0000 0.0000 0.0000
# 4 0.0000 0.0000 0.0000 7.1620 0.0000 0.0000
# 5 0.0000 0.0000 0.0000 0.0000 14.3181 0.0000
# 6 0.0000 0.0000 0.0000 0.0000 0.0000 8.3489
#
#
#
# Elastic Compliance Matrix: (Units=1/GPa)
#
#
# Indices 1 2 3 4 5 6 
#
# 1 0.011850 -0.002947 -0.002298 0.000000 0.000000 0.000000
# 2 -0.002947 0.010008 -0.002387 0.000000 0.000000 0.000000
# 3 -0.002298 -0.002387 0.010320 0.000000 0.000000 0.000000
# 4 0.000000 0.000000 0.000000 0.139626 0.000000 0.000000
# 5 0.000000 0.000000 0.000000 0.000000 0.069842 0.000000
# 6 0.000000 0.000000 0.000000 0.000000 0.000000 0.119777
#
#
# Mechanical properties :
#
#
# Convention : Reuss Voigt Hill
#
# Bulk Modulus (GPa) = 59.11866 59.59267 59.35566
# Shear Modulus (GPa) = 13.07793 21.14697 17.11245
#
# Velocity S-wave (km/s) = 2.75183 3.49927 3.14781
# Velocity P-wave (km/s) = 6.65797 7.12971 6.89788
#
# Compressibility (1/GPa) = 0.01691513
#
# Stress axis : x y z
#
# Youngs Moduli (GPa) = 84.38796 99.92265 96.89798
#
# Poissons Ratio (x) = 0.29449 0.22264
# Poissons Ratio (y) = 0.24871 0.23125
# Poissons Ratio (z) = 0.19389 0.23847
#
# Static dielectric constant tensor:
#      x y z
#    x 1.581680 0.000000 0.000000 
#    y 0.000000 1.570900 0.000000 
#    z 0.000000 0.000000 1.629570 
# 
# From -- ./inp_files/46815.got.cif
#   From: 2010.05.17/outbox.cif.g08.bks.cpg/sg63_24_cif.got.tgz:46815.got - 2010.06.03 15:47:04.
