data_PCOD9473001
_publ_section_title
;
Structure prediction by ZEFSAII (Michael W. Deem and Ramdas Pophale) SiO2 
 PCOD9473001
Probable space group: C M C M
;
_chemical_formula_sum "Si O2"
_cell_formula_units_Z 88
_cell_length_a 19.717181
_cell_length_b 25.007560
_cell_length_c 7.838877
_cell_angle_alpha 90.000000
_cell_angle_beta 90.000000
_cell_angle_gamma 90.000000
_cell_volume 3865.182394
_symmetry_space_group_name_H-M "C M C M"
_symmetry_group_IT_number 63
_symmetry_cell_setting 'orthorhombic'
loop_
_space_group_symop_operation_xyz
x,y,z
-x,-y,1/2+z
x,-y,-z
-x,y,1/2-z
-x,-y,-z
x,y,1/2-z
-x,y,z
x,-y,1/2+z
1/2+x,1/2+y,z
1/2-x,1/2-y,1/2+z
1/2+x,1/2-y,-z
1/2-x,1/2+y,1/2-z
1/2-x,1/2-y,-z
1/2+x,1/2+y,1/2-z
1/2-x,1/2+y,z
1/2+x,1/2-y,1/2+z
loop_
_atom_site_type_symbol
_atom_site_label
_atom_site_fract_x
_atom_site_fract_y
_atom_site_fract_z
Si Si1 0.500000 0.937256 0.954793
Si Si2 0.426568 0.775471 0.953404
Si Si3 0.578039 0.558407 0.544991
Si Si4 0.710119 0.166309 0.946452
Si Si5 0.358527 0.330999 0.040077
Si Si6 0.149470 0.562192 0.045334
O O1 0.500000 0.929909 0.750000
O O2 0.573918 0.919287 0.016135
O O3 0.500000 0.000000 0.000000
O O4 0.432703 0.773596 0.750000
O O5 0.500000 0.794761 0.020360
O O6 0.410023 0.715353 0.013561
O O7 0.358802 0.809265 0.982390
O O8 0.606416 0.500000 0.500000
O O9 0.575913 0.561659 0.750000
O O10 0.500000 0.560693 0.481875
O O11 0.618562 0.610229 0.483656
O O12 0.711166 0.181373 0.750000
O O13 0.782612 0.182728 0.021428
O O14 0.703291 0.102284 0.965970
O O15 0.357232 0.331309 0.250000
O O16 0.151393 0.567273 0.250000
O O17 0.158361 0.500000 0.000000
#
# Coordination Sequence:
#
# PCOD9473001 Si02
#       6
#     8  16  16  16  16  16
#     4   8  16  30  50  72  96 130 174 222 265 308
#     4  10  21  39  63  85 106 141 191 241 287 337
#     4   9  17  32  56  85 115 147 186 229 273 325
#     4  11  23  37  55  83 118 151 185 230 285 343
#     4   9  19  37  59  82 111 149 190 231 278 335
#     4  10  20  36  56  80 110 147 190 231 277 328
#
# _framework density 22.767358999999999
#
# number of rings (size 3 to 8) (size 9 to 14) (size 15 to 20)
#    0.000    2.364    0.000    2.182    1.273    4.000 
#    0.000    5.455    0.000    2.182    0.000    0.000 
#    0.000    0.000    0.000    0.000    0.000    0.000 
#
# Total GULP energy -245616.840781 kJ/mol
# GULP energy per Si atom -5582.200927 kJ/mol
# Density = 2.271554 g / cm^3
# Si number density = 22.767359 Si / 1000 Ang^3
#
#
#
# Elastic Constant Matrix: (Units=GPa)
#
#
# Indices 1 2 3 4 5 6 
#
# 1 113.7986 38.1372 12.5962 0.0000 0.0000 0.0000
# 2 38.1372 98.5599 -0.8521 0.0000 0.0000 0.0000
# 3 12.5962 -0.8521 26.4000 0.0000 0.0000 0.0000
# 4 0.0000 0.0000 0.0000 21.9762 0.0000 0.0000
# 5 0.0000 0.0000 0.0000 0.0000 11.6650 0.0000
# 6 0.0000 0.0000 0.0000 0.0000 0.0000 23.6382
#
#
#
# Elastic Compliance Matrix: (Units=1/GPa)
#
#
# Indices 1 2 3 4 5 6 
#
# 1 0.010786 -0.004219 -0.005283 0.000000 0.000000 0.000000
# 2 -0.004219 0.011799 0.002394 0.000000 0.000000 0.000000
# 3 -0.005283 0.002394 0.040477 0.000000 0.000000 0.000000
# 4 0.000000 0.000000 0.000000 0.045504 0.000000 0.000000
# 5 0.000000 0.000000 0.000000 0.000000 0.085726 0.000000
# 6 0.000000 0.000000 0.000000 0.000000 0.000000 0.042304
#
#
# Mechanical properties :
#
#
# Convention : Reuss Voigt Hill
#
# Bulk Modulus (GPa) = 20.47233 37.61344 29.04289
# Shear Modulus (GPa) = 18.71996 24.04771 21.38383
#
# Velocity S-wave (km/s) = 2.87056 3.25350 3.06801
# Velocity P-wave (km/s) = 4.47195 5.53808 5.03332
#
# Compressibility (1/GPa) = 0.04884641
#
# Stress axis : x y z
#
# Youngs Moduli (GPa) = 92.71106 84.74963 24.70566
#
# Poissons Ratio (x) = 0.35759 0.13051
# Poissons Ratio (y) = 0.39118 -0.05915
# Poissons Ratio (z) = 0.48976 -0.20289
#
# Static dielectric constant tensor:
#      x y z
#    x 1.886670 0.000000 0.000000 
#    y 0.000000 1.847710 0.000000 
#    z 0.000000 0.000000 1.840450 
# 
# From -- ./inp_files/8171.got.cif
#   From: 2010.05.17/outbox.cif.g08.bks.cpg/sg63_5_cif.got.tgz:8171.got - 2010.06.03 15:47:04.
