data_PCOD9473708
_publ_section_title
;
Structure prediction by ZEFSAII (Michael W. Deem and Ramdas Pophale) SiO2 
 PCOD9473708
Probable space group: C M C M
;
_chemical_formula_sum "Si O2"
_cell_formula_units_Z 80
_cell_length_a 21.134132
_cell_length_b 23.420918
_cell_length_c 9.828459
_cell_angle_alpha 90.000000
_cell_angle_beta 90.000000
_cell_angle_gamma 90.000000
_cell_volume 4864.898229
_symmetry_space_group_name_H-M "C M C M"
_symmetry_group_IT_number 63
_symmetry_cell_setting 'orthorhombic'
loop_
_space_group_symop_operation_xyz
x,y,z
-x,-y,1/2+z
x,-y,-z
-x,y,1/2-z
-x,-y,-z
x,y,1/2-z
-x,y,z
x,-y,1/2+z
1/2+x,1/2+y,z
1/2-x,1/2-y,1/2+z
1/2+x,1/2-y,-z
1/2-x,1/2+y,1/2-z
1/2-x,1/2-y,-z
1/2+x,1/2+y,1/2-z
1/2-x,1/2+y,z
1/2+x,1/2-y,1/2+z
loop_
_atom_site_type_symbol
_atom_site_label
_atom_site_fract_x
_atom_site_fract_y
_atom_site_fract_z
Si Si1 0.070093 0.091470 0.750000
Si Si2 0.869039 0.169264 0.964729
Si Si3 0.349462 0.522433 0.250000
Si Si4 0.804581 0.719400 0.409144
Si Si5 0.423912 0.638159 0.250000
Si Si6 0.727499 0.879190 0.090643
Si Si7 0.260479 0.500000 0.500000
O O1 0.082462 0.131933 0.621918
O O2 0.000000 0.067704 0.750000
O O3 0.118517 0.039433 0.750000
O O4 0.860809 0.234501 0.917085
O O5 0.800799 0.139222 0.937515
O O6 0.891580 0.166158 0.118619
O O7 0.401211 0.572126 0.250000
O O8 0.305230 0.525208 0.381950
O O9 0.786801 0.711954 0.250000
O O10 0.750000 0.750000 0.500000
O O11 0.812986 0.659637 0.487184
O O12 0.500000 0.642731 0.250000
O O13 0.714844 0.867249 0.250000
O O14 0.722525 0.946390 0.060199
#
# Coordination Sequence:
#
# PCOD9473708 Si02
#       7
#     8  16   8  16   8  16   8
#     4  12  21  36  54  67  95 139 181 226 261 294
#     4  11  20  36  49  69  99 126 169 221 261 306
#     4  12  21  36  48  68  98 140 178 226 255 290
#     4  10  21  32  53  76  93 124 165 211 265 319
#     4  12  25  34  48  73  97 135 185 222 259 290
#     4  11  21  34  52  76  98 132 171 206 260 313
#     4  12  20  32  53  70 106 136 169 210 258 298
#
# _framework density 16.444330999999998
#
# number of rings (size 3 to 8) (size 9 to 14) (size 15 to 20)
#    0.000    0.800    7.000    2.700    8.400    0.000 
#    0.000    3.000    0.000    0.000    0.000    0.000 
#    0.000    0.000    0.000    5.400    0.000    0.000 
#
# Total GULP energy -223140.881694 kJ/mol
# GULP energy per Si atom -5578.522042 kJ/mol
# Density = 1.640690 g / cm^3
# Si number density = 16.444331 Si / 1000 Ang^3
#
#
#
# Elastic Constant Matrix: (Units=GPa)
#
#
# Indices 1 2 3 4 5 6 
#
# 1 12.7501 13.9299 13.0050 0.0000 0.0000 0.0000
# 2 13.9299 93.6505 32.6121 0.0000 0.0000 0.0000
# 3 13.0050 32.6121 156.3453 0.0000 0.0000 0.0000
# 4 0.0000 0.0000 0.0000 34.2692 0.0000 0.0000
# 5 0.0000 0.0000 0.0000 0.0000 7.3308 0.0000
# 6 0.0000 0.0000 0.0000 0.0000 0.0000 8.0022
#
#
#
# Elastic Compliance Matrix: (Units=1/GPa)
#
#
# Indices 1 2 3 4 5 6 
#
# 1 0.097852 -0.012638 -0.005503 0.000000 0.000000 0.000000
# 2 -0.012638 0.013147 -0.001691 0.000000 0.000000 0.000000
# 3 -0.005503 -0.001691 0.007207 0.000000 0.000000 0.000000
# 4 0.000000 0.000000 0.000000 0.029181 0.000000 0.000000
# 5 0.000000 0.000000 0.000000 0.000000 0.136411 0.000000
# 6 0.000000 0.000000 0.000000 0.000000 0.000000 0.124966
#
#
# Mechanical properties :
#
#
# Convention : Reuss Voigt Hill
#
# Bulk Modulus (GPa) = 12.73237 42.42666 27.57952
# Shear Modulus (GPa) = 10.53502 23.46702 17.00102
#
# Velocity S-wave (km/s) = 2.53385 3.78174 3.21885
# Velocity P-wave (km/s) = 4.03981 6.70261 5.53376
#
# Compressibility (1/GPa) = 0.07853997
#
# Stress axis : x y z
#
# Youngs Moduli (GPa) = 10.21953 76.06447 138.76187
#
# Poissons Ratio (x) = 0.96133 0.76364
# Poissons Ratio (y) = 0.12916 0.23465
# Poissons Ratio (z) = 0.05624 0.12863
#
# Static dielectric constant tensor:
#      x y z
#    x 1.529700 0.000000 0.000000 
#    y 0.000000 1.597090 0.000000 
#    z 0.000000 0.000000 1.688320 
# 
# From -- ./inp_files/8499.got.cif
#   From: 2010.05.17/outbox.cif.g08.bks.cpg/sg63_5_cif.got.tgz:8499.got - 2010.06.03 15:47:04.
