data_PCOD9473384
_publ_section_title
;
Structure prediction by ZEFSAII (Michael W. Deem and Ramdas Pophale) SiO2 
 PCOD9473384
Probable space group: C M C M
;
_chemical_formula_sum "Si O2"
_cell_formula_units_Z 96
_cell_length_a 8.544791
_cell_length_b 20.277151
_cell_length_c 28.543591
_cell_angle_alpha 90.000000
_cell_angle_beta 90.000000
_cell_angle_gamma 90.000000
_cell_volume 4945.577247
_symmetry_space_group_name_H-M "C M C M"
_symmetry_group_IT_number 63
_symmetry_cell_setting 'orthorhombic'
loop_
_space_group_symop_operation_xyz
x,y,z
-x,-y,1/2+z
x,-y,-z
-x,y,1/2-z
-x,-y,-z
x,y,1/2-z
-x,y,z
x,-y,1/2+z
1/2+x,1/2+y,z
1/2-x,1/2-y,1/2+z
1/2+x,1/2-y,-z
1/2-x,1/2+y,1/2-z
1/2-x,1/2-y,-z
1/2+x,1/2+y,1/2-z
1/2-x,1/2+y,z
1/2+x,1/2-y,1/2+z
loop_
_atom_site_type_symbol
_atom_site_label
_atom_site_fract_x
_atom_site_fract_y
_atom_site_fract_z
Si Si1 0.812279 0.988325 0.402180
Si Si2 0.681371 0.885645 0.951667
Si Si3 0.818459 0.227394 0.106313
Si Si4 0.816751 0.847497 0.449674
Si Si5 0.690356 0.450911 0.198174
Si Si6 0.187846 0.203835 0.696558
O O1 0.783920 0.914780 0.421411
O O2 0.758763 0.990018 0.347943
O O3 0.000000 0.999329 0.403991
O O4 0.730999 0.042302 0.434320
O O5 0.500000 0.884400 0.964598
O O6 0.717116 0.834510 0.910163
O O7 0.779989 0.862167 0.996434
O O8 0.782235 0.287470 0.070830
O O9 0.771776 0.253568 0.157402
O O10 0.000000 0.209393 0.104413
O O11 0.000000 0.831396 0.443340
O O12 0.743669 0.472597 0.250000
O O13 0.500000 0.452960 0.198355
O O14 0.731486 0.373594 0.192216
O O15 0.222009 0.223975 0.750000
O O16 0.000000 0.207426 0.689524
#
# Coordination Sequence:
#
# PCOD9473384 Si02
#       6
#    16  16  16  16  16  16
#     4  10  20  37  61  88 118 153 192 235 289 351
#     4  12  26  41  57  81 118 158 198 244 296 347
#     4  12  24  39  60  87 120 155 197 242 290 346
#     4  11  22  40  64  88 115 151 196 242 293 351
#     4   8  14  29  57  89 116 146 186 229 278 340
#     4   9  17  34  61  90 118 151 192 237 288 344
#
# _framework density 19.411283000000001
#
# number of rings (size 3 to 8) (size 9 to 14) (size 15 to 20)
#    0.000    1.667    1.667    5.500    0.000    3.667 
#    0.000    0.833    0.000    3.500    0.000    0.000 
#    0.000    0.000    0.000    0.000    0.000    0.000 
#
# Total GULP energy -268217.147216 kJ/mol
# GULP energy per Si atom -5587.857234 kJ/mol
# Density = 1.936710 g / cm^3
# Si number density = 19.411283 Si / 1000 Ang^3
#
#
#
# Elastic Constant Matrix: (Units=GPa)
#
#
# Indices 1 2 3 4 5 6 
#
# 1 14.3023 9.7757 -0.8867 0.0000 0.0000 0.0000
# 2 9.7757 14.3301 -14.2212 0.0000 0.0000 0.0000
# 3 -0.8867 -14.2212 71.9126 0.0000 0.0000 0.0000
# 4 0.0000 0.0000 0.0000 -3.5765 0.0000 0.0000
# 5 0.0000 0.0000 0.0000 0.0000 25.2845 0.0000
# 6 0.0000 0.0000 0.0000 0.0000 0.0000 26.0239
#
#
#
# Elastic Compliance Matrix: (Units=1/GPa)
#
#
# Indices 1 2 3 4 5 6 
#
# 1 0.159002 -0.132533 -0.024249 0.000000 0.000000 0.000000
# 2 -0.132533 0.197292 0.037382 0.000000 0.000000 0.000000
# 3 -0.024249 0.037382 0.020999 0.000000 0.000000 0.000000
# 4 0.000000 0.000000 0.000000 -0.279606 0.000000 0.000000
# 5 0.000000 0.000000 0.000000 0.000000 0.039550 0.000000
# 6 0.000000 0.000000 0.000000 0.000000 0.000000 0.038426
#
#
# Mechanical properties :
#
#
# Convention : Reuss Voigt Hill
#
# Bulk Modulus (GPa) = 7.22053 9.98674 8.60364
# Shear Modulus (GPa) = 10.85474 16.60488 13.72981
#
# Velocity S-wave (km/s) = 2.36730 2.92794 2.66242
# Velocity P-wave (km/s) = 3.34664 4.07264 3.72736
#
# Compressibility (1/GPa) = 0.13849390
#
# Stress axis : x y z
#
# Youngs Moduli (GPa) = 6.28921 5.06863 47.62073
#
# Poissons Ratio (x) = 0.67176 1.15474
# Poissons Ratio (y) = 0.83353 -1.78014
# Poissons Ratio (z) = 0.15251 -0.18947
#
# Static dielectric constant tensor:
#      x y z
#    x 1.655400 0.000000 0.000000 
#    y 0.000000 1.645160 0.000000 
#    z 0.000000 0.000000 1.694400 
# 
# From -- ./inp_files/67004.got.cif
#   From: 2010.05.17/outbox.cif.g08.bks.cpg/sg63_34_cif.got.tgz:67004.got - 2010.06.03 15:47:04.
