data_PCOD9473506
_publ_section_title
;
Structure prediction by ZEFSAII (Michael W. Deem and Ramdas Pophale) SiO2 
 PCOD9473506
Probable space group: C M C M
;
_chemical_formula_sum "Si O2"
_cell_formula_units_Z 96
_cell_length_a 8.318516
_cell_length_b 22.271185
_cell_length_c 23.971172
_cell_angle_alpha 90.000000
_cell_angle_beta 90.000000
_cell_angle_gamma 90.000000
_cell_volume 4440.976242
_symmetry_space_group_name_H-M "C M C M"
_symmetry_group_IT_number 63
_symmetry_cell_setting 'orthorhombic'
loop_
_space_group_symop_operation_xyz
x,y,z
-x,-y,1/2+z
x,-y,-z
-x,y,1/2-z
-x,-y,-z
x,y,1/2-z
-x,y,z
x,-y,1/2+z
1/2+x,1/2+y,z
1/2-x,1/2-y,1/2+z
1/2+x,1/2-y,-z
1/2-x,1/2+y,1/2-z
1/2-x,1/2-y,-z
1/2+x,1/2+y,1/2-z
1/2-x,1/2+y,z
1/2+x,1/2-y,1/2+z
loop_
_atom_site_type_symbol
_atom_site_label
_atom_site_fract_x
_atom_site_fract_y
_atom_site_fract_z
Si Si1 0.305804 0.717667 0.918655
Si Si2 0.810915 0.909775 0.814253
Si Si3 0.808974 0.094178 0.523756
Si Si4 0.813430 0.473253 0.126592
Si Si5 0.310325 0.150111 0.419791
Si Si6 0.693381 0.353995 0.186116
O O1 0.500000 0.719746 0.924917
O O2 0.243083 0.783379 0.933585
O O3 0.270278 0.701460 0.854456
O O4 0.250109 0.659124 0.952448
O O5 0.754931 0.910108 0.750000
O O6 0.783879 0.974508 0.842863
O O7 0.721989 0.864022 0.855347
O O8 0.000000 0.896138 0.814725
O O9 0.733961 0.956464 0.436901
O O10 0.767653 0.099458 0.458920
O O11 0.000000 0.090170 0.531100
O O12 0.779021 0.412390 0.161125
O O13 0.000000 0.489788 0.128474
O O14 0.500000 0.149101 0.430356
O O15 0.736310 0.343902 0.250000
O O16 0.500000 0.364504 0.182448
#
# Coordination Sequence:
#
# PCOD9473506 Si02
#       6
#    16  16  16  16  16  16
#     4   8  17  33  55  84 117 153 190 231 280 335
#     4  11  25  44  62  81 111 154 197 232 276 339
#     4  10  20  38  62  87 117 152 189 228 280 342
#     4  11  22  37  59  87 115 143 185 241 294 337
#     4  11  22  37  59  88 119 150 189 236 283 329
#     4   9  17  32  55  82 113 151 192 232 281 343
#
# _framework density 21.616869000000001
#
# number of rings (size 3 to 8) (size 9 to 14) (size 15 to 20)
#    0.000    2.000    0.000    5.000    0.000    5.000 
#    0.000   12.500    0.000    0.000    0.000    0.000 
#    0.000    0.000    0.000    0.000    0.000    0.000 
#
# Total GULP energy -268175.343509 kJ/mol
# GULP energy per Si atom -5586.986323 kJ/mol
# Density = 2.156767 g / cm^3
# Si number density = 21.616869 Si / 1000 Ang^3
#
#
#
# Elastic Constant Matrix: (Units=GPa)
#
#
# Indices 1 2 3 4 5 6 
#
# 1 29.6708 -13.2441 -0.3693 0.0000 0.0000 0.0000
# 2 -13.2441 61.2450 10.1122 0.0000 0.0000 0.0000
# 3 -0.3693 10.1122 103.7986 0.0000 0.0000 0.0000
# 4 0.0000 0.0000 0.0000 23.3260 0.0000 0.0000
# 5 0.0000 0.0000 0.0000 0.0000 30.0135 0.0000
# 6 0.0000 0.0000 0.0000 0.0000 0.0000 18.3837
#
#
#
# Elastic Compliance Matrix: (Units=1/GPa)
#
#
# Indices 1 2 3 4 5 6 
#
# 1 0.037349 0.008186 -0.000665 0.000000 0.000000 0.000000
# 2 0.008186 0.018389 -0.001762 0.000000 0.000000 0.000000
# 3 -0.000665 -0.001762 0.009803 0.000000 0.000000 0.000000
# 4 0.000000 0.000000 0.000000 0.042871 0.000000 0.000000
# 5 0.000000 0.000000 0.000000 0.000000 0.033318 0.000000
# 6 0.000000 0.000000 0.000000 0.000000 0.000000 0.054396
#
#
# Mechanical properties :
#
#
# Convention : Reuss Voigt Hill
#
# Bulk Modulus (GPa) = 12.97684 20.85689 16.91686
# Shear Modulus (GPa) = 23.77616 27.55900 25.66758
#
# Velocity S-wave (km/s) = 3.32006 3.57443 3.44959
# Velocity P-wave (km/s) = 4.55117 5.16766 4.86918
#
# Compressibility (1/GPa) = 0.07706038
#
# Stress axis : x y z
#
# Youngs Moduli (GPa) = 26.77443 54.37990 102.00572
#
# Poissons Ratio (x) = -0.44518 0.06780
# Poissons Ratio (y) = -0.21919 0.17977
# Poissons Ratio (z) = 0.01780 0.09584
#
# Static dielectric constant tensor:
#      x y z
#    x 1.752660 0.000000 0.000000 
#    y 0.000000 1.799240 0.000000 
#    z 0.000000 0.000000 1.801360 
# 
# From -- ./inp_files/59965.got.cif
#   From: 2010.05.17/outbox.cif.g08.bks.cpg/sg63_30_cif.got.tgz:59965.got - 2010.06.03 15:47:04.
