data_PCOD9473835
_publ_section_title
;
Structure prediction by ZEFSAII (Michael W. Deem and Ramdas Pophale) SiO2 
 PCOD9473835
Probable space group: C M C M
;
_chemical_formula_sum "Si O2"
_cell_formula_units_Z 80
_cell_length_a 7.608331
_cell_length_b 15.208613
_cell_length_c 31.590092
_cell_angle_alpha 90.000000
_cell_angle_beta 90.000000
_cell_angle_gamma 90.000000
_cell_volume 3655.357835
_symmetry_space_group_name_H-M "C M C M"
_symmetry_group_IT_number 63
_symmetry_cell_setting 'orthorhombic'
loop_
_space_group_symop_operation_xyz
x,y,z
-x,-y,1/2+z
x,-y,-z
-x,y,1/2-z
-x,-y,-z
x,y,1/2-z
-x,y,z
x,-y,1/2+z
1/2+x,1/2+y,z
1/2-x,1/2-y,1/2+z
1/2+x,1/2-y,-z
1/2-x,1/2+y,1/2-z
1/2-x,1/2-y,-z
1/2+x,1/2+y,1/2-z
1/2-x,1/2+y,z
1/2+x,1/2-y,1/2+z
loop_
_atom_site_type_symbol
_atom_site_label
_atom_site_fract_x
_atom_site_fract_y
_atom_site_fract_z
Si Si1 0.212451 0.717133 0.637728
Si Si2 0.200556 0.482653 0.045451
Si Si3 0.783983 0.515211 0.637136
Si Si4 0.710083 0.130888 0.202211
Si Si5 0.805661 0.271299 0.452503
O O1 0.270055 0.616293 0.644402
O O2 0.257333 0.780437 0.676086
O O3 0.284191 0.752518 0.592222
O O4 0.000000 0.714230 0.634092
O O5 0.276613 0.513928 0.090080
O O6 0.189652 0.377365 0.049812
O O7 0.000000 0.519040 0.042723
O O8 0.286252 0.500000 0.000000
O O9 0.723451 0.449664 0.673501
O O10 0.000000 0.514244 0.635718
O O11 0.779972 0.133062 0.250000
O O12 0.500000 0.119667 0.204933
O O13 0.750000 0.250000 0.500000
O O14 0.000000 0.232782 0.450076
#
# Coordination Sequence:
#
# PCOD9473835 Si02
#       5
#    16  16  16  16  16
#     4   9  19  36  54  76 107 140 174 212 258 315
#     4   8  14  25  44  71  96 124 165 203 239 290
#     4   8  16  32  51  72 102 136 171 212 253 302
#     4  10  21  35  54  81 104 128 172 223 266 309
#     4   9  18  30  47  74 104 133 168 207 248 301
#
# _framework density 21.885681999999999
#
# number of rings (size 3 to 8) (size 9 to 14) (size 15 to 20)
#    0.000    3.200    0.000    2.400    2.800    2.000 
#    0.000    3.000    0.000    1.800    0.000    0.000 
#    0.000    0.000    0.000    0.000    0.000    0.000 
#
# Total GULP energy -222883.011099 kJ/mol
# GULP energy per Si atom -5572.075277 kJ/mol
# Density = 2.183587 g / cm^3
# Si number density = 21.885682 Si / 1000 Ang^3
#
#
#
# Elastic Constant Matrix: (Units=GPa)
#
#
# Indices 1 2 3 4 5 6 
#
# 1 42.0369 -1.1949 13.6794 0.0000 0.0000 0.0000
# 2 -1.1949 86.7052 94.8696 0.0000 0.0000 0.0000
# 3 13.6794 94.8696 277.5254 0.0000 0.0000 0.0000
# 4 0.0000 0.0000 0.0000 37.0687 0.0000 0.0000
# 5 0.0000 0.0000 0.0000 0.0000 12.9614 0.0000
# 6 0.0000 0.0000 0.0000 0.0000 0.0000 10.6740
#
#
#
# Elastic Compliance Matrix: (Units=1/GPa)
#
#
# Indices 1 2 3 4 5 6 
#
# 1 0.024553 0.002656 -0.002118 0.000000 0.000000 0.000000
# 2 0.002656 0.018712 -0.006527 0.000000 0.000000 0.000000
# 3 -0.002118 -0.006527 0.005939 0.000000 0.000000 0.000000
# 4 0.000000 0.000000 0.000000 0.026977 0.000000 0.000000
# 5 0.000000 0.000000 0.000000 0.000000 0.077152 0.000000
# 6 0.000000 0.000000 0.000000 0.000000 0.000000 0.093686
#
#
# Mechanical properties :
#
#
# Convention : Reuss Voigt Hill
#
# Bulk Modulus (GPa) = 26.86351 68.99730 47.93041
# Shear Modulus (GPa) = 18.42252 32.06838 25.24545
#
# Velocity S-wave (km/s) = 2.90446 3.83203 3.40003
# Velocity P-wave (km/s) = 4.85273 7.15360 6.11240
#
# Compressibility (1/GPa) = 0.03722521
#
# Stress axis : x y z
#
# Youngs Moduli (GPa) = 40.72755 53.44157 168.37761
#
# Poissons Ratio (x) = -0.14194 0.35666
# Poissons Ratio (y) = -0.10817 1.09908
# Poissons Ratio (z) = 0.08627 0.34884
#
# Static dielectric constant tensor:
#      x y z
#    x 1.762100 0.000000 0.000000 
#    y 0.000000 1.771360 0.000000 
#    z 0.000000 0.000000 1.851150 
# 
# From -- ./inp_files/61106.got.cif
#   From: 2010.05.17/outbox.cif.g08.bks.cpg/sg63_31_cif.got.tgz:61106.got - 2010.06.03 15:47:04.
