data_PCOD9473683
_publ_section_title
;
Structure prediction by ZEFSAII (Michael W. Deem and Ramdas Pophale) SiO2 
 PCOD9473683
Probable space group: C M C M
;
_chemical_formula_sum "Si O2"
_cell_formula_units_Z 104
_cell_length_a 17.727317
_cell_length_b 19.582546
_cell_length_c 15.513721
_cell_angle_alpha 90.000000
_cell_angle_beta 90.000000
_cell_angle_gamma 90.000000
_cell_volume 5385.526200
_symmetry_space_group_name_H-M "C M C M"
_symmetry_group_IT_number 63
_symmetry_cell_setting 'orthorhombic'
loop_
_space_group_symop_operation_xyz
x,y,z
-x,-y,1/2+z
x,-y,-z
-x,y,1/2-z
-x,-y,-z
x,y,1/2-z
-x,y,z
x,-y,1/2+z
1/2+x,1/2+y,z
1/2-x,1/2-y,1/2+z
1/2+x,1/2-y,-z
1/2-x,1/2+y,1/2-z
1/2-x,1/2-y,-z
1/2+x,1/2+y,1/2-z
1/2-x,1/2+y,z
1/2+x,1/2-y,1/2+z
loop_
_atom_site_type_symbol
_atom_site_label
_atom_site_fract_x
_atom_site_fract_y
_atom_site_fract_z
Si Si1 0.583826 0.013694 0.398391
Si Si2 0.234351 0.757631 0.899634
Si Si3 0.262737 0.655487 0.750000
Si Si4 0.416586 0.313321 0.852078
Si Si5 0.914186 0.060331 0.750000
Si Si6 0.231619 0.587758 0.150571
Si Si7 0.881555 0.964725 0.588824
Si Si8 0.912397 0.401004 0.250000
O O1 0.500000 0.042483 0.386724
O O2 0.648018 0.063973 0.367095
O O3 0.594246 0.000000 0.500000
O O4 0.588480 0.947546 0.336532
O O5 0.268780 0.701276 0.836509
O O6 0.144567 0.760544 0.885437
O O7 0.259788 0.832689 0.869515
O O8 0.250000 0.750000 0.000000
O O9 0.335934 0.605034 0.750000
O O10 0.173452 0.631258 0.750000
O O11 0.403494 0.324555 0.750000
O O12 0.500000 0.286563 0.864371
O O13 0.409407 0.387066 0.897433
O O14 0.000000 0.092386 0.750000
O O15 0.909123 0.011700 0.666659
O O16 0.251919 0.575582 0.250000
O O17 0.291006 0.544273 0.095288
O O18 0.903313 0.000000 0.500000
O O19 0.000000 0.368878 0.250000
#
# Coordination Sequence:
#
# PCOD9473683 Si02
#       8
#    16  16   8  16   8  16  16   8
#     4  10  21  37  59  93 126 152 193 248 304 367
#     4  11  25  43  61  86 118 160 211 251 293 353
#     4  12  26  44  60  86 126 166 204 252 304 358
#     4  10  20  41  68  90 116 152 202 262 305 346
#     4  12  26  41  59  91 131 166 197 242 304 372
#     4  11  20  40  66  84 114 161 208 250 298 353
#     4  11  22  38  63  94 123 155 196 246 308 368
#     4  10  22  39  65  95 125 156 193 250 318 368
#
# _framework density 19.311018000000001
#
# number of rings (size 3 to 8) (size 9 to 14) (size 15 to 20)
#    0.000    1.231    3.846    2.769    6.462    1.846 
#    0.000    1.538    0.000    0.000    0.000    0.000 
#    0.000    0.000    0.000    0.000    0.000    0.000 
#
# Total GULP energy -290116.303173 kJ/mol
# GULP energy per Si atom -5579.159676 kJ/mol
# Density = 1.926707 g / cm^3
# Si number density = 19.311018 Si / 1000 Ang^3
#
#
#
# Elastic Constant Matrix: (Units=GPa)
#
#
# Indices 1 2 3 4 5 6 
#
# 1 122.1014 36.4360 9.9756 0.0000 0.0000 0.0000
# 2 36.4360 33.3844 20.7797 0.0000 0.0000 0.0000
# 3 9.9756 20.7797 114.3632 0.0000 0.0000 0.0000
# 4 0.0000 0.0000 0.0000 23.5287 0.0000 0.0000
# 5 0.0000 0.0000 0.0000 0.0000 8.3680 0.0000
# 6 0.0000 0.0000 0.0000 0.0000 0.0000 6.2032
#
#
#
# Elastic Compliance Matrix: (Units=1/GPa)
#
#
# Indices 1 2 3 4 5 6 
#
# 1 0.012385 -0.014482 0.001551 0.000000 0.000000 0.000000
# 2 -0.014482 0.050709 -0.007951 0.000000 0.000000 0.000000
# 3 0.001551 -0.007951 0.010053 0.000000 0.000000 0.000000
# 4 0.000000 0.000000 0.000000 0.042501 0.000000 0.000000
# 5 0.000000 0.000000 0.000000 0.000000 0.119503 0.000000
# 6 0.000000 0.000000 0.000000 0.000000 0.000000 0.161206
#
#
# Mechanical properties :
#
#
# Convention : Reuss Voigt Hill
#
# Bulk Modulus (GPa) = 31.86374 44.91463 38.38918
# Shear Modulus (GPa) = 11.14622 21.13049 16.13836
#
# Velocity S-wave (km/s) = 2.40509 3.31149 2.89400
# Velocity P-wave (km/s) = 4.92430 6.15876 5.57580
#
# Compressibility (1/GPa) = 0.03138364
#
# Stress axis : x y z
#
# Youngs Moduli (GPa) = 80.74383 19.72038 99.46914
#
# Poissons Ratio (x) = 0.28560 -0.15429
# Poissons Ratio (y) = 1.16936 0.79083
# Poissons Ratio (z) = -0.12525 0.15679
#
# Static dielectric constant tensor:
#      x y z
#    x 1.766350 0.000000 0.000000 
#    y 0.000000 1.662410 0.000000 
#    z 0.000000 0.000000 1.598890 
# 
# From -- ./inp_files/34218.got.cif
#   From: 2010.05.17/outbox.cif.g08.bks.cpg/sg63_18_cif.got.tgz:34218.got - 2010.06.03 15:47:04.
