data_PCOD9473831
_publ_section_title
;
Structure prediction by ZEFSAII (Michael W. Deem and Ramdas Pophale) SiO2 
 PCOD9473831
Probable space group: C M C M
;
_chemical_formula_sum "Si O2"
_cell_formula_units_Z 112
_cell_length_a 29.448175
_cell_length_b 12.166459
_cell_length_c 14.604240
_cell_angle_alpha 90.000000
_cell_angle_beta 90.000000
_cell_angle_gamma 90.000000
_cell_volume 5232.407308
_symmetry_space_group_name_H-M "C M C M"
_symmetry_group_IT_number 63
_symmetry_cell_setting 'orthorhombic'
loop_
_space_group_symop_operation_xyz
x,y,z
-x,-y,1/2+z
x,-y,-z
-x,y,1/2-z
-x,-y,-z
x,y,1/2-z
-x,y,z
x,-y,1/2+z
1/2+x,1/2+y,z
1/2-x,1/2-y,1/2+z
1/2+x,1/2-y,-z
1/2-x,1/2+y,1/2-z
1/2-x,1/2-y,-z
1/2+x,1/2+y,1/2-z
1/2-x,1/2+y,z
1/2+x,1/2-y,1/2+z
loop_
_atom_site_type_symbol
_atom_site_label
_atom_site_fract_x
_atom_site_fract_y
_atom_site_fract_z
Si Si1 0.583796 0.037727 0.150069
Si Si2 0.550739 0.264672 0.400917
Si Si3 0.451692 0.827748 0.397130
Si Si4 0.810554 0.475451 0.856478
Si Si5 0.794948 0.684389 0.973525
Si Si6 0.447463 0.517420 0.359650
Si Si7 0.370203 0.310158 0.645899
O O1 0.564835 0.014412 0.250000
O O2 0.581794 0.168016 0.136994
O O3 0.635746 0.002703 0.144261
O O4 0.554893 0.956832 0.087910
O O5 0.500000 0.248292 0.362427
O O6 0.548932 0.236363 0.507478
O O7 0.562327 0.390539 0.383282
O O8 0.500000 0.804705 0.352881
O O9 0.407855 0.784917 0.346042
O O10 0.796712 0.454331 0.750000
O O11 0.788041 0.584714 0.900280
O O12 0.806909 0.377306 0.930777
O O13 0.832489 0.765666 0.926128
O O14 0.750000 0.750000 0.000000
O O15 0.449747 0.529787 0.250000
O O16 0.500000 0.542032 0.393429
O O17 0.403198 0.589317 0.386539
O O18 0.352133 0.331550 0.750000
#
# Coordination Sequence:
#
# PCOD9473831 Si02
#       7
#    16  16  16  16  16  16  16
#     4  11  21  35  59  90 125 172 224 275 341 412
#     4  10  21  35  53  84 133 187 237 286 333 398
#     4  11  22  34  55  92 134 177 225 274 330 406
#     4  10  23  45  72 102 138 174 216 282 361 429
#     4  11  24  44  73 103 133 175 228 286 358 428
#     4   9  19  37  61  92 135 188 240 288 343 409
#     4  11  22  40  67  98 136 182 232 289 348 409
#
# _framework density 21.405062000000001
#
# number of rings (size 3 to 8) (size 9 to 14) (size 15 to 20)
#    0.000    1.571    1.429    3.429    2.000    6.000 
#    0.000    7.857    0.000    0.000    0.000    1.000 
#    0.000    1.143    0.000    0.000    0.000    0.000 
#
# Total GULP energy -312117.816324 kJ/mol
# GULP energy per Si atom -5573.532434 kJ/mol
# Density = 2.135634 g / cm^3
# Si number density = 21.405062 Si / 1000 Ang^3
#
#
#
# Elastic Constant Matrix: (Units=GPa)
#
#
# Indices 1 2 3 4 5 6 
#
# 1 110.0617 61.2413 37.0048 0.0000 0.0000 0.0000
# 2 61.2413 140.4619 31.2586 0.0000 0.0000 0.0000
# 3 37.0048 31.2586 89.4092 0.0000 0.0000 0.0000
# 4 0.0000 0.0000 0.0000 28.3378 0.0000 0.0000
# 5 0.0000 0.0000 0.0000 0.0000 -8.1923 0.0000
# 6 0.0000 0.0000 0.0000 0.0000 0.0000 28.8390
#
#
#
# Elastic Compliance Matrix: (Units=1/GPa)
#
#
# Indices 1 2 3 4 5 6 
#
# 1 0.013032 -0.004860 -0.003695 0.000000 0.000000 0.000000
# 2 -0.004860 0.009532 -0.001321 0.000000 0.000000 0.000000
# 3 -0.003695 -0.001321 0.013176 0.000000 0.000000 0.000000
# 4 0.000000 0.000000 0.000000 0.035289 0.000000 0.000000
# 5 0.000000 0.000000 0.000000 0.000000 -0.122066 0.000000
# 6 0.000000 0.000000 0.000000 0.000000 0.000000 0.034675
#
#
# Mechanical properties :
#
#
# Convention : Reuss Voigt Hill
#
# Bulk Modulus (GPa) = 62.54466 66.54914 64.54690
# Shear Modulus (GPa) = 573.47036 23.82544 298.64790
#
# Velocity S-wave (km/s) = 16.38582 3.33990 11.82476
# Velocity P-wave (km/s) = 19.67934 6.78462 14.71916
#
# Compressibility (1/GPa) = 0.01598857
#
# Stress axis : x y z
#
# Youngs Moduli (GPa) = 76.73315 104.90691 75.89771
#
# Poissons Ratio (x) = 0.50983 0.28042
# Poissons Ratio (y) = 0.37291 0.10028
# Poissons Ratio (z) = 0.28351 0.13861
#
# Static dielectric constant tensor:
#      x y z
#    x 1.755100 0.000000 0.000000 
#    y 0.000000 1.843660 0.000000 
#    z 0.000000 0.000000 1.979310 
# 
# From -- ./inp_files/38524.got.cif
#   From: 2010.05.17/outbox.cif.g08.bks.cpg/sg63_20_cif.got.tgz:38524.got - 2010.06.03 15:47:04.
