data_PCOD9473211
_publ_section_title
;
Structure prediction by ZEFSAII (Michael W. Deem and Ramdas Pophale) SiO2 
 PCOD9473211
Probable space group: C M C M
;
_chemical_formula_sum "Si O2"
_cell_formula_units_Z 96
_cell_length_a 16.029511
_cell_length_b 14.565776
_cell_length_c 18.796476
_cell_angle_alpha 90.000000
_cell_angle_beta 90.000000
_cell_angle_gamma 90.000000
_cell_volume 4388.643821
_symmetry_space_group_name_H-M "C M C M"
_symmetry_group_IT_number 63
_symmetry_cell_setting 'orthorhombic'
loop_
_space_group_symop_operation_xyz
x,y,z
-x,-y,1/2+z
x,-y,-z
-x,y,1/2-z
-x,-y,-z
x,y,1/2-z
-x,y,z
x,-y,1/2+z
1/2+x,1/2+y,z
1/2-x,1/2-y,1/2+z
1/2+x,1/2-y,-z
1/2-x,1/2+y,1/2-z
1/2-x,1/2-y,-z
1/2+x,1/2+y,1/2-z
1/2-x,1/2+y,z
1/2+x,1/2-y,1/2+z
loop_
_atom_site_type_symbol
_atom_site_label
_atom_site_fract_x
_atom_site_fract_y
_atom_site_fract_z
Si Si1 0.500000 0.396536 0.666720
Si Si2 0.263803 0.500000 0.500000
Si Si3 0.167833 0.194383 0.525241
Si Si4 0.314874 0.427367 0.667322
Si Si5 0.500000 0.241604 0.548955
Si Si6 0.252695 0.277082 0.169536
Si Si7 0.171198 0.448651 0.387347
Si Si8 0.000000 0.471596 0.418025
O O1 0.500000 0.368286 0.750000
O O2 0.411911 0.447146 0.655563
O O3 0.500000 0.310066 0.615549
O O4 0.328727 0.411908 0.500019
O O5 0.187215 0.429321 0.469556
O O6 0.250000 0.250000 0.500000
O O7 0.083292 0.238497 0.495922
O O8 0.177432 0.202218 0.610869
O O9 0.294745 0.450816 0.750000
O O10 0.293270 0.320147 0.657839
O O11 0.252385 0.484516 0.617632
O O12 0.500000 0.138872 0.578997
O O13 0.284464 0.277936 0.250000
O O14 0.186699 0.359917 0.159295
O O15 0.084460 0.498277 0.377653
O O16 0.000000 0.500000 0.500000
#
# Coordination Sequence:
#
# PCOD9473211 Si02
#       8
#     8   8  16  16   8  16  16   8
#     4  10  20  38  65  97 127 157 210 274 333 392
#     4  10  20  36  60  88 120 166 204 266 334 382
#     4  11  23  40  64  93 131 169 218 279 331 396
#     4  10  21  38  63  90 122 166 209 263 327 387
#     4  12  24  41  65  99 123 172 223 269 336 395
#     4  10  22  40  63  90 124 171 219 266 330 393
#     4  11  21  39  61  89 128 165 212 265 318 390
#     4  12  26  38  59  96 129 171 221 264 322 386
#
# _framework density 21.874638999999998
#
# number of rings (size 3 to 8) (size 9 to 14) (size 15 to 20)
#    0.000    1.333    0.833    6.500    2.333    0.333 
#    0.000    6.250    0.000    2.000    0.000    0.000 
#    0.000    0.000    0.000    0.000    0.000    0.000 
#
# Total GULP energy -267423.519439 kJ/mol
# GULP energy per Si atom -5571.323322 kJ/mol
# Density = 2.182485 g / cm^3
# Si number density = 21.874639 Si / 1000 Ang^3
#
#
#
# Elastic Constant Matrix: (Units=GPa)
#
#
# Indices 1 2 3 4 5 6 
#
# 1 157.7402 34.6742 36.0236 0.0000 0.0000 0.0000
# 2 34.6742 94.1835 7.6038 0.0000 0.0000 0.0000
# 3 36.0236 7.6038 54.3727 0.0000 0.0000 0.0000
# 4 0.0000 0.0000 0.0000 -36.7204 0.0000 0.0000
# 5 0.0000 0.0000 0.0000 0.0000 27.3888 0.0000
# 6 0.0000 0.0000 0.0000 0.0000 0.0000 20.2536
#
#
#
# Elastic Compliance Matrix: (Units=1/GPa)
#
#
# Indices 1 2 3 4 5 6 
#
# 1 0.008036 -0.002558 -0.004966 0.000000 0.000000 0.000000
# 2 -0.002558 0.011553 0.000079 0.000000 0.000000 0.000000
# 3 -0.004966 0.000079 0.021671 0.000000 0.000000 0.000000
# 4 0.000000 0.000000 0.000000 -0.027233 0.000000 0.000000
# 5 0.000000 0.000000 0.000000 0.000000 0.036511 0.000000
# 6 0.000000 0.000000 0.000000 0.000000 0.000000 0.049374
#
#
# Mechanical properties :
#
#
# Convention : Reuss Voigt Hill
#
# Bulk Modulus (GPa) = 37.92261 51.43327 44.67794
# Shear Modulus (GPa) = 40.45571 17.38406 28.91988
#
# Velocity S-wave (km/s) = 4.30517 2.82212 3.63998
# Velocity P-wave (km/s) = 6.48742 5.84662 6.17534
#
# Compressibility (1/GPa) = 0.02636949
#
# Stress axis : x y z
#
# Youngs Moduli (GPa) = 124.44134 86.55935 46.14472
#
# Poissons Ratio (x) = 0.22138 0.22917
# Poissons Ratio (y) = 0.31826 -0.00364
# Poissons Ratio (z) = 0.61802 -0.00682
#
# Static dielectric constant tensor:
#      x y z
#    x 1.954520 0.000000 0.000000 
#    y 0.000000 1.896470 0.000000 
#    z 0.000000 0.000000 1.673810 
# 
# From -- ./inp_files/54285.got.cif
#   From: 2010.05.17/outbox.cif.g08.bks.cpg/sg63_28_cif.got.tgz:54285.got - 2010.06.03 15:47:04.
