data_PCOD9473961
_publ_section_title
;
Structure prediction by ZEFSAII (Michael W. Deem and Ramdas Pophale) SiO2 
 PCOD9473961
Probable space group: C M C M
;
_chemical_formula_sum "Si O2"
_cell_formula_units_Z 80
_cell_length_a 9.362149
_cell_length_b 30.627297
_cell_length_c 14.585009
_cell_angle_alpha 90.000000
_cell_angle_beta 90.000000
_cell_angle_gamma 90.000000
_cell_volume 4182.066363
_symmetry_space_group_name_H-M "C M C M"
_symmetry_group_IT_number 63
_symmetry_cell_setting 'orthorhombic'
loop_
_space_group_symop_operation_xyz
x,y,z
-x,-y,1/2+z
x,-y,-z
-x,y,1/2-z
-x,-y,-z
x,y,1/2-z
-x,y,z
x,-y,1/2+z
1/2+x,1/2+y,z
1/2-x,1/2-y,1/2+z
1/2+x,1/2-y,-z
1/2-x,1/2+y,1/2-z
1/2-x,1/2-y,-z
1/2+x,1/2+y,1/2-z
1/2-x,1/2+y,z
1/2+x,1/2-y,1/2+z
loop_
_atom_site_type_symbol
_atom_site_label
_atom_site_fract_x
_atom_site_fract_y
_atom_site_fract_z
Si Si1 0.671622 0.050882 0.988506
Si Si2 0.334865 0.386835 0.360190
Si Si3 0.335126 0.784488 0.861828
Si Si4 0.173485 0.381518 0.645207
Si Si5 0.162864 0.300323 0.138300
O O1 0.500000 0.054904 0.976683
O O2 0.752293 0.072754 0.904016
O O3 0.713864 0.079862 0.076940
O O4 0.705097 0.000000 0.000000
O O5 0.330013 0.389130 0.250000
O O6 0.500000 0.385846 0.388614
O O7 0.254590 0.342385 0.388291
O O8 0.335889 0.784788 0.750000
O O9 0.500000 0.777788 0.890014
O O10 0.284040 0.833008 0.887980
O O11 0.236302 0.744641 0.891579
O O12 0.222730 0.388247 0.750000
O O13 0.000000 0.380249 0.647827
O O14 0.160890 0.299585 0.250000
O O15 0.000000 0.304344 0.106520
#
# Coordination Sequence:
#
# PCOD9473961 Si02
#       5
#    16  16  16  16  16
#     4  10  21  36  56  82 108 135 173 224 274 316
#     4  10  21  37  56  77 105 143 182 217 258 312
#     4   8  13  24  45  71 100 136 173 205 244 304
#     4   8  15  30  52  77 106 140 175 211 257 316
#     4   9  16  27  47  76 107 135 167 212 261 307
#
# _framework density 19.129297999999999
#
# number of rings (size 3 to 8) (size 9 to 14) (size 15 to 20)
#    0.000    3.000    0.000    2.400    0.000    4.800 
#    0.000    4.000    0.000    1.800    0.000    0.000 
#    0.000    0.000    0.000    0.000    0.000    0.000 
#
# Total GULP energy -223221.909548 kJ/mol
# GULP energy per Si atom -5580.547739 kJ/mol
# Density = 1.908576 g / cm^3
# Si number density = 19.129298 Si / 1000 Ang^3
#
#
#
# Elastic Constant Matrix: (Units=GPa)
#
#
# Indices 1 2 3 4 5 6 
#
# 1 81.1463 85.4162 32.0352 0.0000 0.0000 0.0000
# 2 85.4162 188.0400 36.8492 0.0000 0.0000 0.0000
# 3 32.0352 36.8492 52.5417 0.0000 0.0000 0.0000
# 4 0.0000 0.0000 0.0000 38.3236 0.0000 0.0000
# 5 0.0000 0.0000 0.0000 0.0000 11.7283 0.0000
# 6 0.0000 0.0000 0.0000 0.0000 0.0000 59.0006
#
#
#
# Elastic Compliance Matrix: (Units=1/GPa)
#
#
# Indices 1 2 3 4 5 6 
#
# 1 0.026894 -0.010437 -0.009077 0.000000 0.000000 0.000000
# 2 -0.010437 0.010216 -0.000801 0.000000 0.000000 0.000000
# 3 -0.009077 -0.000801 0.025129 0.000000 0.000000 0.000000
# 4 0.000000 0.000000 0.000000 0.026094 0.000000 0.000000
# 5 0.000000 0.000000 0.000000 0.000000 0.085264 0.000000
# 6 0.000000 0.000000 0.000000 0.000000 0.000000 0.016949
#
#
# Mechanical properties :
#
#
# Convention : Reuss Voigt Hill
#
# Bulk Modulus (GPa) = 46.28113 70.03657 58.15885
# Shear Modulus (GPa) = 20.97502 32.97234 26.97368
#
# Velocity S-wave (km/s) = 3.31492 4.15620 3.75917
# Velocity P-wave (km/s) = 6.23682 7.72811 7.02216
#
# Compressibility (1/GPa) = 0.02160708
#
# Stress axis : x y z
#
# Youngs Moduli (GPa) = 37.18353 97.88397 39.79505
#
# Poissons Ratio (x) = 1.02166 0.36123
# Poissons Ratio (y) = 0.38810 0.03188
# Poissons Ratio (z) = 0.33752 0.07841
#
# Static dielectric constant tensor:
#      x y z
#    x 1.633700 0.000000 0.000000 
#    y 0.000000 1.638240 0.000000 
#    z 0.000000 0.000000 1.718190 
# 
# From -- ./inp_files/40718.got.cif
#   From: 2010.05.17/outbox.cif.g08.bks.cpg/sg63_21_cif.got.tgz:40718.got - 2010.06.03 15:47:04.
