data_PCOD9473169
_publ_section_title
;
Structure prediction by ZEFSAII (Michael W. Deem and Ramdas Pophale) SiO2 
 PCOD9473169
Probable space group: C M C M
;
_chemical_formula_sum "Si O2"
_cell_formula_units_Z 96
_cell_length_a 8.347290
_cell_length_b 31.195786
_cell_length_c 19.705124
_cell_angle_alpha 90.000000
_cell_angle_beta 90.000000
_cell_angle_gamma 90.000000
_cell_volume 5131.219660
_symmetry_space_group_name_H-M "C M C M"
_symmetry_group_IT_number 63
_symmetry_cell_setting 'orthorhombic'
loop_
_space_group_symop_operation_xyz
x,y,z
-x,-y,1/2+z
x,-y,-z
-x,y,1/2-z
-x,-y,-z
x,y,1/2-z
-x,y,z
x,-y,1/2+z
1/2+x,1/2+y,z
1/2-x,1/2-y,1/2+z
1/2+x,1/2-y,-z
1/2-x,1/2+y,1/2-z
1/2-x,1/2-y,-z
1/2+x,1/2+y,1/2-z
1/2-x,1/2+y,z
1/2+x,1/2-y,1/2+z
loop_
_atom_site_type_symbol
_atom_site_label
_atom_site_fract_x
_atom_site_fract_y
_atom_site_fract_z
Si Si1 0.806352 0.696930 0.172176
Si Si2 0.806523 0.530955 0.171715
Si Si3 0.307968 0.769169 0.428461
Si Si4 0.304149 0.886727 0.912305
Si Si5 0.806518 0.632874 0.934861
Si Si6 0.691463 0.436633 0.172267
O O1 0.750890 0.696435 0.250000
O O2 0.751804 0.738688 0.131476
O O3 0.753181 0.654546 0.131418
O O4 0.000000 0.696279 0.172576
O O5 0.755055 0.538217 0.250000
O O6 0.751173 0.569451 0.123579
O O7 0.748877 0.483925 0.150636
O O8 0.000000 0.530984 0.171175
O O9 0.500000 0.769227 0.428890
O O10 0.250000 0.750000 0.500000
O O11 0.252118 0.818345 0.421878
O O12 0.500000 0.886821 0.912088
O O13 0.252248 0.881524 0.990047
O O14 0.751446 0.599912 0.877885
O O15 0.000000 0.633179 0.935614
O O16 0.749270 0.429979 0.250000
O O17 0.500000 0.436316 0.172969
#
# Coordination Sequence:
#
# PCOD9473169 Si02
#       6
#    16  16  16  16  16  16
#     4  10  20  36  59  86 117 151 188 231 279 334
#     4   9  17  32  57  83 107 142 185 226 270 322
#     4  11  22  38  59  82 113 150 189 232 282 336
#     4   9  17  33  56  84 113 143 184 227 271 326
#     4  10  21  37  58  81 108 144 185 229 274 328
#     4  10  22  39  56  77 109 145 183 230 280 331
#
# _framework density 18.709002999999999
#
# number of rings (size 3 to 8) (size 9 to 14) (size 15 to 20)
#    0.000    2.167    1.667    1.500    0.000    6.000 
#    0.000    8.333    0.000    2.000    0.000    0.000 
#    0.000    0.000    0.000    0.000    0.000    0.000 
#
# Total GULP energy -267988.938500 kJ/mol
# GULP energy per Si atom -5583.102885 kJ/mol
# Density = 1.866642 g / cm^3
# Si number density = 18.709003 Si / 1000 Ang^3
#
#
#
# Elastic Constant Matrix: (Units=GPa)
#
#
# Indices 1 2 3 4 5 6 
#
# 1 8.4636 20.5027 17.6886 0.0000 0.0000 0.0000
# 2 20.5027 217.6181 125.3765 0.0000 0.0000 0.0000
# 3 17.6886 125.3765 150.3646 0.0000 0.0000 0.0000
# 4 0.0000 0.0000 0.0000 41.9416 0.0000 0.0000
# 5 0.0000 0.0000 0.0000 0.0000 23.7356 0.0000
# 6 0.0000 0.0000 0.0000 0.0000 0.0000 27.0040
#
#
#
# Elastic Compliance Matrix: (Units=1/GPa)
#
#
# Indices 1 2 3 4 5 6 
#
# 1 0.164203 -0.008355 -0.012350 0.000000 0.000000 0.000000
# 2 -0.008355 0.009269 -0.006745 0.000000 0.000000 0.000000
# 3 -0.012350 -0.006745 0.013728 0.000000 0.000000 0.000000
# 4 0.000000 0.000000 0.000000 0.023843 0.000000 0.000000
# 5 0.000000 0.000000 0.000000 0.000000 0.042131 0.000000
# 6 0.000000 0.000000 0.000000 0.000000 0.000000 0.037032
#
#
# Mechanical properties :
#
#
# Convention : Reuss Voigt Hill
#
# Bulk Modulus (GPa) = 7.55868 78.17578 42.86723
# Shear Modulus (GPa) = 12.84672 32.72815 22.78743
#
# Velocity S-wave (km/s) = 2.62326 4.18703 3.49376
# Velocity P-wave (km/s) = 3.63651 8.07780 6.26399
#
# Compressibility (1/GPa) = 0.13229828
#
# Stress axis : x y z
#
# Youngs Moduli (GPa) = 6.09004 107.89054 72.84484
#
# Poissons Ratio (x) = 0.90143 0.89962
# Poissons Ratio (y) = 0.05088 0.49137
# Poissons Ratio (z) = 0.07521 0.72777
#
# Static dielectric constant tensor:
#      x y z
#    x 1.655740 0.000000 0.000000 
#    y 0.000000 1.623090 0.000000 
#    z 0.000000 0.000000 1.630130 
# 
# From -- ./inp_files/51280.got.cif
#   From: 2010.05.17/outbox.cif.g08.bks.cpg/sg63_26_cif.got.tgz:51280.got - 2010.06.03 15:47:04.
