data_PCOD9473267
_publ_section_title
;
Structure prediction by ZEFSAII (Michael W. Deem and Ramdas Pophale) SiO2 
 PCOD9473267
Probable space group: C M C M
;
_chemical_formula_sum "Si O2"
_cell_formula_units_Z 80
_cell_length_a 22.112301
_cell_length_b 9.693813
_cell_length_c 14.488094
_cell_angle_alpha 90.000000
_cell_angle_beta 90.000000
_cell_angle_gamma 90.000000
_cell_volume 3105.559327
_symmetry_space_group_name_H-M "C M C M"
_symmetry_group_IT_number 63
_symmetry_cell_setting 'orthorhombic'
loop_
_space_group_symop_operation_xyz
x,y,z
-x,-y,1/2+z
x,-y,-z
-x,y,1/2-z
-x,-y,-z
x,y,1/2-z
-x,y,z
x,-y,1/2+z
1/2+x,1/2+y,z
1/2-x,1/2-y,1/2+z
1/2+x,1/2-y,-z
1/2-x,1/2+y,1/2-z
1/2-x,1/2-y,-z
1/2+x,1/2+y,1/2-z
1/2-x,1/2+y,z
1/2+x,1/2-y,1/2+z
loop_
_atom_site_type_symbol
_atom_site_label
_atom_site_fract_x
_atom_site_fract_y
_atom_site_fract_z
Si Si1 0.114697 0.259853 0.147893
Si Si2 0.930887 0.674928 0.061262
Si Si3 0.566893 0.481122 0.109952
Si Si4 0.753337 0.857873 0.348998
Si Si5 0.803744 0.599048 0.413626
O O1 0.090362 0.304343 0.250000
O O2 0.183664 0.309267 0.143743
O O3 0.112320 0.092945 0.147824
O O4 0.082648 0.300949 0.049484
O O5 0.925902 0.818344 0.117955
O O6 0.875634 0.586065 0.101479
O O7 0.000000 0.625923 0.070397
O O8 0.500000 0.520563 0.143568
O O9 0.567246 0.500000 0.000000
O O10 0.779749 0.817634 0.250000
O O11 0.790629 0.762226 0.419587
O O12 0.744705 0.022660 0.349693
O O13 0.791550 0.500000 0.500000
#
# Coordination Sequence:
#
# PCOD9473267 Si02
#       5
#    16  16  16  16  16
#     4  10  20  36  62  99 139 180 229 285 350 413
#     4  10  22  41  66  98 140 186 232 285 342 414
#     4   8  16  32  56  87 127 178 226 270 325 398
#     4  11  26  46  69 100 139 181 229 288 357 413
#     4  12  25  45  72 105 136 180 236 287 344 420
#
# _framework density 25.760255000000001
#
# number of rings (size 3 to 8) (size 9 to 14) (size 15 to 20)
#    0.000    1.800    2.000    3.000    2.800    2.800 
#    0.000    1.000    0.000    4.800    0.000    0.000 
#    0.000    0.000    0.000    0.000    0.000    0.000 
#
# Total GULP energy -222986.986530 kJ/mol
# GULP energy per Si atom -5574.674663 kJ/mol
# Density = 2.570162 g / cm^3
# Si number density = 25.760255 Si / 1000 Ang^3
#
#
#
# Elastic Constant Matrix: (Units=GPa)
#
#
# Indices 1 2 3 4 5 6 
#
# 1 128.8761 30.5634 11.2585 0.0000 0.0000 0.0000
# 2 30.5634 105.4107 -14.0261 0.0000 0.0000 0.0000
# 3 11.2585 -14.0261 64.8900 0.0000 0.0000 0.0000
# 4 0.0000 0.0000 0.0000 19.1541 0.0000 0.0000
# 5 0.0000 0.0000 0.0000 0.0000 41.3613 0.0000
# 6 0.0000 0.0000 0.0000 0.0000 0.0000 44.0481
#
#
#
# Elastic Compliance Matrix: (Units=1/GPa)
#
#
# Indices 1 2 3 4 5 6 
#
# 1 0.008599 -0.002772 -0.002091 0.000000 0.000000 0.000000
# 2 -0.002772 0.010661 0.002785 0.000000 0.000000 0.000000
# 3 -0.002091 0.002785 0.016376 0.000000 0.000000 0.000000
# 4 0.000000 0.000000 0.000000 0.052208 0.000000 0.000000
# 5 0.000000 0.000000 0.000000 0.000000 0.024177 0.000000
# 6 0.000000 0.000000 0.000000 0.000000 0.000000 0.022702
#
#
# Mechanical properties :
#
#
# Convention : Reuss Voigt Hill
#
# Bulk Modulus (GPa) = 31.76523 39.41873 35.59198
# Shear Modulus (GPa) = 33.47347 39.00478 36.23912
#
# Velocity S-wave (km/s) = 3.60866 3.89542 3.75478
# Velocity P-wave (km/s) = 5.45171 5.96388 5.71353
#
# Compressibility (1/GPa) = 0.03148097
#
# Stress axis : x y z
#
# Youngs Moduli (GPa) = 116.28775 93.80047 61.06669
#
# Poissons Ratio (x) = 0.25998 0.12770
# Poissons Ratio (y) = 0.32230 -0.17009
# Poissons Ratio (z) = 0.24317 -0.26126
#
# Static dielectric constant tensor:
#      x y z
#    x 1.956180 0.000000 0.000000 
#    y 0.000000 2.115530 0.000000 
#    z 0.000000 0.000000 2.399710 
# 
# From -- ./inp_files/36430.got.cif
#   From: 2010.05.17/outbox.cif.g08.bks.cpg/sg63_19_cif.got.tgz:36430.got - 2010.06.03 15:47:04.
