data_PCOD9473508
_publ_section_title
;
Structure prediction by ZEFSAII (Michael W. Deem and Ramdas Pophale) SiO2 
 PCOD9473508
Probable space group: C M C M
;
_chemical_formula_sum "Si O2"
_cell_formula_units_Z 96
_cell_length_a 16.351934
_cell_length_b 16.926588
_cell_length_c 19.530734
_cell_angle_alpha 90.000000
_cell_angle_beta 90.000000
_cell_angle_gamma 90.000000
_cell_volume 5405.764403
_symmetry_space_group_name_H-M "C M C M"
_symmetry_group_IT_number 63
_symmetry_cell_setting 'orthorhombic'
loop_
_space_group_symop_operation_xyz
x,y,z
-x,-y,1/2+z
x,-y,-z
-x,y,1/2-z
-x,-y,-z
x,y,1/2-z
-x,y,z
x,-y,1/2+z
1/2+x,1/2+y,z
1/2-x,1/2-y,1/2+z
1/2+x,1/2-y,-z
1/2-x,1/2+y,1/2-z
1/2-x,1/2-y,-z
1/2+x,1/2+y,1/2-z
1/2-x,1/2+y,z
1/2+x,1/2-y,1/2+z
loop_
_atom_site_type_symbol
_atom_site_label
_atom_site_fract_x
_atom_site_fract_y
_atom_site_fract_z
Si Si1 0.500000 0.621501 0.050764
Si Si2 0.902556 0.560012 0.330551
Si Si3 0.670616 0.798371 0.584232
Si Si4 0.852112 0.143009 0.669189
Si Si5 0.500000 0.553361 0.603220
Si Si6 0.140898 0.752825 0.567726
Si Si7 0.161052 0.614984 0.830715
O O1 0.500000 0.540210 0.092464
O O2 0.422291 0.675770 0.066832
O O3 0.500000 0.595388 0.971198
O O4 0.882284 0.574146 0.250000
O O5 0.856761 0.621809 0.379000
O O6 0.876831 0.470178 0.346715
O O7 0.000000 0.569019 0.338291
O O8 0.637347 0.724788 0.628512
O O9 0.768502 0.787531 0.580782
O O10 0.639806 0.788615 0.506691
O O11 0.861540 0.156271 0.750000
O O12 0.759096 0.114106 0.656567
O O13 0.919441 0.082229 0.642652
O O14 0.125113 0.685859 0.624301
O O15 0.148459 0.630269 0.750000
#
# Coordination Sequence:
#
# PCOD9473508 Si02
#       7
#     8  16  16  16   8  16  16
#     4  11  24  40  60  86 120 158 196 248 294 345
#     4  10  22  38  61  91 120 151 189 240 299 352
#     4  10  21  38  60  88 118 153 196 239 296 357
#     4  10  20  38  62  87 117 153 194 246 298 348
#     4  11  23  38  60  89 120 154 198 241 299 354
#     4  10  22  40  60  86 116 156 201 241 291 353
#     4   9  21  41  61  83 117 159 197 243 297 346
#
# _framework density 17.758821000000001
#
# number of rings (size 3 to 8) (size 9 to 14) (size 15 to 20)
#    0.000    2.000    1.667    0.750    5.833    1.333 
#    0.000    2.500    0.000    0.000    0.000    0.000 
#    0.000    0.000    0.000    0.000    0.000    0.000 
#
# Total GULP energy -268033.159081 kJ/mol
# GULP energy per Si atom -5584.024148 kJ/mol
# Density = 1.771840 g / cm^3
# Si number density = 17.758821 Si / 1000 Ang^3
#
#
#
# Elastic Constant Matrix: (Units=GPa)
#
#
# Indices 1 2 3 4 5 6 
#
# 1 53.0337 62.6833 47.7643 0.0000 0.0000 0.0000
# 2 62.6833 151.1864 81.3659 0.0000 0.0000 0.0000
# 3 47.7643 81.3659 91.1728 0.0000 0.0000 0.0000
# 4 0.0000 0.0000 0.0000 39.0314 0.0000 0.0000
# 5 0.0000 0.0000 0.0000 0.0000 10.9041 0.0000
# 6 0.0000 0.0000 0.0000 0.0000 0.0000 23.4543
#
#
#
# Elastic Compliance Matrix: (Units=1/GPa)
#
#
# Indices 1 2 3 4 5 6 
#
# 1 0.043686 -0.011151 -0.012934 0.000000 0.000000 0.000000
# 2 -0.011151 0.015574 -0.008056 0.000000 0.000000 0.000000
# 3 -0.012934 -0.008056 0.024934 0.000000 0.000000 0.000000
# 4 0.000000 0.000000 0.000000 0.025620 0.000000 0.000000
# 5 0.000000 0.000000 0.000000 0.000000 0.091708 0.000000
# 6 0.000000 0.000000 0.000000 0.000000 0.000000 0.042636
#
#
# Mechanical properties :
#
#
# Convention : Reuss Voigt Hill
#
# Bulk Modulus (GPa) = 50.22859 75.44668 62.83763
# Shear Modulus (GPa) = 15.86902 21.58325 18.72614
#
# Velocity S-wave (km/s) = 2.99253 3.48997 3.25078
# Velocity P-wave (km/s) = 6.34708 7.66917 7.03924
#
# Compressibility (1/GPa) = 0.01990898
#
# Stress axis : x y z
#
# Youngs Moduli (GPa) = 22.89083 64.21105 40.10548
#
# Poissons Ratio (x) = 0.71604 0.51874
# Poissons Ratio (y) = 0.25526 0.32311
# Poissons Ratio (z) = 0.29608 0.51731
#
# Static dielectric constant tensor:
#      x y z
#    x 1.603990 0.000000 0.000000 
#    y 0.000000 1.561550 0.000000 
#    z 0.000000 0.000000 1.595020 
# 
# From -- ./inp_files/54256.got.cif
#   From: 2010.05.17/outbox.cif.g08.bks.cpg/sg63_28_cif.got.tgz:54256.got - 2010.06.03 15:47:04.
