data_PCOD9473686
_publ_section_title
;
Structure prediction by ZEFSAII (Michael W. Deem and Ramdas Pophale) SiO2 
 PCOD9473686
Probable space group: C M C M
;
_chemical_formula_sum "Si O2"
_cell_formula_units_Z 84
_cell_length_a 20.981472
_cell_length_b 12.082820
_cell_length_c 16.048890
_cell_angle_alpha 90.000000
_cell_angle_beta 90.000000
_cell_angle_gamma 90.000000
_cell_volume 4068.639958
_symmetry_space_group_name_H-M "C M C M"
_symmetry_group_IT_number 63
_symmetry_cell_setting 'orthorhombic'
loop_
_space_group_symop_operation_xyz
x,y,z
-x,-y,1/2+z
x,-y,-z
-x,y,1/2-z
-x,-y,-z
x,y,1/2-z
-x,y,z
x,-y,1/2+z
1/2+x,1/2+y,z
1/2-x,1/2-y,1/2+z
1/2+x,1/2-y,-z
1/2-x,1/2+y,1/2-z
1/2-x,1/2-y,-z
1/2+x,1/2+y,1/2-z
1/2-x,1/2+y,z
1/2+x,1/2-y,1/2+z
loop_
_atom_site_type_symbol
_atom_site_label
_atom_site_fract_x
_atom_site_fract_y
_atom_site_fract_z
Si Si1 0.570233 0.093263 0.155226
Si Si2 0.677344 0.060546 0.909696
Si Si3 0.500000 0.262928 0.750000
Si Si4 0.571049 0.328180 0.074034
Si Si5 0.388897 0.293525 0.611219
Si Si6 0.680812 0.510784 0.898754
O O1 0.570702 0.133522 0.250000
O O2 0.500000 0.042545 0.139113
O O3 0.577748 0.199582 0.097430
O O4 0.625063 0.005508 0.142656
O O5 0.654108 0.186892 0.911325
O O6 0.748485 0.047654 0.874059
O O7 0.676085 0.000000 0.000000
O O8 0.443345 0.266014 0.677399
O O9 0.500000 0.365114 0.098764
O O10 0.626182 0.398907 0.117058
O O11 0.578920 0.335477 0.974705
O O12 0.342571 0.394211 0.637548
O O13 0.683806 0.500000 0.000000
#
# Coordination Sequence:
#
# PCOD9473686 Si02
#       6
#    16  16   4  16  16  16
#     4  10  23  40  62  94 128 169 220 274 322 379
#     4  11  23  40  68  93 130 174 217 268 322 400
#     4  12  28  44  64 100 136 168 206 292 330 400
#     4  10  20  41  70  94 127 174 221 269 323 390
#     4  11  24  42  64  97 133 170 219 269 334 390
#     4   9  23  40  67  96 127 172 218 268 325 390
#
# _framework density 20.645721000000002
#
# number of rings (size 3 to 8) (size 9 to 14) (size 15 to 20)
#    0.000    1.714    2.857    0.000    6.667    3.810 
#    3.429    0.000    0.000    0.000    0.000    0.000 
#    0.000    0.000    0.000    0.000    0.000    0.000 
#
# Total GULP energy -234014.303397 kJ/mol
# GULP energy per Si atom -5571.769128 kJ/mol
# Density = 2.059873 g / cm^3
# Si number density = 20.645721 Si / 1000 Ang^3
#
#
#
# Elastic Constant Matrix: (Units=GPa)
#
#
# Indices 1 2 3 4 5 6 
#
# 1 205.2085 80.0791 15.2858 0.0000 0.0000 0.0000
# 2 80.0791 77.9678 3.2609 0.0000 0.0000 0.0000
# 3 15.2858 3.2609 42.3001 0.0000 0.0000 0.0000
# 4 0.0000 0.0000 0.0000 -0.8416 0.0000 0.0000
# 5 0.0000 0.0000 0.0000 0.0000 -42.4218 0.0000
# 6 0.0000 0.0000 0.0000 0.0000 0.0000 25.3611
#
#
#
# Elastic Compliance Matrix: (Units=1/GPa)
#
#
# Indices 1 2 3 4 5 6 
#
# 1 0.008362 -0.008490 -0.002367 0.000000 0.000000 0.000000
# 2 -0.008490 0.021487 0.001412 0.000000 0.000000 0.000000
# 3 -0.002367 0.001412 0.024387 0.000000 0.000000 0.000000
# 4 0.000000 0.000000 0.000000 -1.188240 0.000000 0.000000
# 5 0.000000 0.000000 0.000000 0.000000 -0.023573 0.000000
# 6 0.000000 0.000000 0.000000 0.000000 0.000000 0.039430
#
#
# Mechanical properties :
#
#
# Convention : Reuss Voigt Hill
#
# Bulk Modulus (GPa) = 28.29269 58.08088 43.18679
# Shear Modulus (GPa) = -4.59782 11.54292 3.47255
#
# Velocity S-wave (km/s) = -1.49393 2.36708 1.29832
# Velocity P-wave (km/s) = 3.27992 5.97194 4.81777
#
# Compressibility (1/GPa) = 0.03534482
#
# Stress axis : x y z
#
# Youngs Moduli (GPa) = 119.58171 46.54071 41.00495
#
# Poissons Ratio (x) = 0.39513 0.09708
# Poissons Ratio (y) = 1.01524 -0.05788
# Poissons Ratio (z) = 0.28310 -0.06570
#
# Static dielectric constant tensor:
#      x y z
#    x 1.742990 0.000000 0.000000 
#    y 0.000000 1.731250 0.000000 
#    z 0.000000 0.000000 1.721190 
# 
# From -- ./inp_files/46844.got.cif
#   From: 2010.05.17/outbox.cif.g08.bks.cpg/sg63_24_cif.got.tgz:46844.got - 2010.06.03 15:47:04.
