data_PCOD9473542
_publ_section_title
;
Structure prediction by ZEFSAII (Michael W. Deem and Ramdas Pophale) SiO2 
 PCOD9473542
Probable space group: C M C M
;
_chemical_formula_sum "Si O2"
_cell_formula_units_Z 88
_cell_length_a 22.779012
_cell_length_b 24.367809
_cell_length_c 7.794543
_cell_angle_alpha 90.000000
_cell_angle_beta 90.000000
_cell_angle_gamma 90.000000
_cell_volume 4326.552944
_symmetry_space_group_name_H-M "C M C M"
_symmetry_group_IT_number 63
_symmetry_cell_setting 'orthorhombic'
loop_
_space_group_symop_operation_xyz
x,y,z
-x,-y,1/2+z
x,-y,-z
-x,y,1/2-z
-x,-y,-z
x,y,1/2-z
-x,y,z
x,-y,1/2+z
1/2+x,1/2+y,z
1/2-x,1/2-y,1/2+z
1/2+x,1/2-y,-z
1/2-x,1/2+y,1/2-z
1/2-x,1/2-y,-z
1/2+x,1/2+y,1/2-z
1/2-x,1/2+y,z
1/2+x,1/2-y,1/2+z
loop_
_atom_site_type_symbol
_atom_site_label
_atom_site_fract_x
_atom_site_fract_y
_atom_site_fract_z
Si Si1 0.500000 0.935646 0.957418
Si Si2 0.437543 0.732854 0.956701
Si Si3 0.565338 0.563738 0.455020
Si Si4 0.723636 0.190674 0.055540
Si Si5 0.340887 0.348778 0.050194
Si Si6 0.101239 0.354640 0.956479
O O1 0.500000 0.930496 0.750000
O O2 0.558971 0.903583 0.020373
O O3 0.500000 0.000000 0.000000
O O4 0.437324 0.724359 0.750000
O O5 0.500000 0.712505 0.024788
O O6 0.381194 0.700585 0.022153
O O7 0.432267 0.797307 0.984865
O O8 0.571897 0.500000 0.500000
O O9 0.567077 0.570288 0.250000
O O10 0.500000 0.580655 0.516683
O O11 0.617416 0.598952 0.533711
O O12 0.705174 0.201239 0.250000
O O13 0.666659 0.160584 0.974808
O O14 0.750000 0.250000 0.000000
O O15 0.779013 0.150264 0.043058
O O16 0.327580 0.338649 0.250000
O O17 0.106424 0.363780 0.750000
#
# Coordination Sequence:
#
# PCOD9473542 Si02
#       6
#     8  16  16  16  16  16
#     4  10  20  38  64  86 110 144 189 240 289 344
#     4   9  15  26  49  80 108 138 183 229 273 334
#     4  10  21  38  59  83 114 150 190 235 284 334
#     4  11  21  35  54  81 115 152 191 233 291 355
#     4  11  21  34  54  83 116 152 194 234 278 338
#     4   9  17  32  55  80 107 143 185 229 284 348
#
# _framework density 20.339518000000002
#
# number of rings (size 3 to 8) (size 9 to 14) (size 15 to 20)
#    0.000    2.000    2.727    2.182    0.000    1.818 
#    0.000    2.727    0.000    2.182    0.000    0.000 
#    0.000    0.000    0.000    0.000    0.000    0.000 
#
# Total GULP energy -245316.701525 kJ/mol
# GULP energy per Si atom -5575.379580 kJ/mol
# Density = 2.029322 g / cm^3
# Si number density = 20.339518 Si / 1000 Ang^3
#
#
#
# Elastic Constant Matrix: (Units=GPa)
#
#
# Indices 1 2 3 4 5 6 
#
# 1 183.1331 61.9854 3.0769 0.0000 0.0000 0.0000
# 2 61.9854 102.5740 -2.8413 0.0000 0.0000 0.0000
# 3 3.0769 -2.8413 34.8670 0.0000 0.0000 0.0000
# 4 0.0000 0.0000 0.0000 21.3233 0.0000 0.0000
# 5 0.0000 0.0000 0.0000 0.0000 2.0724 0.0000
# 6 0.0000 0.0000 0.0000 0.0000 0.0000 24.4899
#
#
#
# Elastic Compliance Matrix: (Units=1/GPa)
#
#
# Indices 1 2 3 4 5 6 
#
# 1 0.006896 -0.004193 -0.000950 0.000000 0.000000 0.000000
# 2 -0.004193 0.012321 0.001374 0.000000 0.000000 0.000000
# 3 -0.000950 0.001374 0.028876 0.000000 0.000000 0.000000
# 4 0.000000 0.000000 0.000000 0.046897 0.000000 0.000000
# 5 0.000000 0.000000 0.000000 0.000000 0.482535 0.000000
# 6 0.000000 0.000000 0.000000 0.000000 0.000000 0.040833
#
#
# Mechanical properties :
#
#
# Convention : Reuss Voigt Hill
#
# Bulk Modulus (GPa) = 24.65844 49.44625 37.05234
# Shear Modulus (GPa) = 7.81964 26.80066 17.31015
#
# Velocity S-wave (km/s) = 1.96288 3.63390 2.92046
# Velocity P-wave (km/s) = 4.15776 6.47844 5.44321
#
# Compressibility (1/GPa) = 0.04055407
#
# Stress axis : x y z
#
# Youngs Moduli (GPa) = 145.01475 81.16065 34.63057
#
# Poissons Ratio (x) = 0.34035 0.03291
# Poissons Ratio (y) = 0.60812 -0.04759
# Poissons Ratio (z) = 0.13780 -0.11153
#
# Static dielectric constant tensor:
#      x y z
#    x 1.778200 0.000000 0.000000 
#    y 0.000000 1.710280 0.000000 
#    z 0.000000 0.000000 1.718520 
# 
# From -- ./inp_files/8174.got.cif
#   From: 2010.05.17/outbox.cif.g08.bks.cpg/sg63_5_cif.got.tgz:8174.got - 2010.06.03 15:47:04.
