data_PCOD9473328
_publ_section_title
;
Structure prediction by ZEFSAII (Michael W. Deem and Ramdas Pophale) SiO2 
 PCOD9473328
Probable space group: C M C M
;
_chemical_formula_sum "Si O2"
_cell_formula_units_Z 88
_cell_length_a 28.284446
_cell_length_b 18.948432
_cell_length_c 8.276989
_cell_angle_alpha 90.000000
_cell_angle_beta 90.000000
_cell_angle_gamma 90.000000
_cell_volume 4436.018333
_symmetry_space_group_name_H-M "C M C M"
_symmetry_group_IT_number 63
_symmetry_cell_setting 'orthorhombic'
loop_
_space_group_symop_operation_xyz
x,y,z
-x,-y,1/2+z
x,-y,-z
-x,y,1/2-z
-x,-y,-z
x,y,1/2-z
-x,y,z
x,-y,1/2+z
1/2+x,1/2+y,z
1/2-x,1/2-y,1/2+z
1/2+x,1/2-y,-z
1/2-x,1/2+y,1/2-z
1/2-x,1/2-y,-z
1/2+x,1/2+y,1/2-z
1/2-x,1/2+y,z
1/2+x,1/2-y,1/2+z
loop_
_atom_site_type_symbol
_atom_site_label
_atom_site_fract_x
_atom_site_fract_y
_atom_site_fract_z
Si Si1 0.000000 0.579501 0.443177
Si Si2 0.580716 0.180153 0.941448
Si Si3 0.447834 0.665013 0.554938
Si Si4 0.317727 0.801839 0.938919
Si Si5 0.343121 0.356590 0.447729
Si Si6 0.750004 0.424628 0.441370
O O1 0.000000 0.500000 0.500000
O O2 0.954860 0.618611 0.516005
O O3 0.000000 0.585880 0.250000
O O4 0.588612 0.185604 0.750000
O O5 0.558312 0.253374 0.004561
O O6 0.630045 0.168123 0.031013
O O7 0.448242 0.660903 0.750000
O O8 0.500000 0.639917 0.497930
O O9 0.397556 0.631737 0.499343
O O10 0.306678 0.797250 0.750000
O O11 0.323855 0.721060 0.000129
O O12 0.280752 0.855828 0.015167
O O13 0.344035 0.355270 0.250000
O O14 0.303535 0.411435 0.503378
O O15 0.768966 0.500000 0.500000
O O16 0.747938 0.428176 0.250000
#
# Coordination Sequence:
#
# PCOD9473328 Si02
#       6
#     8  16  16  16  16  16
#     4  12  24  38  52  70 100 142 183 222 265 314
#     4  11  21  34  52  78 108 137 173 217 267 318
#     4   9  16  30  55  82 108 138 174 219 271 320
#     4  10  20  37  59  82 106 138 182 229 278 327
#     4   8  17  33  55  83 111 141 181 228 274 327
#     4  11  22  37  55  78 110 146 185 228 278 333
#
# _framework density 19.837610000000002
#
# number of rings (size 3 to 8) (size 9 to 14) (size 15 to 20)
#    0.000    2.000    0.909    5.182    0.000    0.727 
#    0.000   11.818    0.000    0.545    0.000    0.000 
#    0.000    0.000    0.000    0.000    0.000    0.182 
#
# Total GULP energy -245387.110279 kJ/mol
# GULP energy per Si atom -5576.979779 kJ/mol
# Density = 1.979246 g / cm^3
# Si number density = 19.837610 Si / 1000 Ang^3
#
#
#
# Elastic Constant Matrix: (Units=GPa)
#
#
# Indices 1 2 3 4 5 6 
#
# 1 88.4480 16.0677 -4.5800 0.0000 0.0000 0.0000
# 2 16.0677 21.1308 -2.2488 0.0000 0.0000 0.0000
# 3 -4.5800 -2.2488 25.8608 0.0000 0.0000 0.0000
# 4 0.0000 0.0000 0.0000 6.8920 0.0000 0.0000
# 5 0.0000 0.0000 0.0000 0.0000 16.7605 0.0000
# 6 0.0000 0.0000 0.0000 0.0000 0.0000 -88.7382
#
#
#
# Elastic Compliance Matrix: (Units=1/GPa)
#
#
# Indices 1 2 3 4 5 6 
#
# 1 0.013174 -0.009860 0.001476 0.000000 0.000000 0.000000
# 2 -0.009860 0.055146 0.003049 0.000000 0.000000 0.000000
# 3 0.001476 0.003049 0.039195 0.000000 0.000000 0.000000
# 4 0.000000 0.000000 0.000000 0.145095 0.000000 0.000000
# 5 0.000000 0.000000 0.000000 0.000000 0.059664 0.000000
# 6 0.000000 0.000000 0.000000 0.000000 0.000000 -0.011269
#
#
# Mechanical properties :
#
#
# Convention : Reuss Voigt Hill
#
# Bulk Modulus (GPa) = 10.32585 17.10193 13.71389
# Shear Modulus (GPa) = 14.53669 -4.60374 4.96647
#
# Velocity S-wave (km/s) = 2.70994 -1.52504 1.58398
# Velocity P-wave (km/s) = 3.87404 2.35344 3.20522
#
# Compressibility (1/GPa) = 0.09684430
#
# Stress axis : x y z
#
# Youngs Moduli (GPa) = 75.90886 18.13362 25.51344
#
# Poissons Ratio (x) = 0.17880 -0.03765
# Poissons Ratio (y) = 0.74847 -0.07779
# Poissons Ratio (z) = -0.11202 -0.05529
#
# Static dielectric constant tensor:
#      x y z
#    x 1.717570 0.000000 0.000000 
#    y 0.000000 1.674010 0.000000 
#    z 0.000000 0.000000 1.678800 
# 
# From -- ./inp_files/14161.got.cif
#   From: 2010.05.17/outbox.cif.g08.bks.cpg/sg63_8_cif.got.tgz:14161.got - 2010.06.03 15:47:04.
