data_PCOD9473933
_publ_section_title
;
Structure prediction by ZEFSAII (Michael W. Deem and Ramdas Pophale) SiO2 
 PCOD9473933
Probable space group: C M C M
;
_chemical_formula_sum "Si O2"
_cell_formula_units_Z 96
_cell_length_a 30.154464
_cell_length_b 20.039002
_cell_length_c 8.839324
_cell_angle_alpha 90.000000
_cell_angle_beta 90.000000
_cell_angle_gamma 90.000000
_cell_volume 5341.297338
_symmetry_space_group_name_H-M "C M C M"
_symmetry_group_IT_number 63
_symmetry_cell_setting 'orthorhombic'
loop_
_space_group_symop_operation_xyz
x,y,z
-x,-y,1/2+z
x,-y,-z
-x,y,1/2-z
-x,-y,-z
x,y,1/2-z
-x,y,z
x,-y,1/2+z
1/2+x,1/2+y,z
1/2-x,1/2-y,1/2+z
1/2+x,1/2-y,-z
1/2-x,1/2+y,1/2-z
1/2-x,1/2-y,-z
1/2+x,1/2+y,1/2-z
1/2-x,1/2+y,z
1/2+x,1/2-y,1/2+z
loop_
_atom_site_type_symbol
_atom_site_label
_atom_site_fract_x
_atom_site_fract_y
_atom_site_fract_z
Si Si1 0.448910 0.292478 0.067878
Si Si2 0.373149 0.805512 0.928272
Si Si3 0.554112 0.431491 0.924030
Si Si4 0.269588 0.570324 0.068877
Si Si5 0.329045 0.068915 0.930016
Si Si6 0.289868 0.707063 0.927613
O O1 0.447772 0.296047 0.250000
O O2 0.500000 0.283542 0.020117
O O3 0.417778 0.231600 0.021669
O O4 0.432273 0.363467 0.005701
O O5 0.376527 0.823921 0.750000
O O6 0.333906 0.751216 0.940318
O O7 0.359555 0.869338 0.024485
O O8 0.567469 0.429957 0.750000
O O9 0.500000 0.432586 0.930535
O O10 0.569723 0.500000 0.000000
O O11 0.269417 0.567221 0.250000
O O12 0.285856 0.500000 0.000000
O O13 0.219142 0.578995 0.007580
O O14 0.294309 0.636078 0.010034
O O15 0.323425 0.063492 0.750000
O O16 0.346690 0.000000 0.000000
O O17 0.280322 0.695774 0.750000
O O18 0.250000 0.750000 0.000000
#
# Coordination Sequence:
#
# PCOD9473933 Si02
#       6
#    16  16  16  16  16  16
#     4   9  18  34  55  78 105 139 178 222 272 322
#     4  10  21  36  55  80 110 141 177 220 267 319
#     4   9  16  27  46  72 100 131 170 216 262 311
#     4  11  21  35  54  77 108 144 183 223 266 318
#     4  11  21  34  55  80 108 139 177 219 263 317
#     4  11  21  34  53  78 109 143 178 218 264 315
#
# _framework density 17.973163
#
# number of rings (size 3 to 8) (size 9 to 14) (size 15 to 20)
#    0.000    1.833    1.667    5.000    0.000    3.333 
#    0.000    0.833    0.000    0.500    0.000    0.000 
#    0.000    0.000    0.000    0.000    0.000    0.000 
#
# Total GULP energy -268038.849382 kJ/mol
# GULP energy per Si atom -5584.142695 kJ/mol
# Density = 1.793225 g / cm^3
# Si number density = 17.973163 Si / 1000 Ang^3
#
#
#
# Elastic Constant Matrix: (Units=GPa)
#
#
# Indices 1 2 3 4 5 6 
#
# 1 27.1256 19.5397 22.2409 0.0000 0.0000 0.0000
# 2 19.5397 130.5806 64.9395 0.0000 0.0000 0.0000
# 3 22.2409 64.9395 119.5848 0.0000 0.0000 0.0000
# 4 0.0000 0.0000 0.0000 35.7592 0.0000 0.0000
# 5 0.0000 0.0000 0.0000 0.0000 12.3601 0.0000
# 6 0.0000 0.0000 0.0000 0.0000 0.0000 23.0174
#
#
#
# Elastic Compliance Matrix: (Units=1/GPa)
#
#
# Indices 1 2 3 4 5 6 
#
# 1 0.044633 -0.003494 -0.006404 0.000000 0.000000 0.000000
# 2 -0.003494 0.010765 -0.005196 0.000000 0.000000 0.000000
# 3 -0.006404 -0.005196 0.012375 0.000000 0.000000 0.000000
# 4 0.000000 0.000000 0.000000 0.027965 0.000000 0.000000
# 5 0.000000 0.000000 0.000000 0.000000 0.080905 0.000000
# 6 0.000000 0.000000 0.000000 0.000000 0.000000 0.043445
#
#
# Mechanical properties :
#
#
# Convention : Reuss Voigt Hill
#
# Bulk Modulus (GPa) = 26.60610 54.52570 40.56590
# Shear Modulus (GPa) = 19.02556 25.59874 22.31215
#
# Velocity S-wave (km/s) = 3.25707 3.77805 3.52719
# Velocity P-wave (km/s) = 5.38331 7.03098 6.26158
#
# Compressibility (1/GPa) = 0.03758537
#
# Stress axis : x y z
#
# Youngs Moduli (GPa) = 22.40500 92.89372 80.80910
#
# Poissons Ratio (x) = 0.32459 0.51746
# Poissons Ratio (y) = 0.07829 0.41988
# Poissons Ratio (z) = 0.14347 0.48267
#
# Static dielectric constant tensor:
#      x y z
#    x 1.622950 0.000000 0.000000 
#    y 0.000000 1.613820 0.000000 
#    z 0.000000 0.000000 1.605600 
# 
# From -- ./inp_files/12427.got.cif
#   From: 2010.05.17/outbox.cif.g08.bks.cpg/sg63_7_cif.got.tgz:12427.got - 2010.06.03 15:47:04.
