data_PCOD9473250
_publ_section_title
;
Structure prediction by ZEFSAII (Michael W. Deem and Ramdas Pophale) SiO2 
 PCOD9473250
Probable space group: C M C M
;
_chemical_formula_sum "Si O2"
_cell_formula_units_Z 68
_cell_length_a 7.444285
_cell_length_b 26.264761
_cell_length_c 16.792835
_cell_angle_alpha 90.000000
_cell_angle_beta 90.000000
_cell_angle_gamma 90.000000
_cell_volume 3283.374837
_symmetry_space_group_name_H-M "C M C M"
_symmetry_group_IT_number 63
_symmetry_cell_setting 'orthorhombic'
loop_
_space_group_symop_operation_xyz
x,y,z
-x,-y,1/2+z
x,-y,-z
-x,y,1/2-z
-x,-y,-z
x,y,1/2-z
-x,y,z
x,-y,1/2+z
1/2+x,1/2+y,z
1/2-x,1/2-y,1/2+z
1/2+x,1/2-y,-z
1/2-x,1/2+y,1/2-z
1/2-x,1/2-y,-z
1/2+x,1/2+y,1/2-z
1/2-x,1/2+y,z
1/2+x,1/2-y,1/2+z
loop_
_atom_site_type_symbol
_atom_site_label
_atom_site_fract_x
_atom_site_fract_y
_atom_site_fract_z
Si Si1 0.218500 0.383653 0.750000
Si Si2 0.000000 0.967207 0.082199
Si Si3 0.218141 0.621126 0.569656
Si Si4 0.785382 0.719536 0.837686
Si Si5 0.500000 0.527707 0.250000
Si Si6 0.787233 0.324397 0.907910
O O1 0.323515 0.436494 0.750000
O O2 0.276123 0.352011 0.672151
O O3 0.000000 0.389231 0.750000
O O4 0.825154 0.930730 0.080757
O O5 0.000000 0.997285 0.166171
O O6 0.000000 0.000000 0.000000
O O7 0.270153 0.663621 0.634806
O O8 0.276905 0.647289 0.486523
O O9 0.000000 0.614439 0.570648
O O10 0.713438 0.732760 0.750000
O O11 0.745393 0.764402 0.899473
O O12 0.000000 0.717797 0.833350
O O13 0.000000 0.330650 0.909581
#
# Coordination Sequence:
#
# PCOD9473250 Si02
#       6
#     8   8  16  16   4  16
#     4  10  22  40  63  95 129 161 214 280 324 383
#     4  12  28  48  70 100 122 178 234 282 336 376
#     4  10  24  43  64  91 134 171 215 271 327 392
#     4  10  21  35  58  94 132 174 210 253 326 398
#     4  12  28  44  70  98 122 170 236 276 344 386
#     4  10  20  36  61  95 128 175 211 254 327 393
#
# _framework density 20.710397
#
# number of rings (size 3 to 8) (size 9 to 14) (size 15 to 20)
#    0.000    1.647    1.176    2.118    6.588    1.412 
#    0.000    0.000    0.000    0.000    0.000    0.000 
#    0.000    0.000    0.000    0.000    0.000    0.000 
#
# Total GULP energy -189911.962819 kJ/mol
# GULP energy per Si atom -5585.645965 kJ/mol
# Density = 2.066326 g / cm^3
# Si number density = 20.710397 Si / 1000 Ang^3
#
#
#
# Elastic Constant Matrix: (Units=GPa)
#
#
# Indices 1 2 3 4 5 6 
#
# 1 78.6419 30.8488 14.1224 0.0000 0.0000 0.0000
# 2 30.8488 132.4044 44.9510 0.0000 0.0000 0.0000
# 3 14.1224 44.9510 94.9059 0.0000 0.0000 0.0000
# 4 0.0000 0.0000 0.0000-1659.8205 0.0000 0.0000
# 5 0.0000 0.0000 0.0000 0.0000-1219.0309 0.0000
# 6 0.0000 0.0000 0.0000 0.0000 0.0000 46.8274
#
#
#
# Elastic Compliance Matrix: (Units=1/GPa)
#
#
# Indices 1 2 3 4 5 6 
#
# 1 0.014028 -0.003050 -0.000643 0.000000 0.000000 0.000000
# 2 -0.003050 0.009663 -0.004123 0.000000 0.000000 0.000000
# 3 -0.000643 -0.004123 0.012585 0.000000 0.000000 0.000000
# 4 0.000000 0.000000 0.000000 -0.000602 0.000000 0.000000
# 5 0.000000 0.000000 0.000000 0.000000 -0.000820 0.000000
# 6 0.000000 0.000000 0.000000 0.000000 0.000000 0.021355
#
#
# Mechanical properties :
#
#
# Convention : Reuss Voigt Hill
#
# Bulk Modulus (GPa) = 48.43926 53.97741 51.20834
# Shear Modulus (GPa) = 63.51547 -552.00279 -244.24366
#
# Velocity S-wave (km/s) = 5.54391 -16.34358 -10.87147
# Velocity P-wave (km/s) = 8.02618 18.16675 11.52413
#
# Compressibility (1/GPa) = 0.02064441
#
# Stress axis : x y z
#
# Youngs Moduli (GPa) = 71.28730 103.48785 79.45878
#
# Poissons Ratio (x) = 0.31565 0.05107
# Poissons Ratio (y) = 0.21743 0.32760
# Poissons Ratio (z) = 0.04582 0.42667
#
# Static dielectric constant tensor:
#      x y z
#    x 1.748430 0.000000 0.000000 
#    y 0.000000 1.704790 0.000000 
#    z 0.000000 0.000000 1.790930 
# 
# From -- ./inp_files/39997.got.cif
#   From: 2010.05.17/outbox.cif.g08.bks.cpg/sg63_20_cif.got.tgz:39997.got - 2010.06.03 15:47:04.
