data_PCOD9473512
_publ_section_title
;
Structure prediction by ZEFSAII (Michael W. Deem and Ramdas Pophale) SiO2 
 PCOD9473512
Probable space group: C M C M
;
_chemical_formula_sum "Si O2"
_cell_formula_units_Z 88
_cell_length_a 18.631394
_cell_length_b 30.154028
_cell_length_c 8.733521
_cell_angle_alpha 90.000000
_cell_angle_beta 90.000000
_cell_angle_gamma 90.000000
_cell_volume 4906.593200
_symmetry_space_group_name_H-M "C M C M"
_symmetry_group_IT_number 63
_symmetry_cell_setting 'orthorhombic'
loop_
_space_group_symop_operation_xyz
x,y,z
-x,-y,1/2+z
x,-y,-z
-x,y,1/2-z
-x,-y,-z
x,y,1/2-z
-x,y,z
x,-y,1/2+z
1/2+x,1/2+y,z
1/2-x,1/2-y,1/2+z
1/2+x,1/2-y,-z
1/2-x,1/2+y,1/2-z
1/2-x,1/2-y,-z
1/2+x,1/2+y,1/2-z
1/2-x,1/2+y,z
1/2+x,1/2-y,1/2+z
loop_
_atom_site_type_symbol
_atom_site_label
_atom_site_fract_x
_atom_site_fract_y
_atom_site_fract_z
Si Si1 0.342163 0.950203 0.434310
Si Si2 0.415432 0.750430 0.571811
Si Si3 0.273276 0.616705 0.431981
Si Si4 0.000000 0.549820 0.934253
Si Si5 0.917783 0.853440 0.434454
Si Si6 0.711696 0.206863 0.930007
O O1 0.338424 0.951378 0.250000
O O2 0.277279 0.921191 0.498395
O O3 0.421753 0.931186 0.478878
O O4 0.338005 0.000000 0.500000
O O5 0.392932 0.755568 0.750000
O O6 0.500000 0.758295 0.563725
O O7 0.403940 0.698666 0.528670
O O8 0.371165 0.783298 0.466193
O O9 0.272930 0.613917 0.250000
O O10 0.355194 0.617518 0.492181
O O11 0.239489 0.663150 0.487478
O O12 0.000000 0.547715 0.750000
O O13 0.000000 0.500000 0.000000
O O14 0.914193 0.856755 0.250000
O O15 0.000000 0.863784 0.480645
O O16 0.725630 0.203227 0.750000
O O17 0.750000 0.250000 0.000000
#
# Coordination Sequence:
#
# PCOD9473512 Si02
#       6
#    16  16  16   8  16  16
#     4  10  20  38  62  88 116 147 184 232 279 332
#     4   9  18  34  55  77 105 142 184 229 278 331
#     4  12  24  37  56  84 114 150 190 231 280 334
#     4   8  16  32  58  86 112 144 182 224 272 324
#     4   9  18  34  57  82 109 144 185 232 281 332
#     4  12  23  36  54  78 110 148 187 232 279 330
#
# _framework density 17.935051999999999
#
# number of rings (size 3 to 8) (size 9 to 14) (size 15 to 20)
#    0.000    1.818    1.818    4.909    0.000    1.455 
#    1.636    1.818    0.000    0.545    0.000    0.000 
#    0.000    0.000    0.000    0.000    0.000    0.000 
#
# Total GULP energy -245539.507503 kJ/mol
# GULP energy per Si atom -5580.443352 kJ/mol
# Density = 1.789423 g / cm^3
# Si number density = 17.935052 Si / 1000 Ang^3
#
#
#
# Elastic Constant Matrix: (Units=GPa)
#
#
# Indices 1 2 3 4 5 6 
#
# 1 155.6304 56.8091 55.2510 0.0000 0.0000 0.0000
# 2 56.8091 63.9402 28.1931 0.0000 0.0000 0.0000
# 3 55.2510 28.1931 74.8741 0.0000 0.0000 0.0000
# 4 0.0000 0.0000 0.0000 23.5623 0.0000 0.0000
# 5 0.0000 0.0000 0.0000 0.0000 28.9234 0.0000
# 6 0.0000 0.0000 0.0000 0.0000 0.0000 31.2998
#
#
#
# Elastic Compliance Matrix: (Units=1/GPa)
#
#
# Indices 1 2 3 4 5 6 
#
# 1 0.011044 -0.007457 -0.005342 0.000000 0.000000 0.000000
# 2 -0.007457 0.023788 -0.003455 0.000000 0.000000 0.000000
# 3 -0.005342 -0.003455 0.018598 0.000000 0.000000 0.000000
# 4 0.000000 0.000000 0.000000 0.042441 0.000000 0.000000
# 5 0.000000 0.000000 0.000000 0.000000 0.034574 0.000000
# 6 0.000000 0.000000 0.000000 0.000000 0.000000 0.031949
#
#
# Mechanical properties :
#
#
# Convention : Reuss Voigt Hill
#
# Bulk Modulus (GPa) = 47.79217 63.88345 55.83781
# Shear Modulus (GPa) = 24.76787 27.03655 25.90221
#
# Velocity S-wave (km/s) = 3.72018 3.88683 3.80442
# Velocity P-wave (km/s) = 6.71998 7.47261 7.10627
#
# Compressibility (1/GPa) = 0.02092393
#
# Stress axis : x y z
#
# Youngs Moduli (GPa) = 90.54897 42.03804 53.76857
#
# Poissons Ratio (x) = 0.31347 0.28721
# Poissons Ratio (y) = 0.67520 0.18575
# Poissons Ratio (z) = 0.48368 0.14523
#
# Static dielectric constant tensor:
#      x y z
#    x 1.684390 0.000000 0.000000 
#    y 0.000000 1.578940 0.000000 
#    z 0.000000 0.000000 1.604020 
# 
# From -- ./inp_files/6824.got.cif
#   From: 2010.05.17/outbox.cif.g08.bks.cpg/sg63_4_cif.got.tgz:6824.got - 2010.06.03 15:47:04.
