data_PCOD9473541
_publ_section_title
;
Structure prediction by ZEFSAII (Michael W. Deem and Ramdas Pophale) SiO2 
 PCOD9473541
Probable space group: C M C M
;
_chemical_formula_sum "Si O2"
_cell_formula_units_Z 100
_cell_length_a 8.023002
_cell_length_b 29.363657
_cell_length_c 22.154801
_cell_angle_alpha 90.000000
_cell_angle_beta 90.000000
_cell_angle_gamma 90.000000
_cell_volume 5219.331678
_symmetry_space_group_name_H-M "C M C M"
_symmetry_group_IT_number 63
_symmetry_cell_setting 'orthorhombic'
loop_
_space_group_symop_operation_xyz
x,y,z
-x,-y,1/2+z
x,-y,-z
-x,y,1/2-z
-x,-y,-z
x,y,1/2-z
-x,y,z
x,-y,1/2+z
1/2+x,1/2+y,z
1/2-x,1/2-y,1/2+z
1/2+x,1/2-y,-z
1/2-x,1/2+y,1/2-z
1/2-x,1/2-y,-z
1/2+x,1/2+y,1/2-z
1/2-x,1/2+y,z
1/2+x,1/2-y,1/2+z
loop_
_atom_site_type_symbol
_atom_site_label
_atom_site_fract_x
_atom_site_fract_y
_atom_site_fract_z
Si Si1 0.803576 0.868152 0.898494
Si Si2 0.198723 0.787506 0.817691
Si Si3 0.690786 0.732246 0.934099
Si Si4 0.193499 0.363338 0.468308
Si Si5 0.500000 0.966895 0.750000
Si Si6 0.808705 0.967254 0.655430
Si Si7 0.202118 0.466747 0.444134
O O1 0.744193 0.836813 0.842971
O O2 0.788803 0.921080 0.883524
O O3 0.000000 0.858105 0.908656
O O4 0.710722 0.856426 0.959888
O O5 0.265818 0.777180 0.750000
O O6 0.229355 0.753488 0.873779
O O7 0.000000 0.790115 0.811446
O O8 0.500000 0.745140 0.930200
O O9 0.713789 0.677868 0.935892
O O10 0.750000 0.750000 0.000000
O O11 0.253326 0.414576 0.455157
O O12 0.000000 0.360300 0.451230
O O13 0.650334 0.967269 0.698953
O O14 0.000000 0.965707 0.679802
O O15 0.788596 0.011230 0.613393
O O16 0.241954 0.500000 0.500000
O O17 0.000000 0.467430 0.437273
#
# Coordination Sequence:
#
# PCOD9473541 Si02
#       7
#    16  16  16  16   4  16  16
#     4  10  21  36  58  95 130 162 203 255 319 388
#     4  10  22  41  64  89 126 165 206 261 324 385
#     4  12  24  40  61  90 125 162 214 268 316 377
#     4  11  22  36  64  94 126 165 204 253 324 384
#     4  12  26  44  62  86 132 180 226 270 316 378
#     4  11  24  41  65  93 129 173 217 266 324 385
#     4  10  20  38  63  95 130 160 202 263 327 385
#
# _framework density 19.15954
#
# number of rings (size 3 to 8) (size 9 to 14) (size 15 to 20)
#    0.000    1.280    4.000    2.160    2.240    1.920 
#    0.000    0.000    1.760    0.000    0.000    0.000 
#    0.000    0.000    0.000    0.000    0.000    0.000 
#
# Total GULP energy -278428.697537 kJ/mol
# GULP energy per Si atom -5568.573951 kJ/mol
# Density = 1.911593 g / cm^3
# Si number density = 19.159540 Si / 1000 Ang^3
#
#
#
# Elastic Constant Matrix: (Units=GPa)
#
#
# Indices 1 2 3 4 5 6 
#
# 1 58.6955 4.6953 14.4796 0.0000 0.0000 0.0000
# 2 4.6953 111.8333 44.7057 0.0000 0.0000 0.0000
# 3 14.4796 44.7057 94.1186 0.0000 0.0000 0.0000
# 4 0.0000 0.0000 0.0000 -109.1043 0.0000 0.0000
# 5 0.0000 0.0000 0.0000 0.0000 -20.0950 0.0000
# 6 0.0000 0.0000 0.0000 0.0000 0.0000 15.2232
#
#
#
# Elastic Compliance Matrix: (Units=1/GPa)
#
#
# Indices 1 2 3 4 5 6 
#
# 1 0.017726 0.000427 -0.002930 0.000000 0.000000 0.000000
# 2 0.000427 0.011048 -0.005313 0.000000 0.000000 0.000000
# 3 -0.002930 -0.005313 0.013599 0.000000 0.000000 0.000000
# 4 0.000000 0.000000 0.000000 -0.009166 0.000000 0.000000
# 5 0.000000 0.000000 0.000000 0.000000 -0.049764 0.000000
# 6 0.000000 0.000000 0.000000 0.000000 0.000000 0.065689
#
#
# Mechanical properties :
#
#
# Convention : Reuss Voigt Hill
#
# Bulk Modulus (GPa) = 37.39621 43.60096 40.49859
# Shear Modulus (GPa) = 67.86181 -9.41076 29.22553
#
# Velocity S-wave (km/s) = 5.95787 -2.21866 3.90984
# Velocity P-wave (km/s) = 8.17857 4.03025 6.44717
#
# Compressibility (1/GPa) = 0.02674068
#
# Stress axis : x y z
#
# Youngs Moduli (GPa) = 56.41530 90.51407 73.53226
#
# Poissons Ratio (x) = -0.03865 0.21544
# Poissons Ratio (y) = -0.02409 0.39071
# Poissons Ratio (z) = 0.16529 0.48094
#
# Static dielectric constant tensor:
#      x y z
#    x 1.668110 0.000000 0.000000 
#    y 0.000000 1.682110 0.000000 
#    z 0.000000 0.000000 1.458540 
# 
# From -- ./inp_files/51692.got.cif
#   From: 2010.05.17/outbox.cif.g08.bks.cpg/sg63_26_cif.got.tgz:51692.got - 2010.06.03 15:47:04.
