data_PCOD9473178
_publ_section_title
;
Structure prediction by ZEFSAII (Michael W. Deem and Ramdas Pophale) SiO2 
 PCOD9473178
Probable space group: C M C M
;
_chemical_formula_sum "Si O2"
_cell_formula_units_Z 64
_cell_length_a 8.908891
_cell_length_b 27.617705
_cell_length_c 13.620670
_cell_angle_alpha 90.000000
_cell_angle_beta 90.000000
_cell_angle_gamma 90.000000
_cell_volume 3351.272191
_symmetry_space_group_name_H-M "C M C M"
_symmetry_group_IT_number 63
_symmetry_cell_setting 'orthorhombic'
loop_
_space_group_symop_operation_xyz
x,y,z
-x,-y,1/2+z
x,-y,-z
-x,y,1/2-z
-x,-y,-z
x,y,1/2-z
-x,y,z
x,-y,1/2+z
1/2+x,1/2+y,z
1/2-x,1/2-y,1/2+z
1/2+x,1/2-y,-z
1/2-x,1/2+y,1/2-z
1/2-x,1/2-y,-z
1/2+x,1/2+y,1/2-z
1/2-x,1/2+y,z
1/2+x,1/2-y,1/2+z
loop_
_atom_site_type_symbol
_atom_site_label
_atom_site_fract_x
_atom_site_fract_y
_atom_site_fract_z
Si Si1 0.682792 0.164668 0.750000
Si Si2 0.181520 0.129465 0.136842
Si Si3 0.828881 0.017326 0.389828
Si Si4 0.318519 0.198620 0.530582
Si Si5 0.676233 0.944650 0.250000
O O1 0.500000 0.165626 0.750000
O O2 0.726379 0.187302 0.855691
O O3 0.740150 0.109343 0.750000
O O4 0.219225 0.144187 0.250000
O O5 0.221664 0.072632 0.124684
O O6 0.000000 0.133578 0.126898
O O7 0.257986 0.160077 0.049964
O O8 0.000000 0.015318 0.352783
O O9 0.833168 0.000000 0.500000
O O10 0.727887 0.977552 0.338976
O O11 0.500000 0.199392 0.526785
O O12 0.250000 0.250000 0.500000
O O13 0.500000 0.938917 0.250000
#
# Coordination Sequence:
#
# PCOD9473178 Si02
#       5
#     8  16  16  16   8
#     4   9  22  43  62  85 124 163 192 247 314 365
#     4  10  21  39  61  89 128 166 200 248 309 360
#     4  10  20  36  59  87 122 164 205 244 293 351
#     4  11  24  43  66  91 119 157 206 253 311 369
#     4  11  21  35  58  87 120 159 200 239 294 355
#
# _framework density 19.097225999999999
#
# number of rings (size 3 to 8) (size 9 to 14) (size 15 to 20)
#    0.000    1.750    1.250    2.625    1.750    2.000 
#    0.000    5.625    0.000    0.000    0.000    0.000 
#    0.000    0.000    0.000    0.000    0.000    0.000 
#
# Total GULP energy -178446.151825 kJ/mol
# GULP energy per Si atom -5576.442245 kJ/mol
# Density = 1.905376 g / cm^3
# Si number density = 19.097226 Si / 1000 Ang^3
#
#
#
# Elastic Constant Matrix: (Units=GPa)
#
#
# Indices 1 2 3 4 5 6 
#
# 1 43.2486 43.4394 47.4042 0.0000 0.0000 0.0000
# 2 43.4394 154.1143 97.1437 0.0000 0.0000 0.0000
# 3 47.4042 97.1437 214.0210 0.0000 0.0000 0.0000
# 4 0.0000 0.0000 0.0000 98.4664 0.0000 0.0000
# 5 0.0000 0.0000 0.0000 0.0000 33.9522 0.0000
# 6 0.0000 0.0000 0.0000 0.0000 0.0000 27.6362
#
#
#
# Elastic Compliance Matrix: (Units=1/GPa)
#
#
# Indices 1 2 3 4 5 6 
#
# 1 0.035235 -0.007021 -0.004618 0.000000 0.000000 0.000000
# 2 -0.007021 0.010488 -0.003205 0.000000 0.000000 0.000000
# 3 -0.004618 -0.003205 0.007150 0.000000 0.000000 0.000000
# 4 0.000000 0.000000 0.000000 0.010156 0.000000 0.000000
# 5 0.000000 0.000000 0.000000 0.000000 0.029453 0.000000
# 6 0.000000 0.000000 0.000000 0.000000 0.000000 0.036184
#
#
# Mechanical properties :
#
#
# Convention : Reuss Voigt Hill
#
# Bulk Modulus (GPa) = 43.13015 87.48428 65.30722
# Shear Modulus (GPa) = 30.10532 46.90407 38.50470
#
# Velocity S-wave (km/s) = 3.97473 4.96125 4.49513
# Velocity P-wave (km/s) = 6.61046 8.87288 7.82388
#
# Compressibility (1/GPa) = 0.02318564
#
# Stress axis : x y z
#
# Youngs Moduli (GPa) = 28.38059 95.34546 139.85707
#
# Poissons Ratio (x) = 0.66942 0.64580
# Poissons Ratio (y) = 0.19926 0.44831
# Poissons Ratio (z) = 0.13105 0.30563
#
# Static dielectric constant tensor:
#      x y z
#    x 1.656210 0.000000 0.000000 
#    y 0.000000 1.649300 0.000000 
#    z 0.000000 0.000000 1.646820 
# 
# From -- ./inp_files/16229.got.cif
#   From: 2010.05.17/outbox.cif.g08.bks.cpg/sg63_9_cif.got.tgz:16229.got - 2010.06.03 15:47:04.
