data_PCOD9473906
_publ_section_title
;
Structure prediction by ZEFSAII (Michael W. Deem and Ramdas Pophale) SiO2 
 PCOD9473906
Probable space group: C M C M
;
_chemical_formula_sum "Si O2"
_cell_formula_units_Z 64
_cell_length_a 9.369275
_cell_length_b 42.426691
_cell_length_c 7.688905
_cell_angle_alpha 90.000000
_cell_angle_beta 90.000000
_cell_angle_gamma 90.000000
_cell_volume 3056.396138
_symmetry_space_group_name_H-M "C M C M"
_symmetry_group_IT_number 63
_symmetry_cell_setting 'orthorhombic'
loop_
_space_group_symop_operation_xyz
x,y,z
-x,-y,1/2+z
x,-y,-z
-x,y,1/2-z
-x,-y,-z
x,y,1/2-z
-x,y,z
x,-y,1/2+z
1/2+x,1/2+y,z
1/2-x,1/2-y,1/2+z
1/2+x,1/2-y,-z
1/2-x,1/2+y,1/2-z
1/2-x,1/2-y,-z
1/2+x,1/2+y,1/2-z
1/2-x,1/2+y,z
1/2+x,1/2-y,1/2+z
loop_
_atom_site_type_symbol
_atom_site_label
_atom_site_fract_x
_atom_site_fract_y
_atom_site_fract_z
Si Si1 0.662489 0.842045 0.459086
Si Si2 0.663199 0.035223 0.458944
Si Si3 0.337305 0.718525 0.959302
Si Si4 0.338165 0.595282 0.040439
O O1 0.655187 0.839135 0.250000
O O2 0.500000 0.842246 0.525648
O O3 0.752620 0.812157 0.525064
O O4 0.743696 0.874353 0.498307
O O5 0.657318 0.037870 0.250000
O O6 0.500000 0.038154 0.524998
O O7 0.761904 0.063454 0.524515
O O8 0.714928 0.000000 0.500000
O O9 0.344643 0.715950 0.750000
O O10 0.500000 0.719951 0.025138
O O11 0.250000 0.750000 0.000000
O O12 0.344945 0.593105 0.250000
O O13 0.500000 0.598598 0.974977
#
# Coordination Sequence:
#
# PCOD9473906 Si02
#       4
#    16  16  16  16
#     4  10  21  37  57  80 106 138 177 220 265 313
#     4   9  18  33  52  74 102 136 174 216 260 308
#     4  10  21  37  57  81 109 141 177 217 262 312
#     4  10  21  36  54  78 108 141 177 217 262 313
#
# _framework density 20.939692000000001
#
# number of rings (size 3 to 8) (size 9 to 14) (size 15 to 20)
#    0.000    2.250    0.000    2.250    0.000    7.000 
#    0.000    2.500    0.000    0.000    0.000    0.000 
#    0.000    0.000    0.000    0.000    0.000    0.000 
#
# Total GULP energy -178785.912795 kJ/mol
# GULP energy per Si atom -5587.059775 kJ/mol
# Density = 2.089203 g / cm^3
# Si number density = 20.939692 Si / 1000 Ang^3
#
#
#
# Elastic Constant Matrix: (Units=GPa)
#
#
# Indices 1 2 3 4 5 6 
#
# 1 220.6866 148.2483 8.9920 0.0000 0.0000 0.0000
# 2 148.2483 226.7305 -2.0583 0.0000 0.0000 0.0000
# 3 8.9920 -2.0583 35.0430 0.0000 0.0000 0.0000
# 4 0.0000 0.0000 0.0000 30.5829 0.0000 0.0000
# 5 0.0000 0.0000 0.0000 0.0000 18.7238 0.0000
# 6 0.0000 0.0000 0.0000 0.0000 0.0000 43.8058
#
#
#
# Elastic Compliance Matrix: (Units=1/GPa)
#
#
# Indices 1 2 3 4 5 6 
#
# 1 0.008285 -0.005439 -0.002445 0.000000 0.000000 0.000000
# 2 -0.005439 0.007984 0.001865 0.000000 0.000000 0.000000
# 3 -0.002445 0.001865 0.029273 0.000000 0.000000 0.000000
# 4 0.000000 0.000000 0.000000 0.032698 0.000000 0.000000
# 5 0.000000 0.000000 0.000000 0.000000 0.053408 0.000000
# 6 0.000000 0.000000 0.000000 0.000000 0.000000 0.022828
#
#
# Mechanical properties :
#
#
# Convention : Reuss Voigt Hill
#
# Bulk Modulus (GPa) = 29.84880 88.09158 58.97019
# Shear Modulus (GPa) = 28.13996 40.44105 34.29051
#
# Velocity S-wave (km/s) = 3.66984 4.39944 4.05110
# Velocity P-wave (km/s) = 5.67826 8.24422 7.07848
#
# Compressibility (1/GPa) = 0.03350219
#
# Stress axis : x y z
#
# Youngs Moduli (GPa) = 120.70273 125.25181 34.16074
#
# Poissons Ratio (x) = 0.68128 0.08354
# Poissons Ratio (y) = 0.65653 -0.06370
# Poissons Ratio (z) = 0.29516 -0.23355
#
# Static dielectric constant tensor:
#      x y z
#    x 1.743600 0.000000 0.000000 
#    y 0.000000 1.700350 0.000000 
#    z 0.000000 0.000000 1.787060 
# 
# From -- ./inp_files/16170.got.cif
#   From: 2010.05.17/outbox.cif.g08.bks.cpg/sg63_9_cif.got.tgz:16170.got - 2010.06.03 15:47:04.
