data_PCOD9473625
_publ_section_title
;
Structure prediction by ZEFSAII (Michael W. Deem and Ramdas Pophale) SiO2 
 PCOD9473625
Probable space group: C M C M
;
_chemical_formula_sum "Si O2"
_cell_formula_units_Z 68
_cell_length_a 12.877093
_cell_length_b 17.780138
_cell_length_c 13.969129
_cell_angle_alpha 90.000000
_cell_angle_beta 90.000000
_cell_angle_gamma 90.000000
_cell_volume 3198.322752
_symmetry_space_group_name_H-M "C M C M"
_symmetry_group_IT_number 63
_symmetry_cell_setting 'orthorhombic'
loop_
_space_group_symop_operation_xyz
x,y,z
-x,-y,1/2+z
x,-y,-z
-x,y,1/2-z
-x,-y,-z
x,y,1/2-z
-x,y,z
x,-y,1/2+z
1/2+x,1/2+y,z
1/2-x,1/2-y,1/2+z
1/2+x,1/2-y,-z
1/2-x,1/2+y,1/2-z
1/2-x,1/2-y,-z
1/2+x,1/2+y,1/2-z
1/2-x,1/2+y,z
1/2+x,1/2-y,1/2+z
loop_
_atom_site_type_symbol
_atom_site_label
_atom_site_fract_x
_atom_site_fract_y
_atom_site_fract_z
Si Si1 0.000000 0.962682 0.750000
Si Si2 0.883178 0.456355 0.642190
Si Si3 0.666312 0.523015 0.891124
Si Si4 0.883714 0.320286 0.495583
Si Si5 0.813738 0.807224 0.362046
O O1 0.908408 0.969579 0.668483
O O2 0.880843 0.422955 0.750000
O O3 0.787401 0.512908 0.636353
O O4 0.866009 0.394599 0.560053
O O5 0.000000 0.488118 0.629166
O O6 0.638001 0.609433 0.870600
O O7 0.655646 0.500000 0.000000
O O8 0.872936 0.252485 0.571889
O O9 0.799308 0.311673 0.412527
O O10 0.000000 0.322128 0.456732
O O11 0.809695 0.786544 0.250000
#
# Coordination Sequence:
#
# PCOD9473625 Si02
#       5
#     4  16  16  16  16
#     4  12  26  44  62  94 132 192 214 266 314 386
#     4  10  20  39  67  98 127 165 212 275 335 385
#     4  12  24  42  66  96 134 171 226 265 321 393
#     4  10  23  41  67  95 127 165 216 270 329 387
#     4  11  23  41  66  94 129 172 212 268 319 390
#
# _framework density 21.261144000000002
#
# number of rings (size 3 to 8) (size 9 to 14) (size 15 to 20)
#    0.000    1.176    4.706    1.059    1.647    3.294 
#    0.000    0.000    0.000    0.000    0.000    0.000 
#    0.000    0.000    0.000    0.000    0.000    0.000 
#
# Total GULP energy -189523.497635 kJ/mol
# GULP energy per Si atom -5574.220519 kJ/mol
# Density = 2.121275 g / cm^3
# Si number density = 21.261144 Si / 1000 Ang^3
#
#
#
# Elastic Constant Matrix: (Units=GPa)
#
#
# Indices 1 2 3 4 5 6 
#
# 1 91.1372 2.2452 8.9295 0.0000 0.0000 0.0000
# 2 2.2452 37.4175 -22.5468 0.0000 0.0000 0.0000
# 3 8.9295 -22.5468 116.1007 0.0000 0.0000 0.0000
# 4 0.0000 0.0000 0.0000 0.2554 0.0000 0.0000
# 5 0.0000 0.0000 0.0000 0.0000 30.2995 0.0000
# 6 0.0000 0.0000 0.0000 0.0000 0.0000 8.3947
#
#
#
# Elastic Compliance Matrix: (Units=1/GPa)
#
#
# Indices 1 2 3 4 5 6 
#
# 1 0.011115 -0.001339 -0.001115 0.000000 0.000000 0.000000
# 2 -0.001339 0.030429 0.006012 0.000000 0.000000 0.000000
# 3 -0.001115 0.006012 0.009867 0.000000 0.000000 0.000000
# 4 0.000000 0.000000 0.000000 3.914888 0.000000 0.000000
# 5 0.000000 0.000000 0.000000 0.000000 0.033004 0.000000
# 6 0.000000 0.000000 0.000000 0.000000 0.000000 0.119123
#
#
# Mechanical properties :
#
#
# Convention : Reuss Voigt Hill
#
# Bulk Modulus (GPa) = 17.08605 24.65678 20.87141
# Shear Modulus (GPa) = 1.21041 24.85843 13.03442
#
# Velocity S-wave (km/s) = 0.75534 3.42306 2.47870
# Velocity P-wave (km/s) = 2.96891 5.21971 4.24617
#
# Compressibility (1/GPa) = 0.05852729
#
# Stress axis : x y z
#
# Youngs Moduli (GPa) = 89.97117 32.86379 101.35271
#
# Poissons Ratio (x) = 0.04399 0.11299
# Poissons Ratio (y) = 0.12044 -0.60935
# Poissons Ratio (z) = 0.10030 -0.19758
#
# Static dielectric constant tensor:
#      x y z
#    x 1.760320 0.000000 0.000000 
#    y 0.000000 1.782430 0.000000 
#    z 0.000000 0.000000 1.729570 
# 
# From -- ./inp_files/29413.got.cif
#   From: 2010.05.17/outbox.cif.g08.bks.cpg/sg63_15_cif.got.tgz:29413.got - 2010.06.03 15:47:04.
