data_PCOD9473193
_publ_section_title
;
Structure prediction by ZEFSAII (Michael W. Deem and Ramdas Pophale) SiO2 
 PCOD9473193
Probable space group: C M C M
;
_chemical_formula_sum "Si O2"
_cell_formula_units_Z 96
_cell_length_a 8.114146
_cell_length_b 21.230924
_cell_length_c 27.720325
_cell_angle_alpha 90.000000
_cell_angle_beta 90.000000
_cell_angle_gamma 90.000000
_cell_volume 4775.403037
_symmetry_space_group_name_H-M "C M C M"
_symmetry_group_IT_number 63
_symmetry_cell_setting 'orthorhombic'
loop_
_space_group_symop_operation_xyz
x,y,z
-x,-y,1/2+z
x,-y,-z
-x,y,1/2-z
-x,-y,-z
x,y,1/2-z
-x,y,z
x,-y,1/2+z
1/2+x,1/2+y,z
1/2-x,1/2-y,1/2+z
1/2+x,1/2-y,-z
1/2-x,1/2+y,1/2-z
1/2-x,1/2-y,-z
1/2+x,1/2+y,1/2-z
1/2-x,1/2+y,z
1/2+x,1/2-y,1/2+z
loop_
_atom_site_type_symbol
_atom_site_label
_atom_site_fract_x
_atom_site_fract_y
_atom_site_fract_z
Si Si1 0.699117 0.187239 0.027887
Si Si2 0.697015 0.812079 0.638322
Si Si3 0.201658 0.437568 0.028509
Si Si4 0.302816 0.562908 0.305212
Si Si5 0.301044 0.937126 0.139353
Si Si6 0.698736 0.812581 0.305088
O O1 0.500000 0.184940 0.029040
O O2 0.759260 0.187465 0.083119
O O3 0.750000 0.250000 0.000000
O O4 0.755946 0.125257 0.999211
O O5 0.500000 0.810089 0.636630
O O6 0.747580 0.875129 0.666222
O O7 0.756903 0.750464 0.666422
O O8 0.256939 0.438309 0.083984
O O9 0.000000 0.437472 0.028786
O O10 0.253824 0.500000 0.000000
O O11 0.240245 0.563766 0.250000
O O12 0.500000 0.562951 0.303670
O O13 0.246226 0.500163 0.332521
O O14 0.500000 0.934185 0.138041
O O15 0.240871 0.874832 0.167129
O O16 0.759830 0.810613 0.250000
O O17 0.500000 0.816316 0.303333
#
# Coordination Sequence:
#
# PCOD9473193 Si02
#       6
#    16  16  16  16  16  16
#     4  10  21  37  58  84 113 146 184 227 276 332
#     4  11  23  38  59  86 114 148 191 235 280 334
#     4   9  17  32  55  81 109 141 178 221 269 322
#     4  11  24  40  58  82 114 151 189 233 286 338
#     4  10  20  36  60  85 110 146 189 230 275 332
#     4  10  21  37  57  82 113 150 191 234 283 338
#
# _framework density 20.103014999999999
#
# number of rings (size 3 to 8) (size 9 to 14) (size 15 to 20)
#    0.000    1.833    0.000    4.000    0.000   10.333 
#    0.000    0.833    0.000    2.000    0.000    0.000 
#    0.000    0.000    0.000    0.000    0.000    0.000 
#
# Total GULP energy -268323.340591 kJ/mol
# GULP energy per Si atom -5590.069596 kJ/mol
# Density = 2.005726 g / cm^3
# Si number density = 20.103015 Si / 1000 Ang^3
#
#
#
# Elastic Constant Matrix: (Units=GPa)
#
#
# Indices 1 2 3 4 5 6 
#
# 1 10.3944 5.3976 15.6204 0.0000 0.0000 0.0000
# 2 5.3976 238.1239 148.7824 0.0000 0.0000 0.0000
# 3 15.6204 148.7824 254.1431 0.0000 0.0000 0.0000
# 4 0.0000 0.0000 0.0000 46.4108 0.0000 0.0000
# 5 0.0000 0.0000 0.0000 0.0000 22.6011 0.0000
# 6 0.0000 0.0000 0.0000 0.0000 0.0000 32.8929
#
#
#
# Elastic Compliance Matrix: (Units=1/GPa)
#
#
# Indices 1 2 3 4 5 6 
#
# 1 0.107051 0.002656 -0.008135 0.000000 0.000000 0.000000
# 2 0.002656 0.006687 -0.004078 0.000000 0.000000 0.000000
# 3 -0.008135 -0.004078 0.006822 0.000000 0.000000 0.000000
# 4 0.000000 0.000000 0.000000 0.021547 0.000000 0.000000
# 5 0.000000 0.000000 0.000000 0.000000 0.044246 0.000000
# 6 0.000000 0.000000 0.000000 0.000000 0.000000 0.030402
#
#
# Mechanical properties :
#
#
# Convention : Reuss Voigt Hill
#
# Bulk Modulus (GPa) = 9.85735 93.58469 51.72102
# Shear Modulus (GPa) = 18.54020 42.57169 30.55595
#
# Velocity S-wave (km/s) = 3.04017 4.60681 3.90291
# Velocity P-wave (km/s) = 4.15181 8.65740 6.78926
#
# Compressibility (1/GPa) = 0.10144716
#
# Stress axis : x y z
#
# Youngs Moduli (GPa) = 9.34134 149.53432 146.57825
#
# Poissons Ratio (x) = -0.39717 1.19236
# Poissons Ratio (y) = -0.02481 0.59778
# Poissons Ratio (z) = 0.07599 0.60984
#
# Static dielectric constant tensor:
#      x y z
#    x 1.721660 0.000000 0.000000 
#    y 0.000000 1.666120 0.000000 
#    z 0.000000 0.000000 1.701560 
# 
# From -- ./inp_files/66924.got.cif
#   From: 2010.05.17/outbox.cif.g08.bks.cpg/sg63_34_cif.got.tgz:66924.got - 2010.06.03 15:47:04.
