data_PCOD9473844
_publ_section_title
;
Structure prediction by ZEFSAII (Michael W. Deem and Ramdas Pophale) SiO2 
 PCOD9473844
Probable space group: C M C M
;
_chemical_formula_sum "Si O2"
_cell_formula_units_Z 96
_cell_length_a 7.912962
_cell_length_b 20.243857
_cell_length_c 30.140325
_cell_angle_alpha 90.000000
_cell_angle_beta 90.000000
_cell_angle_gamma 90.000000
_cell_volume 4828.144639
_symmetry_space_group_name_H-M "C M C M"
_symmetry_group_IT_number 63
_symmetry_cell_setting 'orthorhombic'
loop_
_space_group_symop_operation_xyz
x,y,z
-x,-y,1/2+z
x,-y,-z
-x,y,1/2-z
-x,-y,-z
x,y,1/2-z
-x,y,z
x,-y,1/2+z
1/2+x,1/2+y,z
1/2-x,1/2-y,1/2+z
1/2+x,1/2-y,-z
1/2-x,1/2+y,1/2-z
1/2-x,1/2-y,-z
1/2+x,1/2+y,1/2-z
1/2-x,1/2+y,z
1/2+x,1/2-y,1/2+z
loop_
_atom_site_type_symbol
_atom_site_label
_atom_site_fract_x
_atom_site_fract_y
_atom_site_fract_z
Si Si1 0.797754 0.234752 0.376336
Si Si2 0.802931 0.561438 0.527271
Si Si3 0.800904 0.112162 0.623265
Si Si4 0.706502 0.362227 0.800488
Si Si5 0.296910 0.686404 0.028611
Si Si6 0.206462 0.012904 0.698948
O O1 0.764609 0.312855 0.375969
O O2 0.732794 0.193368 0.334408
O O3 0.735680 0.201214 0.421708
O O4 0.000000 0.227397 0.376750
O O5 0.727462 0.500000 0.500000
O O6 0.727802 0.579360 0.575147
O O7 0.783589 0.624016 0.495256
O O8 0.000000 0.547570 0.535483
O O9 0.731958 0.065538 0.662716
O O10 0.000000 0.117131 0.630281
O O11 0.760016 0.349262 0.750000
O O12 0.500000 0.361586 0.800731
O O13 0.756752 0.437426 0.812266
O O14 0.500000 0.677879 0.028710
O O15 0.250000 0.750000 0.000000
O O16 0.257415 0.026901 0.750000
O O17 0.000000 0.013722 0.698436
#
# Coordination Sequence:
#
# PCOD9473844 Si02
#       6
#    16  16  16  16  16  16
#     4  10  21  35  55  82 113 145 181 228 277 329
#     4  11  25  42  58  80 113 150 188 236 287 334
#     4  11  22  35  57  84 112 147 187 230 278 334
#     4   8  15  31  55  81 108 141 183 227 272 326
#     4  11  22  37  59  83 114 150 188 230 277 334
#     4   8  16  32  54  81 111 142 181 229 277 327
#
# _framework density 19.883413999999998
#
# number of rings (size 3 to 8) (size 9 to 14) (size 15 to 20)
#    0.000    2.167    1.667    2.500    2.333    2.667 
#    0.000    0.000    0.000    1.500    0.000    4.667 
#    0.000    0.000    0.000    0.000    0.000    0.000 
#
# Total GULP energy -267896.719851 kJ/mol
# GULP energy per Si atom -5581.181664 kJ/mol
# Density = 1.983816 g / cm^3
# Si number density = 19.883414 Si / 1000 Ang^3
#
#
#
# Elastic Constant Matrix: (Units=GPa)
#
#
# Indices 1 2 3 4 5 6 
#
# 1 13.7928 -20.3783 -6.8329 0.0000 0.0000 0.0000
# 2 -20.3783 120.9482 91.0471 0.0000 0.0000 0.0000
# 3 -6.8329 91.0471 157.4764 0.0000 0.0000 0.0000
# 4 0.0000 0.0000 0.0000 44.6742 0.0000 0.0000
# 5 0.0000 0.0000 0.0000 0.0000 7.3974 0.0000
# 6 0.0000 0.0000 0.0000 0.0000 0.0000 1.6069
#
#
#
# Elastic Compliance Matrix: (Units=1/GPa)
#
#
# Indices 1 2 3 4 5 6 
#
# 1 0.104761 0.025194 -0.010021 0.000000 0.000000 0.000000
# 2 0.025194 0.020699 -0.010874 0.000000 0.000000 0.000000
# 3 -0.010021 -0.010874 0.012202 0.000000 0.000000 0.000000
# 4 0.000000 0.000000 0.000000 0.022384 0.000000 0.000000
# 5 0.000000 0.000000 0.000000 0.000000 0.135184 0.000000
# 6 0.000000 0.000000 0.000000 0.000000 0.000000 0.622331
#
#
# Mechanical properties :
#
#
# Convention : Reuss Voigt Hill
#
# Bulk Modulus (GPa) = 6.83710 46.65435 26.74573
# Shear Modulus (GPa) = 5.22076 25.96112 15.59094
#
# Velocity S-wave (km/s) = 1.62215 3.61732 2.80325
# Velocity P-wave (km/s) = 2.63715 6.40012 4.89470
#
# Compressibility (1/GPa) = 0.14626079
#
# Stress axis : x y z
#
# Youngs Moduli (GPa) = 9.54556 48.31226 81.95171
#
# Poissons Ratio (x) = -1.21720 0.82123
# Poissons Ratio (y) = -0.24049 0.89114
# Poissons Ratio (z) = 0.09566 0.52535
#
# Static dielectric constant tensor:
#      x y z
#    x 1.731720 0.000000 0.000000 
#    y 0.000000 1.663140 0.000000 
#    z 0.000000 0.000000 1.691320 
# 
# From -- ./inp_files/66884.got.cif
#   From: 2010.05.17/outbox.cif.g08.bks.cpg/sg63_34_cif.got.tgz:66884.got - 2010.06.03 15:47:04.
