data_PCOD9473748
_publ_section_title
;
Structure prediction by ZEFSAII (Michael W. Deem and Ramdas Pophale) SiO2 
 PCOD9473748
Probable space group: C M C M
;
_chemical_formula_sum "Si O2"
_cell_formula_units_Z 88
_cell_length_a 28.040000
_cell_length_b 5.756333
_cell_length_c 24.833642
_cell_angle_alpha 90.000000
_cell_angle_beta 90.000000
_cell_angle_gamma 90.000000
_cell_volume 4008.337991
_symmetry_space_group_name_H-M "C M C M"
_symmetry_group_IT_number 63
_symmetry_cell_setting 'orthorhombic'
loop_
_space_group_symop_operation_xyz
x,y,z
-x,-y,1/2+z
x,-y,-z
-x,y,1/2-z
-x,-y,-z
x,y,1/2-z
-x,y,z
x,-y,1/2+z
1/2+x,1/2+y,z
1/2-x,1/2-y,1/2+z
1/2+x,1/2-y,-z
1/2-x,1/2+y,1/2-z
1/2-x,1/2-y,-z
1/2+x,1/2+y,1/2-z
1/2-x,1/2+y,z
1/2+x,1/2-y,1/2+z
loop_
_atom_site_type_symbol
_atom_site_label
_atom_site_fract_x
_atom_site_fract_y
_atom_site_fract_z
Si Si1 0.229560 0.350531 0.685158
Si Si2 0.051775 0.129947 0.555549
Si Si3 0.360885 0.417470 0.188914
Si Si4 0.442781 0.925212 0.689627
Si Si5 0.116026 0.736484 0.893582
Si Si6 0.117874 0.500000 0.000000
O O1 0.236029 0.357543 0.750000
O O2 0.246439 0.605400 0.665801
O O3 0.173590 0.298685 0.674633
O O4 0.084237 0.341087 0.537042
O O5 0.000000 0.197063 0.577822
O O6 0.044199 0.000000 0.500000
O O7 0.080571 0.943172 0.588848
O O8 0.349343 0.488355 0.250000
O O9 0.350961 0.628258 0.148889
O O10 0.414918 0.320931 0.188661
O O11 0.432571 0.024122 0.750000
O O12 0.500000 0.913247 0.684996
O O13 0.417353 0.066812 0.642014
O O14 0.140241 0.646347 0.949788
#
# Coordination Sequence:
#
# PCOD9473748 Si02
#       6
#    16  16  16  16  16   8
#     4   9  19  36  61  91 121 151 192 253 320 378
#     4   9  18  32  49  70  99 138 188 242 293 339
#     4  10  22  37  57  83 116 155 197 243 300 370
#     4  10  22  38  55  80 119 163 203 241 288 355
#     4  11  21  34  53  78 110 151 201 246 296 352
#     4  10  21  34  50  74 106 144 198 252 302 346
#
# _framework density 21.954238
#
# number of rings (size 3 to 8) (size 9 to 14) (size 15 to 20)
#    0.000    2.182    0.000    2.455    2.545    5.091 
#    0.000    1.818    0.000    0.000    0.000    1.273 
#    0.000    0.000    0.000    0.000    0.000    0.000 
#
# Total GULP energy -244941.568408 kJ/mol
# GULP energy per Si atom -5566.853827 kJ/mol
# Density = 2.190427 g / cm^3
# Si number density = 21.954238 Si / 1000 Ang^3
#
#
#
# Elastic Constant Matrix: (Units=GPa)
#
#
# Indices 1 2 3 4 5 6 
#
# 1 69.2825 27.4879 6.7954 0.0000 0.0000 0.0000
# 2 27.4879 79.8762 44.8094 0.0000 0.0000 0.0000
# 3 6.7954 44.8094 136.6096 0.0000 0.0000 0.0000
# 4 0.0000 0.0000 0.0000 42.4830 0.0000 0.0000
# 5 0.0000 0.0000 0.0000 0.0000 0.4336 0.0000
# 6 0.0000 0.0000 0.0000 0.0000 0.0000 -24.5235
#
#
#
# Elastic Compliance Matrix: (Units=1/GPa)
#
#
# Indices 1 2 3 4 5 6 
#
# 1 0.016905 -0.006551 0.001308 0.000000 0.000000 0.000000
# 2 -0.006551 0.017881 -0.005539 0.000000 0.000000 0.000000
# 3 0.001308 -0.005539 0.009072 0.000000 0.000000 0.000000
# 4 0.000000 0.000000 0.000000 0.023539 0.000000 0.000000
# 5 0.000000 0.000000 0.000000 0.000000 2.306364 0.000000
# 6 0.000000 0.000000 0.000000 0.000000 0.000000 -0.040777
#
#
# Mechanical properties :
#
#
# Convention : Reuss Voigt Hill
#
# Bulk Modulus (GPa) = 44.85755 49.32819 47.09287
# Shear Modulus (GPa) = 2.11687 17.45697 9.78692
#
# Velocity S-wave (km/s) = 0.98301 2.82290 2.11366
# Velocity P-wave (km/s) = 4.66530 5.75695 5.23963
#
# Compressibility (1/GPa) = 0.02229279
#
# Stress axis : x y z
#
# Youngs Moduli (GPa) = 59.15564 55.92418 110.22877
#
# Poissons Ratio (x) = 0.36637 -0.14417
# Poissons Ratio (y) = 0.38754 0.61060
# Poissons Ratio (z) = -0.07737 0.30979
#
# Static dielectric constant tensor:
#      x y z
#    x 1.889830 0.000000 0.000000 
#    y 0.000000 2.002380 0.000000 
#    z 0.000000 0.000000 1.928920 
# 
# From -- ./inp_files/65694.got.cif
#   From: 2010.05.17/outbox.cif.g08.bks.cpg/sg63_33_cif.got.tgz:65694.got - 2010.06.03 15:47:04.
