data_PCOD9473184
_publ_section_title
;
Structure prediction by ZEFSAII (Michael W. Deem and Ramdas Pophale) SiO2 
 PCOD9473184
Probable space group: C M C M
;
_chemical_formula_sum "Si O2"
_cell_formula_units_Z 88
_cell_length_a 22.418436
_cell_length_b 22.703532
_cell_length_c 8.129476
_cell_angle_alpha 90.000000
_cell_angle_beta 90.000000
_cell_angle_gamma 90.000000
_cell_volume 4137.721827
_symmetry_space_group_name_H-M "C M C M"
_symmetry_group_IT_number 63
_symmetry_cell_setting 'orthorhombic'
loop_
_space_group_symop_operation_xyz
x,y,z
-x,-y,1/2+z
x,-y,-z
-x,y,1/2-z
-x,-y,-z
x,y,1/2-z
-x,y,z
x,-y,1/2+z
1/2+x,1/2+y,z
1/2-x,1/2-y,1/2+z
1/2+x,1/2-y,-z
1/2-x,1/2+y,1/2-z
1/2-x,1/2-y,-z
1/2+x,1/2+y,1/2-z
1/2-x,1/2+y,z
1/2+x,1/2-y,1/2+z
loop_
_atom_site_type_symbol
_atom_site_label
_atom_site_fract_x
_atom_site_fract_y
_atom_site_fract_z
Si Si1 0.692410 0.195246 0.057836
Si Si2 0.127664 0.578418 0.061460
Si Si3 0.500000 0.230750 0.058528
Si Si4 0.795005 0.891355 0.441559
Si Si5 0.227489 0.500000 0.000000
Si Si6 0.883659 0.199639 0.058590
Si Si7 0.500000 0.903610 0.442296
O O1 0.704855 0.208455 0.250000
O O2 0.639095 0.147863 0.052405
O O3 0.746519 0.159635 0.977689
O O4 0.668621 0.251906 0.965371
O O5 0.143390 0.561483 0.250000
O O6 0.175172 0.546426 0.943116
O O7 0.059337 0.569566 0.021523
O O8 0.500000 0.214972 0.250000
O O9 0.442046 0.270568 0.019492
O O10 0.500000 0.167812 0.965473
O O11 0.792524 0.909458 0.250000
O O12 0.774236 0.948080 0.548362
O O13 0.857894 0.860559 0.481430
O O14 0.894641 0.190170 0.250000
O O15 0.500000 0.916131 0.250000
#
# Coordination Sequence:
#
# PCOD9473184 Si02
#       7
#    16  16   8  16   8  16   8
#     4  10  20  36  59  89 125 163 206 256 313 373
#     4  10  21  38  61  86 120 166 213 259 309 363
#     4  12  24  42  65  92 129 166 204 254 312 376
#     4  11  23  40  63  90 123 163 209 262 317 370
#     4  10  24  43  66  89 120 160 220 266 316 362
#     4  12  24  39  62  93 127 162 204 253 312 380
#     4  12  24  37  59  90 125 166 210 255 308 369
#
# _framework density 21.267741999999998
#
# number of rings (size 3 to 8) (size 9 to 14) (size 15 to 20)
#    0.000    1.091    1.818    5.455    0.000    6.182 
#    0.000    0.000    0.000    0.545    0.000    0.000 
#    0.000    0.000    0.000    0.000    0.000    0.000 
#
# Total GULP energy -245208.379905 kJ/mol
# GULP energy per Si atom -5572.917725 kJ/mol
# Density = 2.121934 g / cm^3
# Si number density = 21.267742 Si / 1000 Ang^3
#
#
#
# Elastic Constant Matrix: (Units=GPa)
#
#
# Indices 1 2 3 4 5 6 
#
# 1 66.4338 57.3620 -3.6876 0.0000 0.0000 0.0000
# 2 57.3620 100.5046 -0.0137 0.0000 0.0000 0.0000
# 3 -3.6876 -0.0137 84.3189 0.0000 0.0000 0.0000
# 4 0.0000 0.0000 0.0000 4.3567 0.0000 0.0000
# 5 0.0000 0.0000 0.0000 0.0000 19.5812 0.0000
# 6 0.0000 0.0000 0.0000 0.0000 0.0000 16.8456
#
#
#
# Elastic Compliance Matrix: (Units=1/GPa)
#
#
# Indices 1 2 3 4 5 6 
#
# 1 0.029820 -0.017019 0.001301 0.000000 0.000000 0.000000
# 2 -0.017019 0.019663 -0.000741 0.000000 0.000000 0.000000
# 3 0.001301 -0.000741 0.011917 0.000000 0.000000 0.000000
# 4 0.000000 0.000000 0.000000 0.229529 0.000000 0.000000
# 5 0.000000 0.000000 0.000000 0.000000 0.051069 0.000000
# 6 0.000000 0.000000 0.000000 0.000000 0.000000 0.059363
#
#
# Mechanical properties :
#
#
# Convention : Reuss Voigt Hill
#
# Bulk Modulus (GPa) = 35.11016 39.84206 37.47611
# Shear Modulus (GPa) = 11.26701 21.32981 16.29841
#
# Velocity S-wave (km/s) = 2.30417 3.17032 2.77130
# Velocity P-wave (km/s) = 4.86039 5.67235 5.28199
#
# Compressibility (1/GPa) = 0.02848179
#
# Stress axis : x y z
#
# Youngs Moduli (GPa) = 33.53442 50.85611 83.91699
#
# Poissons Ratio (x) = 0.86554 -0.10921
# Poissons Ratio (y) = 0.57073 0.06219
# Poissons Ratio (z) = -0.04364 0.03769
#
# Static dielectric constant tensor:
#      x y z
#    x 1.783690 0.000000 0.000000 
#    y 0.000000 1.818620 0.000000 
#    z 0.000000 0.000000 1.840480 
# 
# From -- ./inp_files/8253.got.cif
#   From: 2010.05.17/outbox.cif.g08.bks.cpg/sg63_5_cif.got.tgz:8253.got - 2010.06.03 15:47:04.
