data_PCOD9473966
_publ_section_title
;
Structure prediction by ZEFSAII (Michael W. Deem and Ramdas Pophale) SiO2 
 PCOD9473966
Probable space group: C M C M
;
_chemical_formula_sum "Si O2"
_cell_formula_units_Z 80
_cell_length_a 14.579963
_cell_length_b 13.693478
_cell_length_c 22.353508
_cell_angle_alpha 90.000000
_cell_angle_beta 90.000000
_cell_angle_gamma 90.000000
_cell_volume 4462.886871
_symmetry_space_group_name_H-M "C M C M"
_symmetry_group_IT_number 63
_symmetry_cell_setting 'orthorhombic'
loop_
_space_group_symop_operation_xyz
x,y,z
-x,-y,1/2+z
x,-y,-z
-x,y,1/2-z
-x,-y,-z
x,y,1/2-z
-x,y,z
x,-y,1/2+z
1/2+x,1/2+y,z
1/2-x,1/2-y,1/2+z
1/2+x,1/2-y,-z
1/2-x,1/2+y,1/2-z
1/2-x,1/2-y,-z
1/2+x,1/2+y,1/2-z
1/2-x,1/2+y,z
1/2+x,1/2-y,1/2+z
loop_
_atom_site_type_symbol
_atom_site_label
_atom_site_fract_x
_atom_site_fract_y
_atom_site_fract_z
Si Si1 0.608420 0.222983 0.980454
Si Si2 0.500000 0.268657 0.322120
Si Si3 0.500000 0.041192 0.178061
Si Si4 0.669738 0.054979 0.610519
Si Si5 0.702170 0.296117 0.178522
Si Si6 0.256733 0.149555 0.080433
O O1 0.500000 0.237778 0.987894
O O2 0.627489 0.128371 0.938561
O O3 0.662174 0.312951 0.949132
O O4 0.662358 0.199424 0.041394
O O5 0.500000 0.269133 0.250000
O O6 0.403588 0.314742 0.339829
O O7 0.500000 0.154983 0.339752
O O8 0.500000 0.034189 0.250000
O O9 0.411306 0.991150 0.149637
O O10 0.734934 0.119171 0.652390
O O11 0.725696 0.965419 0.581736
O O12 0.708290 0.288627 0.250000
O O13 0.734111 0.196193 0.146387
#
# Coordination Sequence:
#
# PCOD9473966 Si02
#       6
#    16   8   8  16  16  16
#     4  10  22  39  60  84 116 150 192 236 285 340
#     4   9  18  34  53  76 108 148 193 228 272 335
#     4  11  20  32  56  87 112 150 196 237 287 341
#     4  11  21  36  57  86 115 149 188 242 284 343
#     4  10  21  36  56  83 115 148 188 236 286 339
#     4  10  22  37  59  86 116 148 191 234 289 337
#
# _framework density 17.925618
#
# number of rings (size 3 to 8) (size 9 to 14) (size 15 to 20)
#    0.000    1.800    3.000    1.200    2.800    1.600 
#    1.800    0.000    0.000    3.600    0.000    0.000 
#    0.000    0.000    0.000    0.000    0.000    0.000 
#
# Total GULP energy -223276.028265 kJ/mol
# GULP energy per Si atom -5581.900707 kJ/mol
# Density = 1.788482 g / cm^3
# Si number density = 17.925618 Si / 1000 Ang^3
#
#
#
# Elastic Constant Matrix: (Units=GPa)
#
#
# Indices 1 2 3 4 5 6 
#
# 1 133.7027 46.5410 28.9926 0.0000 0.0000 0.0000
# 2 46.5410 61.8390 13.6715 0.0000 0.0000 0.0000
# 3 28.9926 13.6715 73.6880 0.0000 0.0000 0.0000
# 4 0.0000 0.0000 0.0000 13.8533 0.0000 0.0000
# 5 0.0000 0.0000 0.0000 0.0000 19.7976 0.0000
# 6 0.0000 0.0000 0.0000 0.0000 0.0000 25.7887
#
#
#
# Elastic Compliance Matrix: (Units=1/GPa)
#
#
# Indices 1 2 3 4 5 6 
#
# 1 0.010670 -0.007406 -0.002824 0.000000 0.000000 0.000000
# 2 -0.007406 0.022003 -0.001168 0.000000 0.000000 0.000000
# 3 -0.002824 -0.001168 0.014899 0.000000 0.000000 0.000000
# 4 0.000000 0.000000 0.000000 0.072185 0.000000 0.000000
# 5 0.000000 0.000000 0.000000 0.000000 0.050511 0.000000
# 6 0.000000 0.000000 0.000000 0.000000 0.000000 0.038777
#
#
# Mechanical properties :
#
#
# Convention : Reuss Voigt Hill
#
# Bulk Modulus (GPa) = 40.36347 49.73776 45.05061
# Shear Modulus (GPa) = 20.82480 23.88958 22.35719
#
# Velocity S-wave (km/s) = 3.41212 3.65458 3.53543
# Velocity P-wave (km/s) = 6.17167 6.75389 6.46933
#
# Compressibility (1/GPa) = 0.02477488
#
# Stress axis : x y z
#
# Youngs Moduli (GPa) = 93.72495 45.44825 67.12046
#
# Poissons Ratio (x) = 0.33658 0.18954
# Poissons Ratio (y) = 0.69410 0.07843
# Poissons Ratio (z) = 0.26467 0.05311
#
# Static dielectric constant tensor:
#      x y z
#    x 1.608980 0.000000 0.000000 
#    y 0.000000 1.593410 0.000000 
#    z 0.000000 0.000000 1.623100 
# 
# From -- ./inp_files/61157.got.cif
#   From: 2010.05.17/outbox.cif.g08.bks.cpg/sg63_31_cif.got.tgz:61157.got - 2010.06.03 15:47:04.
