data_PCOD9473573
_publ_section_title
;
Structure prediction by ZEFSAII (Michael W. Deem and Ramdas Pophale) SiO2 
 PCOD9473573
Probable space group: C M C M
;
_chemical_formula_sum "Si O2"
_cell_formula_units_Z 112
_cell_length_a 31.721400
_cell_length_b 11.866013
_cell_length_c 14.768808
_cell_angle_alpha 90.000000
_cell_angle_beta 90.000000
_cell_angle_gamma 90.000000
_cell_volume 5559.075990
_symmetry_space_group_name_H-M "C M C M"
_symmetry_group_IT_number 63
_symmetry_cell_setting 'orthorhombic'
loop_
_space_group_symop_operation_xyz
x,y,z
-x,-y,1/2+z
x,-y,-z
-x,y,1/2-z
-x,-y,-z
x,y,1/2-z
-x,y,z
x,-y,1/2+z
1/2+x,1/2+y,z
1/2-x,1/2-y,1/2+z
1/2+x,1/2-y,-z
1/2-x,1/2+y,1/2-z
1/2-x,1/2-y,-z
1/2+x,1/2+y,1/2-z
1/2-x,1/2+y,z
1/2+x,1/2-y,1/2+z
loop_
_atom_site_type_symbol
_atom_site_label
_atom_site_fract_x
_atom_site_fract_y
_atom_site_fract_z
Si Si1 0.419291 0.620552 0.978362
Si Si2 0.452210 0.182925 0.142857
Si Si3 0.671754 0.392640 0.102892
Si Si4 0.877982 0.253498 0.145195
Si Si5 0.299369 0.849087 0.851726
Si Si6 0.796040 0.870740 0.899325
Si Si7 0.622281 0.013837 0.360106
O O1 0.445937 0.708608 0.920349
O O2 0.377698 0.594122 0.917355
O O3 0.439597 0.500000 0.000000
O O4 0.402481 0.677780 0.071498
O O5 0.445323 0.210042 0.250000
O O6 0.500000 0.140209 0.134348
O O7 0.417496 0.090724 0.114870
O O8 0.681076 0.275827 0.151405
O O9 0.691486 0.507018 0.141359
O O10 0.692534 0.376971 0.004603
O O11 0.892176 0.239814 0.250000
O O12 0.828538 0.219364 0.141351
O O13 0.882307 0.383524 0.116303
O O14 0.292394 0.890909 0.750000
O O15 0.253076 0.845904 0.892880
O O16 0.334668 0.929186 0.895556
O O17 0.624359 0.017680 0.250000
#
# Coordination Sequence:
#
# PCOD9473573 Si02
#       7
#    16  16  16  16  16  16  16
#     4  11  21  41  63  92 124 157 205 248 300 363
#     4  10  22  43  70  95 120 153 195 248 306 362
#     4  10  20  39  54  80 117 158 202 252 300 347
#     4  10  21  38  59  86 124 165 202 245 297 356
#     4  11  22  34  54  82 115 155 205 255 294 347
#     4  10  21  37  53  80 116 159 206 247 296 350
#     4   9  20  38  58  87 120 152 198 251 302 358
#
# _framework density 20.147233
#
# number of rings (size 3 to 8) (size 9 to 14) (size 15 to 20)
#    0.000    1.857    4.286    0.857    2.000    2.571 
#    2.571    1.429    0.000    1.286    0.000    0.000 
#    0.000    0.000    0.000    0.000    0.000    0.000 
#
# Total GULP energy -312560.908353 kJ/mol
# GULP energy per Si atom -5581.444792 kJ/mol
# Density = 2.010138 g / cm^3
# Si number density = 20.147233 Si / 1000 Ang^3
#
#
#
# Elastic Constant Matrix: (Units=GPa)
#
#
# Indices 1 2 3 4 5 6 
#
# 1 68.9851 26.0817 24.1805 0.0000 0.0000 0.0000
# 2 26.0817 132.7093 22.2584 0.0000 0.0000 0.0000
# 3 24.1805 22.2584 63.8715 0.0000 0.0000 0.0000
# 4 0.0000 0.0000 0.0000 29.0970 0.0000 0.0000
# 5 0.0000 0.0000 0.0000 0.0000 8.4617 0.0000
# 6 0.0000 0.0000 0.0000 0.0000 0.0000 -1.0908
#
#
#
# Elastic Compliance Matrix: (Units=1/GPa)
#
#
# Indices 1 2 3 4 5 6 
#
# 1 0.017441 -0.002464 -0.005744 0.000000 0.000000 0.000000
# 2 -0.002464 0.008351 -0.001977 0.000000 0.000000 0.000000
# 3 -0.005744 -0.001977 0.018520 0.000000 0.000000 0.000000
# 4 0.000000 0.000000 0.000000 0.034368 0.000000 0.000000
# 5 0.000000 0.000000 0.000000 0.000000 0.118179 0.000000
# 6 0.000000 0.000000 0.000000 0.000000 0.000000 -0.916773
#
#
# Mechanical properties :
#
#
# Convention : Reuss Voigt Hill
#
# Bulk Modulus (GPa) = 41.76954 45.62303 43.69628
# Shear Modulus (GPa) = -7.23001 20.16326 6.46663
#
# Velocity S-wave (km/s) = -1.89641 3.16697 1.79350
# Velocity P-wave (km/s) = 3.99775 6.00557 5.10141
#
# Compressibility (1/GPa) = 0.02394089
#
# Stress axis : x y z
#
# Youngs Moduli (GPa) = 57.33624 119.74278 53.99541
#
# Poissons Ratio (x) = 0.29508 0.31015
# Poissons Ratio (y) = 0.14129 0.10677
# Poissons Ratio (z) = 0.32934 0.23677
#
# Static dielectric constant tensor:
#      x y z
#    x 1.691500 0.000000 0.000000 
#    y 0.000000 1.729430 0.000000 
#    z 0.000000 0.000000 1.755620 
# 
# From -- ./inp_files/38590.got.cif
#   From: 2010.05.17/outbox.cif.g08.bks.cpg/sg63_20_cif.got.tgz:38590.got - 2010.06.03 15:47:04.
