data_PCOD9473330
_publ_section_title
;
Structure prediction by ZEFSAII (Michael W. Deem and Ramdas Pophale) SiO2 
 PCOD9473330
Probable space group: C M C M
;
_chemical_formula_sum "Si O2"
_cell_formula_units_Z 80
_cell_length_a 16.587150
_cell_length_b 27.867332
_cell_length_c 9.023223
_cell_angle_alpha 90.000000
_cell_angle_beta 90.000000
_cell_angle_gamma 90.000000
_cell_volume 4170.891134
_symmetry_space_group_name_H-M "C M C M"
_symmetry_group_IT_number 63
_symmetry_cell_setting 'orthorhombic'
loop_
_space_group_symop_operation_xyz
x,y,z
-x,-y,1/2+z
x,-y,-z
-x,y,1/2-z
-x,-y,-z
x,y,1/2-z
-x,y,z
x,-y,1/2+z
1/2+x,1/2+y,z
1/2-x,1/2-y,1/2+z
1/2+x,1/2-y,-z
1/2-x,1/2+y,1/2-z
1/2-x,1/2-y,-z
1/2+x,1/2+y,1/2-z
1/2-x,1/2+y,z
1/2+x,1/2-y,1/2+z
loop_
_atom_site_type_symbol
_atom_site_label
_atom_site_fract_x
_atom_site_fract_y
_atom_site_fract_z
Si Si1 0.684163 0.714555 0.069684
Si Si2 0.633473 0.450463 0.075393
Si Si3 0.000000 0.779489 0.916642
Si Si4 0.740545 0.890138 0.573515
Si Si5 0.407601 0.050543 0.427136
Si Si6 0.500000 0.393318 0.583530
O O1 0.683263 0.717225 0.250000
O O2 0.591639 0.727967 0.019597
O O3 0.718453 0.660839 0.033314
O O4 0.750000 0.750000 0.000000
O O5 0.628392 0.454164 0.250000
O O6 0.610129 0.500000 0.000000
O O7 0.718999 0.432874 0.018242
O O8 0.575279 0.410663 0.008796
O O9 0.000000 0.836870 0.903160
O O10 0.000000 0.758068 0.750000
O O11 0.756105 0.896434 0.750000
O O12 0.646606 0.901959 0.546088
O O13 0.405628 0.042979 0.250000
O O14 0.500000 0.058500 0.474434
O O15 0.380508 0.000000 0.500000
O O16 0.500000 0.413995 0.750000
#
# Coordination Sequence:
#
# PCOD9473330 Si02
#       6
#    16  16   8  16  16   8
#     4  10  21  40  63  89 116 151 192 242 301 360
#     4  12  24  36  53  83 119 155 195 237 281 335
#     4   9  18  38  66  85 113 156 193 231 298 363
#     4  10  20  37  59  82 112 151 194 240 294 351
#     4   9  18  33  54  80 111 149 192 238 286 342
#     4  11  20  38  61  81 112 156 196 233 279 335
#
# _framework density 19.180554000000001
#
# number of rings (size 3 to 8) (size 9 to 14) (size 15 to 20)
#    0.000    1.800    2.000    3.000    0.000    3.200 
#    1.800    0.500    0.000    0.000    0.000    0.000 
#    0.000    0.000    0.000    0.000    0.000    0.000 
#
# Total GULP energy -222670.284622 kJ/mol
# GULP energy per Si atom -5566.757116 kJ/mol
# Density = 1.913690 g / cm^3
# Si number density = 19.180554 Si / 1000 Ang^3
#
#
#
# Elastic Constant Matrix: (Units=GPa)
#
#
# Indices 1 2 3 4 5 6 
#
# 1 141.9437 38.7527 24.5866 0.0000 0.0000 0.0000
# 2 38.7527 48.0849 13.9982 0.0000 0.0000 0.0000
# 3 24.5866 13.9982 41.0937 0.0000 0.0000 0.0000
# 4 0.0000 0.0000 0.0000 23.4287 0.0000 0.0000
# 5 0.0000 0.0000 0.0000 0.0000 38.9786 0.0000
# 6 0.0000 0.0000 0.0000 0.0000 0.0000 38.8145
#
#
#
# Elastic Compliance Matrix: (Units=1/GPa)
#
#
# Indices 1 2 3 4 5 6 
#
# 1 0.009440 -0.006620 -0.003393 0.000000 0.000000 0.000000
# 2 -0.006620 0.027729 -0.005485 0.000000 0.000000 0.000000
# 3 -0.003393 -0.005485 0.028233 0.000000 0.000000 0.000000
# 4 0.000000 0.000000 0.000000 0.042683 0.000000 0.000000
# 5 0.000000 0.000000 0.000000 0.000000 0.025655 0.000000
# 6 0.000000 0.000000 0.000000 0.000000 0.000000 0.025764
#
#
# Mechanical properties :
#
#
# Convention : Reuss Voigt Hill
#
# Bulk Modulus (GPa) = 29.06461 42.86637 35.96549
# Shear Modulus (GPa) = 24.75642 30.49665 27.62654
#
# Velocity S-wave (km/s) = 3.59653 3.99178 3.79930
# Velocity P-wave (km/s) = 5.69498 6.60629 6.16749
#
# Compressibility (1/GPa) = 0.03440610
#
# Stress axis : x y z
#
# Youngs Moduli (GPa) = 105.92993 36.06372 35.41958
#
# Poissons Ratio (x) = 0.23875 0.12018
# Poissons Ratio (y) = 0.70129 0.19426
# Poissons Ratio (z) = 0.35942 0.19779
#
# Static dielectric constant tensor:
#      x y z
#    x 1.752420 0.000000 0.000000 
#    y 0.000000 1.657220 0.000000 
#    z 0.000000 0.000000 1.646250 
# 
# From -- ./inp_files/6501.got.cif
#   From: 2010.05.17/outbox.cif.g08.bks.cpg/sg63_4_cif.got.tgz:6501.got - 2010.06.03 15:47:04.
