data_PCOD9473290
_publ_section_title
;
Structure prediction by ZEFSAII (Michael W. Deem and Ramdas Pophale) SiO2 
 PCOD9473290
Probable space group: C M C M
;
_chemical_formula_sum "Si O2"
_cell_formula_units_Z 88
_cell_length_a 10.817915
_cell_length_b 26.714742
_cell_length_c 14.940012
_cell_angle_alpha 90.000000
_cell_angle_beta 90.000000
_cell_angle_gamma 90.000000
_cell_volume 4317.630723
_symmetry_space_group_name_H-M "C M C M"
_symmetry_group_IT_number 63
_symmetry_cell_setting 'orthorhombic'
loop_
_space_group_symop_operation_xyz
x,y,z
-x,-y,1/2+z
x,-y,-z
-x,y,1/2-z
-x,-y,-z
x,y,1/2-z
-x,y,z
x,-y,1/2+z
1/2+x,1/2+y,z
1/2-x,1/2-y,1/2+z
1/2+x,1/2-y,-z
1/2-x,1/2+y,1/2-z
1/2-x,1/2-y,-z
1/2+x,1/2+y,1/2-z
1/2-x,1/2+y,z
1/2+x,1/2-y,1/2+z
loop_
_atom_site_type_symbol
_atom_site_label
_atom_site_fract_x
_atom_site_fract_y
_atom_site_fract_z
Si Si1 0.638919 0.773638 0.943565
Si Si2 0.500000 0.700132 0.845346
Si Si3 0.000000 0.020649 0.644024
Si Si4 0.730515 0.118626 0.460797
Si Si5 0.000000 0.885662 0.007987
Si Si6 0.270227 0.023249 0.146383
Si Si7 0.144801 0.589499 0.850142
O O1 0.500000 0.772504 0.987162
O O2 0.615745 0.737442 0.859306
O O3 0.670674 0.831016 0.923817
O O4 0.750000 0.750000 0.000000
O O5 0.500000 0.674979 0.750000
O O6 0.500000 0.661119 0.925006
O O7 0.000000 0.036193 0.750000
O O8 0.000000 0.065747 0.572768
O O9 0.125545 0.989565 0.629345
O O10 0.877486 0.117794 0.449247
O O11 0.683010 0.067350 0.416993
O O12 0.709251 0.116988 0.567831
O O13 0.283223 0.038484 0.250000
O O14 0.337239 0.969991 0.135371
O O15 0.194082 0.600535 0.750000
O O16 0.000000 0.601274 0.852077
#
# Coordination Sequence:
#
# PCOD9473290 Si02
#       7
#    16   8   8  16   8  16  16
#     4  10  22  43  65  94 126 164 208 268 331 388
#     4  10  23  43  69  97 125 160 215 279 329 382
#     4  10  20  37  56  88 130 162 207 264 311 375
#     4  12  22  37  63  90 123 166 211 256 325 386
#     4  12  22  34  66  97 120 164 213 264 322 388
#     4  10  22  37  56  85 126 167 209 257 311 380
#     4  10  22  38  55  82 119 159 207 262 314 380
#
# _framework density 20.381550000000001
#
# number of rings (size 3 to 8) (size 9 to 14) (size 15 to 20)
#    0.545    0.909    3.636    1.909    0.000    4.364 
#    0.000    0.000    0.000    0.545    0.000    0.000 
#    0.000    0.000    0.000    0.000    0.000    0.000 
#
# Total GULP energy -245553.009090 kJ/mol
# GULP energy per Si atom -5580.750207 kJ/mol
# Density = 2.033516 g / cm^3
# Si number density = 20.381550 Si / 1000 Ang^3
#
#
#
# Elastic Constant Matrix: (Units=GPa)
#
#
# Indices 1 2 3 4 5 6 
#
# 1 79.1993 -6.9653 -3.9556 0.0000 0.0000 0.0000
# 2 -6.9653 66.0669 10.0531 0.0000 0.0000 0.0000
# 3 -3.9556 10.0531 32.7451 0.0000 0.0000 0.0000
# 4 0.0000 0.0000 0.0000 12.3593 0.0000 0.0000
# 5 0.0000 0.0000 0.0000 0.0000 10.3887 0.0000
# 6 0.0000 0.0000 0.0000 0.0000 0.0000 22.0027
#
#
#
# Elastic Compliance Matrix: (Units=1/GPa)
#
#
# Indices 1 2 3 4 5 6 
#
# 1 0.012788 0.001168 0.001186 0.000000 0.000000 0.000000
# 2 0.001168 0.015985 -0.004766 0.000000 0.000000 0.000000
# 3 0.001186 -0.004766 0.032146 0.000000 0.000000 0.000000
# 4 0.000000 0.000000 0.000000 0.080911 0.000000 0.000000
# 5 0.000000 0.000000 0.000000 0.000000 0.096259 0.000000
# 6 0.000000 0.000000 0.000000 0.000000 0.000000 0.045449
#
#
# Mechanical properties :
#
#
# Convention : Reuss Voigt Hill
#
# Bulk Modulus (GPa) = 17.82730 19.58621 18.70676
# Shear Modulus (GPa) = 16.28351 20.87542 18.57946
#
# Velocity S-wave (km/s) = 2.82961 3.20383 3.02252
# Velocity P-wave (km/s) = 4.40923 4.82874 4.62375
#
# Compressibility (1/GPa) = 0.05609373
#
# Stress axis : x y z
#
# Youngs Moduli (GPa) = 78.19638 62.56036 31.10848
#
# Poissons Ratio (x) = -0.07305 -0.03690
# Poissons Ratio (y) = -0.09131 0.14828
# Poissons Ratio (z) = -0.09276 0.29819
#
# Static dielectric constant tensor:
#      x y z
#    x 1.770420 0.000000 0.000000 
#    y 0.000000 1.722830 0.000000 
#    z 0.000000 0.000000 1.732220 
# 
# From -- ./inp_files/30163.got.cif
#   From: 2010.05.17/outbox.cif.g08.bks.cpg/sg63_16_cif.got.tgz:30163.got - 2010.06.03 15:47:04.
