data_PCOD9473210
_publ_section_title
;
Structure prediction by ZEFSAII (Michael W. Deem and Ramdas Pophale) SiO2 
 PCOD9473210
Probable space group: C M C M
;
_chemical_formula_sum "Si O2"
_cell_formula_units_Z 96
_cell_length_a 17.318930
_cell_length_b 8.425219
_cell_length_c 27.628731
_cell_angle_alpha 90.000000
_cell_angle_beta 90.000000
_cell_angle_gamma 90.000000
_cell_volume 4031.467782
_symmetry_space_group_name_H-M "C M C M"
_symmetry_group_IT_number 63
_symmetry_cell_setting 'orthorhombic'
loop_
_space_group_symop_operation_xyz
x,y,z
-x,-y,1/2+z
x,-y,-z
-x,y,1/2-z
-x,-y,-z
x,y,1/2-z
-x,y,z
x,-y,1/2+z
1/2+x,1/2+y,z
1/2-x,1/2-y,1/2+z
1/2+x,1/2-y,-z
1/2-x,1/2+y,1/2-z
1/2-x,1/2-y,-z
1/2+x,1/2+y,1/2-z
1/2-x,1/2+y,z
1/2+x,1/2-y,1/2+z
loop_
_atom_site_type_symbol
_atom_site_label
_atom_site_fract_x
_atom_site_fract_y
_atom_site_fract_z
Si Si1 0.356880 0.822014 0.615821
Si Si2 0.908585 0.359295 0.063361
Si Si3 0.413332 0.741321 0.335530
Si Si4 0.215762 0.515005 0.696121
Si Si5 0.906983 0.832306 0.472792
Si Si6 0.608722 0.614372 0.696291
O O1 0.354229 0.685967 0.574918
O O2 0.411842 0.744571 0.656517
O O3 0.385572 0.971340 0.584680
O O4 0.290994 0.897927 0.650088
O O5 0.892386 0.238999 0.107533
O O6 0.000000 0.361707 0.056126
O O7 0.878808 0.297064 0.012338
O O8 0.500000 0.810338 0.331631
O O9 0.351806 0.854917 0.309888
O O10 0.416063 0.564479 0.315403
O O11 0.208600 0.440843 0.750000
O O12 0.298503 0.596479 0.694431
O O13 0.000000 0.810945 0.460867
O O14 0.901462 0.000000 0.500000
O O15 0.584927 0.658346 0.750000
#
# Coordination Sequence:
#
# PCOD9473210 Si02
#       6
#    16  16  16  16  16  16
#     4  11  21  34  59  87 114 150 204 256 297 353
#     4   9  19  36  58  86 121 159 199 248 311 376
#     4  10  21  38  62  90 120 157 207 264 313 363
#     4  10  22  41  62  85 119 165 210 252 312 387
#     4  10  20  36  60  88 120 160 203 247 305 380
#     4  11  23  39  60  87 122 165 208 252 312 385
#
# _framework density 23.812667999999999
#
# number of rings (size 3 to 8) (size 9 to 14) (size 15 to 20)
#    0.000    1.833    0.000    4.000    0.000    8.667 
#    0.000    0.000    0.000   31.000    0.000    0.000 
#    0.000    0.000    0.000    0.000    0.000    0.000 
#
# Total GULP energy -268004.823994 kJ/mol
# GULP energy per Si atom -5583.433833 kJ/mol
# Density = 2.375847 g / cm^3
# Si number density = 23.812668 Si / 1000 Ang^3
#
#
#
# Elastic Constant Matrix: (Units=GPa)
#
#
# Indices 1 2 3 4 5 6 
#
# 1 88.9034 15.3367 30.9560 0.0000 0.0000 0.0000
# 2 15.3367 93.7388 47.5895 0.0000 0.0000 0.0000
# 3 30.9560 47.5895 186.4353 0.0000 0.0000 0.0000
# 4 0.0000 0.0000 0.0000 51.6505 0.0000 0.0000
# 5 0.0000 0.0000 0.0000 0.0000 11.1197 0.0000
# 6 0.0000 0.0000 0.0000 0.0000 0.0000 17.7405
#
#
#
# Elastic Compliance Matrix: (Units=1/GPa)
#
#
# Indices 1 2 3 4 5 6 
#
# 1 0.012036 -0.001097 -0.001718 0.000000 0.000000 0.000000
# 2 -0.001097 0.012356 -0.002972 0.000000 0.000000 0.000000
# 3 -0.001718 -0.002972 0.006408 0.000000 0.000000 0.000000
# 4 0.000000 0.000000 0.000000 0.019361 0.000000 0.000000
# 5 0.000000 0.000000 0.000000 0.000000 0.089930 0.000000
# 6 0.000000 0.000000 0.000000 0.000000 0.000000 0.056368
#
#
# Mechanical properties :
#
#
# Convention : Reuss Voigt Hill
#
# Bulk Modulus (GPa) = 52.01465 61.87132 56.94299
# Shear Modulus (GPa) = 23.31634 34.44850 28.88242
#
# Velocity S-wave (km/s) = 3.13254 3.80761 3.48645
# Velocity P-wave (km/s) = 5.91392 6.73568 6.33813
#
# Compressibility (1/GPa) = 0.01922535
#
# Stress axis : x y z
#
# Youngs Moduli (GPa) = 83.08588 80.93116 156.06114
#
# Poissons Ratio (x) = 0.08876 0.26819
# Poissons Ratio (y) = 0.09112 0.46380
# Poissons Ratio (z) = 0.14278 0.24052
#
# Static dielectric constant tensor:
#      x y z
#    x 1.912650 0.000000 0.000000 
#    y 0.000000 1.957350 0.000000 
#    z 0.000000 0.000000 1.928260 
# 
# From -- ./inp_files/70310.got.cif
#   From: 2010.05.17/outbox.cif.g08.bks.cpg/sg63_36_cif.got.tgz:70310.got - 2010.06.03 15:47:04.
