data_PCOD9473056
_publ_section_title
;
Structure prediction by ZEFSAII (Michael W. Deem and Ramdas Pophale) SiO2 
 PCOD9473056
Probable space group: C M C M
;
_chemical_formula_sum "Si O2"
_cell_formula_units_Z 96
_cell_length_a 8.495974
_cell_length_b 21.158223
_cell_length_c 25.233495
_cell_angle_alpha 90.000000
_cell_angle_beta 90.000000
_cell_angle_gamma 90.000000
_cell_volume 4535.965806
_symmetry_space_group_name_H-M "C M C M"
_symmetry_group_IT_number 63
_symmetry_cell_setting 'orthorhombic'
loop_
_space_group_symop_operation_xyz
x,y,z
-x,-y,1/2+z
x,-y,-z
-x,y,1/2-z
-x,-y,-z
x,y,1/2-z
-x,y,z
x,-y,1/2+z
1/2+x,1/2+y,z
1/2-x,1/2-y,1/2+z
1/2+x,1/2-y,-z
1/2-x,1/2+y,1/2-z
1/2-x,1/2-y,-z
1/2+x,1/2+y,1/2-z
1/2-x,1/2+y,z
1/2+x,1/2-y,1/2+z
loop_
_atom_site_type_symbol
_atom_site_label
_atom_site_fract_x
_atom_site_fract_y
_atom_site_fract_z
Si Si1 0.310890 0.102045 0.386593
Si Si2 0.181417 0.268214 0.841895
Si Si3 0.314269 0.468199 0.111032
Si Si4 0.318436 0.914410 0.492835
Si Si5 0.319485 0.777126 0.446854
Si Si6 0.313550 0.863307 0.309433
O O1 0.500000 0.109702 0.388433
O O2 0.254829 0.159976 0.349178
O O3 0.253593 0.103336 0.448519
O O4 0.266933 0.032090 0.367681
O O5 0.199864 0.243155 0.901747
O O6 0.268307 0.211055 0.812244
O O7 0.000000 0.270249 0.824349
O O8 0.500000 0.475610 0.112622
O O9 0.267612 0.408015 0.147046
O O10 0.263431 0.461034 0.049089
O O11 0.500000 0.933172 0.501089
O O12 0.321967 0.851050 0.457869
O O13 0.500000 0.756806 0.435208
O O14 0.250000 0.750000 0.500000
O O15 0.275602 0.885785 0.250000
O O16 0.500000 0.867734 0.318488
#
# Coordination Sequence:
#
# PCOD9473056 Si02
#       6
#    16  16  16  16  16  16
#     4  10  22  40  60  87 128 172 206 240 295 363
#     4  11  22  39  63  92 122 156 202 252 305 362
#     4  12  25  39  60  92 126 162 208 256 304 357
#     4  10  20  36  57  84 124 172 212 245 292 356
#     4  11  20  32  54  85 124 166 206 247 295 350
#     4  11  25  46  70  92 116 153 201 253 313 374
#
# _framework density 21.164180000000002
#
# number of rings (size 3 to 8) (size 9 to 14) (size 15 to 20)
#    0.000    1.167    3.333    3.500    0.000    6.000 
#    0.000    0.833    0.000    1.000    0.000    0.000 
#    0.000    0.000    0.000    0.000    0.000    0.000 
#
# Total GULP energy -267724.353740 kJ/mol
# GULP energy per Si atom -5577.590703 kJ/mol
# Density = 2.111601 g / cm^3
# Si number density = 21.164180 Si / 1000 Ang^3
#
#
#
# Elastic Constant Matrix: (Units=GPa)
#
#
# Indices 1 2 3 4 5 6 
#
# 1 26.8986 4.6537 6.2273 0.0000 0.0000 0.0000
# 2 4.6537 121.0457 8.1321 0.0000 0.0000 0.0000
# 3 6.2273 8.1321 64.1822 0.0000 0.0000 0.0000
# 4 0.0000 0.0000 0.0000 21.7780 0.0000 0.0000
# 5 0.0000 0.0000 0.0000 0.0000 16.3374 0.0000
# 6 0.0000 0.0000 0.0000 0.0000 0.0000 27.5662
#
#
#
# Elastic Compliance Matrix: (Units=1/GPa)
#
#
# Indices 1 2 3 4 5 6 
#
# 1 0.038212 -0.001230 -0.003552 0.000000 0.000000 0.000000
# 2 -0.001230 0.008372 -0.000941 0.000000 0.000000 0.000000
# 3 -0.003552 -0.000941 0.016045 0.000000 0.000000 0.000000
# 4 0.000000 0.000000 0.000000 0.045918 0.000000 0.000000
# 5 0.000000 0.000000 0.000000 0.000000 0.061209 0.000000
# 6 0.000000 0.000000 0.000000 0.000000 0.000000 0.036276
#
#
# Mechanical properties :
#
#
# Convention : Reuss Voigt Hill
#
# Bulk Modulus (GPa) = 19.53836 27.79474 23.66655
# Shear Modulus (GPa) = 21.31841 26.01055 23.66448
#
# Velocity S-wave (km/s) = 3.17722 3.50950 3.34749
# Velocity P-wave (km/s) = 4.76566 5.43907 5.11346
#
# Compressibility (1/GPa) = 0.05118136
#
# Stress axis : x y z
#
# Youngs Moduli (GPa) = 26.16990 119.44735 62.32661
#
# Poissons Ratio (x) = 0.14698 0.22136
# Poissons Ratio (y) = 0.03220 0.05867
# Poissons Ratio (z) = 0.09295 0.11244
#
# Static dielectric constant tensor:
#      x y z
#    x 1.737960 0.000000 0.000000 
#    y 0.000000 1.793210 0.000000 
#    z 0.000000 0.000000 1.719180 
# 
# From -- ./inp_files/66910.got.cif
#   From: 2010.05.17/outbox.cif.g08.bks.cpg/sg63_34_cif.got.tgz:66910.got - 2010.06.03 15:47:04.
