data_PCOD9473215
_publ_section_title
;
Structure prediction by ZEFSAII (Michael W. Deem and Ramdas Pophale) SiO2 
 PCOD9473215
Probable space group: C M C M
;
_chemical_formula_sum "Si O2"
_cell_formula_units_Z 72
_cell_length_a 17.230213
_cell_length_b 25.167748
_cell_length_c 8.613254
_cell_angle_alpha 90.000000
_cell_angle_beta 90.000000
_cell_angle_gamma 90.000000
_cell_volume 3735.100205
_symmetry_space_group_name_H-M "C M C M"
_symmetry_group_IT_number 63
_symmetry_cell_setting 'orthorhombic'
loop_
_space_group_symop_operation_xyz
x,y,z
-x,-y,1/2+z
x,-y,-z
-x,y,1/2-z
-x,-y,-z
x,y,1/2-z
-x,y,z
x,-y,1/2+z
1/2+x,1/2+y,z
1/2-x,1/2-y,1/2+z
1/2+x,1/2-y,-z
1/2-x,1/2+y,1/2-z
1/2-x,1/2-y,-z
1/2+x,1/2+y,1/2-z
1/2-x,1/2+y,z
1/2+x,1/2-y,1/2+z
loop_
_atom_site_type_symbol
_atom_site_label
_atom_site_fract_x
_atom_site_fract_y
_atom_site_fract_z
Si Si1 0.500000 0.940129 0.435059
Si Si2 0.089887 0.942316 0.435856
Si Si3 0.874595 0.640872 0.063923
Si Si4 0.086130 0.244663 0.063359
Si Si5 0.696230 0.349095 0.562700
O O1 0.500000 0.942014 0.250000
O O2 0.574575 0.906381 0.492281
O O3 0.500000 0.000000 0.500000
O O4 0.094577 0.942342 0.250000
O O5 0.143828 0.897214 0.505070
O O6 0.000000 0.933113 0.481182
O O7 0.112467 0.000000 0.500000
O O8 0.877702 0.635999 0.250000
O O9 0.784734 0.642430 0.012017
O O10 0.907913 0.697865 0.013468
O O11 0.092130 0.250989 0.250000
O O12 0.154436 0.205357 0.009710
O O13 0.000000 0.221812 0.030598
O O14 0.696015 0.347922 0.750000
#
# Coordination Sequence:
#
# PCOD9473215 Si02
#       5
#     8  16  16  16  16
#     4  12  26  46  70  92 118 158 207 258 315 374
#     4  10  21  37  58  84 116 156 200 246 298 355
#     4  11  23  40  62  90 123 158 200 251 305 362
#     4  10  20  36  60  89 124 165 203 242 298 360
#     4  10  22  38  59  89 124 161 201 247 302 363
#
# _framework density 19.276592000000001
#
# number of rings (size 3 to 8) (size 9 to 14) (size 15 to 20)
#    0.000    1.556    1.111    3.667    0.000    5.778 
#    0.000    0.000    0.000    0.000    0.000    0.000 
#    0.000    0.000    0.000    0.000    0.000    0.000 
#
# Total GULP energy -201184.372162 kJ/mol
# GULP energy per Si atom -5588.454782 kJ/mol
# Density = 1.923272 g / cm^3
# Si number density = 19.276592 Si / 1000 Ang^3
#
#
#
# Elastic Constant Matrix: (Units=GPa)
#
#
# Indices 1 2 3 4 5 6 
#
# 1 133.7752 95.4801 44.2901 0.0000 0.0000 0.0000
# 2 95.4801 154.6310 34.1660 0.0000 0.0000 0.0000
# 3 44.2901 34.1660 34.4168 0.0000 0.0000 0.0000
# 4 0.0000 0.0000 0.0000 38.1837 0.0000 0.0000
# 5 0.0000 0.0000 0.0000 0.0000 22.1283 0.0000
# 6 0.0000 0.0000 0.0000 0.0000 0.0000 -951.5135
#
#
#
# Elastic Compliance Matrix: (Units=1/GPa)
#
#
# Indices 1 2 3 4 5 6 
#
# 1 0.018249 -0.007788 -0.015754 0.000000 0.000000 0.000000
# 2 -0.007788 0.011607 -0.001501 0.000000 0.000000 0.000000
# 3 -0.015754 -0.001501 0.050819 0.000000 0.000000 0.000000
# 4 0.000000 0.000000 0.000000 0.026189 0.000000 0.000000
# 5 0.000000 0.000000 0.000000 0.000000 0.045191 0.000000
# 6 0.000000 0.000000 0.000000 0.000000 0.000000 -0.001051
#
#
# Mechanical properties :
#
#
# Convention : Reuss Voigt Hill
#
# Bulk Modulus (GPa) = 32.68972 74.52171 53.60572
# Shear Modulus (GPa) = 23.66463 -168.31451 -72.32494
#
# Velocity S-wave (km/s) = 3.50756 -9.35441 -6.13197
# Velocity P-wave (km/s) = 5.77919 8.82781 4.71865
#
# Compressibility (1/GPa) = 0.03059065
#
# Stress axis : x y z
#
# Youngs Moduli (GPa) = 54.79708 86.15310 19.67778
#
# Poissons Ratio (x) = 0.67092 0.31000
# Poissons Ratio (y) = 0.42673 0.02954
# Poissons Ratio (z) = 0.86325 0.12932
#
# Static dielectric constant tensor:
#      x y z
#    x 1.694870 0.000000 0.000000 
#    y 0.000000 1.632620 0.000000 
#    z 0.000000 0.000000 1.646840 
# 
# From -- ./inp_files/4603.got.cif
#   From: 2010.05.17/outbox.cif.g08.bks.cpg/sg63_3_cif.got.tgz:4603.got - 2010.06.03 15:47:04.
