data_PCOD9473780
_publ_section_title
;
Structure prediction by ZEFSAII (Michael W. Deem and Ramdas Pophale) SiO2 
 PCOD9473780
Probable space group: C M C M
;
_chemical_formula_sum "Si O2"
_cell_formula_units_Z 64
_cell_length_a 11.802178
_cell_length_b 18.789845
_cell_length_c 15.718384
_cell_angle_alpha 90.000000
_cell_angle_beta 90.000000
_cell_angle_gamma 90.000000
_cell_volume 3485.726052
_symmetry_space_group_name_H-M "C M C M"
_symmetry_group_IT_number 63
_symmetry_cell_setting 'orthorhombic'
loop_
_space_group_symop_operation_xyz
x,y,z
-x,-y,1/2+z
x,-y,-z
-x,y,1/2-z
-x,-y,-z
x,y,1/2-z
-x,y,z
x,-y,1/2+z
1/2+x,1/2+y,z
1/2-x,1/2-y,1/2+z
1/2+x,1/2-y,-z
1/2-x,1/2+y,1/2-z
1/2-x,1/2-y,-z
1/2+x,1/2+y,1/2-z
1/2-x,1/2+y,z
1/2+x,1/2-y,1/2+z
loop_
_atom_site_type_symbol
_atom_site_label
_atom_site_fract_x
_atom_site_fract_y
_atom_site_fract_z
Si Si1 0.253724 0.200211 0.917206
Si Si2 0.214083 0.078794 0.467690
Si Si3 0.500000 0.389029 0.648382
Si Si4 0.366657 0.170183 0.154698
Si Si5 0.500000 0.216654 0.650082
O O1 0.191263 0.251894 0.851156
O O2 0.383664 0.188584 0.890416
O O3 0.250000 0.250000 0.000000
O O4 0.195199 0.128170 0.948778
O O5 0.108549 0.082496 0.402882
O O6 0.314153 0.116896 0.414496
O O7 0.237885 0.000000 0.500000
O O8 0.500000 0.404767 0.750000
O O9 0.500000 0.302746 0.640063
O O10 0.346024 0.142145 0.250000
O O11 0.500000 0.178320 0.140595
O O12 0.500000 0.200888 0.750000
#
# Coordination Sequence:
#
# PCOD9473780 Si02
#       5
#    16  16   8  16   8
#     4  10  21  34  62  86 115 146 198 250 290 342
#     4  11  24  38  60  88 123 156 199 240 299 354
#     4  11  21  39  65  86 117 158 199 241 298 363
#     4  10  21  38  61  86 117 157 199 244 300 351
#     4  11  20  37  62  88 112 152 204 249 296 342
#
# _framework density 18.360593999999999
#
# number of rings (size 3 to 8) (size 9 to 14) (size 15 to 20)
#    0.000    1.500    5.000    1.875    8.750    0.500 
#    0.000    5.000    0.000    0.000    0.000    0.000 
#    0.000    0.000    0.000    0.000    0.000    0.000 
#
# Total GULP energy -178416.131460 kJ/mol
# GULP energy per Si atom -5575.504108 kJ/mol
# Density = 1.831880 g / cm^3
# Si number density = 18.360594 Si / 1000 Ang^3
#
#
#
# Elastic Constant Matrix: (Units=GPa)
#
#
# Indices 1 2 3 4 5 6 
#
# 1 100.6490 24.8327 55.3653 0.0000 0.0000 0.0000
# 2 24.8327 113.7920 36.5081 0.0000 0.0000 0.0000
# 3 55.3653 36.5081 94.0259 0.0000 0.0000 0.0000
# 4 0.0000 0.0000 0.0000 21.9355 0.0000 0.0000
# 5 0.0000 0.0000 0.0000 0.0000 31.9795 0.0000
# 6 0.0000 0.0000 0.0000 0.0000 0.0000 0.5346
#
#
#
# Elastic Compliance Matrix: (Units=1/GPa)
#
#
# Indices 1 2 3 4 5 6 
#
# 1 0.014720 -0.000493 -0.008476 0.000000 0.000000 0.000000
# 2 -0.000493 0.010055 -0.003614 0.000000 0.000000 0.000000
# 3 -0.008476 -0.003614 0.017029 0.000000 0.000000 0.000000
# 4 0.000000 0.000000 0.000000 0.045588 0.000000 0.000000
# 5 0.000000 0.000000 0.000000 0.000000 0.031270 0.000000
# 6 0.000000 0.000000 0.000000 0.000000 0.000000 1.870482
#
#
# Mechanical properties :
#
#
# Convention : Reuss Voigt Hill
#
# Bulk Modulus (GPa) = 60.10137 60.20879 60.15508
# Shear Modulus (GPa) = 2.47542 23.67398 13.07470
#
# Velocity S-wave (km/s) = 1.16239 3.59470 2.67143
# Velocity P-wave (km/s) = 5.88273 7.07763 6.50766
#
# Compressibility (1/GPa) = 0.01663856
#
# Stress axis : x y z
#
# Youngs Moduli (GPa) = 67.93649 99.45329 58.72170
#
# Poissons Ratio (x) = 0.04902 0.49772
# Poissons Ratio (y) = 0.03348 0.21221
# Poissons Ratio (z) = 0.57583 0.35941
#
# Static dielectric constant tensor:
#      x y z
#    x 1.630370 0.000000 0.000000 
#    y 0.000000 1.624230 0.000000 
#    z 0.000000 0.000000 1.682210 
# 
# From -- ./inp_files/29179.got.cif
#   From: 2010.05.17/outbox.cif.g08.bks.cpg/sg63_15_cif.got.tgz:29179.got - 2010.06.03 15:47:04.
