data_PCOD9473599
_publ_section_title
;
Structure prediction by ZEFSAII (Michael W. Deem and Ramdas Pophale) SiO2 
 PCOD9473599
Probable space group: C M C M
;
_chemical_formula_sum "Si O2"
_cell_formula_units_Z 64
_cell_length_a 18.160627
_cell_length_b 21.700822
_cell_length_c 8.493018
_cell_angle_alpha 90.000000
_cell_angle_beta 90.000000
_cell_angle_gamma 90.000000
_cell_volume 3347.102929
_symmetry_space_group_name_H-M "C M C M"
_symmetry_group_IT_number 63
_symmetry_cell_setting 'orthorhombic'
loop_
_space_group_symop_operation_xyz
x,y,z
-x,-y,1/2+z
x,-y,-z
-x,y,1/2-z
-x,-y,-z
x,y,1/2-z
-x,y,z
x,-y,1/2+z
1/2+x,1/2+y,z
1/2-x,1/2-y,1/2+z
1/2+x,1/2-y,-z
1/2-x,1/2+y,1/2-z
1/2-x,1/2-y,-z
1/2+x,1/2+y,1/2-z
1/2-x,1/2+y,z
1/2+x,1/2-y,1/2+z
loop_
_atom_site_type_symbol
_atom_site_label
_atom_site_fract_x
_atom_site_fract_y
_atom_site_fract_z
Si Si1 0.647097 0.130030 0.250000
Si Si2 0.581834 0.523949 0.750000
Si Si3 0.312973 0.592483 0.250000
Si Si4 0.081983 0.865924 0.497276
Si Si5 0.083051 0.757334 0.250000
Si Si6 0.088663 0.567180 0.565441
O O1 0.726212 0.097035 0.250000
O O2 0.642878 0.204040 0.250000
O O3 0.610856 0.110943 0.418627
O O4 0.500000 0.494304 0.750000
O O5 0.647093 0.474533 0.750000
O O6 0.584350 0.571353 0.605093
O O7 0.347903 0.628502 0.395073
O O8 0.087717 0.804513 0.394740
O O9 0.000000 0.864478 0.570024
O O10 0.000000 0.729416 0.250000
O O11 0.112180 0.500000 0.500000
O O12 0.114055 0.577309 0.750000
O O13 0.000000 0.567766 0.573548
#
# Coordination Sequence:
#
# PCOD9473599 Si02
#       6
#     8   8   8  16   8  16
#     4  12  25  39  58  94 134 164 197 245 318 385
#     4   9  18  36  61  85 115 157 201 253 306 354
#     4  12  23  33  54  92 126 160 187 245 322 377
#     4   9  19  38  62  85 112 156 211 258 299 353
#     4   9  20  42  65  81 111 161 211 261 304 352
#     4  10  20  39  65  87 114 159 214 267 309 352
#
# _framework density 19.121013999999999
#
# number of rings (size 3 to 8) (size 9 to 14) (size 15 to 20)
#    0.000    2.000    1.250    4.500    0.000    5.000 
#    6.750    0.000    0.000    0.000    0.000    0.000 
#    0.000    0.000    0.000    0.000    0.000    0.000 
#
# Total GULP energy -178135.685035 kJ/mol
# GULP energy per Si atom -5566.740157 kJ/mol
# Density = 1.907749 g / cm^3
# Si number density = 19.121014 Si / 1000 Ang^3
#
#
#
# Elastic Constant Matrix: (Units=GPa)
#
#
# Indices 1 2 3 4 5 6 
#
# 1 58.8565 28.9346 29.7268 0.0000 0.0000 0.0000
# 2 28.9346 107.7791 32.0478 0.0000 0.0000 0.0000
# 3 29.7268 32.0478 134.9891 0.0000 0.0000 0.0000
# 4 0.0000 0.0000 0.0000 -11.3120 0.0000 0.0000
# 5 0.0000 0.0000 0.0000 0.0000 35.6585 0.0000
# 6 0.0000 0.0000 0.0000 0.0000 0.0000 -1.2027
#
#
#
# Elastic Compliance Matrix: (Units=1/GPa)
#
#
# Indices 1 2 3 4 5 6 
#
# 1 0.021038 -0.004595 -0.003542 0.000000 0.000000 0.000000
# 2 -0.004595 0.010986 -0.001596 0.000000 0.000000 0.000000
# 3 -0.003542 -0.001596 0.008567 0.000000 0.000000 0.000000
# 4 0.000000 0.000000 0.000000 -0.088402 0.000000 0.000000
# 5 0.000000 0.000000 0.000000 0.000000 0.028044 0.000000
# 6 0.000000 0.000000 0.000000 0.000000 0.000000 -0.831441
#
#
# Mechanical properties :
#
#
# Convention : Reuss Voigt Hill
#
# Bulk Modulus (GPa) = 47.33691 53.67144 50.50418
# Shear Modulus (GPa) = -6.06282 18.68979 6.31349
#
# Velocity S-wave (km/s) = -1.78260 3.12981 1.81907
# Velocity P-wave (km/s) = 4.53579 6.41804 5.55718
#
# Compressibility (1/GPa) = 0.02112517
#
# Stress axis : x y z
#
# Youngs Moduli (GPa) = 47.53222 91.02111 116.72622
#
# Poissons Ratio (x) = 0.41822 0.41346
# Poissons Ratio (y) = 0.21840 0.18635
# Poissons Ratio (z) = 0.16837 0.14531
#
# Static dielectric constant tensor:
#      x y z
#    x 1.653520 0.000000 0.000000 
#    y 0.000000 1.653000 0.000000 
#    z 0.000000 0.000000 1.539250 
# 
# From -- ./inp_files/6064.got.cif
#   From: 2010.05.17/outbox.cif.g08.bks.cpg/sg63_4_cif.got.tgz:6064.got - 2010.06.03 15:47:04.
