data_PCOD9473648
_publ_section_title
;
Structure prediction by ZEFSAII (Michael W. Deem and Ramdas Pophale) SiO2 
 PCOD9473648
Probable space group: C M C M
;
_chemical_formula_sum "Si O2"
_cell_formula_units_Z 72
_cell_length_a 22.626350
_cell_length_b 18.227863
_cell_length_c 8.521367
_cell_angle_alpha 90.000000
_cell_angle_beta 90.000000
_cell_angle_gamma 90.000000
_cell_volume 3514.467460
_symmetry_space_group_name_H-M "C M C M"
_symmetry_group_IT_number 63
_symmetry_cell_setting 'orthorhombic'
loop_
_space_group_symop_operation_xyz
x,y,z
-x,-y,1/2+z
x,-y,-z
-x,y,1/2-z
-x,-y,-z
x,y,1/2-z
-x,y,z
x,-y,1/2+z
1/2+x,1/2+y,z
1/2-x,1/2-y,1/2+z
1/2+x,1/2-y,-z
1/2-x,1/2+y,1/2-z
1/2-x,1/2-y,-z
1/2+x,1/2+y,1/2-z
1/2-x,1/2+y,z
1/2+x,1/2-y,1/2+z
loop_
_atom_site_type_symbol
_atom_site_label
_atom_site_fract_x
_atom_site_fract_y
_atom_site_fract_z
Si Si1 0.000000 0.583326 0.559624
Si Si2 0.625469 0.852161 0.058445
Si Si3 0.929725 0.919403 0.067172
Si Si4 0.255690 0.922239 0.436531
Si Si5 0.337878 0.309641 0.934868
O O1 0.000000 0.500000 0.500000
O O2 0.060177 0.623949 0.506977
O O3 0.000000 0.582623 0.750000
O O4 0.624324 0.850727 0.250000
O O5 0.677020 0.908043 0.009156
O O6 0.646655 0.771627 0.005765
O O7 0.911854 0.915535 0.250000
O O8 0.000000 0.907589 0.057505
O O9 0.894663 0.859839 0.968685
O O10 0.917343 0.000000 0.000000
O O11 0.255114 0.925878 0.250000
O O12 0.216097 0.853266 0.487426
O O13 0.233123 0.000000 0.500000
O O14 0.325963 0.304829 0.750000
#
# Coordination Sequence:
#
# PCOD9473648 Si02
#       5
#     8  16  16  16  16
#     4  10  20  40  64  90 119 152 195 242 287 348
#     4   9  21  38  61  88 118 154 196 241 294 349
#     4  10  21  37  56  81 114 153 196 243 291 346
#     4  11  22  39  60  86 118 156 197 244 293 350
#     4  11  22  37  59  87 116 154 196 239 294 350
#
# _framework density 20.486744999999999
#
# number of rings (size 3 to 8) (size 9 to 14) (size 15 to 20)
#    0.000    1.778    0.000    4.000    1.556    1.333 
#    0.000    6.667    0.000    0.000    0.000    0.000 
#    0.000    0.000    0.000    0.000    0.000    0.000 
#
# Total GULP energy -201182.324121 kJ/mol
# GULP energy per Si atom -5588.397892 kJ/mol
# Density = 2.044012 g / cm^3
# Si number density = 20.486745 Si / 1000 Ang^3
#
#
#
# Elastic Constant Matrix: (Units=GPa)
#
#
# Indices 1 2 3 4 5 6 
#
# 1 123.1257 66.2297 20.1677 0.0000 0.0000 0.0000
# 2 66.2297 120.2706 11.2065 0.0000 0.0000 0.0000
# 3 20.1677 11.2065 34.5334 0.0000 0.0000 0.0000
# 4 0.0000 0.0000 0.0000 24.8123 0.0000 0.0000
# 5 0.0000 0.0000 0.0000 0.0000 2836.1559 0.0000
# 6 0.0000 0.0000 0.0000 0.0000 0.0000 28.6042
#
#
#
# Elastic Compliance Matrix: (Units=1/GPa)
#
#
# Indices 1 2 3 4 5 6 
#
# 1 0.012375 -0.006333 -0.005172 0.000000 0.000000 0.000000
# 2 -0.006333 0.011815 -0.000136 0.000000 0.000000 0.000000
# 3 -0.005172 -0.000136 0.032022 0.000000 0.000000 0.000000
# 4 0.000000 0.000000 0.000000 0.040303 0.000000 0.000000
# 5 0.000000 0.000000 0.000000 0.000000 0.000353 0.000000
# 6 0.000000 0.000000 0.000000 0.000000 0.000000 0.034960
#
#
# Mechanical properties :
#
#
# Convention : Reuss Voigt Hill
#
# Bulk Modulus (GPa) = 30.36674 52.57085 41.46879
# Shear Modulus (GPa) = 30.10500 589.93620 310.02060
#
# Velocity S-wave (km/s) = 3.83755 16.98779 12.31487
# Velocity P-wave (km/s) = 5.87286 20.26072 14.91622
#
# Compressibility (1/GPa) = 0.03293077
#
# Stress axis : x y z
#
# Youngs Moduli (GPa) = 80.80506 84.64128 31.22847
#
# Poissons Ratio (x) = 0.53602 0.16152
# Poissons Ratio (y) = 0.51173 0.00423
# Poissons Ratio (z) = 0.41794 0.01147
#
# Static dielectric constant tensor:
#      x y z
#    x 1.744310 0.000000 0.000000 
#    y 0.000000 1.707620 0.000000 
#    z 0.000000 0.000000 1.707160 
# 
# From -- ./inp_files/11757.got.cif
#   From: 2010.05.17/outbox.cif.g08.bks.cpg/sg63_6_cif.got.tgz:11757.got - 2010.06.03 15:47:04.
