data_PCOD9473714
_publ_section_title
;
Structure prediction by ZEFSAII (Michael W. Deem and Ramdas Pophale) SiO2 
 PCOD9473714
Probable space group: C M C M
;
_chemical_formula_sum "Si O2"
_cell_formula_units_Z 96
_cell_length_a 24.287872
_cell_length_b 14.044367
_cell_length_c 17.200730
_cell_angle_alpha 90.000000
_cell_angle_beta 90.000000
_cell_angle_gamma 90.000000
_cell_volume 5867.302963
_symmetry_space_group_name_H-M "C M C M"
_symmetry_group_IT_number 63
_symmetry_cell_setting 'orthorhombic'
loop_
_space_group_symop_operation_xyz
x,y,z
-x,-y,1/2+z
x,-y,-z
-x,y,1/2-z
-x,-y,-z
x,y,1/2-z
-x,y,z
x,-y,1/2+z
1/2+x,1/2+y,z
1/2-x,1/2-y,1/2+z
1/2+x,1/2-y,-z
1/2-x,1/2+y,1/2-z
1/2-x,1/2-y,-z
1/2+x,1/2+y,1/2-z
1/2-x,1/2+y,z
1/2+x,1/2-y,1/2+z
loop_
_atom_site_type_symbol
_atom_site_label
_atom_site_fract_x
_atom_site_fract_y
_atom_site_fract_z
Si Si1 0.234099 0.238060 0.589458
Si Si2 0.436265 0.988510 0.407373
Si Si3 0.063504 0.722138 0.843781
Si Si4 0.227421 0.030714 0.843476
Si Si5 0.665911 0.098182 0.341858
Si Si6 0.336382 0.347749 0.657178
O O1 0.250000 0.250000 0.500000
O O2 0.222708 0.129856 0.612643
O O3 0.184189 0.307914 0.611995
O O4 0.286694 0.276259 0.637594
O O5 0.500000 0.008196 0.385713
O O6 0.392636 0.056928 0.366513
O O7 0.431101 0.000000 0.500000
O O8 0.424385 0.879914 0.382041
O O9 0.068760 0.711305 0.750000
O O10 0.106875 0.801469 0.870889
O O11 0.000000 0.747020 0.860481
O O12 0.222490 0.045647 0.750000
O O13 0.286876 0.981403 0.857338
O O14 0.182761 0.951966 0.870221
O O15 0.667681 0.118482 0.250000
O O16 0.340127 0.355432 0.750000
#
# Coordination Sequence:
#
# PCOD9473714 Si02
#       6
#    16  16  16  16  16  16
#     4  11  22  31  49  75 103 139 171 213 252 307
#     4  10  21  33  50  75 105 136 169 215 267 316
#     4   9  17  31  53  78 101 130 169 212 259 309
#     4   9  18  34  52  72 102 136 167 207 260 310
#     4  10  21  34  52  74 102 138 177 214 257 320
#     4   9  18  32  51  74 101 131 166 208 257 309
#
# _framework density 16.361861000000001
#
# number of rings (size 3 to 8) (size 9 to 14) (size 15 to 20)
#    0.000    2.333    0.000    4.000    4.667    5.667 
#    0.000    0.000    0.000    1.000    0.000    3.500 
#    0.000    0.000    0.000    0.000    0.000    0.000 
#
# Total GULP energy -267727.229352 kJ/mol
# GULP energy per Si atom -5577.650611 kJ/mol
# Density = 1.632462 g / cm^3
# Si number density = 16.361861 Si / 1000 Ang^3
#
#
#
# Elastic Constant Matrix: (Units=GPa)
#
#
# Indices 1 2 3 4 5 6 
#
# 1 94.4552 80.6680 33.0111 0.0000 0.0000 0.0000
# 2 80.6680 154.0787 49.4370 0.0000 0.0000 0.0000
# 3 33.0111 49.4370 39.0794 0.0000 0.0000 0.0000
# 4 0.0000 0.0000 0.0000 -18.2949 0.0000 0.0000
# 5 0.0000 0.0000 0.0000 0.0000 20.4667 0.0000
# 6 0.0000 0.0000 0.0000 0.0000 0.0000 27.5736
#
#
#
# Elastic Compliance Matrix: (Units=1/GPa)
#
#
# Indices 1 2 3 4 5 6 
#
# 1 0.019987 -0.008495 -0.006136 0.000000 0.000000 0.000000
# 2 -0.008495 0.014535 -0.011211 0.000000 0.000000 0.000000
# 3 -0.006136 -0.011211 0.044955 0.000000 0.000000 0.000000
# 4 0.000000 0.000000 0.000000 -0.054660 0.000000 0.000000
# 5 0.000000 0.000000 0.000000 0.000000 0.048860 0.000000
# 6 0.000000 0.000000 0.000000 0.000000 0.000000 0.036267
#
#
# Mechanical properties :
#
#
# Convention : Reuss Voigt Hill
#
# Bulk Modulus (GPa) = 35.98271 68.20504 52.09387
# Shear Modulus (GPa) = 29.25796 14.24889 21.75342
#
# Velocity S-wave (km/s) = 4.23328 2.95424 3.65021
# Velocity P-wave (km/s) = 6.77744 7.30839 7.04792
#
# Compressibility (1/GPa) = 0.02779113
#
# Stress axis : x y z
#
# Youngs Moduli (GPa) = 50.03285 68.79895 22.24430
#
# Poissons Ratio (x) = 0.58446 0.13650
# Poissons Ratio (y) = 0.42504 0.24939
# Poissons Ratio (z) = 0.30702 0.77133
#
# Static dielectric constant tensor:
#      x y z
#    x 1.557100 0.000000 0.000000 
#    y 0.000000 1.536900 0.000000 
#    z 0.000000 0.000000 1.538960 
# 
# From -- ./inp_files/48060.got.cif
#   From: 2010.05.17/outbox.cif.g08.bks.cpg/sg63_25_cif.got.tgz:48060.got - 2010.06.03 15:47:04.
