data_PCOD9473132
_publ_section_title
;
Structure prediction by ZEFSAII (Michael W. Deem and Ramdas Pophale) SiO2 
 PCOD9473132
Probable space group: C M C M
;
_chemical_formula_sum "Si O2"
_cell_formula_units_Z 96
_cell_length_a 12.478463
_cell_length_b 21.257748
_cell_length_c 20.733440
_cell_angle_alpha 90.000000
_cell_angle_beta 90.000000
_cell_angle_gamma 90.000000
_cell_volume 5499.835682
_symmetry_space_group_name_H-M "C M C M"
_symmetry_group_IT_number 63
_symmetry_cell_setting 'orthorhombic'
loop_
_space_group_symop_operation_xyz
x,y,z
-x,-y,1/2+z
x,-y,-z
-x,y,1/2-z
-x,-y,-z
x,y,1/2-z
-x,y,z
x,-y,1/2+z
1/2+x,1/2+y,z
1/2-x,1/2-y,1/2+z
1/2+x,1/2-y,-z
1/2-x,1/2+y,1/2-z
1/2-x,1/2-y,-z
1/2+x,1/2+y,1/2-z
1/2-x,1/2+y,z
1/2+x,1/2-y,1/2+z
loop_
_atom_site_type_symbol
_atom_site_label
_atom_site_fract_x
_atom_site_fract_y
_atom_site_fract_z
Si Si1 0.000000 0.608751 0.959363
Si Si2 0.376476 0.625767 0.613515
Si Si3 0.871313 0.326291 0.750000
Si Si4 0.622286 0.514868 0.427977
Si Si5 0.000000 0.473321 0.906972
Si Si6 0.703987 0.103600 0.375405
Si Si7 0.127272 0.823673 0.250000
Si Si8 0.214579 0.677738 0.991105
O O1 0.103521 0.654228 0.957857
O O2 0.000000 0.549144 0.910675
O O3 0.000000 0.566127 0.025153
O O4 0.500000 0.648390 0.607134
O O5 0.377850 0.550625 0.609677
O O6 0.331527 0.649054 0.682190
O O7 0.307720 0.648421 0.552960
O O8 0.814492 0.355318 0.812383
O O9 0.861049 0.251177 0.750000
O O10 0.000000 0.340358 0.750000
O O11 0.668999 0.500000 0.500000
O O12 0.500000 0.536368 0.438689
O O13 0.688058 0.564872 0.387355
O O14 0.892005 0.447333 0.875286
O O15 0.700899 0.148440 0.437874
O O16 0.000000 0.839110 0.250000
O O17 0.250000 0.750000 0.000000
#
# Coordination Sequence:
#
# PCOD9473132 Si02
#       8
#     8  16   8  16   8  16   8  16
#     4   9  20  34  50  82 114 147 188 244 303 343
#     4  10  20  36  60  87 114 153 195 243 295 343
#     4  11  22  39  55  85 121 152 191 246 305 355
#     4  10  20  36  58  87 122 152 192 241 295 353
#     4   9  18  33  58  80 110 145 191 245 305 354
#     4  11  21  36  59  86 115 154 194 247 305 350
#     4   9  20  37  60  82 116 155 195 243 292 352
#     4  11  22  34  55  84 116 156 201 247 289 353
#
# _framework density 17.455067
#
# number of rings (size 3 to 8) (size 9 to 14) (size 15 to 20)
#    0.000    1.833    2.500    2.000    3.500    0.667 
#    0.000    1.250    0.000    0.500    2.167    0.000 
#    0.000    0.000    0.000    0.000    0.000    0.000 
#
# Total GULP energy -267355.759636 kJ/mol
# GULP energy per Si atom -5569.911659 kJ/mol
# Density = 1.741534 g / cm^3
# Si number density = 17.455067 Si / 1000 Ang^3
#
#
#
# Elastic Constant Matrix: (Units=GPa)
#
#
# Indices 1 2 3 4 5 6 
#
# 1 77.6686 39.0048 30.9595 0.0000 0.0000 0.0000
# 2 39.0048 99.7737 31.7542 0.0000 0.0000 0.0000
# 3 30.9595 31.7542 115.7587 0.0000 0.0000 0.0000
# 4 0.0000 0.0000 0.0000 29.0542 0.0000 0.0000
# 5 0.0000 0.0000 0.0000 0.0000 -7.0838 0.0000
# 6 0.0000 0.0000 0.0000 0.0000 0.0000 24.1001
#
#
#
# Elastic Compliance Matrix: (Units=1/GPa)
#
#
# Indices 1 2 3 4 5 6 
#
# 1 0.016902 -0.005663 -0.002967 0.000000 0.000000 0.000000
# 2 -0.005663 0.012879 -0.002018 0.000000 0.000000 0.000000
# 3 -0.002967 -0.002018 0.009986 0.000000 0.000000 0.000000
# 4 0.000000 0.000000 0.000000 0.034418 0.000000 0.000000
# 5 0.000000 0.000000 0.000000 0.000000 -0.141168 0.000000
# 6 0.000000 0.000000 0.000000 0.000000 0.000000 0.041494
#
#
# Mechanical properties :
#
#
# Convention : Reuss Voigt Hill
#
# Bulk Modulus (GPa) = 54.14221 55.18200 54.66210
# Shear Modulus (GPa) = 2545.04413 21.97960 1283.51186
#
# Velocity S-wave (km/s) = 38.22591 3.55238 27.14626
# Velocity P-wave (km/s) = 44.49021 6.96479 31.84248
#
# Compressibility (1/GPa) = 0.01846988
#
# Stress axis : x y z
#
# Youngs Moduli (GPa) = 59.16496 77.64603 100.14236
#
# Poissons Ratio (x) = 0.43973 0.29711
# Poissons Ratio (y) = 0.33507 0.20211
# Poissons Ratio (z) = 0.17554 0.15671
#
# Static dielectric constant tensor:
#      x y z
#    x 1.614910 0.000000 0.000000 
#    y 0.000000 1.592040 0.000000 
#    z 0.000000 0.000000 1.599220 
# 
# From -- ./inp_files/52955.got.cif
#   From: 2010.05.17/outbox.cif.g08.bks.cpg/sg63_27_cif.got.tgz:52955.got - 2010.06.03 15:47:04.
