data_PCOD9473711
_publ_section_title
;
Structure prediction by ZEFSAII (Michael W. Deem and Ramdas Pophale) SiO2 
 PCOD9473711
Probable space group: C M C M
;
_chemical_formula_sum "Si O2"
_cell_formula_units_Z 72
_cell_length_a 23.855481
_cell_length_b 16.144100
_cell_length_c 10.517304
_cell_angle_alpha 90.000000
_cell_angle_beta 90.000000
_cell_angle_gamma 90.000000
_cell_volume 4050.479551
_symmetry_space_group_name_H-M "C M C M"
_symmetry_group_IT_number 63
_symmetry_cell_setting 'orthorhombic'
loop_
_space_group_symop_operation_xyz
x,y,z
-x,-y,1/2+z
x,-y,-z
-x,y,1/2-z
-x,-y,-z
x,y,1/2-z
-x,y,z
x,-y,1/2+z
1/2+x,1/2+y,z
1/2-x,1/2-y,1/2+z
1/2+x,1/2-y,-z
1/2-x,1/2+y,1/2-z
1/2-x,1/2-y,-z
1/2+x,1/2+y,1/2-z
1/2-x,1/2+y,z
1/2+x,1/2-y,1/2+z
loop_
_atom_site_type_symbol
_atom_site_label
_atom_site_fract_x
_atom_site_fract_y
_atom_site_fract_z
Si Si1 0.231610 0.864806 0.106498
Si Si2 0.936669 0.733401 0.396984
Si Si3 0.816908 0.678227 0.394834
Si Si4 0.649305 0.500000 0.000000
Si Si5 0.063608 0.125230 0.108754
O O1 0.253756 0.870654 0.250000
O O2 0.200085 0.775857 0.096055
O O3 0.187923 0.937286 0.078390
O O4 0.279906 0.866410 0.000458
O O5 0.931877 0.763568 0.250000
O O6 0.883660 0.673565 0.415788
O O7 0.930772 0.807130 0.498089
O O8 0.000000 0.699156 0.411240
O O9 0.803770 0.651656 0.250000
O O10 0.608963 0.554553 0.088139
O O11 0.070577 0.162380 0.250000
O O12 0.000000 0.091902 0.101200
#
# Coordination Sequence:
#
# PCOD9473711 Si02
#       5
#    16  16  16   8  16
#     4  10  21  34  50  72  98 134 176 211 250 295
#     4   9  17  32  54  76 100 131 166 204 247 299
#     4   9  18  35  52  72  98 131 169 209 253 298
#     4  12  21  34  50  72 101 138 174 212 246 296
#     4  10  21  33  47  71 102 136 171 205 242 286
#
# _framework density 17.775672
#
# number of rings (size 3 to 8) (size 9 to 14) (size 15 to 20)
#    0.000    2.222    2.222    1.000    0.000    3.556 
#    0.000    2.222    0.000    0.000    0.000    0.778 
#    0.000    0.000    0.000    0.000    0.000    0.000 
#
# Total GULP energy -200686.017738 kJ/mol
# GULP energy per Si atom -5574.611604 kJ/mol
# Density = 1.773521 g / cm^3
# Si number density = 17.775672 Si / 1000 Ang^3
#
#
#
# Elastic Constant Matrix: (Units=GPa)
#
#
# Indices 1 2 3 4 5 6 
#
# 1 129.5495 16.7935 74.6708 0.0000 0.0000 0.0000
# 2 16.7935 11.7074 16.5031 0.0000 0.0000 0.0000
# 3 74.6708 16.5031 109.2443 0.0000 0.0000 0.0000
# 4 0.0000 0.0000 0.0000 10.8648 0.0000 0.0000
# 5 0.0000 0.0000 0.0000 0.0000 -55.9743 0.0000
# 6 0.0000 0.0000 0.0000 0.0000 0.0000 29.5789
#
#
#
# Elastic Compliance Matrix: (Units=1/GPa)
#
#
# Indices 1 2 3 4 5 6 
#
# 1 0.013296 -0.007955 -0.007886 0.000000 0.000000 0.000000
# 2 -0.007955 0.113286 -0.011676 0.000000 0.000000 0.000000
# 3 -0.007886 -0.011676 0.016308 0.000000 0.000000 0.000000
# 4 0.000000 0.000000 0.000000 0.092040 0.000000 0.000000
# 5 0.000000 0.000000 0.000000 0.000000 -0.017865 0.000000
# 6 0.000000 0.000000 0.000000 0.000000 0.000000 0.033808
#
#
# Mechanical properties :
#
#
# Convention : Reuss Voigt Hill
#
# Bulk Modulus (GPa) = 11.38242 51.82623 31.60432
# Shear Modulus (GPa) = 14.91680 6.39615 10.65648
#
# Velocity S-wave (km/s) = 2.89999 1.89897 2.45112
# Velocity P-wave (km/s) = 4.19887 5.83327 5.08220
#
# Compressibility (1/GPa) = 0.08785478
#
# Stress axis : x y z
#
# Youngs Moduli (GPa) = 75.21155 8.82722 61.31960
#
# Poissons Ratio (x) = 0.07022 0.48358
# Poissons Ratio (y) = 0.59834 0.71596
# Poissons Ratio (z) = 0.59313 0.10307
#
# Static dielectric constant tensor:
#      x y z
#    x 1.632710 0.000000 0.000000 
#    y 0.000000 1.573330 0.000000 
#    z 0.000000 0.000000 1.618260 
# 
# From -- ./inp_files/9878.got.cif
#   From: 2010.05.17/outbox.cif.g08.bks.cpg/sg63_5_cif.got.tgz:9878.got - 2010.06.03 15:47:04.
