data_PCOD9473402
_publ_section_title
;
Structure prediction by ZEFSAII (Michael W. Deem and Ramdas Pophale) SiO2 
 PCOD9473402
Probable space group: C M C M
;
_chemical_formula_sum "Si O2"
_cell_formula_units_Z 112
_cell_length_a 22.078586
_cell_length_b 11.227598
_cell_length_c 22.852729
_cell_angle_alpha 90.000000
_cell_angle_beta 90.000000
_cell_angle_gamma 90.000000
_cell_volume 5664.951292
_symmetry_space_group_name_H-M "C M C M"
_symmetry_group_IT_number 63
_symmetry_cell_setting 'orthorhombic'
loop_
_space_group_symop_operation_xyz
x,y,z
-x,-y,1/2+z
x,-y,-z
-x,y,1/2-z
-x,-y,-z
x,y,1/2-z
-x,y,z
x,-y,1/2+z
1/2+x,1/2+y,z
1/2-x,1/2-y,1/2+z
1/2+x,1/2-y,-z
1/2-x,1/2+y,1/2-z
1/2-x,1/2-y,-z
1/2+x,1/2+y,1/2-z
1/2-x,1/2+y,z
1/2+x,1/2-y,1/2+z
loop_
_atom_site_type_symbol
_atom_site_label
_atom_site_fract_x
_atom_site_fract_y
_atom_site_fract_z
Si Si1 0.148344 0.091590 0.908599
Si Si2 0.886091 0.697395 0.002524
Si Si3 0.427313 0.177460 0.683108
Si Si4 0.611590 0.054123 0.388518
Si Si5 0.569696 0.717840 0.819402
Si Si6 0.721544 0.945965 0.060076
Si Si7 0.568992 0.633355 0.409178
O O1 0.133569 0.196790 0.954068
O O2 0.113794 0.123560 0.849020
O O3 0.220655 0.093083 0.903697
O O4 0.117600 0.966681 0.926526
O O5 0.911626 0.596421 0.047025
O O6 0.828948 0.646248 0.965131
O O7 0.929859 0.760377 0.956702
O O8 0.404486 0.167309 0.750000
O O9 0.500000 0.172029 0.685336
O O10 0.412586 0.302269 0.651464
O O11 0.407135 0.069596 0.641108
O O12 0.591311 0.155010 0.343795
O O13 0.682859 0.041031 0.402990
O O14 0.572095 0.715048 0.750000
O O15 0.500000 0.698534 0.838094
O O16 0.747746 0.000000 0.000000
O O17 0.500000 0.586232 0.405434
#
# Coordination Sequence:
#
# PCOD9473402 Si02
#       7
#    16  16  16  16  16  16  16
#     4  11  23  38  62  86 120 162 203 242 288 361
#     4  10  21  37  61  89 121 158 195 244 302 361
#     4  10  21  38  60  84 114 157 204 248 299 359
#     4  10  20  37  62  89 116 149 200 249 305 358
#     4  10  22  41  64  87 114 154 205 257 305 355
#     4  10  20  38  61  89 120 158 195 236 295 361
#     4  11  23  37  56  87 124 157 194 243 299 359
#
# _framework density 19.770690999999999
#
# number of rings (size 3 to 8) (size 9 to 14) (size 15 to 20)
#    0.000    1.714    1.429    3.000    0.000    8.000 
#    0.000    4.286    0.000    0.000    0.000    0.000 
#    0.000    0.000    0.000    0.000    0.000    0.000 
#
# Total GULP energy -312176.074259 kJ/mol
# GULP energy per Si atom -5574.572755 kJ/mol
# Density = 1.972569 g / cm^3
# Si number density = 19.770691 Si / 1000 Ang^3
#
#
#
# Elastic Constant Matrix: (Units=GPa)
#
#
# Indices 1 2 3 4 5 6 
#
# 1 77.6979 27.4915 45.5295 0.0000 0.0000 0.0000
# 2 27.4915 64.3873 38.9981 0.0000 0.0000 0.0000
# 3 45.5295 38.9981 93.8616 0.0000 0.0000 0.0000
# 4 0.0000 0.0000 0.0000 25.3592 0.0000 0.0000
# 5 0.0000 0.0000 0.0000 0.0000 13.5757 0.0000
# 6 0.0000 0.0000 0.0000 0.0000 0.0000 12.2427
#
#
#
# Elastic Compliance Matrix: (Units=1/GPa)
#
#
# Indices 1 2 3 4 5 6 
#
# 1 0.018489 -0.003290 -0.007601 0.000000 0.000000 0.000000
# 2 -0.003290 0.021339 -0.007270 0.000000 0.000000 0.000000
# 3 -0.007601 -0.007270 0.017362 0.000000 0.000000 0.000000
# 4 0.000000 0.000000 0.000000 0.039433 0.000000 0.000000
# 5 0.000000 0.000000 0.000000 0.000000 0.073661 0.000000
# 6 0.000000 0.000000 0.000000 0.000000 0.000000 0.081682
#
#
# Mechanical properties :
#
#
# Convention : Reuss Voigt Hill
#
# Bulk Modulus (GPa) = 47.92383 51.10942 49.51663
# Shear Modulus (GPa) = 16.93510 18.49735 17.71623
#
# Velocity S-wave (km/s) = 2.92991 3.06207 2.99672
# Velocity P-wave (km/s) = 5.97815 6.19749 6.08881
#
# Compressibility (1/GPa) = 0.02086644
#
# Stress axis : x y z
#
# Youngs Moduli (GPa) = 54.08697 46.86211 57.59774
#
# Poissons Ratio (x) = 0.15418 0.43782
# Poissons Ratio (y) = 0.17796 0.41874
# Poissons Ratio (z) = 0.41113 0.34069
#
# Static dielectric constant tensor:
#      x y z
#    x 1.674500 0.000000 0.000000 
#    y 0.000000 1.757470 0.000000 
#    z 0.000000 0.000000 1.710020 
# 
# From -- ./inp_files/57616.got.cif
#   From: 2010.05.17/outbox.cif.g08.bks.cpg/sg63_29_cif.got.tgz:57616.got - 2010.06.03 15:47:04.
