data_PCOD9473108
_publ_section_title
;
Structure prediction by ZEFSAII (Michael W. Deem and Ramdas Pophale) SiO2 
 PCOD9473108
Probable space group: C M C M
;
_chemical_formula_sum "Si O2"
_cell_formula_units_Z 96
_cell_length_a 24.961603
_cell_length_b 18.018297
_cell_length_c 9.598720
_cell_angle_alpha 90.000000
_cell_angle_beta 90.000000
_cell_angle_gamma 90.000000
_cell_volume 4317.173834
_symmetry_space_group_name_H-M "C M C M"
_symmetry_group_IT_number 63
_symmetry_cell_setting 'orthorhombic'
loop_
_space_group_symop_operation_xyz
x,y,z
-x,-y,1/2+z
x,-y,-z
-x,y,1/2-z
-x,-y,-z
x,y,1/2-z
-x,y,z
x,-y,1/2+z
1/2+x,1/2+y,z
1/2-x,1/2-y,1/2+z
1/2+x,1/2-y,-z
1/2-x,1/2+y,1/2-z
1/2-x,1/2-y,-z
1/2+x,1/2+y,1/2-z
1/2-x,1/2+y,z
1/2+x,1/2-y,1/2+z
loop_
_atom_site_type_symbol
_atom_site_label
_atom_site_fract_x
_atom_site_fract_y
_atom_site_fract_z
Si Si1 0.916916 0.276985 0.904524
Si Si2 0.663744 0.392375 0.592300
Si Si3 0.689287 0.228704 0.970721
Si Si4 0.560343 0.610747 0.582522
Si Si5 0.436379 0.065691 0.093150
Si Si6 0.229940 0.430870 0.087783
O O1 0.938891 0.286405 0.750000
O O2 0.939575 0.199016 0.952450
O O3 0.929635 0.353948 0.978218
O O4 0.852524 0.273227 0.903012
O O5 0.667022 0.422405 0.750000
O O6 0.666530 0.302064 0.605400
O O7 0.609280 0.416119 0.513292
O O8 0.714098 0.413459 0.494099
O O9 0.694619 0.144741 0.915164
O O10 0.750000 0.250000 0.000000
O O11 0.571607 0.603981 0.750000
O O12 0.500000 0.582254 0.557508
O O13 0.412785 0.064797 0.250000
O O14 0.500000 0.054482 0.106787
O O15 0.414545 0.000000 0.000000
O O16 0.238890 0.449466 0.250000
O O17 0.207090 0.500000 0.000000
#
# Coordination Sequence:
#
# PCOD9473108 Si02
#       6
#    16  16  16  16  16  16
#     4   9  17  30  50  74 100 133 175 221 264 311
#     4  10  20  36  58  84 113 145 182 225 274 326
#     4   9  20  35  54  79 108 142 180 225 275 326
#     4   9  17  31  53  80 108 139 176 218 265 319
#     4   9  17  30  47  67  94 131 173 214 258 309
#     4  11  23  39  58  81 110 145 185 228 275 327
#
# _framework density 22.236768000000001
#
# number of rings (size 3 to 8) (size 9 to 14) (size 15 to 20)
#    0.000    2.500    0.000    2.000    0.000   10.333 
#    0.000    5.833    0.000    4.500    0.000    0.000 
#    0.000    0.000    0.000    0.000    0.000    0.167 
#
# Total GULP energy -267203.738393 kJ/mol
# GULP energy per Si atom -5566.744550 kJ/mol
# Density = 2.218616 g / cm^3
# Si number density = 22.236768 Si / 1000 Ang^3
#
#
#
# Elastic Constant Matrix: (Units=GPa)
#
#
# Indices 1 2 3 4 5 6 
#
# 1 134.3514 3.2575 48.9039 0.0000 0.0000 0.0000
# 2 3.2575 132.7376 35.7451 0.0000 0.0000 0.0000
# 3 48.9039 35.7451 123.8398 0.0000 0.0000 0.0000
# 4 0.0000 0.0000 0.0000 12.0335 0.0000 0.0000
# 5 0.0000 0.0000 0.0000 0.0000 9.3307 0.0000
# 6 0.0000 0.0000 0.0000 0.0000 0.0000 9.0094
#
#
#
# Elastic Compliance Matrix: (Units=1/GPa)
#
#
# Indices 1 2 3 4 5 6 
#
# 1 0.008766 0.000778 -0.003686 0.000000 0.000000 0.000000
# 2 0.000778 0.008238 -0.002685 0.000000 0.000000 0.000000
# 3 -0.003686 -0.002685 0.010305 0.000000 0.000000 0.000000
# 4 0.000000 0.000000 0.000000 0.083102 0.000000 0.000000
# 5 0.000000 0.000000 0.000000 0.000000 0.107173 0.000000
# 6 0.000000 0.000000 0.000000 0.000000 0.000000 0.110996
#
#
# Mechanical properties :
#
#
# Convention : Reuss Voigt Hill
#
# Bulk Modulus (GPa) = 62.02525 62.97132 62.49829
# Shear Modulus (GPa) = 14.48684 26.27619 20.38152
#
# Velocity S-wave (km/s) = 2.55518 3.44125 3.03077
# Velocity P-wave (km/s) = 6.05466 6.64602 6.35722
#
# Compressibility (1/GPa) = 0.01612247
#
# Stress axis : x y z
#
# Youngs Moduli (GPa) = 114.07640 121.39536 97.03563
#
# Poissons Ratio (x) = -0.09439 0.35768
# Poissons Ratio (y) = -0.08870 0.26051
# Poissons Ratio (z) = 0.42050 0.32591
#
# Static dielectric constant tensor:
#      x y z
#    x 1.837110 0.000000 0.000000 
#    y 0.000000 1.917550 0.000000 
#    z 0.000000 0.000000 1.819890 
# 
# From -- ./inp_files/23922.got.cif
#   From: 2010.05.17/outbox.cif.g08.bks.cpg/sg63_12_cif.got.tgz:23922.got - 2010.06.03 15:47:04.
