data_PCOD9473530
_publ_section_title
;
Structure prediction by ZEFSAII (Michael W. Deem and Ramdas Pophale) SiO2 
 PCOD9473530
Probable space group: C M C M
;
_chemical_formula_sum "Si O2"
_cell_formula_units_Z 100
_cell_length_a 16.609705
_cell_length_b 16.516070
_cell_length_c 18.584850
_cell_angle_alpha 90.000000
_cell_angle_beta 90.000000
_cell_angle_gamma 90.000000
_cell_volume 5098.327084
_symmetry_space_group_name_H-M "C M C M"
_symmetry_group_IT_number 63
_symmetry_cell_setting 'orthorhombic'
loop_
_space_group_symop_operation_xyz
x,y,z
-x,-y,1/2+z
x,-y,-z
-x,y,1/2-z
-x,-y,-z
x,y,1/2-z
-x,y,z
x,-y,1/2+z
1/2+x,1/2+y,z
1/2-x,1/2-y,1/2+z
1/2+x,1/2-y,-z
1/2-x,1/2+y,1/2-z
1/2-x,1/2-y,-z
1/2+x,1/2+y,1/2-z
1/2-x,1/2+y,z
1/2+x,1/2-y,1/2+z
loop_
_atom_site_type_symbol
_atom_site_label
_atom_site_fract_x
_atom_site_fract_y
_atom_site_fract_z
Si Si1 0.386861 0.794710 0.883742
Si Si2 0.753502 0.116236 0.334629
Si Si3 0.411252 0.655003 0.413243
Si Si4 0.089610 0.108652 0.920668
Si Si5 0.909373 0.656496 0.952845
Si Si6 0.236175 0.462796 0.080032
Si Si7 0.500000 0.163924 0.250000
O O1 0.292813 0.808501 0.870197
O O2 0.408693 0.700559 0.891173
O O3 0.431199 0.831043 0.814510
O O4 0.406382 0.836488 0.960083
O O5 0.750357 0.119605 0.250000
O O6 0.843639 0.119269 0.363292
O O7 0.713939 0.034778 0.365827
O O8 0.500000 0.640800 0.383969
O O9 0.406548 0.615883 0.492615
O O10 0.401068 0.751354 0.425008
O O11 0.174442 0.068860 0.898891
O O12 0.000000 0.074106 0.902408
O O13 0.835013 0.603264 0.924715
O O14 0.000000 0.627188 0.933286
O O15 0.242606 0.500000 0.000000
#
# Coordination Sequence:
#
# PCOD9473530 Si02
#       7
#    16  16  16  16  16  16   4
#     4  11  20  38  62  89 117 151 198 250 298 356
#     4  12  25  40  56  86 124 161 193 244 305 360
#     4   9  19  38  66  88 110 145 200 255 291 342
#     4  10  20  38  63  89 113 147 199 252 293 341
#     4  10  20  39  64  91 115 149 206 255 291 340
#     4  12  23  38  58  88 124 161 201 238 293 365
#     4  12  20  36  60  94 124 148 194 250 320 356
#
# _framework density 19.614276
#
# number of rings (size 3 to 8) (size 9 to 14) (size 15 to 20)
#    0.000    1.280    5.600    1.920    0.000    4.160 
#    2.880    0.800    0.000    0.960    0.000    0.000 
#    0.000    0.000    0.000    0.000    0.000    0.000 
#
# Total GULP energy -278538.080288 kJ/mol
# GULP energy per Si atom -5570.761606 kJ/mol
# Density = 1.956963 g / cm^3
# Si number density = 19.614276 Si / 1000 Ang^3
#
#
#
# Elastic Constant Matrix: (Units=GPa)
#
#
# Indices 1 2 3 4 5 6 
#
# 1 120.2330 35.5747 18.3450 0.0000 0.0000 0.0000
# 2 35.5747 41.3411 10.4705 0.0000 0.0000 0.0000
# 3 18.3450 10.4705 50.5829 0.0000 0.0000 0.0000
# 4 0.0000 0.0000 0.0000 9.9665 0.0000 0.0000
# 5 0.0000 0.0000 0.0000 0.0000 18.2356 0.0000
# 6 0.0000 0.0000 0.0000 0.0000 0.0000 4.8831
#
#
#
# Elastic Compliance Matrix: (Units=1/GPa)
#
#
# Indices 1 2 3 4 5 6 
#
# 1 0.011389 -0.009239 -0.002218 0.000000 0.000000 0.000000
# 2 -0.009239 0.033022 -0.003485 0.000000 0.000000 0.000000
# 3 -0.002218 -0.003485 0.021295 0.000000 0.000000 0.000000
# 4 0.000000 0.000000 0.000000 0.100336 0.000000 0.000000
# 5 0.000000 0.000000 0.000000 0.000000 0.054838 0.000000
# 6 0.000000 0.000000 0.000000 0.000000 0.000000 0.204790
#
#
# Mechanical properties :
#
#
# Convention : Reuss Voigt Hill
#
# Bulk Modulus (GPa) = 27.91514 37.88194 32.89854
# Shear Modulus (GPa) = 10.69531 16.46814 13.58173
#
# Velocity S-wave (km/s) = 2.33766 2.90073 2.63428
# Velocity P-wave (km/s) = 4.64211 5.52941 5.10507
#
# Compressibility (1/GPa) = 0.03582285
#
# Stress axis : x y z
#
# Youngs Moduli (GPa) = 87.80241 30.28308 46.95867
#
# Poissons Ratio (x) = 0.27978 0.10416
# Poissons Ratio (y) = 0.81119 0.16364
# Poissons Ratio (z) = 0.19476 0.10553
#
# Static dielectric constant tensor:
#      x y z
#    x 1.772180 0.000000 0.000000 
#    y 0.000000 1.708310 0.000000 
#    z 0.000000 0.000000 1.630960 
# 
# From -- ./inp_files/54521.got.cif
#   From: 2010.05.17/outbox.cif.g08.bks.cpg/sg63_28_cif.got.tgz:54521.got - 2010.06.03 15:47:04.
