data_PCOD9473833
_publ_section_title
;
Structure prediction by ZEFSAII (Michael W. Deem and Ramdas Pophale) SiO2 
 PCOD9473833
Probable space group: C M C M
;
_chemical_formula_sum "Si O2"
_cell_formula_units_Z 84
_cell_length_a 13.359328
_cell_length_b 34.291988
_cell_length_c 7.321140
_cell_angle_alpha 90.000000
_cell_angle_beta 90.000000
_cell_angle_gamma 90.000000
_cell_volume 3353.945396
_symmetry_space_group_name_H-M "C M C M"
_symmetry_group_IT_number 63
_symmetry_cell_setting 'orthorhombic'
loop_
_space_group_symop_operation_xyz
x,y,z
-x,-y,1/2+z
x,-y,-z
-x,y,1/2-z
-x,-y,-z
x,y,1/2-z
-x,y,z
x,-y,1/2+z
1/2+x,1/2+y,z
1/2-x,1/2-y,1/2+z
1/2+x,1/2-y,-z
1/2-x,1/2+y,1/2-z
1/2-x,1/2-y,-z
1/2+x,1/2+y,1/2-z
1/2-x,1/2+y,z
1/2+x,1/2-y,1/2+z
loop_
_atom_site_type_symbol
_atom_site_label
_atom_site_fract_x
_atom_site_fract_y
_atom_site_fract_z
Si Si1 0.111382 0.680670 0.036763
Si Si2 0.385081 0.733375 0.030517
Si Si3 0.665519 0.565393 0.027023
Si Si4 0.500000 0.500000 0.500000
Si Si5 0.810250 0.850277 0.973351
Si Si6 0.390903 0.953552 0.532784
O O1 0.101418 0.672093 0.250000
O O2 0.194334 0.651205 0.966056
O O3 0.000000 0.679494 0.955684
O O4 0.158060 0.724567 0.026390
O O5 0.378899 0.732913 0.250000
O O6 0.500000 0.737817 0.974115
O O7 0.354101 0.690853 0.963933
O O8 0.661848 0.562699 0.250000
O O9 0.638352 0.609595 0.973903
O O10 0.780951 0.559281 0.967634
O O11 0.587981 0.532974 0.964517
O O12 0.812323 0.849576 0.750000
O O13 0.390383 0.945724 0.750000
O O14 0.500000 0.938311 0.464641
O O15 0.392895 0.000000 0.500000
#
# Coordination Sequence:
#
# PCOD9473833 Si02
#       6
#    16  16  16   4  16  16
#     4   9  17  30  50  75 105 138 170 210 263 318
#     4   9  17  29  48  73 102 137 176 213 252 305
#     4  10  21  35  54  79 104 138 184 231 277 328
#     4  12  22  36  54  74 104 148 178 230 286 332
#     4   9  18  31  49  75 101 129 173 222 261 306
#     4   9  17  32  54  78 102 129 165 213 269 327
#
# _framework density 25.04513
#
# number of rings (size 3 to 8) (size 9 to 14) (size 15 to 20)
#    0.000    2.667    0.952    0.857    1.333    0.762 
#    0.000    3.810    0.000    6.857    0.000    5.333 
#    0.000    0.000    0.000    0.000    0.000    0.000 
#
# Total GULP energy -233882.068655 kJ/mol
# GULP energy per Si atom -5568.620682 kJ/mol
# Density = 2.498813 g / cm^3
# Si number density = 25.045130 Si / 1000 Ang^3
#
#
#
# Elastic Constant Matrix: (Units=GPa)
#
#
# Indices 1 2 3 4 5 6 
#
# 1 127.2558 78.5492 1.9846 0.0000 0.0000 0.0000
# 2 78.5492 162.5455 -6.2129 0.0000 0.0000 0.0000
# 3 1.9846 -6.2129 98.8582 0.0000 0.0000 0.0000
# 4 0.0000 0.0000 0.0000 -0.8213 0.0000 0.0000
# 5 0.0000 0.0000 0.0000 0.0000 -12.3262 0.0000
# 6 0.0000 0.0000 0.0000 0.0000 0.0000 8.6171
#
#
#
# Elastic Compliance Matrix: (Units=1/GPa)
#
#
# Indices 1 2 3 4 5 6 
#
# 1 0.011230 -0.005449 -0.000568 0.000000 0.000000 0.000000
# 2 -0.005449 0.008811 0.000663 0.000000 0.000000 0.000000
# 3 -0.000568 0.000663 0.010169 0.000000 0.000000 0.000000
# 4 0.000000 0.000000 0.000000 -1.217611 0.000000 0.000000
# 5 0.000000 0.000000 0.000000 0.000000 -0.081128 0.000000
# 6 0.000000 0.000000 0.000000 0.000000 0.000000 0.116048
#
#
# Mechanical properties :
#
#
# Convention : Reuss Voigt Hill
#
# Bulk Modulus (GPa) = 51.27565 59.70014 55.48789
# Shear Modulus (GPa) = -4.40422 20.04984 7.82281
#
# Velocity S-wave (km/s) = -1.32753 2.83247 1.76926
# Velocity P-wave (km/s) = 4.26239 5.88098 5.13585
#
# Compressibility (1/GPa) = 0.01950244
#
# Stress axis : x y z
#
# Youngs Moduli (GPa) = 89.04514 113.50087 98.34222
#
# Poissons Ratio (x) = 0.61843 0.05585
# Poissons Ratio (y) = 0.48518 -0.06521
# Poissons Ratio (z) = 0.05057 -0.07526
#
# Static dielectric constant tensor:
#      x y z
#    x 2.022860 0.000000 0.000000 
#    y 0.000000 1.936360 0.000000 
#    z 0.000000 0.000000 2.013450 
# 
# From -- ./inp_files/19935.got.cif
#   From: 2010.05.17/outbox.cif.g08.bks.cpg/sg63_10_cif.got.tgz:19935.got - 2010.06.03 15:47:04.
