data_PCOD9473223
_publ_section_title
;
Structure prediction by ZEFSAII (Michael W. Deem and Ramdas Pophale) SiO2 
 PCOD9473223
Probable space group: C M C M
;
_chemical_formula_sum "Si O2"
_cell_formula_units_Z 112
_cell_length_a 22.954998
_cell_length_b 13.821741
_cell_length_c 14.727434
_cell_angle_alpha 90.000000
_cell_angle_beta 90.000000
_cell_angle_gamma 90.000000
_cell_volume 4672.691350
_symmetry_space_group_name_H-M "C M C M"
_symmetry_group_IT_number 63
_symmetry_cell_setting 'orthorhombic'
loop_
_space_group_symop_operation_xyz
x,y,z
-x,-y,1/2+z
x,-y,-z
-x,y,1/2-z
-x,-y,-z
x,y,1/2-z
-x,y,z
x,-y,1/2+z
1/2+x,1/2+y,z
1/2-x,1/2-y,1/2+z
1/2+x,1/2-y,-z
1/2-x,1/2+y,1/2-z
1/2-x,1/2-y,-z
1/2+x,1/2+y,1/2-z
1/2-x,1/2+y,z
1/2+x,1/2-y,1/2+z
loop_
_atom_site_type_symbol
_atom_site_label
_atom_site_fract_x
_atom_site_fract_y
_atom_site_fract_z
Si Si1 0.569189 0.844680 0.519632
Si Si2 0.430369 0.327685 0.154054
Si Si3 0.258151 0.763824 0.859790
Si Si4 0.123487 0.244584 0.356917
Si Si5 0.767266 0.947112 0.140480
Si Si6 0.657740 0.057828 0.359243
Si Si7 0.115525 0.028888 0.400989
O O1 0.500000 0.859150 0.521843
O O2 0.584245 0.743920 0.572679
O O3 0.591081 0.823064 0.418349
O O4 0.601839 0.926100 0.578671
O O5 0.411999 0.280374 0.250000
O O6 0.500000 0.336440 0.152674
O O7 0.405163 0.435198 0.153670
O O8 0.256026 0.763958 0.750000
O O9 0.190832 0.764085 0.888109
O O10 0.283635 0.660587 0.888894
O O11 0.299217 0.852364 0.883006
O O12 0.122053 0.268667 0.250000
O O13 0.097896 0.135521 0.369963
O O14 0.771023 0.955629 0.250000
O O15 0.700216 0.968422 0.118059
O O16 0.814209 0.021277 0.102283
O O17 0.646116 0.056698 0.250000
O O18 0.093666 0.000000 0.500000
#
# Coordination Sequence:
#
# PCOD9473223 Si02
#       7
#    16  16  16  16  16  16  16
#     4  11  24  40  60  89 121 159 214 261 303 375
#     4  10  21  37  57  82 117 160 202 249 304 361
#     4   9  19  36  62  93 125 163 206 255 308 377
#     4  11  23  41  61  84 124 167 209 262 318 374
#     4  10  20  36  60  92 128 163 205 251 311 384
#     4  10  20  37  63  94 130 167 202 254 319 376
#     4  12  22  35  57  90 124 163 205 252 301 372
#
# _framework density 23.969055999999998
#
# number of rings (size 3 to 8) (size 9 to 14) (size 15 to 20)
#    0.000    1.571    2.857    2.571    0.000    4.857 
#    0.000    0.000    0.000    1.714    0.000    4.000 
#    0.000    0.000    0.000    0.000    0.000    0.000 
#
# Total GULP energy -313317.041695 kJ/mol
# GULP energy per Si atom -5594.947173 kJ/mol
# Density = 2.391450 g / cm^3
# Si number density = 23.969056 Si / 1000 Ang^3
#
#
#
# Elastic Constant Matrix: (Units=GPa)
#
#
# Indices 1 2 3 4 5 6 
#
# 1 80.6177 6.3911 28.3787 0.0000 0.0000 0.0000
# 2 6.3911 65.0010 7.5717 0.0000 0.0000 0.0000
# 3 28.3787 7.5717 112.3895 0.0000 0.0000 0.0000
# 4 0.0000 0.0000 0.0000 23.2243 0.0000 0.0000
# 5 0.0000 0.0000 0.0000 0.0000 28.2357 0.0000
# 6 0.0000 0.0000 0.0000 0.0000 0.0000 31.9646
#
#
#
# Elastic Compliance Matrix: (Units=1/GPa)
#
#
# Indices 1 2 3 4 5 6 
#
# 1 0.013672 -0.000950 -0.003388 0.000000 0.000000 0.000000
# 2 -0.000950 0.015572 -0.000809 0.000000 0.000000 0.000000
# 3 -0.003388 -0.000809 0.009808 0.000000 0.000000 0.000000
# 4 0.000000 0.000000 0.000000 0.043058 0.000000 0.000000
# 5 0.000000 0.000000 0.000000 0.000000 0.035416 0.000000
# 6 0.000000 0.000000 0.000000 0.000000 0.000000 0.031285
#
#
# Mechanical properties :
#
#
# Convention : Reuss Voigt Hill
#
# Bulk Modulus (GPa) = 34.77351 38.07680 36.42516
# Shear Modulus (GPa) = 29.63991 31.06268 30.35129
#
# Velocity S-wave (km/s) = 3.52033 3.60383 3.56233
# Velocity P-wave (km/s) = 5.57340 5.76517 5.67010
#
# Compressibility (1/GPa) = 0.02875752
#
# Stress axis : x y z
#
# Youngs Moduli (GPa) = 73.14086 64.21772 101.96052
#
# Poissons Ratio (x) = 0.06098 0.34547
# Poissons Ratio (y) = 0.06946 0.08252
# Poissons Ratio (z) = 0.24782 0.05197
#
# Static dielectric constant tensor:
#      x y z
#    x 1.901170 0.000000 0.000000 
#    y 0.000000 1.925890 0.000000 
#    z 0.000000 0.000000 1.970050 
# 
# From -- ./inp_files/36896.got.cif
#   From: 2010.05.17/outbox.cif.g08.bks.cpg/sg63_19_cif.got.tgz:36896.got - 2010.06.03 15:47:04.
