data_PCOD9473994
_publ_section_title
;
Structure prediction by ZEFSAII (Michael W. Deem and Ramdas Pophale) SiO2 
 PCOD9473994
Probable space group: C M C M
;
_chemical_formula_sum "Si O2"
_cell_formula_units_Z 112
_cell_length_a 25.948568
_cell_length_b 14.822060
_cell_length_c 14.137998
_cell_angle_alpha 90.000000
_cell_angle_beta 90.000000
_cell_angle_gamma 90.000000
_cell_volume 5437.632826
_symmetry_space_group_name_H-M "C M C M"
_symmetry_group_IT_number 63
_symmetry_cell_setting 'orthorhombic'
loop_
_space_group_symop_operation_xyz
x,y,z
-x,-y,1/2+z
x,-y,-z
-x,y,1/2-z
-x,-y,-z
x,y,1/2-z
-x,y,z
x,-y,1/2+z
1/2+x,1/2+y,z
1/2-x,1/2-y,1/2+z
1/2+x,1/2-y,-z
1/2-x,1/2+y,1/2-z
1/2-x,1/2-y,-z
1/2+x,1/2+y,1/2-z
1/2-x,1/2+y,z
1/2+x,1/2-y,1/2+z
loop_
_atom_site_type_symbol
_atom_site_label
_atom_site_fract_x
_atom_site_fract_y
_atom_site_fract_z
Si Si1 0.557892 0.869763 0.147197
Si Si2 0.056897 0.685531 0.444691
Si Si3 0.717733 0.344001 0.491417
Si Si4 0.630308 0.041394 0.358621
Si Si5 0.400414 0.635722 0.953350
Si Si6 0.250445 0.009731 0.362828
Si Si7 0.438369 0.459421 0.640946
O O1 0.564642 0.826135 0.250000
O O2 0.500000 0.910642 0.145603
O O3 0.559778 0.805659 0.058133
O O4 0.599575 0.947747 0.135710
O O5 0.099913 0.614529 0.417637
O O6 0.067593 0.783952 0.406237
O O7 0.000000 0.652157 0.418580
O O8 0.750000 0.250000 0.500000
O O9 0.657667 0.329425 0.468699
O O10 0.737356 0.413301 0.409930
O O11 0.721521 0.407456 0.585200
O O12 0.628437 0.071656 0.250000
O O13 0.689374 0.027977 0.383926
O O14 0.423160 0.607408 0.055732
O O15 0.405835 0.548520 0.886839
O O16 0.242351 0.008670 0.250000
O O17 0.428170 0.431965 0.750000
O O18 0.500000 0.477525 0.633216
#
# Coordination Sequence:
#
# PCOD9473994 Si02
#       7
#    16  16  16  16  16  16  16
#     4   9  19  34  52  80 116 154 196 233 276 344
#     4  11  22  35  58  89 123 160 193 240 297 356
#     4  11  25  41  64  93 123 166 211 267 314 366
#     4  10  21  36  58  84 116 158 196 237 290 353
#     4  11  23  39  60  89 119 154 201 250 304 360
#     4  10  23  43  65  89 122 162 209 264 318 369
#     4  10  21  40  65  89 118 156 195 246 311 373
#
# _framework density 20.597199
#
# number of rings (size 3 to 8) (size 9 to 14) (size 15 to 20)
#    0.000    1.714    0.000    5.143    6.000    6.000 
#    0.000    1.429    0.000    0.000    0.000    0.000 
#    0.000    0.000    0.000    0.000    0.000    0.000 
#
# Total GULP energy -312553.032161 kJ/mol
# GULP energy per Si atom -5581.304146 kJ/mol
# Density = 2.055032 g / cm^3
# Si number density = 20.597199 Si / 1000 Ang^3
#
#
#
# Elastic Constant Matrix: (Units=GPa)
#
#
# Indices 1 2 3 4 5 6 
#
# 1 75.7938 10.9499 14.5715 0.0000 0.0000 0.0000
# 2 10.9499 70.8108 21.7868 0.0000 0.0000 0.0000
# 3 14.5715 21.7868 77.1465 0.0000 0.0000 0.0000
# 4 0.0000 0.0000 0.0000 -1.0300 0.0000 0.0000
# 5 0.0000 0.0000 0.0000 0.0000 31.6945 0.0000
# 6 0.0000 0.0000 0.0000 0.0000 0.0000 12.5383
#
#
#
# Elastic Compliance Matrix: (Units=1/GPa)
#
#
# Indices 1 2 3 4 5 6 
#
# 1 0.013828 -0.001462 -0.002199 0.000000 0.000000 0.000000
# 2 -0.001462 0.015620 -0.004135 0.000000 0.000000 0.000000
# 3 -0.002199 -0.004135 0.014546 0.000000 0.000000 0.000000
# 4 0.000000 0.000000 0.000000 -0.970862 0.000000 0.000000
# 5 0.000000 0.000000 0.000000 0.000000 0.031551 0.000000
# 6 0.000000 0.000000 0.000000 0.000000 0.000000 0.079756
#
#
# Mechanical properties :
#
#
# Convention : Reuss Voigt Hill
#
# Bulk Modulus (GPa) = 35.20905 35.37417 35.29161
# Shear Modulus (GPa) = -6.32510 20.40340 7.03915
#
# Velocity S-wave (km/s) = -1.75429 3.15078 1.85066
# Velocity P-wave (km/s) = 3.60941 5.51798 4.66240
#
# Compressibility (1/GPa) = 0.02840178
#
# Stress axis : x y z
#
# Youngs Moduli (GPa) = 72.31901 64.01849 68.74961
#
# Poissons Ratio (x) = 0.09357 0.15118
# Poissons Ratio (y) = 0.10571 0.28430
# Poissons Ratio (z) = 0.15903 0.26473
#
# Static dielectric constant tensor:
#      x y z
#    x 1.751030 0.000000 0.000000 
#    y 0.000000 1.707390 0.000000 
#    z 0.000000 0.000000 1.756160 
# 
# From -- ./inp_files/36895.got.cif
#   From: 2010.05.17/outbox.cif.g08.bks.cpg/sg63_19_cif.got.tgz:36895.got - 2010.06.03 15:47:04.
