data_PCOD9473654
_publ_section_title
;
Structure prediction by ZEFSAII (Michael W. Deem and Ramdas Pophale) SiO2 
 PCOD9473654
Probable space group: C M C M
;
_chemical_formula_sum "Si O2"
_cell_formula_units_Z 80
_cell_length_a 8.763420
_cell_length_b 19.759513
_cell_length_c 23.995497
_cell_angle_alpha 90.000000
_cell_angle_beta 90.000000
_cell_angle_gamma 90.000000
_cell_volume 4155.082130
_symmetry_space_group_name_H-M "C M C M"
_symmetry_group_IT_number 63
_symmetry_cell_setting 'orthorhombic'
loop_
_space_group_symop_operation_xyz
x,y,z
-x,-y,1/2+z
x,-y,-z
-x,y,1/2-z
-x,-y,-z
x,y,1/2-z
-x,y,z
x,-y,1/2+z
1/2+x,1/2+y,z
1/2-x,1/2-y,1/2+z
1/2+x,1/2-y,-z
1/2-x,1/2+y,1/2-z
1/2-x,1/2-y,-z
1/2+x,1/2+y,1/2-z
1/2-x,1/2+y,z
1/2+x,1/2-y,1/2+z
loop_
_atom_site_type_symbol
_atom_site_label
_atom_site_fract_x
_atom_site_fract_y
_atom_site_fract_z
Si Si1 0.815954 0.254417 0.750000
Si Si2 0.184521 0.356100 0.849517
Si Si3 0.174569 0.554346 0.950908
Si Si4 0.315812 0.181179 0.024023
Si Si5 0.179402 0.996011 0.340594
Si Si6 0.318377 0.103450 0.750000
O O1 0.773559 0.298524 0.695363
O O2 0.745286 0.179811 0.750000
O O3 0.000000 0.247600 0.750000
O O4 0.232550 0.336407 0.912598
O O5 0.252583 0.428801 0.832981
O O6 0.000000 0.362395 0.849280
O O7 0.282827 0.527007 0.903176
O O8 0.000000 0.562512 0.929065
O O9 0.167017 0.500000 0.000000
O O10 0.227330 0.622699 0.980492
O O11 0.500000 0.183807 0.025146
O O12 0.250000 0.250000 0.000000
O O13 0.258379 0.940099 0.302039
O O14 0.000000 0.997257 0.329537
O O15 0.500000 0.105713 0.750000
#
# Coordination Sequence:
#
# PCOD9473654 Si02
#       6
#     8  16  16  16  16   8
#     4  10  23  42  67  95 125 159 205 262 317 370
#     4  10  21  42  66  91 126 171 210 253 315 379
#     4  10  20  40  65  90 126 169 211 252 306 374
#     4  10  22  38  60  90 127 168 210 255 310 373
#     4  12  25  41  66  97 128 161 212 268 312 366
#     4  12  27  46  67  91 125 167 209 256 319 382
#
# _framework density 19.253530999999999
#
# number of rings (size 3 to 8) (size 9 to 14) (size 15 to 20)
#    0.000    1.400    2.000    3.300    2.800    3.600 
#    0.000    0.000    0.000    0.000    0.000    0.000 
#    0.000    0.000    0.000    0.000    0.000    0.000 
#
# Total GULP energy -223537.935761 kJ/mol
# GULP energy per Si atom -5588.448394 kJ/mol
# Density = 1.920971 g / cm^3
# Si number density = 19.253531 Si / 1000 Ang^3
#
#
#
# Elastic Constant Matrix: (Units=GPa)
#
#
# Indices 1 2 3 4 5 6 
#
# 1 55.5269 55.9309 39.2331 0.0000 0.0000 0.0000
# 2 55.9309 206.0683 66.7784 0.0000 0.0000 0.0000
# 3 39.2331 66.7784 90.1301 0.0000 0.0000 0.0000
# 4 0.0000 0.0000 0.0000 34.0354 0.0000 0.0000
# 5 0.0000 0.0000 0.0000 0.0000 19.4183 0.0000
# 6 0.0000 0.0000 0.0000 0.0000 0.0000 33.8822
#
#
#
# Elastic Compliance Matrix: (Units=1/GPa)
#
#
# Indices 1 2 3 4 5 6 
#
# 1 0.029550 -0.005069 -0.009107 0.000000 0.000000 0.000000
# 2 -0.005069 0.007256 -0.003169 0.000000 0.000000 0.000000
# 3 -0.009107 -0.003169 0.017407 0.000000 0.000000 0.000000
# 4 0.000000 0.000000 0.000000 0.029381 0.000000 0.000000
# 5 0.000000 0.000000 0.000000 0.000000 0.051498 0.000000
# 6 0.000000 0.000000 0.000000 0.000000 0.000000 0.029514
#
#
# Mechanical properties :
#
#
# Convention : Reuss Voigt Hill
#
# Bulk Modulus (GPa) = 51.22400 75.06780 63.14590
# Shear Modulus (GPa) = 24.29488 30.11939 27.20713
#
# Velocity S-wave (km/s) = 3.55609 3.95949 3.76320
# Velocity P-wave (km/s) = 6.59726 7.74449 7.19378
#
# Compressibility (1/GPa) = 0.01952210
#
# Stress axis : x y z
#
# Youngs Moduli (GPa) = 33.84075 137.82360 57.44661
#
# Poissons Ratio (x) = 0.69866 0.52318
# Poissons Ratio (y) = 0.17155 0.18206
# Poissons Ratio (z) = 0.30819 0.43679
#
# Static dielectric constant tensor:
#      x y z
#    x 1.665880 0.000000 0.000000 
#    y 0.000000 1.598800 0.000000 
#    z 0.000000 0.000000 1.668060 
# 
# From -- ./inp_files/66697.got.cif
#   From: 2010.05.17/outbox.cif.g08.bks.cpg/sg63_34_cif.got.tgz:66697.got - 2010.06.03 15:47:04.
