data_PCOD9473434
_publ_section_title
;
Structure prediction by ZEFSAII (Michael W. Deem and Ramdas Pophale) SiO2 
 PCOD9473434
Probable space group: C M C M
;
_chemical_formula_sum "Si O2"
_cell_formula_units_Z 96
_cell_length_a 26.420853
_cell_length_b 7.155511
_cell_length_c 18.510659
_cell_angle_alpha 90.000000
_cell_angle_beta 90.000000
_cell_angle_gamma 90.000000
_cell_volume 3499.527163
_symmetry_space_group_name_H-M "C M C M"
_symmetry_group_IT_number 63
_symmetry_cell_setting 'orthorhombic'
loop_
_space_group_symop_operation_xyz
x,y,z
-x,-y,1/2+z
x,-y,-z
-x,y,1/2-z
-x,-y,-z
x,y,1/2-z
-x,y,z
x,-y,1/2+z
1/2+x,1/2+y,z
1/2-x,1/2-y,1/2+z
1/2+x,1/2-y,-z
1/2-x,1/2+y,1/2-z
1/2-x,1/2-y,-z
1/2+x,1/2+y,1/2-z
1/2-x,1/2+y,z
1/2+x,1/2-y,1/2+z
loop_
_atom_site_type_symbol
_atom_site_label
_atom_site_fract_x
_atom_site_fract_y
_atom_site_fract_z
Si Si1 0.054574 0.159269 0.867682
Si Si2 0.073599 0.409551 0.170588
Si Si3 0.666414 0.540741 0.830066
Si Si4 0.701882 0.752404 0.051634
Si Si5 0.690670 0.026715 0.327830
Si Si6 0.585488 0.215275 0.518449
O O1 0.054736 0.378380 0.843023
O O2 0.105905 0.067868 0.838575
O O3 0.000000 0.081434 0.846612
O O4 0.061103 0.166652 0.954592
O O5 0.057556 0.343999 0.250000
O O6 0.133892 0.443985 0.172986
O O7 0.065748 0.277117 0.100982
O O8 0.674975 0.462043 0.750000
O O9 0.687651 0.751018 0.833882
O O10 0.788953 0.566994 0.898946
O O11 0.690563 0.587420 0.108915
O O12 0.646664 0.762291 0.013023
O O13 0.750000 0.750000 0.000000
O O14 0.714289 0.980263 0.250000
O O15 0.575104 0.000000 0.500000
#
# Coordination Sequence:
#
# PCOD9473434 Si02
#       6
#    16  16  16  16  16  16
#     4  10  20  37  65 101 145 198 251 308 388 473
#     4   8  15  30  59  96 136 185 245 307 375 451
#     4  10  22  42  73 110 146 188 247 316 384 460
#     4  11  23  41  68 107 140 192 256 320 383 463
#     4   8  16  36  66 101 144 189 236 313 389 443
#     4   9  20  40  62  97 146 190 245 311 387 453
#
# _framework density 27.432276000000002
#
# number of rings (size 3 to 8) (size 9 to 14) (size 15 to 20)
#    0.000    2.667    0.000    3.000    0.000    6.333 
#    3.000    1.667    0.000   14.000    0.000   30.333 
#    0.000    0.000    0.000    0.000    0.000    0.000 
#
# Total GULP energy -269164.781052 kJ/mol
# GULP energy per Si atom -5607.599605 kJ/mol
# Density = 2.736984 g / cm^3
# Si number density = 27.432276 Si / 1000 Ang^3
#
#
#
# Elastic Constant Matrix: (Units=GPa)
#
#
# Indices 1 2 3 4 5 6 
#
# 1 195.3799 20.3573 56.4505 0.0000 0.0000 0.0000
# 2 20.3573 86.3821 45.2480 0.0000 0.0000 0.0000
# 3 56.4505 45.2480 204.0775 0.0000 0.0000 0.0000
# 4 0.0000 0.0000 0.0000 37.5261 0.0000 0.0000
# 5 0.0000 0.0000 0.0000 0.0000 -29.6814 0.0000
# 6 0.0000 0.0000 0.0000 0.0000 0.0000 6.6389
#
#
#
# Elastic Compliance Matrix: (Units=1/GPa)
#
#
# Indices 1 2 3 4 5 6 
#
# 1 0.005588 -0.000574 -0.001418 0.000000 0.000000 0.000000
# 2 -0.000574 0.013157 -0.002758 0.000000 0.000000 0.000000
# 3 -0.001418 -0.002758 0.005904 0.000000 0.000000 0.000000
# 4 0.000000 0.000000 0.000000 0.026648 0.000000 0.000000
# 5 0.000000 0.000000 0.000000 0.000000 -0.033691 0.000000
# 6 0.000000 0.000000 0.000000 0.000000 0.000000 0.150628
#
#
# Mechanical properties :
#
#
# Convention : Reuss Voigt Hill
#
# Bulk Modulus (GPa) = 66.01892 81.10567 73.56230
# Shear Modulus (GPa) = 27.35476 27.14898 27.25187
#
# Velocity S-wave (km/s) = 3.16123 3.14932 3.15528
# Velocity P-wave (km/s) = 6.11906 6.54632 6.33629
#
# Compressibility (1/GPa) = 0.01514717
#
# Stress axis : x y z
#
# Youngs Moduli (GPa) = 178.95969 76.00776 169.37580
#
# Poissons Ratio (x) = 0.04362 0.24025
# Poissons Ratio (y) = 0.10270 0.46719
# Poissons Ratio (z) = 0.25384 0.20965
#
# Static dielectric constant tensor:
#      x y z
#    x 2.150970 0.000000 0.000000 
#    y 0.000000 2.133150 0.000000 
#    z 0.000000 0.000000 2.153610 
# 
# From -- ./inp_files/47264.got.cif
#   From: 2010.05.17/outbox.cif.g08.bks.cpg/sg63_24_cif.got.tgz:47264.got - 2010.06.03 15:47:04.
