data_PCOD9473603
_publ_section_title
;
Structure prediction by ZEFSAII (Michael W. Deem and Ramdas Pophale) SiO2 
 PCOD9473603
Probable space group: C M C M
;
_chemical_formula_sum "Si O2"
_cell_formula_units_Z 100
_cell_length_a 16.282129
_cell_length_b 13.724452
_cell_length_c 21.256772
_cell_angle_alpha 90.000000
_cell_angle_beta 90.000000
_cell_angle_gamma 90.000000
_cell_volume 4750.108374
_symmetry_space_group_name_H-M "C M C M"
_symmetry_group_IT_number 63
_symmetry_cell_setting 'orthorhombic'
loop_
_space_group_symop_operation_xyz
x,y,z
-x,-y,1/2+z
x,-y,-z
-x,y,1/2-z
-x,-y,-z
x,y,1/2-z
-x,y,z
x,-y,1/2+z
1/2+x,1/2+y,z
1/2-x,1/2-y,1/2+z
1/2+x,1/2-y,-z
1/2-x,1/2+y,1/2-z
1/2-x,1/2-y,-z
1/2+x,1/2+y,1/2-z
1/2-x,1/2+y,z
1/2+x,1/2-y,1/2+z
loop_
_atom_site_type_symbol
_atom_site_label
_atom_site_fract_x
_atom_site_fract_y
_atom_site_fract_z
Si Si1 0.269747 0.142503 0.924759
Si Si2 0.907645 0.083093 0.553182
Si Si3 0.642412 0.960182 0.852989
Si Si4 0.500000 0.004434 0.750000
Si Si5 0.910819 0.614350 0.481757
Si Si6 0.904303 0.034341 0.319171
Si Si7 0.225657 0.196041 0.319061
O O1 0.264892 0.226440 0.873393
O O2 0.179715 0.134797 0.955877
O O3 0.304075 0.045340 0.887797
O O4 0.337176 0.159864 0.978842
O O5 0.894695 0.038083 0.622852
O O6 0.000000 0.128988 0.552771
O O7 0.910446 0.000000 0.500000
O O8 0.573030 0.000052 0.805794
O O9 0.602663 0.892462 0.907498
O O10 0.704453 0.886263 0.819734
O O11 0.911736 0.500000 0.500000
O O12 0.000000 0.655645 0.498415
O O13 0.878789 0.995024 0.250000
O O14 0.856306 0.133774 0.329900
O O15 0.000000 0.056501 0.316581
O O16 0.222832 0.243005 0.250000
#
# Coordination Sequence:
#
# PCOD9473603 Si02
#       7
#    16  16  16   4  16  16  16
#     4  11  24  39  65  95 128 165 211 260 318 376
#     4  10  20  39  65  92 123 162 211 262 308 363
#     4  11  22  43  65  89 130 163 213 257 316 382
#     4  12  24  40  70  96 118 182 204 256 326 384
#     4   9  19  38  62  90 126 166 207 259 317 378
#     4   9  19  38  61  84 119 164 204 248 309 368
#     4  11  24  40  61  93 128 163 203 258 315 370
#
# _framework density 21.052150999999999
#
# number of rings (size 3 to 8) (size 9 to 14) (size 15 to 20)
#    0.000    1.760    3.200    1.440    2.240    1.920 
#    1.440    0.000    0.000    0.000    0.000    0.000 
#    0.000    0.000    0.000    0.000    0.000    0.000 
#
# Total GULP energy -278358.856809 kJ/mol
# GULP energy per Si atom -5567.177136 kJ/mol
# Density = 2.100424 g / cm^3
# Si number density = 21.052151 Si / 1000 Ang^3
#
#
#
# Elastic Constant Matrix: (Units=GPa)
#
#
# Indices 1 2 3 4 5 6 
#
# 1 154.1718 31.0956 50.4756 0.0000 0.0000 0.0000
# 2 31.0956 49.9716 23.3950 0.0000 0.0000 0.0000
# 3 50.4756 23.3950 84.0254 0.0000 0.0000 0.0000
# 4 0.0000 0.0000 0.0000 51.1100 0.0000 0.0000
# 5 0.0000 0.0000 0.0000 0.0000 35.0981 0.0000
# 6 0.0000 0.0000 0.0000 0.0000 0.0000 -19.5806
#
#
#
# Elastic Compliance Matrix: (Units=1/GPa)
#
#
# Indices 1 2 3 4 5 6 
#
# 1 0.008535 -0.003347 -0.004195 0.000000 0.000000 0.000000
# 2 -0.003347 0.024323 -0.004762 0.000000 0.000000 0.000000
# 3 -0.004195 -0.004762 0.015747 0.000000 0.000000 0.000000
# 4 0.000000 0.000000 0.000000 0.019566 0.000000 0.000000
# 5 0.000000 0.000000 0.000000 0.000000 0.028492 0.000000
# 6 0.000000 0.000000 0.000000 0.000000 0.000000 -0.051071
#
#
# Mechanical properties :
#
#
# Convention : Reuss Voigt Hill
#
# Bulk Modulus (GPa) = 41.67083 55.34457 48.50770
# Shear Modulus (GPa) = 63.94009 25.53901 44.73955
#
# Velocity S-wave (km/s) = 5.51708 3.48678 4.61497
# Velocity P-wave (km/s) = 7.77311 6.52354 7.17558
#
# Compressibility (1/GPa) = 0.02399760
#
# Stress axis : x y z
#
# Youngs Moduli (GPa) = 117.16734 41.11285 63.50383
#
# Poissons Ratio (x) = 0.13760 0.26641
# Poissons Ratio (y) = 0.39214 0.30239
# Poissons Ratio (z) = 0.49153 0.19577
#
# Static dielectric constant tensor:
#      x y z
#    x 1.792200 0.000000 0.000000 
#    y 0.000000 1.746900 0.000000 
#    z 0.000000 0.000000 1.845120 
# 
# From -- ./inp_files/54495.got.cif
#   From: 2010.05.17/outbox.cif.g08.bks.cpg/sg63_28_cif.got.tgz:54495.got - 2010.06.03 15:47:04.
