data_PCOD9473174
_publ_section_title
;
Structure prediction by ZEFSAII (Michael W. Deem and Ramdas Pophale) SiO2 
 PCOD9473174
Probable space group: C M C M
;
_chemical_formula_sum "Si O2"
_cell_formula_units_Z 96
_cell_length_a 8.877721
_cell_length_b 25.544261
_cell_length_c 23.689036
_cell_angle_alpha 90.000000
_cell_angle_beta 90.000000
_cell_angle_gamma 90.000000
_cell_volume 5372.076930
_symmetry_space_group_name_H-M "C M C M"
_symmetry_group_IT_number 63
_symmetry_cell_setting 'orthorhombic'
loop_
_space_group_symop_operation_xyz
x,y,z
-x,-y,1/2+z
x,-y,-z
-x,y,1/2-z
-x,-y,-z
x,y,1/2-z
-x,y,z
x,-y,1/2+z
1/2+x,1/2+y,z
1/2-x,1/2-y,1/2+z
1/2+x,1/2-y,-z
1/2-x,1/2+y,1/2-z
1/2-x,1/2-y,-z
1/2+x,1/2+y,1/2-z
1/2-x,1/2+y,z
1/2+x,1/2-y,1/2+z
loop_
_atom_site_type_symbol
_atom_site_label
_atom_site_fract_x
_atom_site_fract_y
_atom_site_fract_z
Si Si1 0.679534 0.604339 0.631243
Si Si2 0.680257 0.316698 0.549339
Si Si3 0.819850 0.050132 0.750000
Si Si4 0.679083 0.197344 0.928243
Si Si5 0.679554 0.065429 0.250000
Si Si6 0.180526 0.087886 0.367818
Si Si7 0.320186 0.009608 0.565865
O O1 0.500000 0.602789 0.623927
O O2 0.715109 0.582800 0.693659
O O3 0.740333 0.661951 0.618207
O O4 0.756421 0.564721 0.587146
O O5 0.500000 0.318563 0.538560
O O6 0.715041 0.259164 0.574126
O O7 0.764879 0.321414 0.489890
O O8 0.718306 0.362835 0.592467
O O9 0.000000 0.039043 0.750000
O O10 0.733816 0.995135 0.750000
O O11 0.500000 0.190965 0.924086
O O12 0.500000 0.067537 0.250000
O O13 0.746212 0.091230 0.193655
O O14 0.000000 0.084421 0.362589
O O15 0.242434 0.035667 0.397545
O O16 0.500000 0.007885 0.574137
O O17 0.287921 0.000000 0.500000
#
# Coordination Sequence:
#
# PCOD9473174 Si02
#       7
#    16  16   8  16   8  16  16
#     4  11  22  37  58  82 112 150 193 233 282 343
#     4   9  20  38  60  85 114 153 192 230 284 344
#     4  10  22  40  59  80 109 151 194 234 282 339
#     4  10  20  36  59  87 118 149 188 237 286 337
#     4  12  24  38  59  84 113 149 192 238 290 339
#     4  11  22  38  59  82 113 151 194 234 279 343
#     4  11  23  36  53  83 118 147 183 235 290 339
#
# _framework density 17.870183000000001
#
# number of rings (size 3 to 8) (size 9 to 14) (size 15 to 20)
#    0.000    1.500    1.667    3.750    0.000    6.667 
#    0.000    0.833    0.000    3.000    0.000    0.000 
#    0.000    0.000    0.000    0.000    0.000    0.000 
#
# Total GULP energy -268289.374581 kJ/mol
# GULP energy per Si atom -5589.361970 kJ/mol
# Density = 1.782951 g / cm^3
# Si number density = 17.870183 Si / 1000 Ang^3
#
#
#
# Elastic Constant Matrix: (Units=GPa)
#
#
# Indices 1 2 3 4 5 6 
#
# 1 43.8012 16.2510 21.3913 0.0000 0.0000 0.0000
# 2 16.2510 60.5911 7.8476 0.0000 0.0000 0.0000
# 3 21.3913 7.8476 40.0319 0.0000 0.0000 0.0000
# 4 0.0000 0.0000 0.0000 23.0535 0.0000 0.0000
# 5 0.0000 0.0000 0.0000 0.0000 29.1269 0.0000
# 6 0.0000 0.0000 0.0000 0.0000 0.0000 30.8779
#
#
#
# Elastic Compliance Matrix: (Units=1/GPa)
#
#
# Indices 1 2 3 4 5 6 
#
# 1 0.033435 -0.006827 -0.016528 0.000000 0.000000 0.000000
# 2 -0.006827 0.018328 0.000055 0.000000 0.000000 0.000000
# 3 -0.016528 0.000055 0.033801 0.000000 0.000000 0.000000
# 4 0.000000 0.000000 0.000000 0.043377 0.000000 0.000000
# 5 0.000000 0.000000 0.000000 0.000000 0.034333 0.000000
# 6 0.000000 0.000000 0.000000 0.000000 0.000000 0.032386
#
#
# Mechanical properties :
#
#
# Convention : Reuss Voigt Hill
#
# Bulk Modulus (GPa) = 25.66428 26.15599 25.91014
# Shear Modulus (GPa) = 19.58882 23.20727 21.39805
#
# Velocity S-wave (km/s) = 3.31444 3.60760 3.46412
# Velocity P-wave (km/s) = 5.38888 5.65875 5.52547
#
# Compressibility (1/GPa) = 0.03896466
#
# Stress axis : x y z
#
# Youngs Moduli (GPa) = 29.90864 54.56141 29.58483
#
# Poissons Ratio (x) = 0.37249 0.48898
# Poissons Ratio (y) = 0.20418 -0.00163
# Poissons Ratio (z) = 0.49433 -0.00301
#
# Static dielectric constant tensor:
#      x y z
#    x 1.595160 0.000000 0.000000 
#    y 0.000000 1.594400 0.000000 
#    z 0.000000 0.000000 1.591720 
# 
# From -- ./inp_files/59989.got.cif
#   From: 2010.05.17/outbox.cif.g08.bks.cpg/sg63_30_cif.got.tgz:59989.got - 2010.06.03 15:47:04.
