data_PCOD9473794
_publ_section_title
;
Structure prediction by ZEFSAII (Michael W. Deem and Ramdas Pophale) SiO2 
 PCOD9473794
Probable space group: C M C M
;
_chemical_formula_sum "Si O2"
_cell_formula_units_Z 80
_cell_length_a 7.625794
_cell_length_b 20.523440
_cell_length_c 29.232052
_cell_angle_alpha 90.000000
_cell_angle_beta 90.000000
_cell_angle_gamma 90.000000
_cell_volume 4575.036127
_symmetry_space_group_name_H-M "C M C M"
_symmetry_group_IT_number 63
_symmetry_cell_setting 'orthorhombic'
loop_
_space_group_symop_operation_xyz
x,y,z
-x,-y,1/2+z
x,-y,-z
-x,y,1/2-z
-x,-y,-z
x,y,1/2-z
-x,y,z
x,-y,1/2+z
1/2+x,1/2+y,z
1/2-x,1/2-y,1/2+z
1/2+x,1/2-y,-z
1/2-x,1/2+y,1/2-z
1/2-x,1/2-y,-z
1/2+x,1/2+y,1/2-z
1/2-x,1/2+y,z
1/2+x,1/2-y,1/2+z
loop_
_atom_site_type_symbol
_atom_site_label
_atom_site_fract_x
_atom_site_fract_y
_atom_site_fract_z
Si Si1 0.703316 0.558996 0.471117
Si Si2 0.291238 0.815445 0.472244
Si Si3 0.000000 0.610821 0.197848
Si Si4 0.293223 0.231570 0.626582
Si Si5 0.500000 0.268989 0.198095
Si Si6 0.708311 0.612094 0.125515
O O1 0.784865 0.500000 0.500000
O O2 0.500000 0.541758 0.462699
O O3 0.710093 0.623373 0.502089
O O4 0.772627 0.577061 0.420878
O O5 0.500000 0.824539 0.472323
O O6 0.250000 0.750000 0.500000
O O7 0.236622 0.804541 0.419815
O O8 0.000000 0.689906 0.200018
O O9 0.171707 0.592775 0.168388
O O10 0.000000 0.586663 0.250000
O O11 0.500000 0.219998 0.634683
O O12 0.272480 0.309615 0.618601
O O13 0.171310 0.212562 0.668913
O O14 0.500000 0.293323 0.250000
O O15 0.500000 0.600361 0.132619
#
# Coordination Sequence:
#
# PCOD9473794 Si02
#       6
#    16  16   8  16   8  16
#     4  10  21  35  50  74 110 143 175 214 263 313
#     4  11  21  31  51  77 104 142 177 211 254 309
#     4   9  18  30  47  73  99 128 171 214 260 313
#     4   9  18  30  46  73 102 130 172 211 251 311
#     4   9  18  30  48  71 100 134 164 210 271 309
#     4   9  17  31  48  69 102 137 165 208 262 308
#
# _framework density 17.486201000000001
#
# number of rings (size 3 to 8) (size 9 to 14) (size 15 to 20)
#    0.000    2.400    2.000    0.600    4.200    1.200 
#    0.000    4.000    0.000    0.000    0.000    1.400 
#    0.000    0.000    0.000    0.000    0.000    0.000 
#
# Total GULP energy -222982.383115 kJ/mol
# GULP energy per Si atom -5574.559578 kJ/mol
# Density = 1.744640 g / cm^3
# Si number density = 17.486201 Si / 1000 Ang^3
#
#
#
# Elastic Constant Matrix: (Units=GPa)
#
#
# Indices 1 2 3 4 5 6 
#
# 1 64.1515 4.9923 58.4012 0.0000 0.0000 0.0000
# 2 4.9923 46.4335 32.4304 0.0000 0.0000 0.0000
# 3 58.4012 32.4304 186.6021 0.0000 0.0000 0.0000
# 4 0.0000 0.0000 0.0000 13.1239 0.0000 0.0000
# 5 0.0000 0.0000 0.0000 0.0000 29.3137 0.0000
# 6 0.0000 0.0000 0.0000 0.0000 0.0000 6.8047
#
#
#
# Elastic Compliance Matrix: (Units=1/GPa)
#
#
# Indices 1 2 3 4 5 6 
#
# 1 0.022113 0.002796 -0.007407 0.000000 0.000000 0.000000
# 2 0.002796 0.024865 -0.005196 0.000000 0.000000 0.000000
# 3 -0.007407 -0.005196 0.008580 0.000000 0.000000 0.000000
# 4 0.000000 0.000000 0.000000 0.076197 0.000000 0.000000
# 5 0.000000 0.000000 0.000000 0.000000 0.034114 0.000000
# 6 0.000000 0.000000 0.000000 0.000000 0.000000 0.146957
#
#
# Mechanical properties :
#
#
# Convention : Reuss Voigt Hill
#
# Bulk Modulus (GPa) = 27.82152 54.31500 41.06826
# Shear Modulus (GPa) = 14.51707 23.27268 18.89487
#
# Velocity S-wave (km/s) = 2.88445 3.65213 3.29075
# Velocity P-wave (km/s) = 5.19985 6.99379 6.16245
#
# Compressibility (1/GPa) = 0.03594339
#
# Stress axis : x y z
#
# Youngs Moduli (GPa) = 45.22157 40.21747 116.54781
#
# Poissons Ratio (x) = -0.11243 0.86323
# Poissons Ratio (y) = -0.12642 0.60562
# Poissons Ratio (z) = 0.33494 0.20898
#
# Static dielectric constant tensor:
#      x y z
#    x 1.623440 0.000000 0.000000 
#    y 0.000000 1.573030 0.000000 
#    z 0.000000 0.000000 1.594510 
# 
# From -- ./inp_files/59553.got.cif
#   From: 2010.05.17/outbox.cif.g08.bks.cpg/sg63_30_cif.got.tgz:59553.got - 2010.06.03 15:47:04.
