data_PCOD9473751
_publ_section_title
;
Structure prediction by ZEFSAII (Michael W. Deem and Ramdas Pophale) SiO2 
 PCOD9473751
Probable space group: C M C M
;
_chemical_formula_sum "Si O2"
_cell_formula_units_Z 88
_cell_length_a 27.289263
_cell_length_b 18.041104
_cell_length_c 10.256243
_cell_angle_alpha 90.000000
_cell_angle_beta 90.000000
_cell_angle_gamma 90.000000
_cell_volume 5049.440033
_symmetry_space_group_name_H-M "C M C M"
_symmetry_group_IT_number 63
_symmetry_cell_setting 'orthorhombic'
loop_
_space_group_symop_operation_xyz
x,y,z
-x,-y,1/2+z
x,-y,-z
-x,y,1/2-z
-x,-y,-z
x,y,1/2-z
-x,y,z
x,-y,1/2+z
1/2+x,1/2+y,z
1/2-x,1/2-y,1/2+z
1/2+x,1/2-y,-z
1/2-x,1/2+y,1/2-z
1/2-x,1/2-y,-z
1/2+x,1/2+y,1/2-z
1/2-x,1/2+y,z
1/2+x,1/2-y,1/2+z
loop_
_atom_site_type_symbol
_atom_site_label
_atom_site_fract_x
_atom_site_fract_y
_atom_site_fract_z
Si Si1 0.058401 0.053542 0.609153
Si Si2 0.313306 0.062963 0.603777
Si Si3 0.903872 0.674200 0.600259
Si Si4 0.500000 0.927323 0.406378
Si Si5 0.880301 0.194767 0.598767
Si Si6 0.200672 0.929193 0.095209
O O1 0.076299 0.027854 0.750000
O O2 0.074850 0.137148 0.592526
O O3 0.000000 0.049610 0.607407
O O4 0.078606 0.000000 0.500000
O O5 0.313716 0.030889 0.750000
O O6 0.355354 0.123731 0.597336
O O7 0.258062 0.091685 0.580554
O O8 0.323781 0.000000 0.500000
O O9 0.910477 0.701476 0.750000
O O10 0.951521 0.623274 0.569838
O O11 0.893009 0.739518 0.498854
O O12 0.500000 0.946930 0.250000
O O13 0.500000 0.000000 0.500000
O O14 0.874413 0.219403 0.750000
O O15 0.834049 0.141224 0.565526
O O16 0.192944 0.947360 0.250000
O O17 0.192498 0.000000 0.000000
#
# Coordination Sequence:
#
# PCOD9473751 Si02
#       6
#    16  16  16   8  16  16
#     4   9  18  32  49  70  96 129 170 212 252 297
#     4   9  18  34  55  77 103 134 171 215 260 309
#     4  10  22  37  53  77 107 137 170 214 265 312
#     4  10  22  40  60  82 105 132 173 220 263 312
#     4  10  21  34  50  75 107 139 172 212 254 306
#     4   9  18  33  53  78 106 138 176 215 254 302
#
# _framework density 17.427674
#
# number of rings (size 3 to 8) (size 9 to 14) (size 15 to 20)
#    0.000    2.545    0.000    1.091    1.273    3.636 
#    0.000    0.000    0.000    0.000    0.000    0.000 
#    0.000    0.000    0.000    0.000    0.000    0.000 
#
# Total GULP energy -245061.357141 kJ/mol
# GULP energy per Si atom -5569.576299 kJ/mol
# Density = 1.738801 g / cm^3
# Si number density = 17.427674 Si / 1000 Ang^3
#
#
#
# Elastic Constant Matrix: (Units=GPa)
#
#
# Indices 1 2 3 4 5 6 
#
# 1 101.6141 54.4467 56.5375 0.0000 0.0000 0.0000
# 2 54.4467 100.5463 102.5312 0.0000 0.0000 0.0000
# 3 56.5375 102.5312 138.2574 0.0000 0.0000 0.0000
# 4 0.0000 0.0000 0.0000 45.4146 0.0000 0.0000
# 5 0.0000 0.0000 0.0000 0.0000 18.8303 0.0000
# 6 0.0000 0.0000 0.0000 0.0000 0.0000 -116.6577
#
#
#
# Elastic Compliance Matrix: (Units=1/GPa)
#
#
# Indices 1 2 3 4 5 6 
#
# 1 0.013870 -0.007084 -0.000418 0.000000 0.000000 0.000000
# 2 -0.007084 0.044419 -0.030044 0.000000 0.000000 0.000000
# 3 -0.000418 -0.030044 0.029684 0.000000 0.000000 0.000000
# 4 0.000000 0.000000 0.000000 0.022019 0.000000 0.000000
# 5 0.000000 0.000000 0.000000 0.000000 0.053106 0.000000
# 6 0.000000 0.000000 0.000000 0.000000 0.000000 -0.008572
#
#
# Mechanical properties :
#
#
# Convention : Reuss Voigt Hill
#
# Bulk Modulus (GPa) = 77.63739 85.27206 81.45473
# Shear Modulus (GPa) = 21.37561 -2.02240 9.67661
#
# Velocity S-wave (km/s) = 3.50599 -1.07841 2.35892
# Velocity P-wave (km/s) = 7.81245 6.89091 7.36611
#
# Compressibility (1/GPa) = 0.01288039
#
# Stress axis : x y z
#
# Youngs Moduli (GPa) = 72.10009 22.51303 33.68785
#
# Poissons Ratio (x) = 0.15949 0.01409
# Poissons Ratio (y) = 0.51077 1.01211
# Poissons Ratio (z) = 0.03015 0.67638
#
# Static dielectric constant tensor:
#      x y z
#    x 1.621980 0.000000 0.000000 
#    y 0.000000 1.551110 0.000000 
#    z 0.000000 0.000000 1.617020 
# 
# From -- ./inp_files/14163.got.cif
#   From: 2010.05.17/outbox.cif.g08.bks.cpg/sg63_8_cif.got.tgz:14163.got - 2010.06.03 15:47:04.
