data_PCOD9473845
_publ_section_title
;
Structure prediction by ZEFSAII (Michael W. Deem and Ramdas Pophale) SiO2 
 PCOD9473845
Probable space group: C M C M
;
_chemical_formula_sum "Si O2"
_cell_formula_units_Z 112
_cell_length_a 14.637667
_cell_length_b 30.722886
_cell_length_c 12.357763
_cell_angle_alpha 90.000000
_cell_angle_beta 90.000000
_cell_angle_gamma 90.000000
_cell_volume 5557.426585
_symmetry_space_group_name_H-M "C M C M"
_symmetry_group_IT_number 63
_symmetry_cell_setting 'orthorhombic'
loop_
_space_group_symop_operation_xyz
x,y,z
-x,-y,1/2+z
x,-y,-z
-x,y,1/2-z
-x,-y,-z
x,y,1/2-z
-x,y,z
x,-y,1/2+z
1/2+x,1/2+y,z
1/2-x,1/2-y,1/2+z
1/2+x,1/2-y,-z
1/2-x,1/2+y,1/2-z
1/2-x,1/2-y,-z
1/2+x,1/2+y,1/2-z
1/2-x,1/2+y,z
1/2+x,1/2-y,1/2+z
loop_
_atom_site_type_symbol
_atom_site_label
_atom_site_fract_x
_atom_site_fract_y
_atom_site_fract_z
Si Si1 0.900871 0.554256 0.127960
Si Si2 0.296867 0.240091 0.122873
Si Si3 0.107801 0.875629 0.628362
Si Si4 0.396369 0.324590 0.418840
Si Si5 0.784729 0.046127 0.486609
Si Si6 0.224455 0.618476 0.633211
Si Si7 0.393839 0.847463 0.564124
O O1 0.902940 0.538405 0.250000
O O2 0.810578 0.536943 0.072969
O O3 0.891603 0.606878 0.127655
O O4 0.000000 0.545012 0.076028
O O5 0.257310 0.245336 0.250000
O O6 0.377480 0.275627 0.115620
O O7 0.336738 0.191631 0.115329
O O8 0.250000 0.250000 0.000000
O O9 0.138859 0.866169 0.750000
O O10 0.117826 0.834942 0.547018
O O11 0.160543 0.917081 0.579930
O O12 0.000000 0.885712 0.630420
O O13 0.500000 0.337816 0.392710
O O14 0.316914 0.353295 0.366844
O O15 0.755800 0.070769 0.595704
O O16 0.833821 0.000000 0.500000
O O17 0.181319 0.617932 0.750000
O O18 0.155882 0.639644 0.547570
O O19 0.500000 0.835056 0.550770
#
# Coordination Sequence:
#
# PCOD9473845 Si02
#       7
#    16  16  16  16  16  16  16
#     4   9  18  34  56  81 108 140 184 237 288 344
#     4  12  25  40  60  91 127 163 204 256 305 356
#     4   9  19  37  60  85 115 151 193 242 299 359
#     4  10  21  38  60  86 116 154 199 248 298 352
#     4  10  21  35  55  83 114 150 191 241 293 358
#     4  10  21  38  56  82 119 157 197 247 303 362
#     4  10  21  38  60  86 114 154 202 249 297 351
#
# _framework density 20.153213000000001
#
# number of rings (size 3 to 8) (size 9 to 14) (size 15 to 20)
#    0.000    2.000    1.429    1.714    0.000    5.143 
#    0.000    0.000    0.000    2.571    0.000    0.000 
#    0.000    0.000    0.000    0.000    0.000    0.000 
#
# Total GULP energy -311841.607843 kJ/mol
# GULP energy per Si atom -5568.600140 kJ/mol
# Density = 2.010734 g / cm^3
# Si number density = 20.153213 Si / 1000 Ang^3
#
#
#
# Elastic Constant Matrix: (Units=GPa)
#
#
# Indices 1 2 3 4 5 6 
#
# 1 65.3433 -3.6077 19.3130 0.0000 0.0000 0.0000
# 2 -3.6077 67.6803 16.5676 0.0000 0.0000 0.0000
# 3 19.3130 16.5676 130.3190 0.0000 0.0000 0.0000
# 4 0.0000 0.0000 0.0000 -8.7899 0.0000 0.0000
# 5 0.0000 0.0000 0.0000 0.0000 36.2941 0.0000
# 6 0.0000 0.0000 0.0000 0.0000 0.0000 8.0179
#
#
#
# Elastic Compliance Matrix: (Units=1/GPa)
#
#
# Indices 1 2 3 4 5 6 
#
# 1 0.016150 0.001493 -0.002583 0.000000 0.000000 0.000000
# 2 0.001493 0.015388 -0.002178 0.000000 0.000000 0.000000
# 3 -0.002583 -0.002178 0.008333 0.000000 0.000000 0.000000
# 4 0.000000 0.000000 0.000000 -0.113767 0.000000 0.000000
# 5 0.000000 0.000000 0.000000 0.000000 0.027553 0.000000
# 6 0.000000 0.000000 0.000000 0.000000 0.000000 0.124721
#
#
# Mechanical properties :
#
#
# Convention : Reuss Voigt Hill
#
# Bulk Modulus (GPa) = 29.99783 36.43204 33.21494
# Shear Modulus (GPa) = 52.06989 22.50906 37.28948
#
# Velocity S-wave (km/s) = 5.08853 3.34563 4.30618
# Velocity P-wave (km/s) = 7.03145 5.74814 6.42193
#
# Compressibility (1/GPa) = 0.03333574
#
# Stress axis : x y z
#
# Youngs Moduli (GPa) = 61.92054 64.98571 120.00275
#
# Poissons Ratio (x) = -0.09704 0.30999
# Poissons Ratio (y) = -0.09246 0.26132
# Poissons Ratio (z) = 0.15995 0.14151
#
# Static dielectric constant tensor:
#      x y z
#    x 1.718260 0.000000 0.000000 
#    y 0.000000 1.709400 0.000000 
#    z 0.000000 0.000000 1.848580 
# 
# From -- ./inp_files/20073.got.cif
#   From: 2010.05.17/outbox.cif.g08.bks.cpg/sg63_11_cif.got.tgz:20073.got - 2010.06.03 15:47:04.
