data_PCOD9473548
_publ_section_title
;
Structure prediction by ZEFSAII (Michael W. Deem and Ramdas Pophale) SiO2 
 PCOD9473548
Probable space group: C M C M
;
_chemical_formula_sum "Si O2"
_cell_formula_units_Z 84
_cell_length_a 19.589771
_cell_length_b 8.071409
_cell_length_c 24.990940
_cell_angle_alpha 90.000000
_cell_angle_beta 90.000000
_cell_angle_gamma 90.000000
_cell_volume 3951.493808
_symmetry_space_group_name_H-M "C M C M"
_symmetry_group_IT_number 63
_symmetry_cell_setting 'orthorhombic'
loop_
_space_group_symop_operation_xyz
x,y,z
-x,-y,1/2+z
x,-y,-z
-x,y,1/2-z
-x,-y,-z
x,y,1/2-z
-x,y,z
x,-y,1/2+z
1/2+x,1/2+y,z
1/2-x,1/2-y,1/2+z
1/2+x,1/2-y,-z
1/2-x,1/2+y,1/2-z
1/2-x,1/2-y,-z
1/2+x,1/2+y,1/2-z
1/2-x,1/2+y,z
1/2+x,1/2-y,1/2+z
loop_
_atom_site_type_symbol
_atom_site_label
_atom_site_fract_x
_atom_site_fract_y
_atom_site_fract_z
Si Si1 0.924136 0.042851 0.352189
Si Si2 0.163166 0.546715 0.060021
Si Si3 0.286913 0.206213 0.750000
Si Si4 0.644882 0.428836 0.250000
Si Si5 0.608454 0.915924 0.331406
Si Si6 0.819924 0.061298 0.940641
Si Si7 0.500000 0.050132 0.250000
O O1 0.901641 0.929311 0.302412
O O2 0.923822 0.231744 0.331486
O O3 0.000000 0.999302 0.371034
O O4 0.866977 0.028098 0.397382
O O5 0.118714 0.476688 0.108413
O O6 0.167911 0.743870 0.063841
O O7 0.239940 0.476181 0.066869
O O8 0.139998 0.500000 0.000000
O O9 0.315567 0.393174 0.750000
O O10 0.319020 0.113241 0.801475
O O11 0.205639 0.202034 0.750000
O O12 0.559937 0.030991 0.296422
O O13 0.837709 0.000000 0.000000
#
# Coordination Sequence:
#
# PCOD9473548 Si02
#       7
#    16  16   8   8  16  16   4
#     4  11  22  38  62  88 127 172 214 254 309 383
#     4  11  22  41  68  98 126 160 211 269 328 375
#     4   9  20  33  58  87 118 156 204 261 309 370
#     4  10  21  36  59  89 120 159 213 259 318 367
#     4  10  20  38  64  91 123 168 212 254 316 375
#     4  11  23  41  66  96 130 163 209 267 322 379
#     4  10  20  40  66  88 128 170 210 256 308 380
#
# _framework density 21.257783
#
# number of rings (size 3 to 8) (size 9 to 14) (size 15 to 20)
#    0.000    1.524    0.952    6.571    0.000    4.952 
#    1.714    1.429    0.000    0.000    0.000    0.000 
#    0.000    0.000    0.000    0.000    0.000    0.000 
#
# Total GULP energy -234454.534651 kJ/mol
# GULP energy per Si atom -5582.250825 kJ/mol
# Density = 2.120940 g / cm^3
# Si number density = 21.257783 Si / 1000 Ang^3
#
#
#
# Elastic Constant Matrix: (Units=GPa)
#
#
# Indices 1 2 3 4 5 6 
#
# 1 63.0084 -1.5966 46.6344 0.0000 0.0000 0.0000
# 2 -1.5966 66.4969 -9.8702 0.0000 0.0000 0.0000
# 3 46.6344 -9.8702 142.5649 0.0000 0.0000 0.0000
# 4 0.0000 0.0000 0.0000 10.3677 0.0000 0.0000
# 5 0.0000 0.0000 0.0000 0.0000 2.0377 0.0000
# 6 0.0000 0.0000 0.0000 0.0000 0.0000 7.5808
#
#
#
# Elastic Compliance Matrix: (Units=1/GPa)
#
#
# Indices 1 2 3 4 5 6 
#
# 1 0.020959 -0.000520 -0.006892 0.000000 0.000000 0.000000
# 2 -0.000520 0.015207 0.001223 0.000000 0.000000 0.000000
# 3 -0.006892 0.001223 0.009353 0.000000 0.000000 0.000000
# 4 0.000000 0.000000 0.000000 0.096454 0.000000 0.000000
# 5 0.000000 0.000000 0.000000 0.000000 0.490754 0.000000
# 6 0.000000 0.000000 0.000000 0.000000 0.000000 0.131912
#
#
# Mechanical properties :
#
#
# Convention : Reuss Voigt Hill
#
# Bulk Modulus (GPa) = 30.17319 38.04506 34.10912
# Shear Modulus (GPa) = 6.34467 19.79073 13.06770
#
# Velocity S-wave (km/s) = 1.72948 3.05452 2.48206
# Velocity P-wave (km/s) = 4.26766 5.51144 4.92894
#
# Compressibility (1/GPa) = 0.03314201
#
# Stress axis : x y z
#
# Youngs Moduli (GPa) = 47.71332 65.75774 106.91340
#
# Poissons Ratio (x) = 0.03418 0.73682
# Poissons Ratio (y) = 0.02480 -0.13074
# Poissons Ratio (z) = 0.32883 -0.08041
#
# Static dielectric constant tensor:
#      x y z
#    x 1.691550 0.000000 0.000000 
#    y 0.000000 1.801500 0.000000 
#    z 0.000000 0.000000 1.749480 
# 
# From -- ./inp_files/64342.got.cif
#   From: 2010.05.17/outbox.cif.g08.bks.cpg/sg63_33_cif.got.tgz:64342.got - 2010.06.03 15:47:04.
