data_PCOD9473889
_publ_section_title
;
Structure prediction by ZEFSAII (Michael W. Deem and Ramdas Pophale) SiO2 
 PCOD9473889
Probable space group: C M C M
;
_chemical_formula_sum "Si O2"
_cell_formula_units_Z 80
_cell_length_a 9.366491
_cell_length_b 14.525677
_cell_length_c 30.593155
_cell_angle_alpha 90.000000
_cell_angle_beta 90.000000
_cell_angle_gamma 90.000000
_cell_volume 4162.340167
_symmetry_space_group_name_H-M "C M C M"
_symmetry_group_IT_number 63
_symmetry_cell_setting 'orthorhombic'
loop_
_space_group_symop_operation_xyz
x,y,z
-x,-y,1/2+z
x,-y,-z
-x,y,1/2-z
-x,-y,-z
x,y,1/2-z
-x,y,z
x,-y,1/2+z
1/2+x,1/2+y,z
1/2-x,1/2-y,1/2+z
1/2+x,1/2-y,-z
1/2-x,1/2+y,1/2-z
1/2-x,1/2-y,-z
1/2+x,1/2+y,1/2-z
1/2-x,1/2+y,z
1/2+x,1/2-y,1/2+z
loop_
_atom_site_type_symbol
_atom_site_label
_atom_site_fract_x
_atom_site_fract_y
_atom_site_fract_z
Si Si1 0.827668 0.195173 0.646251
Si Si2 0.164851 0.622419 0.032781
Si Si3 0.326483 0.905780 0.627571
Si Si4 0.335514 0.344425 0.050576
Si Si5 0.828527 0.447151 0.299910
O O1 0.789191 0.302333 0.642061
O O2 0.783049 0.147220 0.600338
O O3 0.750692 0.145511 0.685901
O O4 0.000000 0.188744 0.649255
O O5 0.224948 0.579221 0.077704
O O6 0.166846 0.733426 0.041738
O O7 0.000000 0.595873 0.027529
O O8 0.246998 0.608298 0.987709
O O9 0.500000 0.908389 0.624854
O O10 0.281935 0.976789 0.664666
O O11 0.500000 0.373605 0.048340
O O12 0.796131 0.473135 0.250000
O O13 0.000000 0.436337 0.303427
#
# Coordination Sequence:
#
# PCOD9473889 Si02
#       5
#    16  16  16  16  16
#     4   9  18  34  55  76 100 133 169 202 241 296
#     4   8  13  24  45  70  95 127 165 198 230 280
#     4   8  16  33  54  74  99 133 170 203 241 296
#     4   8  14  25  43  70 101 128 157 196 239 282
#     4  10  21  36  53  74  99 126 162 212 261 298
#
# _framework density 19.219957999999998
#
# number of rings (size 3 to 8) (size 9 to 14) (size 15 to 20)
#    0.000    3.400    0.000    2.400    0.000    2.000 
#    0.000    8.000    0.000    6.000    0.000    0.000 
#    0.000    0.000    0.000    0.000    0.000    0.000 
#
# Total GULP energy -222981.084841 kJ/mol
# GULP energy per Si atom -5574.527121 kJ/mol
# Density = 1.917621 g / cm^3
# Si number density = 19.219958 Si / 1000 Ang^3
#
#
#
# Elastic Constant Matrix: (Units=GPa)
#
#
# Indices 1 2 3 4 5 6 
#
# 1 12.3495 4.7159 29.5070 0.0000 0.0000 0.0000
# 2 4.7159 54.5810 34.3607 0.0000 0.0000 0.0000
# 3 29.5070 34.3607 117.6432 0.0000 0.0000 0.0000
# 4 0.0000 0.0000 0.0000 33.2762 0.0000 0.0000
# 5 0.0000 0.0000 0.0000 0.0000 31.6151 0.0000
# 6 0.0000 0.0000 0.0000 0.0000 0.0000 13.8836
#
#
#
# Elastic Compliance Matrix: (Units=1/GPa)
#
#
# Indices 1 2 3 4 5 6 
#
# 1 0.217072 0.019016 -0.060000 0.000000 0.000000 0.000000
# 2 0.019016 0.024115 -0.011813 0.000000 0.000000 0.000000
# 3 -0.060000 -0.011813 0.027000 0.000000 0.000000 0.000000
# 4 0.000000 0.000000 0.000000 0.030052 0.000000 0.000000
# 5 0.000000 0.000000 0.000000 0.000000 0.031630 0.000000
# 6 0.000000 0.000000 0.000000 0.000000 0.000000 0.072027
#
#
# Mechanical properties :
#
#
# Convention : Reuss Voigt Hill
#
# Bulk Modulus (GPa) = 6.15029 35.74900 20.94965
# Shear Modulus (GPa) = 8.90176 23.48766 16.19471
#
# Velocity S-wave (km/s) = 2.15443 3.49957 2.90590
# Velocity P-wave (km/s) = 3.06523 5.91351 4.70985
#
# Compressibility (1/GPa) = 0.16259386
#
# Stress axis : x y z
#
# Youngs Moduli (GPa) = 4.60677 41.46780 37.03759
#
# Poissons Ratio (x) = -0.78857 2.22225
# Poissons Ratio (y) = -0.08760 0.43753
# Poissons Ratio (z) = 0.27640 0.48986
#
# Static dielectric constant tensor:
#      x y z
#    x 1.641120 0.000000 0.000000 
#    y 0.000000 1.699800 0.000000 
#    z 0.000000 0.000000 1.681280 
# 
# From -- ./inp_files/68086.got.cif
#   From: 2010.05.17/outbox.cif.g08.bks.cpg/sg63_35_cif.got.tgz:68086.got - 2010.06.03 15:47:04.
