data_PCOD9473936
_publ_section_title
;
Structure prediction by ZEFSAII (Michael W. Deem and Ramdas Pophale) SiO2 
 PCOD9473936
Probable space group: C M C M
;
_chemical_formula_sum "Si O2"
_cell_formula_units_Z 96
_cell_length_a 23.189600
_cell_length_b 11.440859
_cell_length_c 20.387100
_cell_angle_alpha 90.000000
_cell_angle_beta 90.000000
_cell_angle_gamma 90.000000
_cell_volume 5408.879969
_symmetry_space_group_name_H-M "C M C M"
_symmetry_group_IT_number 63
_symmetry_cell_setting 'orthorhombic'
loop_
_space_group_symop_operation_xyz
x,y,z
-x,-y,1/2+z
x,-y,-z
-x,y,1/2-z
-x,-y,-z
x,y,1/2-z
-x,y,z
x,-y,1/2+z
1/2+x,1/2+y,z
1/2-x,1/2-y,1/2+z
1/2+x,1/2-y,-z
1/2-x,1/2+y,1/2-z
1/2-x,1/2-y,-z
1/2+x,1/2+y,1/2-z
1/2-x,1/2+y,z
1/2+x,1/2-y,1/2+z
loop_
_atom_site_type_symbol
_atom_site_label
_atom_site_fract_x
_atom_site_fract_y
_atom_site_fract_z
Si Si1 0.724462 0.357369 0.827398
Si Si2 0.351961 0.496143 0.925026
Si Si3 0.133296 0.350204 0.175611
Si Si4 0.566180 0.272391 0.566477
Si Si5 0.568222 0.275383 0.084347
Si Si6 0.146614 0.625298 0.326102
O O1 0.724881 0.390925 0.750000
O O2 0.695820 0.458716 0.871786
O O3 0.686276 0.239979 0.833484
O O4 0.790084 0.331709 0.847668
O O5 0.396767 0.389025 0.925114
O O6 0.389940 0.611166 0.910091
O O7 0.328517 0.500000 0.000000
O O8 0.111265 0.330441 0.250000
O O9 0.087858 0.319121 0.119708
O O10 0.149773 0.485103 0.170052
O O11 0.500000 0.301311 0.577407
O O12 0.572794 0.233697 0.491157
O O13 0.500000 0.300362 0.096795
O O14 0.595278 0.179034 0.131808
O O15 0.138266 0.657977 0.250000
#
# Coordination Sequence:
#
# PCOD9473936 Si02
#       6
#    16  16  16  16  16  16
#     4   9  19  36  57  78 105 142 184 225 271 324
#     4   9  18  35  56  85 110 139 178 227 276 318
#     4   9  19  36  54  77 105 139 184 225 269 322
#     4   9  18  35  57  79 107 143 182 223 266 316
#     4  10  21  36  55  81 113 147 180 219 273 328
#     4  10  22  37  54  77 109 145 178 223 275 325
#
# _framework density 17.74859
#
# number of rings (size 3 to 8) (size 9 to 14) (size 15 to 20)
#    0.000    2.667    0.000    0.500    2.333    4.667 
#    3.000    5.833    0.000    3.000    0.000    0.000 
#    0.000    0.000    0.000    0.000    0.000    0.000 
#
# Total GULP energy -267475.324784 kJ/mol
# GULP energy per Si atom -5572.402600 kJ/mol
# Density = 1.770819 g / cm^3
# Si number density = 17.748590 Si / 1000 Ang^3
#
#
#
# Elastic Constant Matrix: (Units=GPa)
#
#
# Indices 1 2 3 4 5 6 
#
# 1 59.9939 11.1274 43.5426 0.0000 0.0000 0.0000
# 2 11.1274 48.3236 34.4228 0.0000 0.0000 0.0000
# 3 43.5426 34.4228 64.9367 0.0000 0.0000 0.0000
# 4 0.0000 0.0000 0.0000 28.7075 0.0000 0.0000
# 5 0.0000 0.0000 0.0000 0.0000 26.5510 0.0000
# 6 0.0000 0.0000 0.0000 0.0000 0.0000 12.5040
#
#
#
# Elastic Compliance Matrix: (Units=1/GPa)
#
#
# Indices 1 2 3 4 5 6 
#
# 1 0.038395 0.015261 -0.033835 0.000000 0.000000 0.000000
# 2 0.015261 0.039315 -0.031074 0.000000 0.000000 0.000000
# 3 -0.033835 -0.031074 0.054559 0.000000 0.000000 0.000000
# 4 0.000000 0.000000 0.000000 0.034834 0.000000 0.000000
# 5 0.000000 0.000000 0.000000 0.000000 0.037663 0.000000
# 6 0.000000 0.000000 0.000000 0.000000 0.000000 0.079974
#
#
# Mechanical properties :
#
#
# Convention : Reuss Voigt Hill
#
# Bulk Modulus (GPa) = 30.32753 39.04886 34.68819
# Shear Modulus (GPa) = 12.65737 19.16327 15.91032
#
# Velocity S-wave (km/s) = 2.67338 3.28945 2.99729
# Velocity P-wave (km/s) = 5.16272 6.03955 5.61827
#
# Compressibility (1/GPa) = 0.03297334
#
# Stress axis : x y z
#
# Youngs Moduli (GPa) = 26.04536 25.43572 18.32869
#
# Poissons Ratio (x) = -0.38817 0.62015
# Poissons Ratio (y) = -0.39747 0.56954
# Poissons Ratio (z) = 0.88124 0.79038
#
# Static dielectric constant tensor:
#      x y z
#    x 1.590690 0.000000 0.000000 
#    y 0.000000 1.593180 0.000000 
#    z 0.000000 0.000000 1.619210 
# 
# From -- ./inp_files/47999.got.cif
#   From: 2010.05.17/outbox.cif.g08.bks.cpg/sg63_24_cif.got.tgz:47999.got - 2010.06.03 15:47:04.
