data_PCOD9473883
_publ_section_title
;
Structure prediction by ZEFSAII (Michael W. Deem and Ramdas Pophale) SiO2 
 PCOD9473883
Probable space group: C M C M
;
_chemical_formula_sum "Si O2"
_cell_formula_units_Z 116
_cell_length_a 7.778102
_cell_length_b 25.457050
_cell_length_c 29.282559
_cell_angle_alpha 90.000000
_cell_angle_beta 90.000000
_cell_angle_gamma 90.000000
_cell_volume 5798.167224
_symmetry_space_group_name_H-M "C M C M"
_symmetry_group_IT_number 63
_symmetry_cell_setting 'orthorhombic'
loop_
_space_group_symop_operation_xyz
x,y,z
-x,-y,1/2+z
x,-y,-z
-x,y,1/2-z
-x,-y,-z
x,y,1/2-z
-x,y,z
x,-y,1/2+z
1/2+x,1/2+y,z
1/2-x,1/2-y,1/2+z
1/2+x,1/2-y,-z
1/2-x,1/2+y,1/2-z
1/2-x,1/2-y,-z
1/2+x,1/2+y,1/2-z
1/2-x,1/2+y,z
1/2+x,1/2-y,1/2+z
loop_
_atom_site_type_symbol
_atom_site_label
_atom_site_fract_x
_atom_site_fract_y
_atom_site_fract_z
Si Si1 0.801144 0.058180 0.404513
Si Si2 0.294443 0.244247 0.301708
Si Si3 0.205304 0.330838 0.124992
Si Si4 0.801068 0.917657 0.496392
Si Si5 0.299814 0.875057 0.821201
Si Si6 0.794339 0.304182 0.476049
Si Si7 0.000000 0.904103 0.750000
Si Si8 0.301770 0.056010 0.604846
O O1 0.732270 0.058758 0.456457
O O2 0.709440 0.097947 0.370537
O O3 0.000000 0.074305 0.407826
O O4 0.789534 0.998870 0.386153
O O5 0.224431 0.247356 0.250000
O O6 0.500000 0.246152 0.299030
O O7 0.241174 0.292137 0.333618
O O8 0.251583 0.186875 0.321665
O O9 0.264987 0.306210 0.076848
O O10 0.271636 0.390820 0.127676
O O11 0.000000 0.336262 0.121277
O O12 0.788129 0.854688 0.500080
O O13 0.707861 0.932681 0.449560
O O14 0.000000 0.933902 0.490400
O O15 0.500000 0.878739 0.805035
O O16 0.154409 0.901242 0.789508
O O17 0.750000 0.250000 0.500000
O O18 0.000000 0.311151 0.477152
O O19 0.500000 0.049214 0.618406
#
# Coordination Sequence:
#
# PCOD9473883 Si02
#       8
#    16  16  16  16  16  16   4  16
#     4  11  23  38  60  91 123 160 207 257 307 367
#     4  10  22  39  61  89 118 149 196 250 306 368
#     4   9  21  37  58  83 113 154 199 244 300 359
#     4  10  21  36  56  84 119 159 207 251 298 361
#     4  11  24  41  64  96 126 159 203 252 310 376
#     4  10  21  36  52  79 118 158 196 239 294 359
#     4  12  22  44  68  90 126 164 198 252 318 376
#     4  10  21  39  59  85 121 162 206 254 306 363
#
# _framework density 20.006322000000001
#
# number of rings (size 3 to 8) (size 9 to 14) (size 15 to 20)
#    0.000    1.793    1.379    3.103    2.897    7.448 
#    0.000    0.000    1.517    0.000    0.000    0.000 
#    0.000    0.000    0.000    0.000    0.000    0.000 
#
# Total GULP energy -323235.797728 kJ/mol
# GULP energy per Si atom -5573.030995 kJ/mol
# Density = 1.996079 g / cm^3
# Si number density = 20.006322 Si / 1000 Ang^3
#
#
#
# Elastic Constant Matrix: (Units=GPa)
#
#
# Indices 1 2 3 4 5 6 
#
# 1 66.3637 -4.0598 3.2887 0.0000 0.0000 0.0000
# 2 -4.0598 119.8783 49.9732 0.0000 0.0000 0.0000
# 3 3.2887 49.9732 57.2705 0.0000 0.0000 0.0000
# 4 0.0000 0.0000 0.0000 3.8723 0.0000 0.0000
# 5 0.0000 0.0000 0.0000 0.0000 25.5707 0.0000
# 6 0.0000 0.0000 0.0000 0.0000 0.0000 10.0877
#
#
#
# Elastic Compliance Matrix: (Units=1/GPa)
#
#
# Indices 1 2 3 4 5 6 
#
# 1 0.015257 0.001386 -0.002086 0.000000 0.000000 0.000000
# 2 0.001386 0.013237 -0.011630 0.000000 0.000000 0.000000
# 3 -0.002086 -0.011630 0.027729 0.000000 0.000000 0.000000
# 4 0.000000 0.000000 0.000000 0.258242 0.000000 0.000000
# 5 0.000000 0.000000 0.000000 0.000000 0.039107 0.000000
# 6 0.000000 0.000000 0.000000 0.000000 0.000000 0.099131
#
#
# Mechanical properties :
#
#
# Convention : Reuss Voigt Hill
#
# Bulk Modulus (GPa) = 31.68208 37.99074 34.83641
# Shear Modulus (GPa) = 10.24838 20.86018 15.55428
#
# Velocity S-wave (km/s) = 2.26577 3.23256 2.79134
# Velocity P-wave (km/s) = 4.76606 5.74136 5.27629
#
# Compressibility (1/GPa) = 0.03156358
#
# Stress axis : x y z
#
# Youngs Moduli (GPa) = 65.54527 75.54704 36.06378
#
# Poissons Ratio (x) = -0.10471 0.07521
# Poissons Ratio (y) = -0.09085 0.41941
# Poissons Ratio (z) = 0.13670 0.87859
#
# Static dielectric constant tensor:
#      x y z
#    x 1.737020 0.000000 0.000000 
#    y 0.000000 1.707680 0.000000 
#    z 0.000000 0.000000 0.998520 
# 
# From -- ./inp_files/72066.got.cif
#   From: 2010.05.17/outbox.cif.g08.bks.cpg/sg63_37_cif.got.tgz:72066.got - 2010.06.03 15:47:04.
