data_PCOD9473773
_publ_section_title
;
Structure prediction by ZEFSAII (Michael W. Deem and Ramdas Pophale) SiO2 
 PCOD9473773
Probable space group: C M C M
;
_chemical_formula_sum "Si O2"
_cell_formula_units_Z 68
_cell_length_a 12.916105
_cell_length_b 12.356705
_cell_length_c 16.061423
_cell_angle_alpha 90.000000
_cell_angle_beta 90.000000
_cell_angle_gamma 90.000000
_cell_volume 2563.411129
_symmetry_space_group_name_H-M "C M C M"
_symmetry_group_IT_number 63
_symmetry_cell_setting 'orthorhombic'
loop_
_space_group_symop_operation_xyz
x,y,z
-x,-y,1/2+z
x,-y,-z
-x,y,1/2-z
-x,-y,-z
x,y,1/2-z
-x,y,z
x,-y,1/2+z
1/2+x,1/2+y,z
1/2-x,1/2-y,1/2+z
1/2+x,1/2-y,-z
1/2-x,1/2+y,1/2-z
1/2-x,1/2-y,-z
1/2+x,1/2+y,1/2-z
1/2-x,1/2+y,z
1/2+x,1/2-y,1/2+z
loop_
_atom_site_type_symbol
_atom_site_label
_atom_site_fract_x
_atom_site_fract_y
_atom_site_fract_z
Si Si1 0.110210 0.780976 0.650271
Si Si2 0.500000 0.227903 0.250000
Si Si3 0.383153 0.409816 0.071060
Si Si4 0.342197 0.816097 0.899293
Si Si5 0.170038 0.539328 0.847667
O O1 0.110574 0.797862 0.750000
O O2 0.220852 0.822056 0.620783
O O3 0.113556 0.651916 0.636415
O O4 0.000000 0.825827 0.618518
O O5 0.590315 0.222293 0.321552
O O6 0.500000 0.418277 0.104446
O O7 0.364101 0.285307 0.040088
O O8 0.290980 0.434218 0.135541
O O9 0.372438 0.500000 0.000000
O O10 0.368212 0.942603 0.907112
O O11 0.154039 0.509380 0.750000
#
# Coordination Sequence:
#
# PCOD9473773 Si02
#       5
#    16   4  16  16  16
#     4   9  18  31  49  77 114 145 177 223 287 341
#     4  12  20  32  60  96 114 146 194 246 290 356
#     4  10  23  40  58  82 118 162 201 239 287 350
#     4  11  21  35  59  84 121 149 190 242 294 344
#     4  10  21  34  57  89 111 146 192 241 299 338
#
# _framework density 26.527152999999998
#
# number of rings (size 3 to 8) (size 9 to 14) (size 15 to 20)
#    0.000    1.882    3.529    0.000    3.294    2.353 
#    0.000    0.000    0.000   11.294    0.000    0.000 
#    0.000    0.000    0.000    0.000    0.000    0.000 
#
# Total GULP energy -189689.484365 kJ/mol
# GULP energy per Si atom -5579.102481 kJ/mol
# Density = 2.646678 g / cm^3
# Si number density = 26.527153 Si / 1000 Ang^3
#
#
#
# Elastic Constant Matrix: (Units=GPa)
#
#
# Indices 1 2 3 4 5 6 
#
# 1 201.8411 2.5526 33.5377 0.0000 0.0000 0.0000
# 2 2.5526 126.8277 28.7019 0.0000 0.0000 0.0000
# 3 33.5377 28.7019 62.2735 0.0000 0.0000 0.0000
# 4 0.0000 0.0000 0.0000 13.2012 0.0000 0.0000
# 5 0.0000 0.0000 0.0000 0.0000 31.0417 0.0000
# 6 0.0000 0.0000 0.0000 0.0000 0.0000 6.0780
#
#
#
# Elastic Compliance Matrix: (Units=1/GPa)
#
#
# Indices 1 2 3 4 5 6 
#
# 1 0.005485 0.000623 -0.003241 0.000000 0.000000 0.000000
# 2 0.000623 0.008874 -0.004425 0.000000 0.000000 0.000000
# 3 -0.003241 -0.004425 0.019843 0.000000 0.000000 0.000000
# 4 0.000000 0.000000 0.000000 0.075751 0.000000 0.000000
# 5 0.000000 0.000000 0.000000 0.000000 0.032215 0.000000
# 6 0.000000 0.000000 0.000000 0.000000 0.000000 0.164527
#
#
# Mechanical properties :
#
#
# Convention : Reuss Voigt Hill
#
# Bulk Modulus (GPa) = 49.71389 57.83628 53.77508
# Shear Modulus (GPa) = 15.26780 31.80753 23.53766
#
# Velocity S-wave (km/s) = 2.40167 3.46649 2.98200
# Velocity P-wave (km/s) = 5.14511 6.15403 5.67205
#
# Compressibility (1/GPa) = 0.02011510
#
# Stress axis : x y z
#
# Youngs Moduli (GPa) = 182.31319 112.69284 50.39443
#
# Poissons Ratio (x) = -0.07022 0.16334
# Poissons Ratio (y) = -0.11360 0.22302
# Poissons Ratio (z) = 0.59091 0.49872
#
# Static dielectric constant tensor:
#      x y z
#    x 1.992410 0.000000 0.000000 
#    y 0.000000 2.180180 0.000000 
#    z 0.000000 0.000000 2.126550 
# 
# From -- ./inp_files/52185.got.cif
#   From: 2010.05.17/outbox.cif.g08.bks.cpg/sg63_27_cif.got.tgz:52185.got - 2010.06.03 15:47:04.
