data_PCOD9473896
_publ_section_title
;
Structure prediction by ZEFSAII (Michael W. Deem and Ramdas Pophale) SiO2 
 PCOD9473896
Probable space group: C M C M
;
_chemical_formula_sum "Si O2"
_cell_formula_units_Z 80
_cell_length_a 7.623890
_cell_length_b 15.233004
_cell_length_c 31.583267
_cell_angle_alpha 90.000000
_cell_angle_beta 90.000000
_cell_angle_gamma 90.000000
_cell_volume 3667.914718
_symmetry_space_group_name_H-M "C M C M"
_symmetry_group_IT_number 63
_symmetry_cell_setting 'orthorhombic'
loop_
_space_group_symop_operation_xyz
x,y,z
-x,-y,1/2+z
x,-y,-z
-x,y,1/2-z
-x,-y,-z
x,y,1/2-z
-x,y,z
x,-y,1/2+z
1/2+x,1/2+y,z
1/2-x,1/2-y,1/2+z
1/2+x,1/2-y,-z
1/2-x,1/2+y,1/2-z
1/2-x,1/2-y,-z
1/2+x,1/2+y,1/2-z
1/2-x,1/2+y,z
1/2+x,1/2-y,1/2+z
loop_
_atom_site_type_symbol
_atom_site_label
_atom_site_fract_x
_atom_site_fract_y
_atom_site_fract_z
Si Si1 0.700243 0.982713 0.545728
Si Si2 0.194057 0.728293 0.452739
Si Si3 0.209897 0.870177 0.202204
Si Si4 0.216313 0.277226 0.861939
Si Si5 0.711286 0.021226 0.363162
O O1 0.500000 0.019310 0.543037
O O2 0.689559 0.877457 0.549782
O O3 0.778858 0.011629 0.590696
O O4 0.784689 0.000000 0.500000
O O5 0.250000 0.750000 0.500000
O O6 0.282344 0.754267 0.408374
O O7 0.000000 0.766177 0.450101
O O8 0.279362 0.874697 0.250000
O O9 0.275212 0.787469 0.174906
O O10 0.000000 0.860392 0.204939
O O11 0.244294 0.956786 0.174721
O O12 0.269501 0.378494 0.855476
O O13 0.000000 0.276741 0.863075
O O14 0.500000 0.023946 0.367409
#
# Coordination Sequence:
#
# PCOD9473896 Si02
#       5
#    16  16  16  16  16
#     4   8  15  28  46  70 100 132 162 195 247 303
#     4   9  17  29  47  71  99 131 166 202 243 296
#     4  10  21  36  54  75 101 136 172 211 267 316
#     4   8  17  35  53  72 103 140 172 204 251 314
#     4   9  18  34  56  78 101 133 175 218 251 296
#
# _framework density 21.810756999999999
#
# number of rings (size 3 to 8) (size 9 to 14) (size 15 to 20)
#    0.000    3.200    0.000    2.400    2.800    1.200 
#    0.000    7.000    0.000    1.200    0.000    0.000 
#    0.000    0.000    0.000    0.000    0.000    0.000 
#
# Total GULP energy -222876.568197 kJ/mol
# GULP energy per Si atom -5571.914205 kJ/mol
# Density = 2.176112 g / cm^3
# Si number density = 21.810757 Si / 1000 Ang^3
#
#
#
# Elastic Constant Matrix: (Units=GPa)
#
#
# Indices 1 2 3 4 5 6 
#
# 1 40.0840 0.7154 15.1658 0.0000 0.0000 0.0000
# 2 0.7154 89.3279 98.3472 0.0000 0.0000 0.0000
# 3 15.1658 98.3472 280.0442 0.0000 0.0000 0.0000
# 4 0.0000 0.0000 0.0000 36.8784 0.0000 0.0000
# 5 0.0000 0.0000 0.0000 0.0000 16.4122 0.0000
# 6 0.0000 0.0000 0.0000 0.0000 0.0000 -2.8162
#
#
#
# Elastic Compliance Matrix: (Units=1/GPa)
#
#
# Indices 1 2 3 4 5 6 
#
# 1 0.025724 0.002165 -0.002153 0.000000 0.000000 0.000000
# 2 0.002165 0.018434 -0.006591 0.000000 0.000000 0.000000
# 3 -0.002153 -0.006591 0.006002 0.000000 0.000000 0.000000
# 4 0.000000 0.000000 0.000000 0.027116 0.000000 0.000000
# 5 0.000000 0.000000 0.000000 0.000000 0.060930 0.000000
# 6 0.000000 0.000000 0.000000 0.000000 0.000000 -0.355086
#
#
# Mechanical properties :
#
#
# Convention : Reuss Voigt Hill
#
# Bulk Modulus (GPa) = 27.02664 70.87921 48.95292
# Shear Modulus (GPa) = -26.12501 29.77671 1.82585
#
# Velocity S-wave (km/s) = -3.46469 3.69891 0.91594
# Velocity P-wave (km/s) = 1.89395 7.12815 4.85919
#
# Compressibility (1/GPa) = 0.03700053
#
# Stress axis : x y z
#
# Youngs Moduli (GPa) = 38.87472 54.24850 166.60896
#
# Poissons Ratio (x) = -0.11743 0.35875
# Poissons Ratio (y) = -0.08415 1.09809
# Poissons Ratio (z) = 0.08371 0.35754
#
# Static dielectric constant tensor:
#      x y z
#    x 1.912530 0.000000 0.000000 
#    y 0.000000 1.767580 0.000000 
#    z 0.000000 0.000000 1.852060 
# 
# From -- ./inp_files/61089.got.cif
#   From: 2010.05.17/outbox.cif.g08.bks.cpg/sg63_31_cif.got.tgz:61089.got - 2010.06.03 15:47:04.
