data_PCOD9473412
_publ_section_title
;
Structure prediction by ZEFSAII (Michael W. Deem and Ramdas Pophale) SiO2 
 PCOD9473412
Probable space group: C M C M
;
_chemical_formula_sum "Si O2"
_cell_formula_units_Z 96
_cell_length_a 20.481568
_cell_length_b 13.984161
_cell_length_c 15.196006
_cell_angle_alpha 90.000000
_cell_angle_beta 90.000000
_cell_angle_gamma 90.000000
_cell_volume 4352.402724
_symmetry_space_group_name_H-M "C M C M"
_symmetry_group_IT_number 63
_symmetry_cell_setting 'orthorhombic'
loop_
_space_group_symop_operation_xyz
x,y,z
-x,-y,1/2+z
x,-y,-z
-x,y,1/2-z
-x,-y,-z
x,y,1/2-z
-x,y,z
x,-y,1/2+z
1/2+x,1/2+y,z
1/2-x,1/2-y,1/2+z
1/2+x,1/2-y,-z
1/2-x,1/2+y,1/2-z
1/2-x,1/2-y,-z
1/2+x,1/2+y,1/2-z
1/2-x,1/2+y,z
1/2+x,1/2-y,1/2+z
loop_
_atom_site_type_symbol
_atom_site_label
_atom_site_fract_x
_atom_site_fract_y
_atom_site_fract_z
Si Si1 0.923679 0.569470 0.085793
Si Si2 0.150512 0.404212 0.347791
Si Si3 0.703695 0.367803 0.651335
Si Si4 0.836637 0.265524 0.641828
Si Si5 0.427897 0.719465 0.143916
Si Si6 0.714012 0.565776 0.914850
O O1 0.879997 0.508759 0.152930
O O2 0.893003 0.674896 0.092049
O O3 0.000000 0.573169 0.106613
O O4 0.916713 0.500000 0.000000
O O5 0.175425 0.380679 0.250000
O O6 0.093255 0.329408 0.368836
O O7 0.211008 0.398773 0.413622
O O8 0.700385 0.329260 0.750000
O O9 0.768617 0.318476 0.614879
O O10 0.634350 0.339332 0.609320
O O11 0.710977 0.480990 0.655610
O O12 0.843827 0.268451 0.750000
O O13 0.829822 0.156240 0.609196
O O14 0.432160 0.703638 0.250000
O O15 0.500000 0.700058 0.107314
O O16 0.700553 0.500000 0.000000
#
# Coordination Sequence:
#
# PCOD9473412 Si02
#       6
#    16  16  16  16  16  16
#     4  11  25  43  65  98 137 172 213 274 344 409
#     4  11  20  36  62  93 130 169 216 276 337 405
#     4  10  20  37  62  91 126 168 220 281 335 397
#     4  11  23  42  69  97 132 180 231 281 334 410
#     4   9  18  33  57  89 122 159 207 266 332 394
#     4  12  25  39  61  95 132 172 226 283 344 402
#
# _framework density 22.056781999999998
#
# number of rings (size 3 to 8) (size 9 to 14) (size 15 to 20)
#    0.000    1.333    3.333    3.000    0.000    4.000 
#    0.000    0.833    0.000    3.000    0.000    0.000 
#    0.000    0.000    0.000    0.000    0.000    0.000 
#
# Total GULP energy -267824.750598 kJ/mol
# GULP energy per Si atom -5579.682304 kJ/mol
# Density = 2.200658 g / cm^3
# Si number density = 22.056782 Si / 1000 Ang^3
#
#
#
# Elastic Constant Matrix: (Units=GPa)
#
#
# Indices 1 2 3 4 5 6 
#
# 1 62.1243 32.2608 4.6676 0.0000 0.0000 0.0000
# 2 32.2608 137.6004 29.2266 0.0000 0.0000 0.0000
# 3 4.6676 29.2266 87.0814 0.0000 0.0000 0.0000
# 4 0.0000 0.0000 0.0000 26.7812 0.0000 0.0000
# 5 0.0000 0.0000 0.0000 0.0000 11.1084 0.0000
# 6 0.0000 0.0000 0.0000 0.0000 0.0000 34.9280
#
#
#
# Elastic Compliance Matrix: (Units=1/GPa)
#
#
# Indices 1 2 3 4 5 6 
#
# 1 0.018348 -0.004407 0.000496 0.000000 0.000000 0.000000
# 2 -0.004407 0.008884 -0.002745 0.000000 0.000000 0.000000
# 3 0.000496 -0.002745 0.012378 0.000000 0.000000 0.000000
# 4 0.000000 0.000000 0.000000 0.037340 0.000000 0.000000
# 5 0.000000 0.000000 0.000000 0.000000 0.090022 0.000000
# 6 0.000000 0.000000 0.000000 0.000000 0.000000 0.028630
#
#
# Mechanical properties :
#
#
# Convention : Reuss Voigt Hill
#
# Bulk Modulus (GPa) = 38.02764 46.56845 42.29805
# Shear Modulus (GPa) = 22.96934 29.27358 26.12146
#
# Velocity S-wave (km/s) = 3.23053 3.64702 3.44507
# Velocity P-wave (km/s) = 5.58510 6.23644 5.91973
#
# Compressibility (1/GPa) = 0.02629666
#
# Stress axis : x y z
#
# Youngs Moduli (GPa) = 54.50164 112.56461 80.78611
#
# Poissons Ratio (x) = 0.49608 -0.04004
# Poissons Ratio (y) = 0.24019 0.22179
# Poissons Ratio (z) = -0.02701 0.30903
#
# Static dielectric constant tensor:
#      x y z
#    x 1.792540 0.000000 0.000000 
#    y 0.000000 1.814250 0.000000 
#    z 0.000000 0.000000 1.990010 
# 
# From -- ./inp_files/35359.got.cif
#   From: 2010.05.17/outbox.cif.g08.bks.cpg/sg63_18_cif.got.tgz:35359.got - 2010.06.03 15:47:04.
