data_PCOD9473622
_publ_section_title
;
Structure prediction by ZEFSAII (Michael W. Deem and Ramdas Pophale) SiO2 
 PCOD9473622
Probable space group: C M C M
;
_chemical_formula_sum "Si O2"
_cell_formula_units_Z 64
_cell_length_a 15.592184
_cell_length_b 12.131363
_cell_length_c 17.805833
_cell_angle_alpha 90.000000
_cell_angle_beta 90.000000
_cell_angle_gamma 90.000000
_cell_volume 3368.052442
_symmetry_space_group_name_H-M "C M C M"
_symmetry_group_IT_number 63
_symmetry_cell_setting 'orthorhombic'
loop_
_space_group_symop_operation_xyz
x,y,z
-x,-y,1/2+z
x,-y,-z
-x,y,1/2-z
-x,-y,-z
x,y,1/2-z
-x,y,z
x,-y,1/2+z
1/2+x,1/2+y,z
1/2-x,1/2-y,1/2+z
1/2+x,1/2-y,-z
1/2-x,1/2+y,1/2-z
1/2-x,1/2-y,-z
1/2+x,1/2+y,1/2-z
1/2-x,1/2+y,z
1/2+x,1/2-y,1/2+z
loop_
_atom_site_type_symbol
_atom_site_label
_atom_site_fract_x
_atom_site_fract_y
_atom_site_fract_z
Si Si1 0.660210 0.473249 0.087338
Si Si2 0.000000 0.357331 0.341378
Si Si3 0.500000 0.399241 0.659764
Si Si4 0.601795 0.262725 0.335560
Si Si5 0.656754 0.988407 0.660550
O O1 0.584685 0.540297 0.129162
O O2 0.645016 0.345070 0.106454
O O3 0.753433 0.502680 0.118859
O O4 0.654379 0.500000 0.000000
O O5 0.914777 0.423506 0.365337
O O6 0.000000 0.360988 0.250000
O O7 0.000000 0.229492 0.363528
O O8 0.500000 0.404960 0.750000
O O9 0.630941 0.289206 0.250000
O O10 0.500000 0.280117 0.338236
O O11 0.620621 0.134829 0.349202
O O12 0.670248 0.005202 0.750000
#
# Coordination Sequence:
#
# PCOD9473622 Si02
#       5
#    16   8   8  16  16
#     4  12  26  41  59  91 130 167 203 249 311 375
#     4   9  20  40  66  94 121 150 201 262 311 355
#     4  11  23  42  65  91 121 160 207 258 310 363
#     4  10  20  39  67  90 116 160 213 257 297 360
#     4  10  21  41  66  93 120 157 207 260 308 361
#
# _framework density 19.002078999999998
#
# number of rings (size 3 to 8) (size 9 to 14) (size 15 to 20)
#    0.000    1.500    2.500    2.625    3.500    1.000 
#    0.000    0.625    0.000    0.000    0.000    0.000 
#    0.000    0.000    0.000    0.000    0.000    0.000 
#
# Total GULP energy -178824.926832 kJ/mol
# GULP energy per Si atom -5588.278964 kJ/mol
# Density = 1.895883 g / cm^3
# Si number density = 19.002079 Si / 1000 Ang^3
#
#
#
# Elastic Constant Matrix: (Units=GPa)
#
#
# Indices 1 2 3 4 5 6 
#
# 1 118.6221 37.6764 43.2919 0.0000 0.0000 0.0000
# 2 37.6764 85.0552 34.3799 0.0000 0.0000 0.0000
# 3 43.2919 34.3799 64.3918 0.0000 0.0000 0.0000
# 4 0.0000 0.0000 0.0000 -14.6117 0.0000 0.0000
# 5 0.0000 0.0000 0.0000 0.0000 -99.7994 0.0000
# 6 0.0000 0.0000 0.0000 0.0000 0.0000 24.1011
#
#
#
# Elastic Compliance Matrix: (Units=1/GPa)
#
#
# Indices 1 2 3 4 5 6 
#
# 1 0.011583 -0.002529 -0.006437 0.000000 0.000000 0.000000
# 2 -0.002529 0.015545 -0.006599 0.000000 0.000000 0.000000
# 3 -0.006437 -0.006599 0.023381 0.000000 0.000000 0.000000
# 4 0.000000 0.000000 0.000000 -0.068438 0.000000 0.000000
# 5 0.000000 0.000000 0.000000 0.000000 -0.010020 0.000000
# 6 0.000000 0.000000 0.000000 0.000000 0.000000 0.041492
#
#
# Mechanical properties :
#
#
# Convention : Reuss Voigt Hill
#
# Bulk Modulus (GPa) = 51.60488 55.41840 53.51164
# Shear Modulus (GPa) = 97.78626 -7.88061 44.95282
#
# Velocity S-wave (km/s) = 7.18140 -2.03869 4.86910
# Velocity P-wave (km/s) = 9.79693 4.86683 7.73518
#
# Compressibility (1/GPa) = 0.01937801
#
# Stress axis : x y z
#
# Youngs Moduli (GPa) = 86.33677 64.33029 42.76934
#
# Poissons Ratio (x) = 0.16268 0.27531
# Poissons Ratio (y) = 0.21833 0.28226
# Poissons Ratio (z) = 0.55575 0.42455
#
# Static dielectric constant tensor:
#      x y z
#    x 1.647520 0.000000 0.000000 
#    y 0.000000 1.654020 0.000000 
#    z 0.000000 0.000000 1.655880 
# 
# From -- ./inp_files/43465.got.cif
#   From: 2010.05.17/outbox.cif.g08.bks.cpg/sg63_22_cif.got.tgz:43465.got - 2010.06.03 15:47:04.
