data_PCOD9473621
_publ_section_title
;
Structure prediction by ZEFSAII (Michael W. Deem and Ramdas Pophale) SiO2 
 PCOD9473621
Probable space group: C M C M
;
_chemical_formula_sum "Si O2"
_cell_formula_units_Z 88
_cell_length_a 18.969596
_cell_length_b 7.341760
_cell_length_c 24.145339
_cell_angle_alpha 90.000000
_cell_angle_beta 90.000000
_cell_angle_gamma 90.000000
_cell_volume 3362.726702
_symmetry_space_group_name_H-M "C M C M"
_symmetry_group_IT_number 63
_symmetry_cell_setting 'orthorhombic'
loop_
_space_group_symop_operation_xyz
x,y,z
-x,-y,1/2+z
x,-y,-z
-x,y,1/2-z
-x,-y,-z
x,y,1/2-z
-x,y,z
x,-y,1/2+z
1/2+x,1/2+y,z
1/2-x,1/2-y,1/2+z
1/2+x,1/2-y,-z
1/2-x,1/2+y,1/2-z
1/2-x,1/2-y,-z
1/2+x,1/2+y,1/2-z
1/2-x,1/2+y,z
1/2+x,1/2-y,1/2+z
loop_
_atom_site_type_symbol
_atom_site_label
_atom_site_fract_x
_atom_site_fract_y
_atom_site_fract_z
Si Si1 0.871004 0.256497 0.250000
Si Si2 0.237304 0.397511 0.750000
Si Si3 0.000000 0.244225 0.685370
Si Si4 0.604064 0.942705 0.146073
Si Si5 0.000000 0.947727 0.076415
Si Si6 0.841581 0.082224 0.940150
Si Si7 0.759453 0.632480 0.373329
Si Si8 0.500000 0.862428 0.050725
O O1 0.817599 0.436137 0.250000
O O2 0.822651 0.077380 0.250000
O O3 0.910400 0.291373 0.307044
O O4 0.230449 0.299632 0.809820
O O5 0.067495 0.373497 0.670670
O O6 0.000000 0.198331 0.750000
O O7 0.000000 0.075949 0.643146
O O8 0.686451 0.960405 0.132056
O O9 0.566465 0.904724 0.088965
O O10 0.923826 0.866200 0.061173
O O11 0.000000 0.144531 0.047470
O O12 0.816663 0.937014 0.893151
O O13 0.795253 0.252789 0.921849
O O14 0.825276 0.000000 0.000000
O O15 0.500000 0.000000 0.000000
#
# Coordination Sequence:
#
# PCOD9473621 Si02
#       8
#     8   8   8  16   8  16  16   8
#     4  10  20  39  66  98 142 177 236 284 366 427
#     4  10  22  40  68 102 144 184 226 298 370 432
#     4  11  21  47  72 102 148 197 241 292 381 456
#     4  10  22  43  72 101 137 193 241 291 360 448
#     4  12  29  48  72 111 146 190 247 312 370 434
#     4  12  28  47  73 104 148 190 248 300 370 437
#     4  11  24  45  74 106 140 188 241 300 366 437
#     4  11  29  46  69 100 145 194 246 295 365 429
#
# _framework density 26.169236999999999
#
# number of rings (size 3 to 8) (size 9 to 14) (size 15 to 20)
#    0.000    1.091    2.727    3.000    7.636    0.727 
#    3.273    0.000    0.000    0.000    0.000    0.000 
#    0.000    0.000    0.000    0.000    0.000    0.000 
#
# Total GULP energy -245837.652046 kJ/mol
# GULP energy per Si atom -5587.219365 kJ/mol
# Density = 2.610967 g / cm^3
# Si number density = 26.169237 Si / 1000 Ang^3
#
#
#
# Elastic Constant Matrix: (Units=GPa)
#
#
# Indices 1 2 3 4 5 6 
#
# 1 125.4869 5.9288 39.3421 0.0000 0.0000 0.0000
# 2 5.9288 49.3898 7.7428 0.0000 0.0000 0.0000
# 3 39.3421 7.7428 146.1751 0.0000 0.0000 0.0000
# 4 0.0000 0.0000 0.0000 41.3493 0.0000 0.0000
# 5 0.0000 0.0000 0.0000 0.0000 37.3976 0.0000
# 6 0.0000 0.0000 0.0000 0.0000 0.0000 24.3337
#
#
#
# Elastic Compliance Matrix: (Units=1/GPa)
#
#
# Indices 1 2 3 4 5 6 
#
# 1 0.008726 -0.000685 -0.002312 0.000000 0.000000 0.000000
# 2 -0.000685 0.020470 -0.000900 0.000000 0.000000 0.000000
# 3 -0.002312 -0.000900 0.007511 0.000000 0.000000 0.000000
# 4 0.000000 0.000000 0.000000 0.024184 0.000000 0.000000
# 5 0.000000 0.000000 0.000000 0.000000 0.026740 0.000000
# 6 0.000000 0.000000 0.000000 0.000000 0.000000 0.041095
#
#
# Mechanical properties :
#
#
# Convention : Reuss Voigt Hill
#
# Bulk Modulus (GPa) = 34.58623 47.45323 41.01973
# Shear Modulus (GPa) = 34.20927 38.48534 36.34731
#
# Velocity S-wave (km/s) = 3.61949 3.83904 3.73088
# Velocity P-wave (km/s) = 5.54190 6.15009 5.85390
#
# Compressibility (1/GPa) = 0.02891324
#
# Stress axis : x y z
#
# Youngs Moduli (GPa) = 114.59644 48.85105 133.13580
#
# Poissons Ratio (x) = 0.03346 0.30785
# Poissons Ratio (y) = 0.07850 0.11981
# Poissons Ratio (z) = 0.26499 0.04396
#
# Static dielectric constant tensor:
#      x y z
#    x 2.105000 0.000000 0.000000 
#    y 0.000000 2.244670 0.000000 
#    z 0.000000 0.000000 2.030390 
# 
# From -- ./inp_files/64506.got.cif
#   From: 2010.05.17/outbox.cif.g08.bks.cpg/sg63_33_cif.got.tgz:64506.got - 2010.06.03 15:47:04.
