data_PCOD9473156
_publ_section_title
;
Structure prediction by ZEFSAII (Michael W. Deem and Ramdas Pophale) SiO2 
 PCOD9473156
Probable space group: C M C M
;
_chemical_formula_sum "Si O2"
_cell_formula_units_Z 116
_cell_length_a 25.009509
_cell_length_b 30.180347
_cell_length_c 7.366171
_cell_angle_alpha 90.000000
_cell_angle_beta 90.000000
_cell_angle_gamma 90.000000
_cell_volume 5559.953901
_symmetry_space_group_name_H-M "C M C M"
_symmetry_group_IT_number 63
_symmetry_cell_setting 'orthorhombic'
loop_
_space_group_symop_operation_xyz
x,y,z
-x,-y,1/2+z
x,-y,-z
-x,y,1/2-z
-x,-y,-z
x,y,1/2-z
-x,y,z
x,-y,1/2+z
1/2+x,1/2+y,z
1/2-x,1/2-y,1/2+z
1/2+x,1/2-y,-z
1/2-x,1/2+y,1/2-z
1/2-x,1/2-y,-z
1/2+x,1/2+y,1/2-z
1/2-x,1/2+y,z
1/2+x,1/2-y,1/2+z
loop_
_atom_site_type_symbol
_atom_site_label
_atom_site_fract_x
_atom_site_fract_y
_atom_site_fract_z
Si Si1 0.854763 0.448004 0.033905
Si Si2 0.560799 0.122447 0.528832
Si Si3 0.097083 0.778925 0.960732
Si Si4 0.150949 0.308424 0.030770
Si Si5 0.000000 0.226821 0.750000
Si Si6 0.439562 0.551109 0.966749
Si Si7 0.734503 0.120064 0.971746
Si Si8 0.356323 0.375411 0.470346
O O1 0.854785 0.442343 0.250000
O O2 0.907545 0.421761 0.969569
O O3 0.802537 0.421208 0.968863
O O4 0.854387 0.500000 0.000000
O O5 0.559059 0.122592 0.750000
O O6 0.500000 0.125449 0.464834
O O7 0.598525 0.163385 0.474432
O O8 0.082675 0.769765 0.750000
O O9 0.141182 0.742238 0.018347
O O10 0.046808 0.774663 0.091740
O O11 0.121152 0.827913 0.973646
O O12 0.152890 0.310488 0.250000
O O13 0.202944 0.335545 0.969437
O O14 0.442229 0.556958 0.750000
O O15 0.500000 0.558380 0.037436
O O16 0.396160 0.585910 0.034519
O O17 0.424997 0.500000 0.000000
O O18 0.735428 0.119786 0.750000
O O19 0.795460 0.118047 0.032139
O O20 0.356135 0.376389 0.250000
#
# Coordination Sequence:
#
# PCOD9473156 Si02
#       8
#    16  16  16  16   4  16  16  16
#     4   9  17  30  49  72 103 141 188 239 296 355
#     4   8  14  26  47  72  99 142 190 237 290 353
#     4  11  24  40  63  92 120 162 200 239 291 349
#     4   8  16  32  55  83 112 144 200 246 283 348
#     4  12  26  44  60  90 134 156 194 248 294 350
#     4   9  19  34  53  76 108 147 190 239 296 357
#     4   8  16  33  56  80 108 153 196 240 297 355
#     4  10  20  36  59  84 117 155 195 243 301 354
#
# _framework density 20.863482999999999
#
# number of rings (size 3 to 8) (size 9 to 14) (size 15 to 20)
#    0.000    2.897    0.690    1.862    1.931    1.931 
#    0.000    0.690    7.586    0.000    0.000    0.000 
#    0.000    0.000    0.000    0.000    0.000    0.000 
#
# Total GULP energy -323164.630695 kJ/mol
# GULP energy per Si atom -5571.803978 kJ/mol
# Density = 2.081600 g / cm^3
# Si number density = 20.863483 Si / 1000 Ang^3
#
#
#
# Elastic Constant Matrix: (Units=GPa)
#
#
# Indices 1 2 3 4 5 6 
#
# 1 148.2029 98.7470 16.0468 0.0000 0.0000 0.0000
# 2 98.7470 161.5989 0.2068 0.0000 0.0000 0.0000
# 3 16.0468 0.2068 91.4645 0.0000 0.0000 0.0000
# 4 0.0000 0.0000 0.0000 12.6100 0.0000 0.0000
# 5 0.0000 0.0000 0.0000 0.0000 20.6848 0.0000
# 6 0.0000 0.0000 0.0000 0.0000 0.0000 7.2305
#
#
#
# Elastic Compliance Matrix: (Units=1/GPa)
#
#
# Indices 1 2 3 4 5 6 
#
# 1 0.011752 -0.007179 -0.002046 0.000000 0.000000 0.000000
# 2 -0.007179 0.010573 0.001236 0.000000 0.000000 0.000000
# 3 -0.002046 0.001236 0.011289 0.000000 0.000000 0.000000
# 4 0.000000 0.000000 0.000000 0.079302 0.000000 0.000000
# 5 0.000000 0.000000 0.000000 0.000000 0.048345 0.000000
# 6 0.000000 0.000000 0.000000 0.000000 0.000000 0.138303
#
#
# Mechanical properties :
#
#
# Convention : Reuss Voigt Hill
#
# Bulk Modulus (GPa) = 56.69845 70.14083 63.41964
# Shear Modulus (GPa) = 15.55591 27.18945 21.37268
#
# Velocity S-wave (km/s) = 2.73354 3.61391 3.20411
# Velocity P-wave (km/s) = 6.09901 7.14883 6.64468
#
# Compressibility (1/GPa) = 0.01763717
#
# Stress axis : x y z
#
# Youngs Moduli (GPa) = 85.09127 94.57899 88.57955
#
# Poissons Ratio (x) = 0.67895 0.18120
# Poissons Ratio (y) = 0.61084 -0.10944
# Poissons Ratio (z) = 0.17406 -0.11686
#
# Static dielectric constant tensor:
#      x y z
#    x 1.717360 0.000000 0.000000 
#    y 0.000000 1.731320 0.000000 
#    z 0.000000 0.000000 1.804910 
# 
# From -- ./inp_files/11218.got.cif
#   From: 2010.05.17/outbox.cif.g08.bks.cpg/sg63_6_cif.got.tgz:11218.got - 2010.06.03 15:47:04.
