data_PCOD9473854
_publ_section_title
;
Structure prediction by ZEFSAII (Michael W. Deem and Ramdas Pophale) SiO2 
 PCOD9473854
Probable space group: C M C M
;
_chemical_formula_sum "Si O2"
_cell_formula_units_Z 96
_cell_length_a 7.938201
_cell_length_b 20.599129
_cell_length_c 29.638784
_cell_angle_alpha 90.000000
_cell_angle_beta 90.000000
_cell_angle_gamma 90.000000
_cell_volume 4846.534743
_symmetry_space_group_name_H-M "C M C M"
_symmetry_group_IT_number 63
_symmetry_cell_setting 'orthorhombic'
loop_
_space_group_symop_operation_xyz
x,y,z
-x,-y,1/2+z
x,-y,-z
-x,y,1/2-z
-x,-y,-z
x,y,1/2-z
-x,y,z
x,-y,1/2+z
1/2+x,1/2+y,z
1/2-x,1/2-y,1/2+z
1/2+x,1/2-y,-z
1/2-x,1/2+y,1/2-z
1/2-x,1/2-y,-z
1/2+x,1/2+y,1/2-z
1/2-x,1/2+y,z
1/2+x,1/2-y,1/2+z
loop_
_atom_site_type_symbol
_atom_site_label
_atom_site_fract_x
_atom_site_fract_y
_atom_site_fract_z
Si Si1 0.797377 0.257723 0.301782
Si Si2 0.703341 0.441860 0.966106
Si Si3 0.703803 0.887560 0.801639
Si Si4 0.702827 0.142268 0.622340
Si Si5 0.298994 0.681753 0.521513
Si Si6 0.699582 0.994818 0.870199
O O1 0.734551 0.266144 0.250000
O O2 0.755626 0.184466 0.317016
O O3 0.734299 0.310570 0.337744
O O4 0.000000 0.263210 0.300104
O O5 0.500000 0.439297 0.961840
O O6 0.775540 0.459193 0.917683
O O7 0.745664 0.500000 0.000000
O O8 0.764951 0.375737 0.988972
O O9 0.761019 0.894576 0.750000
O O10 0.500000 0.889152 0.802141
O O11 0.768695 0.946456 0.832121
O O12 0.500000 0.139990 0.626092
O O13 0.740567 0.170079 0.572716
O O14 0.768398 0.068274 0.627073
O O15 0.500000 0.676935 0.522335
O O16 0.250000 0.750000 0.500000
O O17 0.500000 0.001317 0.861657
#
# Coordination Sequence:
#
# PCOD9473854 Si02
#       6
#    16  16  16  16  16  16
#     4   9  19  36  57  80 108 144 183 224 271 324
#     4  10  21  39  58  78 108 146 182 220 271 323
#     4   9  19  36  56  81 112 143 179 224 274 326
#     4  10  21  37  56  82 113 144 184 228 273 324
#     4  11  24  40  58  81 111 146 184 227 275 327
#     4  10  21  35  56  84 110 143 183 225 271 320
#
# _framework density 19.807966
#
# number of rings (size 3 to 8) (size 9 to 14) (size 15 to 20)
#    0.000    2.167    1.667    0.500    2.333    3.667 
#    0.000    3.333    0.000    0.000    0.000    7.000 
#    0.000    0.000    0.000    0.000    0.000    0.000 
#
# Total GULP energy -267936.434133 kJ/mol
# GULP energy per Si atom -5582.009044 kJ/mol
# Density = 1.976288 g / cm^3
# Si number density = 19.807966 Si / 1000 Ang^3
#
#
#
# Elastic Constant Matrix: (Units=GPa)
#
#
# Indices 1 2 3 4 5 6 
#
# 1 17.7278 9.3555 4.6451 0.0000 0.0000 0.0000
# 2 9.3555 205.0130 111.9654 0.0000 0.0000 0.0000
# 3 4.6451 111.9654 123.2298 0.0000 0.0000 0.0000
# 4 0.0000 0.0000 0.0000 44.3388 0.0000 0.0000
# 5 0.0000 0.0000 0.0000 0.0000 9.3285 0.0000
# 6 0.0000 0.0000 0.0000 0.0000 0.0000 23.4175
#
#
#
# Elastic Compliance Matrix: (Units=1/GPa)
#
#
# Indices 1 2 3 4 5 6 
#
# 1 0.057812 -0.002874 0.000432 0.000000 0.000000 0.000000
# 2 -0.002874 0.009825 -0.008819 0.000000 0.000000 0.000000
# 3 0.000432 -0.008819 0.016111 0.000000 0.000000 0.000000
# 4 0.000000 0.000000 0.000000 0.022554 0.000000 0.000000
# 5 0.000000 0.000000 0.000000 0.000000 0.107198 0.000000
# 6 0.000000 0.000000 0.000000 0.000000 0.000000 0.042703
#
#
# Mechanical properties :
#
#
# Convention : Reuss Voigt Hill
#
# Bulk Modulus (GPa) = 16.33260 66.43362 41.38311
# Shear Modulus (GPa) = 16.71494 30.08393 23.39944
#
# Velocity S-wave (km/s) = 2.90806 3.90138 3.44075
# Velocity P-wave (km/s) = 4.42031 7.34207 6.05991
#
# Compressibility (1/GPa) = 0.06122724
#
# Stress axis : x y z
#
# Youngs Moduli (GPa) = 17.29740 101.78012 62.06879
#
# Poissons Ratio (x) = 0.29255 -0.02684
# Poissons Ratio (y) = 0.04972 0.54736
# Poissons Ratio (z) = -0.00748 0.89756
#
# Static dielectric constant tensor:
#      x y z
#    x 1.724530 0.000000 0.000000 
#    y 0.000000 1.672620 0.000000 
#    z 0.000000 0.000000 1.691340 
# 
# From -- ./inp_files/66938.got.cif
#   From: 2010.05.17/outbox.cif.g08.bks.cpg/sg63_34_cif.got.tgz:66938.got - 2010.06.03 15:47:04.
