data_PCOD9473980
_publ_section_title
;
Structure prediction by ZEFSAII (Michael W. Deem and Ramdas Pophale) SiO2 
 PCOD9473980
Probable space group: C M C M
;
_chemical_formula_sum "Si O2"
_cell_formula_units_Z 80
_cell_length_a 26.286230
_cell_length_b 9.267330
_cell_length_c 16.526118
_cell_angle_alpha 90.000000
_cell_angle_beta 90.000000
_cell_angle_gamma 90.000000
_cell_volume 4025.814697
_symmetry_space_group_name_H-M "C M C M"
_symmetry_group_IT_number 63
_symmetry_cell_setting 'orthorhombic'
loop_
_space_group_symop_operation_xyz
x,y,z
-x,-y,1/2+z
x,-y,-z
-x,y,1/2-z
-x,-y,-z
x,y,1/2-z
-x,y,z
x,-y,1/2+z
1/2+x,1/2+y,z
1/2-x,1/2-y,1/2+z
1/2+x,1/2-y,-z
1/2-x,1/2+y,1/2-z
1/2-x,1/2-y,-z
1/2+x,1/2+y,1/2-z
1/2-x,1/2+y,z
1/2+x,1/2-y,1/2+z
loop_
_atom_site_type_symbol
_atom_site_label
_atom_site_fract_x
_atom_site_fract_y
_atom_site_fract_z
Si Si1 0.293241 0.744840 0.343329
Si Si2 0.901439 0.895443 0.152709
Si Si3 0.910217 0.236064 0.153486
Si Si4 0.500000 0.769542 0.655724
Si Si5 0.500000 0.924202 0.413045
Si Si6 0.706154 0.433974 0.089048
O O1 0.284464 0.785018 0.250000
O O2 0.351878 0.778914 0.364272
O O3 0.287969 0.572672 0.352711
O O4 0.252558 0.826242 0.397824
O O5 0.894947 0.876992 0.250000
O O6 0.914050 0.064230 0.138456
O O7 0.847912 0.862556 0.110521
O O8 0.948177 0.799095 0.122021
O O9 0.919083 0.257649 0.250000
O O10 0.950837 0.326353 0.103689
O O11 0.500000 0.726840 0.750000
O O12 0.500000 0.940290 0.647596
O O13 0.500000 0.000000 0.500000
O O14 0.704552 0.500000 0.000000
#
# Coordination Sequence:
#
# PCOD9473980 Si02
#       6
#    16  16  16   8   8  16
#     4  10  21  38  59  82 109 149 195 232 271 331
#     4   9  19  38  62  84 106 142 190 232 273 331
#     4   9  19  38  60  77 103 146 189 224 269 332
#     4  10  21  36  57  84 109 138 187 240 274 312
#     4  12  25  36  52  82 118 148 177 222 282 336
#     4  11  22  36  57  87 119 148 181 231 287 334
#
# _framework density 19.871755
#
# number of rings (size 3 to 8) (size 9 to 14) (size 15 to 20)
#    0.000    2.000    0.000    5.100    0.000    7.200 
#    0.000    3.500    0.000    0.000    0.000    0.000 
#    0.000    0.000    0.000    0.000    0.000    0.000 
#
# Total GULP energy -223469.641955 kJ/mol
# GULP energy per Si atom -5586.741049 kJ/mol
# Density = 1.982653 g / cm^3
# Si number density = 19.871755 Si / 1000 Ang^3
#
#
#
# Elastic Constant Matrix: (Units=GPa)
#
#
# Indices 1 2 3 4 5 6 
#
# 1 93.5944 33.4531 12.1252 0.0000 0.0000 0.0000
# 2 33.4531 30.7769 -5.4615 0.0000 0.0000 0.0000
# 3 12.1252 -5.4615 26.6768 0.0000 0.0000 0.0000
# 4 0.0000 0.0000 0.0000 10.8776 0.0000 0.0000
# 5 0.0000 0.0000 0.0000 0.0000 8.4731 0.0000
# 6 0.0000 0.0000 0.0000 0.0000 0.0000 26.9369
#
#
#
# Elastic Compliance Matrix: (Units=1/GPa)
#
#
# Indices 1 2 3 4 5 6 
#
# 1 0.022450 -0.027201 -0.015773 0.000000 0.000000 0.000000
# 2 -0.027201 0.066675 0.026014 0.000000 0.000000 0.000000
# 3 -0.015773 0.026014 0.049981 0.000000 0.000000 0.000000
# 4 0.000000 0.000000 0.000000 0.091932 0.000000 0.000000
# 5 0.000000 0.000000 0.000000 0.000000 0.118020 0.000000
# 6 0.000000 0.000000 0.000000 0.000000 0.000000 0.037124
#
#
# Mechanical properties :
#
#
# Convention : Reuss Voigt Hill
#
# Bulk Modulus (GPa) = 9.50709 25.69796 17.60253
# Shear Modulus (GPa) = 10.98503 16.65295 13.81899
#
# Velocity S-wave (km/s) = 2.35371 2.89800 2.63992
# Velocity P-wave (km/s) = 3.49016 4.91506 4.26257
#
# Compressibility (1/GPa) = 0.10518466
#
# Stress axis : x y z
#
# Youngs Moduli (GPa) = 44.54278 14.99816 20.00771
#
# Poissons Ratio (x) = 0.40797 0.31558
# Poissons Ratio (y) = 1.21163 -0.52048
# Poissons Ratio (z) = 0.70258 -0.39016
#
# Static dielectric constant tensor:
#      x y z
#    x 1.688010 0.000000 0.000000 
#    y 0.000000 1.666640 0.000000 
#    z 0.000000 0.000000 1.744850 
# 
# From -- ./inp_files/48869.got.cif
#   From: 2010.05.17/outbox.cif.g08.bks.cpg/sg63_25_cif.got.tgz:48869.got - 2010.06.03 15:47:04.
