data_PCOD9473762
_publ_section_title
;
Structure prediction by ZEFSAII (Michael W. Deem and Ramdas Pophale) SiO2 
 PCOD9473762
Probable space group: C M C M
;
_chemical_formula_sum "Si O2"
_cell_formula_units_Z 80
_cell_length_a 31.211982
_cell_length_b 5.205398
_cell_length_c 23.806771
_cell_angle_alpha 90.000000
_cell_angle_beta 90.000000
_cell_angle_gamma 90.000000
_cell_volume 3867.904860
_symmetry_space_group_name_H-M "C M C M"
_symmetry_group_IT_number 63
_symmetry_cell_setting 'orthorhombic'
loop_
_space_group_symop_operation_xyz
x,y,z
-x,-y,1/2+z
x,-y,-z
-x,y,1/2-z
-x,-y,-z
x,y,1/2-z
-x,y,z
x,-y,1/2+z
1/2+x,1/2+y,z
1/2-x,1/2-y,1/2+z
1/2+x,1/2-y,-z
1/2-x,1/2+y,1/2-z
1/2-x,1/2-y,-z
1/2+x,1/2+y,1/2-z
1/2-x,1/2+y,z
1/2+x,1/2-y,1/2+z
loop_
_atom_site_type_symbol
_atom_site_label
_atom_site_fract_x
_atom_site_fract_y
_atom_site_fract_z
Si Si1 0.952657 0.961930 0.865441
Si Si2 0.160881 0.519822 0.114221
Si Si3 0.930504 0.542373 0.435629
Si Si4 0.638700 0.514976 0.315185
Si Si5 0.754882 0.724763 0.566967
O O1 0.947174 0.691679 0.897517
O O2 0.000000 0.976825 0.840058
O O3 0.947266 0.190400 0.910752
O O4 0.912943 0.993525 0.823321
O O5 0.121173 0.542338 0.071549
O O6 0.157113 0.759090 0.156204
O O7 0.206036 0.494192 0.081455
O O8 0.153747 0.267815 0.151919
O O9 0.942312 0.500000 0.500000
O O10 0.650114 0.528223 0.250000
O O11 0.750000 0.750000 0.500000
O O12 0.723333 0.492745 0.586962
#
# Coordination Sequence:
#
# PCOD9473762 Si02
#       5
#    16  16  16  16  16
#     4  10  21  36  53  82 114 145 195 246 282 331
#     4  10  21  38  58  85 120 145 191 239 276 344
#     4  10  21  34  53  80 113 159 188 223 284 353
#     4  10  21  39  62  83 108 155 198 237 290 330
#     4  10  21  36  57  89 118 151 176 227 287 340
#
# _framework density 20.683032999999998
#
# number of rings (size 3 to 8) (size 9 to 14) (size 15 to 20)
#    0.000    2.000    0.000    3.000    2.800    2.800 
#    7.200    0.000    0.000   19.200    0.000    0.000 
#    0.000    0.000    0.000    0.000    0.000    0.000 
#
# Total GULP energy -222719.327118 kJ/mol
# GULP energy per Si atom -5567.983178 kJ/mol
# Density = 2.063596 g / cm^3
# Si number density = 20.683033 Si / 1000 Ang^3
#
#
#
# Elastic Constant Matrix: (Units=GPa)
#
#
# Indices 1 2 3 4 5 6 
#
# 1 242.7554 79.5495 18.2593 0.0000 0.0000 0.0000
# 2 79.5495 169.1645 -9.9065 0.0000 0.0000 0.0000
# 3 18.2593 -9.9065 60.8369 0.0000 0.0000 0.0000
# 4 0.0000 0.0000 0.0000 8.9083 0.0000 0.0000
# 5 0.0000 0.0000 0.0000 0.0000 28.7643 0.0000
# 6 0.0000 0.0000 0.0000 0.0000 0.0000 17.7710
#
#
#
# Elastic Compliance Matrix: (Units=1/GPa)
#
#
# Indices 1 2 3 4 5 6 
#
# 1 0.005086 -0.002505 -0.001934 0.000000 0.000000 0.000000
# 2 -0.002505 0.007202 0.001925 0.000000 0.000000 0.000000
# 3 -0.001934 0.001925 0.017331 0.000000 0.000000 0.000000
# 4 0.000000 0.000000 0.000000 0.112255 0.000000 0.000000
# 5 0.000000 0.000000 0.000000 0.000000 0.034765 0.000000
# 6 0.000000 0.000000 0.000000 0.000000 0.000000 0.056271
#
#
# Mechanical properties :
#
#
# Convention : Reuss Voigt Hill
#
# Bulk Modulus (GPa) = 40.66712 72.06238 56.36475
# Shear Modulus (GPa) = 20.31397 36.74570 28.52984
#
# Velocity S-wave (km/s) = 3.13734 4.21956 3.71803
# Velocity P-wave (km/s) = 5.72962 7.65875 6.76332
#
# Compressibility (1/GPa) = 0.02458989
#
# Stress axis : x y z
#
# Youngs Moduli (GPa) = 196.63087 138.85044 57.69906
#
# Poissons Ratio (x) = 0.34779 0.11161
# Poissons Ratio (y) = 0.49252 -0.11104
# Poissons Ratio (z) = 0.38034 -0.26722
#
# Static dielectric constant tensor:
#      x y z
#    x 2.411380 0.000000 0.000000 
#    y 0.000000 1.334130 0.000000 
#    z 0.000000 0.000000 1.628700 
# 
# From -- ./inp_files/65640.got.cif
#   From: 2010.05.17/outbox.cif.g08.bks.cpg/sg63_33_cif.got.tgz:65640.got - 2010.06.03 15:47:04.
