data_PCOD9473789
_publ_section_title
;
Structure prediction by ZEFSAII (Michael W. Deem and Ramdas Pophale) SiO2 
 PCOD9473789
Probable space group: C M C M
;
_chemical_formula_sum "Si O2"
_cell_formula_units_Z 80
_cell_length_a 9.571378
_cell_length_b 26.756850
_cell_length_c 15.127633
_cell_angle_alpha 90.000000
_cell_angle_beta 90.000000
_cell_angle_gamma 90.000000
_cell_volume 3874.185683
_symmetry_space_group_name_H-M "C M C M"
_symmetry_group_IT_number 63
_symmetry_cell_setting 'orthorhombic'
loop_
_space_group_symop_operation_xyz
x,y,z
-x,-y,1/2+z
x,-y,-z
-x,y,1/2-z
-x,-y,-z
x,y,1/2-z
-x,y,z
x,-y,1/2+z
1/2+x,1/2+y,z
1/2-x,1/2-y,1/2+z
1/2+x,1/2-y,-z
1/2-x,1/2+y,1/2-z
1/2-x,1/2-y,-z
1/2+x,1/2+y,1/2-z
1/2-x,1/2+y,z
1/2+x,1/2-y,1/2+z
loop_
_atom_site_type_symbol
_atom_site_label
_atom_site_fract_x
_atom_site_fract_y
_atom_site_fract_z
Si Si1 0.342249 0.037756 0.144330
Si Si2 0.156389 0.353238 0.391192
Si Si3 0.160747 0.350624 0.895400
Si Si4 0.832546 0.756798 0.592749
Si Si5 0.155396 0.947454 0.355216
O O1 0.352141 0.031021 0.250000
O O2 0.500000 0.035188 0.107418
O O3 0.289237 0.094007 0.129614
O O4 0.246578 0.993394 0.108737
O O5 0.155203 0.350268 0.497897
O O6 0.185919 0.296709 0.359702
O O7 0.265988 0.395162 0.366456
O O8 0.000000 0.367792 0.362044
O O9 0.260766 0.305599 0.865591
O O10 0.000000 0.344217 0.863713
O O11 0.750000 0.750000 0.500000
O O12 0.000000 0.763428 0.579478
O O13 0.143708 0.955619 0.250000
O O14 0.000000 0.945941 0.393572
#
# Coordination Sequence:
#
# PCOD9473789 Si02
#       5
#    16  16  16  16  16
#     4   9  18  34  54  72  95 131 166 195 237 292
#     4   9  18  32  50  72  98 129 162 196 237 287
#     4   9  18  32  51  76 102 127 160 200 238 282
#     4   9  17  30  49  73 100 130 161 195 240 287
#     4  10  21  35  50  70  96 126 162 205 248 286
#
# _framework density 20.649501000000001
#
# number of rings (size 3 to 8) (size 9 to 14) (size 15 to 20)
#    0.000    2.800    0.000    2.400    0.000    6.800 
#    0.000    5.000    0.000    3.600    0.000    0.000 
#    0.000    0.000    0.000    0.000    0.000    0.000 
#
# Total GULP energy -223037.706177 kJ/mol
# GULP energy per Si atom -5575.942654 kJ/mol
# Density = 2.060250 g / cm^3
# Si number density = 20.649501 Si / 1000 Ang^3
#
#
#
# Elastic Constant Matrix: (Units=GPa)
#
#
# Indices 1 2 3 4 5 6 
#
# 1 139.3959 129.4951 1.9046 0.0000 0.0000 0.0000
# 2 129.4951 193.7771 -2.7920 0.0000 0.0000 0.0000
# 3 1.9046 -2.7920 30.9544 0.0000 0.0000 0.0000
# 4 0.0000 0.0000 0.0000 28.2938 0.0000 0.0000
# 5 0.0000 0.0000 0.0000 0.0000 11.0408 0.0000
# 6 0.0000 0.0000 0.0000 0.0000 0.0000 37.3394
#
#
#
# Elastic Compliance Matrix: (Units=1/GPa)
#
#
# Indices 1 2 3 4 5 6 
#
# 1 0.019084 -0.012787 -0.002328 0.000000 0.000000 0.000000
# 2 -0.012787 0.013735 0.002026 0.000000 0.000000 0.000000
# 3 -0.002328 0.002026 0.032631 0.000000 0.000000 0.000000
# 4 0.000000 0.000000 0.000000 0.035343 0.000000 0.000000
# 5 0.000000 0.000000 0.000000 0.000000 0.090573 0.000000
# 6 0.000000 0.000000 0.000000 0.000000 0.000000 0.026781
#
#
# Mechanical properties :
#
#
# Convention : Reuss Voigt Hill
#
# Bulk Modulus (GPa) = 25.46293 69.03809 47.25051
# Shear Modulus (GPa) = 19.42366 31.03611 25.22988
#
# Velocity S-wave (km/s) = 3.07031 3.88105 3.49924
# Velocity P-wave (km/s) = 4.99268 7.32047 6.26563
#
# Compressibility (1/GPa) = 0.03927277
#
# Stress axis : x y z
#
# Youngs Moduli (GPa) = 52.39863 72.80694 30.64526
#
# Poissons Ratio (x) = 0.93099 0.07133
# Poissons Ratio (y) = 0.67003 -0.06208
# Poissons Ratio (z) = 0.12196 -0.14748
#
# Static dielectric constant tensor:
#      x y z
#    x 1.738990 0.000000 0.000000 
#    y 0.000000 1.750520 0.000000 
#    z 0.000000 0.000000 1.777650 
# 
# From -- ./inp_files/40448.got.cif
#   From: 2010.05.17/outbox.cif.g08.bks.cpg/sg63_21_cif.got.tgz:40448.got - 2010.06.03 15:47:04.
