data_PCOD9473382
_publ_section_title
;
Structure prediction by ZEFSAII (Michael W. Deem and Ramdas Pophale) SiO2 
 PCOD9473382
Probable space group: C M C M
;
_chemical_formula_sum "Si O2"
_cell_formula_units_Z 72
_cell_length_a 13.761648
_cell_length_b 30.741565
_cell_length_c 8.734209
_cell_angle_alpha 90.000000
_cell_angle_beta 90.000000
_cell_angle_gamma 90.000000
_cell_volume 3695.047264
_symmetry_space_group_name_H-M "C M C M"
_symmetry_group_IT_number 63
_symmetry_cell_setting 'orthorhombic'
loop_
_space_group_symop_operation_xyz
x,y,z
-x,-y,1/2+z
x,-y,-z
-x,y,1/2-z
-x,-y,-z
x,y,1/2-z
-x,y,z
x,-y,1/2+z
1/2+x,1/2+y,z
1/2-x,1/2-y,1/2+z
1/2+x,1/2-y,-z
1/2-x,1/2+y,1/2-z
1/2-x,1/2-y,-z
1/2+x,1/2+y,1/2-z
1/2-x,1/2+y,z
1/2+x,1/2-y,1/2+z
loop_
_atom_site_type_symbol
_atom_site_label
_atom_site_fract_x
_atom_site_fract_y
_atom_site_fract_z
Si Si1 0.360772 0.199805 0.424677
Si Si2 0.000000 0.548445 0.433564
Si Si3 0.828754 0.607228 0.934161
Si Si4 0.105881 0.881593 0.067212
Si Si5 0.870115 0.210903 0.424420
O O1 0.394668 0.195061 0.250000
O O2 0.368499 0.154756 0.515670
O O3 0.246059 0.208902 0.418334
O O4 0.399484 0.242818 0.506941
O O5 0.000000 0.500000 0.500000
O O6 0.903186 0.572988 0.493466
O O7 0.000000 0.548286 0.250000
O O8 0.830475 0.604111 0.750000
O O9 0.714303 0.602963 0.985961
O O10 0.106950 0.887001 0.250000
O O11 0.000000 0.899784 0.011288
O O12 0.102934 0.830516 0.025927
O O13 0.901959 0.205485 0.250000
#
# Coordination Sequence:
#
# PCOD9473382 Si02
#       5
#    16   8  16  16  16
#     4   9  16  28  47  72 106 148 195 244 291 338
#     4  12  26  46  70  94 118 144 182 234 296 360
#     4  10  20  37  61  88 117 149 189 238 291 348
#     4   9  18  33  54  82 118 159 199 237 282 339
#     4   9  16  26  43  70 106 151 200 247 288 328
#
# _framework density 19.485543
#
# number of rings (size 3 to 8) (size 9 to 14) (size 15 to 20)
#    0.000    2.444    0.000    3.000    0.000    6.667 
#    2.000    0.000    0.000    0.667    0.000    0.000 
#    0.000    0.000    0.000    0.000    0.000    0.000 
#
# Total GULP energy -200581.522154 kJ/mol
# GULP energy per Si atom -5571.708949 kJ/mol
# Density = 1.944119 g / cm^3
# Si number density = 19.485543 Si / 1000 Ang^3
#
#
#
# Elastic Constant Matrix: (Units=GPa)
#
#
# Indices 1 2 3 4 5 6 
#
# 1 194.2831 62.7733 26.7648 0.0000 0.0000 0.0000
# 2 62.7733 107.2246 37.1414 0.0000 0.0000 0.0000
# 3 26.7648 37.1414 67.8877 0.0000 0.0000 0.0000
# 4 0.0000 0.0000 0.0000 27.3548 0.0000 0.0000
# 5 0.0000 0.0000 0.0000 0.0000 -6.9462 0.0000
# 6 0.0000 0.0000 0.0000 0.0000 0.0000 28.4343
#
#
#
# Elastic Compliance Matrix: (Units=1/GPa)
#
#
# Indices 1 2 3 4 5 6 
#
# 1 0.006366 -0.003526 -0.000581 0.000000 0.000000 0.000000
# 2 -0.003526 0.013460 -0.005974 0.000000 0.000000 0.000000
# 3 -0.000581 -0.005974 0.018227 0.000000 0.000000 0.000000
# 4 0.000000 0.000000 0.000000 0.036557 0.000000 0.000000
# 5 0.000000 0.000000 0.000000 0.000000 -0.143964 0.000000
# 6 0.000000 0.000000 0.000000 0.000000 0.000000 0.035169
#
#
# Mechanical properties :
#
#
# Convention : Reuss Voigt Hill
#
# Bulk Modulus (GPa) = 55.88953 69.19493 62.54223
# Shear Modulus (GPa) = -620.32338 25.94965 -297.18686
#
# Velocity S-wave (km/s) = -17.86174 3.65326 -12.36316
# Velocity P-wave (km/s) = 19.91593 7.30637 13.10078
#
# Compressibility (1/GPa) = 0.01789244
#
# Stress axis : x y z
#
# Youngs Moduli (GPa) = 157.07507 74.29631 54.86233
#
# Poissons Ratio (x) = 0.26196 0.03187
# Poissons Ratio (y) = 0.55383 0.32773
# Poissons Ratio (z) = 0.09125 0.44382
#
# Static dielectric constant tensor:
#      x y z
#    x 1.794400 0.000000 0.000000 
#    y 0.000000 1.628050 0.000000 
#    z 0.000000 0.000000 1.661170 
# 
# From -- ./inp_files/4928.got.cif
#   From: 2010.05.17/outbox.cif.g08.bks.cpg/sg63_3_cif.got.tgz:4928.got - 2010.06.03 15:47:04.
