data_PCOD9473675
_publ_section_title
;
Structure prediction by ZEFSAII (Michael W. Deem and Ramdas Pophale) SiO2 
 PCOD9473675
Probable space group: C M C M
;
_chemical_formula_sum "Si O2"
_cell_formula_units_Z 116
_cell_length_a 23.442595
_cell_length_b 9.563132
_cell_length_c 25.844736
_cell_angle_alpha 90.000000
_cell_angle_beta 90.000000
_cell_angle_gamma 90.000000
_cell_volume 5793.992588
_symmetry_space_group_name_H-M "C M C M"
_symmetry_group_IT_number 63
_symmetry_cell_setting 'orthorhombic'
loop_
_space_group_symop_operation_xyz
x,y,z
-x,-y,1/2+z
x,-y,-z
-x,y,1/2-z
-x,-y,-z
x,y,1/2-z
-x,y,z
x,-y,1/2+z
1/2+x,1/2+y,z
1/2-x,1/2-y,1/2+z
1/2+x,1/2-y,-z
1/2-x,1/2+y,1/2-z
1/2-x,1/2-y,-z
1/2+x,1/2+y,1/2-z
1/2-x,1/2+y,z
1/2+x,1/2-y,1/2+z
loop_
_atom_site_type_symbol
_atom_site_label
_atom_site_fract_x
_atom_site_fract_y
_atom_site_fract_z
Si Si1 0.093482 0.802007 0.344205
Si Si2 0.311137 0.319898 0.854487
Si Si3 0.296833 0.349233 0.523032
Si Si4 0.411404 0.211627 0.972240
Si Si5 0.063506 0.436121 0.924276
Si Si6 0.500000 0.292058 0.250000
Si Si7 0.563407 0.388114 0.624738
Si Si8 0.720199 0.616111 0.810843
O O1 0.084941 0.667004 0.380200
O O2 0.050546 0.793805 0.295554
O O3 0.159937 0.816500 0.328874
O O4 0.076446 0.946156 0.373942
O O5 0.299825 0.349031 0.915020
O O6 0.380411 0.318945 0.848429
O O7 0.286730 0.452300 0.823400
O O8 0.274894 0.185156 0.838314
O O9 0.288089 0.500000 0.500000
O O10 0.250000 0.250000 0.500000
O O11 0.356385 0.285779 0.505293
O O12 0.437878 0.322893 0.932765
O O13 0.399235 0.072867 0.937486
O O14 0.441539 0.151038 0.022546
O O15 0.000000 0.489659 0.910811
O O16 0.500000 0.365453 0.648162
O O17 0.726423 0.637281 0.750000
#
# Coordination Sequence:
#
# PCOD9473675 Si02
#       8
#    16  16  16  16  16   4  16  16
#     4  11  24  38  73  93 133 167 229 275 339 393
#     4  10  24  40  65  93 128 167 216 265 321 395
#     4  11  25  41  63  95 133 177 217 265 325 401
#     4  10  24  38  63  91 140 167 216 257 327 400
#     4  11  22  40  62  97 128 182 210 269 324 397
#     4  12  20  48  60 110 120 174 232 286 340 400
#     4  10  20  41  64 100 128 174 208 276 327 399
#     4  11  23  43  64  94 125 170 215 279 332 383
#
# _framework density 20.020735999999999
#
# number of rings (size 3 to 8) (size 9 to 14) (size 15 to 20)
#    0.000    1.379    2.069    2.897    9.655    2.207 
#    0.000    1.379    0.000    1.655    0.000    0.000 
#    0.000    0.000    0.000    0.000    0.000    0.000 
#
# Total GULP energy -323121.616403 kJ/mol
# GULP energy per Si atom -5571.062352 kJ/mol
# Density = 1.997517 g / cm^3
# Si number density = 20.020736 Si / 1000 Ang^3
#
#
#
# Elastic Constant Matrix: (Units=GPa)
#
#
# Indices 1 2 3 4 5 6 
#
# 1 126.3625 38.1888 5.3556 0.0000 0.0000 0.0000
# 2 38.1888 82.6028 30.4445 0.0000 0.0000 0.0000
# 3 5.3556 30.4445 73.6775 0.0000 0.0000 0.0000
# 4 0.0000 0.0000 0.0000 19.6329 0.0000 0.0000
# 5 0.0000 0.0000 0.0000 0.0000 17.3338 0.0000
# 6 0.0000 0.0000 0.0000 0.0000 0.0000 -46.9388
#
#
#
# Elastic Compliance Matrix: (Units=1/GPa)
#
#
# Indices 1 2 3 4 5 6 
#
# 1 0.009303 -0.004780 0.001299 0.000000 0.000000 0.000000
# 2 -0.004780 0.016737 -0.006568 0.000000 0.000000 0.000000
# 3 0.001299 -0.006568 0.016192 0.000000 0.000000 0.000000
# 4 0.000000 0.000000 0.000000 0.050935 0.000000 0.000000
# 5 0.000000 0.000000 0.000000 0.000000 0.057691 0.000000
# 6 0.000000 0.000000 0.000000 0.000000 0.000000 -0.021304
#
#
# Mechanical properties :
#
#
# Convention : Reuss Voigt Hill
#
# Bulk Modulus (GPa) = 45.18000 47.84674 46.51337
# Shear Modulus (GPa) = 31.84099 11.91584 21.87841
#
# Velocity S-wave (km/s) = 3.99231 2.44227 3.30932
# Velocity P-wave (km/s) = 6.62321 5.64831 6.15509
#
# Compressibility (1/GPa) = 0.02213369
#
# Stress axis : x y z
#
# Youngs Moduli (GPa) = 107.48984 59.74872 61.75738
#
# Poissons Ratio (x) = 0.28558 -0.08021
# Poissons Ratio (y) = 0.51377 0.40565
# Poissons Ratio (z) = -0.13961 0.39245
#
# Static dielectric constant tensor:
#      x y z
#    x 1.712660 0.000000 0.000000 
#    y 0.000000 1.698820 0.000000 
#    z 0.000000 0.000000 1.680690 
# 
# From -- ./inp_files/70748.got.cif
#   From: 2010.05.17/outbox.cif.g08.bks.cpg/sg63_36_cif.got.tgz:70748.got - 2010.06.03 15:47:04.
