data_PCOD9473163
_publ_section_title
;
Structure prediction by ZEFSAII (Michael W. Deem and Ramdas Pophale) SiO2 
 PCOD9473163
Probable space group: C M C M
;
_chemical_formula_sum "Si O2"
_cell_formula_units_Z 80
_cell_length_a 7.863221
_cell_length_b 20.070568
_cell_length_c 26.861349
_cell_angle_alpha 90.000000
_cell_angle_beta 90.000000
_cell_angle_gamma 90.000000
_cell_volume 4239.239613
_symmetry_space_group_name_H-M "C M C M"
_symmetry_group_IT_number 63
_symmetry_cell_setting 'orthorhombic'
loop_
_space_group_symop_operation_xyz
x,y,z
-x,-y,1/2+z
x,-y,-z
-x,y,1/2-z
-x,-y,-z
x,y,1/2-z
-x,y,z
x,-y,1/2+z
1/2+x,1/2+y,z
1/2-x,1/2-y,1/2+z
1/2+x,1/2-y,-z
1/2-x,1/2+y,1/2-z
1/2-x,1/2-y,-z
1/2+x,1/2+y,1/2-z
1/2-x,1/2+y,z
1/2+x,1/2-y,1/2+z
loop_
_atom_site_type_symbol
_atom_site_label
_atom_site_fract_x
_atom_site_fract_y
_atom_site_fract_z
Si Si1 0.500000 0.184878 0.308483
Si Si2 0.000000 0.154205 0.809170
Si Si3 0.311714 0.779870 0.448735
Si Si4 0.296981 0.514587 0.443124
Si Si5 0.701194 0.108078 0.621258
Si Si6 0.692893 0.845033 0.602308
O O1 0.500000 0.173183 0.250000
O O2 0.500000 0.265090 0.317990
O O3 0.659934 0.153051 0.338338
O O4 0.169064 0.121814 0.833680
O O5 0.000000 0.144554 0.750000
O O6 0.500000 0.804300 0.458368
O O7 0.250000 0.750000 0.500000
O O8 0.227000 0.841963 0.421781
O O9 0.304561 0.718258 0.411017
O O10 0.238948 0.500000 0.500000
O O11 0.500000 0.504585 0.442146
O O12 0.214973 0.464259 0.403491
O O13 0.256708 0.589069 0.424620
O O14 0.500000 0.121949 0.632683
O O15 0.500000 0.830756 0.583419
#
# Coordination Sequence:
#
# PCOD9473163 Si02
#       6
#     8   8  16  16  16  16
#     4   9  20  40  67  88 114 157 200 259 319 361
#     4  11  22  44  71  90 122 161 206 265 319 365
#     4  11  22  34  56  87 122 158 200 247 304 367
#     4  11  23  38  60  87 128 174 206 248 311 374
#     4  11  23  40  62  92 126 162 208 258 306 373
#     4  10  20  36  59  85 117 155 201 251 300 367
#
# _framework density 18.871307000000002
#
# number of rings (size 3 to 8) (size 9 to 14) (size 15 to 20)
#    0.600    0.800    3.000    3.000    1.400    5.200 
#    0.000    1.000    0.000    1.800    0.000    0.000 
#    0.000    0.000    0.000    0.000    0.000    0.000 
#
# Total GULP energy -222837.295960 kJ/mol
# GULP energy per Si atom -5570.932399 kJ/mol
# Density = 1.882836 g / cm^3
# Si number density = 18.871307 Si / 1000 Ang^3
#
#
#
# Elastic Constant Matrix: (Units=GPa)
#
#
# Indices 1 2 3 4 5 6 
#
# 1 78.9445 -15.2657 22.1544 0.0000 0.0000 0.0000
# 2 -15.2657 31.4554 -20.3403 0.0000 0.0000 0.0000
# 3 22.1544 -20.3403 92.3532 0.0000 0.0000 0.0000
# 4 0.0000 0.0000 0.0000 26.8526 0.0000 0.0000
# 5 0.0000 0.0000 0.0000 0.0000 20.2073 0.0000
# 6 0.0000 0.0000 0.0000 0.0000 0.0000 22.4976
#
#
#
# Elastic Compliance Matrix: (Units=1/GPa)
#
#
# Indices 1 2 3 4 5 6 
#
# 1 0.014361 0.005530 -0.002227 0.000000 0.000000 0.000000
# 2 0.005530 0.039200 0.007307 0.000000 0.000000 0.000000
# 3 -0.002227 0.007307 0.012972 0.000000 0.000000 0.000000
# 4 0.000000 0.000000 0.000000 0.037240 0.000000 0.000000
# 5 0.000000 0.000000 0.000000 0.000000 0.049487 0.000000
# 6 0.000000 0.000000 0.000000 0.000000 0.000000 0.044449
#
#
# Mechanical properties :
#
#
# Convention : Reuss Voigt Hill
#
# Bulk Modulus (GPa) = 11.39584 19.53888 15.46736
# Shear Modulus (GPa) = 24.30239 28.32515 26.31377
#
# Velocity S-wave (km/s) = 3.59248 3.87843 3.73819
# Velocity P-wave (km/s) = 4.82283 5.51657 5.18132
#
# Compressibility (1/GPa) = 0.08775128
#
# Stress axis : x y z
#
# Youngs Moduli (GPa) = 69.63096 25.51044 77.09137
#
# Poissons Ratio (x) = -0.14106 0.17170
# Poissons Ratio (y) = -0.38503 -0.56331
# Poissons Ratio (z) = 0.15509 -0.18641
#
# Static dielectric constant tensor:
#      x y z
#    x 1.681550 0.000000 0.000000 
#    y 0.000000 1.657350 0.000000 
#    z 0.000000 0.000000 1.660330 
# 
# From -- ./inp_files/71624.got.cif
#   From: 2010.05.17/outbox.cif.g08.bks.cpg/sg63_36_cif.got.tgz:71624.got - 2010.06.03 15:47:04.
