data_PCOD9473860
_publ_section_title
;
Structure prediction by ZEFSAII (Michael W. Deem and Ramdas Pophale) SiO2 
 PCOD9473860
Probable space group: C M C M
;
_chemical_formula_sum "Si O2"
_cell_formula_units_Z 80
_cell_length_a 29.969757
_cell_length_b 7.618234
_cell_length_c 17.649572
_cell_angle_alpha 90.000000
_cell_angle_beta 90.000000
_cell_angle_gamma 90.000000
_cell_volume 4029.690654
_symmetry_space_group_name_H-M "C M C M"
_symmetry_group_IT_number 63
_symmetry_cell_setting 'orthorhombic'
loop_
_space_group_symop_operation_xyz
x,y,z
-x,-y,1/2+z
x,-y,-z
-x,y,1/2-z
-x,-y,-z
x,y,1/2-z
-x,y,z
x,-y,1/2+z
1/2+x,1/2+y,z
1/2-x,1/2-y,1/2+z
1/2+x,1/2-y,-z
1/2-x,1/2+y,1/2-z
1/2-x,1/2-y,-z
1/2+x,1/2+y,1/2-z
1/2-x,1/2+y,z
1/2+x,1/2-y,1/2+z
loop_
_atom_site_type_symbol
_atom_site_label
_atom_site_fract_x
_atom_site_fract_y
_atom_site_fract_z
Si Si1 0.715654 0.759189 0.338550
Si Si2 0.102771 0.587886 0.080494
Si Si3 0.203573 0.600322 0.420234
Si Si4 0.448611 0.556328 0.588277
Si Si5 0.381854 0.279463 0.839804
O O1 0.724915 0.720190 0.250000
O O2 0.756515 0.725189 0.395245
O O3 0.668993 0.671884 0.364738
O O4 0.704625 0.962613 0.350828
O O5 0.152965 0.668564 0.075009
O O6 0.069649 0.745927 0.098568
O O7 0.105366 0.417465 0.134160
O O8 0.091478 0.500000 0.000000
O O9 0.211290 0.500000 0.500000
O O10 0.446569 0.500000 0.500000
O O11 0.500000 0.544318 0.612966
O O12 0.416969 0.419362 0.630535
O O13 0.380346 0.281971 0.750000
#
# Coordination Sequence:
#
# PCOD9473860 Si02
#       5
#    16  16  16  16  16
#     4  10  21  37  56  84 121 163 205 247 305 367
#     4  10  21  41  64  93 127 165 207 257 318 379
#     4  10  21  35  56  88 120 160 205 252 300 366
#     4  11  24  41  68  97 120 159 213 262 314 378
#     4  10  23  42  62  90 131 168 206 262 316 369
#
# _framework density 19.852640000000001
#
# number of rings (size 3 to 8) (size 9 to 14) (size 15 to 20)
#    0.000    1.800    2.000    1.200    2.800    4.000 
#    0.000    0.000    0.000    0.000    0.000    0.000 
#    0.000    0.000    0.000    0.000    0.000    0.000 
#
# Total GULP energy -223040.117640 kJ/mol
# GULP energy per Si atom -5576.002941 kJ/mol
# Density = 1.980745 g / cm^3
# Si number density = 19.852640 Si / 1000 Ang^3
#
#
#
# Elastic Constant Matrix: (Units=GPa)
#
#
# Indices 1 2 3 4 5 6 
#
# 1 60.5271 26.7991 4.0963 0.0000 0.0000 0.0000
# 2 26.7991 61.3274 -4.0664 0.0000 0.0000 0.0000
# 3 4.0963 -4.0664 34.1348 0.0000 0.0000 0.0000
# 4 0.0000 0.0000 0.0000 29.1380 0.0000 0.0000
# 5 0.0000 0.0000 0.0000 0.0000 23.3578 0.0000
# 6 0.0000 0.0000 0.0000 0.0000 0.0000 42.6287
#
#
#
# Elastic Compliance Matrix: (Units=1/GPa)
#
#
# Indices 1 2 3 4 5 6 
#
# 1 0.020922 -0.009383 -0.003628 0.000000 0.000000 0.000000
# 2 -0.009383 0.020644 0.003585 0.000000 0.000000 0.000000
# 3 -0.003628 0.003585 0.030158 0.000000 0.000000 0.000000
# 4 0.000000 0.000000 0.000000 0.034320 0.000000 0.000000
# 5 0.000000 0.000000 0.000000 0.000000 0.042812 0.000000
# 6 0.000000 0.000000 0.000000 0.000000 0.000000 0.023458
#
#
# Mechanical properties :
#
#
# Convention : Reuss Voigt Hill
#
# Bulk Modulus (GPa) = 18.91387 23.29415 21.10401
# Shear Modulus (GPa) = 23.94754 27.63558 25.79156
#
# Velocity S-wave (km/s) = 3.47690 3.73505 3.60828
# Velocity P-wave (km/s) = 5.06619 5.50997 5.29273
#
# Compressibility (1/GPa) = 0.05287125
#
# Stress axis : x y z
#
# Youngs Moduli (GPa) = 47.79770 48.44056 33.15848
#
# Poissons Ratio (x) = 0.45452 0.12031
# Poissons Ratio (y) = 0.44848 -0.11888
# Poissons Ratio (z) = 0.17343 -0.17367
#
# Static dielectric constant tensor:
#      x y z
#    x 1.766100 0.000000 0.000000 
#    y 0.000000 1.715060 0.000000 
#    z 0.000000 0.000000 1.690160 
# 
# From -- ./inp_files/48728.got.cif
#   From: 2010.05.17/outbox.cif.g08.bks.cpg/sg63_25_cif.got.tgz:48728.got - 2010.06.03 15:47:04.
