data_PCOD9473527
_publ_section_title
;
Structure prediction by ZEFSAII (Michael W. Deem and Ramdas Pophale) SiO2 
 PCOD9473527
Probable space group: C M C M
;
_chemical_formula_sum "Si O2"
_cell_formula_units_Z 96
_cell_length_a 8.802590
_cell_length_b 25.442482
_cell_length_c 24.113723
_cell_angle_alpha 90.000000
_cell_angle_beta 90.000000
_cell_angle_gamma 90.000000
_cell_volume 5400.503076
_symmetry_space_group_name_H-M "C M C M"
_symmetry_group_IT_number 63
_symmetry_cell_setting 'orthorhombic'
loop_
_space_group_symop_operation_xyz
x,y,z
-x,-y,1/2+z
x,-y,-z
-x,y,1/2-z
-x,-y,-z
x,y,1/2-z
-x,y,z
x,-y,1/2+z
1/2+x,1/2+y,z
1/2-x,1/2-y,1/2+z
1/2+x,1/2-y,-z
1/2-x,1/2+y,1/2-z
1/2-x,1/2-y,-z
1/2+x,1/2+y,1/2-z
1/2-x,1/2+y,z
1/2+x,1/2-y,1/2+z
loop_
_atom_site_type_symbol
_atom_site_label
_atom_site_fract_x
_atom_site_fract_y
_atom_site_fract_z
Si Si1 0.818659 0.853611 0.250000
Si Si2 0.181325 0.677623 0.634145
Si Si3 0.681689 0.110465 0.057660
Si Si4 0.318644 0.583530 0.560652
Si Si5 0.182114 0.511973 0.129511
Si Si6 0.180816 0.774808 0.555842
Si Si7 0.182499 0.529568 0.750000
O O1 0.751877 0.827302 0.305166
O O2 0.764507 0.914291 0.250000
O O3 0.000000 0.851349 0.250000
O O4 0.254297 0.632505 0.595846
O O5 0.209594 0.733502 0.605107
O O6 0.000000 0.668848 0.636692
O O7 0.500000 0.113840 0.051663
O O8 0.717658 0.069887 0.106964
O O9 0.747903 0.168372 0.066294
O O10 0.750416 0.087581 0.000794
O O11 0.500000 0.586086 0.558449
O O12 0.264894 0.530960 0.591577
O O13 0.220582 0.501254 0.193621
O O14 0.000000 0.504147 0.123418
O O15 0.250000 0.750000 0.500000
O O16 0.000000 0.780046 0.548610
O O17 0.000000 0.538845 0.750000
#
# Coordination Sequence:
#
# PCOD9473527 Si02
#       7
#     8  16  16  16  16  16   8
#     4  12  24  38  61  94 123 153 198 252 300 349
#     4  11  23  40  62  88 121 161 199 243 301 362
#     4  11  23  39  59  86 123 164 203 245 301 367
#     4  12  23  35  58  90 123 155 198 253 303 355
#     4  10  22  39  60  86 119 160 203 244 300 369
#     4  11  23  39  63  89 118 157 202 249 302 357
#     4  10  20  38  63  84 113 159 202 242 294 359
#
# _framework density 17.776121
#
# number of rings (size 3 to 8) (size 9 to 14) (size 15 to 20)
#    0.000    1.000    3.333    4.250    0.000    5.333 
#    0.000    0.833    0.000    1.000    0.000    0.000 
#    0.000    0.000    0.000    0.000    0.000    0.000 
#
# Total GULP energy -268422.710115 kJ/mol
# GULP energy per Si atom -5592.139794 kJ/mol
# Density = 1.773566 g / cm^3
# Si number density = 17.776121 Si / 1000 Ang^3
#
#
#
# Elastic Constant Matrix: (Units=GPa)
#
#
# Indices 1 2 3 4 5 6 
#
# 1 94.5481 86.3001 81.3609 0.0000 0.0000 0.0000
# 2 86.3001 161.1526 90.5876 0.0000 0.0000 0.0000
# 3 81.3609 90.5876 155.5579 0.0000 0.0000 0.0000
# 4 0.0000 0.0000 0.0000 27.3523 0.0000 0.0000
# 5 0.0000 0.0000 0.0000 0.0000 18.5449 0.0000
# 6 0.0000 0.0000 0.0000 0.0000 0.0000 31.9041
#
#
#
# Elastic Compliance Matrix: (Units=1/GPa)
#
#
# Indices 1 2 3 4 5 6 
#
# 1 0.026302 -0.009444 -0.008257 0.000000 0.000000 0.000000
# 2 -0.009444 0.012616 -0.002407 0.000000 0.000000 0.000000
# 3 -0.008257 -0.002407 0.012149 0.000000 0.000000 0.000000
# 4 0.000000 0.000000 0.000000 0.036560 0.000000 0.000000
# 5 0.000000 0.000000 0.000000 0.000000 0.053923 0.000000
# 6 0.000000 0.000000 0.000000 0.000000 0.000000 0.031344
#
#
# Mechanical properties :
#
#
# Convention : Reuss Voigt Hill
#
# Bulk Modulus (GPa) = 92.16255 103.08399 97.62327
# Shear Modulus (GPa) = 23.07046 25.76092 24.41569
#
# Velocity S-wave (km/s) = 3.60646 3.81095 3.71011
# Velocity P-wave (km/s) = 8.32471 8.80230 8.56684
#
# Compressibility (1/GPa) = 0.01085039
#
# Stress axis : x y z
#
# Youngs Moduli (GPa) = 38.02000 79.26576 82.31009
#
# Poissons Ratio (x) = 0.74855 0.67965
# Poissons Ratio (y) = 0.35905 0.19816
# Poissons Ratio (z) = 0.31394 0.19083
#
# Static dielectric constant tensor:
#      x y z
#    x 1.599100 0.000000 0.000000 
#    y 0.000000 1.584150 0.000000 
#    z 0.000000 0.000000 1.588320 
# 
# From -- ./inp_files/60097.got.cif
#   From: 2010.05.17/outbox.cif.g08.bks.cpg/sg63_31_cif.got.tgz:60097.got - 2010.06.03 15:47:04.
