data_PCOD9473799
_publ_section_title
;
Structure prediction by ZEFSAII (Michael W. Deem and Ramdas Pophale) SiO2 
 PCOD9473799
Probable space group: C M C M
;
_chemical_formula_sum "Si O2"
_cell_formula_units_Z 112
_cell_length_a 19.407542
_cell_length_b 14.176675
_cell_length_c 18.913180
_cell_angle_alpha 90.000000
_cell_angle_beta 90.000000
_cell_angle_gamma 90.000000
_cell_volume 5203.666724
_symmetry_space_group_name_H-M "C M C M"
_symmetry_group_IT_number 63
_symmetry_cell_setting 'orthorhombic'
loop_
_space_group_symop_operation_xyz
x,y,z
-x,-y,1/2+z
x,-y,-z
-x,y,1/2-z
-x,-y,-z
x,y,1/2-z
-x,y,z
x,-y,1/2+z
1/2+x,1/2+y,z
1/2-x,1/2-y,1/2+z
1/2+x,1/2-y,-z
1/2-x,1/2+y,1/2-z
1/2-x,1/2-y,-z
1/2+x,1/2+y,1/2-z
1/2-x,1/2+y,z
1/2+x,1/2-y,1/2+z
loop_
_atom_site_type_symbol
_atom_site_label
_atom_site_fract_x
_atom_site_fract_y
_atom_site_fract_z
Si Si1 0.919827 0.820370 0.429540
Si Si2 0.074949 0.479019 0.172017
Si Si3 0.076480 0.005973 0.333684
Si Si4 0.706590 0.153223 0.672288
Si Si5 0.272732 0.457705 0.833925
Si Si6 0.324586 0.244330 0.965027
Si Si7 0.355410 0.870003 0.914876
O O1 0.919357 0.914738 0.383989
O O2 0.876395 0.821949 0.503031
O O3 0.880338 0.734072 0.390427
O O4 0.000000 0.795725 0.442531
O O5 0.077185 0.526576 0.250000
O O6 0.134872 0.403336 0.173840
O O7 0.090427 0.554588 0.112257
O O8 0.000000 0.435412 0.163416
O O9 0.079312 0.979376 0.250000
O O10 0.146906 0.062973 0.346429
O O11 0.000000 0.049616 0.345254
O O12 0.724171 0.189381 0.750000
O O13 0.760526 0.070572 0.652099
O O14 0.691829 0.232979 0.616101
O O15 0.257126 0.444734 0.750000
O O16 0.216840 0.403853 0.881530
O O17 0.250000 0.250000 0.000000
O O18 0.352758 0.146280 0.000543
#
# Coordination Sequence:
#
# PCOD9473799 Si02
#       7
#    16  16  16  16  16  16  16
#     4   9  19  33  50  78 110 142 179 226 283 333
#     4   9  17  30  48  75 110 141 172 210 256 318
#     4   9  17  30  51  78 109 147 186 226 275 327
#     4   9  18  33  51  71  98 139 180 215 259 318
#     4   9  17  31  50  76 109 142 180 223 260 321
#     4  10  21  35  51  75 105 140 181 224 272 321
#     4   9  19  31  50  75 107 140 174 216 277 320
#
# _framework density 21.523284
#
# number of rings (size 3 to 8) (size 9 to 14) (size 15 to 20)
#    0.857    2.000    0.000    2.571    0.000    4.000 
#    0.000    3.571    0.000    0.857    0.000    3.000 
#    0.000    4.571    0.000    0.429    0.000    0.000 
#
# Total GULP energy -311848.193051 kJ/mol
# GULP energy per Si atom -5568.717733 kJ/mol
# Density = 2.147430 g / cm^3
# Si number density = 21.523284 Si / 1000 Ang^3
#
#
#
# Elastic Constant Matrix: (Units=GPa)
#
#
# Indices 1 2 3 4 5 6 
#
# 1 135.5758 2.9315 8.7735 0.0000 0.0000 0.0000
# 2 2.9315 33.4015 20.2185 0.0000 0.0000 0.0000
# 3 8.7735 20.2185 69.2689 0.0000 0.0000 0.0000
# 4 0.0000 0.0000 0.0000 20.9159 0.0000 0.0000
# 5 0.0000 0.0000 0.0000 0.0000 27.0559 0.0000
# 6 0.0000 0.0000 0.0000 0.0000 0.0000 23.4125
#
#
#
# Elastic Compliance Matrix: (Units=1/GPa)
#
#
# Indices 1 2 3 4 5 6 
#
# 1 0.007437 -0.000100 -0.000913 0.000000 0.000000 0.000000
# 2 -0.000100 0.036365 -0.010602 0.000000 0.000000 0.000000
# 3 -0.000913 -0.010602 0.017647 0.000000 0.000000 0.000000
# 4 0.000000 0.000000 0.000000 0.047811 0.000000 0.000000
# 5 0.000000 0.000000 0.000000 0.000000 0.036961 0.000000
# 6 0.000000 0.000000 0.000000 0.000000 0.000000 0.042712
#
#
# Mechanical properties :
#
#
# Convention : Reuss Voigt Hill
#
# Bulk Modulus (GPa) = 26.16468 33.56590 29.86529
# Shear Modulus (GPa) = 22.23200 28.03170 25.13185
#
# Velocity S-wave (km/s) = 3.21741 3.61278 3.42081
# Velocity P-wave (km/s) = 5.09756 5.74734 5.43217
#
# Compressibility (1/GPa) = 0.03821946
#
# Stress axis : x y z
#
# Youngs Moduli (GPa) = 134.45952 27.49901 56.66833
#
# Poissons Ratio (x) = 0.00276 0.05172
# Poissons Ratio (y) = 0.01348 0.60078
# Poissons Ratio (z) = 0.12273 0.29153
#
# Static dielectric constant tensor:
#      x y z
#    x 1.811070 0.000000 0.000000 
#    y 0.000000 1.807450 0.000000 
#    z 0.000000 0.000000 1.850240 
# 
# From -- ./inp_files/46068.got.cif
#   From: 2010.05.17/outbox.cif.g08.bks.cpg/sg63_24_cif.got.tgz:46068.got - 2010.06.03 15:47:04.
