data_PCOD9473631
_publ_section_title
;
Structure prediction by ZEFSAII (Michael W. Deem and Ramdas Pophale) SiO2 
 PCOD9473631
Probable space group: C M C M
;
_chemical_formula_sum "Si O2"
_cell_formula_units_Z 116
_cell_length_a 18.224357
_cell_length_b 11.916356
_cell_length_c 25.087241
_cell_angle_alpha 90.000000
_cell_angle_beta 90.000000
_cell_angle_gamma 90.000000
_cell_volume 5448.144094
_symmetry_space_group_name_H-M "C M C M"
_symmetry_group_IT_number 63
_symmetry_cell_setting 'orthorhombic'
loop_
_space_group_symop_operation_xyz
x,y,z
-x,-y,1/2+z
x,-y,-z
-x,y,1/2-z
-x,-y,-z
x,y,1/2-z
-x,y,z
x,-y,1/2+z
1/2+x,1/2+y,z
1/2-x,1/2-y,1/2+z
1/2+x,1/2-y,-z
1/2-x,1/2+y,1/2-z
1/2-x,1/2-y,-z
1/2+x,1/2+y,1/2-z
1/2-x,1/2+y,z
1/2+x,1/2-y,1/2+z
loop_
_atom_site_type_symbol
_atom_site_label
_atom_site_fract_x
_atom_site_fract_y
_atom_site_fract_z
Si Si1 0.128400 0.853198 0.954921
Si Si2 0.119214 0.599027 0.917846
Si Si3 0.082937 0.322548 0.309253
Si Si4 0.301868 0.617389 0.310003
Si Si5 0.500000 0.000000 0.000000
Si Si6 0.917640 0.235868 0.934950
Si Si7 0.282916 0.097446 0.081065
Si Si8 0.918000 0.975191 0.136473
O O1 0.122874 0.730376 0.929301
O O2 0.214633 0.879443 0.957289
O O3 0.092847 0.942409 0.914711
O O4 0.092552 0.840173 0.012432
O O5 0.094834 0.589823 0.856455
O O6 0.194651 0.532103 0.923022
O O7 0.063170 0.548567 0.959426
O O8 0.088335 0.371981 0.250000
O O9 0.143493 0.224605 0.312623
O O10 0.000000 0.275794 0.315308
O O11 0.271707 0.610634 0.250000
O O12 0.244936 0.623299 0.358794
O O13 0.354529 0.511676 0.323251
O O14 0.853405 0.326938 0.932592
O O15 0.000000 0.288431 0.938026
O O16 0.912259 0.151092 0.885492
O O17 0.000000 0.991846 0.158004
#
# Coordination Sequence:
#
# PCOD9473631 Si02
#       8
#    16  16  16  16   4  16  16  16
#     4  11  24  41  67  91 135 176 219 272 316 388
#     4  12  25  42  66  99 133 180 228 269 344 389
#     4  10  20  39  70 103 134 169 220 285 339 394
#     4  10  22  41  68  98 127 168 216 279 343 386
#     4  12  28  40  66  96 134 172 214 282 324 416
#     4  11  25  43  64  92 132 176 219 256 327 393
#     4  11  26  42  63  94 134 173 218 271 315 402
#     4  10  21  39  66  98 129 169 215 271 321 391
#
# _framework density 21.291654999999999
#
# number of rings (size 3 to 8) (size 9 to 14) (size 15 to 20)
#    0.000    1.241    3.448    2.483    8.690    2.483 
#    4.966    2.069    0.000    1.241    0.000    0.000 
#    0.000    0.000    0.000    0.000    0.000    0.000 
#
# Total GULP energy -323849.025047 kJ/mol
# GULP energy per Si atom -5583.603880 kJ/mol
# Density = 2.124319 g / cm^3
# Si number density = 21.291655 Si / 1000 Ang^3
#
#
#
# Elastic Constant Matrix: (Units=GPa)
#
#
# Indices 1 2 3 4 5 6 
#
# 1 94.5298 4.8464 10.8986 0.0000 0.0000 0.0000
# 2 4.8464 39.1561 2.5432 0.0000 0.0000 0.0000
# 3 10.8986 2.5432 89.7167 0.0000 0.0000 0.0000
# 4 0.0000 0.0000 0.0000 25.5045 0.0000 0.0000
# 5 0.0000 0.0000 0.0000 0.0000 46.3037 0.0000
# 6 0.0000 0.0000 0.0000 0.0000 0.0000 57.4427
#
#
#
# Elastic Compliance Matrix: (Units=1/GPa)
#
#
# Indices 1 2 3 4 5 6 
#
# 1 0.010790 -0.001253 -0.001275 0.000000 0.000000 0.000000
# 2 -0.001253 0.025731 -0.000577 0.000000 0.000000 0.000000
# 3 -0.001275 -0.000577 0.011317 0.000000 0.000000 0.000000
# 4 0.000000 0.000000 0.000000 0.039209 0.000000 0.000000
# 5 0.000000 0.000000 0.000000 0.000000 0.021597 0.000000
# 6 0.000000 0.000000 0.000000 0.000000 0.000000 0.017409
#
#
# Mechanical properties :
#
#
# Convention : Reuss Voigt Hill
#
# Bulk Modulus (GPa) = 24.02200 28.88655 26.45428
# Shear Modulus (GPa) = 34.21398 39.52448 36.86923
#
# Velocity S-wave (km/s) = 4.01299 4.31320 4.16580
# Velocity P-wave (km/s) = 5.72529 6.19689 5.96575
#
# Compressibility (1/GPa) = 0.04162851
#
# Stress axis : x y z
#
# Youngs Moduli (GPa) = 92.67911 38.86311 88.35897
#
# Poissons Ratio (x) = 0.04868 0.11268
# Poissons Ratio (y) = 0.11610 0.05100
# Poissons Ratio (z) = 0.11819 0.02243
#
# Static dielectric constant tensor:
#      x y z
#    x 1.771780 0.000000 0.000000 
#    y 0.000000 1.791010 0.000000 
#    z 0.000000 0.000000 1.860350 
# 
# From -- ./inp_files/70037.got.cif
#   From: 2010.05.17/outbox.cif.g08.bks.cpg/sg63_36_cif.got.tgz:70037.got - 2010.06.03 15:47:04.
