data_PCOD9473547
_publ_section_title
;
Structure prediction by ZEFSAII (Michael W. Deem and Ramdas Pophale) SiO2 
 PCOD9473547
Probable space group: C M C M
;
_chemical_formula_sum "Si O2"
_cell_formula_units_Z 112
_cell_length_a 13.819523
_cell_length_b 28.131060
_cell_length_c 14.066117
_cell_angle_alpha 90.000000
_cell_angle_beta 90.000000
_cell_angle_gamma 90.000000
_cell_volume 5468.313131
_symmetry_space_group_name_H-M "C M C M"
_symmetry_group_IT_number 63
_symmetry_cell_setting 'orthorhombic'
loop_
_space_group_symop_operation_xyz
x,y,z
-x,-y,1/2+z
x,-y,-z
-x,y,1/2-z
-x,-y,-z
x,y,1/2-z
-x,y,z
x,-y,1/2+z
1/2+x,1/2+y,z
1/2-x,1/2-y,1/2+z
1/2+x,1/2-y,-z
1/2-x,1/2+y,1/2-z
1/2-x,1/2-y,-z
1/2+x,1/2+y,1/2-z
1/2-x,1/2+y,z
1/2+x,1/2-y,1/2+z
loop_
_atom_site_type_symbol
_atom_site_label
_atom_site_fract_x
_atom_site_fract_y
_atom_site_fract_z
Si Si1 0.382964 0.479919 0.644714
Si Si2 0.385698 0.421777 0.035502
Si Si3 0.807015 0.272218 0.356626
Si Si4 0.386343 0.237697 0.059271
Si Si5 0.774470 0.379669 0.357886
Si Si6 0.616188 0.054139 0.506102
Si Si7 0.616637 0.133855 0.142124
O O1 0.342152 0.474529 0.750000
O O2 0.500000 0.477975 0.649863
O O3 0.357980 0.439142 0.569614
O O4 0.363886 0.531845 0.600778
O O5 0.500000 0.412138 0.039700
O O6 0.320152 0.380169 0.075671
O O7 0.830443 0.254474 0.250000
O O8 0.692559 0.264954 0.377175
O O9 0.862835 0.251876 0.448353
O O10 0.825051 0.328672 0.358806
O O11 0.500000 0.246206 0.079534
O O12 0.363619 0.182187 0.083851
O O13 0.746114 0.390225 0.250000
O O14 0.843371 0.419568 0.401577
O O15 0.500000 0.053333 0.509644
O O16 0.645024 0.087326 0.417129
O O17 0.651117 0.000000 0.500000
O O18 0.655222 0.136039 0.250000
O O19 0.500000 0.131942 0.148907
#
# Coordination Sequence:
#
# PCOD9473547 Si02
#       7
#    16  16  16  16  16  16  16
#     4   8  14  27  48  71  94 130 184 239 287 334
#     4   9  18  31  48  72 106 144 185 235 285 343
#     4  10  22  38  59  91 125 156 196 246 301 363
#     4  10  20  38  64  91 122 158 198 246 300 364
#     4  11  23  37  55  82 117 156 196 239 294 356
#     4  10  22  39  57  81 117 156 200 253 299 345
#     4   9  17  33  59  86 111 147 196 244 296 355
#
# _framework density 20.481636000000002
#
# number of rings (size 3 to 8) (size 9 to 14) (size 15 to 20)
#    0.000    2.429    1.429    1.714    2.000    3.429 
#    0.000    5.000    0.000    0.000    0.000    2.000 
#    0.000    0.000    0.000    0.000    0.000    0.000 
#
# Total GULP energy -312414.588003 kJ/mol
# GULP energy per Si atom -5578.831929 kJ/mol
# Density = 2.043502 g / cm^3
# Si number density = 20.481636 Si / 1000 Ang^3
#
#
#
# Elastic Constant Matrix: (Units=GPa)
#
#
# Indices 1 2 3 4 5 6 
#
# 1 55.4505 0.3370 -7.3741 0.0000 0.0000 0.0000
# 2 0.3370 48.4525 2.4471 0.0000 0.0000 0.0000
# 3 -7.3741 2.4471 109.4340 0.0000 0.0000 0.0000
# 4 0.0000 0.0000 0.0000 17.5587 0.0000 0.0000
# 5 0.0000 0.0000 0.0000 0.0000 21.0155 0.0000
# 6 0.0000 0.0000 0.0000 0.0000 0.0000 16.1931
#
#
#
# Elastic Compliance Matrix: (Units=1/GPa)
#
#
# Indices 1 2 3 4 5 6 
#
# 1 0.018199 -0.000189 0.001231 0.000000 0.000000 0.000000
# 2 -0.000189 0.020664 -0.000475 0.000000 0.000000 0.000000
# 3 0.001231 -0.000475 0.009231 0.000000 0.000000 0.000000
# 4 0.000000 0.000000 0.000000 0.056952 0.000000 0.000000
# 5 0.000000 0.000000 0.000000 0.000000 0.047584 0.000000
# 6 0.000000 0.000000 0.000000 0.000000 0.000000 0.061755
#
#
# Mechanical properties :
#
#
# Convention : Reuss Voigt Hill
#
# Bulk Modulus (GPa) = 20.31347 22.68412 21.49879
# Shear Modulus (GPa) = 21.77128 25.48193 23.62661
#
# Velocity S-wave (km/s) = 3.26385 3.53106 3.40008
# Velocity P-wave (km/s) = 4.91356 5.26535 5.09249
#
# Compressibility (1/GPa) = 0.04922842
#
# Stress axis : x y z
#
# Youngs Moduli (GPa) = 54.94839 48.39324 108.32519
#
# Poissons Ratio (x) = 0.00913 -0.13330
# Poissons Ratio (y) = 0.01037 0.05143
# Poissons Ratio (z) = -0.06762 0.02298
#
# Static dielectric constant tensor:
#      x y z
#    x 1.737290 0.000000 0.000000 
#    y 0.000000 1.740480 0.000000 
#    z 0.000000 0.000000 1.758660 
# 
# From -- ./inp_files/32554.got.cif
#   From: 2010.05.17/outbox.cif.g08.bks.cpg/sg63_17_cif.got.tgz:32554.got - 2010.06.03 15:47:04.
