data_PCOD9473146
_publ_section_title
;
Structure prediction by ZEFSAII (Michael W. Deem and Ramdas Pophale) SiO2 
 PCOD9473146
Probable space group: C M C M
;
_chemical_formula_sum "Si O2"
_cell_formula_units_Z 96
_cell_length_a 8.104995
_cell_length_b 21.281481
_cell_length_c 27.647402
_cell_angle_alpha 90.000000
_cell_angle_beta 90.000000
_cell_angle_gamma 90.000000
_cell_volume 4768.797995
_symmetry_space_group_name_H-M "C M C M"
_symmetry_group_IT_number 63
_symmetry_cell_setting 'orthorhombic'
loop_
_space_group_symop_operation_xyz
x,y,z
-x,-y,1/2+z
x,-y,-z
-x,y,1/2-z
-x,-y,-z
x,y,1/2-z
-x,y,z
x,-y,1/2+z
1/2+x,1/2+y,z
1/2-x,1/2-y,1/2+z
1/2+x,1/2-y,-z
1/2-x,1/2+y,1/2-z
1/2-x,1/2-y,-z
1/2+x,1/2+y,1/2-z
1/2-x,1/2+y,z
1/2+x,1/2-y,1/2+z
loop_
_atom_site_type_symbol
_atom_site_label
_atom_site_fract_x
_atom_site_fract_y
_atom_site_fract_z
Si Si1 0.701966 0.561575 0.694119
Si Si2 0.199288 0.186174 0.862116
Si Si3 0.800546 0.810970 0.805568
Si Si4 0.802384 0.186645 0.972906
Si Si5 0.198362 0.935940 0.639905
Si Si6 0.303114 0.938687 0.528745
O O1 0.753603 0.562194 0.750000
O O2 0.500000 0.561497 0.693788
O O3 0.756620 0.623908 0.665950
O O4 0.758121 0.498764 0.666764
O O5 0.250038 0.248459 0.833715
O O6 0.258866 0.187036 0.917496
O O7 0.000000 0.184199 0.863254
O O8 0.742542 0.810128 0.750000
O O9 0.740190 0.872876 0.833808
O O10 0.000000 0.813335 0.804664
O O11 0.742636 0.124899 0.000833
O O12 0.000000 0.184742 0.971912
O O13 0.750000 0.250000 0.000000
O O14 0.239689 0.936886 0.583479
O O15 0.000000 0.935725 0.644330
O O16 0.500000 0.943146 0.530827
O O17 0.238980 0.000000 0.500000
#
# Coordination Sequence:
#
# PCOD9473146 Si02
#       6
#    16  16  16  16  16  16
#     4   9  17  32  56  83 108 137 179 229 276 326
#     4  10  21  36  56  82 110 143 184 229 277 330
#     4  10  21  36  55  82 114 146 181 224 276 332
#     4  11  23  39  60  86 116 151 192 237 286 341
#     4  10  20  36  59  83 108 143 187 232 277 330
#     4  11  24  40  58  83 116 152 190 236 288 339
#
# _framework density 20.130859000000001
#
# number of rings (size 3 to 8) (size 9 to 14) (size 15 to 20)
#    0.000    1.833    0.000    4.000    0.000   10.333 
#    0.000    0.833    0.000    2.500    0.000    0.000 
#    0.000    0.000    0.000    0.000    0.000    0.000 
#
# Total GULP energy -268323.023543 kJ/mol
# GULP energy per Si atom -5590.062990 kJ/mol
# Density = 2.008504 g / cm^3
# Si number density = 20.130859 Si / 1000 Ang^3
#
#
#
# Elastic Constant Matrix: (Units=GPa)
#
#
# Indices 1 2 3 4 5 6 
#
# 1 5.0239 1.8038 -1.6090 0.0000 0.0000 0.0000
# 2 1.8038 236.4184 138.8618 0.0000 0.0000 0.0000
# 3 -1.6090 138.8618 228.8440 0.0000 0.0000 0.0000
# 4 0.0000 0.0000 0.0000 47.4617 0.0000 0.0000
# 5 0.0000 0.0000 0.0000 0.0000 21.3968 0.0000
# 6 0.0000 0.0000 0.0000 0.0000 0.0000 27.0458
#
#
#
# Elastic Compliance Matrix: (Units=1/GPa)
#
#
# Indices 1 2 3 4 5 6 
#
# 1 0.201539 -0.003682 0.003652 0.000000 0.000000 0.000000
# 2 -0.003682 0.006639 -0.004055 0.000000 0.000000 0.000000
# 3 0.003652 -0.004055 0.006856 0.000000 0.000000 0.000000
# 4 0.000000 0.000000 0.000000 0.021070 0.000000 0.000000
# 5 0.000000 0.000000 0.000000 0.000000 0.046736 0.000000
# 6 0.000000 0.000000 0.000000 0.000000 0.000000 0.036974
#
#
# Mechanical properties :
#
#
# Convention : Reuss Voigt Hill
#
# Bulk Modulus (GPa) = 4.83411 83.15550 43.99480
# Shear Modulus (GPa) = 12.59637 41.26285 26.92961
#
# Velocity S-wave (km/s) = 2.50416 4.53231 3.66146
# Velocity P-wave (km/s) = 3.28141 8.29375 6.30690
#
# Compressibility (1/GPa) = 0.20686319
#
# Stress axis : x y z
#
# Youngs Moduli (GPa) = 4.96182 150.61548 145.86130
#
# Poissons Ratio (x) = 0.55463 -0.53262
# Poissons Ratio (y) = 0.01827 0.59142
# Poissons Ratio (z) = -0.01812 0.61070
#
# Static dielectric constant tensor:
#      x y z
#    x 1.725950 0.000000 0.000000 
#    y 0.000000 1.678510 0.000000 
#    z 0.000000 0.000000 1.680310 
# 
# From -- ./inp_files/66967.got.cif
#   From: 2010.05.17/outbox.cif.g08.bks.cpg/sg63_34_cif.got.tgz:66967.got - 2010.06.03 15:47:04.
