data_PCOD9473304
_publ_section_title
;
Structure prediction by ZEFSAII (Michael W. Deem and Ramdas Pophale) SiO2 
 PCOD9473304
Probable space group: C M C M
;
_chemical_formula_sum "Si O2"
_cell_formula_units_Z 72
_cell_length_a 29.758389
_cell_length_b 14.285394
_cell_length_c 8.848289
_cell_angle_alpha 90.000000
_cell_angle_beta 90.000000
_cell_angle_gamma 90.000000
_cell_volume 3761.498895
_symmetry_space_group_name_H-M "C M C M"
_symmetry_group_IT_number 63
_symmetry_cell_setting 'orthorhombic'
loop_
_space_group_symop_operation_xyz
x,y,z
-x,-y,1/2+z
x,-y,-z
-x,y,1/2-z
-x,-y,-z
x,y,1/2-z
-x,y,z
x,-y,1/2+z
1/2+x,1/2+y,z
1/2-x,1/2-y,1/2+z
1/2+x,1/2-y,-z
1/2-x,1/2+y,1/2-z
1/2-x,1/2-y,-z
1/2+x,1/2+y,1/2-z
1/2-x,1/2+y,z
1/2+x,1/2-y,1/2+z
loop_
_atom_site_type_symbol
_atom_site_label
_atom_site_fract_x
_atom_site_fract_y
_atom_site_fract_z
Si Si1 0.816041 0.211549 0.430096
Si Si2 0.091174 0.207316 0.567689
Si Si3 0.000000 0.898006 0.432156
Si Si4 0.052318 0.402654 0.931380
Si Si5 0.224735 0.397009 0.568968
O O1 0.817176 0.222599 0.250000
O O2 0.863230 0.174067 0.491619
O O3 0.806047 0.312948 0.504577
O O4 0.775117 0.141002 0.466928
O O5 0.095296 0.202232 0.750000
O O6 0.045856 0.153702 0.522390
O O7 0.082126 0.314962 0.523550
O O8 0.000000 0.899899 0.250000
O O9 0.000000 0.000000 0.500000
O O10 0.052705 0.408195 0.750000
O O11 0.000000 0.387533 0.976891
O O12 0.067847 0.500000 0.000000
O O13 0.217049 0.500000 0.500000
O O14 0.219493 0.401430 0.750000
#
# Coordination Sequence:
#
# PCOD9473304 Si02
#       5
#    16  16   8  16  16
#     4  10  22  38  58  87 118 148 189 236 285 343
#     4  10  20  37  58  79 112 154 192 233 284 338
#     4  10  22  40  59  80 110 152 199 244 286 332
#     4   9  17  31  51  75 103 138 180 222 269 324
#     4  10  21  39  62  86 115 150 187 233 287 344
#
# _framework density 19.141307000000001
#
# number of rings (size 3 to 8) (size 9 to 14) (size 15 to 20)
#    0.000    2.222    1.111    1.333    0.000    6.222 
#    0.000    6.667    0.000    0.000    0.000    0.000 
#    0.000    0.000    0.000    0.000    0.000    0.000 
#
# Total GULP energy -200966.961532 kJ/mol
# GULP energy per Si atom -5582.415598 kJ/mol
# Density = 1.909774 g / cm^3
# Si number density = 19.141307 Si / 1000 Ang^3
#
#
#
# Elastic Constant Matrix: (Units=GPa)
#
#
# Indices 1 2 3 4 5 6 
#
# 1 108.8817 19.7102 25.1839 0.0000 0.0000 0.0000
# 2 19.7102 68.0963 19.2125 0.0000 0.0000 0.0000
# 3 25.1839 19.2125 24.5014 0.0000 0.0000 0.0000
# 4 0.0000 0.0000 0.0000 31.4206 0.0000 0.0000
# 5 0.0000 0.0000 0.0000 0.0000 30.3940 0.0000
# 6 0.0000 0.0000 0.0000 0.0000 0.0000 7.5344
#
#
#
# Elastic Compliance Matrix: (Units=1/GPa)
#
#
# Indices 1 2 3 4 5 6 
#
# 1 0.012049 0.000009 -0.012391 0.000000 0.000000 0.000000
# 2 0.000009 0.018857 -0.014795 0.000000 0.000000 0.000000
# 3 -0.012391 -0.014795 0.065152 0.000000 0.000000 0.000000
# 4 0.000000 0.000000 0.000000 0.031826 0.000000 0.000000
# 5 0.000000 0.000000 0.000000 0.000000 0.032901 0.000000
# 6 0.000000 0.000000 0.000000 0.000000 0.000000 0.132724
#
#
# Mechanical properties :
#
#
# Convention : Reuss Voigt Hill
#
# Bulk Modulus (GPa) = 23.97972 36.63251 30.30612
# Shear Modulus (GPa) = 13.82114 23.02798 18.42456
#
# Velocity S-wave (km/s) = 2.69003 3.47227 3.10587
# Velocity P-wave (km/s) = 4.71204 5.93759 5.35996
#
# Compressibility (1/GPa) = 0.04170191
#
# Stress axis : x y z
#
# Youngs Moduli (GPa) = 82.99623 53.03103 15.34882
#
# Poissons Ratio (x) = -0.00045 0.19019
# Poissons Ratio (y) = -0.00071 0.22709
# Poissons Ratio (z) = 1.02841 0.78460
#
# Static dielectric constant tensor:
#      x y z
#    x 1.698580 0.000000 0.000000 
#    y 0.000000 1.639610 0.000000 
#    z 0.000000 0.000000 1.641550 
# 
# From -- ./inp_files/11724.got.cif
#   From: 2010.05.17/outbox.cif.g08.bks.cpg/sg63_6_cif.got.tgz:11724.got - 2010.06.03 15:47:04.
