data_PCOD9473992
_publ_section_title
;
Structure prediction by ZEFSAII (Michael W. Deem and Ramdas Pophale) SiO2 
 PCOD9473992
Probable space group: C M C M
;
_chemical_formula_sum "Si O2"
_cell_formula_units_Z 96
_cell_length_a 12.872677
_cell_length_b 17.479621
_cell_length_c 19.874011
_cell_angle_alpha 90.000000
_cell_angle_beta 90.000000
_cell_angle_gamma 90.000000
_cell_volume 4471.841580
_symmetry_space_group_name_H-M "C M C M"
_symmetry_group_IT_number 63
_symmetry_cell_setting 'orthorhombic'
loop_
_space_group_symop_operation_xyz
x,y,z
-x,-y,1/2+z
x,-y,-z
-x,y,1/2-z
-x,-y,-z
x,y,1/2-z
-x,y,z
x,-y,1/2+z
1/2+x,1/2+y,z
1/2-x,1/2-y,1/2+z
1/2+x,1/2-y,-z
1/2-x,1/2+y,1/2-z
1/2-x,1/2-y,-z
1/2+x,1/2+y,1/2-z
1/2-x,1/2+y,z
1/2+x,1/2-y,1/2+z
loop_
_atom_site_type_symbol
_atom_site_label
_atom_site_fract_x
_atom_site_fract_y
_atom_site_fract_z
Si Si1 0.115565 0.416009 0.436250
Si Si2 0.617394 0.845393 0.917176
Si Si3 0.336115 0.482590 0.423118
Si Si4 0.113885 0.183128 0.868334
Si Si5 0.657879 0.792690 0.175786
Si Si6 0.315207 0.381198 0.670525
O O1 0.137068 0.380823 0.509766
O O2 0.210521 0.471651 0.419952
O O3 0.118260 0.347640 0.382367
O O4 0.000000 0.450336 0.435468
O O5 0.500000 0.865052 0.896687
O O6 0.622053 0.752759 0.921641
O O7 0.700959 0.870126 0.862022
O O8 0.364466 0.500000 0.500000
O O9 0.378798 0.400420 0.400770
O O10 0.365647 0.550829 0.372720
O O11 0.216735 0.195660 0.824582
O O12 0.000000 0.191077 0.835661
O O13 0.619902 0.813487 0.250000
O O14 0.635191 0.703270 0.163083
O O15 0.311808 0.398916 0.750000
#
# Coordination Sequence:
#
# PCOD9473992 Si02
#       6
#    16  16  16  16  16  16
#     4  10  21  36  58  84 114 149 188 236 281 334
#     4   9  18  35  59  85 108 141 191 239 284 328
#     4  11  22  34  55  84 119 156 185 229 283 343
#     4   9  20  36  57  83 109 142 188 238 286 332
#     4   9  20  37  59  82 108 147 192 234 281 334
#     4  10  21  37  55  79 114 151 187 230 280 341
#
# _framework density 21.467666000000001
#
# number of rings (size 3 to 8) (size 9 to 14) (size 15 to 20)
#    0.000    2.333    1.667    0.000    2.333    7.000 
#    0.000    4.167    0.000    1.000    0.000    0.000 
#    0.000    0.000    0.000    0.000    0.000    0.000 
#
# Total GULP energy -267989.882896 kJ/mol
# GULP energy per Si atom -5583.122560 kJ/mol
# Density = 2.141880 g / cm^3
# Si number density = 21.467666 Si / 1000 Ang^3
#
#
#
# Elastic Constant Matrix: (Units=GPa)
#
#
# Indices 1 2 3 4 5 6 
#
# 1 88.1708 7.1610 11.1687 0.0000 0.0000 0.0000
# 2 7.1610 135.6407 59.6027 0.0000 0.0000 0.0000
# 3 11.1687 59.6027 115.7738 0.0000 0.0000 0.0000
# 4 0.0000 0.0000 0.0000 31.0640 0.0000 0.0000
# 5 0.0000 0.0000 0.0000 0.0000 -20.1280 0.0000
# 6 0.0000 0.0000 0.0000 0.0000 0.0000 7.6886
#
#
#
# Elastic Compliance Matrix: (Units=1/GPa)
#
#
# Indices 1 2 3 4 5 6 
#
# 1 0.011484 -0.000154 -0.001028 0.000000 0.000000 0.000000
# 2 -0.000154 0.009530 -0.004891 0.000000 0.000000 0.000000
# 3 -0.001028 -0.004891 0.011255 0.000000 0.000000 0.000000
# 4 0.000000 0.000000 0.000000 0.032192 0.000000 0.000000
# 5 0.000000 0.000000 0.000000 0.000000 -0.049682 0.000000
# 6 0.000000 0.000000 0.000000 0.000000 0.000000 0.130063
#
#
# Mechanical properties :
#
#
# Convention : Reuss Voigt Hill
#
# Bulk Modulus (GPa) = 49.69935 55.05001 52.37468
# Shear Modulus (GPa) = 30.54431 21.16846 25.85638
#
# Velocity S-wave (km/s) = 3.77610 3.14357 3.47426
# Velocity P-wave (km/s) = 6.49715 6.23498 6.36741
#
# Compressibility (1/GPa) = 0.02012099
#
# Stress axis : x y z
#
# Youngs Moduli (GPa) = 87.07440 104.93322 88.85040
#
# Poissons Ratio (x) = 0.01620 0.09138
# Poissons Ratio (y) = 0.01344 0.43459
# Poissons Ratio (z) = 0.08955 0.51326
#
# Static dielectric constant tensor:
#      x y z
#    x 1.827770 0.000000 0.000000 
#    y 0.000000 1.786250 0.000000 
#    z 0.000000 0.000000 1.714050 
# 
# From -- ./inp_files/54161.got.cif
#   From: 2010.05.17/outbox.cif.g08.bks.cpg/sg63_28_cif.got.tgz:54161.got - 2010.06.03 15:47:04.
