data_PCOD9473976
_publ_section_title
;
Structure prediction by ZEFSAII (Michael W. Deem and Ramdas Pophale) SiO2 
 PCOD9473976
Probable space group: C M C M
;
_chemical_formula_sum "Si O2"
_cell_formula_units_Z 112
_cell_length_a 23.357016
_cell_length_b 11.251943
_cell_length_c 20.114260
_cell_angle_alpha 90.000000
_cell_angle_beta 90.000000
_cell_angle_gamma 90.000000
_cell_volume 5286.265131
_symmetry_space_group_name_H-M "C M C M"
_symmetry_group_IT_number 63
_symmetry_cell_setting 'orthorhombic'
loop_
_space_group_symop_operation_xyz
x,y,z
-x,-y,1/2+z
x,-y,-z
-x,y,1/2-z
-x,-y,-z
x,y,1/2-z
-x,y,z
x,-y,1/2+z
1/2+x,1/2+y,z
1/2-x,1/2-y,1/2+z
1/2+x,1/2-y,-z
1/2-x,1/2+y,1/2-z
1/2-x,1/2-y,-z
1/2+x,1/2+y,1/2-z
1/2-x,1/2+y,z
1/2+x,1/2-y,1/2+z
loop_
_atom_site_type_symbol
_atom_site_label
_atom_site_fract_x
_atom_site_fract_y
_atom_site_fract_z
Si Si1 0.403546 0.966472 0.323775
Si Si2 0.177371 0.673754 0.481197
Si Si3 0.784991 0.461212 0.109917
Si Si4 0.839660 0.892123 0.394877
Si Si5 0.062173 0.936004 0.570675
Si Si6 0.437185 0.240834 0.173577
Si Si7 0.062673 0.658206 0.540502
O O1 0.417206 0.917612 0.250000
O O2 0.334995 0.963391 0.335832
O O3 0.428907 0.902789 0.388318
O O4 0.426493 0.100435 0.325838
O O5 0.199653 0.639721 0.554516
O O6 0.209885 0.587556 0.429449
O O7 0.176433 0.812044 0.460367
O O8 0.111291 0.631466 0.486590
O O9 0.721212 0.432499 0.133930
O O10 0.881906 0.801464 0.357918
O O11 0.880495 0.006647 0.400433
O O12 0.067953 0.797489 0.556798
O O13 0.000000 0.955258 0.605477
O O14 0.058086 0.000000 0.500000
O O15 0.439500 0.280731 0.250000
O O16 0.500000 0.266410 0.142473
O O17 0.000000 0.633725 0.513339
#
# Coordination Sequence:
#
# PCOD9473976 Si02
#       7
#    16  16  16  16  16  16  16
#     4  10  21  42  64  89 122 158 204 257 312 371
#     4  10  21  38  55  88 123 164 202 251 304 362
#     4  10  23  37  56  89 124 162 205 245 301 370
#     4  12  22  37  64  84 121 163 204 251 307 368
#     4  10  21  36  56  89 123 158 201 248 305 369
#     4  10  22  41  65  92 120 156 207 261 314 370
#     4  10  21  38  61  90 125 161 207 257 314 380
#
# _framework density 21.186980999999999
#
# number of rings (size 3 to 8) (size 9 to 14) (size 15 to 20)
#    0.000    1.714    2.857    1.286    2.000    4.286 
#    0.000    2.857    0.000    0.857    0.000    0.000 
#    0.000    0.000    0.000    0.000    0.000    0.000 
#
# Total GULP energy -312468.700059 kJ/mol
# GULP energy per Si atom -5579.798215 kJ/mol
# Density = 2.113876 g / cm^3
# Si number density = 21.186981 Si / 1000 Ang^3
#
#
#
# Elastic Constant Matrix: (Units=GPa)
#
#
# Indices 1 2 3 4 5 6 
#
# 1 164.5391 19.2176 4.0054 0.0000 0.0000 0.0000
# 2 19.2176 92.1263 4.9781 0.0000 0.0000 0.0000
# 3 4.0054 4.9781 42.4840 0.0000 0.0000 0.0000
# 4 0.0000 0.0000 0.0000 14.4378 0.0000 0.0000
# 5 0.0000 0.0000 0.0000 0.0000 11.6115 0.0000
# 6 0.0000 0.0000 0.0000 0.0000 0.0000 26.5465
#
#
#
# Elastic Compliance Matrix: (Units=1/GPa)
#
#
# Indices 1 2 3 4 5 6 
#
# 1 0.006237 -0.001277 -0.000438 0.000000 0.000000 0.000000
# 2 -0.001277 0.011185 -0.001190 0.000000 0.000000 0.000000
# 3 -0.000438 -0.001190 0.023719 0.000000 0.000000 0.000000
# 4 0.000000 0.000000 0.000000 0.069263 0.000000 0.000000
# 5 0.000000 0.000000 0.000000 0.000000 0.086122 0.000000
# 6 0.000000 0.000000 0.000000 0.000000 0.000000 0.037670
#
#
# Mechanical properties :
#
#
# Convention : Reuss Voigt Hill
#
# Bulk Modulus (GPa) = 28.30467 39.50574 33.90521
# Shear Modulus (GPa) = 19.85824 28.58237 24.22031
#
# Velocity S-wave (km/s) = 3.06483 3.67693 3.38475
# Velocity P-wave (km/s) = 5.09045 6.05914 5.59580
#
# Compressibility (1/GPa) = 0.03532985
#
# Stress axis : x y z
#
# Youngs Moduli (GPa) = 160.32181 89.40180 42.16018
#
# Poissons Ratio (x) = 0.11421 0.01848
# Poissons Ratio (y) = 0.20480 0.05018
# Poissons Ratio (z) = 0.07028 0.10641
#
# Static dielectric constant tensor:
#      x y z
#    x 1.860610 0.000000 0.000000 
#    y 0.000000 1.671370 0.000000 
#    z 0.000000 0.000000 1.733050 
# 
# From -- ./inp_files/64634.got.cif
#   From: 2010.05.17/outbox.cif.g08.bks.cpg/sg63_33_cif.got.tgz:64634.got - 2010.06.03 15:47:04.
