data_PCOD9473217
_publ_section_title
;
Structure prediction by ZEFSAII (Michael W. Deem and Ramdas Pophale) SiO2 
 PCOD9473217
Probable space group: C M C M
;
_chemical_formula_sum "Si O2"
_cell_formula_units_Z 56
_cell_length_a 12.742372
_cell_length_b 18.798509
_cell_length_c 11.128389
_cell_angle_alpha 90.000000
_cell_angle_beta 90.000000
_cell_angle_gamma 90.000000
_cell_volume 2665.667534
_symmetry_space_group_name_H-M "C M C M"
_symmetry_group_IT_number 63
_symmetry_cell_setting 'orthorhombic'
loop_
_space_group_symop_operation_xyz
x,y,z
-x,-y,1/2+z
x,-y,-z
-x,y,1/2-z
-x,-y,-z
x,y,1/2-z
-x,y,z
x,-y,1/2+z
1/2+x,1/2+y,z
1/2-x,1/2-y,1/2+z
1/2+x,1/2-y,-z
1/2-x,1/2+y,1/2-z
1/2-x,1/2-y,-z
1/2+x,1/2+y,1/2-z
1/2-x,1/2+y,z
1/2+x,1/2-y,1/2+z
loop_
_atom_site_type_symbol
_atom_site_label
_atom_site_fract_x
_atom_site_fract_y
_atom_site_fract_z
Si Si1 0.500000 0.053021 0.611362
Si Si2 0.839154 0.321856 0.382576
Si Si3 0.116733 0.819255 0.022015
Si Si4 0.875221 0.959114 0.882430
O O1 0.500000 0.024555 0.750000
O O2 0.400002 0.105045 0.598500
O O3 0.500000 0.000000 0.500000
O O4 0.867842 0.295930 0.250000
O O5 0.873527 0.261220 0.475359
O O6 0.714634 0.331966 0.392024
O O7 0.000000 0.832009 0.071639
O O8 0.132065 0.875468 0.913421
O O9 0.830423 0.975224 0.750000
O O10 0.000000 0.976134 0.877343
O O11 0.832362 0.000000 0.000000
#
# Coordination Sequence:
#
# PCOD9473217 Si02
#       4
#     8  16  16  16
#     4  10  22  44  70  92 123 170 222 270 319 380
#     4  10  21  38  62  89 120 165 214 262 319 379
#     4  10  20  36  60  90 124 159 206 263 316 382
#     4   9  18  32  52  79 113 154 195 236 292 363
#
# _framework density 21.00787
#
# number of rings (size 3 to 8) (size 9 to 14) (size 15 to 20)
#    0.000    2.286    1.429    0.857    0.000    4.000 
#    0.000   12.857    0.000    0.000    0.000    0.000 
#    0.000    0.000    0.000    0.000    0.000    0.000 
#
# Total GULP energy -156195.765018 kJ/mol
# GULP energy per Si atom -5578.420179 kJ/mol
# Density = 2.096006 g / cm^3
# Si number density = 21.007870 Si / 1000 Ang^3
#
#
#
# Elastic Constant Matrix: (Units=GPa)
#
#
# Indices 1 2 3 4 5 6 
#
# 1 118.3929 19.8445 28.0469 0.0000 0.0000 0.0000
# 2 19.8445 70.8989 54.9528 0.0000 0.0000 0.0000
# 3 28.0469 54.9528 130.5173 0.0000 0.0000 0.0000
# 4 0.0000 0.0000 0.0000 21.9551 0.0000 0.0000
# 5 0.0000 0.0000 0.0000 0.0000 17.5348 0.0000
# 6 0.0000 0.0000 0.0000 0.0000 0.0000 5.2586
#
#
#
# Elastic Compliance Matrix: (Units=1/GPa)
#
#
# Indices 1 2 3 4 5 6 
#
# 1 0.009008 -0.001516 -0.001298 0.000000 0.000000 0.000000
# 2 -0.001516 0.021192 -0.008597 0.000000 0.000000 0.000000
# 3 -0.001298 -0.008597 0.011560 0.000000 0.000000 0.000000
# 4 0.000000 0.000000 0.000000 0.045547 0.000000 0.000000
# 5 0.000000 0.000000 0.000000 0.000000 0.057029 0.000000
# 6 0.000000 0.000000 0.000000 0.000000 0.000000 0.190164
#
#
# Mechanical properties :
#
#
# Convention : Reuss Voigt Hill
#
# Bulk Modulus (GPa) = 52.79811 58.38859 55.59335
# Shear Modulus (GPa) = 13.75003 23.41404 18.58204
#
# Velocity S-wave (km/s) = 2.56113 3.34209 2.97733
# Velocity P-wave (km/s) = 5.82520 6.53810 6.19192
#
# Compressibility (1/GPa) = 0.01894007
#
# Stress axis : x y z
#
# Youngs Moduli (GPa) = 111.01400 47.18697 86.50239
#
# Poissons Ratio (x) = 0.07151 0.11225
# Poissons Ratio (y) = 0.16825 0.74367
# Poissons Ratio (z) = 0.14405 0.40567
#
# Static dielectric constant tensor:
#      x y z
#    x 1.763360 0.000000 0.000000 
#    y 0.000000 1.757390 0.000000 
#    z 0.000000 0.000000 1.821010 
# 
# From -- ./inp_files/18801.got.cif
#   From: 2010.05.17/outbox.cif.g08.bks.cpg/sg63_10_cif.got.tgz:18801.got - 2010.06.03 15:47:04.
