data_PCOD9473185
_publ_section_title
;
Structure prediction by ZEFSAII (Michael W. Deem and Ramdas Pophale) SiO2 
 PCOD9473185
Probable space group: C M C M
;
_chemical_formula_sum "Si O2"
_cell_formula_units_Z 112
_cell_length_a 13.434150
_cell_length_b 24.057465
_cell_length_c 17.406060
_cell_angle_alpha 90.000000
_cell_angle_beta 90.000000
_cell_angle_gamma 90.000000
_cell_volume 5625.492267
_symmetry_space_group_name_H-M "C M C M"
_symmetry_group_IT_number 63
_symmetry_cell_setting 'orthorhombic'
loop_
_space_group_symop_operation_xyz
x,y,z
-x,-y,1/2+z
x,-y,-z
-x,y,1/2-z
-x,-y,-z
x,y,1/2-z
-x,y,z
x,-y,1/2+z
1/2+x,1/2+y,z
1/2-x,1/2-y,1/2+z
1/2+x,1/2-y,-z
1/2-x,1/2+y,1/2-z
1/2-x,1/2-y,-z
1/2+x,1/2+y,1/2-z
1/2-x,1/2+y,z
1/2+x,1/2-y,1/2+z
loop_
_atom_site_type_symbol
_atom_site_label
_atom_site_fract_x
_atom_site_fract_y
_atom_site_fract_z
Si Si1 0.385985 0.181363 0.339669
Si Si2 0.771748 0.779877 0.080862
Si Si3 0.614833 0.609220 0.959607
Si Si4 0.728495 0.406603 0.897153
Si Si5 0.381684 0.144867 0.661906
Si Si6 0.611048 0.064689 0.976411
Si Si7 0.618887 0.512391 0.661927
O O1 0.395308 0.189574 0.250000
O O2 0.500000 0.167331 0.367425
O O3 0.343660 0.237374 0.376227
O O4 0.295457 0.137052 0.350838
O O5 0.827136 0.837568 0.068826
O O6 0.673620 0.801518 0.125654
O O7 0.750000 0.750000 0.000000
O O8 0.500000 0.617296 0.943591
O O9 0.641592 0.554860 0.908235
O O10 0.631739 0.607492 0.051604
O O11 0.692807 0.460145 0.849919
O O12 0.803878 0.414883 0.968118
O O13 0.348476 0.135826 0.750000
O O14 0.500000 0.154960 0.662541
O O15 0.367559 0.089643 0.608365
O O16 0.500000 0.086182 0.993928
O O17 0.607926 0.000000 0.000000
O O18 0.631557 0.533975 0.750000
O O19 0.500000 0.497923 0.655051
#
# Coordination Sequence:
#
# PCOD9473185 Si02
#       7
#    16  16  16  16  16  16  16
#     4  11  25  44  65  93 131 171 216 269 322 383
#     4  12  23  43  66  96 127 174 217 273 327 389
#     4  11  23  40  65  96 128 166 217 268 321 386
#     4  12  21  40  63  93 127 168 212 259 319 383
#     4  10  22  41  65  95 132 170 214 273 335 392
#     4  10  20  36  59  89 125 165 210 257 311 380
#     4  10  23  42  65  96 133 169 208 264 328 390
#
# _framework density 19.909369000000002
#
# number of rings (size 3 to 8) (size 9 to 14) (size 15 to 20)
#    0.000    1.143    2.857    3.429    0.000    4.571 
#    0.000    2.143    0.000    5.143    0.000    0.000 
#    0.000    0.000    0.000    0.000    0.000    0.000 
#
# Total GULP energy -311757.478231 kJ/mol
# GULP energy per Si atom -5567.097826 kJ/mol
# Density = 1.986405 g / cm^3
# Si number density = 19.909369 Si / 1000 Ang^3
#
#
#
# Elastic Constant Matrix: (Units=GPa)
#
#
# Indices 1 2 3 4 5 6 
#
# 1 78.8035 38.5613 32.8289 0.0000 0.0000 0.0000
# 2 38.5613 99.4547 48.8001 0.0000 0.0000 0.0000
# 3 32.8289 48.8001 127.2859 0.0000 0.0000 0.0000
# 4 0.0000 0.0000 0.0000 32.4412 0.0000 0.0000
# 5 0.0000 0.0000 0.0000 0.0000 36.4393 0.0000
# 6 0.0000 0.0000 0.0000 0.0000 0.0000 25.0608
#
#
#
# Elastic Compliance Matrix: (Units=1/GPa)
#
#
# Indices 1 2 3 4 5 6 
#
# 1 0.016134 -0.005190 -0.002171 0.000000 0.000000 0.000000
# 2 -0.005190 0.014054 -0.004050 0.000000 0.000000 0.000000
# 3 -0.002171 -0.004050 0.009969 0.000000 0.000000 0.000000
# 4 0.000000 0.000000 0.000000 0.030825 0.000000 0.000000
# 5 0.000000 0.000000 0.000000 0.000000 0.027443 0.000000
# 6 0.000000 0.000000 0.000000 0.000000 0.000000 0.039903
#
#
# Mechanical properties :
#
#
# Convention : Reuss Voigt Hill
#
# Bulk Modulus (GPa) = 57.68695 60.65831 59.17263
# Shear Modulus (GPa) = 29.95289 31.14519 30.54904
#
# Velocity S-wave (km/s) = 3.88295 3.95948 3.92140
# Velocity P-wave (km/s) = 7.01004 7.17193 7.09145
#
# Compressibility (1/GPa) = 0.01733494
#
# Stress axis : x y z
#
# Youngs Moduli (GPa) = 61.98054 71.15277 100.31159
#
# Poissons Ratio (x) = 0.36930 0.21781
# Poissons Ratio (y) = 0.32169 0.40623
# Poissons Ratio (z) = 0.13458 0.28814
#
# Static dielectric constant tensor:
#      x y z
#    x 1.883270 0.000000 0.000000 
#    y 0.000000 1.702830 0.000000 
#    z 0.000000 0.000000 1.757020 
# 
# From -- ./inp_files/32249.got.cif
#   From: 2010.05.17/outbox.cif.g08.bks.cpg/sg63_17_cif.got.tgz:32249.got - 2010.06.03 15:47:04.
