data_PCOD9473540
_publ_section_title
;
Structure prediction by ZEFSAII (Michael W. Deem and Ramdas Pophale) SiO2 
 PCOD9473540
Probable space group: C M C M
;
_chemical_formula_sum "Si O2"
_cell_formula_units_Z 72
_cell_length_a 18.590827
_cell_length_b 8.711888
_cell_length_c 21.773940
_cell_angle_alpha 90.000000
_cell_angle_beta 90.000000
_cell_angle_gamma 90.000000
_cell_volume 3526.533509
_symmetry_space_group_name_H-M "C M C M"
_symmetry_group_IT_number 63
_symmetry_cell_setting 'orthorhombic'
loop_
_space_group_symop_operation_xyz
x,y,z
-x,-y,1/2+z
x,-y,-z
-x,y,1/2-z
-x,-y,-z
x,y,1/2-z
-x,y,z
x,-y,1/2+z
1/2+x,1/2+y,z
1/2-x,1/2-y,1/2+z
1/2+x,1/2-y,-z
1/2-x,1/2+y,1/2-z
1/2-x,1/2-y,-z
1/2+x,1/2+y,1/2-z
1/2-x,1/2+y,z
1/2+x,1/2-y,1/2+z
loop_
_atom_site_type_symbol
_atom_site_label
_atom_site_fract_x
_atom_site_fract_y
_atom_site_fract_z
Si Si1 0.321512 0.000000 0.500000
Si Si2 0.916599 0.955315 0.428407
Si Si3 0.820566 0.575159 0.820784
Si Si4 0.416780 0.203276 0.907503
Si Si5 0.707283 0.218569 0.106786
O O1 0.371980 0.888264 0.459328
O O2 0.277685 0.889501 0.546767
O O3 0.860928 0.823487 0.410848
O O4 0.000000 0.913608 0.415124
O O5 0.912283 0.000000 0.500000
O O6 0.897572 0.118170 0.397796
O O7 0.806731 0.606115 0.750000
O O8 0.899754 0.620187 0.843669
O O9 0.768916 0.673229 0.866066
O O10 0.809714 0.399344 0.838822
O O11 0.500000 0.199307 0.925362
#
# Coordination Sequence:
#
# PCOD9473540 Si02
#       5
#     8  16  16  16  16
#     4  10  21  36  62  96 129 158 200 258 323 386
#     4  10  20  38  63  93 131 165 195 243 313 386
#     4  11  25  44  63  87 124 174 220 267 311 363
#     4  10  21  38  63  94 127 166 206 256 316 380
#     4  11  23  40  64  93 125 165 210 262 320 383
#
# _framework density 20.416651000000002
#
# number of rings (size 3 to 8) (size 9 to 14) (size 15 to 20)
#    0.000    1.556    2.222    2.333    0.000    7.556 
#   10.000    1.111    0.000    4.667    0.000    0.000 
#    0.000    0.000    0.000    0.000    0.000    0.000 
#
# Total GULP energy -201022.902933 kJ/mol
# GULP energy per Si atom -5583.969526 kJ/mol
# Density = 2.037018 g / cm^3
# Si number density = 20.416651 Si / 1000 Ang^3
#
#
#
# Elastic Constant Matrix: (Units=GPa)
#
#
# Indices 1 2 3 4 5 6 
#
# 1 40.2481 20.3413 49.3321 0.0000 0.0000 0.0000
# 2 20.3413 93.5767 48.5642 0.0000 0.0000 0.0000
# 3 49.3321 48.5642 111.1464 0.0000 0.0000 0.0000
# 4 0.0000 0.0000 0.0000 24.7323 0.0000 0.0000
# 5 0.0000 0.0000 0.0000 0.0000 14.2312 0.0000
# 6 0.0000 0.0000 0.0000 0.0000 0.0000 20.2459
#
#
#
# Elastic Compliance Matrix: (Units=1/GPa)
#
#
# Indices 1 2 3 4 5 6 
#
# 1 0.054550 0.000915 -0.024612 0.000000 0.000000 0.000000
# 2 0.000915 0.013836 -0.006452 0.000000 0.000000 0.000000
# 3 -0.024612 -0.006452 0.022740 0.000000 0.000000 0.000000
# 4 0.000000 0.000000 0.000000 0.040433 0.000000 0.000000
# 5 0.000000 0.000000 0.000000 0.000000 0.070268 0.000000
# 6 0.000000 0.000000 0.000000 0.000000 0.000000 0.049393
#
#
# Mechanical properties :
#
#
# Convention : Reuss Voigt Hill
#
# Bulk Modulus (GPa) = 32.43665 53.49405 42.96535
# Shear Modulus (GPa) = 15.53794 20.29076 17.91435
#
# Velocity S-wave (km/s) = 2.76169 3.15593 2.96537
# Velocity P-wave (km/s) = 5.10795 6.28792 5.72840
#
# Compressibility (1/GPa) = 0.03082933
#
# Stress axis : x y z
#
# Youngs Moduli (GPa) = 18.33174 72.27680 43.97541
#
# Poissons Ratio (x) = -0.06614 1.08232
# Poissons Ratio (y) = -0.01678 0.28371
# Poissons Ratio (z) = 0.45118 0.46629
#
# Static dielectric constant tensor:
#      x y z
#    x 1.772900 0.000000 0.000000 
#    y 0.000000 1.766330 0.000000 
#    z 0.000000 0.000000 1.746210 
# 
# From -- ./inp_files/56320.got.cif
#   From: 2010.05.17/outbox.cif.g08.bks.cpg/sg63_29_cif.got.tgz:56320.got - 2010.06.03 15:47:04.
