data_PCOD9473589
_publ_section_title
;
Structure prediction by ZEFSAII (Michael W. Deem and Ramdas Pophale) SiO2 
 PCOD9473589
Probable space group: C M C M
;
_chemical_formula_sum "Si O2"
_cell_formula_units_Z 64
_cell_length_a 19.093436
_cell_length_b 6.700823
_cell_length_c 18.574256
_cell_angle_alpha 90.000000
_cell_angle_beta 90.000000
_cell_angle_gamma 90.000000
_cell_volume 2376.422541
_symmetry_space_group_name_H-M "C M C M"
_symmetry_group_IT_number 63
_symmetry_cell_setting 'orthorhombic'
loop_
_space_group_symop_operation_xyz
x,y,z
-x,-y,1/2+z
x,-y,-z
-x,y,1/2-z
-x,-y,-z
x,y,1/2-z
-x,y,z
x,-y,1/2+z
1/2+x,1/2+y,z
1/2-x,1/2-y,1/2+z
1/2+x,1/2-y,-z
1/2-x,1/2+y,1/2-z
1/2-x,1/2-y,-z
1/2+x,1/2+y,1/2-z
1/2-x,1/2+y,z
1/2+x,1/2-y,1/2+z
loop_
_atom_site_type_symbol
_atom_site_label
_atom_site_fract_x
_atom_site_fract_y
_atom_site_fract_z
Si Si1 0.691155 0.608833 0.171626
Si Si2 0.653477 0.843868 0.862347
Si Si3 0.346752 0.285607 0.521629
Si Si4 0.500000 0.819096 0.830735
Si Si5 0.500000 0.760842 0.992536
O O1 0.668143 0.681002 0.250000
O O2 0.654535 0.394842 0.157304
O O3 0.775017 0.581504 0.172706
O O4 0.678747 0.748257 0.102231
O O5 0.577021 0.923063 0.838260
O O6 0.660674 0.845957 0.949614
O O7 0.314142 0.500000 0.500000
O O8 0.429726 0.308502 0.529219
O O9 0.500000 0.729255 0.750000
O O10 0.500000 0.704909 0.907774
O O11 0.500000 0.000000 0.000000
#
# Coordination Sequence:
#
# PCOD9473589 Si02
#       5
#    16  16  16   8   8
#     4  11  21  35  56  88 118 148 190 242 288 336
#     4  10  22  39  61  85 116 153 194 237 288 345
#     4   9  20  38  58  80 113 158 195 228 283 354
#     4  10  20  39  62  85 112 154 196 233 282 347
#     4  10  21  37  58  85 117 150 193 241 288 339
#
# _framework density 26.931235999999998
#
# number of rings (size 3 to 8) (size 9 to 14) (size 15 to 20)
#    0.000    2.000    0.000    3.375    0.000    7.000 
#    0.000    6.875    0.000    1.500    0.000    5.250 
#    0.000    0.000    0.000    0.000    0.000    0.000 
#
# Total GULP energy -178854.587396 kJ/mol
# GULP energy per Si atom -5589.205856 kJ/mol
# Density = 2.686994 g / cm^3
# Si number density = 26.931236 Si / 1000 Ang^3
#
#
#
# Elastic Constant Matrix: (Units=GPa)
#
#
# Indices 1 2 3 4 5 6 
#
# 1 186.7986 -1.4882 57.6456 0.0000 0.0000 0.0000
# 2 -1.4882 74.2251 37.7403 0.0000 0.0000 0.0000
# 3 57.6456 37.7403 278.5027 0.0000 0.0000 0.0000
# 4 0.0000 0.0000 0.0000 28.8778 0.0000 0.0000
# 5 0.0000 0.0000 0.0000 0.0000 18.1961 0.0000
# 6 0.0000 0.0000 0.0000 0.0000 0.0000 25.2232
#
#
#
# Elastic Compliance Matrix: (Units=1/GPa)
#
#
# Indices 1 2 3 4 5 6 
#
# 1 0.005760 0.000775 -0.001297 0.000000 0.000000 0.000000
# 2 0.000775 0.014574 -0.002135 0.000000 0.000000 0.000000
# 3 -0.001297 -0.002135 0.004148 0.000000 0.000000 0.000000
# 4 0.000000 0.000000 0.000000 0.034629 0.000000 0.000000
# 5 0.000000 0.000000 0.000000 0.000000 0.054957 0.000000
# 6 0.000000 0.000000 0.000000 0.000000 0.000000 0.039646
#
#
# Mechanical properties :
#
#
# Convention : Reuss Voigt Hill
#
# Bulk Modulus (GPa) = 52.17262 80.81356 66.49309
# Shear Modulus (GPa) = 30.22649 44.16800 37.19725
#
# Velocity S-wave (km/s) = 3.35380 4.05412 3.72047
# Velocity P-wave (km/s) = 5.86616 7.21020 6.57263
#
# Compressibility (1/GPa) = 0.01916714
#
# Stress axis : x y z
#
# Youngs Moduli (GPa) = 173.61546 68.61629 241.05108
#
# Poissons Ratio (x) = -0.05318 0.31270
# Poissons Ratio (y) = -0.13456 0.51473
# Poissons Ratio (z) = 0.22522 0.14652
#
# Static dielectric constant tensor:
#      x y z
#    x 2.051840 0.000000 0.000000 
#    y 0.000000 2.221630 0.000000 
#    z 0.000000 0.000000 2.060240 
# 
# From -- ./inp_files/46588.got.cif
#   From: 2010.05.17/outbox.cif.g08.bks.cpg/sg63_24_cif.got.tgz:46588.got - 2010.06.03 15:47:04.
