data_PCOD9473124
_publ_section_title
;
Structure prediction by ZEFSAII (Michael W. Deem and Ramdas Pophale) SiO2 
 PCOD9473124
Probable space group: C M C M
;
_chemical_formula_sum "Si O2"
_cell_formula_units_Z 64
_cell_length_a 11.039015
_cell_length_b 13.809019
_cell_length_c 22.462456
_cell_angle_alpha 90.000000
_cell_angle_beta 90.000000
_cell_angle_gamma 90.000000
_cell_volume 3424.131146
_symmetry_space_group_name_H-M "C M C M"
_symmetry_group_IT_number 63
_symmetry_cell_setting 'orthorhombic'
loop_
_space_group_symop_operation_xyz
x,y,z
-x,-y,1/2+z
x,-y,-z
-x,y,1/2-z
-x,-y,-z
x,y,1/2-z
-x,y,z
x,-y,1/2+z
1/2+x,1/2+y,z
1/2-x,1/2-y,1/2+z
1/2+x,1/2-y,-z
1/2-x,1/2+y,1/2-z
1/2-x,1/2-y,-z
1/2+x,1/2+y,1/2-z
1/2-x,1/2+y,z
1/2+x,1/2-y,1/2+z
loop_
_atom_site_type_symbol
_atom_site_label
_atom_site_fract_x
_atom_site_fract_y
_atom_site_fract_z
Si Si1 0.140990 0.484551 0.250000
Si Si2 0.735678 0.871924 0.849682
Si Si3 0.853287 0.263408 0.250000
Si Si4 0.643063 0.478958 0.434983
Si Si5 0.642526 0.262757 0.049656
O O1 0.171811 0.551301 0.193647
O O2 0.193284 0.375113 0.250000
O O3 0.000000 0.467408 0.250000
O O4 0.803325 0.794333 0.807641
O O5 0.655072 0.816219 0.898362
O O6 0.821368 0.940030 0.888677
O O7 0.000000 0.259486 0.250000
O O8 0.698814 0.500000 0.500000
O O9 0.500000 0.484725 0.440402
O O10 0.669713 0.367470 0.421008
O O11 0.500000 0.263456 0.027573
O O12 0.750000 0.250000 0.000000
#
# Coordination Sequence:
#
# PCOD9473124 Si02
#       5
#     8  16   8  16  16
#     4  10  22  40  58  82 118 154 192 251 308 349
#     4  11  21  38  62  87 117 158 205 245 298 367
#     4  10  22  38  62  90 118 156 203 253 300 353
#     4  10  20  36  58  85 122 160 194 242 300 355
#     4  11  23  39  60  89 123 163 203 247 302 362
#
# _framework density 18.690874000000001
#
# number of rings (size 3 to 8) (size 9 to 14) (size 15 to 20)
#    0.000    1.500    2.500    3.000    0.000    1.000 
#    0.000    3.750    0.000   12.000    0.000    0.000 
#    0.000    0.000    0.000    0.000    0.000    0.000 
#
# Total GULP energy -178199.910393 kJ/mol
# GULP energy per Si atom -5568.747200 kJ/mol
# Density = 1.864833 g / cm^3
# Si number density = 18.690874 Si / 1000 Ang^3
#
#
#
# Elastic Constant Matrix: (Units=GPa)
#
#
# Indices 1 2 3 4 5 6 
#
# 1 67.8977 42.8040 32.1136 0.0000 0.0000 0.0000
# 2 42.8040 169.6572 63.8323 0.0000 0.0000 0.0000
# 3 32.1136 63.8323 109.8239 0.0000 0.0000 0.0000
# 4 0.0000 0.0000 0.0000 33.4005 0.0000 0.0000
# 5 0.0000 0.0000 0.0000 0.0000 7.7430 0.0000
# 6 0.0000 0.0000 0.0000 0.0000 0.0000 28.4584
#
#
#
# Elastic Compliance Matrix: (Units=1/GPa)
#
#
# Indices 1 2 3 4 5 6 
#
# 1 0.018480 -0.003365 -0.003448 0.000000 0.000000 0.000000
# 2 -0.003365 0.008157 -0.003757 0.000000 0.000000 0.000000
# 3 -0.003448 -0.003757 0.012297 0.000000 0.000000 0.000000
# 4 0.000000 0.000000 0.000000 0.029940 0.000000 0.000000
# 5 0.000000 0.000000 0.000000 0.000000 0.129148 0.000000
# 6 0.000000 0.000000 0.000000 0.000000 0.000000 0.035139
#
#
# Mechanical properties :
#
#
# Convention : Reuss Voigt Hill
#
# Bulk Modulus (GPa) = 56.19766 69.43096 62.81431
# Shear Modulus (GPa) = 19.21356 27.82897 23.52126
#
# Velocity S-wave (km/s) = 3.20967 3.86282 3.55129
# Velocity P-wave (km/s) = 6.62330 7.55796 7.10602
#
# Compressibility (1/GPa) = 0.01779434
#
# Stress axis : x y z
#
# Youngs Moduli (GPa) = 54.11160 122.59730 81.31895
#
# Poissons Ratio (x) = 0.41258 0.28038
# Poissons Ratio (y) = 0.18210 0.30550
# Poissons Ratio (z) = 0.18657 0.46058
#
# Static dielectric constant tensor:
#      x y z
#    x 1.769440 0.000000 0.000000 
#    y 0.000000 1.689800 0.000000 
#    z 0.000000 0.000000 1.659820 
# 
# From -- ./inp_files/41545.got.cif
#   From: 2010.05.17/outbox.cif.g08.bks.cpg/sg63_21_cif.got.tgz:41545.got - 2010.06.03 15:47:04.
