data_PCOD9473754
_publ_section_title
;
Structure prediction by ZEFSAII (Michael W. Deem and Ramdas Pophale) SiO2 
 PCOD9473754
Probable space group: C M C M
;
_chemical_formula_sum "Si O2"
_cell_formula_units_Z 112
_cell_length_a 29.445038
_cell_length_b 14.458512
_cell_length_c 14.965730
_cell_angle_alpha 90.000000
_cell_angle_beta 90.000000
_cell_angle_gamma 90.000000
_cell_volume 6371.381713
_symmetry_space_group_name_H-M "C M C M"
_symmetry_group_IT_number 63
_symmetry_cell_setting 'orthorhombic'
loop_
_space_group_symop_operation_xyz
x,y,z
-x,-y,1/2+z
x,-y,-z
-x,y,1/2-z
-x,-y,-z
x,y,1/2-z
-x,y,z
x,-y,1/2+z
1/2+x,1/2+y,z
1/2-x,1/2-y,1/2+z
1/2+x,1/2-y,-z
1/2-x,1/2+y,1/2-z
1/2-x,1/2-y,-z
1/2+x,1/2+y,1/2-z
1/2-x,1/2+y,z
1/2+x,1/2-y,1/2+z
loop_
_atom_site_type_symbol
_atom_site_label
_atom_site_fract_x
_atom_site_fract_y
_atom_site_fract_z
Si Si1 0.382288 0.306610 0.646051
Si Si2 0.553908 0.388372 0.499293
Si Si3 0.713440 0.232624 0.357086
Si Si4 0.692712 0.823715 0.353424
Si Si5 0.275586 0.017018 0.394467
Si Si6 0.622320 0.332768 0.351187
Si Si7 0.327183 0.513125 0.107662
O O1 0.395173 0.296064 0.750000
O O2 0.423936 0.341490 0.586444
O O3 0.354323 0.217766 0.610401
O O4 0.344766 0.387171 0.635119
O O5 0.563120 0.500000 0.500000
O O6 0.500000 0.376743 0.495298
O O7 0.579615 0.339691 0.416590
O O8 0.713082 0.248303 0.250000
O O9 0.759966 0.281309 0.392549
O O10 0.666038 0.277017 0.389384
O O11 0.713288 0.123200 0.374714
O O12 0.692751 0.793676 0.250000
O O13 0.694356 0.934212 0.356594
O O14 0.224289 0.000161 0.362008
O O15 0.275970 0.000000 0.500000
O O16 0.611831 0.301681 0.250000
O O17 0.641074 0.437010 0.349212
O O18 0.328848 0.500000 0.000000
#
# Coordination Sequence:
#
# PCOD9473754 Si02
#       7
#    16  16  16  16  16  16  16
#     4  11  21  35  57  80 107 152 189 219 270 327
#     4  11  24  40  57  81 113 141 177 236 285 327
#     4  10  21  34  51  76 110 150 188 223 262 317
#     4  10  21  34  51  76 110 150 188 223 262 317
#     4  11  23  31  49  79 113 154 189 226 260 310
#     4  11  21  35  57  80 107 152 189 219 270 327
#     4  11  19  31  49  77 116 151 186 224 260 314
#
# _framework density 17.578605
#
# number of rings (size 3 to 8) (size 9 to 14) (size 15 to 20)
#    0.000    1.286    5.714    0.857    2.000    2.286 
#    0.000    1.429    0.000    0.000    0.000    2.000 
#    0.000    4.571    0.000    0.000    0.000    0.000 
#
# Total GULP energy -312499.731174 kJ/mol
# GULP energy per Si atom -5580.352342 kJ/mol
# Density = 1.753860 g / cm^3
# Si number density = 17.578605 Si / 1000 Ang^3
#
#
#
# Elastic Constant Matrix: (Units=GPa)
#
#
# Indices 1 2 3 4 5 6 
#
# 1 106.0958 22.5886 33.5438 0.0000 0.0000 0.0000
# 2 22.5886 65.4722 -4.2243 0.0000 0.0000 0.0000
# 3 33.5438 -4.2243 74.9049 0.0000 0.0000 0.0000
# 4 0.0000 0.0000 0.0000 16.7691 0.0000 0.0000
# 5 0.0000 0.0000 0.0000 0.0000 11.1037 0.0000
# 6 0.0000 0.0000 0.0000 0.0000 0.0000 14.3652
#
#
#
# Elastic Compliance Matrix: (Units=1/GPa)
#
#
# Indices 1 2 3 4 5 6 
#
# 1 0.012212 -0.004583 -0.005727 0.000000 0.000000 0.000000
# 2 -0.004583 0.017049 0.003014 0.000000 0.000000 0.000000
# 3 -0.005727 0.003014 0.016085 0.000000 0.000000 0.000000
# 4 0.000000 0.000000 0.000000 0.059633 0.000000 0.000000
# 5 0.000000 0.000000 0.000000 0.000000 0.090060 0.000000
# 6 0.000000 0.000000 0.000000 0.000000 0.000000 0.069613
#
#
# Mechanical properties :
#
#
# Convention : Reuss Voigt Hill
#
# Bulk Modulus (GPa) = 32.51644 38.92103 35.71873
# Shear Modulus (GPa) = 17.27142 21.41859 19.34501
#
# Velocity S-wave (km/s) = 3.13793 3.49441 3.32096
# Velocity P-wave (km/s) = 5.62731 6.20245 5.92187
#
# Compressibility (1/GPa) = 0.03075368
#
# Stress axis : x y z
#
# Youngs Moduli (GPa) = 81.88759 58.65380 62.17002
#
# Poissons Ratio (x) = 0.26880 0.35606
# Poissons Ratio (y) = 0.37527 -0.18736
# Poissons Ratio (z) = 0.46898 -0.17677
#
# Static dielectric constant tensor:
#      x y z
#    x 1.590320 0.000000 0.000000 
#    y 0.000000 1.606920 0.000000 
#    z 0.000000 0.000000 1.645140 
# 
# From -- ./inp_files/37959.got.cif
#   From: 2010.05.17/outbox.cif.g08.bks.cpg/sg63_19_cif.got.tgz:37959.got - 2010.06.03 15:47:04.
