data_PCOD9473895
_publ_section_title
;
Structure prediction by ZEFSAII (Michael W. Deem and Ramdas Pophale) SiO2 
 PCOD9473895
Probable space group: C M C M
;
_chemical_formula_sum "Si O2"
_cell_formula_units_Z 112
_cell_length_a 15.173056
_cell_length_b 24.799764
_cell_length_c 15.045605
_cell_angle_alpha 90.000000
_cell_angle_beta 90.000000
_cell_angle_gamma 90.000000
_cell_volume 5661.483743
_symmetry_space_group_name_H-M "C M C M"
_symmetry_group_IT_number 63
_symmetry_cell_setting 'orthorhombic'
loop_
_space_group_symop_operation_xyz
x,y,z
-x,-y,1/2+z
x,-y,-z
-x,y,1/2-z
-x,-y,-z
x,y,1/2-z
-x,y,z
x,-y,1/2+z
1/2+x,1/2+y,z
1/2-x,1/2-y,1/2+z
1/2+x,1/2-y,-z
1/2-x,1/2+y,1/2-z
1/2-x,1/2-y,-z
1/2+x,1/2+y,1/2-z
1/2-x,1/2+y,z
1/2+x,1/2-y,1/2+z
loop_
_atom_site_type_symbol
_atom_site_label
_atom_site_fract_x
_atom_site_fract_y
_atom_site_fract_z
Si Si1 0.401252 0.374660 0.900166
Si Si2 0.596158 0.915970 0.025106
Si Si3 0.840448 0.993386 0.649286
Si Si4 0.368096 0.982873 0.645515
Si Si5 0.098118 0.890635 0.394203
Si Si6 0.101648 0.242308 0.145568
Si Si7 0.284636 0.845557 0.147870
O O1 0.500000 0.375934 0.861955
O O2 0.361064 0.432609 0.879010
O O3 0.362112 0.318151 0.868741
O O4 0.405245 0.370470 0.005506
O O5 0.500000 0.888842 0.028094
O O6 0.672491 0.882280 0.071562
O O7 0.590811 0.967887 0.090264
O O8 0.615838 0.933550 0.923335
O O9 0.871690 0.000148 0.750000
O O10 0.735277 0.996668 0.646467
O O11 0.880678 0.045065 0.600383
O O12 0.394700 0.976571 0.750000
O O13 0.180450 0.858883 0.351918
O O14 0.000000 0.883729 0.354997
O O15 0.090194 0.249158 0.250000
O O16 0.175343 0.287003 0.122973
O O17 0.000000 0.247347 0.107054
O O18 0.314945 0.858528 0.250000
#
# Coordination Sequence:
#
# PCOD9473895 Si02
#       7
#    16  16  16  16  16  16  16
#     4  10  21  36  56  83 115 152 198 251 301 354
#     4  11  22  35  57  86 117 157 201 247 299 357
#     4  11  21  34  55  83 118 159 196 238 292 354
#     4  10  21  36  53  80 120 161 197 241 292 355
#     4  11  23  37  55  83 120 159 198 241 296 365
#     4   9  19  37  60  86 115 147 192 251 308 358
#     4  11  22  38  60  87 120 156 200 255 306 355
#
# _framework density 19.782800000000002
#
# number of rings (size 3 to 8) (size 9 to 14) (size 15 to 20)
#    0.000    1.571    1.429    4.286    2.000    6.857 
#    0.000    0.000    0.000    0.000    0.000    2.000 
#    0.000   16.000    0.000    0.000    0.000    0.000 
#
# Total GULP energy -311808.275987 kJ/mol
# GULP energy per Si atom -5568.004928 kJ/mol
# Density = 1.973777 g / cm^3
# Si number density = 19.782800 Si / 1000 Ang^3
#
#
#
# Elastic Constant Matrix: (Units=GPa)
#
#
# Indices 1 2 3 4 5 6 
#
# 1 101.8966 45.5683 34.5995 0.0000 0.0000 0.0000
# 2 45.5683 110.6587 24.6253 0.0000 0.0000 0.0000
# 3 34.5995 24.6253 85.7466 0.0000 0.0000 0.0000
# 4 0.0000 0.0000 0.0000 28.0395 0.0000 0.0000
# 5 0.0000 0.0000 0.0000 0.0000 1.9534 0.0000
# 6 0.0000 0.0000 0.0000 0.0000 0.0000 3.5171
#
#
#
# Elastic Compliance Matrix: (Units=1/GPa)
#
#
# Indices 1 2 3 4 5 6 
#
# 1 0.013214 -0.004545 -0.004027 0.000000 0.000000 0.000000
# 2 -0.004545 0.011217 -0.001387 0.000000 0.000000 0.000000
# 3 -0.004027 -0.001387 0.013685 0.000000 0.000000 0.000000
# 4 0.000000 0.000000 0.000000 0.035664 0.000000 0.000000
# 5 0.000000 0.000000 0.000000 0.000000 0.511940 0.000000
# 6 0.000000 0.000000 0.000000 0.000000 0.000000 0.284324
#
#
# Mechanical properties :
#
#
# Convention : Reuss Voigt Hill
#
# Bulk Modulus (GPa) = 54.95087 56.43202 55.69144
# Shear Modulus (GPa) = 5.58018 19.60258 12.59138
#
# Velocity S-wave (km/s) = 1.68132 3.15126 2.52559
# Velocity P-wave (km/s) = 5.62197 6.46748 6.05949
#
# Compressibility (1/GPa) = 0.01819807
#
# Stress axis : x y z
#
# Youngs Moduli (GPa) = 75.67874 89.14844 73.07033
#
# Poissons Ratio (x) = 0.40520 0.29422
# Poissons Ratio (y) = 0.34398 0.10138
# Poissons Ratio (z) = 0.30472 0.12368
#
# Static dielectric constant tensor:
#      x y z
#    x 1.757670 0.000000 0.000000 
#    y 0.000000 1.732470 0.000000 
#    z 0.000000 0.000000 1.707010 
# 
# From -- ./inp_files/32354.got.cif
#   From: 2010.05.17/outbox.cif.g08.bks.cpg/sg63_17_cif.got.tgz:32354.got - 2010.06.03 15:47:04.
