data_PCOD9473810
_publ_section_title
;
Structure prediction by ZEFSAII (Michael W. Deem and Ramdas Pophale) SiO2 
 PCOD9473810
Probable space group: C M C M
;
_chemical_formula_sum "Si O2"
_cell_formula_units_Z 80
_cell_length_a 27.227972
_cell_length_b 11.150256
_cell_length_c 13.945120
_cell_angle_alpha 90.000000
_cell_angle_beta 90.000000
_cell_angle_gamma 90.000000
_cell_volume 4233.722509
_symmetry_space_group_name_H-M "C M C M"
_symmetry_group_IT_number 63
_symmetry_cell_setting 'orthorhombic'
loop_
_space_group_symop_operation_xyz
x,y,z
-x,-y,1/2+z
x,-y,-z
-x,y,1/2-z
-x,-y,-z
x,y,1/2-z
-x,y,z
x,-y,1/2+z
1/2+x,1/2+y,z
1/2-x,1/2-y,1/2+z
1/2+x,1/2-y,-z
1/2-x,1/2+y,1/2-z
1/2-x,1/2-y,-z
1/2+x,1/2+y,1/2-z
1/2-x,1/2+y,z
1/2+x,1/2-y,1/2+z
loop_
_atom_site_type_symbol
_atom_site_label
_atom_site_fract_x
_atom_site_fract_y
_atom_site_fract_z
Si Si1 0.301989 0.954573 0.361529
Si Si2 0.843070 0.684487 0.036824
Si Si3 0.311418 0.573772 0.637059
Si Si4 0.055140 0.201409 0.969001
Si Si5 0.086202 0.967251 0.638738
O O1 0.309623 0.925921 0.250000
O O2 0.322548 0.853489 0.433025
O O3 0.243634 0.971127 0.378054
O O4 0.327832 0.077694 0.392209
O O5 0.820566 0.808786 0.073977
O O6 0.901556 0.702727 0.036758
O O7 0.316354 0.606160 0.750000
O O8 0.355287 0.479918 0.618214
O O9 0.000000 0.247420 0.961017
O O10 0.064683 0.097562 0.889676
O O11 0.062721 0.129840 0.068835
O O12 0.078512 0.941652 0.750000
#
# Coordination Sequence:
#
# PCOD9473810 Si02
#       5
#    16  16  16  16  16
#     4  10  21  36  54  78 106 138 175 213 254 306
#     4  10  21  36  54  75 104 139 174 215 258 307
#     4   9  18  33  55  82 110 137 165 202 255 317
#     4  10  21  35  52  76 104 137 176 216 260 305
#     4   9  18  33  54  82 110 132 162 209 262 317
#
# _framework density 18.895900000000001
#
# number of rings (size 3 to 8) (size 9 to 14) (size 15 to 20)
#    0.000    2.400    0.000    2.400    0.000   11.200 
#    0.000    6.000    0.000    1.200    0.000    0.000 
#    0.000    0.000    0.000    0.000    0.000    0.000 
#
# Total GULP energy -223414.308259 kJ/mol
# GULP energy per Si atom -5585.357706 kJ/mol
# Density = 1.885289 g / cm^3
# Si number density = 18.895900 Si / 1000 Ang^3
#
#
#
# Elastic Constant Matrix: (Units=GPa)
#
#
# Indices 1 2 3 4 5 6 
#
# 1 157.9674 23.3877 33.1773 0.0000 0.0000 0.0000
# 2 23.3877 24.3190 18.7622 0.0000 0.0000 0.0000
# 3 33.1773 18.7622 73.0616 0.0000 0.0000 0.0000
# 4 0.0000 0.0000 0.0000 9.9448 0.0000 0.0000
# 5 0.0000 0.0000 0.0000 0.0000 555.8750 0.0000
# 6 0.0000 0.0000 0.0000 0.0000 0.0000 22.6621
#
#
#
# Elastic Compliance Matrix: (Units=1/GPa)
#
#
# Indices 1 2 3 4 5 6 
#
# 1 0.007601 -0.005795 -0.001963 0.000000 0.000000 0.000000
# 2 -0.005795 0.055698 -0.011672 0.000000 0.000000 0.000000
# 3 -0.001963 -0.011672 0.017576 0.000000 0.000000 0.000000
# 4 0.000000 0.000000 0.000000 0.100555 0.000000 0.000000
# 5 0.000000 0.000000 0.000000 0.000000 0.001799 0.000000
# 6 0.000000 0.000000 0.000000 0.000000 0.000000 0.044127
#
#
# Mechanical properties :
#
#
# Convention : Reuss Voigt Hill
#
# Bulk Modulus (GPa) = 23.80125 45.11136 34.45630
# Shear Modulus (GPa) = 17.84313 129.69777 73.77045
#
# Velocity S-wave (km/s) = 3.07626 8.29380 6.25501
# Velocity P-wave (km/s) = 5.02406 10.75367 8.39293
#
# Compressibility (1/GPa) = 0.04201460
#
# Stress axis : x y z
#
# Youngs Moduli (GPa) = 131.56615 17.95396 56.89595
#
# Poissons Ratio (x) = 0.10404 0.11171
# Poissons Ratio (y) = 0.76242 0.66408
# Poissons Ratio (z) = 0.25831 0.20955
#
# Static dielectric constant tensor:
#      x y z
#    x 1.670080 0.000000 0.000000 
#    y 0.000000 1.627600 0.000000 
#    z 0.000000 0.000000 1.666380 
# 
# From -- ./inp_files/36428.got.cif
#   From: 2010.05.17/outbox.cif.g08.bks.cpg/sg63_19_cif.got.tgz:36428.got - 2010.06.03 15:47:04.
