data_PCOD9473229
_publ_section_title
;
Structure prediction by ZEFSAII (Michael W. Deem and Ramdas Pophale) SiO2 
 PCOD9473229
Probable space group: C M C M
;
_chemical_formula_sum "Si O2"
_cell_formula_units_Z 96
_cell_length_a 15.601152
_cell_length_b 17.994977
_cell_length_c 14.264858
_cell_angle_alpha 90.000000
_cell_angle_beta 90.000000
_cell_angle_gamma 90.000000
_cell_volume 4004.750063
_symmetry_space_group_name_H-M "C M C M"
_symmetry_group_IT_number 63
_symmetry_cell_setting 'orthorhombic'
loop_
_space_group_symop_operation_xyz
x,y,z
-x,-y,1/2+z
x,-y,-z
-x,y,1/2-z
-x,-y,-z
x,y,1/2-z
-x,y,z
x,-y,1/2+z
1/2+x,1/2+y,z
1/2-x,1/2-y,1/2+z
1/2+x,1/2-y,-z
1/2-x,1/2+y,1/2-z
1/2-x,1/2-y,-z
1/2+x,1/2+y,1/2-z
1/2-x,1/2+y,z
1/2+x,1/2-y,1/2+z
loop_
_atom_site_type_symbol
_atom_site_label
_atom_site_fract_x
_atom_site_fract_y
_atom_site_fract_z
Si Si1 0.592517 0.166131 0.881927
Si Si2 0.595498 0.844765 0.599246
Si Si3 0.343361 0.003884 0.642035
Si Si4 0.765899 0.772271 0.892445
Si Si5 0.854362 0.043322 0.637812
Si Si6 0.904409 0.888393 0.552473
O O1 0.500000 0.190517 0.845403
O O2 0.601776 0.078144 0.868056
O O3 0.679285 0.205760 0.848086
O O4 0.590266 0.182215 0.992480
O O5 0.500000 0.839182 0.640504
O O6 0.674165 0.799691 0.644675
O O7 0.622766 0.931402 0.589970
O O8 0.344878 0.980192 0.750000
O O9 0.246025 0.026517 0.619591
O O10 0.831969 0.840576 0.896903
O O11 0.750000 0.750000 0.000000
O O12 0.866800 0.058282 0.750000
O O13 0.882758 0.102938 0.558867
O O14 0.901528 0.968479 0.603410
O O15 0.000000 0.857411 0.561326
#
# Coordination Sequence:
#
# PCOD9473229 Si02
#       6
#    16  16  16  16  16  16
#     4  10  21  36  59  89 121 161 205 257 315 375
#     4  10  20  36  61  88 115 154 203 258 315 369
#     4  11  22  37  59  88 123 163 203 257 318 369
#     4  10  20  38  61  87 122 161 206 261 310 383
#     4  10  21  37  59  92 128 162 205 259 316 371
#     4  11  22  37  63  91 123 168 211 255 313 380
#
# _framework density 23.971533000000001
#
# number of rings (size 3 to 8) (size 9 to 14) (size 15 to 20)
#    0.000    1.667    1.667    4.500    2.333    4.667 
#    0.000    1.667    0.000    7.000    0.000    9.333 
#    0.000    0.000    0.000    0.000    0.000    0.000 
#
# Total GULP energy -268177.441409 kJ/mol
# GULP energy per Si atom -5587.030029 kJ/mol
# Density = 2.391697 g / cm^3
# Si number density = 23.971533 Si / 1000 Ang^3
#
#
#
# Elastic Constant Matrix: (Units=GPa)
#
#
# Indices 1 2 3 4 5 6 
#
# 1 223.1396 54.3678 24.4052 0.0000 0.0000 0.0000
# 2 54.3678 77.4764 -6.6262 0.0000 0.0000 0.0000
# 3 24.4052 -6.6262 107.5600 0.0000 0.0000 0.0000
# 4 0.0000 0.0000 0.0000 -182.8770 0.0000 0.0000
# 5 0.0000 0.0000 0.0000 0.0000 -4.1821 0.0000
# 6 0.0000 0.0000 0.0000 0.0000 0.0000 15.4287
#
#
#
# Elastic Compliance Matrix: (Units=1/GPa)
#
#
# Indices 1 2 3 4 5 6 
#
# 1 0.005647 -0.004094 -0.001533 0.000000 0.000000 0.000000
# 2 -0.004094 0.015943 0.001911 0.000000 0.000000 0.000000
# 3 -0.001533 0.001911 0.009763 0.000000 0.000000 0.000000
# 4 0.000000 0.000000 0.000000 -0.005468 0.000000 0.000000
# 5 0.000000 0.000000 0.000000 0.000000 -0.239115 0.000000
# 6 0.000000 0.000000 0.000000 0.000000 0.000000 0.064814
#
#
# Mechanical properties :
#
#
# Convention : Reuss Voigt Hill
#
# Bulk Modulus (GPa) = 41.80485 61.38550 51.59517
# Shear Modulus (GPa) = -37.59084 -11.92412 -24.75748
#
# Velocity S-wave (km/s) = -3.96428 -2.23273 -3.21719
# Velocity P-wave (km/s) = 1.86461 4.36079 2.78745
#
# Compressibility (1/GPa) = 0.02392067
#
# Stress axis : x y z
#
# Youngs Moduli (GPa) = 177.09775 62.72278 102.42978
#
# Poissons Ratio (x) = 0.25676 0.15706
# Poissons Ratio (y) = 0.72496 -0.19574
# Poissons Ratio (z) = 0.27156 -0.11986
#
# Static dielectric constant tensor:
#      x y z
#    x 1.943640 0.000000 0.000000 
#    y 0.000000 1.937140 0.000000 
#    z 0.000000 0.000000 1.970770 
# 
# From -- ./inp_files/31885.got.cif
#   From: 2010.05.17/outbox.cif.g08.bks.cpg/sg63_16_cif.got.tgz:31885.got - 2010.06.03 15:47:04.
