data_PCOD9473769
_publ_section_title
;
Structure prediction by ZEFSAII (Michael W. Deem and Ramdas Pophale) SiO2 
 PCOD9473769
Probable space group: C M C M
;
_chemical_formula_sum "Si O2"
_cell_formula_units_Z 64
_cell_length_a 22.814724
_cell_length_b 9.784176
_cell_length_c 14.135248
_cell_angle_alpha 90.000000
_cell_angle_beta 90.000000
_cell_angle_gamma 90.000000
_cell_volume 3155.316352
_symmetry_space_group_name_H-M "C M C M"
_symmetry_group_IT_number 63
_symmetry_cell_setting 'orthorhombic'
loop_
_space_group_symop_operation_xyz
x,y,z
-x,-y,1/2+z
x,-y,-z
-x,y,1/2-z
-x,-y,-z
x,y,1/2-z
-x,y,z
x,-y,1/2+z
1/2+x,1/2+y,z
1/2-x,1/2-y,1/2+z
1/2+x,1/2-y,-z
1/2-x,1/2+y,1/2-z
1/2-x,1/2-y,-z
1/2+x,1/2+y,1/2-z
1/2-x,1/2+y,z
1/2+x,1/2-y,1/2+z
loop_
_atom_site_type_symbol
_atom_site_label
_atom_site_fract_x
_atom_site_fract_y
_atom_site_fract_z
Si Si1 0.564043 0.617556 0.920375
Si Si2 0.193077 0.476744 0.640693
Si Si3 0.674997 0.463444 0.854993
Si Si4 0.647801 0.208580 0.515727
O O1 0.500000 0.628881 0.874362
O O2 0.620508 0.567185 0.861504
O O3 0.559185 0.500000 0.000000
O O4 0.584392 0.755590 0.972619
O O5 0.179897 0.447381 0.750000
O O6 0.260492 0.527012 0.634809
O O7 0.151907 0.592092 0.595094
O O8 0.186048 0.347022 0.571800
O O9 0.673670 0.398820 0.750000
O O10 0.668557 0.348410 0.935141
#
# Coordination Sequence:
#
# PCOD9473769 Si02
#       4
#    16  16  16  16
#     4   9  20  37  57  81 108 147 195 237 283 337
#     4  10  22  35  54  87 117 150 194 236 291 353
#     4  10  21  34  55  85 117 150 189 239 292 348
#     4  10  21  36  59  79 117 157 186 239 292 340
#
# _framework density 20.283227
#
# number of rings (size 3 to 8) (size 9 to 14) (size 15 to 20)
#    0.000    2.250    0.000    1.500   14.000    1.500 
#    0.000    2.500    0.000    3.750    0.000    0.000 
#    0.000    0.000    0.000    0.000    0.000    0.000 
#
# Total GULP energy -178345.085011 kJ/mol
# GULP energy per Si atom -5573.283907 kJ/mol
# Density = 2.023706 g / cm^3
# Si number density = 20.283227 Si / 1000 Ang^3
#
#
#
# Elastic Constant Matrix: (Units=GPa)
#
#
# Indices 1 2 3 4 5 6 
#
# 1 115.3061 39.1531 30.9996 0.0000 0.0000 0.0000
# 2 39.1531 65.9286 34.4549 0.0000 0.0000 0.0000
# 3 30.9996 34.4549 133.2425 0.0000 0.0000 0.0000
# 4 0.0000 0.0000 0.0000 21.4152 0.0000 0.0000
# 5 0.0000 0.0000 0.0000 0.0000 -61.1880 0.0000
# 6 0.0000 0.0000 0.0000 0.0000 0.0000 6.3671
#
#
#
# Elastic Compliance Matrix: (Units=1/GPa)
#
#
# Indices 1 2 3 4 5 6 
#
# 1 0.010978 -0.005995 -0.001004 0.000000 0.000000 0.000000
# 2 -0.005995 0.020812 -0.003987 0.000000 0.000000 0.000000
# 3 -0.001004 -0.003987 0.008770 0.000000 0.000000 0.000000
# 4 0.000000 0.000000 0.000000 0.046696 0.000000 0.000000
# 5 0.000000 0.000000 0.000000 0.000000 -0.016343 0.000000
# 6 0.000000 0.000000 0.000000 0.000000 0.000000 0.157057
#
#
# Mechanical properties :
#
#
# Convention : Reuss Voigt Hill
#
# Bulk Modulus (GPa) = 53.79816 58.18805 55.99311
# Shear Modulus (GPa) = 19.52081 7.31017 13.41549
#
# Velocity S-wave (km/s) = 3.10564 1.90049 2.57458
# Velocity P-wave (km/s) = 6.28021 5.79361 6.04181
#
# Compressibility (1/GPa) = 0.01858800
#
# Stress axis : x y z
#
# Youngs Moduli (GPa) = 91.09054 48.04983 114.02979
#
# Poissons Ratio (x) = 0.28806 0.11447
# Poissons Ratio (y) = 0.54608 0.45463
# Poissons Ratio (z) = 0.09145 0.19157
#
# Static dielectric constant tensor:
#      x y z
#    x 1.736550 0.000000 0.000000 
#    y 0.000000 1.747540 0.000000 
#    z 0.000000 0.000000 1.760450 
# 
# From -- ./inp_files/33376.got.cif
#   From: 2010.05.17/outbox.cif.g08.bks.cpg/sg63_17_cif.got.tgz:33376.got - 2010.06.03 15:47:04.
