data_PCOD9473481
_publ_section_title
;
Structure prediction by ZEFSAII (Michael W. Deem and Ramdas Pophale) SiO2 
 PCOD9473481
Probable space group: C M C M
;
_chemical_formula_sum "Si O2"
_cell_formula_units_Z 84
_cell_length_a 7.381787
_cell_length_b 25.763978
_cell_length_c 19.856355
_cell_angle_alpha 90.000000
_cell_angle_beta 90.000000
_cell_angle_gamma 90.000000
_cell_volume 3776.364948
_symmetry_space_group_name_H-M "C M C M"
_symmetry_group_IT_number 63
_symmetry_cell_setting 'orthorhombic'
loop_
_space_group_symop_operation_xyz
x,y,z
-x,-y,1/2+z
x,-y,-z
-x,y,1/2-z
-x,-y,-z
x,y,1/2-z
-x,y,z
x,-y,1/2+z
1/2+x,1/2+y,z
1/2-x,1/2-y,1/2+z
1/2+x,1/2-y,-z
1/2-x,1/2+y,1/2-z
1/2-x,1/2-y,-z
1/2+x,1/2+y,1/2-z
1/2-x,1/2+y,z
1/2+x,1/2-y,1/2+z
loop_
_atom_site_type_symbol
_atom_site_label
_atom_site_fract_x
_atom_site_fract_y
_atom_site_fract_z
Si Si1 0.500000 0.735098 0.750000
Si Si2 0.215347 0.581559 0.673421
Si Si3 0.780642 0.760095 0.866964
Si Si4 0.705049 0.627820 0.412074
Si Si5 0.217208 0.660031 0.939907
Si Si6 0.282122 0.485346 0.575488
O O1 0.659836 0.738429 0.807580
O O2 0.287917 0.580858 0.750000
O O3 0.282450 0.627705 0.625148
O O4 0.244285 0.529077 0.630828
O O5 0.000000 0.588907 0.679110
O O6 0.720285 0.819133 0.881277
O O7 0.747489 0.720565 0.928473
O O8 0.000000 0.758905 0.854478
O O9 0.500000 0.624872 0.385794
O O10 0.702168 0.637325 0.492181
O O11 0.788911 0.571167 0.402365
O O12 0.000000 0.652932 0.945115
O O13 0.216588 0.500000 0.500000
O O14 0.500000 0.480864 0.569937
#
# Coordination Sequence:
#
# PCOD9473481 Si02
#       6
#     4  16  16  16  16  16
#     4  12  26  44  68  94 126 178 224 248 320 424
#     4  10  22  39  58  88 124 165 208 258 321 380
#     4  10  24  44  63  95 133 167 210 272 320 376
#     4  10  21  39  64  89 125 164 210 267 323 374
#     4  10  21  37  64  91 125 164 203 264 325 381
#     4  10  20  38  60  88 121 162 210 261 314 370
#
# _framework density 22.243611000000001
#
# number of rings (size 3 to 8) (size 9 to 14) (size 15 to 20)
#    0.000    1.905    1.905    0.857    4.000    1.524 
#    1.714    0.000    0.000    0.000    0.000    0.000 
#    0.000    0.000    0.000    0.000    0.000    0.000 
#
# Total GULP energy -234011.978313 kJ/mol
# GULP energy per Si atom -5571.713769 kJ/mol
# Density = 2.219298 g / cm^3
# Si number density = 22.243611 Si / 1000 Ang^3
#
#
#
# Elastic Constant Matrix: (Units=GPa)
#
#
# Indices 1 2 3 4 5 6 
#
# 1 79.2154 13.9221 5.1938 0.0000 0.0000 0.0000
# 2 13.9221 91.7133 -15.4096 0.0000 0.0000 0.0000
# 3 5.1938 -15.4096 57.4893 0.0000 0.0000 0.0000
# 4 0.0000 0.0000 0.0000 142.9417 0.0000 0.0000
# 5 0.0000 0.0000 0.0000 0.0000 32.6698 0.0000
# 6 0.0000 0.0000 0.0000 0.0000 0.0000 -0.9869
#
#
#
# Elastic Compliance Matrix: (Units=1/GPa)
#
#
# Indices 1 2 3 4 5 6 
#
# 1 0.013146 -0.002299 -0.001804 0.000000 0.000000 0.000000
# 2 -0.002299 0.011820 0.003376 0.000000 0.000000 0.000000
# 3 -0.001804 0.003376 0.018462 0.000000 0.000000 0.000000
# 4 0.000000 0.000000 0.000000 0.006996 0.000000 0.000000
# 5 0.000000 0.000000 0.000000 0.000000 0.030609 0.000000
# 6 0.000000 0.000000 0.000000 0.000000 0.000000 -1.013303
#
#
# Mechanical properties :
#
#
# Convention : Reuss Voigt Hill
#
# Bulk Modulus (GPa) = 23.82375 26.20340 25.01358
# Shear Modulus (GPa) = -5.45361 49.90570 22.22604
#
# Velocity S-wave (km/s) = -1.56751 4.74180 3.16446
# Velocity P-wave (km/s) = 2.73084 6.46416 4.96200
#
# Compressibility (1/GPa) = 0.04197492
#
# Stress axis : x y z
#
# Youngs Moduli (GPa) = 76.06841 84.60464 54.16421
#
# Poissons Ratio (x) = 0.19448 0.09770
# Poissons Ratio (y) = 0.17485 -0.18285
# Poissons Ratio (z) = 0.13721 -0.28561
#
# Static dielectric constant tensor:
#      x y z
#    x 1.835700 0.000000 0.000000 
#    y 0.000000 1.838160 0.000000 
#    z 0.000000 0.000000 1.754020 
# 
# From -- ./inp_files/50918.got.cif
#   From: 2010.05.17/outbox.cif.g08.bks.cpg/sg63_26_cif.got.tgz:50918.got - 2010.06.03 15:47:04.
