data_PCOD9473098
_publ_section_title
;
Structure prediction by ZEFSAII (Michael W. Deem and Ramdas Pophale) SiO2 
 PCOD9473098
Probable space group: C M C M
;
_chemical_formula_sum "Si O2"
_cell_formula_units_Z 96
_cell_length_a 8.552463
_cell_length_b 31.029111
_cell_length_c 19.685840
_cell_angle_alpha 90.000000
_cell_angle_beta 90.000000
_cell_angle_gamma 90.000000
_cell_volume 5224.136163
_symmetry_space_group_name_H-M "C M C M"
_symmetry_group_IT_number 63
_symmetry_cell_setting 'orthorhombic'
loop_
_space_group_symop_operation_xyz
x,y,z
-x,-y,1/2+z
x,-y,-z
-x,y,1/2-z
-x,-y,-z
x,y,1/2-z
-x,y,z
x,-y,1/2+z
1/2+x,1/2+y,z
1/2-x,1/2-y,1/2+z
1/2+x,1/2-y,-z
1/2-x,1/2+y,1/2-z
1/2-x,1/2-y,-z
1/2+x,1/2+y,1/2-z
1/2-x,1/2+y,z
1/2+x,1/2-y,1/2+z
loop_
_atom_site_type_symbol
_atom_site_label
_atom_site_fract_x
_atom_site_fract_y
_atom_site_fract_z
Si Si1 0.188848 0.480562 0.073029
Si Si2 0.312807 0.216361 0.171315
Si Si3 0.189137 0.618161 0.562961
Si Si4 0.311056 0.810910 0.328187
Si Si5 0.687402 0.636508 0.086725
Si Si6 0.811200 0.947327 0.671963
O O1 0.239778 0.430894 0.077625
O O2 0.253199 0.510750 0.132196
O O3 0.000000 0.481741 0.075381
O O4 0.237716 0.500000 0.000000
O O5 0.264113 0.208653 0.250000
O O6 0.500000 0.215176 0.168357
O O7 0.254630 0.264104 0.152574
O O8 0.244074 0.179748 0.123315
O O9 0.240647 0.651811 0.620523
O O10 0.248274 0.632028 0.489141
O O11 0.000000 0.618213 0.561827
O O12 0.264403 0.819701 0.250000
O O13 0.500000 0.808854 0.330071
O O14 0.500000 0.636155 0.084807
O O15 0.741105 0.595130 0.130809
O O16 0.757521 0.946139 0.750000
O O17 0.000000 0.947303 0.672042
#
# Coordination Sequence:
#
# PCOD9473098 Si02
#       6
#    16  16  16  16  16  16
#     4  10  20  36  58  83 113 148 186 230 281 333
#     4  10  21  37  58  83 112 146 184 231 284 334
#     4  10  21  37  58  84 114 147 187 232 279 334
#     4   9  19  37  59  81 108 145 187 231 279 333
#     4  11  22  36  57  83 114 151 189 229 277 334
#     4  10  22  38  56  82 114 148 189 234 278 331
#
# _framework density 18.376242999999999
#
# number of rings (size 3 to 8) (size 9 to 14) (size 15 to 20)
#    0.000    2.000    1.667    1.500    0.000    5.667 
#    0.000    1.667    0.000    2.000    0.000    0.000 
#    0.000    0.000    0.000    0.000    0.000    0.000 
#
# Total GULP energy -268080.558492 kJ/mol
# GULP energy per Si atom -5585.011635 kJ/mol
# Density = 1.833442 g / cm^3
# Si number density = 18.376243 Si / 1000 Ang^3
#
#
#
# Elastic Constant Matrix: (Units=GPa)
#
#
# Indices 1 2 3 4 5 6 
#
# 1 9.1880 29.5722 24.0416 0.0000 0.0000 0.0000
# 2 29.5722 201.0896 124.5840 0.0000 0.0000 0.0000
# 3 24.0416 124.5840 153.1844 0.0000 0.0000 0.0000
# 4 0.0000 0.0000 0.0000 41.6086 0.0000 0.0000
# 5 0.0000 0.0000 0.0000 0.0000 28.5556 0.0000
# 6 0.0000 0.0000 0.0000 0.0000 0.0000 14.0937
#
#
#
# Elastic Compliance Matrix: (Units=1/GPa)
#
#
# Indices 1 2 3 4 5 6 
#
# 1 0.226833 -0.022780 -0.017073 0.000000 0.000000 0.000000
# 2 -0.022780 0.012311 -0.006437 0.000000 0.000000 0.000000
# 3 -0.017073 -0.006437 0.014443 0.000000 0.000000 0.000000
# 4 0.000000 0.000000 0.000000 0.024034 0.000000 0.000000
# 5 0.000000 0.000000 0.000000 0.000000 0.035019 0.000000
# 6 0.000000 0.000000 0.000000 0.000000 0.000000 0.070954
#
#
# Mechanical properties :
#
#
# Convention : Reuss Voigt Hill
#
# Bulk Modulus (GPa) = 6.21097 79.98416 43.09757
# Shear Modulus (GPa) = 9.43673 29.20252 19.31962
#
# Velocity S-wave (km/s) = 2.26858 3.99073 3.24595
# Velocity P-wave (km/s) = 3.20143 8.05326 6.12797
#
# Compressibility (1/GPa) = 0.16100541
#
# Stress axis : x y z
#
# Youngs Moduli (GPa) = 4.40853 81.22683 69.23697
#
# Poissons Ratio (x) = 1.85037 1.18211
# Poissons Ratio (y) = 0.10043 0.44570
# Poissons Ratio (z) = 0.07527 0.52289
#
# Static dielectric constant tensor:
#      x y z
#    x 1.629190 0.000000 0.000000 
#    y 0.000000 1.607640 0.000000 
#    z 0.000000 0.000000 1.608910 
# 
# From -- ./inp_files/51424.got.cif
#   From: 2010.05.17/outbox.cif.g08.bks.cpg/sg63_26_cif.got.tgz:51424.got - 2010.06.03 15:47:04.
