data_PCOD9473586
_publ_section_title
;
Structure prediction by ZEFSAII (Michael W. Deem and Ramdas Pophale) SiO2 
 PCOD9473586
Probable space group: C M C M
;
_chemical_formula_sum "Si O2"
_cell_formula_units_Z 80
_cell_length_a 26.424775
_cell_length_b 9.282124
_cell_length_c 16.718800
_cell_angle_alpha 90.000000
_cell_angle_beta 90.000000
_cell_angle_gamma 90.000000
_cell_volume 4100.754465
_symmetry_space_group_name_H-M "C M C M"
_symmetry_group_IT_number 63
_symmetry_cell_setting 'orthorhombic'
loop_
_space_group_symop_operation_xyz
x,y,z
-x,-y,1/2+z
x,-y,-z
-x,y,1/2-z
-x,-y,-z
x,y,1/2-z
-x,y,z
x,-y,1/2+z
1/2+x,1/2+y,z
1/2-x,1/2-y,1/2+z
1/2+x,1/2-y,-z
1/2-x,1/2+y,1/2-z
1/2-x,1/2-y,-z
1/2+x,1/2+y,1/2-z
1/2-x,1/2+y,z
1/2+x,1/2-y,1/2+z
loop_
_atom_site_type_symbol
_atom_site_label
_atom_site_fract_x
_atom_site_fract_y
_atom_site_fract_z
Si Si1 0.597157 0.160252 0.004016
Si Si2 0.778377 0.691695 0.839612
Si Si3 0.442934 0.426737 0.088070
Si Si4 0.790575 0.405930 0.931012
Si Si5 0.887989 0.819761 0.839368
O O1 0.592542 0.228140 0.915367
O O2 0.571736 0.263442 0.069002
O O3 0.656147 0.144307 0.030868
O O4 0.575869 0.000000 0.000000
O O5 0.757308 0.687924 0.750000
O O6 0.795442 0.530231 0.863685
O O7 0.739298 0.769662 0.898325
O O8 0.828061 0.792212 0.840650
O O9 0.500000 0.439968 0.119272
O O10 0.404542 0.516898 0.142348
O O11 0.441439 0.500000 0.000000
O O12 0.763199 0.500000 0.000000
O O13 0.905810 0.778041 0.750000
#
# Coordination Sequence:
#
# PCOD9473586 Si02
#       5
#    16  16  16  16  16
#     4  10  20  39  61  88 120 159 201 250 306 361
#     4  11  23  38  56  84 118 158 205 249 304 358
#     4   9  20  38  63  89 115 153 201 246 296 363
#     4  11  22  37  57  83 117 161 200 248 295 361
#     4  10  21  38  59  85 121 158 200 251 306 363
#
# _framework density 19.508604999999999
#
# number of rings (size 3 to 8) (size 9 to 14) (size 15 to 20)
#    0.000    1.800    4.000    1.200    2.800    1.600 
#    0.000    2.000    0.000    0.000    0.000    0.000 
#    0.000    0.000    0.000    0.000    0.000    0.000 
#
# Total GULP energy -222927.280086 kJ/mol
# GULP energy per Si atom -5573.182002 kJ/mol
# Density = 1.946420 g / cm^3
# Si number density = 19.508605 Si / 1000 Ang^3
#
#
#
# Elastic Constant Matrix: (Units=GPa)
#
#
# Indices 1 2 3 4 5 6 
#
# 1 25.3330 26.5061 9.2812 0.0000 0.0000 0.0000
# 2 26.5061 117.6125 25.7384 0.0000 0.0000 0.0000
# 3 9.2812 25.7384 85.1757 0.0000 0.0000 0.0000
# 4 0.0000 0.0000 0.0000 22.5609 0.0000 0.0000
# 5 0.0000 0.0000 0.0000 0.0000 -5.6961 0.0000
# 6 0.0000 0.0000 0.0000 0.0000 0.0000 16.6352
#
#
#
# Elastic Compliance Matrix: (Units=1/GPa)
#
#
# Indices 1 2 3 4 5 6 
#
# 1 0.052064 -0.011235 -0.002278 0.000000 0.000000 0.000000
# 2 -0.011235 0.011529 -0.002260 0.000000 0.000000 0.000000
# 3 -0.002278 -0.002260 0.012671 0.000000 0.000000 0.000000
# 4 0.000000 0.000000 0.000000 0.044325 0.000000 0.000000
# 5 0.000000 0.000000 0.000000 0.000000 -0.175559 0.000000
# 6 0.000000 0.000000 0.000000 0.000000 0.000000 0.060114
#
#
# Mechanical properties :
#
#
# Convention : Reuss Voigt Hill
#
# Bulk Modulus (GPa) = 22.36186 39.01917 30.69052
# Shear Modulus (GPa) = 96.90707 17.80636 57.35672
#
# Velocity S-wave (km/s) = 7.05563 3.02444 5.42813
# Velocity P-wave (km/s) = 8.82402 5.67810 7.41970
#
# Compressibility (1/GPa) = 0.04471899
#
# Stress axis : x y z
#
# Youngs Moduli (GPa) = 19.20708 86.73778 78.91738
#
# Poissons Ratio (x) = 0.97450 0.17979
# Poissons Ratio (y) = 0.21579 0.17832
# Poissons Ratio (z) = 0.04376 0.19599
#
# Static dielectric constant tensor:
#      x y z
#    x 1.677170 0.000000 0.000000 
#    y 0.000000 1.705840 0.000000 
#    z 0.000000 0.000000 1.725210 
# 
# From -- ./inp_files/48730.got.cif
#   From: 2010.05.17/outbox.cif.g08.bks.cpg/sg63_25_cif.got.tgz:48730.got - 2010.06.03 15:47:04.
