data_PCOD9473092
_publ_section_title
;
Structure prediction by ZEFSAII (Michael W. Deem and Ramdas Pophale) SiO2 
 PCOD9473092
Probable space group: C M C M
;
_chemical_formula_sum "Si O2"
_cell_formula_units_Z 72
_cell_length_a 13.007259
_cell_length_b 23.958760
_cell_length_c 13.438766
_cell_angle_alpha 90.000000
_cell_angle_beta 90.000000
_cell_angle_gamma 90.000000
_cell_volume 4188.027426
_symmetry_space_group_name_H-M "C M C M"
_symmetry_group_IT_number 63
_symmetry_cell_setting 'orthorhombic'
loop_
_space_group_symop_operation_xyz
x,y,z
-x,-y,1/2+z
x,-y,-z
-x,y,1/2-z
-x,-y,-z
x,y,1/2-z
-x,y,z
x,-y,1/2+z
1/2+x,1/2+y,z
1/2-x,1/2-y,1/2+z
1/2+x,1/2-y,-z
1/2-x,1/2+y,1/2-z
1/2-x,1/2-y,-z
1/2+x,1/2+y,1/2-z
1/2-x,1/2+y,z
1/2+x,1/2-y,1/2+z
loop_
_atom_site_type_symbol
_atom_site_label
_atom_site_fract_x
_atom_site_fract_y
_atom_site_fract_z
Si Si1 0.237825 0.299582 0.635926
Si Si2 0.381030 0.073466 0.632272
Si Si3 0.880378 0.908082 0.633136
Si Si4 0.728834 0.500000 0.000000
Si Si5 0.619180 0.799346 0.064050
O O1 0.201293 0.301248 0.750000
O O2 0.310198 0.353439 0.617994
O O3 0.307549 0.244970 0.617889
O O4 0.150028 0.299450 0.552332
O O5 0.368255 0.065343 0.750000
O O6 0.500000 0.060096 0.606453
O O7 0.364976 0.138524 0.606127
O O8 0.302273 0.035916 0.571673
O O9 0.871926 0.923329 0.750000
O O10 0.000000 0.895682 0.612364
O O11 0.839543 0.957772 0.564666
O O12 0.500000 0.784322 0.078108
#
# Coordination Sequence:
#
# PCOD9473092 Si02
#       5
#    16  16  16   8  16
#     4  10  20  36  58  83 109 140 176 221 271 320
#     4  10  21  36  55  80 110 143 180 222 268 321
#     4  10  21  36  55  80 108 141 182 224 266 315
#     4  12  20  36  54  80 108 148 184 222 264 312
#     4  10  20  36  58  83 109 140 177 220 270 322
#
# _framework density 17.191865
#
# number of rings (size 3 to 8) (size 9 to 14) (size 15 to 20)
#    0.000    1.778    2.222    2.667    0.000    2.667 
#    0.000    0.000    0.000    0.000    0.000    0.000 
#    0.000    0.000    0.000    0.000    0.000    0.000 
#
# Total GULP energy -201002.223103 kJ/mol
# GULP energy per Si atom -5583.395086 kJ/mol
# Density = 1.715274 g / cm^3
# Si number density = 17.191865 Si / 1000 Ang^3
#
#
#
# Elastic Constant Matrix: (Units=GPa)
#
#
# Indices 1 2 3 4 5 6 
#
# 1 17.6947 -6.3862 -6.7502 0.0000 0.0000 0.0000
# 2 -6.3862 38.0219 2.7749 0.0000 0.0000 0.0000
# 3 -6.7502 2.7749 43.0329 0.0000 0.0000 0.0000
# 4 0.0000 0.0000 0.0000 25.0652 0.0000 0.0000
# 5 0.0000 0.0000 0.0000 0.0000 23.1784 0.0000
# 6 0.0000 0.0000 0.0000 0.0000 0.0000 20.8121
#
#
#
# Elastic Compliance Matrix: (Units=1/GPa)
#
#
# Indices 1 2 3 4 5 6 
#
# 1 0.063694 0.010016 0.009345 0.000000 0.000000 0.000000
# 2 0.010016 0.028000 -0.000234 0.000000 0.000000 0.000000
# 3 0.009345 -0.000234 0.024719 0.000000 0.000000 0.000000
# 4 0.000000 0.000000 0.000000 0.039896 0.000000 0.000000
# 5 0.000000 0.000000 0.000000 0.000000 0.043144 0.000000
# 6 0.000000 0.000000 0.000000 0.000000 0.000000 0.048049
#
#
# Mechanical properties :
#
#
# Convention : Reuss Voigt Hill
#
# Bulk Modulus (GPa) = 6.46549 8.66961 7.56755
# Shear Modulus (GPa) = 19.17151 21.08521 20.12836
#
# Velocity S-wave (km/s) = 3.34301 3.50589 3.42542
# Velocity P-wave (km/s) = 4.32087 4.63057 4.47840
#
# Compressibility (1/GPa) = 0.15466729
#
# Stress axis : x y z
#
# Youngs Moduli (GPa) = 15.70002 35.71424 40.45458
#
# Poissons Ratio (x) = -0.35772 -0.37806
# Poissons Ratio (y) = -0.15725 0.00948
# Poissons Ratio (z) = -0.14672 0.00837
#
# Static dielectric constant tensor:
#      x y z
#    x 1.550930 0.000000 0.000000 
#    y 0.000000 1.555190 0.000000 
#    z 0.000000 0.000000 1.570700 
# 
# From -- ./inp_files/17611.got.cif
#   From: 2010.05.17/outbox.cif.g08.bks.cpg/sg63_9_cif.got.tgz:17611.got - 2010.06.03 15:47:04.
