data_PCOD9473014
_publ_section_title
;
Structure prediction by ZEFSAII (Michael W. Deem and Ramdas Pophale) SiO2 
 PCOD9473014
Probable space group: C M C M
;
_chemical_formula_sum "Si O2"
_cell_formula_units_Z 88
_cell_length_a 11.363425
_cell_length_b 27.061519
_cell_length_c 15.226163
_cell_angle_alpha 90.000000
_cell_angle_beta 90.000000
_cell_angle_gamma 90.000000
_cell_volume 4682.220856
_symmetry_space_group_name_H-M "C M C M"
_symmetry_group_IT_number 63
_symmetry_cell_setting 'orthorhombic'
loop_
_space_group_symop_operation_xyz
x,y,z
-x,-y,1/2+z
x,-y,-z
-x,y,1/2-z
-x,-y,-z
x,y,1/2-z
-x,y,z
x,-y,1/2+z
1/2+x,1/2+y,z
1/2-x,1/2-y,1/2+z
1/2+x,1/2-y,-z
1/2-x,1/2+y,1/2-z
1/2-x,1/2-y,-z
1/2+x,1/2+y,1/2-z
1/2-x,1/2+y,z
1/2+x,1/2-y,1/2+z
loop_
_atom_site_type_symbol
_atom_site_label
_atom_site_fract_x
_atom_site_fract_y
_atom_site_fract_z
Si Si1 0.862402 0.328853 0.845619
Si Si2 0.000000 0.164964 0.855102
Si Si3 0.315356 0.500000 0.000000
Si Si4 0.273628 0.271756 0.404208
Si Si5 0.360513 0.862376 0.344642
Si Si6 0.000000 0.045615 0.859357
Si Si7 0.358452 0.084624 0.019900
O O1 0.848847 0.352391 0.750000
O O2 0.794414 0.277596 0.849081
O O3 0.832342 0.367869 0.920139
O O4 0.000000 0.315901 0.857950
O O5 0.886504 0.192252 0.895992
O O6 0.000000 0.105689 0.867990
O O7 0.000000 0.174445 0.750000
O O8 0.392572 0.476961 0.080639
O O9 0.226895 0.540099 0.042213
O O10 0.250000 0.250000 0.500000
O O11 0.169617 0.306697 0.371756
O O12 0.304647 0.873122 0.250000
O O13 0.500000 0.866788 0.338621
O O14 0.326365 0.899382 0.421132
O O15 0.000000 0.035692 0.750000
O O16 0.500000 0.074338 0.026375
#
# Coordination Sequence:
#
# PCOD9473014 Si02
#       7
#    16   8   8  16  16   8  16
#     4  10  20  36  56  84 120 157 196 241 296 362
#     4  11  23  41  65  92 121 162 211 254 295 355
#     4  11  23  42  66  92 117 159 204 256 310 357
#     4  12  22  33  58  88 120 158 200 246 295 351
#     4  10  21  37  56  84 123 161 197 244 302 360
#     4  10  25  45  66  89 119 160 212 260 298 350
#     4  10  21  38  61  91 121 152 194 251 309 366
#
# _framework density 18.794499999999999
#
# number of rings (size 3 to 8) (size 9 to 14) (size 15 to 20)
#    0.000    1.455    2.727    3.000    1.273    2.909 
#    0.000    0.000    0.000    5.455    0.000    0.000 
#    0.000    0.000    0.000    0.000    0.000    0.000 
#
# Total GULP energy -245261.064811 kJ/mol
# GULP energy per Si atom -5574.115109 kJ/mol
# Density = 1.875172 g / cm^3
# Si number density = 18.794500 Si / 1000 Ang^3
#
#
#
# Elastic Constant Matrix: (Units=GPa)
#
#
# Indices 1 2 3 4 5 6 
#
# 1 50.7325 49.9520 33.6102 0.0000 0.0000 0.0000
# 2 49.9520 99.1036 40.0408 0.0000 0.0000 0.0000
# 3 33.6102 40.0408 118.3449 0.0000 0.0000 0.0000
# 4 0.0000 0.0000 0.0000 14.1884 0.0000 0.0000
# 5 0.0000 0.0000 0.0000 0.0000 65.3077 0.0000
# 6 0.0000 0.0000 0.0000 0.0000 0.0000 31.6752
#
#
#
# Elastic Compliance Matrix: (Units=1/GPa)
#
#
# Indices 1 2 3 4 5 6 
#
# 1 0.042035 -0.018955 -0.005525 0.000000 0.000000 0.000000
# 2 -0.018955 0.020236 -0.001463 0.000000 0.000000 0.000000
# 3 -0.005525 -0.001463 0.010514 0.000000 0.000000 0.000000
# 4 0.000000 0.000000 0.000000 0.070480 0.000000 0.000000
# 5 0.000000 0.000000 0.000000 0.000000 0.015312 0.000000
# 6 0.000000 0.000000 0.000000 0.000000 0.000000 0.031570
#
#
# Mechanical properties :
#
#
# Convention : Reuss Voigt Hill
#
# Bulk Modulus (GPa) = 47.85048 57.26522 52.55785
# Shear Modulus (GPa) = 20.08040 31.87278 25.97659
#
# Velocity S-wave (km/s) = 3.27221 4.12255 3.72174
# Velocity P-wave (km/s) = 6.30806 7.29354 6.81863
#
# Compressibility (1/GPa) = 0.02089843
#
# Stress axis : x y z
#
# Youngs Moduli (GPa) = 23.78995 49.41775 95.11120
#
# Poissons Ratio (x) = 0.93671 0.52546
# Poissons Ratio (y) = 0.45094 0.13918
# Poissons Ratio (z) = 0.13143 0.07231
#
# Static dielectric constant tensor:
#      x y z
#    x 1.697980 0.000000 0.000000 
#    y 0.000000 1.634110 0.000000 
#    z 0.000000 0.000000 1.713070 
# 
# From -- ./inp_files/30184.got.cif
#   From: 2010.05.17/outbox.cif.g08.bks.cpg/sg63_16_cif.got.tgz:30184.got - 2010.06.03 15:47:04.
