data_PCOD9473594
_publ_section_title
;
Structure prediction by ZEFSAII (Michael W. Deem and Ramdas Pophale) SiO2 
 PCOD9473594
Probable space group: C M C M
;
_chemical_formula_sum "Si O2"
_cell_formula_units_Z 72
_cell_length_a 14.535731
_cell_length_b 15.988658
_cell_length_c 15.793251
_cell_angle_alpha 90.000000
_cell_angle_beta 90.000000
_cell_angle_gamma 90.000000
_cell_volume 3670.459428
_symmetry_space_group_name_H-M "C M C M"
_symmetry_group_IT_number 63
_symmetry_cell_setting 'orthorhombic'
loop_
_space_group_symop_operation_xyz
x,y,z
-x,-y,1/2+z
x,-y,-z
-x,y,1/2-z
-x,-y,-z
x,y,1/2-z
-x,y,z
x,-y,1/2+z
1/2+x,1/2+y,z
1/2-x,1/2-y,1/2+z
1/2+x,1/2-y,-z
1/2-x,1/2+y,1/2-z
1/2-x,1/2-y,-z
1/2+x,1/2+y,1/2-z
1/2-x,1/2+y,z
1/2+x,1/2-y,1/2+z
loop_
_atom_site_type_symbol
_atom_site_label
_atom_site_fract_x
_atom_site_fract_y
_atom_site_fract_z
Si Si1 0.000000 0.448681 0.750000
Si Si2 0.000000 0.091060 0.348417
Si Si3 0.303083 0.347163 0.250000
Si Si4 0.000000 0.929923 0.250000
Si Si5 0.307953 0.854555 0.750000
Si Si6 0.000000 0.440126 0.418876
Si Si7 0.695843 0.149180 0.581696
Si Si8 0.806264 0.148332 0.085078
O O1 0.090717 0.391725 0.750000
O O2 0.000000 0.505914 0.833282
O O3 0.090803 0.117705 0.397990
O O4 0.000000 0.126754 0.250000
O O5 0.000000 0.992302 0.330241
O O6 0.406860 0.378662 0.250000
O O7 0.307820 0.246332 0.250000
O O8 0.247959 0.376322 0.332696
O O9 0.253488 0.880437 0.665724
O O10 0.000000 0.500000 0.500000
O O11 0.907065 0.385758 0.421342
O O12 0.755783 0.121333 0.500827
O O13 0.691550 0.250371 0.582542
#
# Coordination Sequence:
#
# PCOD9473594 Si02
#       8
#     4   8   8   4   8   8  16  16
#     4  12  25  38  61  88 122 166 204 248 309 370
#     4  10  21  37  64  90 119 151 195 249 296 355
#     4  10  22  41  61  85 120 163 203 254 301 356
#     4  10  23  38  57  88 122 150 200 246 299 370
#     4  10  20  39  63  85 114 159 207 250 303 356
#     4  12  25  40  57  91 127 162 200 251 311 370
#     4  10  23  39  62  88 122 159 204 250 300 356
#     4  10  20  40  64  91 116 155 205 254 296 354
#
# _framework density 19.616074000000001
#
# number of rings (size 3 to 8) (size 9 to 14) (size 15 to 20)
#    0.333    1.333    1.111    3.000    0.000    6.222 
#    2.000    7.778    0.000    0.000    0.000    0.000 
#    0.000    0.000    0.000    0.000    0.000    0.000 
#
# Total GULP energy -201202.762927 kJ/mol
# GULP energy per Si atom -5588.965637 kJ/mol
# Density = 1.957143 g / cm^3
# Si number density = 19.616074 Si / 1000 Ang^3
#
#
#
# Elastic Constant Matrix: (Units=GPa)
#
#
# Indices 1 2 3 4 5 6 
#
# 1 238.2202 39.6518 110.6230 0.0000 0.0000 0.0000
# 2 39.6518 19.3538 36.3762 0.0000 0.0000 0.0000
# 3 110.6230 36.3762 194.0472 0.0000 0.0000 0.0000
# 4 0.0000 0.0000 0.0000 1.9864 0.0000 0.0000
# 5 0.0000 0.0000 0.0000 0.0000 40.1913 0.0000
# 6 0.0000 0.0000 0.0000 0.0000 0.0000 116.2529
#
#
#
# Elastic Compliance Matrix: (Units=1/GPa)
#
#
# Indices 1 2 3 4 5 6 
#
# 1 0.006821 -0.010292 -0.001959 0.000000 0.000000 0.000000
# 2 -0.010292 0.095309 -0.011999 0.000000 0.000000 0.000000
# 3 -0.001959 -0.011999 0.008520 0.000000 0.000000 0.000000
# 4 0.000000 0.000000 0.000000 0.503423 0.000000 0.000000
# 5 0.000000 0.000000 0.000000 0.000000 0.024881 0.000000
# 6 0.000000 0.000000 0.000000 0.000000 0.000000 0.008602
#
#
# Mechanical properties :
#
#
# Convention : Reuss Voigt Hill
#
# Bulk Modulus (GPa) = 16.09054 91.65813 53.87433
# Shear Modulus (GPa) = 6.97572 49.35080 28.16326
#
# Velocity S-wave (km/s) = 1.88781 5.02125 3.79320
# Velocity P-wave (km/s) = 3.60171 8.96910 6.83436
#
# Compressibility (1/GPa) = 0.06214834
#
# Stress axis : x y z
#
# Youngs Moduli (GPa) = 146.61512 10.49221 117.37688
#
# Poissons Ratio (x) = 0.10799 0.22994
# Poissons Ratio (y) = 1.50896 1.40845
# Poissons Ratio (z) = 0.28721 0.12590
#
# Static dielectric constant tensor:
#      x y z
#    x 1.629290 0.000000 0.000000 
#    y 0.000000 1.681080 0.000000 
#    z 0.000000 0.000000 1.680390 
# 
# From -- ./inp_files/41980.got.cif
#   From: 2010.05.17/outbox.cif.g08.bks.cpg/sg63_21_cif.got.tgz:41980.got - 2010.06.03 15:47:04.
