data_PCOD9473797
_publ_section_title
;
Structure prediction by ZEFSAII (Michael W. Deem and Ramdas Pophale) SiO2 
 PCOD9473797
Probable space group: C M C M
;
_chemical_formula_sum "Si O2"
_cell_formula_units_Z 96
_cell_length_a 20.808318
_cell_length_b 27.751456
_cell_length_c 7.583606
_cell_angle_alpha 90.000000
_cell_angle_beta 90.000000
_cell_angle_gamma 90.000000
_cell_volume 4379.237625
_symmetry_space_group_name_H-M "C M C M"
_symmetry_group_IT_number 63
_symmetry_cell_setting 'orthorhombic'
loop_
_space_group_symop_operation_xyz
x,y,z
-x,-y,1/2+z
x,-y,-z
-x,y,1/2-z
-x,-y,-z
x,y,1/2-z
-x,y,z
x,-y,1/2+z
1/2+x,1/2+y,z
1/2-x,1/2-y,1/2+z
1/2+x,1/2-y,-z
1/2-x,1/2+y,1/2-z
1/2-x,1/2-y,-z
1/2+x,1/2+y,1/2-z
1/2-x,1/2+y,z
1/2+x,1/2-y,1/2+z
loop_
_atom_site_type_symbol
_atom_site_label
_atom_site_fract_x
_atom_site_fract_y
_atom_site_fract_z
Si Si1 0.186394 0.125851 0.455279
Si Si2 0.321895 0.733022 0.461610
Si Si3 0.426995 0.444719 0.039984
Si Si4 0.208120 0.552967 0.037831
Si Si5 0.427698 0.191424 0.536636
Si Si6 0.570632 0.079245 0.456335
O O1 0.202645 0.134000 0.250000
O O2 0.172467 0.178505 0.531613
O O3 0.124189 0.092162 0.464430
O O4 0.245863 0.095261 0.531868
O O5 0.331540 0.731895 0.250000
O O6 0.250000 0.750000 0.500000
O O7 0.373861 0.771603 0.528585
O O8 0.426983 0.438717 0.250000
O O9 0.500000 0.437109 0.974543
O O10 0.409509 0.500000 0.000000
O O11 0.205265 0.558037 0.250000
O O12 0.135368 0.556581 0.966614
O O13 0.235014 0.500000 0.000000
O O14 0.424092 0.188333 0.750000
O O15 0.500000 0.207702 0.490569
O O16 0.420149 0.137017 0.468456
O O17 0.568118 0.066061 0.250000
O O18 0.500000 0.067736 0.533409
#
# Coordination Sequence:
#
# PCOD9473797 Si02
#       6
#    16  16  16  16  16  16
#     4  10  21  36  54  77 106 141 179 218 261 312
#     4  10  21  36  55  79 107 140 177 218 263 310
#     4  10  21  37  57  81 108 138 174 217 265 318
#     4  10  21  35  51  74 103 134 172 215 257 304
#     4   9  18  33  53  78 106 135 170 211 254 302
#     4   9  18  34  55  77 103 136 171 208 253 305
#
# _framework density 21.921623
#
# number of rings (size 3 to 8) (size 9 to 14) (size 15 to 20)
#    0.000    2.333    0.000    2.000    0.000    7.333 
#    0.000    1.667    0.000    2.000    0.000    0.000 
#    0.000    0.000    0.000    0.000    0.000    0.000 
#
# Total GULP energy -268100.329429 kJ/mol
# GULP energy per Si atom -5585.423530 kJ/mol
# Density = 2.187173 g / cm^3
# Si number density = 21.921623 Si / 1000 Ang^3
#
#
#
# Elastic Constant Matrix: (Units=GPa)
#
#
# Indices 1 2 3 4 5 6 
#
# 1 86.7666 25.2034 -11.9256 0.0000 0.0000 0.0000
# 2 25.2034 61.9745 -16.0794 0.0000 0.0000 0.0000
# 3 -11.9256 -16.0794 51.6399 0.0000 0.0000 0.0000
# 4 0.0000 0.0000 0.0000 19.5178 0.0000 0.0000
# 5 0.0000 0.0000 0.0000 0.0000 19.9020 0.0000
# 6 0.0000 0.0000 0.0000 0.0000 0.0000 44.3023
#
#
#
# Elastic Compliance Matrix: (Units=1/GPa)
#
#
# Indices 1 2 3 4 5 6 
#
# 1 0.013174 -0.004970 0.001495 0.000000 0.000000 0.000000
# 2 -0.004970 0.019429 0.004902 0.000000 0.000000 0.000000
# 3 0.001495 0.004902 0.021236 0.000000 0.000000 0.000000
# 4 0.000000 0.000000 0.000000 0.051235 0.000000 0.000000
# 5 0.000000 0.000000 0.000000 0.000000 0.050246 0.000000
# 6 0.000000 0.000000 0.000000 0.000000 0.000000 0.022572
#
#
# Mechanical properties :
#
#
# Convention : Reuss Voigt Hill
#
# Bulk Modulus (GPa) = 17.63875 21.64198 19.64037
# Shear Modulus (GPa) = 25.78163 30.28992 28.03578
#
# Velocity S-wave (km/s) = 3.43313 3.72121 3.58006
# Velocity P-wave (km/s) = 4.87636 5.32513 5.10568
#
# Compressibility (1/GPa) = 0.05669336
#
# Stress axis : x y z
#
# Youngs Moduli (GPa) = 75.90581 51.47074 47.08889
#
# Poissons Ratio (x) = 0.25580 -0.07040
# Poissons Ratio (y) = 0.37723 -0.23082
# Poissons Ratio (z) = -0.11348 -0.25230
#
# Static dielectric constant tensor:
#      x y z
#    x 1.810020 0.000000 0.000000 
#    y 0.000000 1.784100 0.000000 
#    z 0.000000 0.000000 1.829870 
# 
# From -- ./inp_files/8527.got.cif
#   From: 2010.05.17/outbox.cif.g08.bks.cpg/sg63_5_cif.got.tgz:8527.got - 2010.06.03 15:47:04.
