data_PCOD9473352
_publ_section_title
;
Structure prediction by ZEFSAII (Michael W. Deem and Ramdas Pophale) SiO2 
 PCOD9473352
Probable space group: C M C M
;
_chemical_formula_sum "Si O2"
_cell_formula_units_Z 112
_cell_length_a 26.277588
_cell_length_b 13.313480
_cell_length_c 15.290853
_cell_angle_alpha 90.000000
_cell_angle_beta 90.000000
_cell_angle_gamma 90.000000
_cell_volume 5349.445934
_symmetry_space_group_name_H-M "C M C M"
_symmetry_group_IT_number 63
_symmetry_cell_setting 'orthorhombic'
loop_
_space_group_symop_operation_xyz
x,y,z
-x,-y,1/2+z
x,-y,-z
-x,y,1/2-z
-x,-y,-z
x,y,1/2-z
-x,y,z
x,-y,1/2+z
1/2+x,1/2+y,z
1/2-x,1/2-y,1/2+z
1/2+x,1/2-y,-z
1/2-x,1/2+y,1/2-z
1/2-x,1/2-y,-z
1/2+x,1/2+y,1/2-z
1/2-x,1/2+y,z
1/2+x,1/2-y,1/2+z
loop_
_atom_site_type_symbol
_atom_site_label
_atom_site_fract_x
_atom_site_fract_y
_atom_site_fract_z
Si Si1 0.442059 0.768063 0.042705
Si Si2 0.915197 0.693093 0.347997
Si Si3 0.560339 0.034154 0.650701
Si Si4 0.287874 0.144952 0.582000
Si Si5 0.739902 0.454159 0.846087
Si Si6 0.352541 0.322212 0.648505
Si Si7 0.193646 0.278988 0.603043
O O1 0.500000 0.747282 0.071904
O O2 0.428715 0.879300 0.080957
O O3 0.400933 0.693986 0.086167
O O4 0.441195 0.770277 0.937352
O O5 0.937024 0.709859 0.250000
O O6 0.911140 0.571611 0.357786
O O7 0.859493 0.741709 0.353034
O O8 0.569097 0.072761 0.750000
O O9 0.500000 0.009568 0.642957
O O10 0.320489 0.217394 0.644342
O O11 0.229958 0.186738 0.580169
O O12 0.313862 0.164233 0.489046
O O13 0.276967 0.031389 0.605927
O O14 0.729765 0.497428 0.750000
O O15 0.686182 0.411172 0.881987
O O16 0.772808 0.353563 0.840442
O O17 0.366084 0.340342 0.750000
#
# Coordination Sequence:
#
# PCOD9473352 Si02
#       7
#    16  16  16  16  16  16  16
#     4  11  22  37  57  81 113 155 202 252 308 359
#     4  11  22  35  53  79 116 154 195 244 293 358
#     4   9  19  34  52  78 110 146 190 237 293 358
#     4  10  20  37  60  81 118 157 190 239 294 348
#     4  10  21  35  55  85 119 158 195 239 296 354
#     4  10  21  37  57  87 122 154 200 248 296 360
#     4  10  21  36  54  85 116 151 199 234 285 354
#
# _framework density 20.936748999999999
#
# number of rings (size 3 to 8) (size 9 to 14) (size 15 to 20)
#    0.000    1.857    1.429    2.571    2.000    5.714 
#    0.000    0.000    0.000    0.000    0.000    3.000 
#    0.000    4.571    0.000    0.000    0.000    0.000 
#
# Total GULP energy -312242.816051 kJ/mol
# GULP energy per Si atom -5575.764572 kJ/mol
# Density = 2.088910 g / cm^3
# Si number density = 20.936749 Si / 1000 Ang^3
#
#
#
# Elastic Constant Matrix: (Units=GPa)
#
#
# Indices 1 2 3 4 5 6 
#
# 1 69.9174 -10.8797 7.6973 0.0000 0.0000 0.0000
# 2 -10.8797 9.8486 -4.3600 0.0000 0.0000 0.0000
# 3 7.6973 -4.3600 106.4615 0.0000 0.0000 0.0000
# 4 0.0000 0.0000 0.0000 2.6084 0.0000 0.0000
# 5 0.0000 0.0000 0.0000 0.0000 14.3277 0.0000
# 6 0.0000 0.0000 0.0000 0.0000 0.0000 17.9853
#
#
#
# Elastic Compliance Matrix: (Units=1/GPa)
#
#
# Indices 1 2 3 4 5 6 
#
# 1 0.017295 0.018895 -0.000477 0.000000 0.000000 0.000000
# 2 0.018895 0.124055 0.003714 0.000000 0.000000 0.000000
# 3 -0.000477 0.003714 0.009580 0.000000 0.000000 0.000000
# 4 0.000000 0.000000 0.000000 0.383372 0.000000 0.000000
# 5 0.000000 0.000000 0.000000 0.000000 0.069795 0.000000
# 6 0.000000 0.000000 0.000000 0.000000 0.000000 0.055601
#
#
# Mechanical properties :
#
#
# Convention : Reuss Voigt Hill
#
# Bulk Modulus (GPa) = 5.12306 19.01584 12.06945
# Shear Modulus (GPa) = 7.34757 19.90229 13.62493
#
# Velocity S-wave (km/s) = 1.87537 3.08651 2.55378
# Velocity P-wave (km/s) = 2.67238 4.66951 3.80433
#
# Compressibility (1/GPa) = 0.19519586
#
# Stress axis : x y z
#
# Youngs Moduli (GPa) = 57.81915 8.06093 104.38798
#
# Poissons Ratio (x) = -0.15231 0.04976
# Poissons Ratio (y) = -1.09250 -0.38773
# Poissons Ratio (z) = 0.02756 -0.02994
#
# Static dielectric constant tensor:
#      x y z
#    x 1.782400 0.000000 0.000000 
#    y 0.000000 1.738260 0.000000 
#    z 0.000000 0.000000 1.833210 
# 
# From -- ./inp_files/37911.got.cif
#   From: 2010.05.17/outbox.cif.g08.bks.cpg/sg63_19_cif.got.tgz:37911.got - 2010.06.03 15:47:04.
