data_PCOD9473381
_publ_section_title
;
Structure prediction by ZEFSAII (Michael W. Deem and Ramdas Pophale) SiO2 
 PCOD9473381
Probable space group: C M C M
;
_chemical_formula_sum "Si O2"
_cell_formula_units_Z 96
_cell_length_a 17.752179
_cell_length_b 30.625799
_cell_length_c 8.593660
_cell_angle_alpha 90.000000
_cell_angle_beta 90.000000
_cell_angle_gamma 90.000000
_cell_volume 4672.155229
_symmetry_space_group_name_H-M "C M C M"
_symmetry_group_IT_number 63
_symmetry_cell_setting 'orthorhombic'
loop_
_space_group_symop_operation_xyz
x,y,z
-x,-y,1/2+z
x,-y,-z
-x,y,1/2-z
-x,-y,-z
x,y,1/2-z
-x,y,z
x,-y,1/2+z
1/2+x,1/2+y,z
1/2-x,1/2-y,1/2+z
1/2+x,1/2-y,-z
1/2-x,1/2+y,1/2-z
1/2-x,1/2-y,-z
1/2+x,1/2+y,1/2-z
1/2-x,1/2+y,z
1/2+x,1/2-y,1/2+z
loop_
_atom_site_type_symbol
_atom_site_label
_atom_site_fract_x
_atom_site_fract_y
_atom_site_fract_z
Si Si1 0.589351 0.784312 0.425676
Si Si2 0.696769 0.045237 0.066501
Si Si3 0.588388 0.882662 0.435844
Si Si4 0.134935 0.046679 0.564416
Si Si5 0.313899 0.718637 0.572651
Si Si6 0.915797 0.142044 0.940337
O O1 0.614082 0.771302 0.250000
O O2 0.500000 0.787577 0.420458
O O3 0.616939 0.833177 0.460251
O O4 0.614367 0.750082 0.552881
O O5 0.708690 0.041527 0.250000
O O6 0.640413 0.083868 0.025346
O O7 0.777743 0.051172 0.985356
O O8 0.664489 0.000000 0.000000
O O9 0.592703 0.890707 0.250000
O O10 0.500000 0.885797 0.480088
O O11 0.129783 0.044679 0.750000
O O12 0.095210 0.091534 0.512958
O O13 0.107178 0.000000 0.500000
O O14 0.292550 0.710290 0.750000
O O15 0.250000 0.750000 0.500000
O O16 0.346602 0.673011 0.505061
O O17 0.913957 0.143698 0.750000
O O18 0.000000 0.156798 0.988923
#
# Coordination Sequence:
#
# PCOD9473381 Si02
#       6
#    16  16  16  16  16  16
#     4   9  19  37  59  82 112 150 189 234 290 347
#     4  11  22  36  55  80 112 149 191 239 291 349
#     4   9  19  36  57  80 109 148 192 236 289 351
#     4  10  20  37  61  87 116 152 193 239 294 354
#     4  11  23  38  58  87 119 156 199 243 289 344
#     4   9  20  39  62  87 117 156 197 237 289 354
#
# _framework density 20.547263999999998
#
# number of rings (size 3 to 8) (size 9 to 14) (size 15 to 20)
#    0.000    2.167    0.000    5.000    2.333    2.667 
#    0.000    4.167    0.000    5.500    0.000    0.000 
#    0.000    0.000    0.000    0.000    0.000    0.000 
#
# Total GULP energy -267715.539310 kJ/mol
# GULP energy per Si atom -5577.407069 kJ/mol
# Density = 2.050050 g / cm^3
# Si number density = 20.547264 Si / 1000 Ang^3
#
#
#
# Elastic Constant Matrix: (Units=GPa)
#
#
# Indices 1 2 3 4 5 6 
#
# 1 48.1974 41.3801 3.9888 0.0000 0.0000 0.0000
# 2 41.3801 105.3294 22.8429 0.0000 0.0000 0.0000
# 3 3.9888 22.8429 23.4179 0.0000 0.0000 0.0000
# 4 0.0000 0.0000 0.0000 28.4044 0.0000 0.0000
# 5 0.0000 0.0000 0.0000 0.0000 23.3105 0.0000
# 6 0.0000 0.0000 0.0000 0.0000 0.0000 38.4338
#
#
#
# Elastic Compliance Matrix: (Units=1/GPa)
#
#
# Indices 1 2 3 4 5 6 
#
# 1 0.032686 -0.014755 0.008825 0.000000 0.000000 0.000000
# 2 -0.014755 0.018702 -0.015730 0.000000 0.000000 0.000000
# 3 0.008825 -0.015730 0.056543 0.000000 0.000000 0.000000
# 4 0.000000 0.000000 0.000000 0.035206 0.000000 0.000000
# 5 0.000000 0.000000 0.000000 0.000000 0.042899 0.000000
# 6 0.000000 0.000000 0.000000 0.000000 0.000000 0.026019
#
#
# Mechanical properties :
#
#
# Convention : Reuss Voigt Hill
#
# Bulk Modulus (GPa) = 15.47707 34.81869 25.14788
# Shear Modulus (GPa) = 18.05643 25.27859 21.66751
#
# Velocity S-wave (km/s) = 2.96763 3.51132 3.25086
# Velocity P-wave (km/s) = 4.39218 5.78114 5.13385
#
# Compressibility (1/GPa) = 0.06461172
#
# Stress axis : x y z
#
# Youngs Moduli (GPa) = 30.59460 53.47031 17.68575
#
# Poissons Ratio (x) = 0.78895 -0.15608
# Poissons Ratio (y) = 0.45142 0.27819
# Poissons Ratio (z) = -0.27001 0.84107
#
# Static dielectric constant tensor:
#      x y z
#    x 1.766750 0.000000 0.000000 
#    y 0.000000 1.681520 0.000000 
#    z 0.000000 0.000000 1.735160 
# 
# From -- ./inp_files/8611.got.cif
#   From: 2010.05.17/outbox.cif.g08.bks.cpg/sg63_5_cif.got.tgz:8611.got - 2010.06.03 15:47:04.
