data_PCOD9473423
_publ_section_title
;
Structure prediction by ZEFSAII (Michael W. Deem and Ramdas Pophale) SiO2 
 PCOD9473423
Probable space group: C M C M
;
_chemical_formula_sum "Si O2"
_cell_formula_units_Z 112
_cell_length_a 27.957734
_cell_length_b 5.957920
_cell_length_c 27.790681
_cell_angle_alpha 90.000000
_cell_angle_beta 90.000000
_cell_angle_gamma 90.000000
_cell_volume 4629.092138
_symmetry_space_group_name_H-M "C M C M"
_symmetry_group_IT_number 63
_symmetry_cell_setting 'orthorhombic'
loop_
_space_group_symop_operation_xyz
x,y,z
-x,-y,1/2+z
x,-y,-z
-x,y,1/2-z
-x,-y,-z
x,y,1/2-z
-x,y,z
x,-y,1/2+z
1/2+x,1/2+y,z
1/2-x,1/2-y,1/2+z
1/2+x,1/2-y,-z
1/2-x,1/2+y,1/2-z
1/2-x,1/2-y,-z
1/2+x,1/2+y,1/2-z
1/2-x,1/2+y,z
1/2+x,1/2-y,1/2+z
loop_
_atom_site_type_symbol
_atom_site_label
_atom_site_fract_x
_atom_site_fract_y
_atom_site_fract_z
Si Si1 0.550863 0.600173 0.127957
Si Si2 0.093720 0.208640 0.802002
Si Si3 0.806574 0.942284 0.695434
Si Si4 0.159022 0.351702 0.955991
Si Si5 0.271214 0.443180 0.090275
Si Si6 0.447967 0.705799 0.537275
Si Si7 0.863077 0.591989 0.638221
O O1 0.500000 0.724343 0.124890
O O2 0.558222 0.480501 0.178946
O O3 0.550166 0.403065 0.089601
O O4 0.599461 0.730164 0.117766
O O5 0.079624 0.292813 0.750000
O O6 0.145864 0.092929 0.800218
O O7 0.102379 0.412819 0.837272
O O8 0.785121 0.930259 0.750000
O O9 0.779485 0.044566 0.648707
O O10 0.827421 0.703312 0.676834
O O11 0.181549 0.109876 0.942356
O O12 0.102245 0.330929 0.964829
O O13 0.164960 0.484480 0.905695
O O14 0.179469 0.500000 0.000000
O O15 0.255166 0.701307 0.079278
O O16 0.445862 0.500000 0.500000
O O17 0.500000 0.818179 0.530621
#
# Coordination Sequence:
#
# PCOD9473423 Si02
#       7
#    16  16  16  16  16  16  16
#     4  10  21  36  56  88 139 187 233 303 375 448
#     4  10  20  37  63  91 126 176 235 295 363 450
#     4  10  22  43  72 101 136 181 236 309 384 452
#     4  12  25  44  73 106 146 202 257 320 390 470
#     4  12  28  50  74 110 154 198 254 317 376 462
#     4  10  21  40  66 102 143 187 247 319 391 460
#     4  11  20  40  65 100 135 185 253 309 377 453
#
# _framework density 24.194808999999999
#
# number of rings (size 3 to 8) (size 9 to 14) (size 15 to 20)
#    0.000    1.286    2.857    3.000    0.000    4.571 
#    0.000    0.000    0.000    0.000    0.000    0.000 
#    0.000    0.000    0.000    0.000    0.000    0.000 
#
# Total GULP energy -312464.580798 kJ/mol
# GULP energy per Si atom -5579.724657 kJ/mol
# Density = 2.413974 g / cm^3
# Si number density = 24.194809 Si / 1000 Ang^3
#
#
#
# Elastic Constant Matrix: (Units=GPa)
#
#
# Indices 1 2 3 4 5 6 
#
# 1 79.1131 32.1444 -6.3139 0.0000 0.0000 0.0000
# 2 32.1444 69.7821 13.2046 0.0000 0.0000 0.0000
# 3 -6.3139 13.2046 71.9575 0.0000 0.0000 0.0000
# 4 0.0000 0.0000 0.0000 123.7224 0.0000 0.0000
# 5 0.0000 0.0000 0.0000 0.0000 -18.4420 0.0000
# 6 0.0000 0.0000 0.0000 0.0000 0.0000 20.0868
#
#
#
# Elastic Compliance Matrix: (Units=1/GPa)
#
#
# Indices 1 2 3 4 5 6 
#
# 1 0.016105 -0.007962 0.002874 0.000000 0.000000 0.000000
# 2 -0.007962 0.018782 -0.004145 0.000000 0.000000 0.000000
# 3 0.002874 -0.004145 0.014910 0.000000 0.000000 0.000000
# 4 0.000000 0.000000 0.000000 0.008083 0.000000 0.000000
# 5 0.000000 0.000000 0.000000 0.000000 -0.054224 0.000000
# 6 0.000000 0.000000 0.000000 0.000000 0.000000 0.049784
#
#
# Mechanical properties :
#
#
# Convention : Reuss Voigt Hill
#
# Bulk Modulus (GPa) = 31.91799 33.21365 32.56582
# Shear Modulus (GPa) = 60.71654 37.19464 48.95559
#
# Velocity S-wave (km/s) = 5.01491 3.92509 4.50309
# Velocity P-wave (km/s) = 6.83763 5.85655 6.36602
#
# Compressibility (1/GPa) = 0.03133029
#
# Stress axis : x y z
#
# Youngs Moduli (GPa) = 62.09368 53.24108 67.06915
#
# Poissons Ratio (x) = 0.42392 -0.19277
# Poissons Ratio (y) = 0.49441 0.27802
# Poissons Ratio (z) = -0.17847 0.22070
#
# Static dielectric constant tensor:
#      x y z
#    x 2.008560 0.000000 0.000000 
#    y 0.000000 1.916640 0.000000 
#    z 0.000000 0.000000 1.358380 
# 
# From -- ./inp_files/74533.got.cif
#   From: 2010.05.17/outbox.cif.g08.bks.cpg/sg63_38_cif.got.tgz:74533.got - 2010.06.03 15:47:04.
