data_PCOD9473669
_publ_section_title
;
Structure prediction by ZEFSAII (Michael W. Deem and Ramdas Pophale) SiO2 
 PCOD9473669
Probable space group: C M C M
;
_chemical_formula_sum "Si O2"
_cell_formula_units_Z 68
_cell_length_a 10.373916
_cell_length_b 14.958348
_cell_length_c 21.434264
_cell_angle_alpha 90.000000
_cell_angle_beta 90.000000
_cell_angle_gamma 90.000000
_cell_volume 3326.097190
_symmetry_space_group_name_H-M "C M C M"
_symmetry_group_IT_number 63
_symmetry_cell_setting 'orthorhombic'
loop_
_space_group_symop_operation_xyz
x,y,z
-x,-y,1/2+z
x,-y,-z
-x,y,1/2-z
-x,-y,-z
x,y,1/2-z
-x,y,z
x,-y,1/2+z
1/2+x,1/2+y,z
1/2-x,1/2-y,1/2+z
1/2+x,1/2-y,-z
1/2-x,1/2+y,1/2-z
1/2-x,1/2-y,-z
1/2+x,1/2+y,1/2-z
1/2-x,1/2+y,z
1/2+x,1/2-y,1/2+z
loop_
_atom_site_type_symbol
_atom_site_label
_atom_site_fract_x
_atom_site_fract_y
_atom_site_fract_z
Si Si1 0.347076 0.599506 0.981773
Si Si2 0.850345 0.153244 0.382011
Si Si3 0.642738 0.973553 0.821866
Si Si4 0.257453 0.339364 0.153278
Si Si5 0.500000 0.333654 0.250000
O O1 0.500000 0.591109 0.970591
O O2 0.288246 0.636952 0.918724
O O3 0.298781 0.500000 0.000000
O O4 0.329568 0.659352 0.043452
O O5 0.756362 0.076410 0.357355
O O6 0.813721 0.244490 0.347672
O O7 0.000000 0.129457 0.371813
O O8 0.645887 0.943260 0.750000
O O9 0.500000 0.952997 0.847225
O O10 0.669527 0.078919 0.823709
O O11 0.385578 0.334985 0.195404
#
# Coordination Sequence:
#
# PCOD9473669 Si02
#       5
#    16  16  16  16   4
#     4  10  20  40  70 101 137 177 227 282 341 410
#     4  11  26  44  71 101 135 185 230 283 346 407
#     4  11  26  44  67  98 140 182 230 288 344 408
#     4  12  24  45  68 102 141 177 234 278 346 407
#     4  12  28  40  76 108 134 190 224 284 342 412
#
# _framework density 20.444382000000001
#
# number of rings (size 3 to 8) (size 9 to 14) (size 15 to 20)
#    0.000    0.941    4.706    1.412    4.941    0.471 
#    0.000    3.529    0.000    0.000    0.000    0.000 
#    0.000    0.000    0.000    0.000    0.000    0.000 
#
# Total GULP energy -189469.271190 kJ/mol
# GULP energy per Si atom -5572.625623 kJ/mol
# Density = 2.039785 g / cm^3
# Si number density = 20.444382 Si / 1000 Ang^3
#
#
#
# Elastic Constant Matrix: (Units=GPa)
#
#
# Indices 1 2 3 4 5 6 
#
# 1 136.7045 37.1094 62.8863 0.0000 0.0000 0.0000
# 2 37.1094 81.6087 19.3042 0.0000 0.0000 0.0000
# 3 62.8863 19.3042 89.2887 0.0000 0.0000 0.0000
# 4 0.0000 0.0000 0.0000 16.1908 0.0000 0.0000
# 5 0.0000 0.0000 0.0000 0.0000 30.7079 0.0000
# 6 0.0000 0.0000 0.0000 0.0000 0.0000 13.1214
#
#
#
# Elastic Compliance Matrix: (Units=1/GPa)
#
#
# Indices 1 2 3 4 5 6 
#
# 1 0.011727 -0.003561 -0.007489 0.000000 0.000000 0.000000
# 2 -0.003561 0.013995 -0.000518 0.000000 0.000000 0.000000
# 3 -0.007489 -0.000518 0.016586 0.000000 0.000000 0.000000
# 4 0.000000 0.000000 0.000000 0.061764 0.000000 0.000000
# 5 0.000000 0.000000 0.000000 0.000000 0.032565 0.000000
# 6 0.000000 0.000000 0.000000 0.000000 0.000000 0.076211
#
#
# Mechanical properties :
#
#
# Convention : Reuss Voigt Hill
#
# Bulk Modulus (GPa) = 52.15856 60.68909 56.42383
# Shear Modulus (GPa) = 20.62911 24.55747 22.59329
#
# Velocity S-wave (km/s) = 3.17998 3.46957 3.32793
# Velocity P-wave (km/s) = 6.24907 6.76757 6.51348
#
# Compressibility (1/GPa) = 0.01917231
#
# Stress axis : x y z
#
# Youngs Moduli (GPa) = 85.27354 71.45249 60.29025
#
# Poissons Ratio (x) = 0.25444 0.45154
# Poissons Ratio (y) = 0.30365 0.03122
# Poissons Ratio (z) = 0.63865 0.03700
#
# Static dielectric constant tensor:
#      x y z
#    x 1.692960 0.000000 0.000000 
#    y 0.000000 1.751130 0.000000 
#    z 0.000000 0.000000 1.737000 
# 
# From -- ./inp_files/50487.got.cif
#   From: 2010.05.17/outbox.cif.g08.bks.cpg/sg63_26_cif.got.tgz:50487.got - 2010.06.03 15:47:04.
