data_PCOD9473857
_publ_section_title
;
Structure prediction by ZEFSAII (Michael W. Deem and Ramdas Pophale) SiO2 
 PCOD9473857
Probable space group: C M C M
;
_chemical_formula_sum "Si O2"
_cell_formula_units_Z 112
_cell_length_a 26.455328
_cell_length_b 15.201795
_cell_length_c 13.857357
_cell_angle_alpha 90.000000
_cell_angle_beta 90.000000
_cell_angle_gamma 90.000000
_cell_volume 5572.992103
_symmetry_space_group_name_H-M "C M C M"
_symmetry_group_IT_number 63
_symmetry_cell_setting 'orthorhombic'
loop_
_space_group_symop_operation_xyz
x,y,z
-x,-y,1/2+z
x,-y,-z
-x,y,1/2-z
-x,-y,-z
x,y,1/2-z
-x,y,z
x,-y,1/2+z
1/2+x,1/2+y,z
1/2-x,1/2-y,1/2+z
1/2+x,1/2-y,-z
1/2-x,1/2+y,1/2-z
1/2-x,1/2-y,-z
1/2+x,1/2+y,1/2-z
1/2-x,1/2+y,z
1/2+x,1/2-y,1/2+z
loop_
_atom_site_type_symbol
_atom_site_label
_atom_site_fract_x
_atom_site_fract_y
_atom_site_fract_z
Si Si1 0.058604 0.478954 0.633279
Si Si2 0.939854 0.715838 0.140135
Si Si3 0.350380 0.892338 0.364960
Si Si4 0.271178 0.045693 0.363610
Si Si5 0.377889 0.639070 0.946457
Si Si6 0.194942 0.284518 0.524994
Si Si7 0.651643 0.455930 0.637108
O O1 0.058725 0.475114 0.750000
O O2 0.076336 0.380910 0.603063
O O3 0.098911 0.553846 0.607424
O O4 0.000000 0.495643 0.605151
O O5 0.920464 0.728054 0.250000
O O6 0.925169 0.799316 0.076788
O O7 0.000000 0.708765 0.145349
O O8 0.352558 0.873040 0.250000
O O9 0.338262 0.808966 0.430977
O O10 0.302921 0.957767 0.382772
O O11 0.274385 0.061527 0.250000
O O12 0.297307 0.127163 0.415240
O O13 0.211734 0.038142 0.387100
O O14 0.332603 0.705676 0.920619
O O15 0.372904 0.551112 0.883619
O O16 0.372082 0.608952 0.057552
O O17 0.250000 0.250000 0.500000
O O18 0.646350 0.431845 0.750000
#
# Coordination Sequence:
#
# PCOD9473857 Si02
#       7
#    16  16  16  16  16  16  16
#     4   8  15  32  58  88 122 157 194 236 284 340
#     4   9  18  35  61  93 124 151 189 243 292 337
#     4  10  21  35  56  85 117 158 198 236 289 353
#     4  10  21  37  55  76 111 154 194 233 283 346
#     4  11  22  36  60  84 110 149 192 240 291 353
#     4  12  23  35  55  83 119 149 193 245 288 339
#     4  10  22  40  57  77 110 152 193 239 296 353
#
# _framework density 20.096924999999999
#
# number of rings (size 3 to 8) (size 9 to 14) (size 15 to 20)
#    0.000    2.000    1.429    3.429    2.000    3.429 
#    0.000    2.143    0.000    4.714    0.000    0.000 
#    0.000    1.143    0.000    0.000    0.000    0.000 
#
# Total GULP energy -312724.871978 kJ/mol
# GULP energy per Si atom -5584.372714 kJ/mol
# Density = 2.005118 g / cm^3
# Si number density = 20.096925 Si / 1000 Ang^3
#
#
#
# Elastic Constant Matrix: (Units=GPa)
#
#
# Indices 1 2 3 4 5 6 
#
# 1 67.8707 33.2048 22.2979 0.0000 0.0000 0.0000
# 2 33.2048 79.9177 34.1849 0.0000 0.0000 0.0000
# 3 22.2979 34.1849 92.8976 0.0000 0.0000 0.0000
# 4 0.0000 0.0000 0.0000 19.5196 0.0000 0.0000
# 5 0.0000 0.0000 0.0000 0.0000 14.9318 0.0000
# 6 0.0000 0.0000 0.0000 0.0000 0.0000 20.2221
#
#
#
# Elastic Compliance Matrix: (Units=1/GPa)
#
#
# Indices 1 2 3 4 5 6 
#
# 1 0.018784 -0.006974 -0.001942 0.000000 0.000000 0.000000
# 2 -0.006974 0.017439 -0.004744 0.000000 0.000000 0.000000
# 3 -0.001942 -0.004744 0.012976 0.000000 0.000000 0.000000
# 4 0.000000 0.000000 0.000000 0.051231 0.000000 0.000000
# 5 0.000000 0.000000 0.000000 0.000000 0.066971 0.000000
# 6 0.000000 0.000000 0.000000 0.000000 0.000000 0.049451
#
#
# Mechanical properties :
#
#
# Convention : Reuss Voigt Hill
#
# Bulk Modulus (GPa) = 45.70315 46.67349 46.18832
# Shear Modulus (GPa) = 19.88353 21.00127 20.44240
#
# Velocity S-wave (km/s) = 3.14886 3.23615 3.19280
# Velocity P-wave (km/s) = 6.00093 6.10231 6.05183
#
# Compressibility (1/GPa) = 0.02188033
#
# Stress axis : x y z
#
# Youngs Moduli (GPa) = 53.23740 57.34152 77.06331
#
# Poissons Ratio (x) = 0.39987 0.14969
# Poissons Ratio (y) = 0.37125 0.36556
# Poissons Ratio (z) = 0.10341 0.27200
#
# Static dielectric constant tensor:
#      x y z
#    x 1.521480 0.000000 0.000000 
#    y 0.000000 1.758980 0.000000 
#    z 0.000000 0.000000 1.752410 
# 
# From -- ./inp_files/36888.got.cif
#   From: 2010.05.17/outbox.cif.g08.bks.cpg/sg63_19_cif.got.tgz:36888.got - 2010.06.03 15:47:04.
