data_PCOD9473375
_publ_section_title
;
Structure prediction by ZEFSAII (Michael W. Deem and Ramdas Pophale) SiO2 
 PCOD9473375
Probable space group: C M C M
;
_chemical_formula_sum "Si O2"
_cell_formula_units_Z 48
_cell_length_a 19.702499
_cell_length_b 8.322531
_cell_length_c 14.717050
_cell_angle_alpha 90.000000
_cell_angle_beta 90.000000
_cell_angle_gamma 90.000000
_cell_volume 2413.223251
_symmetry_space_group_name_H-M "C M C M"
_symmetry_group_IT_number 63
_symmetry_cell_setting 'orthorhombic'
loop_
_space_group_symop_operation_xyz
x,y,z
-x,-y,1/2+z
x,-y,-z
-x,y,1/2-z
-x,-y,-z
x,y,1/2-z
-x,y,z
x,-y,1/2+z
1/2+x,1/2+y,z
1/2-x,1/2-y,1/2+z
1/2+x,1/2-y,-z
1/2-x,1/2+y,1/2-z
1/2-x,1/2-y,-z
1/2+x,1/2+y,1/2-z
1/2-x,1/2+y,z
1/2+x,1/2-y,1/2+z
loop_
_atom_site_type_symbol
_atom_site_label
_atom_site_fract_x
_atom_site_fract_y
_atom_site_fract_z
Si Si1 0.825707 0.891917 0.912940
Si Si2 0.578703 0.508500 0.250000
Si Si3 0.312552 0.945484 0.352554
Si Si4 0.921444 0.623577 0.250000
O O1 0.882237 0.926568 0.837538
O O2 0.752128 0.949350 0.877759
O O3 0.821936 0.699615 0.922512
O O4 0.841006 0.000000 0.000000
O O5 0.500000 0.555856 0.250000
O O6 0.583085 0.315174 0.250000
O O7 0.299192 0.875366 0.250000
O O8 0.379521 0.051441 0.335282
O O9 0.000000 0.575392 0.250000
#
# Coordination Sequence:
#
# PCOD9473375 Si02
#       4
#    16   8  16   8
#     4  12  23  38  62  91 119 155 198 245 294 351
#     4  11  22  41  60  83 121 159 196 245 294 351
#     4  10  20  37  61  84 119 153 193 243 297 342
#     4   9  20  37  64  85 111 161 200 235 296 351
#
# _framework density 19.890408999999998
#
# number of rings (size 3 to 8) (size 9 to 14) (size 15 to 20)
#    1.000    0.333    3.333    3.000    0.000    3.333 
#    0.000    0.000    0.000    5.000    0.000    0.000 
#    0.000    0.000    0.000    0.000    0.000    0.000 
#
# Total GULP energy -134015.915189 kJ/mol
# GULP energy per Si atom -5583.996466 kJ/mol
# Density = 1.984514 g / cm^3
# Si number density = 19.890409 Si / 1000 Ang^3
#
#
#
# Elastic Constant Matrix: (Units=GPa)
#
#
# Indices 1 2 3 4 5 6 
#
# 1 181.8361 47.8383 29.4497 0.0000 0.0000 0.0000
# 2 47.8383 60.8268 -20.0837 0.0000 0.0000 0.0000
# 3 29.4497 -20.0837 38.8351 0.0000 0.0000 0.0000
# 4 0.0000 0.0000 0.0000 7.5386 0.0000 0.0000
# 5 0.0000 0.0000 0.0000 0.0000 -6.7355 0.0000
# 6 0.0000 0.0000 0.0000 0.0000 0.0000 30.0579
#
#
#
# Elastic Compliance Matrix: (Units=1/GPa)
#
#
# Indices 1 2 3 4 5 6 
#
# 1 0.012400 -0.015504 -0.017421 0.000000 0.000000 0.000000
# 2 -0.015504 0.039211 0.032036 0.000000 0.000000 0.000000
# 3 -0.017421 0.032036 0.055528 0.000000 0.000000 0.000000
# 4 0.000000 0.000000 0.000000 0.132651 0.000000 0.000000
# 5 0.000000 0.000000 0.000000 0.000000 -0.148468 0.000000
# 6 0.000000 0.000000 0.000000 0.000000 0.000000 0.033269
#
#
# Mechanical properties :
#
#
# Convention : Reuss Voigt Hill
#
# Bulk Modulus (GPa) = 9.49131 43.98960 26.74046
# Shear Modulus (GPa) = 30.96137 21.12512 26.04325
#
# Velocity S-wave (km/s) = 3.94965 3.26249 3.62240
# Velocity P-wave (km/s) = 5.05785 6.02957 5.56496
#
# Compressibility (1/GPa) = 0.10535948
#
# Stress axis : x y z
#
# Youngs Moduli (GPa) = 80.64586 25.50291 18.00883
#
# Poissons Ratio (x) = 0.39540 0.31374
# Poissons Ratio (y) = 1.25035 -0.57692
# Poissons Ratio (z) = 1.40495 -0.81700
#
# Static dielectric constant tensor:
#      x y z
#    x 1.655360 0.000000 0.000000 
#    y 0.000000 1.700300 0.000000 
#    z 0.000000 0.000000 1.736580 
# 
# From -- ./inp_files/33069.got.cif
#   From: 2010.05.17/outbox.cif.g08.bks.cpg/sg63_17_cif.got.tgz:33069.got - 2010.06.03 15:47:04.
