data_PCOD9473188
_publ_section_title
;
Structure prediction by ZEFSAII (Michael W. Deem and Ramdas Pophale) SiO2 
 PCOD9473188
Probable space group: C M C M
;
_chemical_formula_sum "Si O2"
_cell_formula_units_Z 72
_cell_length_a 17.558964
_cell_length_b 7.866819
_cell_length_c 23.018277
_cell_angle_alpha 90.000000
_cell_angle_beta 90.000000
_cell_angle_gamma 90.000000
_cell_volume 3179.588068
_symmetry_space_group_name_H-M "C M C M"
_symmetry_group_IT_number 63
_symmetry_cell_setting 'orthorhombic'
loop_
_space_group_symop_operation_xyz
x,y,z
-x,-y,1/2+z
x,-y,-z
-x,y,1/2-z
-x,-y,-z
x,y,1/2-z
-x,y,z
x,-y,1/2+z
1/2+x,1/2+y,z
1/2-x,1/2-y,1/2+z
1/2+x,1/2-y,-z
1/2-x,1/2+y,1/2-z
1/2-x,1/2-y,-z
1/2+x,1/2+y,1/2-z
1/2-x,1/2+y,z
1/2+x,1/2-y,1/2+z
loop_
_atom_site_type_symbol
_atom_site_label
_atom_site_fract_x
_atom_site_fract_y
_atom_site_fract_z
Si Si1 0.268833 0.146407 0.611304
Si Si2 0.000000 0.062749 0.182624
Si Si3 0.838394 0.934556 0.818821
Si Si4 0.500000 0.707676 0.005202
Si Si5 0.000000 0.414554 0.374164
Si Si6 0.130254 0.624701 0.427748
O O1 0.327581 0.276260 0.638902
O O2 0.192598 0.234417 0.588397
O O3 0.236310 0.040519 0.665860
O O4 0.312420 0.035374 0.563789
O O5 0.080129 0.989663 0.161220
O O6 0.000000 0.269210 0.175255
O O7 0.000000 0.021876 0.250000
O O8 0.841245 0.898232 0.750000
O O9 0.426578 0.792464 0.974064
O O10 0.500000 0.500000 0.000000
O O11 0.500000 0.788599 0.069409
O O12 0.927309 0.540912 0.379754
#
# Coordination Sequence:
#
# PCOD9473188 Si02
#       6
#    16   8  16   8   8  16
#     4  10  21  37  62  92 130 168 203 269 312 369
#     4  10  21  36  64  90 119 163 207 251 302 365
#     4  10  20  36  59  91 126 171 214 255 311 367
#     4  11  27  44  69  91 119 173 207 262 321 384
#     4  11  22  46  64  89 128 161 212 258 309 380
#     4  10  22  41  64  93 125 167 210 253 317 374
#
# _framework density 22.644444
#
# number of rings (size 3 to 8) (size 9 to 14) (size 15 to 20)
#    0.000    1.778    2.222    2.000    3.111    0.889 
#    0.000    8.889    0.000    0.000    0.000    0.000 
#    0.000    0.000    0.000    0.000    0.000    0.000 
#
# Total GULP energy -200500.574087 kJ/mol
# GULP energy per Si atom -5569.460391 kJ/mol
# Density = 2.259290 g / cm^3
# Si number density = 22.644444 Si / 1000 Ang^3
#
#
#
# Elastic Constant Matrix: (Units=GPa)
#
#
# Indices 1 2 3 4 5 6 
#
# 1 160.0796 30.7924 31.8107 0.0000 0.0000 0.0000
# 2 30.7924 63.6783 12.2705 0.0000 0.0000 0.0000
# 3 31.8107 12.2705 61.6626 0.0000 0.0000 0.0000
# 4 0.0000 0.0000 0.0000 9.6419 0.0000 0.0000
# 5 0.0000 0.0000 0.0000 0.0000 26.4790 0.0000
# 6 0.0000 0.0000 0.0000 0.0000 0.0000 17.3259
#
#
#
# Elastic Compliance Matrix: (Units=1/GPa)
#
#
# Indices 1 2 3 4 5 6 
#
# 1 0.007468 -0.002983 -0.003259 0.000000 0.000000 0.000000
# 2 -0.002983 0.017522 -0.001948 0.000000 0.000000 0.000000
# 3 -0.003259 -0.001948 0.018286 0.000000 0.000000 0.000000
# 4 0.000000 0.000000 0.000000 0.103714 0.000000 0.000000
# 5 0.000000 0.000000 0.000000 0.000000 0.037766 0.000000
# 6 0.000000 0.000000 0.000000 0.000000 0.000000 0.057717
#
#
# Mechanical properties :
#
#
# Convention : Reuss Voigt Hill
#
# Bulk Modulus (GPa) = 37.18016 48.35196 42.76606
# Shear Modulus (GPa) = 18.66935 24.72583 21.69759
#
# Velocity S-wave (km/s) = 2.87445 3.30800 3.09882
# Velocity P-wave (km/s) = 5.24131 5.99913 5.63298
#
# Compressibility (1/GPa) = 0.02689607
#
# Stress axis : x y z
#
# Youngs Moduli (GPa) = 133.89699 57.07139 54.68608
#
# Poissons Ratio (x) = 0.17027 0.17823
# Poissons Ratio (y) = 0.39947 0.10651
# Poissons Ratio (z) = 0.43639 0.11116
#
# Static dielectric constant tensor:
#      x y z
#    x 1.887700 0.000000 0.000000 
#    y 0.000000 1.890960 0.000000 
#    z 0.000000 0.000000 1.890250 
# 
# From -- ./inp_files/63536.got.cif
#   From: 2010.05.17/outbox.cif.g08.bks.cpg/sg63_32_cif.got.tgz:63536.got - 2010.06.03 15:47:04.
