data_PCOD9473996
_publ_section_title
;
Structure prediction by ZEFSAII (Michael W. Deem and Ramdas Pophale) SiO2 
 PCOD9473996
Probable space group: C M C M
;
_chemical_formula_sum "Si O2"
_cell_formula_units_Z 96
_cell_length_a 20.833507
_cell_length_b 14.290657
_cell_length_c 15.643770
_cell_angle_alpha 90.000000
_cell_angle_beta 90.000000
_cell_angle_gamma 90.000000
_cell_volume 4657.533643
_symmetry_space_group_name_H-M "C M C M"
_symmetry_group_IT_number 63
_symmetry_cell_setting 'orthorhombic'
loop_
_space_group_symop_operation_xyz
x,y,z
-x,-y,1/2+z
x,-y,-z
-x,y,1/2-z
-x,-y,-z
x,y,1/2-z
-x,y,z
x,-y,1/2+z
1/2+x,1/2+y,z
1/2-x,1/2-y,1/2+z
1/2+x,1/2-y,-z
1/2-x,1/2+y,1/2-z
1/2-x,1/2-y,-z
1/2+x,1/2+y,1/2-z
1/2-x,1/2+y,z
1/2+x,1/2-y,1/2+z
loop_
_atom_site_type_symbol
_atom_site_label
_atom_site_fract_x
_atom_site_fract_y
_atom_site_fract_z
Si Si1 0.733890 0.044507 0.405489
Si Si2 0.324548 0.231432 0.353178
Si Si3 0.923806 0.879658 0.084412
Si Si4 0.930195 0.275307 0.152564
Si Si5 0.201080 0.345922 0.151714
Si Si6 0.381145 0.579885 0.389722
O O1 0.685338 0.130363 0.395392
O O2 0.804486 0.080190 0.378478
O O3 0.738632 0.000000 0.500000
O O4 0.712803 0.955913 0.350215
O O5 0.322717 0.221366 0.250000
O O6 0.386870 0.290826 0.378131
O O7 0.263454 0.293761 0.384088
O O8 0.000000 0.867966 0.082523
O O9 0.906048 0.976449 0.132625
O O10 0.897620 0.898600 0.988874
O O11 0.933687 0.311600 0.250000
O O12 0.866922 0.319412 0.109941
O O13 0.915989 0.164873 0.156449
O O14 0.000000 0.291305 0.111732
O O15 0.197069 0.313355 0.250000
#
# Coordination Sequence:
#
# PCOD9473996 Si02
#       6
#    16  16  16  16  16  16
#     4  12  23  38  63  92 122 160 208 259 312 375
#     4  11  24  41  63  90 123 166 214 260 310 372
#     4  11  23  40  61  91 128 164 200 249 314 376
#     4  10  21  36  58  88 121 163 208 254 312 372
#     4  10  21  38  60  87 123 162 206 259 310 367
#     4  11  20  37  62  94 128 162 198 253 311 377
#
# _framework density 20.611767
#
# number of rings (size 3 to 8) (size 9 to 14) (size 15 to 20)
#    0.000    1.167    5.000    2.500    2.333    3.000 
#    0.000    0.833    0.000    3.000    0.000    0.000 
#    0.000    0.000    0.000    0.000    0.000    0.000 
#
# Total GULP energy -268072.485070 kJ/mol
# GULP energy per Si atom -5584.843439 kJ/mol
# Density = 2.056485 g / cm^3
# Si number density = 20.611767 Si / 1000 Ang^3
#
#
#
# Elastic Constant Matrix: (Units=GPa)
#
#
# Indices 1 2 3 4 5 6 
#
# 1 116.3649 36.7799 3.2693 0.0000 0.0000 0.0000
# 2 36.7799 101.1510 0.8967 0.0000 0.0000 0.0000
# 3 3.2693 0.8967 32.4622 0.0000 0.0000 0.0000
# 4 0.0000 0.0000 0.0000 24.5560 0.0000 0.0000
# 5 0.0000 0.0000 0.0000 0.0000 6.1360 0.0000
# 6 0.0000 0.0000 0.0000 0.0000 0.0000 27.7064
#
#
#
# Elastic Compliance Matrix: (Units=1/GPa)
#
#
# Indices 1 2 3 4 5 6 
#
# 1 0.009735 -0.003532 -0.000883 0.000000 0.000000 0.000000
# 2 -0.003532 0.011170 0.000047 0.000000 0.000000 0.000000
# 3 -0.000883 0.000047 0.030893 0.000000 0.000000 0.000000
# 4 0.000000 0.000000 0.000000 0.040723 0.000000 0.000000
# 5 0.000000 0.000000 0.000000 0.000000 0.162973 0.000000
# 6 0.000000 0.000000 0.000000 0.000000 0.000000 0.036093
#
#
# Mechanical properties :
#
#
# Convention : Reuss Voigt Hill
#
# Bulk Modulus (GPa) = 23.22215 36.87443 30.04829
# Shear Modulus (GPa) = 15.88937 25.61515 20.75226
#
# Velocity S-wave (km/s) = 2.77950 3.52908 3.17648
# Velocity P-wave (km/s) = 4.64669 5.87662 5.29747
#
# Compressibility (1/GPa) = 0.04306233
#
# Stress axis : x y z
#
# Youngs Moduli (GPa) = 102.72427 89.52521 32.37018
#
# Poissons Ratio (x) = 0.31619 0.02858
# Poissons Ratio (y) = 0.36281 -0.00153
# Poissons Ratio (z) = 0.09069 -0.00422
#
# Static dielectric constant tensor:
#      x y z
#    x 1.751540 0.000000 0.000000 
#    y 0.000000 1.715340 0.000000 
#    z 0.000000 0.000000 1.832590 
# 
# From -- ./inp_files/35316.got.cif
#   From: 2010.05.17/outbox.cif.g08.bks.cpg/sg63_18_cif.got.tgz:35316.got - 2010.06.03 15:47:04.
