data_PCOD9473302
_publ_section_title
;
Structure prediction by ZEFSAII (Michael W. Deem and Ramdas Pophale) SiO2 
 PCOD9473302
Probable space group: C M C M
;
_chemical_formula_sum "Si O2"
_cell_formula_units_Z 96
_cell_length_a 25.378065
_cell_length_b 13.163363
_cell_length_c 16.378445
_cell_angle_alpha 90.000000
_cell_angle_beta 90.000000
_cell_angle_gamma 90.000000
_cell_volume 5471.394504
_symmetry_space_group_name_H-M "C M C M"
_symmetry_group_IT_number 63
_symmetry_cell_setting 'orthorhombic'
loop_
_space_group_symop_operation_xyz
x,y,z
-x,-y,1/2+z
x,-y,-z
-x,y,1/2-z
-x,-y,-z
x,y,1/2-z
-x,y,z
x,-y,1/2+z
1/2+x,1/2+y,z
1/2-x,1/2-y,1/2+z
1/2+x,1/2-y,-z
1/2-x,1/2+y,1/2-z
1/2-x,1/2-y,-z
1/2+x,1/2+y,1/2-z
1/2-x,1/2+y,z
1/2+x,1/2-y,1/2+z
loop_
_atom_site_type_symbol
_atom_site_label
_atom_site_fract_x
_atom_site_fract_y
_atom_site_fract_z
Si Si1 0.133960 0.411801 0.442803
Si Si2 0.199253 0.268805 0.943131
Si Si3 0.941060 0.961413 0.906150
Si Si4 0.561983 0.763642 0.155169
Si Si5 0.668072 0.543163 0.906757
Si Si6 0.722391 0.964320 0.655873
O O1 0.109623 0.500000 0.500000
O O2 0.156176 0.324260 0.501244
O O3 0.095369 0.356507 0.380330
O O4 0.183860 0.464827 0.398222
O O5 0.178060 0.162793 0.910500
O O6 0.214180 0.349038 0.873405
O O7 0.250000 0.250000 0.000000
O O8 0.930694 0.840938 0.895642
O O9 0.000000 0.980259 0.870936
O O10 0.889272 0.016092 0.871227
O O11 0.943354 0.000000 0.000000
O O12 0.575749 0.743808 0.250000
O O13 0.500000 0.787856 0.151212
O O14 0.717194 0.493727 0.860518
O O15 0.670213 0.500000 0.000000
O O16 0.709064 0.977377 0.750000
#
# Coordination Sequence:
#
# PCOD9473302 Si02
#       6
#    16  16  16  16  16  16
#     4  10  20  37  58  79 110 151 186 225 279 333
#     4  11  20  37  55  77 110 148 182 225 270 332
#     4   9  19  34  54  80 109 141 180 222 269 331
#     4  10  21  37  58  87 117 144 184 239 286 323
#     4  11  19  34  56  76 104 143 179 217 273 330
#     4  11  23  35  51  81 113 140 182 230 276 329
#
# _framework density 17.545801000000001
#
# number of rings (size 3 to 8) (size 9 to 14) (size 15 to 20)
#    0.000    1.667    3.333    3.000    0.000    1.667 
#    0.000    0.000    0.000    1.000    0.000    0.000 
#    0.000    0.000    0.000    0.000    0.000    0.000 
#
# Total GULP energy -267747.403654 kJ/mol
# GULP energy per Si atom -5578.070909 kJ/mol
# Density = 1.750587 g / cm^3
# Si number density = 17.545801 Si / 1000 Ang^3
#
#
#
# Elastic Constant Matrix: (Units=GPa)
#
#
# Indices 1 2 3 4 5 6 
#
# 1 102.0395 66.2111 17.4451 0.0000 0.0000 0.0000
# 2 66.2111 121.8020 25.1092 0.0000 0.0000 0.0000
# 3 17.4451 25.1092 59.7073 0.0000 0.0000 0.0000
# 4 0.0000 0.0000 0.0000 19.7791 0.0000 0.0000
# 5 0.0000 0.0000 0.0000 0.0000 232.6386 0.0000
# 6 0.0000 0.0000 0.0000 0.0000 0.0000 29.5315
#
#
#
# Elastic Compliance Matrix: (Units=1/GPa)
#
#
# Indices 1 2 3 4 5 6 
#
# 1 0.015201 -0.008045 -0.001058 0.000000 0.000000 0.000000
# 2 -0.008045 0.013247 -0.003220 0.000000 0.000000 0.000000
# 3 -0.001058 -0.003220 0.018412 0.000000 0.000000 0.000000
# 4 0.000000 0.000000 0.000000 0.050558 0.000000 0.000000
# 5 0.000000 0.000000 0.000000 0.000000 0.004299 0.000000
# 6 0.000000 0.000000 0.000000 0.000000 0.000000 0.033862
#
#
# Mechanical properties :
#
#
# Convention : Reuss Voigt Hill
#
# Bulk Modulus (GPa) = 45.01878 55.67552 50.34715
# Shear Modulus (GPa) = 29.82731 68.04207 48.93469
#
# Velocity S-wave (km/s) = 4.12754 6.23409 5.28680
# Velocity P-wave (km/s) = 6.95910 9.14434 8.12551
#
# Compressibility (1/GPa) = 0.02221295
#
# Stress axis : x y z
#
# Youngs Moduli (GPa) = 65.78309 75.48692 54.31293
#
# Poissons Ratio (x) = 0.60732 0.05747
# Poissons Ratio (y) = 0.52925 0.17491
# Poissons Ratio (z) = 0.06961 0.24309
#
# Static dielectric constant tensor:
#      x y z
#    x 1.606960 0.000000 0.000000 
#    y 0.000000 1.576340 0.000000 
#    z 0.000000 0.000000 1.623330 
# 
# From -- ./inp_files/48956.got.cif
#   From: 2010.05.17/outbox.cif.g08.bks.cpg/sg63_25_cif.got.tgz:48956.got - 2010.06.03 15:47:04.
