data_PCOD9473926
_publ_section_title
;
Structure prediction by ZEFSAII (Michael W. Deem and Ramdas Pophale) SiO2 
 PCOD9473926
Probable space group: C M C M
;
_chemical_formula_sum "Si O2"
_cell_formula_units_Z 80
_cell_length_a 7.408144
_cell_length_b 30.035003
_cell_length_c 16.445428
_cell_angle_alpha 90.000000
_cell_angle_beta 90.000000
_cell_angle_gamma 90.000000
_cell_volume 3659.167382
_symmetry_space_group_name_H-M "C M C M"
_symmetry_group_IT_number 63
_symmetry_cell_setting 'orthorhombic'
loop_
_space_group_symop_operation_xyz
x,y,z
-x,-y,1/2+z
x,-y,-z
-x,y,1/2-z
-x,-y,-z
x,y,1/2-z
-x,y,z
x,-y,1/2+z
1/2+x,1/2+y,z
1/2-x,1/2-y,1/2+z
1/2+x,1/2-y,-z
1/2-x,1/2+y,1/2-z
1/2-x,1/2-y,-z
1/2+x,1/2+y,1/2-z
1/2-x,1/2+y,z
1/2+x,1/2-y,1/2+z
loop_
_atom_site_type_symbol
_atom_site_label
_atom_site_fract_x
_atom_site_fract_y
_atom_site_fract_z
Si Si1 0.291259 0.990716 0.411806
Si Si2 0.720082 0.856247 0.750000
Si Si3 0.278844 0.040481 0.250000
Si Si4 0.288874 0.304338 0.411859
Si Si5 0.781230 0.294791 0.899175
Si Si6 0.781192 0.102958 0.657103
O O1 0.500000 0.005685 0.416171
O O2 0.284410 0.938196 0.395690
O O3 0.208707 0.000000 0.500000
O O4 0.215955 0.015531 0.331997
O O5 0.500000 0.856071 0.750000
O O6 0.774703 0.907751 0.750000
O O7 0.778134 0.829051 0.669918
O O8 0.500000 0.038445 0.250000
O O9 0.500000 0.303326 0.389807
O O10 0.273047 0.307477 0.509389
O O11 0.215850 0.256029 0.385875
O O12 0.214325 0.348983 0.372290
O O13 0.000000 0.293972 0.898054
O O14 0.727398 0.095157 0.750000
O O15 0.000000 0.102809 0.653153
#
# Coordination Sequence:
#
# PCOD9473926 Si02
#       6
#    16   8   8  16  16  16
#     4  10  21  36  57  80 105 137 175 222 270 313
#     4   9  18  30  52  79 101 131 173 213 252 303
#     4   9  18  34  50  75 109 133 165 219 266 303
#     4   9  19  34  52  76 107 137 169 212 260 305
#     4   9  18  33  54  78 103 135 175 214 251 304
#     4  10  21  36  55  78 107 141 176 215 261 317
#
# _framework density 21.862895999999999
#
# number of rings (size 3 to 8) (size 9 to 14) (size 15 to 20)
#    0.000    2.600    1.000    0.000    4.200    1.200 
#    0.000    0.500    0.000    1.200    0.000    0.000 
#    0.000    0.000    0.000    0.000    0.000    0.000 
#
# Total GULP energy -223373.777953 kJ/mol
# GULP energy per Si atom -5584.344449 kJ/mol
# Density = 2.181314 g / cm^3
# Si number density = 21.862896 Si / 1000 Ang^3
#
#
#
# Elastic Constant Matrix: (Units=GPa)
#
#
# Indices 1 2 3 4 5 6 
#
# 1 71.2121 -2.1575 1.9760 0.0000 0.0000 0.0000
# 2 -2.1575 127.0763 67.9369 0.0000 0.0000 0.0000
# 3 1.9760 67.9369 118.5382 0.0000 0.0000 0.0000
# 4 0.0000 0.0000 0.0000 42.8530 0.0000 0.0000
# 5 0.0000 0.0000 0.0000 0.0000 8.6335 0.0000
# 6 0.0000 0.0000 0.0000 0.0000 0.0000 12.9802
#
#
#
# Elastic Compliance Matrix: (Units=1/GPa)
#
#
# Indices 1 2 3 4 5 6 
#
# 1 0.014073 0.000525 -0.000536 0.000000 0.000000 0.000000
# 2 0.000525 0.011365 -0.006522 0.000000 0.000000 0.000000
# 3 -0.000536 -0.006522 0.012183 0.000000 0.000000 0.000000
# 4 0.000000 0.000000 0.000000 0.023336 0.000000 0.000000
# 5 0.000000 0.000000 0.000000 0.000000 0.115828 0.000000
# 6 0.000000 0.000000 0.000000 0.000000 0.000000 0.077041
#
#
# Mechanical properties :
#
#
# Convention : Reuss Voigt Hill
#
# Bulk Modulus (GPa) = 40.72294 50.25970 45.49132
# Shear Modulus (GPa) = 18.17672 29.49807 23.83739
#
# Velocity S-wave (km/s) = 2.88652 3.67717 3.30557
# Velocity P-wave (km/s) = 5.45676 6.40838 5.95162
#
# Compressibility (1/GPa) = 0.02455618
#
# Stress axis : x y z
#
# Youngs Moduli (GPa) = 71.05633 87.98810 82.08056
#
# Poissons Ratio (x) = -0.04622 0.04397
# Poissons Ratio (y) = -0.03733 0.53536
# Poissons Ratio (z) = 0.03806 0.57389
#
# Static dielectric constant tensor:
#      x y z
#    x 1.834130 0.000000 0.000000 
#    y 0.000000 1.759550 0.000000 
#    z 0.000000 0.000000 1.758860 
# 
# From -- ./inp_files/29782.got.cif
#   From: 2010.05.17/outbox.cif.g08.bks.cpg/sg63_15_cif.got.tgz:29782.got - 2010.06.03 15:47:04.
