data_PCOD9473713
_publ_section_title
;
Structure prediction by ZEFSAII (Michael W. Deem and Ramdas Pophale) SiO2 
 PCOD9473713
Probable space group: C M C M
;
_chemical_formula_sum "Si O2"
_cell_formula_units_Z 80
_cell_length_a 14.649467
_cell_length_b 26.550968
_cell_length_c 11.297963
_cell_angle_alpha 90.000000
_cell_angle_beta 90.000000
_cell_angle_gamma 90.000000
_cell_volume 4394.427777
_symmetry_space_group_name_H-M "C M C M"
_symmetry_group_IT_number 63
_symmetry_cell_setting 'orthorhombic'
loop_
_space_group_symop_operation_xyz
x,y,z
-x,-y,1/2+z
x,-y,-z
-x,y,1/2-z
-x,-y,-z
x,y,1/2-z
-x,y,z
x,-y,1/2+z
1/2+x,1/2+y,z
1/2-x,1/2-y,1/2+z
1/2+x,1/2-y,-z
1/2-x,1/2+y,1/2-z
1/2-x,1/2-y,-z
1/2+x,1/2+y,1/2-z
1/2-x,1/2+y,z
1/2+x,1/2-y,1/2+z
loop_
_atom_site_type_symbol
_atom_site_label
_atom_site_fract_x
_atom_site_fract_y
_atom_site_fract_z
Si Si1 0.394449 0.205670 0.750000
Si Si2 0.606914 0.787508 0.610049
Si Si3 0.891614 0.825764 0.016664
Si Si4 0.394813 0.674592 0.250000
Si Si5 0.609237 0.963125 0.388071
Si Si6 0.795783 0.357712 0.055814
O O1 0.500000 0.191058 0.750000
O O2 0.388414 0.265153 0.750000
O O3 0.345207 0.182224 0.860519
O O4 0.618898 0.778463 0.750000
O O5 0.500000 0.800704 0.588356
O O6 0.622720 0.733740 0.544844
O O7 0.671265 0.833156 0.568539
O O8 0.811889 0.855213 0.083618
O O9 0.000000 0.835355 0.038306
O O10 0.866106 0.839832 0.881257
O O11 0.500000 0.659702 0.250000
O O12 0.629801 0.979258 0.250000
O O13 0.500000 0.953921 0.390742
O O14 0.662535 0.911761 0.416216
O O15 0.629020 0.000000 0.500000
#
# Coordination Sequence:
#
# PCOD9473713 Si02
#       6
#     8  16  16   8  16  16
#     4  11  20  32  55  82 105 143 196 232 263 324
#     4  10  21  33  48  79 120 152 185 232 279 327
#     4  10  22  36  51  78 115 155 195 232 271 320
#     4   9  18  34  52  72 109 155 197 234 266 312
#     4  10  22  41  64  89 115 142 179 230 289 351
#     4  12  22  33  59  81 108 147 191 230 274 334
#
# _framework density 18.204872999999999
#
# number of rings (size 3 to 8) (size 9 to 14) (size 15 to 20)
#    0.000    1.600    3.000    2.400    2.800    0.800 
#    0.000    2.000    0.000    0.600    0.000    0.000 
#    0.000    0.000    0.000    0.000    0.000    0.000 
#
# Total GULP energy -222696.931003 kJ/mol
# GULP energy per Si atom -5567.423275 kJ/mol
# Density = 1.816344 g / cm^3
# Si number density = 18.204873 Si / 1000 Ang^3
#
#
#
# Elastic Constant Matrix: (Units=GPa)
#
#
# Indices 1 2 3 4 5 6 
#
# 1 85.9377 14.4523 30.1255 0.0000 0.0000 0.0000
# 2 14.4523 32.7918 -1.9471 0.0000 0.0000 0.0000
# 3 30.1255 -1.9471 82.8885 0.0000 0.0000 0.0000
# 4 0.0000 0.0000 0.0000 14.5802 0.0000 0.0000
# 5 0.0000 0.0000 0.0000 0.0000 -18.8869 0.0000
# 6 0.0000 0.0000 0.0000 0.0000 0.0000 30.5987
#
#
#
# Elastic Compliance Matrix: (Units=1/GPa)
#
#
# Indices 1 2 3 4 5 6 
#
# 1 0.014712 -0.006811 -0.005507 0.000000 0.000000 0.000000
# 2 -0.006811 0.033691 0.003267 0.000000 0.000000 0.000000
# 3 -0.005507 0.003267 0.014143 0.000000 0.000000 0.000000
# 4 0.000000 0.000000 0.000000 0.068586 0.000000 0.000000
# 5 0.000000 0.000000 0.000000 0.000000 -0.052947 0.000000
# 6 0.000000 0.000000 0.000000 0.000000 0.000000 0.032681
#
#
# Mechanical properties :
#
#
# Convention : Reuss Voigt Hill
#
# Bulk Modulus (GPa) = 22.50043 31.87550 27.18797
# Shear Modulus (GPa) = 34.77442 15.85757 25.31600
#
# Velocity S-wave (km/s) = 4.37529 2.95458 3.73314
# Velocity P-wave (km/s) = 6.15716 5.40247 5.79212
#
# Compressibility (1/GPa) = 0.04444359
#
# Stress axis : x y z
#
# Youngs Moduli (GPa) = 67.97031 29.68125 70.70790
#
# Poissons Ratio (x) = 0.20216 0.38940
# Poissons Ratio (y) = 0.46296 -0.23100
# Poissons Ratio (z) = 0.37432 -0.09697
#
# Static dielectric constant tensor:
#      x y z
#    x 1.674810 0.000000 0.000000 
#    y 0.000000 1.570160 0.000000 
#    z 0.000000 0.000000 1.646770 
# 
# From -- ./inp_files/19438.got.cif
#   From: 2010.05.17/outbox.cif.g08.bks.cpg/sg63_10_cif.got.tgz:19438.got - 2010.06.03 15:47:04.
