data_PCOD9473265
_publ_section_title
;
Structure prediction by ZEFSAII (Michael W. Deem and Ramdas Pophale) SiO2 
 PCOD9473265
Probable space group: C M C M
;
_chemical_formula_sum "Si O2"
_cell_formula_units_Z 88
_cell_length_a 25.350811
_cell_length_b 10.230150
_cell_length_c 14.702089
_cell_angle_alpha 90.000000
_cell_angle_beta 90.000000
_cell_angle_gamma 90.000000
_cell_volume 3812.877974
_symmetry_space_group_name_H-M "C M C M"
_symmetry_group_IT_number 63
_symmetry_cell_setting 'orthorhombic'
loop_
_space_group_symop_operation_xyz
x,y,z
-x,-y,1/2+z
x,-y,-z
-x,y,1/2-z
-x,-y,-z
x,y,1/2-z
-x,y,z
x,-y,1/2+z
1/2+x,1/2+y,z
1/2-x,1/2-y,1/2+z
1/2+x,1/2-y,-z
1/2-x,1/2+y,1/2-z
1/2-x,1/2-y,-z
1/2+x,1/2+y,1/2-z
1/2-x,1/2+y,z
1/2+x,1/2-y,1/2+z
loop_
_atom_site_type_symbol
_atom_site_label
_atom_site_fract_x
_atom_site_fract_y
_atom_site_fract_z
Si Si1 0.090140 0.590159 0.861549
Si Si2 0.058964 0.300081 0.641067
Si Si3 0.500000 0.307506 0.626424
Si Si4 0.588061 0.488999 0.102340
Si Si5 0.207322 0.059403 0.360180
Si Si6 0.290685 0.847896 0.138981
O O1 0.087337 0.593416 0.750000
O O2 0.079513 0.440448 0.891469
O O3 0.046491 0.694933 0.891159
O O4 0.149251 0.627152 0.890073
O O5 0.056126 0.313423 0.750000
O O6 0.088879 0.164631 0.625177
O O7 0.000000 0.278533 0.604222
O O8 0.453441 0.416773 0.650867
O O9 0.647451 0.539060 0.109546
O O10 0.567758 0.500000 0.000000
O O11 0.206027 0.053449 0.250000
O O12 0.248152 0.951781 0.393230
O O13 0.225854 0.202801 0.387068
O O14 0.291588 0.854662 0.250000
#
# Coordination Sequence:
#
# PCOD9473265 Si02
#       6
#    16  16   8  16  16  16
#     4  10  20  36  62  96 128 157 200 262 320 377
#     4  10  21  37  60  91 122 156 201 257 316 369
#     4  12  22  38  63  86 127 166 205 252 308 370
#     4  12  26  43  60  88 128 176 215 255 308 374
#     4  10  21  39  64  91 120 158 209 265 317 369
#     4   9  19  35  60  93 123 155 200 256 320 375
#
# _framework density 23.07968
#
# number of rings (size 3 to 8) (size 9 to 14) (size 15 to 20)
#    0.000    1.636    3.636    1.091    2.545    2.182 
#    0.000    2.727    0.000    0.000    0.000    0.000 
#    0.000    0.000    0.000    0.000    0.000    0.000 
#
# Total GULP energy -244971.240862 kJ/mol
# GULP energy per Si atom -5567.528201 kJ/mol
# Density = 2.302715 g / cm^3
# Si number density = 23.079680 Si / 1000 Ang^3
#
#
#
# Elastic Constant Matrix: (Units=GPa)
#
#
# Indices 1 2 3 4 5 6 
#
# 1 171.3293 84.0928 -0.2952 0.0000 0.0000 0.0000
# 2 84.0928 199.8266 21.5523 0.0000 0.0000 0.0000
# 3 -0.2952 21.5523 38.5976 0.0000 0.0000 0.0000
# 4 0.0000 0.0000 0.0000 8.1334 0.0000 0.0000
# 5 0.0000 0.0000 0.0000 0.0000 3.5904 0.0000
# 6 0.0000 0.0000 0.0000 0.0000 0.0000 1.4342
#
#
#
# Elastic Compliance Matrix: (Units=1/GPa)
#
#
# Indices 1 2 3 4 5 6 
#
# 1 0.007489 -0.003360 0.001934 0.000000 0.000000 0.000000
# 2 -0.003360 0.006833 -0.003841 0.000000 0.000000 0.000000
# 3 0.001934 -0.003841 0.028068 0.000000 0.000000 0.000000
# 4 0.000000 0.000000 0.000000 0.122950 0.000000 0.000000
# 5 0.000000 0.000000 0.000000 0.000000 0.278519 0.000000
# 6 0.000000 0.000000 0.000000 0.000000 0.000000 0.697257
#
#
# Mechanical properties :
#
#
# Convention : Reuss Voigt Hill
#
# Bulk Modulus (GPa) = 31.39262 68.93926 50.16594
# Shear Modulus (GPa) = 4.30193 22.92517 13.61355
#
# Velocity S-wave (km/s) = 1.36674 3.15509 2.43132
# Velocity P-wave (km/s) = 4.01522 6.57326 5.44655
#
# Compressibility (1/GPa) = 0.03185462
#
# Stress axis : x y z
#
# Youngs Moduli (GPa) = 133.52269 146.35469 35.62795
#
# Poissons Ratio (x) = 0.49179 -0.06889
# Poissons Ratio (y) = 0.44868 0.13685
# Poissons Ratio (z) = -0.25818 0.56215
#
# Static dielectric constant tensor:
#      x y z
#    x 1.789430 0.000000 0.000000 
#    y 0.000000 1.880580 0.000000 
#    z 0.000000 0.000000 1.885510 
# 
# From -- ./inp_files/57323.got.cif
#   From: 2010.05.17/outbox.cif.g08.bks.cpg/sg63_29_cif.got.tgz:57323.got - 2010.06.03 15:47:04.
