data_PCOD9473872
_publ_section_title
;
Structure prediction by ZEFSAII (Michael W. Deem and Ramdas Pophale) SiO2 
 PCOD9473872
Probable space group: C M C M
;
_chemical_formula_sum "Si O2"
_cell_formula_units_Z 52
_cell_length_a 7.456122
_cell_length_b 19.323143
_cell_length_c 13.564813
_cell_angle_alpha 90.000000
_cell_angle_beta 90.000000
_cell_angle_gamma 90.000000
_cell_volume 1954.360086
_symmetry_space_group_name_H-M "C M C M"
_symmetry_group_IT_number 63
_symmetry_cell_setting 'orthorhombic'
loop_
_space_group_symop_operation_xyz
x,y,z
-x,-y,1/2+z
x,-y,-z
-x,y,1/2-z
-x,-y,-z
x,y,1/2-z
-x,y,z
x,-y,1/2+z
1/2+x,1/2+y,z
1/2-x,1/2-y,1/2+z
1/2+x,1/2-y,-z
1/2-x,1/2+y,1/2-z
1/2-x,1/2-y,-z
1/2+x,1/2+y,1/2-z
1/2-x,1/2+y,z
1/2+x,1/2-y,1/2+z
loop_
_atom_site_type_symbol
_atom_site_label
_atom_site_fract_x
_atom_site_fract_y
_atom_site_fract_z
Si Si1 0.708562 0.413160 0.586259
Si Si2 0.203939 0.435036 0.359196
Si Si3 0.712463 0.260599 0.613526
Si Si4 0.000000 0.195210 0.750000
O O1 0.500000 0.421512 0.610041
O O2 0.800318 0.481594 0.627308
O O3 0.722403 0.412090 0.466289
O O4 0.768408 0.340490 0.631670
O O5 0.292103 0.422651 0.250000
O O6 0.000000 0.409149 0.354955
O O7 0.500000 0.254073 0.634470
O O8 0.750000 0.250000 0.500000
O O9 0.841414 0.207844 0.667097
#
# Coordination Sequence:
#
# PCOD9473872 Si02
#       4
#    16  16  16   4
#     4  10  22  38  60  88 126 165 209 272 323 386
#     4  10  21  35  58  89 122 166 214 258 327 393
#     4  11  25  46  70 103 136 175 229 281 338 408
#     4  12  26  44  80  94 136 186 222 282 350 390
#
# _framework density 26.607173
#
# number of rings (size 3 to 8) (size 9 to 14) (size 15 to 20)
#    0.000    1.538    1.538    4.154    6.462    2.462 
#    2.769    0.000    0.000    0.000    0.000    0.000 
#    0.000    0.000    0.000    0.000    0.000    0.000 
#
# Total GULP energy -145085.435782 kJ/mol
# GULP energy per Si atom -5580.209069 kJ/mol
# Density = 2.654661 g / cm^3
# Si number density = 26.607173 Si / 1000 Ang^3
#
#
#
# Elastic Constant Matrix: (Units=GPa)
#
#
# Indices 1 2 3 4 5 6 
#
# 1 106.6883 -31.4774 -14.3618 0.0000 0.0000 0.0000
# 2 -31.4774 140.7526 13.8613 0.0000 0.0000 0.0000
# 3 -14.3618 13.8613 182.4278 0.0000 0.0000 0.0000
# 4 0.0000 0.0000 0.0000 27.4802 0.0000 0.0000
# 5 0.0000 0.0000 0.0000 0.0000 65.1322 0.0000
# 6 0.0000 0.0000 0.0000 0.0000 0.0000 -29.0340
#
#
#
# Elastic Compliance Matrix: (Units=1/GPa)
#
#
# Indices 1 2 3 4 5 6 
#
# 1 0.010106 0.002198 0.000629 0.000000 0.000000 0.000000
# 2 0.002198 0.007636 -0.000407 0.000000 0.000000 0.000000
# 3 0.000629 -0.000407 0.005562 0.000000 0.000000 0.000000
# 4 0.000000 0.000000 0.000000 0.036390 0.000000 0.000000
# 5 0.000000 0.000000 0.000000 0.000000 0.015353 0.000000
# 6 0.000000 0.000000 0.000000 0.000000 0.000000 -0.034442
#
#
# Mechanical properties :
#
#
# Convention : Reuss Voigt Hill
#
# Bulk Modulus (GPa) = 35.53155 40.65700 38.09428
# Shear Modulus (GPa) = 110.74776 43.50544 77.12660
#
# Velocity S-wave (km/s) = 6.45861 4.04803 5.38981
# Velocity P-wave (km/s) = 8.30670 6.09609 7.28573
#
# Compressibility (1/GPa) = 0.02814400
#
# Stress axis : x y z
#
# Youngs Moduli (GPa) = 98.94833 130.95237 179.78992
#
# Poissons Ratio (x) = -0.28786 -0.11302
# Poissons Ratio (y) = -0.21751 0.07321
# Poissons Ratio (z) = -0.06220 0.05332
#
# Static dielectric constant tensor:
#      x y z
#    x 1.996170 0.000000 0.000000 
#    y 0.000000 2.209620 0.000000 
#    z 0.000000 0.000000 2.097270 
# 
# From -- ./inp_files/27123.got.cif
#   From: 2010.05.17/outbox.cif.g08.bks.cpg/sg63_14_cif.got.tgz:27123.got - 2010.06.03 15:47:04.
