data_PCOD9473943
_publ_section_title
;
Structure prediction by ZEFSAII (Michael W. Deem and Ramdas Pophale) SiO2 
 PCOD9473943
Probable space group: C M C M
;
_chemical_formula_sum "Si O2"
_cell_formula_units_Z 96
_cell_length_a 25.020571
_cell_length_b 22.702999
_cell_length_c 8.792278
_cell_angle_alpha 90.000000
_cell_angle_beta 90.000000
_cell_angle_gamma 90.000000
_cell_volume 4994.383166
_symmetry_space_group_name_H-M "C M C M"
_symmetry_group_IT_number 63
_symmetry_cell_setting 'orthorhombic'
loop_
_space_group_symop_operation_xyz
x,y,z
-x,-y,1/2+z
x,-y,-z
-x,y,1/2-z
-x,-y,-z
x,y,1/2-z
-x,y,z
x,-y,1/2+z
1/2+x,1/2+y,z
1/2-x,1/2-y,1/2+z
1/2+x,1/2-y,-z
1/2-x,1/2+y,1/2-z
1/2-x,1/2-y,-z
1/2+x,1/2+y,1/2-z
1/2-x,1/2+y,z
1/2+x,1/2-y,1/2+z
loop_
_atom_site_type_symbol
_atom_site_label
_atom_site_fract_x
_atom_site_fract_y
_atom_site_fract_z
Si Si1 0.807094 0.236187 0.572961
Si Si2 0.200569 0.096717 0.927977
Si Si3 0.383978 0.169359 0.932318
Si Si4 0.185887 0.435940 0.568999
Si Si5 0.000000 0.157998 0.933497
Si Si6 0.415014 0.560535 0.566476
Si Si7 0.500000 0.210960 0.933281
O O1 0.807863 0.254146 0.750000
O O2 0.750000 0.250000 0.500000
O O3 0.812446 0.166076 0.565629
O O4 0.852071 0.272544 0.485558
O O5 0.210034 0.081481 0.750000
O O6 0.146495 0.066292 0.983558
O O7 0.253843 0.081336 0.018740
O O8 0.380813 0.164438 0.750000
O O9 0.445648 0.177683 0.979001
O O10 0.354041 0.113646 0.004826
O O11 0.173857 0.500000 0.500000
O O12 0.182715 0.437805 0.750000
O O13 0.050936 0.117919 0.977743
O O14 0.000000 0.163864 0.750000
O O15 0.000000 0.222658 0.003326
O O16 0.437269 0.500000 0.500000
O O17 0.416088 0.558090 0.750000
O O18 0.500000 0.214549 0.750000
#
# Coordination Sequence:
#
# PCOD9473943 Si02
#       7
#    16  16  16  16   8  16   8
#     4  11  21  35  59  91 125 162 202 248 303 358
#     4  10  21  37  57  85 123 161 201 249 301 358
#     4  11  23  42  64  91 126 159 200 250 301 361
#     4  12  25  41  63  89 119 157 200 245 304 366
#     4  10  21  39  61  85 117 156 201 252 302 358
#     4  10  21  36  55  82 116 160 206 250 298 348
#     4  10  24  43  66  93 121 156 196 248 305 356
#
# _framework density 19.221592999999999
#
# number of rings (size 3 to 8) (size 9 to 14) (size 15 to 20)
#    0.000    1.333    1.667    4.250    0.000    6.000 
#    0.000    0.417    0.000    0.000    0.000    0.000 
#    0.000    0.000    0.000    0.000    0.000    0.000 
#
# Total GULP energy -268341.316984 kJ/mol
# GULP energy per Si atom -5590.444104 kJ/mol
# Density = 1.917784 g / cm^3
# Si number density = 19.221593 Si / 1000 Ang^3
#
#
#
# Elastic Constant Matrix: (Units=GPa)
#
#
# Indices 1 2 3 4 5 6 
#
# 1 159.7888 59.6513 49.7672 0.0000 0.0000 0.0000
# 2 59.6513 100.3496 39.3923 0.0000 0.0000 0.0000
# 3 49.7672 39.3923 74.2440 0.0000 0.0000 0.0000
# 4 0.0000 0.0000 0.0000 34.0424 0.0000 0.0000
# 5 0.0000 0.0000 0.0000 0.0000 4.4591 0.0000
# 6 0.0000 0.0000 0.0000 0.0000 0.0000 9.8935
#
#
#
# Elastic Compliance Matrix: (Units=1/GPa)
#
#
# Indices 1 2 3 4 5 6 
#
# 1 0.008888 -0.003719 -0.003984 0.000000 0.000000 0.000000
# 2 -0.003719 0.014143 -0.005011 0.000000 0.000000 0.000000
# 3 -0.003984 -0.005011 0.018799 0.000000 0.000000 0.000000
# 4 0.000000 0.000000 0.000000 0.029375 0.000000 0.000000
# 5 0.000000 0.000000 0.000000 0.000000 0.224263 0.000000
# 6 0.000000 0.000000 0.000000 0.000000 0.000000 0.101076
#
#
# Mechanical properties :
#
#
# Convention : Reuss Voigt Hill
#
# Bulk Modulus (GPa) = 60.97389 70.22264 65.59826
# Shear Modulus (GPa) = 11.69758 22.05044 16.87401
#
# Velocity S-wave (km/s) = 2.46959 3.39066 2.96610
# Velocity P-wave (km/s) = 6.31840 7.20703 6.77730
#
# Compressibility (1/GPa) = 0.01640046
#
# Stress axis : x y z
#
# Youngs Moduli (GPa) = 112.51700 70.70652 53.19565
#
# Poissons Ratio (x) = 0.26296 0.21194
# Poissons Ratio (y) = 0.41846 0.26656
# Poissons Ratio (z) = 0.44829 0.35431
#
# Static dielectric constant tensor:
#      x y z
#    x 1.673470 0.000000 0.000000 
#    y 0.000000 1.700510 0.000000 
#    z 0.000000 0.000000 1.651190 
# 
# From -- ./inp_files/10545.got.cif
#   From: 2010.05.17/outbox.cif.g08.bks.cpg/sg63_6_cif.got.tgz:10545.got - 2010.06.03 15:47:04.
