data_PCOD9473550
_publ_section_title
;
Structure prediction by ZEFSAII (Michael W. Deem and Ramdas Pophale) SiO2 
 PCOD9473550
Probable space group: C M C M
;
_chemical_formula_sum "Si O2"
_cell_formula_units_Z 72
_cell_length_a 23.031525
_cell_length_b 19.333481
_cell_length_c 8.737673
_cell_angle_alpha 90.000000
_cell_angle_beta 90.000000
_cell_angle_gamma 90.000000
_cell_volume 3890.707110
_symmetry_space_group_name_H-M "C M C M"
_symmetry_group_IT_number 63
_symmetry_cell_setting 'orthorhombic'
loop_
_space_group_symop_operation_xyz
x,y,z
-x,-y,1/2+z
x,-y,-z
-x,y,1/2-z
-x,-y,-z
x,y,1/2-z
-x,y,z
x,-y,1/2+z
1/2+x,1/2+y,z
1/2-x,1/2-y,1/2+z
1/2+x,1/2-y,-z
1/2-x,1/2+y,1/2-z
1/2-x,1/2-y,-z
1/2+x,1/2+y,1/2-z
1/2-x,1/2+y,z
1/2+x,1/2-y,1/2+z
loop_
_atom_site_type_symbol
_atom_site_label
_atom_site_fract_x
_atom_site_fract_y
_atom_site_fract_z
Si Si1 0.067853 0.671673 0.933462
Si Si2 0.234490 0.174688 0.567501
Si Si3 0.000000 0.076747 0.065379
Si Si4 0.608632 0.671735 0.065760
Si Si5 0.166485 0.423296 0.567825
O O1 0.074343 0.662018 0.750000
O O2 0.088579 0.749784 0.967961
O O3 0.000000 0.664475 0.971233
O O4 0.108576 0.617773 0.019159
O O5 0.239353 0.177155 0.750000
O O6 0.250000 0.250000 0.500000
O O7 0.169207 0.157308 0.516219
O O8 0.279851 0.119764 0.501145
O O9 0.057330 0.119659 0.019842
O O10 0.000000 0.074050 0.250000
O O11 0.000000 0.000000 0.000000
O O12 0.616464 0.667034 0.250000
O O13 0.165556 0.500000 0.500000
O O14 0.171403 0.425758 0.750000
#
# Coordination Sequence:
#
# PCOD9473550 Si02
#       5
#    16  16   8  16  16
#     4  10  20  38  66  95 124 164 211 261 313 372
#     4  12  24  40  64  95 127 165 211 261 313 375
#     4  10  22  40  62  92 129 170 207 256 313 367
#     4  10  20  38  64  92 124 165 213 258 309 370
#     4  12  26  44  65  93 128 167 208 263 320 376
#
# _framework density 18.505634000000001
#
# number of rings (size 3 to 8) (size 9 to 14) (size 15 to 20)
#    0.000    1.111    3.333    4.000    0.000    2.667 
#    0.000    2.222    0.000    0.000    0.000    0.000 
#    0.000    0.000    0.000    0.000    0.000    0.000 
#
# Total GULP energy -201357.412698 kJ/mol
# GULP energy per Si atom -5593.261464 kJ/mol
# Density = 1.846351 g / cm^3
# Si number density = 18.505634 Si / 1000 Ang^3
#
#
#
# Elastic Constant Matrix: (Units=GPa)
#
#
# Indices 1 2 3 4 5 6 
#
# 1 170.8090 84.3044 87.2527 0.0000 0.0000 0.0000
# 2 84.3044 163.8552 79.5957 0.0000 0.0000 0.0000
# 3 87.2527 79.5957 114.5079 0.0000 0.0000 0.0000
# 4 0.0000 0.0000 0.0000 29.2958 0.0000 0.0000
# 5 0.0000 0.0000 0.0000 0.0000 37.0076 0.0000
# 6 0.0000 0.0000 0.0000 0.0000 0.0000 31.6483
#
#
#
# Elastic Compliance Matrix: (Units=1/GPa)
#
#
# Indices 1 2 3 4 5 6 
#
# 1 0.010084 -0.002198 -0.006156 0.000000 0.000000 0.000000
# 2 -0.002198 0.009693 -0.005063 0.000000 0.000000 0.000000
# 3 -0.006156 -0.005063 0.016943 0.000000 0.000000 0.000000
# 4 0.000000 0.000000 0.000000 0.034135 0.000000 0.000000
# 5 0.000000 0.000000 0.000000 0.000000 0.027021 0.000000
# 6 0.000000 0.000000 0.000000 0.000000 0.000000 0.031597
#
#
# Mechanical properties :
#
#
# Convention : Reuss Voigt Hill
#
# Bulk Modulus (GPa) = 101.14928 105.71975 103.43452
# Shear Modulus (GPa) = 31.32772 32.79164 32.05968
#
# Velocity S-wave (km/s) = 4.11892 4.21406 4.16676
# Velocity P-wave (km/s) = 8.79761 8.99612 8.89742
#
# Compressibility (1/GPa) = 0.00988638
#
# Stress axis : x y z
#
# Youngs Moduli (GPa) = 99.16860 103.16410 59.02064
#
# Poissons Ratio (x) = 0.22674 0.36333
# Poissons Ratio (y) = 0.21796 0.29883
# Poissons Ratio (z) = 0.61048 0.52234
#
# Static dielectric constant tensor:
#      x y z
#    x 1.620870 0.000000 0.000000 
#    y 0.000000 1.600410 0.000000 
#    z 0.000000 0.000000 1.628190 
# 
# From -- ./inp_files/7871.got.cif
#   From: 2010.05.17/outbox.cif.g08.bks.cpg/sg63_4_cif.got.tgz:7871.got - 2010.06.03 15:47:04.
