data_PCOD9473695
_publ_section_title
;
Structure prediction by ZEFSAII (Michael W. Deem and Ramdas Pophale) SiO2 
 PCOD9473695
Probable space group: C M C M
;
_chemical_formula_sum "Si O2"
_cell_formula_units_Z 64
_cell_length_a 11.961769
_cell_length_b 9.699551
_cell_length_c 24.474059
_cell_angle_alpha 90.000000
_cell_angle_beta 90.000000
_cell_angle_gamma 90.000000
_cell_volume 2839.573044
_symmetry_space_group_name_H-M "C M C M"
_symmetry_group_IT_number 63
_symmetry_cell_setting 'orthorhombic'
loop_
_space_group_symop_operation_xyz
x,y,z
-x,-y,1/2+z
x,-y,-z
-x,y,1/2-z
-x,-y,-z
x,y,1/2-z
-x,y,z
x,-y,1/2+z
1/2+x,1/2+y,z
1/2-x,1/2-y,1/2+z
1/2+x,1/2-y,-z
1/2-x,1/2+y,1/2-z
1/2-x,1/2-y,-z
1/2+x,1/2+y,1/2-z
1/2-x,1/2+y,z
1/2+x,1/2-y,1/2+z
loop_
_atom_site_type_symbol
_atom_site_label
_atom_site_fract_x
_atom_site_fract_y
_atom_site_fract_z
Si Si1 0.000000 0.552385 0.934127
Si Si2 0.130985 0.941409 0.143777
Si Si3 0.000000 0.436132 0.187666
Si Si4 0.239784 0.373726 0.040216
Si Si5 0.208019 0.775549 0.810609
O O1 0.000000 0.481871 0.871674
O O2 0.117842 0.630326 0.932128
O O3 0.000000 0.500000 0.000000
O O4 0.162543 0.887999 0.083710
O O5 0.184214 0.819725 0.179971
O O6 0.000000 0.959844 0.153056
O O7 0.190716 0.090612 0.151477
O O8 0.106172 0.333175 0.186412
O O9 0.000000 0.501668 0.250000
O O10 0.244031 0.500000 0.000000
O O11 0.250000 0.250000 0.000000
O O12 0.209649 0.836590 0.750000
#
# Coordination Sequence:
#
# PCOD9473695 Si02
#       5
#     8  16   8  16  16
#     4  10  22  44  70 100 151 193 248 312 375 455
#     4  12  26  47  74 106 147 192 254 312 379 458
#     4  10  20  42  73 103 144 202 251 305 386 462
#     4  11  25  44  68 102 139 188 242 305 376 447
#     4  11  24  45  73 105 147 196 247 310 382 459
#
# _framework density 22.538599999999999
#
# number of rings (size 3 to 8) (size 9 to 14) (size 15 to 20)
#    0.000    1.000    3.750    2.250    1.750    2.000 
#    9.000    0.000    0.000    0.000    0.000    0.000 
#    0.000    0.000    0.000    0.000    0.000    0.000 
#
# Total GULP energy -178385.284877 kJ/mol
# GULP energy per Si atom -5574.540152 kJ/mol
# Density = 2.248730 g / cm^3
# Si number density = 22.538600 Si / 1000 Ang^3
#
#
#
# Elastic Constant Matrix: (Units=GPa)
#
#
# Indices 1 2 3 4 5 6 
#
# 1 81.8505 22.5472 2.5800 0.0000 0.0000 0.0000
# 2 22.5472 88.0190 18.5720 0.0000 0.0000 0.0000
# 3 2.5800 18.5720 144.0052 0.0000 0.0000 0.0000
# 4 0.0000 0.0000 0.0000 28.7915 0.0000 0.0000
# 5 0.0000 0.0000 0.0000 0.0000 32.3887 0.0000
# 6 0.0000 0.0000 0.0000 0.0000 0.0000 16.9474
#
#
#
# Elastic Compliance Matrix: (Units=1/GPa)
#
#
# Indices 1 2 3 4 5 6 
#
# 1 0.013151 -0.003412 0.000204 0.000000 0.000000 0.000000
# 2 -0.003412 0.012564 -0.001559 0.000000 0.000000 0.000000
# 3 0.000204 -0.001559 0.007142 0.000000 0.000000 0.000000
# 4 0.000000 0.000000 0.000000 0.034732 0.000000 0.000000
# 5 0.000000 0.000000 0.000000 0.000000 0.030875 0.000000
# 6 0.000000 0.000000 0.000000 0.000000 0.000000 0.059006
#
#
# Mechanical properties :
#
#
# Convention : Reuss Voigt Hill
#
# Bulk Modulus (GPa) = 42.87579 44.58591 43.73085
# Shear Modulus (GPa) = 28.60770 33.63721 31.12245
#
# Velocity S-wave (km/s) = 3.56655 3.86738 3.72001
# Velocity P-wave (km/s) = 6.00208 6.30612 6.15598
#
# Compressibility (1/GPa) = 0.02332319
#
# Stress axis : x y z
#
# Youngs Moduli (GPa) = 76.04089 79.59128 140.02420
#
# Poissons Ratio (x) = 0.27156 -0.02862
# Poissons Ratio (y) = 0.25944 0.21833
# Poissons Ratio (z) = -0.01554 0.12410
#
# Static dielectric constant tensor:
#      x y z
#    x 1.738390 0.000000 0.000000 
#    y 0.000000 1.826220 0.000000 
#    z 0.000000 0.000000 1.962560 
# 
# From -- ./inp_files/60870.got.cif
#   From: 2010.05.17/outbox.cif.g08.bks.cpg/sg63_31_cif.got.tgz:60870.got - 2010.06.03 15:47:04.
