data_PCOD9473200
_publ_section_title
;
Structure prediction by ZEFSAII (Michael W. Deem and Ramdas Pophale) SiO2 
 PCOD9473200
Probable space group: C M C M
;
_chemical_formula_sum "Si O2"
_cell_formula_units_Z 116
_cell_length_a 20.555966
_cell_length_b 14.625295
_cell_length_c 20.568536
_cell_angle_alpha 90.000000
_cell_angle_beta 90.000000
_cell_angle_gamma 90.000000
_cell_volume 6183.664331
_symmetry_space_group_name_H-M "C M C M"
_symmetry_group_IT_number 63
_symmetry_cell_setting 'orthorhombic'
loop_
_space_group_symop_operation_xyz
x,y,z
-x,-y,1/2+z
x,-y,-z
-x,y,1/2-z
-x,-y,-z
x,y,1/2-z
-x,y,z
x,-y,1/2+z
1/2+x,1/2+y,z
1/2-x,1/2-y,1/2+z
1/2+x,1/2-y,-z
1/2-x,1/2+y,1/2-z
1/2-x,1/2-y,-z
1/2+x,1/2+y,1/2-z
1/2-x,1/2+y,z
1/2+x,1/2-y,1/2+z
loop_
_atom_site_type_symbol
_atom_site_label
_atom_site_fract_x
_atom_site_fract_y
_atom_site_fract_z
Si Si1 0.246860 0.632259 0.172261
Si Si2 0.425538 0.222523 0.483126
Si Si3 0.773919 0.657775 0.675180
Si Si4 0.846332 0.970386 0.176025
Si Si5 0.649573 0.935428 0.442972
Si Si6 0.921854 0.077022 0.549919
Si Si7 0.500000 0.081993 0.250000
Si Si8 0.400654 0.905346 0.630262
O O1 0.238091 0.626347 0.250000
O O2 0.270472 0.735151 0.158102
O O3 0.301385 0.556913 0.156099
O O4 0.176462 0.610617 0.142383
O O5 0.500000 0.224818 0.508066
O O6 0.381506 0.153918 0.524507
O O7 0.398642 0.324546 0.475551
O O8 0.425680 0.179634 0.411302
O O9 0.800456 0.646802 0.750000
O O10 0.701711 0.616496 0.677761
O O11 0.809598 0.600522 0.618837
O O12 0.870447 0.985855 0.250000
O O13 0.898851 0.949084 0.121690
O O14 0.681455 0.000000 0.500000
O O15 0.595450 0.003403 0.413465
O O16 0.000000 0.080946 0.549346
O O17 0.899335 0.000000 0.500000
O O18 0.557034 0.083480 0.193711
#
# Coordination Sequence:
#
# PCOD9473200 Si02
#       8
#    16  16  16  16  16  16   4  16
#     4  10  20  36  60  86 128 156 194 249 306 355
#     4  10  22  41  59  84 121 163 204 249 306 363
#     4  10  21  38  61  89 118 162 200 249 307 363
#     4  10  21  39  62  92 121 158 195 254 315 360
#     4  10  23  38  61  87 126 162 199 250 308 369
#     4  10  23  43  64  87 119 161 213 260 302 357
#     4  12  24  32  70  96 126 166 202 244 312 368
#     4  11  21  39  59  94 125 158 198 252 300 368
#
# _framework density 18.759104000000001
#
# number of rings (size 3 to 8) (size 9 to 14) (size 15 to 20)
#    0.000    1.793    2.759    0.828    3.862    1.655 
#    1.241    3.448    0.000    0.000    0.000    0.000 
#    0.000    0.000    0.000    0.000    0.000    0.000 
#
# Total GULP energy -322883.502098 kJ/mol
# GULP energy per Si atom -5566.956933 kJ/mol
# Density = 1.871641 g / cm^3
# Si number density = 18.759104 Si / 1000 Ang^3
#
#
#
# Elastic Constant Matrix: (Units=GPa)
#
#
# Indices 1 2 3 4 5 6 
#
# 1 27.2193 21.5154 29.1511 0.0000 0.0000 0.0000
# 2 21.5154 141.7611 46.8635 0.0000 0.0000 0.0000
# 3 29.1511 46.8635 114.8924 0.0000 0.0000 0.0000
# 4 0.0000 0.0000 0.0000 21.9430 0.0000 0.0000
# 5 0.0000 0.0000 0.0000 0.0000 13.8985 0.0000
# 6 0.0000 0.0000 0.0000 0.0000 0.0000 17.6511
#
#
#
# Elastic Compliance Matrix: (Units=1/GPa)
#
#
# Indices 1 2 3 4 5 6 
#
# 1 0.052445 -0.004116 -0.011628 0.000000 0.000000 0.000000
# 2 -0.004116 0.008477 -0.002413 0.000000 0.000000 0.000000
# 3 -0.011628 -0.002413 0.012638 0.000000 0.000000 0.000000
# 4 0.000000 0.000000 0.000000 0.045573 0.000000 0.000000
# 5 0.000000 0.000000 0.000000 0.000000 0.071950 0.000000
# 6 0.000000 0.000000 0.000000 0.000000 0.000000 0.056654
#
#
# Mechanical properties :
#
#
# Convention : Reuss Voigt Hill
#
# Bulk Modulus (GPa) = 26.84831 53.21475 40.03153
# Shear Modulus (GPa) = 16.86538 23.12139 19.99338
#
# Velocity S-wave (km/s) = 3.00167 3.51457 3.26820
# Velocity P-wave (km/s) = 5.13387 6.70064 5.96888
#
# Compressibility (1/GPa) = 0.03724629
#
# Stress axis : x y z
#
# Youngs Moduli (GPa) = 19.06762 117.97258 79.12398
#
# Poissons Ratio (x) = 0.48554 0.92004
# Poissons Ratio (y) = 0.07848 0.19094
# Poissons Ratio (z) = 0.22171 0.28470
#
# Static dielectric constant tensor:
#      x y z
#    x 1.639900 0.000000 0.000000 
#    y 0.000000 1.677870 0.000000 
#    z 0.000000 0.000000 1.662200 
# 
# From -- ./inp_files/48288.got.cif
#   From: 2010.05.17/outbox.cif.g08.bks.cpg/sg63_25_cif.got.tgz:48288.got - 2010.06.03 15:47:04.
