data_PCOD9473339
_publ_section_title
;
Structure prediction by ZEFSAII (Michael W. Deem and Ramdas Pophale) SiO2 
 PCOD9473339
Probable space group: C M C M
;
_chemical_formula_sum "Si O2"
_cell_formula_units_Z 96
_cell_length_a 24.209311
_cell_length_b 25.619528
_cell_length_c 8.642586
_cell_angle_alpha 90.000000
_cell_angle_beta 90.000000
_cell_angle_gamma 90.000000
_cell_volume 5360.400803
_symmetry_space_group_name_H-M "C M C M"
_symmetry_group_IT_number 63
_symmetry_cell_setting 'orthorhombic'
loop_
_space_group_symop_operation_xyz
x,y,z
-x,-y,1/2+z
x,-y,-z
-x,y,1/2-z
-x,-y,-z
x,y,1/2-z
-x,y,z
x,-y,1/2+z
1/2+x,1/2+y,z
1/2-x,1/2-y,1/2+z
1/2+x,1/2-y,-z
1/2-x,1/2+y,1/2-z
1/2-x,1/2-y,-z
1/2+x,1/2+y,1/2-z
1/2-x,1/2+y,z
1/2+x,1/2-y,1/2+z
loop_
_atom_site_type_symbol
_atom_site_label
_atom_site_fract_x
_atom_site_fract_y
_atom_site_fract_z
Si Si1 0.618252 0.648619 0.063311
Si Si2 0.311517 0.750215 0.063885
Si Si3 0.384205 0.850325 0.063652
Si Si4 0.500000 0.811896 0.565340
Si Si5 0.310347 0.058340 0.064944
Si Si6 0.000000 0.194211 0.063321
Si Si7 0.690877 0.557887 0.934350
O O1 0.621346 0.642983 0.250000
O O2 0.655509 0.698310 0.017079
O O3 0.555358 0.662807 0.022572
O O4 0.643507 0.597608 0.985631
O O5 0.309319 0.750586 0.250000
O O6 0.345728 0.801310 0.015770
O O7 0.250000 0.750000 0.000000
O O8 0.385369 0.852518 0.250000
O O9 0.445202 0.839110 0.001110
O O10 0.356349 0.902242 0.997132
O O11 0.500000 0.814377 0.750000
O O12 0.500000 0.751446 0.511387
O O13 0.309860 0.057201 0.250000
O O14 0.249849 0.075763 0.004414
O O15 0.318918 0.000000 0.000000
O O16 0.000000 0.202005 0.250000
O O17 0.695777 0.555600 0.750000
O O18 0.680602 0.500000 0.000000
#
# Coordination Sequence:
#
# PCOD9473339 Si02
#       7
#    16  16  16   8  16   8  16
#     4  10  20  37  59  84 113 152 196 243 293 350
#     4  10  21  34  54  82 116 150 187 232 290 348
#     4  11  22  40  61  85 117 158 199 241 293 350
#     4  12  24  38  59  88 119 158 202 245 290 345
#     4  11  22  39  62  90 120 155 196 242 294 351
#     4  10  20  40  63  82 113 158 201 241 296 351
#     4  11  22  38  60  87 118 156 196 241 294 352
#
# _framework density 17.909109000000001
#
# number of rings (size 3 to 8) (size 9 to 14) (size 15 to 20)
#    0.000    1.333    1.667    6.250    0.000    5.333 
#    0.000    0.833    0.000    0.000    0.000    0.000 
#    0.000    0.000    0.000    0.000    0.000    0.000 
#
# Total GULP energy -268348.827151 kJ/mol
# GULP energy per Si atom -5590.600566 kJ/mol
# Density = 1.786835 g / cm^3
# Si number density = 17.909109 Si / 1000 Ang^3
#
#
#
# Elastic Constant Matrix: (Units=GPa)
#
#
# Indices 1 2 3 4 5 6 
#
# 1 184.3515 87.1270 64.2944 0.0000 0.0000 0.0000
# 2 87.1270 98.8624 52.1082 0.0000 0.0000 0.0000
# 3 64.2944 52.1082 103.9560 0.0000 0.0000 0.0000
# 4 0.0000 0.0000 0.0000 28.9060 0.0000 0.0000
# 5 0.0000 0.0000 0.0000 0.0000 27.4216 0.0000
# 6 0.0000 0.0000 0.0000 0.0000 0.0000 22.8272
#
#
#
# Elastic Compliance Matrix: (Units=1/GPa)
#
#
# Indices 1 2 3 4 5 6 
#
# 1 0.009694 -0.007316 -0.002328 0.000000 0.000000 0.000000
# 2 -0.007316 0.019269 -0.005134 0.000000 0.000000 0.000000
# 3 -0.002328 -0.005134 0.013633 0.000000 0.000000 0.000000
# 4 0.000000 0.000000 0.000000 0.034595 0.000000 0.000000
# 5 0.000000 0.000000 0.000000 0.000000 0.036468 0.000000
# 6 0.000000 0.000000 0.000000 0.000000 0.000000 0.043807
#
#
# Mechanical properties :
#
#
# Convention : Reuss Voigt Hill
#
# Bulk Modulus (GPa) = 76.69143 88.24769 82.46956
# Shear Modulus (GPa) = 26.12767 28.07365 27.10066
#
# Velocity S-wave (km/s) = 3.82370 3.96354 3.89425
# Velocity P-wave (km/s) = 7.89999 8.38621 8.14673
#
# Compressibility (1/GPa) = 0.01303927
#
# Stress axis : x y z
#
# Youngs Moduli (GPa) = 103.15434 51.89787 73.35314
#
# Poissons Ratio (x) = 0.37970 0.17079
# Poissons Ratio (y) = 0.75470 0.37656
# Poissons Ratio (z) = 0.24018 0.26642
#
# Static dielectric constant tensor:
#      x y z
#    x 1.588990 0.000000 0.000000 
#    y 0.000000 1.591670 0.000000 
#    z 0.000000 0.000000 1.602820 
# 
# From -- ./inp_files/10525.got.cif
#   From: 2010.05.17/outbox.cif.g08.bks.cpg/sg63_6_cif.got.tgz:10525.got - 2010.06.03 15:47:04.
