data_PCOD9473793
_publ_section_title
;
Structure prediction by ZEFSAII (Michael W. Deem and Ramdas Pophale) SiO2 
 PCOD9473793
Probable space group: C M C M
;
_chemical_formula_sum "Si O2"
_cell_formula_units_Z 80
_cell_length_a 7.798190
_cell_length_b 29.777338
_cell_length_c 20.245086
_cell_angle_alpha 90.000000
_cell_angle_beta 90.000000
_cell_angle_gamma 90.000000
_cell_volume 4701.098047
_symmetry_space_group_name_H-M "C M C M"
_symmetry_group_IT_number 63
_symmetry_cell_setting 'orthorhombic'
loop_
_space_group_symop_operation_xyz
x,y,z
-x,-y,1/2+z
x,-y,-z
-x,y,1/2-z
-x,-y,-z
x,y,1/2-z
-x,y,z
x,-y,1/2+z
1/2+x,1/2+y,z
1/2-x,1/2-y,1/2+z
1/2+x,1/2-y,-z
1/2-x,1/2+y,1/2-z
1/2-x,1/2-y,-z
1/2+x,1/2+y,1/2-z
1/2-x,1/2+y,z
1/2+x,1/2-y,1/2+z
loop_
_atom_site_type_symbol
_atom_site_label
_atom_site_fract_x
_atom_site_fract_y
_atom_site_fract_z
Si Si1 0.000000 0.058534 0.069111
Si Si2 0.799234 0.374953 0.944989
Si Si3 0.294010 0.799448 0.324420
Si Si4 0.000000 0.043196 0.909964
Si Si5 0.800078 0.609519 0.603077
Si Si6 0.297301 0.774140 0.568438
O O1 0.170383 0.087646 0.082756
O O2 0.000000 0.009840 0.102563
O O3 0.000000 0.049904 0.989732
O O4 0.731606 0.325130 0.927667
O O5 0.000000 0.380684 0.925482
O O6 0.794982 0.378785 0.024957
O O7 0.227641 0.794572 0.250000
O O8 0.500000 0.801797 0.321840
O O9 0.239473 0.846291 0.357722
O O10 0.250840 0.757927 0.371377
O O11 0.830032 0.068735 0.885028
O O12 0.000000 0.599787 0.619414
O O13 0.500000 0.779196 0.567320
O O14 0.250000 0.750000 0.500000
#
# Coordination Sequence:
#
# PCOD9473793 Si02
#       6
#     8  16  16   8  16  16
#     4   9  18  30  48  70 104 132 166 219 261 305
#     4   9  18  30  46  73 102 134 174 212 259 315
#     4  10  21  35  50  74 108 143 177 219 270 323
#     4   9  18  30  47  74  96 134 173 205 264 316
#     4   9  17  31  48  69 101 135 171 210 260 318
#     4  11  21  31  51  77 103 141 185 222 264 322
#
# _framework density 17.017299999999999
#
# number of rings (size 3 to 8) (size 9 to 14) (size 15 to 20)
#    0.000    2.400    2.000    0.600    4.200    1.200 
#    0.000    4.000    0.000    0.000    0.000    2.800 
#    0.000    3.200    0.000    0.000    0.000    0.000 
#
# Total GULP energy -222957.560449 kJ/mol
# GULP energy per Si atom -5573.939011 kJ/mol
# Density = 1.697857 g / cm^3
# Si number density = 17.017300 Si / 1000 Ang^3
#
#
#
# Elastic Constant Matrix: (Units=GPa)
#
#
# Indices 1 2 3 4 5 6 
#
# 1 80.1835 73.9153 22.3004 0.0000 0.0000 0.0000
# 2 73.9153 185.9438 41.9740 0.0000 0.0000 0.0000
# 3 22.3004 41.9740 47.0944 0.0000 0.0000 0.0000
# 4 0.0000 0.0000 0.0000 7.1298 0.0000 0.0000
# 5 0.0000 0.0000 0.0000 0.0000 11.9700 0.0000
# 6 0.0000 0.0000 0.0000 0.0000 0.0000 30.9557
#
#
#
# Elastic Compliance Matrix: (Units=1/GPa)
#
#
# Indices 1 2 3 4 5 6 
#
# 1 0.020015 -0.007282 -0.002987 0.000000 0.000000 0.000000
# 2 -0.007282 0.009382 -0.004914 0.000000 0.000000 0.000000
# 3 -0.002987 -0.004914 0.027028 0.000000 0.000000 0.000000
# 4 0.000000 0.000000 0.000000 0.140257 0.000000 0.000000
# 5 0.000000 0.000000 0.000000 0.000000 0.083542 0.000000
# 6 0.000000 0.000000 0.000000 0.000000 0.000000 0.032304
#
#
# Mechanical properties :
#
#
# Convention : Reuss Voigt Hill
#
# Bulk Modulus (GPa) = 38.37473 65.51124 51.94298
# Shear Modulus (GPa) = 14.22151 21.67988 17.95070
#
# Velocity S-wave (km/s) = 2.89400 3.57317 3.25137
# Velocity P-wave (km/s) = 5.81088 7.45680 6.68469
#
# Compressibility (1/GPa) = 0.02605882
#
# Stress axis : x y z
#
# Youngs Moduli (GPa) = 49.96296 106.58985 36.99871
#
# Poissons Ratio (x) = 0.77617 0.11053
# Poissons Ratio (y) = 0.36382 0.18180
# Poissons Ratio (z) = 0.14926 0.52374
#
# Static dielectric constant tensor:
#      x y z
#    x 1.560290 0.000000 0.000000 
#    y 0.000000 1.589840 0.000000 
#    z 0.000000 0.000000 1.549540 
# 
# From -- ./inp_files/51217.got.cif
#   From: 2010.05.17/outbox.cif.g08.bks.cpg/sg63_26_cif.got.tgz:51217.got - 2010.06.03 15:47:04.
