data_PCOD9473489
_publ_section_title
;
Structure prediction by ZEFSAII (Michael W. Deem and Ramdas Pophale) SiO2 
 PCOD9473489
Probable space group: C M C M
;
_chemical_formula_sum "Si O2"
_cell_formula_units_Z 96
_cell_length_a 20.461184
_cell_length_b 14.392449
_cell_length_c 17.930039
_cell_angle_alpha 90.000000
_cell_angle_beta 90.000000
_cell_angle_gamma 90.000000
_cell_volume 5280.155276
_symmetry_space_group_name_H-M "C M C M"
_symmetry_group_IT_number 63
_symmetry_cell_setting 'orthorhombic'
loop_
_space_group_symop_operation_xyz
x,y,z
-x,-y,1/2+z
x,-y,-z
-x,y,1/2-z
-x,-y,-z
x,y,1/2-z
-x,y,z
x,-y,1/2+z
1/2+x,1/2+y,z
1/2-x,1/2-y,1/2+z
1/2+x,1/2-y,-z
1/2-x,1/2+y,1/2-z
1/2-x,1/2-y,-z
1/2+x,1/2+y,1/2-z
1/2-x,1/2+y,z
1/2+x,1/2-y,1/2+z
loop_
_atom_site_type_symbol
_atom_site_label
_atom_site_fract_x
_atom_site_fract_y
_atom_site_fract_z
Si Si1 0.423756 0.579484 0.662175
Si Si2 0.309346 0.560552 0.337986
Si Si3 0.807311 0.758736 0.939198
Si Si4 0.922959 0.251543 0.946848
Si Si5 0.076347 0.535664 0.084771
Si Si6 0.687578 0.077757 0.836884
O O1 0.413714 0.600591 0.750000
O O2 0.500000 0.554577 0.651787
O O3 0.375410 0.495662 0.642706
O O4 0.410161 0.670347 0.612839
O O5 0.312013 0.585879 0.250000
O O6 0.299896 0.649573 0.389419
O O7 0.249713 0.489161 0.348338
O O8 0.805869 0.668700 0.886948
O O9 0.750000 0.750000 0.000000
O O10 0.875817 0.761855 0.983233
O O11 0.910113 0.354143 0.913796
O O12 0.000000 0.248907 0.966878
O O13 0.123838 0.479183 0.138034
O O14 0.000000 0.520748 0.102536
O O15 0.087090 0.500000 0.000000
O O16 0.684315 0.102542 0.750000
#
# Coordination Sequence:
#
# PCOD9473489 Si02
#       6
#    16  16  16  16  16  16
#     4   9  19  38  61  85 116 153 195 242 290 342
#     4  10  23  41  60  84 116 153 193 241 294 348
#     4  12  24  38  60  86 115 154 196 237 294 356
#     4  10  21  36  59  89 117 150 192 242 290 340
#     4  10  20  38  61  85 118 155 193 238 290 349
#     4  11  24  40  59  85 118 153 195 245 294 351
#
# _framework density 18.181281999999999
#
# number of rings (size 3 to 8) (size 9 to 14) (size 15 to 20)
#    0.000    1.667    1.667    2.500    0.000    3.667 
#    0.000    7.500    0.000    3.000    0.000    0.000 
#    0.000    0.000    0.000    0.000    0.000    0.000 
#
# Total GULP energy -268217.698825 kJ/mol
# GULP energy per Si atom -5587.868726 kJ/mol
# Density = 1.813990 g / cm^3
# Si number density = 18.181282 Si / 1000 Ang^3
#
#
#
# Elastic Constant Matrix: (Units=GPa)
#
#
# Indices 1 2 3 4 5 6 
#
# 1 80.2908 71.4474 76.3280 0.0000 0.0000 0.0000
# 2 71.4474 144.8308 99.2200 0.0000 0.0000 0.0000
# 3 76.3280 99.2200 112.9759 0.0000 0.0000 0.0000
# 4 0.0000 0.0000 0.0000 42.9445 0.0000 0.0000
# 5 0.0000 0.0000 0.0000 0.0000 31.4265 0.0000
# 6 0.0000 0.0000 0.0000 0.0000 0.0000 21.9103
#
#
#
# Elastic Compliance Matrix: (Units=1/GPa)
#
#
# Indices 1 2 3 4 5 6 
#
# 1 0.035230 -0.002695 -0.021435 0.000000 0.000000 0.000000
# 2 -0.002695 0.017540 -0.013583 0.000000 0.000000 0.000000
# 3 -0.021435 -0.013583 0.035263 0.000000 0.000000 0.000000
# 4 0.000000 0.000000 0.000000 0.023286 0.000000 0.000000
# 5 0.000000 0.000000 0.000000 0.000000 0.031820 0.000000
# 6 0.000000 0.000000 0.000000 0.000000 0.000000 0.045641
#
#
# Mechanical properties :
#
#
# Convention : Reuss Voigt Hill
#
# Bulk Modulus (GPa) = 79.32905 92.45425 85.89165
# Shear Modulus (GPa) = 18.62843 25.32974 21.97909
#
# Velocity S-wave (km/s) = 3.20440 3.73658 3.48067
# Velocity P-wave (km/s) = 7.57746 8.34133 7.96855
#
# Compressibility (1/GPa) = 0.01260572
#
# Stress axis : x y z
#
# Youngs Moduli (GPa) = 28.38510 57.01367 28.35864
#
# Poissons Ratio (x) = 0.15364 0.60787
# Poissons Ratio (y) = 0.07649 0.38521
# Poissons Ratio (z) = 0.60843 0.77444
#
# Static dielectric constant tensor:
#      x y z
#    x 1.622500 0.000000 0.000000 
#    y 0.000000 1.592280 0.000000 
#    z 0.000000 0.000000 1.612650 
# 
# From -- ./inp_files/35319.got.cif
#   From: 2010.05.17/outbox.cif.g08.bks.cpg/sg63_18_cif.got.tgz:35319.got - 2010.06.03 15:47:04.
