data_PCOD9473467
_publ_section_title
;
Structure prediction by ZEFSAII (Michael W. Deem and Ramdas Pophale) SiO2 
 PCOD9473467
Probable space group: C M C M
;
_chemical_formula_sum "Si O2"
_cell_formula_units_Z 80
_cell_length_a 12.335773
_cell_length_b 20.052400
_cell_length_c 14.577972
_cell_angle_alpha 90.000000
_cell_angle_beta 90.000000
_cell_angle_gamma 90.000000
_cell_volume 3606.034189
_symmetry_space_group_name_H-M "C M C M"
_symmetry_group_IT_number 63
_symmetry_cell_setting 'orthorhombic'
loop_
_space_group_symop_operation_xyz
x,y,z
-x,-y,1/2+z
x,-y,-z
-x,y,1/2-z
-x,-y,-z
x,y,1/2-z
-x,y,z
x,-y,1/2+z
1/2+x,1/2+y,z
1/2-x,1/2-y,1/2+z
1/2+x,1/2-y,-z
1/2-x,1/2+y,1/2-z
1/2-x,1/2-y,-z
1/2+x,1/2+y,1/2-z
1/2-x,1/2+y,z
1/2+x,1/2-y,1/2+z
loop_
_atom_site_type_symbol
_atom_site_label
_atom_site_fract_x
_atom_site_fract_y
_atom_site_fract_z
Si Si1 0.755749 0.901415 0.113306
Si Si2 0.500000 0.382369 0.352375
Si Si3 0.118189 0.521360 0.750000
Si Si4 0.000000 0.073072 0.449360
Si Si5 0.876527 0.730509 0.854583
Si Si6 0.878418 0.635775 0.250000
Si Si7 0.709449 0.636459 0.411175
O O1 0.681945 0.955790 0.160575
O O2 0.707515 0.830018 0.143640
O O3 0.878697 0.912566 0.147020
O O4 0.749060 0.896982 0.004229
O O5 0.500000 0.346361 0.250000
O O6 0.500000 0.372337 0.465630
O O7 0.108768 0.443283 0.750000
O O8 0.000000 0.554119 0.750000
O O9 0.893466 0.088584 0.389285
O O10 0.000000 0.000000 0.500000
O O11 0.877183 0.757742 0.750000
O O12 0.840697 0.789585 0.921410
O O13 0.000000 0.708531 0.875016
O O14 0.805036 0.648550 0.339080
O O15 0.000000 0.665994 0.250000
#
# Coordination Sequence:
#
# PCOD9473467 Si02
#       7
#    16   8   8   8  16   8  16
#     4  11  23  40  67  98 127 171 209 270 328 384
#     4  10  20  38  59  95 134 156 209 262 323 392
#     4  11  24  44  67  95 120 163 226 267 315 387
#     4  10  24  39  66 100 127 170 218 262 325 389
#     4  11  21  40  66  95 128 168 219 266 319 389
#     4  11  28  46  63  93 132 175 222 269 325 391
#     4  11  24  44  65  95 136 170 216 270 325 391
#
# _framework density 22.185037000000001
#
# number of rings (size 3 to 8) (size 9 to 14) (size 15 to 20)
#    0.000    1.200    4.000    1.200    5.600    2.000 
#    1.800    2.000    0.000    0.000    0.000    0.000 
#    0.000    0.000    0.000    0.000    0.000    0.000 
#
# Total GULP energy -222675.356107 kJ/mol
# GULP energy per Si atom -5566.883903 kJ/mol
# Density = 2.213454 g / cm^3
# Si number density = 22.185037 Si / 1000 Ang^3
#
#
#
# Elastic Constant Matrix: (Units=GPa)
#
#
# Indices 1 2 3 4 5 6 
#
# 1 175.1318 8.7092 34.5786 0.0000 0.0000 0.0000
# 2 8.7092 53.7894 -24.5514 0.0000 0.0000 0.0000
# 3 34.5786 -24.5514 93.3601 0.0000 0.0000 0.0000
# 4 0.0000 0.0000 0.0000 26.7709 0.0000 0.0000
# 5 0.0000 0.0000 0.0000 0.0000 36.5115 0.0000
# 6 0.0000 0.0000 0.0000 0.0000 0.0000 15.2997
#
#
#
# Elastic Compliance Matrix: (Units=1/GPa)
#
#
# Indices 1 2 3 4 5 6 
#
# 1 0.006426 -0.002417 -0.003015 0.000000 0.000000 0.000000
# 2 -0.002417 0.022036 0.006690 0.000000 0.000000 0.000000
# 3 -0.003015 0.006690 0.013587 0.000000 0.000000 0.000000
# 4 0.000000 0.000000 0.000000 0.037354 0.000000 0.000000
# 5 0.000000 0.000000 0.000000 0.000000 0.027389 0.000000
# 6 0.000000 0.000000 0.000000 0.000000 0.000000 0.065361
#
#
# Mechanical properties :
#
#
# Convention : Reuss Voigt Hill
#
# Bulk Modulus (GPa) = 22.43941 39.97268 31.20604
# Shear Modulus (GPa) = 27.10155 35.95274 31.52714
#
# Velocity S-wave (km/s) = 3.49895 4.03002 3.77384
# Velocity P-wave (km/s) = 5.14394 6.30172 5.75204
#
# Compressibility (1/GPa) = 0.04456445
#
# Stress axis : x y z
#
# Youngs Moduli (GPa) = 155.62887 45.38054 73.59786
#
# Poissons Ratio (x) = 0.10967 0.22193
# Poissons Ratio (y) = 0.37611 -0.49237
# Poissons Ratio (z) = 0.46929 -0.30359
#
# Static dielectric constant tensor:
#      x y z
#    x 1.898040 0.000000 0.000000 
#    y 0.000000 1.813440 0.000000 
#    z 0.000000 0.000000 2.114290 
# 
# From -- ./inp_files/29805.got.cif
#   From: 2010.05.17/outbox.cif.g08.bks.cpg/sg63_15_cif.got.tgz:29805.got - 2010.06.03 15:47:04.
