data_PCOD9473469
_publ_section_title
;
Structure prediction by ZEFSAII (Michael W. Deem and Ramdas Pophale) SiO2 
 PCOD9473469
Probable space group: C M C M
;
_chemical_formula_sum "Si O2"
_cell_formula_units_Z 72
_cell_length_a 17.360810
_cell_length_b 25.297914
_cell_length_c 7.869426
_cell_angle_alpha 90.000000
_cell_angle_beta 90.000000
_cell_angle_gamma 90.000000
_cell_volume 3456.191134
_symmetry_space_group_name_H-M "C M C M"
_symmetry_group_IT_number 63
_symmetry_cell_setting 'orthorhombic'
loop_
_space_group_symop_operation_xyz
x,y,z
-x,-y,1/2+z
x,-y,-z
-x,y,1/2-z
-x,-y,-z
x,y,1/2-z
-x,y,z
x,-y,1/2+z
1/2+x,1/2+y,z
1/2-x,1/2-y,1/2+z
1/2+x,1/2-y,-z
1/2-x,1/2+y,1/2-z
1/2-x,1/2-y,-z
1/2+x,1/2+y,1/2-z
1/2-x,1/2+y,z
1/2+x,1/2-y,1/2+z
loop_
_atom_site_type_symbol
_atom_site_label
_atom_site_fract_x
_atom_site_fract_y
_atom_site_fract_z
Si Si1 0.623196 0.644641 0.550167
Si Si2 0.412272 0.060702 0.953351
Si Si3 0.500000 0.561396 0.954826
Si Si4 0.585698 0.237978 0.458311
Si Si5 0.703423 0.849402 0.552561
O O1 0.605148 0.647071 0.750000
O O2 0.574124 0.595157 0.482939
O O3 0.597726 0.701933 0.481913
O O4 0.714489 0.640199 0.530634
O O5 0.408832 0.066421 0.750000
O O6 0.500000 0.072371 0.009821
O O7 0.351942 0.100340 0.034601
O O8 0.396147 0.000000 0.000000
O O9 0.500000 0.561830 0.750000
O O10 0.500000 0.500000 0.000000
O O11 0.587925 0.237153 0.250000
O O12 0.500000 0.219451 0.508032
O O13 0.654246 0.199998 0.518203
O O14 0.719133 0.838777 0.750000
#
# Coordination Sequence:
#
# PCOD9473469 Si02
#       5
#    16  16   8  16  16
#     4  10  20  38  60  81 110 150 196 243 292 348
#     4  10  21  38  59  82 112 150 191 235 282 337
#     4  10  22  40  64  86 108 148 197 246 299 350
#     4   9  17  33  58  84 113 151 195 238 288 349
#     4  11  22  34  55  88 121 152 188 235 291 351
#
# _framework density 20.832182
#
# number of rings (size 3 to 8) (size 9 to 14) (size 15 to 20)
#    0.000    2.000    1.111    2.667    0.000    4.000 
#    0.000    3.333    0.000    2.667    0.000    0.000 
#    0.000    0.000    0.000    0.000    0.000    0.000 
#
# Total GULP energy -201081.478570 kJ/mol
# GULP energy per Si atom -5585.596627 kJ/mol
# Density = 2.078477 g / cm^3
# Si number density = 20.832182 Si / 1000 Ang^3
#
#
#
# Elastic Constant Matrix: (Units=GPa)
#
#
# Indices 1 2 3 4 5 6 
#
# 1 148.9183 97.6239 -0.9061 0.0000 0.0000 0.0000
# 2 97.6239 145.4467 -1.0296 0.0000 0.0000 0.0000
# 3 -0.9061 -1.0296 25.3609 0.0000 0.0000 0.0000
# 4 0.0000 0.0000 0.0000 16.8826 0.0000 0.0000
# 5 0.0000 0.0000 0.0000 0.0000 6.9906 0.0000
# 6 0.0000 0.0000 0.0000 0.0000 0.0000 438.2811
#
#
#
# Elastic Compliance Matrix: (Units=1/GPa)
#
#
# Indices 1 2 3 4 5 6 
#
# 1 0.011992 -0.008048 0.000102 0.000000 0.000000 0.000000
# 2 -0.008048 0.012279 0.000211 0.000000 0.000000 0.000000
# 3 0.000102 0.000211 0.039443 0.000000 0.000000 0.000000
# 4 0.000000 0.000000 0.000000 0.059233 0.000000 0.000000
# 5 0.000000 0.000000 0.000000 0.000000 0.143050 0.000000
# 6 0.000000 0.000000 0.000000 0.000000 0.000000 0.002282
#
#
# Mechanical properties :
#
#
# Convention : Reuss Voigt Hill
#
# Bulk Modulus (GPa) = 20.72861 56.78914 38.75888
# Shear Modulus (GPa) = 16.67618 107.36671 62.02144
#
# Velocity S-wave (km/s) = 2.83238 7.18685 5.46229
# Velocity P-wave (km/s) = 4.54625 9.80750 7.64381
#
# Compressibility (1/GPa) = 0.04824250
#
# Stress axis : x y z
#
# Youngs Moduli (GPa) = 83.39131 81.44163 25.35306
#
# Poissons Ratio (x) = 0.65545 -0.00258
# Poissons Ratio (y) = 0.67114 -0.00535
# Poissons Ratio (z) = -0.00848 -0.01718
#
# Static dielectric constant tensor:
#      x y z
#    x 1.727990 0.000000 0.000000 
#    y 0.000000 1.733280 0.000000 
#    z 0.000000 0.000000 1.774490 
# 
# From -- ./inp_files/4625.got.cif
#   From: 2010.05.17/outbox.cif.g08.bks.cpg/sg63_3_cif.got.tgz:4625.got - 2010.06.03 15:47:04.
