data_PCOD9473908
_publ_section_title
;
Structure prediction by ZEFSAII (Michael W. Deem and Ramdas Pophale) SiO2 
 PCOD9473908
Probable space group: C M C M
;
_chemical_formula_sum "Si O2"
_cell_formula_units_Z 80
_cell_length_a 12.920783
_cell_length_b 21.942487
_cell_length_c 12.795733
_cell_angle_alpha 90.000000
_cell_angle_beta 90.000000
_cell_angle_gamma 90.000000
_cell_volume 3627.770892
_symmetry_space_group_name_H-M "C M C M"
_symmetry_group_IT_number 63
_symmetry_cell_setting 'orthorhombic'
loop_
_space_group_symop_operation_xyz
x,y,z
-x,-y,1/2+z
x,-y,-z
-x,y,1/2-z
-x,-y,-z
x,y,1/2-z
-x,y,z
x,-y,1/2+z
1/2+x,1/2+y,z
1/2-x,1/2-y,1/2+z
1/2+x,1/2-y,-z
1/2-x,1/2+y,1/2-z
1/2-x,1/2-y,-z
1/2+x,1/2+y,1/2-z
1/2-x,1/2+y,z
1/2+x,1/2-y,1/2+z
loop_
_atom_site_type_symbol
_atom_site_label
_atom_site_fract_x
_atom_site_fract_y
_atom_site_fract_z
Si Si1 0.113039 0.032517 0.631451
Si Si2 0.674256 0.066851 0.517530
Si Si3 0.387627 0.294003 0.467549
Si Si4 0.834156 0.312209 0.127806
Si Si5 0.326463 0.607026 0.133431
O O1 0.120883 0.055156 0.750000
O O2 0.213843 0.053141 0.570690
O O3 0.000000 0.049957 0.590361
O O4 0.120549 0.959183 0.635217
O O5 0.630760 0.120071 0.590543
O O6 0.708848 0.095490 0.406737
O O7 0.625206 0.000000 0.500000
O O8 0.500000 0.294903 0.415859
O O9 0.290220 0.303400 0.390779
O O10 0.377524 0.234367 0.541021
O O11 0.378070 0.347903 0.552308
O O12 0.859068 0.301839 0.250000
O O13 0.328817 0.632456 0.250000
#
# Coordination Sequence:
#
# PCOD9473908 Si02
#       5
#    16  16  16  16  16
#     4   9  16  25  39  61  90 125 162 200 250 316
#     4   9  18  30  45  66  98 134 171 218 268 314
#     4  10  21  36  54  78 109 142 176 220 272 322
#     4  10  21  36  55  81 109 140 184 229 269 323
#     4   9  17  28  43  65  93 127 166 205 253 319
#
# _framework density 22.052109999999999
#
# number of rings (size 3 to 8) (size 9 to 14) (size 15 to 20)
#    0.000    2.600    0.000    1.800    0.000   10.400 
#    0.000    0.000    0.000    0.600    0.000    0.000 
#    0.000    0.000    0.000    0.000    0.000    0.000 
#
# Total GULP energy -223119.463767 kJ/mol
# GULP energy per Si atom -5577.986594 kJ/mol
# Density = 2.200192 g / cm^3
# Si number density = 22.052110 Si / 1000 Ang^3
#
#
#
# Elastic Constant Matrix: (Units=GPa)
#
#
# Indices 1 2 3 4 5 6 
#
# 1 61.8415 -5.5243 -4.2027 0.0000 0.0000 0.0000
# 2 -5.5243 116.2249 1.8538 0.0000 0.0000 0.0000
# 3 -4.2027 1.8538 75.0913 0.0000 0.0000 0.0000
# 4 0.0000 0.0000 0.0000 21.6830 0.0000 0.0000
# 5 0.0000 0.0000 0.0000 0.0000 0.8322 0.0000
# 6 0.0000 0.0000 0.0000 0.0000 0.0000 -0.8752
#
#
#
# Elastic Compliance Matrix: (Units=1/GPa)
#
#
# Indices 1 2 3 4 5 6 
#
# 1 0.016299 0.000760 0.000893 0.000000 0.000000 0.000000
# 2 0.000760 0.008643 -0.000171 0.000000 0.000000 0.000000
# 3 0.000893 -0.000171 0.013371 0.000000 0.000000 0.000000
# 4 0.000000 0.000000 0.000000 0.046119 0.000000 0.000000
# 5 0.000000 0.000000 0.000000 0.000000 1.201606 0.000000
# 6 0.000000 0.000000 0.000000 0.000000 0.000000 -1.142643
#
#
# Mechanical properties :
#
#
# Convention : Reuss Voigt Hill
#
# Bulk Modulus (GPa) = 24.22514 26.37904 25.30209
# Shear Modulus (GPa) = 32.42781 21.73007 27.07894
#
# Velocity S-wave (km/s) = 3.83888 3.14251 3.50802
# Velocity P-wave (km/s) = 5.53702 5.01550 5.28270
#
# Compressibility (1/GPa) = 0.04127944
#
# Stress axis : x y z
#
# Youngs Moduli (GPa) = 61.35334 115.70216 74.78684
#
# Poissons Ratio (x) = -0.08799 -0.06682
# Poissons Ratio (y) = -0.04666 0.01277
# Poissons Ratio (z) = -0.05482 0.01976
#
# Static dielectric constant tensor:
#      x y z
#    x 1.829420 0.000000 0.000000 
#    y 0.000000 1.888720 0.000000 
#    z 0.000000 0.000000 1.833830 
# 
# From -- ./inp_files/31648.got.cif
#   From: 2010.05.17/outbox.cif.g08.bks.cpg/sg63_16_cif.got.tgz:31648.got - 2010.06.03 15:47:04.
