data_PCOD9473399
_publ_section_title
;
Structure prediction by ZEFSAII (Michael W. Deem and Ramdas Pophale) SiO2 
 PCOD9473399
Probable space group: C M C M
;
_chemical_formula_sum "Si O2"
_cell_formula_units_Z 100
_cell_length_a 20.970774
_cell_length_b 29.667414
_cell_length_c 7.790312
_cell_angle_alpha 90.000000
_cell_angle_beta 90.000000
_cell_angle_gamma 90.000000
_cell_volume 4846.731970
_symmetry_space_group_name_H-M "C M C M"
_symmetry_group_IT_number 63
_symmetry_cell_setting 'orthorhombic'
loop_
_space_group_symop_operation_xyz
x,y,z
-x,-y,1/2+z
x,-y,-z
-x,y,1/2-z
-x,-y,-z
x,y,1/2-z
-x,y,z
x,-y,1/2+z
1/2+x,1/2+y,z
1/2-x,1/2-y,1/2+z
1/2+x,1/2-y,-z
1/2-x,1/2+y,1/2-z
1/2-x,1/2-y,-z
1/2+x,1/2+y,1/2-z
1/2-x,1/2+y,z
1/2+x,1/2-y,1/2+z
loop_
_atom_site_type_symbol
_atom_site_label
_atom_site_fract_x
_atom_site_fract_y
_atom_site_fract_z
Si Si1 0.315073 0.224214 0.455353
Si Si2 0.500000 0.673931 0.250000
Si Si3 0.072815 0.550853 0.042962
Si Si4 0.672172 0.876509 0.948108
Si Si5 0.396058 0.307598 0.454323
Si Si6 0.307329 0.389869 0.445791
Si Si7 0.070219 0.052727 0.045086
O O1 0.313928 0.220760 0.250000
O O2 0.250000 0.250000 0.500000
O O3 0.322369 0.173652 0.526895
O O4 0.374043 0.256968 0.497959
O O5 0.445305 0.675616 0.403725
O O6 0.071562 0.553605 0.250000
O O7 0.121188 0.588766 0.975780
O O8 0.000000 0.556963 0.980565
O O9 0.093387 0.500000 0.000000
O O10 0.652808 0.870141 0.750000
O O11 0.743281 0.897136 0.949382
O O12 0.415276 0.310149 0.250000
O O13 0.334346 0.339677 0.471063
O O14 0.287774 0.395554 0.250000
O O15 0.368399 0.421340 0.478270
O O16 0.069403 0.058136 0.250000
O O17 0.000000 0.068556 0.981063
O O18 0.074838 0.000000 0.000000
#
# Coordination Sequence:
#
# PCOD9473399 Si02
#       7
#    16   4  16  16  16  16  16
#     4  10  20  37  62  87 122 161 207 264 316 381
#     4  12  26  40  68  86 130 176 212 272 320 382
#     4   9  19  38  63  90 120 157 204 253 317 391
#     4  10  21  37  62  91 119 162 211 254 311 383
#     4  10  24  42  61  94 127 168 218 264 317 379
#     4  11  23  37  57  87 123 158 204 263 306 365
#     4  10  22  39  60  83 112 152 199 248 310 375
#
# _framework density 20.632459000000001
#
# number of rings (size 3 to 8) (size 9 to 14) (size 15 to 20)
#    0.000    1.920    1.600    1.200    4.480    2.240 
#    1.440    1.600    0.000    0.000    0.000    0.000 
#    0.000    0.000    0.000    0.000    0.000    0.000 
#
# Total GULP energy -278483.631049 kJ/mol
# GULP energy per Si atom -5569.672621 kJ/mol
# Density = 2.058550 g / cm^3
# Si number density = 20.632459 Si / 1000 Ang^3
#
#
#
# Elastic Constant Matrix: (Units=GPa)
#
#
# Indices 1 2 3 4 5 6 
#
# 1 80.5300 62.8770 18.6865 0.0000 0.0000 0.0000
# 2 62.8770 126.3105 4.4318 0.0000 0.0000 0.0000
# 3 18.6865 4.4318 58.1200 0.0000 0.0000 0.0000
# 4 0.0000 0.0000 0.0000 17.0550 0.0000 0.0000
# 5 0.0000 0.0000 0.0000 0.0000 48.3985 0.0000
# 6 0.0000 0.0000 0.0000 0.0000 0.0000 -49.6521
#
#
#
# Elastic Compliance Matrix: (Units=1/GPa)
#
#
# Indices 1 2 3 4 5 6 
#
# 1 0.022450 -0.010951 -0.006383 0.000000 0.000000 0.000000
# 2 -0.010951 0.013281 0.002508 0.000000 0.000000 0.000000
# 3 -0.006383 0.002508 0.019067 0.000000 0.000000 0.000000
# 4 0.000000 0.000000 0.000000 0.058634 0.000000 0.000000
# 5 0.000000 0.000000 0.000000 0.000000 0.020662 0.000000
# 6 0.000000 0.000000 0.000000 0.000000 0.000000 -0.020140
#
#
# Mechanical properties :
#
#
# Convention : Reuss Voigt Hill
#
# Bulk Modulus (GPa) = 39.76911 48.55013 44.15962
# Shear Modulus (GPa) = 32.89787 15.09128 23.99458
#
# Velocity S-wave (km/s) = 3.99742 2.70744 3.41391
# Velocity P-wave (km/s) = 6.37359 5.77544 6.08187
#
# Compressibility (1/GPa) = 0.02514515
#
# Stress axis : x y z
#
# Youngs Moduli (GPa) = 44.54441 75.29822 52.44748
#
# Poissons Ratio (x) = 0.82462 0.33476
# Poissons Ratio (y) = 0.48782 -0.13156
# Poissons Ratio (z) = 0.28432 -0.18887
#
# Static dielectric constant tensor:
#      x y z
#    x 1.737250 0.000000 0.000000 
#    y 0.000000 1.778960 0.000000 
#    z 0.000000 0.000000 1.763130 
# 
# From -- ./inp_files/8740.got.cif
#   From: 2010.05.17/outbox.cif.g08.bks.cpg/sg63_5_cif.got.tgz:8740.got - 2010.06.03 15:47:04.
