data_PCOD9473644
_publ_section_title
;
Structure prediction by ZEFSAII (Michael W. Deem and Ramdas Pophale) SiO2 
 PCOD9473644
Probable space group: C M C M
;
_chemical_formula_sum "Si O2"
_cell_formula_units_Z 96
_cell_length_a 9.069590
_cell_length_b 20.404536
_cell_length_c 28.516192
_cell_angle_alpha 90.000000
_cell_angle_beta 90.000000
_cell_angle_gamma 90.000000
_cell_volume 5277.228610
_symmetry_space_group_name_H-M "C M C M"
_symmetry_group_IT_number 63
_symmetry_cell_setting 'orthorhombic'
loop_
_space_group_symop_operation_xyz
x,y,z
-x,-y,1/2+z
x,-y,-z
-x,y,1/2-z
-x,-y,-z
x,y,1/2-z
-x,y,z
x,-y,1/2+z
1/2+x,1/2+y,z
1/2-x,1/2-y,1/2+z
1/2+x,1/2-y,-z
1/2-x,1/2+y,1/2-z
1/2-x,1/2-y,-z
1/2+x,1/2+y,1/2-z
1/2-x,1/2+y,z
1/2+x,1/2-y,1/2+z
loop_
_atom_site_type_symbol
_atom_site_label
_atom_site_fract_x
_atom_site_fract_y
_atom_site_fract_z
Si Si1 0.823561 0.755532 0.804933
Si Si2 0.822271 0.360234 0.123046
Si Si3 0.327847 0.054979 0.459764
Si Si4 0.175189 0.998805 0.631825
Si Si5 0.322907 0.816258 0.017832
Si Si6 0.329287 0.108127 0.306304
O O1 0.789259 0.742245 0.750000
O O2 0.785658 0.694913 0.838445
O O3 0.741465 0.821986 0.819705
O O4 0.000000 0.766112 0.808275
O O5 0.745443 0.428989 0.133724
O O6 0.780147 0.335502 0.070977
O O7 0.000000 0.369817 0.123237
O O8 0.500000 0.057881 0.444625
O O9 0.286081 0.123782 0.483212
O O10 0.319025 0.000000 0.500000
O O11 0.227164 0.033920 0.416874
O O12 0.000000 0.002546 0.634646
O O13 0.240357 0.951579 0.671601
O O14 0.500000 0.809186 0.017682
O O15 0.250000 0.750000 0.000000
O O16 0.322980 0.104461 0.250000
O O17 0.500000 0.105283 0.320997
#
# Coordination Sequence:
#
# PCOD9473644 Si02
#       6
#    16  16  16  16  16  16
#     4   9  19  37  62  90 119 151 189 239 295 349
#     4  10  21  40  60  83 119 159 199 239 291 354
#     4  10  20  40  63  82 113 159 200 238 289 346
#     4  12  25  38  59  90 121 155 196 248 297 345
#     4  10  22  38  58  84 116 154 195 243 291 345
#     4  10  22  41  64  88 117 155 197 240 290 353
#
# _framework density 18.191367
#
# number of rings (size 3 to 8) (size 9 to 14) (size 15 to 20)
#    0.000    1.833    1.667    2.000    2.333    4.000 
#    0.000    1.667    0.000    0.000    0.000    0.000 
#    0.000    0.000    0.000    0.000    0.000    0.000 
#
# Total GULP energy -268158.440173 kJ/mol
# GULP energy per Si atom -5586.634170 kJ/mol
# Density = 1.814996 g / cm^3
# Si number density = 18.191367 Si / 1000 Ang^3
#
#
#
# Elastic Constant Matrix: (Units=GPa)
#
#
# Indices 1 2 3 4 5 6 
#
# 1 74.5345 82.3395 48.5234 0.0000 0.0000 0.0000
# 2 82.3395 200.2824 74.9435 0.0000 0.0000 0.0000
# 3 48.5234 74.9435 66.4629 0.0000 0.0000 0.0000
# 4 0.0000 0.0000 0.0000 35.1632 0.0000 0.0000
# 5 0.0000 0.0000 0.0000 0.0000 22.0343 0.0000
# 6 0.0000 0.0000 0.0000 0.0000 0.0000 36.2532
#
#
#
# Elastic Compliance Matrix: (Units=1/GPa)
#
#
# Indices 1 2 3 4 5 6 
#
# 1 0.030753 -0.007338 -0.014178 0.000000 0.000000 0.000000
# 2 -0.007338 0.010388 -0.006357 0.000000 0.000000 0.000000
# 3 -0.014178 -0.006357 0.032565 0.000000 0.000000 0.000000
# 4 0.000000 0.000000 0.000000 0.028439 0.000000 0.000000
# 5 0.000000 0.000000 0.000000 0.000000 0.045384 0.000000
# 6 0.000000 0.000000 0.000000 0.000000 0.000000 0.027584
#
#
# Mechanical properties :
#
#
# Convention : Reuss Voigt Hill
#
# Bulk Modulus (GPa) = 55.67587 83.65472 69.66529
# Shear Modulus (GPa) = 21.11092 27.72170 24.41631
#
# Velocity S-wave (km/s) = 3.41029 3.90794 3.66757
# Velocity P-wave (km/s) = 6.79551 8.15159 7.50424
#
# Compressibility (1/GPa) = 0.01796110
#
# Stress axis : x y z
#
# Youngs Moduli (GPa) = 32.51716 96.26336 30.70801
#
# Poissons Ratio (x) = 0.70636 0.43538
# Poissons Ratio (y) = 0.23860 0.19520
# Poissons Ratio (z) = 0.46103 0.61190
#
# Static dielectric constant tensor:
#      x y z
#    x 1.609650 0.000000 0.000000 
#    y 0.000000 1.588280 0.000000 
#    z 0.000000 0.000000 1.631080 
# 
# From -- ./inp_files/66878.got.cif
#   From: 2010.05.17/outbox.cif.g08.bks.cpg/sg63_34_cif.got.tgz:66878.got - 2010.06.03 15:47:04.
