data_PCOD9473419
_publ_section_title
;
Structure prediction by ZEFSAII (Michael W. Deem and Ramdas Pophale) SiO2 
 PCOD9473419
Probable space group: C M C M
;
_chemical_formula_sum "Si O2"
_cell_formula_units_Z 84
_cell_length_a 20.201331
_cell_length_b 7.962633
_cell_length_c 24.876508
_cell_angle_alpha 90.000000
_cell_angle_beta 90.000000
_cell_angle_gamma 90.000000
_cell_volume 4001.530219
_symmetry_space_group_name_H-M "C M C M"
_symmetry_group_IT_number 63
_symmetry_cell_setting 'orthorhombic'
loop_
_space_group_symop_operation_xyz
x,y,z
-x,-y,1/2+z
x,-y,-z
-x,y,1/2-z
-x,-y,-z
x,y,1/2-z
-x,y,z
x,-y,1/2+z
1/2+x,1/2+y,z
1/2-x,1/2-y,1/2+z
1/2+x,1/2-y,-z
1/2-x,1/2+y,1/2-z
1/2-x,1/2-y,-z
1/2+x,1/2+y,1/2-z
1/2-x,1/2+y,z
1/2+x,1/2-y,1/2+z
loop_
_atom_site_type_symbol
_atom_site_label
_atom_site_fract_x
_atom_site_fract_y
_atom_site_fract_z
Si Si1 0.000000 0.688738 0.750000
Si Si2 0.674988 0.810582 0.435669
Si Si3 0.648915 0.809803 0.750000
Si Si4 0.787840 0.061027 0.250000
Si Si5 0.825377 0.287813 0.558475
Si Si6 0.891182 0.818451 0.669154
Si Si7 0.574714 0.697063 0.649199
O O1 0.941242 0.705199 0.703190
O O2 0.751607 0.765754 0.424393
O O3 0.663192 0.742213 0.496032
O O4 0.626009 0.741243 0.390552
O O5 0.669730 0.011410 0.437077
O O6 0.709086 0.938167 0.750000
O O7 0.685688 0.628724 0.750000
O O8 0.604265 0.810220 0.697061
O O9 0.820869 0.154349 0.300751
O O10 0.878337 0.208527 0.598024
O O11 0.923175 0.004631 0.669255
O O12 0.500000 0.746655 0.637159
#
# Coordination Sequence:
#
# PCOD9473419 Si02
#       7
#     4  16   8   8  16  16  16
#     4  10  20  40  60  88 120 164 204 254 290 370
#     4  10  21  41  65  92 120 162 198 268 310 359
#     4  10  21  36  59  83 120 153 197 251 310 347
#     4   9  20  33  56  87 110 150 196 253 293 356
#     4  10  22  40  64  92 127 153 208 254 317 363
#     4  10  20  37  63  85 121 159 207 244 306 355
#     4  11  22  38  59  88 122 167 203 246 297 381
#
# _framework density 20.991969999999998
#
# number of rings (size 3 to 8) (size 9 to 14) (size 15 to 20)
#    0.000    1.905    0.952    3.143    0.000    6.857 
#    3.429    2.857    0.000    0.000    0.000    0.000 
#    0.000    0.000    0.000    0.000    0.000    0.000 
#
# Total GULP energy -234336.582683 kJ/mol
# GULP energy per Si atom -5579.442445 kJ/mol
# Density = 2.094419 g / cm^3
# Si number density = 20.991970 Si / 1000 Ang^3
#
#
#
# Elastic Constant Matrix: (Units=GPa)
#
#
# Indices 1 2 3 4 5 6 
#
# 1 120.2439 4.7220 72.9968 0.0000 0.0000 0.0000
# 2 4.7220 41.6536 5.6463 0.0000 0.0000 0.0000
# 3 72.9968 5.6463 115.7609 0.0000 0.0000 0.0000
# 4 0.0000 0.0000 0.0000 17.2709 0.0000 0.0000
# 5 0.0000 0.0000 0.0000 0.0000 47.7074 0.0000
# 6 0.0000 0.0000 0.0000 0.0000 0.0000 11.6378
#
#
#
# Elastic Compliance Matrix: (Units=1/GPa)
#
#
# Indices 1 2 3 4 5 6 
#
# 1 0.013481 -0.000378 -0.008482 0.000000 0.000000 0.000000
# 2 -0.000378 0.024178 -0.000941 0.000000 0.000000 0.000000
# 3 -0.008482 -0.000941 0.014033 0.000000 0.000000 0.000000
# 4 0.000000 0.000000 0.000000 0.057901 0.000000 0.000000
# 5 0.000000 0.000000 0.000000 0.000000 0.020961 0.000000
# 6 0.000000 0.000000 0.000000 0.000000 0.000000 0.085927
#
#
# Mechanical properties :
#
#
# Convention : Reuss Voigt Hill
#
# Bulk Modulus (GPa) = 31.16326 49.37654 40.26990
# Shear Modulus (GPa) = 20.26101 28.27610 24.26856
#
# Velocity S-wave (km/s) = 3.11010 3.67413 3.40382
# Velocity P-wave (km/s) = 5.27016 6.44761 5.88839
#
# Compressibility (1/GPa) = 0.03208907
#
# Stress axis : x y z
#
# Youngs Moduli (GPa) = 74.18079 41.36005 71.26021
#
# Poissons Ratio (x) = 0.01565 0.60444
# Poissons Ratio (y) = 0.02807 0.06703
# Poissons Ratio (z) = 0.62921 0.03891
#
# Static dielectric constant tensor:
#      x y z
#    x 1.709370 0.000000 0.000000 
#    y 0.000000 1.801100 0.000000 
#    z 0.000000 0.000000 1.751330 
# 
# From -- ./inp_files/64343.got.cif
#   From: 2010.05.17/outbox.cif.g08.bks.cpg/sg63_33_cif.got.tgz:64343.got - 2010.06.03 15:47:04.
