data_PCOD9473446
_publ_section_title
;
Structure prediction by ZEFSAII (Michael W. Deem and Ramdas Pophale) SiO2 
 PCOD9473446
Probable space group: C M C M
;
_chemical_formula_sum "Si O2"
_cell_formula_units_Z 96
_cell_length_a 19.400375
_cell_length_b 15.307959
_cell_length_c 15.483218
_cell_angle_alpha 90.000000
_cell_angle_beta 90.000000
_cell_angle_gamma 90.000000
_cell_volume 4598.208328
_symmetry_space_group_name_H-M "C M C M"
_symmetry_group_IT_number 63
_symmetry_cell_setting 'orthorhombic'
loop_
_space_group_symop_operation_xyz
x,y,z
-x,-y,1/2+z
x,-y,-z
-x,y,1/2-z
-x,-y,-z
x,y,1/2-z
-x,y,z
x,-y,1/2+z
1/2+x,1/2+y,z
1/2-x,1/2-y,1/2+z
1/2+x,1/2-y,-z
1/2-x,1/2+y,1/2-z
1/2-x,1/2-y,-z
1/2+x,1/2+y,1/2-z
1/2-x,1/2+y,z
1/2+x,1/2-y,1/2+z
loop_
_atom_site_type_symbol
_atom_site_label
_atom_site_fract_x
_atom_site_fract_y
_atom_site_fract_z
Si Si1 0.702767 0.667444 0.581034
Si Si2 0.078182 0.712729 0.459415
Si Si3 0.217336 0.827510 0.878152
Si Si4 0.776771 0.513270 0.653627
Si Si5 0.577147 0.031977 0.145157
Si Si6 0.580184 0.754708 0.154899
O O1 0.628751 0.713435 0.577299
O O2 0.748767 0.733149 0.638883
O O3 0.724979 0.665813 0.481167
O O4 0.717336 0.569379 0.609572
O O5 0.083055 0.624323 0.404199
O O6 0.092221 0.698432 0.562153
O O7 0.000000 0.743742 0.452742
O O8 0.138046 0.820767 0.849640
O O9 0.256352 0.911620 0.844083
O O10 0.781053 0.547335 0.750000
O O11 0.854353 0.519649 0.616937
O O12 0.580794 0.043493 0.250000
O O13 0.500000 0.995148 0.126229
O O14 0.588465 0.799365 0.250000
O O15 0.500000 0.726486 0.152739
#
# Coordination Sequence:
#
# PCOD9473446 Si02
#       6
#    16  16  16  16  16  16
#     4  10  21  36  58  85 114 154 200 249 300 363
#     4   9  17  34  60  88 119 158 202 252 312 361
#     4  10  20  38  58  80 114 157 195 247 303 355
#     4  11  22  35  57  87 118 154 199 252 305 363
#     4   9  18  34  57  85 120 163 206 251 305 361
#     4   9  18  33  56  85 115 154 201 245 299 369
#
# _framework density 20.877697000000001
#
# number of rings (size 3 to 8) (size 9 to 14) (size 15 to 20)
#    0.000    2.333    1.667    1.000    0.000    2.000 
#    0.000    1.667    0.000   10.000    0.000    0.000 
#    0.000    0.000    0.000    0.000    0.000    0.000 
#
# Total GULP energy -267475.537273 kJ/mol
# GULP energy per Si atom -5572.407027 kJ/mol
# Density = 2.083018 g / cm^3
# Si number density = 20.877697 Si / 1000 Ang^3
#
#
#
# Elastic Constant Matrix: (Units=GPa)
#
#
# Indices 1 2 3 4 5 6 
#
# 1 129.2407 44.6926 39.5864 0.0000 0.0000 0.0000
# 2 44.6926 57.9753 22.8000 0.0000 0.0000 0.0000
# 3 39.5864 22.8000 64.5282 0.0000 0.0000 0.0000
# 4 0.0000 0.0000 0.0000 1.3009 0.0000 0.0000
# 5 0.0000 0.0000 0.0000 0.0000 21.2869 0.0000
# 6 0.0000 0.0000 0.0000 0.0000 0.0000 26.5591
#
#
#
# Elastic Compliance Matrix: (Units=1/GPa)
#
#
# Indices 1 2 3 4 5 6 
#
# 1 0.011619 -0.007147 -0.004603 0.000000 0.000000 0.000000
# 2 -0.007147 0.024428 -0.004247 0.000000 0.000000 0.000000
# 3 -0.004603 -0.004247 0.019821 0.000000 0.000000 0.000000
# 4 0.000000 0.000000 0.000000 0.768685 0.000000 0.000000
# 5 0.000000 0.000000 0.000000 0.000000 0.046977 0.000000
# 6 0.000000 0.000000 0.000000 0.000000 0.000000 0.037652
#
#
# Mechanical properties :
#
#
# Convention : Reuss Voigt Hill
#
# Bulk Modulus (GPa) = 41.88373 51.76692 46.82532
# Shear Modulus (GPa) = 5.26796 19.47375 12.37086
#
# Velocity S-wave (km/s) = 1.59020 3.05741 2.43685
# Velocity P-wave (km/s) = 4.84527 6.10843 5.51314
#
# Compressibility (1/GPa) = 0.02387562
#
# Stress axis : x y z
#
# Youngs Moduli (GPa) = 86.06856 40.93627 50.45079
#
# Poissons Ratio (x) = 0.29256 0.23220
# Poissons Ratio (y) = 0.61510 0.21427
# Poissons Ratio (z) = 0.39614 0.17386
#
# Static dielectric constant tensor:
#      x y z
#    x 1.776360 0.000000 0.000000 
#    y 0.000000 1.730420 0.000000 
#    z 0.000000 0.000000 1.909560 
# 
# From -- ./inp_files/35384.got.cif
#   From: 2010.05.17/outbox.cif.g08.bks.cpg/sg63_18_cif.got.tgz:35384.got - 2010.06.03 15:47:04.
