data_PCOD9473660
_publ_section_title
;
Structure prediction by ZEFSAII (Michael W. Deem and Ramdas Pophale) SiO2 
 PCOD9473660
Probable space group: C M C M
;
_chemical_formula_sum "Si O2"
_cell_formula_units_Z 72
_cell_length_a 23.822109
_cell_length_b 5.980616
_cell_length_c 23.402085
_cell_angle_alpha 90.000000
_cell_angle_beta 90.000000
_cell_angle_gamma 90.000000
_cell_volume 3334.115790
_symmetry_space_group_name_H-M "C M C M"
_symmetry_group_IT_number 63
_symmetry_cell_setting 'orthorhombic'
loop_
_space_group_symop_operation_xyz
x,y,z
-x,-y,1/2+z
x,-y,-z
-x,y,1/2-z
-x,-y,-z
x,y,1/2-z
-x,y,z
x,-y,1/2+z
1/2+x,1/2+y,z
1/2-x,1/2-y,1/2+z
1/2+x,1/2-y,-z
1/2-x,1/2+y,1/2-z
1/2-x,1/2-y,-z
1/2+x,1/2+y,1/2-z
1/2-x,1/2+y,z
1/2+x,1/2-y,1/2+z
loop_
_atom_site_type_symbol
_atom_site_label
_atom_site_fract_x
_atom_site_fract_y
_atom_site_fract_z
Si Si1 0.386773 0.924995 0.681946
Si Si2 0.438752 0.344780 0.414607
Si Si3 0.392638 0.000000 0.500000
Si Si4 0.238604 0.692678 0.167864
Si Si5 0.652396 0.717808 0.100466
O O1 0.395022 0.918357 0.750000
O O2 0.432772 0.802585 0.643241
O O3 0.328374 0.802862 0.664823
O O4 0.376045 0.173521 0.657284
O O5 0.500000 0.454674 0.416067
O O6 0.386612 0.512431 0.416162
O O7 0.430623 0.181834 0.468271
O O8 0.354681 0.893175 0.450573
O O9 0.247358 0.439769 0.192635
O O10 0.282418 0.678430 0.114968
#
# Coordination Sequence:
#
# PCOD9473660 Si02
#       5
#    16  16   8  16  16
#     4  10  23  42  65  95 134 181 230 281 342 413
#     4  11  23  43  67  96 134 176 229 286 347 416
#     4  10  23  42  70  98 130 176 231 284 354 416
#     4  10  20  40  66  97 137 175 226 278 339 408
#     4  10  22  41  64 102 133 175 226 286 348 414
#
# _framework density 21.594930000000002
#
# number of rings (size 3 to 8) (size 9 to 14) (size 15 to 20)
#    0.000    1.778    2.222    1.000    0.000   10.222 
#    0.000   10.000    0.000    0.000    0.000    0.000 
#    0.000    0.000    0.000    0.000    0.000    0.000 
#
# Total GULP energy -200472.925346 kJ/mol
# GULP energy per Si atom -5568.692371 kJ/mol
# Density = 2.154578 g / cm^3
# Si number density = 21.594930 Si / 1000 Ang^3
#
#
#
# Elastic Constant Matrix: (Units=GPa)
#
#
# Indices 1 2 3 4 5 6 
#
# 1 72.6925 5.2892 32.7256 0.0000 0.0000 0.0000
# 2 5.2892 95.1889 18.0130 0.0000 0.0000 0.0000
# 3 32.7256 18.0130 125.0047 0.0000 0.0000 0.0000
# 4 0.0000 0.0000 0.0000 -87.8955 0.0000 0.0000
# 5 0.0000 0.0000 0.0000 0.0000 -32.9963 0.0000
# 6 0.0000 0.0000 0.0000 0.0000 0.0000 13.0232
#
#
#
# Elastic Compliance Matrix: (Units=1/GPa)
#
#
# Indices 1 2 3 4 5 6 
#
# 1 0.015595 -0.000097 -0.004069 0.000000 0.000000 0.000000
# 2 -0.000097 0.010801 -0.001531 0.000000 0.000000 0.000000
# 3 -0.004069 -0.001531 0.009286 0.000000 0.000000 0.000000
# 4 0.000000 0.000000 0.000000 -0.011377 0.000000 0.000000
# 5 0.000000 0.000000 0.000000 0.000000 -0.030306 0.000000
# 6 0.000000 0.000000 0.000000 0.000000 0.000000 0.076786
#
#
# Mechanical properties :
#
#
# Convention : Reuss Voigt Hill
#
# Bulk Modulus (GPa) = 41.17193 44.99352 43.08272
# Shear Modulus (GPa) = 55.38749 -5.78316 24.80217
#
# Velocity S-wave (km/s) = 5.06992 -1.63824 3.39266
# Velocity P-wave (km/s) = 7.30609 4.15957 5.94479
#
# Compressibility (1/GPa) = 0.02428839
#
# Stress axis : x y z
#
# Youngs Moduli (GPa) = 64.12161 92.58813 107.69442
#
# Poissons Ratio (x) = 0.00894 0.43819
# Poissons Ratio (y) = 0.00619 0.16489
# Poissons Ratio (z) = 0.26090 0.14176
#
# Static dielectric constant tensor:
#      x y z
#    x 1.769160 0.000000 0.000000 
#    y 0.000000 1.862440 0.000000 
#    z 0.000000 0.000000 1.766030 
# 
# From -- ./inp_files/65275.got.cif
#   From: 2010.05.17/outbox.cif.g08.bks.cpg/sg63_33_cif.got.tgz:65275.got - 2010.06.03 15:47:04.
