data_PCOD9473814
_publ_section_title
;
Structure prediction by ZEFSAII (Michael W. Deem and Ramdas Pophale) SiO2 
 PCOD9473814
Probable space group: C M C M
;
_chemical_formula_sum "Si O2"
_cell_formula_units_Z 96
_cell_length_a 16.206508
_cell_length_b 20.511519
_cell_length_c 15.382666
_cell_angle_alpha 90.000000
_cell_angle_beta 90.000000
_cell_angle_gamma 90.000000
_cell_volume 5113.507320
_symmetry_space_group_name_H-M "C M C M"
_symmetry_group_IT_number 63
_symmetry_cell_setting 'orthorhombic'
loop_
_space_group_symop_operation_xyz
x,y,z
-x,-y,1/2+z
x,-y,-z
-x,y,1/2-z
-x,-y,-z
x,y,1/2-z
-x,y,z
x,-y,1/2+z
1/2+x,1/2+y,z
1/2-x,1/2-y,1/2+z
1/2+x,1/2-y,-z
1/2-x,1/2+y,1/2-z
1/2-x,1/2-y,-z
1/2+x,1/2+y,1/2-z
1/2-x,1/2+y,z
1/2+x,1/2-y,1/2+z
loop_
_atom_site_type_symbol
_atom_site_label
_atom_site_fract_x
_atom_site_fract_y
_atom_site_fract_z
Si Si1 0.090624 0.534491 0.353747
Si Si2 0.222534 0.985163 0.600285
Si Si3 0.618464 0.812261 0.848354
Si Si4 0.593228 0.299045 0.014242
Si Si5 0.810150 0.164681 0.152219
Si Si6 0.096823 0.092383 0.653720
O O1 0.091532 0.524255 0.250000
O O2 0.178365 0.506509 0.386269
O O3 0.094725 0.612749 0.366948
O O4 0.000000 0.511223 0.386402
O O5 0.198342 0.911924 0.628078
O O6 0.205496 0.000000 0.500000
O O7 0.161934 0.033972 0.650406
O O8 0.589519 0.795947 0.750000
O O9 0.592702 0.764976 0.925723
O O10 0.717103 0.809727 0.845416
O O11 0.500000 0.314292 0.988207
O O12 0.620754 0.356523 0.079357
O O13 0.644762 0.298742 0.926169
O O14 0.845586 0.171221 0.250000
O O15 0.100372 0.122950 0.750000
O O16 0.000000 0.072652 0.640384
#
# Coordination Sequence:
#
# PCOD9473814 Si02
#       6
#    16  16  16  16  16  16
#     4   9  18  33  55  83 110 139 179 225 275 328
#     4  11  20  35  55  75 108 144 183 229 272 320
#     4   9  18  34  57  81 107 139 178 224 270 318
#     4  11  21  33  53  82 111 139 176 221 271 322
#     4  10  21  37  54  76 107 145 185 220 263 321
#     4  10  21  35  52  77 109 144 182 224 272 324
#
# _framework density 18.773807000000001
#
# number of rings (size 3 to 8) (size 9 to 14) (size 15 to 20)
#    0.000    2.000    1.667    4.000    0.000    3.333 
#    0.000    0.000    0.000    0.000    0.000    0.000 
#    0.000    0.000    0.000    0.000    0.000    0.000 
#
# Total GULP energy -267506.258229 kJ/mol
# GULP energy per Si atom -5573.047046 kJ/mol
# Density = 1.873108 g / cm^3
# Si number density = 18.773807 Si / 1000 Ang^3
#
#
#
# Elastic Constant Matrix: (Units=GPa)
#
#
# Indices 1 2 3 4 5 6 
#
# 1 67.8646 19.5554 46.2395 0.0000 0.0000 0.0000
# 2 19.5554 29.2757 18.6824 0.0000 0.0000 0.0000
# 3 46.2395 18.6824 129.5377 0.0000 0.0000 0.0000
# 4 0.0000 0.0000 0.0000 19.4963 0.0000 0.0000
# 5 0.0000 0.0000 0.0000 0.0000 -6.3817 0.0000
# 6 0.0000 0.0000 0.0000 0.0000 0.0000 15.4915
#
#
#
# Elastic Compliance Matrix: (Units=1/GPa)
#
#
# Indices 1 2 3 4 5 6 
#
# 1 0.022167 -0.010747 -0.006363 0.000000 0.000000 0.000000
# 2 -0.010747 0.042831 -0.002341 0.000000 0.000000 0.000000
# 3 -0.006363 -0.002341 0.010329 0.000000 0.000000 0.000000
# 4 0.000000 0.000000 0.000000 0.051292 0.000000 0.000000
# 5 0.000000 0.000000 0.000000 0.000000 -0.156698 0.000000
# 6 0.000000 0.000000 0.000000 0.000000 0.000000 0.064552
#
#
# Mechanical properties :
#
#
# Convention : Reuss Voigt Hill
#
# Bulk Modulus (GPa) = 27.45347 43.95917 35.70632
# Shear Modulus (GPa) = 58.46938 15.20126 36.83532
#
# Velocity S-wave (km/s) = 5.58675 2.84862 4.43432
# Velocity P-wave (km/s) = 7.50138 5.85538 6.72890
#
# Compressibility (1/GPa) = 0.03642527
#
# Stress axis : x y z
#
# Youngs Moduli (GPa) = 45.11165 23.34783 96.81792
#
# Poissons Ratio (x) = 0.25091 0.61604
# Poissons Ratio (y) = 0.48480 0.22666
# Poissons Ratio (z) = 0.28704 0.05466
#
# Static dielectric constant tensor:
#      x y z
#    x 1.670490 0.000000 0.000000 
#    y 0.000000 1.639270 0.000000 
#    z 0.000000 0.000000 1.684450 
# 
# From -- ./inp_files/31859.got.cif
#   From: 2010.05.17/outbox.cif.g08.bks.cpg/sg63_16_cif.got.tgz:31859.got - 2010.06.03 15:47:04.
