data_PCOD9473837
_publ_section_title
;
Structure prediction by ZEFSAII (Michael W. Deem and Ramdas Pophale) SiO2 
 PCOD9473837
Probable space group: C M C M
;
_chemical_formula_sum "Si O2"
_cell_formula_units_Z 96
_cell_length_a 8.814804
_cell_length_b 24.222992
_cell_length_c 25.790407
_cell_angle_alpha 90.000000
_cell_angle_beta 90.000000
_cell_angle_gamma 90.000000
_cell_volume 5506.791605
_symmetry_space_group_name_H-M "C M C M"
_symmetry_group_IT_number 63
_symmetry_cell_setting 'orthorhombic'
loop_
_space_group_symop_operation_xyz
x,y,z
-x,-y,1/2+z
x,-y,-z
-x,y,1/2-z
-x,-y,-z
x,y,1/2-z
-x,y,z
x,-y,1/2+z
1/2+x,1/2+y,z
1/2-x,1/2-y,1/2+z
1/2+x,1/2-y,-z
1/2-x,1/2+y,1/2-z
1/2-x,1/2-y,-z
1/2+x,1/2+y,1/2-z
1/2-x,1/2+y,z
1/2+x,1/2-y,1/2+z
loop_
_atom_site_type_symbol
_atom_site_label
_atom_site_fract_x
_atom_site_fract_y
_atom_site_fract_z
Si Si1 0.817636 0.384864 0.597056
Si Si2 0.182805 0.693213 0.309978
Si Si3 0.317938 0.619475 0.597950
Si Si4 0.182690 0.998536 0.560283
Si Si5 0.319042 0.812898 0.189322
Si Si6 0.182139 0.688937 0.503148
O O1 0.770151 0.353932 0.649719
O O2 0.747869 0.444781 0.588045
O O3 0.777282 0.345880 0.548298
O O4 0.000000 0.389939 0.597839
O O5 0.220793 0.680579 0.250000
O O6 0.257184 0.751827 0.323827
O O7 0.000000 0.699338 0.313505
O O8 0.500000 0.623345 0.595775
O O9 0.273709 0.556087 0.587118
O O10 0.258060 0.642880 0.652077
O O11 0.247992 0.656988 0.552564
O O12 0.000000 0.994947 0.560347
O O13 0.232787 0.000000 0.500000
O O14 0.284046 0.822501 0.250000
O O15 0.500000 0.814038 0.182631
O O16 0.250000 0.750000 0.500000
O O17 0.000000 0.691879 0.506557
#
# Coordination Sequence:
#
# PCOD9473837 Si02
#       6
#    16  16  16  16  16  16
#     4  10  21  35  54  81 110 143 184 227 275 329
#     4   9  18  35  58  83 113 148 184 224 274 333
#     4  11  22  37  57  80 109 146 188 229 276 333
#     4  10  21  38  57  78 106 145 188 230 277 327
#     4  10  21  37  58  85 114 145 183 228 279 331
#     4  11  22  34  52  81 114 145 181 228 281 335
#
# _framework density 17.433019000000002
#
# number of rings (size 3 to 8) (size 9 to 14) (size 15 to 20)
#    0.000    1.833    1.667    2.500    0.000    5.333 
#    0.000    0.833    0.000    3.000    0.000    0.000 
#    0.000    0.000    0.000    0.000    0.000    0.000 
#
# Total GULP energy -268104.781871 kJ/mol
# GULP energy per Si atom -5585.516289 kJ/mol
# Density = 1.739334 g / cm^3
# Si number density = 17.433019 Si / 1000 Ang^3
#
#
#
# Elastic Constant Matrix: (Units=GPa)
#
#
# Indices 1 2 3 4 5 6 
#
# 1 34.3515 55.0268 41.9647 0.0000 0.0000 0.0000
# 2 55.0268 192.1004 98.0863 0.0000 0.0000 0.0000
# 3 41.9647 98.0863 108.4605 0.0000 0.0000 0.0000
# 4 0.0000 0.0000 0.0000 23.0877 0.0000 0.0000
# 5 0.0000 0.0000 0.0000 0.0000 19.0127 0.0000
# 6 0.0000 0.0000 0.0000 0.0000 0.0000 34.1468
#
#
#
# Elastic Compliance Matrix: (Units=1/GPa)
#
#
# Indices 1 2 3 4 5 6 
#
# 1 0.065382 -0.010798 -0.015532 0.000000 0.000000 0.000000
# 2 -0.010798 0.011455 -0.006181 0.000000 0.000000 0.000000
# 3 -0.015532 -0.006181 0.020820 0.000000 0.000000 0.000000
# 4 0.000000 0.000000 0.000000 0.043313 0.000000 0.000000
# 5 0.000000 0.000000 0.000000 0.000000 0.052596 0.000000
# 6 0.000000 0.000000 0.000000 0.000000 0.000000 0.029285
#
#
# Mechanical properties :
#
#
# Convention : Reuss Voigt Hill
#
# Bulk Modulus (GPa) = 30.64298 80.56311 55.60305
# Shear Modulus (GPa) = 16.73630 24.57175 20.65402
#
# Velocity S-wave (km/s) = 3.10180 3.75840 3.44578
# Velocity P-wave (km/s) = 5.51760 8.07139 6.91344
#
# Compressibility (1/GPa) = 0.03263390
#
# Stress axis : x y z
#
# Youngs Moduli (GPa) = 15.29472 87.29930 48.03170
#
# Poissons Ratio (x) = 0.94265 0.74603
# Poissons Ratio (y) = 0.16515 0.29690
# Poissons Ratio (z) = 0.23756 0.53963
#
# Static dielectric constant tensor:
#      x y z
#    x 1.587430 0.000000 0.000000 
#    y 0.000000 1.556470 0.000000 
#    z 0.000000 0.000000 1.589610 
# 
# From -- ./inp_files/59839.got.cif
#   From: 2010.05.17/outbox.cif.g08.bks.cpg/sg63_30_cif.got.tgz:59839.got - 2010.06.03 15:47:04.
