data_PCOD9473869
_publ_section_title
;
Structure prediction by ZEFSAII (Michael W. Deem and Ramdas Pophale) SiO2 
 PCOD9473869
Probable space group: C M C M
;
_chemical_formula_sum "Si O2"
_cell_formula_units_Z 92
_cell_length_a 10.572399
_cell_length_b 25.421520
_cell_length_c 19.399364
_cell_angle_alpha 90.000000
_cell_angle_beta 90.000000
_cell_angle_gamma 90.000000
_cell_volume 5213.898245
_symmetry_space_group_name_H-M "C M C M"
_symmetry_group_IT_number 63
_symmetry_cell_setting 'orthorhombic'
loop_
_space_group_symop_operation_xyz
x,y,z
-x,-y,1/2+z
x,-y,-z
-x,y,1/2-z
-x,-y,-z
x,y,1/2-z
-x,y,z
x,-y,1/2+z
1/2+x,1/2+y,z
1/2-x,1/2-y,1/2+z
1/2+x,1/2-y,-z
1/2-x,1/2+y,1/2-z
1/2-x,1/2-y,-z
1/2+x,1/2+y,1/2-z
1/2-x,1/2+y,z
1/2+x,1/2-y,1/2+z
loop_
_atom_site_type_symbol
_atom_site_label
_atom_site_fract_x
_atom_site_fract_y
_atom_site_fract_z
Si Si1 0.753254 0.648786 0.564961
Si Si2 0.143186 0.931675 0.169760
Si Si3 0.000000 0.879287 0.644285
Si Si4 0.000000 0.817396 0.993624
Si Si5 0.500000 0.721205 0.250000
Si Si6 0.354007 0.056430 0.027309
Si Si7 0.246596 0.049797 0.172381
Si Si8 0.000000 0.716434 0.605490
O O1 0.718107 0.612087 0.629108
O O2 0.627374 0.679041 0.539356
O O3 0.788200 0.606845 0.505640
O O4 0.872999 0.683990 0.586098
O O5 0.138692 0.917904 0.250000
O O6 0.000000 0.934191 0.142250
O O7 0.202855 0.989379 0.165361
O O8 0.000000 0.864180 0.563417
O O9 0.000000 0.826528 0.690214
O O10 0.123697 0.913519 0.662085
O O11 0.000000 0.765529 0.947039
O O12 0.500000 0.765147 0.185879
O O13 0.500000 0.058139 0.005829
O O14 0.340243 0.059541 0.109424
O O15 0.301862 0.000000 0.000000
O O16 0.296022 0.057990 0.250000
#
# Coordination Sequence:
#
# PCOD9473869 Si02
#       8
#    16  16   8   8   4  16  16   8
#     4  12  22  41  65  90 121 165 204 260 318 359
#     4  10  21  35  57  93 132 161 195 242 306 380
#     4  11  19  35  65  93 118 148 194 254 316 361
#     4  11  24  40  64  93 113 154 215 274 309 358
#     4  10  24  44  62  88 114 158 216 254 310 372
#     4  11  23  38  57  89 130 167 204 243 306 392
#     4  11  20  34  60  92 129 158 194 246 308 380
#     4  11  27  44  62  87 121 163 219 269 306 370
#
# _framework density 17.645146
#
# number of rings (size 3 to 8) (size 9 to 14) (size 15 to 20)
#    0.000    1.043    6.957    0.522    1.217    0.348 
#    0.000    2.609    0.000    0.000    2.261    0.000 
#    0.000    0.000    0.000    0.000    0.000    0.000 
#
# Total GULP energy -256082.842139 kJ/mol
# GULP energy per Si atom -5567.018307 kJ/mol
# Density = 1.760499 g / cm^3
# Si number density = 17.645146 Si / 1000 Ang^3
#
#
#
# Elastic Constant Matrix: (Units=GPa)
#
#
# Indices 1 2 3 4 5 6 
#
# 1 77.8684 41.0369 37.7461 0.0000 0.0000 0.0000
# 2 41.0369 98.3186 52.7363 0.0000 0.0000 0.0000
# 3 37.7461 52.7363 98.1207 0.0000 0.0000 0.0000
# 4 0.0000 0.0000 0.0000 30.1829 0.0000 0.0000
# 5 0.0000 0.0000 0.0000 0.0000 15.7242 0.0000
# 6 0.0000 0.0000 0.0000 0.0000 0.0000 -3.3652
#
#
#
# Elastic Compliance Matrix: (Units=1/GPa)
#
#
# Indices 1 2 3 4 5 6 
#
# 1 0.017484 -0.005185 -0.003939 0.000000 0.000000 0.000000
# 2 -0.005185 0.015828 -0.006513 0.000000 0.000000 0.000000
# 3 -0.003939 -0.006513 0.015207 0.000000 0.000000 0.000000
# 4 0.000000 0.000000 0.000000 0.033131 0.000000 0.000000
# 5 0.000000 0.000000 0.000000 0.000000 0.063596 0.000000
# 6 0.000000 0.000000 0.000000 0.000000 0.000000 -0.297162
#
#
# Mechanical properties :
#
#
# Convention : Reuss Voigt Hill
#
# Bulk Modulus (GPa) = 57.98344 59.70514 58.84429
# Shear Modulus (GPa) = -43.51884 18.02761 -12.74561
#
# Velocity S-wave (km/s) = -4.97161 3.19983 -2.69053
# Velocity P-wave (km/s) = 0.15385 6.89652 4.87536
#
# Compressibility (1/GPa) = 0.01724630
#
# Stress axis : x y z
#
# Youngs Moduli (GPa) = 57.19492 63.17818 65.75786
#
# Poissons Ratio (x) = 0.32755 0.25905
# Poissons Ratio (y) = 0.29653 0.42826
# Poissons Ratio (z) = 0.22532 0.41146
#
# Static dielectric constant tensor:
#      x y z
#    x 1.613200 0.000000 0.000000 
#    y 0.000000 1.593260 0.000000 
#    z 0.000000 0.000000 1.612570 
# 
# From -- ./inp_files/51145.got.cif
#   From: 2010.05.17/outbox.cif.g08.bks.cpg/sg63_26_cif.got.tgz:51145.got - 2010.06.03 15:47:04.
