data_PCOD9473067
_publ_section_title
;
Structure prediction by ZEFSAII (Michael W. Deem and Ramdas Pophale) SiO2 
 PCOD9473067
Probable space group: C M C M
;
_chemical_formula_sum "Si O2"
_cell_formula_units_Z 100
_cell_length_a 9.448202
_cell_length_b 20.013793
_cell_length_c 27.106573
_cell_angle_alpha 90.000000
_cell_angle_beta 90.000000
_cell_angle_gamma 90.000000
_cell_volume 5125.700047
_symmetry_space_group_name_H-M "C M C M"
_symmetry_group_IT_number 63
_symmetry_cell_setting 'orthorhombic'
loop_
_space_group_symop_operation_xyz
x,y,z
-x,-y,1/2+z
x,-y,-z
-x,y,1/2-z
-x,-y,-z
x,y,1/2-z
-x,y,z
x,-y,1/2+z
1/2+x,1/2+y,z
1/2-x,1/2-y,1/2+z
1/2+x,1/2-y,-z
1/2-x,1/2+y,1/2-z
1/2-x,1/2-y,-z
1/2+x,1/2+y,1/2-z
1/2-x,1/2+y,z
1/2+x,1/2-y,1/2+z
loop_
_atom_site_type_symbol
_atom_site_label
_atom_site_fract_x
_atom_site_fract_y
_atom_site_fract_z
Si Si1 0.834684 0.811189 0.059042
Si Si2 0.250934 0.349249 0.331410
Si Si3 0.328986 0.589369 0.122697
Si Si4 0.167807 0.345219 0.962686
Si Si5 0.164752 0.203236 0.196290
Si Si6 0.000000 0.855192 0.250000
Si Si7 0.660007 0.993262 0.191959
O O1 0.801435 0.841808 0.112287
O O2 0.811581 0.730641 0.058353
O O3 0.000000 0.821831 0.046496
O O4 0.734201 0.841889 0.017206
O O5 0.175218 0.279796 0.318705
O O6 0.378728 0.354545 0.293198
O O7 0.160910 0.415200 0.321485
O O8 0.500000 0.587031 0.117549
O O9 0.252556 0.601963 0.070753
O O10 0.280250 0.653400 0.155249
O O11 0.269929 0.528268 0.155046
O O12 0.000000 0.358656 0.963177
O O13 0.233705 0.193550 0.250000
O O14 0.000000 0.185806 0.200385
O O15 0.699589 0.001607 0.250000
O O16 0.500000 0.019965 0.185570
#
# Coordination Sequence:
#
# PCOD9473067 Si02
#       7
#    16  16  16  16  16   4  16
#     4  10  21  37  62  93 127 164 207 260 314 374
#     4  12  22  39  63  92 127 163 210 258 312 377
#     4  11  23  39  64  90 126 165 210 262 317 377
#     4  10  21  39  62  91 128 165 211 260 317 378
#     4  10  20  36  57  88 120 158 203 257 311 370
#     4  12  24  36  62 100 130 168 206 264 322 376
#     4  11  25  43  62  89 126 173 213 258 318 385
#
# _framework density 19.509530000000002
#
# number of rings (size 3 to 8) (size 9 to 14) (size 15 to 20)
#    0.000    1.280    4.000    1.920    1.120    4.160 
#    1.440    0.800    0.000    3.840    0.000    0.000 
#    0.000    0.000    0.000    0.000    0.000    0.000 
#
# Total GULP energy -278511.802606 kJ/mol
# GULP energy per Si atom -5570.236052 kJ/mol
# Density = 1.946513 g / cm^3
# Si number density = 19.509530 Si / 1000 Ang^3
#
#
#
# Elastic Constant Matrix: (Units=GPa)
#
#
# Indices 1 2 3 4 5 6 
#
# 1 86.1176 7.6747 61.8974 0.0000 0.0000 0.0000
# 2 7.6747 30.3813 28.4563 0.0000 0.0000 0.0000
# 3 61.8974 28.4563 150.0949 0.0000 0.0000 0.0000
# 4 0.0000 0.0000 0.0000 16.7721 0.0000 0.0000
# 5 0.0000 0.0000 0.0000 0.0000 24.6633 0.0000
# 6 0.0000 0.0000 0.0000 0.0000 0.0000 10.5844
#
#
#
# Elastic Compliance Matrix: (Units=1/GPa)
#
#
# Indices 1 2 3 4 5 6 
#
# 1 0.016686 0.002711 -0.007395 0.000000 0.000000 0.000000
# 2 0.002711 0.040463 -0.008789 0.000000 0.000000 0.000000
# 3 -0.007395 -0.008789 0.011378 0.000000 0.000000 0.000000
# 4 0.000000 0.000000 0.000000 0.059623 0.000000 0.000000
# 5 0.000000 0.000000 0.000000 0.000000 0.040546 0.000000
# 6 0.000000 0.000000 0.000000 0.000000 0.000000 0.094478
#
#
# Mechanical properties :
#
#
# Convention : Reuss Voigt Hill
#
# Bulk Modulus (GPa) = 24.04966 51.40564 37.72765
# Shear Modulus (GPa) = 16.44847 21.64167 19.04507
#
# Velocity S-wave (km/s) = 2.90677 3.33421 3.12780
# Velocity P-wave (km/s) = 4.86000 6.42097 5.69423
#
# Compressibility (1/GPa) = 0.04158063
#
# Stress axis : x y z
#
# Youngs Moduli (GPa) = 59.93200 24.71424 87.88547
#
# Poissons Ratio (x) = -0.06701 0.64991
# Poissons Ratio (y) = -0.16250 0.77246
# Poissons Ratio (z) = 0.44320 0.21722
#
# Static dielectric constant tensor:
#      x y z
#    x 1.687410 0.000000 0.000000 
#    y 0.000000 1.689110 0.000000 
#    z 0.000000 0.000000 1.693940 
# 
# From -- ./inp_files/67085.got.cif
#   From: 2010.05.17/outbox.cif.g08.bks.cpg/sg63_34_cif.got.tgz:67085.got - 2010.06.03 15:47:04.
