data_PCOD9473730
_publ_section_title
;
Structure prediction by ZEFSAII (Michael W. Deem and Ramdas Pophale) SiO2 
 PCOD9473730
Probable space group: C M C M
;
_chemical_formula_sum "Si O2"
_cell_formula_units_Z 80
_cell_length_a 24.014164
_cell_length_b 10.327313
_cell_length_c 17.732801
_cell_angle_alpha 90.000000
_cell_angle_beta 90.000000
_cell_angle_gamma 90.000000
_cell_volume 4397.766355
_symmetry_space_group_name_H-M "C M C M"
_symmetry_group_IT_number 63
_symmetry_cell_setting 'orthorhombic'
loop_
_space_group_symop_operation_xyz
x,y,z
-x,-y,1/2+z
x,-y,-z
-x,y,1/2-z
-x,-y,-z
x,y,1/2-z
-x,y,z
x,-y,1/2+z
1/2+x,1/2+y,z
1/2-x,1/2-y,1/2+z
1/2+x,1/2-y,-z
1/2-x,1/2+y,1/2-z
1/2-x,1/2-y,-z
1/2+x,1/2+y,1/2-z
1/2-x,1/2+y,z
1/2+x,1/2-y,1/2+z
loop_
_atom_site_type_symbol
_atom_site_label
_atom_site_fract_x
_atom_site_fract_y
_atom_site_fract_z
Si Si1 0.341585 0.488498 0.912588
Si Si2 0.761146 0.187660 0.338015
Si Si3 0.435166 0.001867 0.839254
Si Si4 0.860019 0.708699 0.924869
Si Si5 0.862314 0.722443 0.397126
O O1 0.289636 0.449615 0.860106
O O2 0.378950 0.358339 0.910369
O O3 0.369275 0.622813 0.890702
O O4 0.322607 0.500000 0.000000
O O5 0.768915 0.214032 0.250000
O O6 0.797928 0.286360 0.388941
O O7 0.697073 0.190316 0.360022
O O8 0.429686 0.024463 0.750000
O O9 0.500000 0.010385 0.859970
O O10 0.410101 0.861998 0.859539
O O11 0.398601 0.106261 0.884087
O O12 0.858618 0.688309 0.014146
#
# Coordination Sequence:
#
# PCOD9473730 Si02
#       5
#    16  16  16  16  16
#     4   8  20  36  58  86 117 152 194 243 299 360
#     4  10  21  33  56  90 124 159 194 242 307 365
#     4  11  25  43  62  88 122 163 211 259 307 362
#     4   9  21  39  61  85 121 159 203 247 301 372
#     4  11  21  38  61  89 122 158 204 254 305 361
#
# _framework density 18.191053
#
# number of rings (size 3 to 8) (size 9 to 14) (size 15 to 20)
#    1.200    1.000    0.000    2.400    2.800    3.200 
#    0.000    1.000    0.000    6.000    0.000    0.000 
#    0.000    0.000    0.000    0.000    0.000    0.000 
#
# Total GULP energy -222883.858070 kJ/mol
# GULP energy per Si atom -5572.096452 kJ/mol
# Density = 1.814965 g / cm^3
# Si number density = 18.191053 Si / 1000 Ang^3
#
#
#
# Elastic Constant Matrix: (Units=GPa)
#
#
# Indices 1 2 3 4 5 6 
#
# 1 44.4533 0.8286 0.2102 0.0000 0.0000 0.0000
# 2 0.8286 51.7207 -9.2335 0.0000 0.0000 0.0000
# 3 0.2102 -9.2335 22.1339 0.0000 0.0000 0.0000
# 4 0.0000 0.0000 0.0000 19.4992 0.0000 0.0000
# 5 0.0000 0.0000 0.0000 0.0000 67.5390 0.0000
# 6 0.0000 0.0000 0.0000 0.0000 0.0000 2.1085
#
#
#
# Elastic Compliance Matrix: (Units=1/GPa)
#
#
# Indices 1 2 3 4 5 6 
#
# 1 0.022505 -0.000431 -0.000393 0.000000 0.000000 0.000000
# 2 -0.000431 0.020899 0.008722 0.000000 0.000000 0.000000
# 3 -0.000393 0.008722 0.048822 0.000000 0.000000 0.000000
# 4 0.000000 0.000000 0.000000 0.051284 0.000000 0.000000
# 5 0.000000 0.000000 0.000000 0.000000 0.014806 0.000000
# 6 0.000000 0.000000 0.000000 0.000000 0.000000 0.474278
#
#
# Mechanical properties :
#
#
# Convention : Reuss Voigt Hill
#
# Bulk Modulus (GPa) = 9.25733 11.32425 10.29079
# Shear Modulus (GPa) = 7.65925 26.26284 16.96105
#
# Velocity S-wave (km/s) = 2.05416 3.80376 3.05681
# Velocity P-wave (km/s) = 3.27507 5.05273 4.25771
#
# Compressibility (1/GPa) = 0.10802250
#
# Stress axis : x y z
#
# Youngs Moduli (GPa) = 44.43379 47.84983 20.48257
#
# Poissons Ratio (x) = 0.02061 0.00806
# Poissons Ratio (y) = 0.01914 -0.17866
# Poissons Ratio (z) = 0.01748 -0.41736
#
# Static dielectric constant tensor:
#      x y z
#    x 1.582950 0.000000 0.000000 
#    y 0.000000 1.672800 0.000000 
#    z 0.000000 0.000000 1.616200 
# 
# From -- ./inp_files/36477.got.cif
#   From: 2010.05.17/outbox.cif.g08.bks.cpg/sg63_19_cif.got.tgz:36477.got - 2010.06.03 15:47:04.
