data_PCOD9473416
_publ_section_title
;
Structure prediction by ZEFSAII (Michael W. Deem and Ramdas Pophale) SiO2 
 PCOD9473416
Probable space group: C M C M
;
_chemical_formula_sum "Si O2"
_cell_formula_units_Z 96
_cell_length_a 24.101823
_cell_length_b 14.255300
_cell_length_c 14.621580
_cell_angle_alpha 90.000000
_cell_angle_beta 90.000000
_cell_angle_gamma 90.000000
_cell_volume 5023.663703
_symmetry_space_group_name_H-M "C M C M"
_symmetry_group_IT_number 63
_symmetry_cell_setting 'orthorhombic'
loop_
_space_group_symop_operation_xyz
x,y,z
-x,-y,1/2+z
x,-y,-z
-x,y,1/2-z
-x,-y,-z
x,y,1/2-z
-x,y,z
x,-y,1/2+z
1/2+x,1/2+y,z
1/2-x,1/2-y,1/2+z
1/2+x,1/2-y,-z
1/2-x,1/2+y,1/2-z
1/2-x,1/2-y,-z
1/2+x,1/2+y,1/2-z
1/2-x,1/2+y,z
1/2+x,1/2-y,1/2+z
loop_
_atom_site_type_symbol
_atom_site_label
_atom_site_fract_x
_atom_site_fract_y
_atom_site_fract_z
Si Si1 0.872459 0.130404 0.645223
Si Si2 0.618681 0.588169 0.139782
Si Si3 0.000000 0.610647 0.642440
Si Si4 0.313312 0.727382 0.022616
Si Si5 0.388652 0.099314 0.527211
Si Si6 0.000000 0.164003 0.142078
Si Si7 0.563847 0.804641 0.848232
O O1 0.851516 0.133159 0.750000
O O2 0.835915 0.187309 0.573707
O O3 0.928501 0.192363 0.643851
O O4 0.878512 0.022299 0.619521
O O5 0.620612 0.600220 0.250000
O O6 0.668284 0.646526 0.093764
O O7 0.558759 0.626552 0.104993
O O8 0.057604 0.581934 0.592448
O O9 0.000000 0.723945 0.635161
O O10 0.000000 0.584322 0.750000
O O11 0.345197 0.821231 0.058195
O O12 0.250000 0.750000 0.000000
O O13 0.410892 0.143708 0.433529
O O14 0.362457 0.000000 0.500000
O O15 0.000000 0.138291 0.250000
O O16 0.589391 0.831642 0.750000
O O17 0.500000 0.828993 0.846858
#
# Coordination Sequence:
#
# PCOD9473416 Si02
#       7
#    16  16   8  16  16   8  16
#     4   9  20  37  58  86 119 150 188 234 289 351
#     4  10  20  37  62  93 124 152 185 233 296 361
#     4  11  21  37  59  86 123 155 190 238 293 354
#     4  11  24  41  61  82 114 156 204 250 290 336
#     4  11  23  39  56  83 116 156 199 243 290 341
#     4   9  18  33  57  89 123 152 180 222 288 362
#     4   9  18  33  54  82 118 156 188 224 276 342
#
# _framework density 19.109559000000001
#
# number of rings (size 3 to 8) (size 9 to 14) (size 15 to 20)
#    0.000    2.000    2.500    0.750    1.167    2.667 
#    0.000    0.833    0.000    0.000    0.000    0.000 
#    0.000    0.000    0.000    0.000    0.000    0.000 
#
# Total GULP energy -267447.974555 kJ/mol
# GULP energy per Si atom -5571.832803 kJ/mol
# Density = 1.906606 g / cm^3
# Si number density = 19.109559 Si / 1000 Ang^3
#
#
#
# Elastic Constant Matrix: (Units=GPa)
#
#
# Indices 1 2 3 4 5 6 
#
# 1 59.8709 2.8753 8.5918 0.0000 0.0000 0.0000
# 2 2.8753 88.0621 19.9017 0.0000 0.0000 0.0000
# 3 8.5918 19.9017 59.3150 0.0000 0.0000 0.0000
# 4 0.0000 0.0000 0.0000 14.2159 0.0000 0.0000
# 5 0.0000 0.0000 0.0000 0.0000 15.8136 0.0000
# 6 0.0000 0.0000 0.0000 0.0000 0.0000 8.0081
#
#
#
# Elastic Compliance Matrix: (Units=1/GPa)
#
#
# Indices 1 2 3 4 5 6 
#
# 1 0.017057 0.000002 -0.002471 0.000000 0.000000 0.000000
# 2 0.000002 0.012287 -0.004123 0.000000 0.000000 0.000000
# 3 -0.002471 -0.004123 0.018600 0.000000 0.000000 0.000000
# 4 0.000000 0.000000 0.000000 0.070344 0.000000 0.000000
# 5 0.000000 0.000000 0.000000 0.000000 0.063237 0.000000
# 6 0.000000 0.000000 0.000000 0.000000 0.000000 0.124873
#
#
# Mechanical properties :
#
#
# Convention : Reuss Voigt Hill
#
# Bulk Modulus (GPa) = 28.76897 29.99841 29.38369
# Shear Modulus (GPa) = 15.09796 19.33281 17.21538
#
# Velocity S-wave (km/s) = 2.81387 3.18415 3.00472
# Velocity P-wave (km/s) = 5.06405 5.40838 5.23905
#
# Compressibility (1/GPa) = 0.03475967
#
# Stress axis : x y z
#
# Youngs Moduli (GPa) = 58.62640 81.38458 53.76206
#
# Poissons Ratio (x) = -0.00013 0.13286
# Poissons Ratio (y) = -0.00009 0.22166
# Poissons Ratio (z) = 0.14488 0.33554
#
# Static dielectric constant tensor:
#      x y z
#    x 1.667690 0.000000 0.000000 
#    y 0.000000 1.678570 0.000000 
#    z 0.000000 0.000000 1.789670 
# 
# From -- ./inp_files/35436.got.cif
#   From: 2010.05.17/outbox.cif.g08.bks.cpg/sg63_18_cif.got.tgz:35436.got - 2010.06.03 15:47:04.
