data_PCOD9473538
_publ_section_title
;
Structure prediction by ZEFSAII (Michael W. Deem and Ramdas Pophale) SiO2 
 PCOD9473538
Probable space group: C M C M
;
_chemical_formula_sum "Si O2"
_cell_formula_units_Z 84
_cell_length_a 16.293920
_cell_length_b 12.614168
_cell_length_c 20.347621
_cell_angle_alpha 90.000000
_cell_angle_beta 90.000000
_cell_angle_gamma 90.000000
_cell_volume 4182.132905
_symmetry_space_group_name_H-M "C M C M"
_symmetry_group_IT_number 63
_symmetry_cell_setting 'orthorhombic'
loop_
_space_group_symop_operation_xyz
x,y,z
-x,-y,1/2+z
x,-y,-z
-x,y,1/2-z
-x,-y,-z
x,y,1/2-z
-x,y,z
x,-y,1/2+z
1/2+x,1/2+y,z
1/2-x,1/2-y,1/2+z
1/2+x,1/2-y,-z
1/2-x,1/2+y,1/2-z
1/2-x,1/2-y,-z
1/2+x,1/2+y,1/2-z
1/2-x,1/2+y,z
1/2+x,1/2-y,1/2+z
loop_
_atom_site_type_symbol
_atom_site_label
_atom_site_fract_x
_atom_site_fract_y
_atom_site_fract_z
Si Si1 0.904694 0.983560 0.072645
Si Si2 0.853264 0.753896 0.431165
Si Si3 0.500000 0.999448 0.250000
Si Si4 0.663237 0.181689 0.575698
Si Si5 0.409336 0.031265 0.115835
Si Si6 0.098837 0.846303 0.824482
O O1 0.900341 0.860021 0.089241
O O2 0.000000 0.016044 0.066980
O O3 0.868981 0.058152 0.129382
O O4 0.866381 0.000000 0.000000
O O5 0.758152 0.785637 0.424941
O O6 0.872395 0.725891 0.507169
O O7 0.874251 0.649128 0.390814
O O8 0.429701 0.003565 0.191267
O O9 0.647905 0.056979 0.583037
O O10 0.620442 0.239817 0.636723
O O11 0.500000 0.029048 0.082918
O O12 0.130652 0.848794 0.750000
O O13 0.000000 0.853791 0.820288
#
# Coordination Sequence:
#
# PCOD9473538 Si02
#       6
#    16  16   4  16  16  16
#     4  10  20  38  63  91 127 167 209 259 316 384
#     4  11  24  40  63  97 133 167 214 273 330 383
#     4   8  24  48  66  92 136 174 224 280 320 392
#     4  11  24  38  65  95 131 168 214 271 325 388
#     4  10  23  44  67  93 131 175 224 270 324 393
#     4  10  22  40  63  93 124 164 213 262 317 382
#
# _framework density 20.085443999999999
#
# number of rings (size 3 to 8) (size 9 to 14) (size 15 to 20)
#    0.571    1.143    1.905    1.714    4.000    3.048 
#    3.429    0.000    0.000    0.000    0.000    0.000 
#    0.000    0.000    0.000    0.000    0.000    0.000 
#
# Total GULP energy -233830.617639 kJ/mol
# GULP energy per Si atom -5567.395658 kJ/mol
# Density = 2.003973 g / cm^3
# Si number density = 20.085444 Si / 1000 Ang^3
#
#
#
# Elastic Constant Matrix: (Units=GPa)
#
#
# Indices 1 2 3 4 5 6 
#
# 1 33.2004 10.9236 16.6273 0.0000 0.0000 0.0000
# 2 10.9236 129.2186 27.0861 0.0000 0.0000 0.0000
# 3 16.6273 27.0861 81.0927 0.0000 0.0000 0.0000
# 4 0.0000 0.0000 0.0000 6.9251 0.0000 0.0000
# 5 0.0000 0.0000 0.0000 0.0000 12.3392 0.0000
# 6 0.0000 0.0000 0.0000 0.0000 0.0000 30.0814
#
#
#
# Elastic Compliance Matrix: (Units=1/GPa)
#
#
# Indices 1 2 3 4 5 6 
#
# 1 0.033840 -0.001512 -0.006433 0.000000 0.000000 0.000000
# 2 -0.001512 0.008389 -0.002492 0.000000 0.000000 0.000000
# 3 -0.006433 -0.002492 0.014483 0.000000 0.000000 0.000000
# 4 0.000000 0.000000 0.000000 0.144402 0.000000 0.000000
# 5 0.000000 0.000000 0.000000 0.000000 0.081042 0.000000
# 6 0.000000 0.000000 0.000000 0.000000 0.000000 0.033243
#
#
# Mechanical properties :
#
#
# Convention : Reuss Voigt Hill
#
# Bulk Modulus (GPa) = 27.90446 39.19843 33.55144
# Shear Modulus (GPa) = 14.35874 22.46079 18.40976
#
# Velocity S-wave (km/s) = 2.67663 3.34767 3.03078
# Velocity P-wave (km/s) = 4.84515 5.87373 5.38406
#
# Compressibility (1/GPa) = 0.03583656
#
# Stress axis : x y z
#
# Youngs Moduli (GPa) = 29.55115 119.20356 69.04626
#
# Poissons Ratio (x) = 0.18025 0.44421
# Poissons Ratio (y) = 0.04468 0.17206
# Poissons Ratio (z) = 0.19012 0.29706
#
# Static dielectric constant tensor:
#      x y z
#    x 1.731020 0.000000 0.000000 
#    y 0.000000 1.707630 0.000000 
#    z 0.000000 0.000000 1.709420 
# 
# From -- ./inp_files/56484.got.cif
#   From: 2010.05.17/outbox.cif.g08.bks.cpg/sg63_29_cif.got.tgz:56484.got - 2010.06.03 15:47:04.
