data_PCOD9473145
_publ_section_title
;
Structure prediction by ZEFSAII (Michael W. Deem and Ramdas Pophale) SiO2 
 PCOD9473145
Probable space group: C M C M
;
_chemical_formula_sum "Si O2"
_cell_formula_units_Z 96
_cell_length_a 8.647925
_cell_length_b 25.726790
_cell_length_c 24.283229
_cell_angle_alpha 90.000000
_cell_angle_beta 90.000000
_cell_angle_gamma 90.000000
_cell_volume 5402.614147
_symmetry_space_group_name_H-M "C M C M"
_symmetry_group_IT_number 63
_symmetry_cell_setting 'orthorhombic'
loop_
_space_group_symop_operation_xyz
x,y,z
-x,-y,1/2+z
x,-y,-z
-x,y,1/2-z
-x,-y,-z
x,y,1/2-z
-x,y,z
x,-y,1/2+z
1/2+x,1/2+y,z
1/2-x,1/2-y,1/2+z
1/2+x,1/2-y,-z
1/2-x,1/2+y,1/2-z
1/2-x,1/2-y,-z
1/2+x,1/2+y,1/2-z
1/2-x,1/2+y,z
1/2+x,1/2-y,1/2+z
loop_
_atom_site_type_symbol
_atom_site_label
_atom_site_fract_x
_atom_site_fract_y
_atom_site_fract_z
Si Si1 0.315657 0.106006 0.250000
Si Si2 0.186333 0.976099 0.058647
Si Si3 0.314147 0.429007 0.865290
Si Si4 0.314260 0.833033 0.936236
Si Si5 0.687046 0.764293 0.131023
Si Si6 0.686268 0.139246 0.560297
Si Si7 0.687122 0.276719 0.750000
O O1 0.500000 0.106399 0.250000
O O2 0.252971 0.078530 0.304706
O O3 0.255065 0.165351 0.250000
O O4 0.249756 0.918542 0.066873
O O5 0.000000 0.973480 0.057065
O O6 0.230845 0.016835 0.106024
O O7 0.238511 0.000000 0.000000
O O8 0.500000 0.425834 0.863441
O O9 0.252173 0.382058 0.902942
O O10 0.500000 0.833504 0.932824
O O11 0.251080 0.781081 0.908027
O O12 0.268191 0.838846 0.000113
O O13 0.500000 0.762193 0.128911
O O14 0.736558 0.819851 0.106840
O O15 0.733749 0.752325 0.193839
O O16 0.500000 0.136596 0.561186
O O17 0.500000 0.281024 0.750000
#
# Coordination Sequence:
#
# PCOD9473145 Si02
#       7
#     8  16  16  16  16  16   8
#     4  12  24  38  59  88 119 145 190 242 288 339
#     4  10  21  38  60  85 112 150 196 237 283 344
#     4  11  22  38  60  85 116 152 192 234 286 345
#     4  11  21  33  54  86 118 149 188 241 292 337
#     4  10  21  37  56  81 114 154 194 234 289 353
#     4  10  22  37  55  83 119 156 193 236 292 347
#     4  10  20  36  59  80 109 153 194 230 282 345
#
# _framework density 17.769176000000002
#
# number of rings (size 3 to 8) (size 9 to 14) (size 15 to 20)
#    0.000    1.500    3.333    2.250    0.000    3.000 
#    0.000    0.833    0.000    1.000    0.000    0.000 
#    0.000    0.000    0.000    0.000    0.000    0.000 
#
# Total GULP energy -268172.715135 kJ/mol
# GULP energy per Si atom -5586.931565 kJ/mol
# Density = 1.772873 g / cm^3
# Si number density = 17.769176 Si / 1000 Ang^3
#
#
#
# Elastic Constant Matrix: (Units=GPa)
#
#
# Indices 1 2 3 4 5 6 
#
# 1 21.9847 34.2356 41.2067 0.0000 0.0000 0.0000
# 2 34.2356 183.3478 109.2525 0.0000 0.0000 0.0000
# 3 41.2067 109.2525 173.2399 0.0000 0.0000 0.0000
# 4 0.0000 0.0000 0.0000 32.3637 0.0000 0.0000
# 5 0.0000 0.0000 0.0000 0.0000 15.3930 0.0000
# 6 0.0000 0.0000 0.0000 0.0000 0.0000 29.3181
#
#
#
# Elastic Compliance Matrix: (Units=1/GPa)
#
#
# Indices 1 2 3 4 5 6 
#
# 1 0.086290 -0.006219 -0.016603 0.000000 0.000000 0.000000
# 2 -0.006219 0.009186 -0.004314 0.000000 0.000000 0.000000
# 3 -0.016603 -0.004314 0.012442 0.000000 0.000000 0.000000
# 4 0.000000 0.000000 0.000000 0.030899 0.000000 0.000000
# 5 0.000000 0.000000 0.000000 0.000000 0.064965 0.000000
# 6 0.000000 0.000000 0.000000 0.000000 0.000000 0.034109
#
#
# Mechanical properties :
#
#
# Convention : Reuss Voigt Hill
#
# Bulk Modulus (GPa) = 18.64054 83.10687 50.87371
# Shear Modulus (GPa) = 16.12675 28.34015 22.23345
#
# Velocity S-wave (km/s) = 3.01586 3.99796 3.54112
# Velocity P-wave (km/s) = 4.75819 8.25732 6.73883
#
# Compressibility (1/GPa) = 0.05364652
#
# Stress axis : x y z
#
# Youngs Moduli (GPa) = 11.58877 108.86350 80.37398
#
# Poissons Ratio (x) = 0.67706 1.33443
# Poissons Ratio (y) = 0.07207 0.34670
# Poissons Ratio (z) = 0.19241 0.46960
#
# Static dielectric constant tensor:
#      x y z
#    x 1.601110 0.000000 0.000000 
#    y 0.000000 1.572700 0.000000 
#    z 0.000000 0.000000 1.603100 
# 
# From -- ./inp_files/60087.got.cif
#   From: 2010.05.17/outbox.cif.g08.bks.cpg/sg63_31_cif.got.tgz:60087.got - 2010.06.03 15:47:04.
