data_PCOD9473420
_publ_section_title
;
Structure prediction by ZEFSAII (Michael W. Deem and Ramdas Pophale) SiO2 
 PCOD9473420
Probable space group: C M C M
;
_chemical_formula_sum "Si O2"
_cell_formula_units_Z 72
_cell_length_a 17.981092
_cell_length_b 24.209724
_cell_length_c 8.902104
_cell_angle_alpha 90.000000
_cell_angle_beta 90.000000
_cell_angle_gamma 90.000000
_cell_volume 3875.239651
_symmetry_space_group_name_H-M "C M C M"
_symmetry_group_IT_number 63
_symmetry_cell_setting 'orthorhombic'
loop_
_space_group_symop_operation_xyz
x,y,z
-x,-y,1/2+z
x,-y,-z
-x,y,1/2-z
-x,-y,-z
x,y,1/2-z
-x,y,z
x,-y,1/2+z
1/2+x,1/2+y,z
1/2-x,1/2-y,1/2+z
1/2+x,1/2-y,-z
1/2-x,1/2+y,1/2-z
1/2-x,1/2-y,-z
1/2+x,1/2+y,1/2-z
1/2-x,1/2+y,z
1/2+x,1/2-y,1/2+z
loop_
_atom_site_type_symbol
_atom_site_label
_atom_site_fract_x
_atom_site_fract_y
_atom_site_fract_z
Si Si1 0.168209 0.251891 0.069378
Si Si2 0.000000 0.439882 0.572004
Si Si3 0.290295 0.560796 0.570083
Si Si4 0.136659 0.624037 0.569911
Si Si5 0.086564 0.138967 0.068385
O O1 0.174895 0.250542 0.250000
O O2 0.134455 0.311344 0.029433
O O3 0.119601 0.198950 0.024033
O O4 0.250000 0.250000 0.000000
O O5 0.000000 0.500000 0.500000
O O6 0.072713 0.408235 0.514983
O O7 0.000000 0.444166 0.750000
O O8 0.282799 0.500000 0.500000
O O9 0.296003 0.556551 0.750000
O O10 0.217140 0.597562 0.534996
O O11 0.361709 0.592403 0.504414
O O12 0.125613 0.619075 0.750000
O O13 0.091408 0.134874 0.250000
O O14 0.000000 0.134204 0.026428
#
# Coordination Sequence:
#
# PCOD9473420 Si02
#       5
#    16   8  16  16  16
#     4  10  20  37  63  91 122 157 196 244 297 357
#     4  12  26  42  62  90 124 164 207 254 305 360
#     4  11  23  40  63  89 117 157 203 251 304 360
#     4  10  22  40  63  91 124 161 201 247 305 364
#     4  10  22  39  61  90 123 161 201 246 301 357
#
# _framework density 18.579495000000001
#
# number of rings (size 3 to 8) (size 9 to 14) (size 15 to 20)
#    0.000    1.556    2.222    2.333    1.556    5.333 
#    0.000    0.000    0.000    0.000    0.000    0.000 
#    0.000    0.000    0.000    0.000    0.000    0.000 
#
# Total GULP energy -201195.779409 kJ/mol
# GULP energy per Si atom -5588.771650 kJ/mol
# Density = 1.853721 g / cm^3
# Si number density = 18.579495 Si / 1000 Ang^3
#
#
#
# Elastic Constant Matrix: (Units=GPa)
#
#
# Indices 1 2 3 4 5 6 
#
# 1 105.5251 21.7084 39.5259 0.0000 0.0000 0.0000
# 2 21.7084 103.9882 31.5086 0.0000 0.0000 0.0000
# 3 39.5259 31.5086 30.4223 0.0000 0.0000 0.0000
# 4 0.0000 0.0000 0.0000 23.1229 0.0000 0.0000
# 5 0.0000 0.0000 0.0000 0.0000 35.2496 0.0000
# 6 0.0000 0.0000 0.0000 0.0000 0.0000 28.1971
#
#
#
# Elastic Compliance Matrix: (Units=1/GPa)
#
#
# Indices 1 2 3 4 5 6 
#
# 1 0.020413 0.005501 -0.032218 0.000000 0.000000 0.000000
# 2 0.005501 0.015497 -0.023197 0.000000 0.000000 0.000000
# 3 -0.032218 -0.023197 0.098755 0.000000 0.000000 0.000000
# 4 0.000000 0.000000 0.000000 0.043247 0.000000 0.000000
# 5 0.000000 0.000000 0.000000 0.000000 0.028369 0.000000
# 6 0.000000 0.000000 0.000000 0.000000 0.000000 0.035465
#
#
# Mechanical properties :
#
#
# Convention : Reuss Voigt Hill
#
# Bulk Modulus (GPa) = 28.70605 47.26904 37.98755
# Shear Modulus (GPa) = 14.15681 27.12678 20.64180
#
# Velocity S-wave (km/s) = 2.76336 3.82519 3.33678
# Velocity P-wave (km/s) = 5.06611 6.70866 5.94439
#
# Compressibility (1/GPa) = 0.03483586
#
# Stress axis : x y z
#
# Youngs Moduli (GPa) = 48.98942 64.52899 10.12602
#
# Poissons Ratio (x) = -0.35496 0.32624
# Poissons Ratio (y) = -0.26948 0.23490
# Poissons Ratio (z) = 1.57835 1.49689
#
# Static dielectric constant tensor:
#      x y z
#    x 1.605030 0.000000 0.000000 
#    y 0.000000 1.625170 0.000000 
#    z 0.000000 0.000000 1.651990 
# 
# From -- ./inp_files/6125.got.cif
#   From: 2010.05.17/outbox.cif.g08.bks.cpg/sg63_4_cif.got.tgz:6125.got - 2010.06.03 15:47:04.
