data_PCOD9473034
_publ_section_title
;
Structure prediction by ZEFSAII (Michael W. Deem and Ramdas Pophale) SiO2 
 PCOD9473034
Probable space group: C M C M
;
_chemical_formula_sum "Si O2"
_cell_formula_units_Z 96
_cell_length_a 8.611830
_cell_length_b 25.921759
_cell_length_c 24.197109
_cell_angle_alpha 90.000000
_cell_angle_beta 90.000000
_cell_angle_gamma 90.000000
_cell_volume 5401.612151
_symmetry_space_group_name_H-M "C M C M"
_symmetry_group_IT_number 63
_symmetry_cell_setting 'orthorhombic'
loop_
_space_group_symop_operation_xyz
x,y,z
-x,-y,1/2+z
x,-y,-z
-x,y,1/2-z
-x,-y,-z
x,y,1/2-z
-x,y,z
x,-y,1/2+z
1/2+x,1/2+y,z
1/2-x,1/2-y,1/2+z
1/2+x,1/2-y,-z
1/2-x,1/2+y,1/2-z
1/2-x,1/2-y,-z
1/2+x,1/2+y,1/2-z
1/2-x,1/2+y,z
1/2+x,1/2-y,1/2+z
loop_
_atom_site_type_symbol
_atom_site_label
_atom_site_fract_x
_atom_site_fract_y
_atom_site_fract_z
Si Si1 0.187678 0.351257 0.620686
Si Si2 0.313642 0.652593 0.887315
Si Si3 0.185961 0.561253 0.686429
Si Si4 0.186261 0.691564 0.001428
Si Si5 0.689120 0.749698 0.687085
Si Si6 0.314366 0.447121 0.686489
O O1 0.233662 0.336454 0.558340
O O2 0.236766 0.303418 0.659467
O O3 0.256074 0.403692 0.644748
O O4 0.000000 0.354484 0.622401
O O5 0.500000 0.653160 0.890436
O O6 0.258169 0.601446 0.856236
O O7 0.245751 0.660976 0.948107
O O8 0.262005 0.701600 0.850306
O O9 0.233633 0.573778 0.750000
O O10 0.241200 0.503034 0.675151
O O11 0.000000 0.563705 0.683586
O O12 0.000000 0.694364 0.000817
O O13 0.250000 0.750000 0.000000
O O14 0.743255 0.744992 0.750000
O O15 0.500000 0.749336 0.687628
O O16 0.270884 0.432911 0.750000
O O17 0.500000 0.451332 0.683921
#
# Coordination Sequence:
#
# PCOD9473034 Si02
#       6
#    16  16  16  16  16  16
#     4  10  20  36  57  81 111 150 193 232 279 338
#     4  11  21  36  57  84 116 152 192 235 286 341
#     4  10  21  38  60  86 116 152 191 233 284 340
#     4  11  22  38  58  82 113 153 197 239 285 340
#     4   9  17  30  51  80 112 145 182 224 276 338
#     4  10  21  37  58  86 117 149 186 232 287 341
#
# _framework density 17.772470999999999
#
# number of rings (size 3 to 8) (size 9 to 14) (size 15 to 20)
#    0.000    1.833    1.667    3.000    0.000    4.667 
#    0.000    0.833    0.000    8.000    0.000    0.000 
#    0.000    0.000    0.000    0.000    0.000    0.000 
#
# Total GULP energy -268103.729034 kJ/mol
# GULP energy per Si atom -5585.494355 kJ/mol
# Density = 1.773202 g / cm^3
# Si number density = 17.772471 Si / 1000 Ang^3
#
#
#
# Elastic Constant Matrix: (Units=GPa)
#
#
# Indices 1 2 3 4 5 6 
#
# 1 38.1464 25.9571 30.2079 0.0000 0.0000 0.0000
# 2 25.9571 102.6604 62.9474 0.0000 0.0000 0.0000
# 3 30.2079 62.9474 124.6479 0.0000 0.0000 0.0000
# 4 0.0000 0.0000 0.0000 21.4460 0.0000 0.0000
# 5 0.0000 0.0000 0.0000 0.0000 26.7997 0.0000
# 6 0.0000 0.0000 0.0000 0.0000 0.0000 28.9236
#
#
#
# Elastic Compliance Matrix: (Units=1/GPa)
#
#
# Indices 1 2 3 4 5 6 
#
# 1 0.034235 -0.005170 -0.005686 0.000000 0.000000 0.000000
# 2 -0.005170 0.014891 -0.006267 0.000000 0.000000 0.000000
# 3 -0.005686 -0.006267 0.012565 0.000000 0.000000 0.000000
# 4 0.000000 0.000000 0.000000 0.046629 0.000000 0.000000
# 5 0.000000 0.000000 0.000000 0.000000 0.037314 0.000000
# 6 0.000000 0.000000 0.000000 0.000000 0.000000 0.034574
#
#
# Mechanical properties :
#
#
# Convention : Reuss Voigt Hill
#
# Bulk Modulus (GPa) = 36.43528 55.96439 46.19983
# Shear Modulus (GPa) = 22.36115 25.19000 23.77558
#
# Velocity S-wave (km/s) = 3.55095 3.76887 3.66153
# Velocity P-wave (km/s) = 6.11210 7.10612 6.62777
#
# Compressibility (1/GPa) = 0.02744593
#
# Stress axis : x y z
#
# Youngs Moduli (GPa) = 29.20954 67.15623 79.58356
#
# Poissons Ratio (x) = 0.34718 0.45252
# Poissons Ratio (y) = 0.15101 0.49875
# Poissons Ratio (z) = 0.16609 0.42086
#
# Static dielectric constant tensor:
#      x y z
#    x 1.604560 0.000000 0.000000 
#    y 0.000000 1.569700 0.000000 
#    z 0.000000 0.000000 1.597930 
# 
# From -- ./inp_files/59900.got.cif
#   From: 2010.05.17/outbox.cif.g08.bks.cpg/sg63_30_cif.got.tgz:59900.got - 2010.06.03 15:47:04.
