data_PCOD9473171
_publ_section_title
;
Structure prediction by ZEFSAII (Michael W. Deem and Ramdas Pophale) SiO2 
 PCOD9473171
Probable space group: C M C M
;
_chemical_formula_sum "Si O2"
_cell_formula_units_Z 80
_cell_length_a 29.793277
_cell_length_b 8.717163
_cell_length_c 16.439758
_cell_angle_alpha 90.000000
_cell_angle_beta 90.000000
_cell_angle_gamma 90.000000
_cell_volume 4269.616435
_symmetry_space_group_name_H-M "C M C M"
_symmetry_group_IT_number 63
_symmetry_cell_setting 'orthorhombic'
loop_
_space_group_symop_operation_xyz
x,y,z
-x,-y,1/2+z
x,-y,-z
-x,y,1/2-z
-x,-y,-z
x,y,1/2-z
-x,y,z
x,-y,1/2+z
1/2+x,1/2+y,z
1/2-x,1/2-y,1/2+z
1/2+x,1/2-y,-z
1/2-x,1/2+y,1/2-z
1/2-x,1/2-y,-z
1/2+x,1/2+y,1/2-z
1/2-x,1/2+y,z
1/2+x,1/2-y,1/2+z
loop_
_atom_site_type_symbol
_atom_site_label
_atom_site_fract_x
_atom_site_fract_y
_atom_site_fract_z
Si Si1 0.630894 0.609101 0.421591
Si Si2 0.948313 0.300593 0.347427
Si Si3 0.049785 0.658471 0.151339
Si Si4 0.856423 0.805259 0.156263
Si Si5 0.299519 0.818020 0.510149
O O1 0.624497 0.500000 0.500000
O O2 0.586249 0.694729 0.394155
O O3 0.646652 0.488323 0.353639
O O4 0.668054 0.734129 0.445372
O O5 0.940591 0.289798 0.250000
O O6 0.943272 0.479943 0.370709
O O7 0.000000 0.257441 0.362481
O O8 0.047965 0.664532 0.250000
O O9 0.093334 0.755129 0.127703
O O10 0.000000 0.707057 0.121748
O O11 0.851238 0.759383 0.250000
O O12 0.820570 0.726819 0.097396
O O13 0.250000 0.750000 0.500000
O O14 0.299287 0.000000 0.500000
#
# Coordination Sequence:
#
# PCOD9473171 Si02
#       5
#    16  16  16  16  16
#     4  10  21  35  54  80 111 146 181 227 283 336
#     4   9  17  31  51  76 109 149 191 231 272 323
#     4   8  15  29  51  79 110 144 182 225 271 318
#     4  10  20  36  59  87 116 147 189 232 274 331
#     4  11  23  43  64  82 111 147 182 229 289 341
#
# _framework density 18.737045999999999
#
# number of rings (size 3 to 8) (size 9 to 14) (size 15 to 20)
#    0.000    2.400    0.000    4.800    0.000    1.200 
#    0.000   11.000    0.000   10.800    0.000    0.000 
#    0.000    0.000    0.000    0.000    0.000    0.000 
#
# Total GULP energy -223203.120132 kJ/mol
# GULP energy per Si atom -5580.078003 kJ/mol
# Density = 1.869440 g / cm^3
# Si number density = 18.737046 Si / 1000 Ang^3
#
#
#
# Elastic Constant Matrix: (Units=GPa)
#
#
# Indices 1 2 3 4 5 6 
#
# 1 149.4768 90.1973 56.8351 0.0000 0.0000 0.0000
# 2 90.1973 132.1933 33.0826 0.0000 0.0000 0.0000
# 3 56.8351 33.0826 42.9648 0.0000 0.0000 0.0000
# 4 0.0000 0.0000 0.0000 16.9024 0.0000 0.0000
# 5 0.0000 0.0000 0.0000 0.0000 30.1580 0.0000
# 6 0.0000 0.0000 0.0000 0.0000 0.0000 38.3917
#
#
#
# Elastic Compliance Matrix: (Units=1/GPa)
#
#
# Indices 1 2 3 4 5 6 
#
# 1 0.018488 -0.008044 -0.018262 0.000000 0.000000 0.000000
# 2 -0.008044 0.012870 0.000731 0.000000 0.000000 0.000000
# 3 -0.018262 0.000731 0.046870 0.000000 0.000000 0.000000
# 4 0.000000 0.000000 0.000000 0.059163 0.000000 0.000000
# 5 0.000000 0.000000 0.000000 0.000000 0.033159 0.000000
# 6 0.000000 0.000000 0.000000 0.000000 0.000000 0.026047
#
#
# Mechanical properties :
#
#
# Convention : Reuss Voigt Hill
#
# Bulk Modulus (GPa) = 36.93151 76.09610 56.51381
# Shear Modulus (GPa) = 19.47238 26.72508 23.09873
#
# Velocity S-wave (km/s) = 3.22723 3.78077 3.51491
# Velocity P-wave (km/s) = 5.79999 7.73044 6.83373
#
# Compressibility (1/GPa) = 0.02707715
#
# Stress axis : x y z
#
# Youngs Moduli (GPa) = 54.08957 77.69754 21.33567
#
# Poissons Ratio (x) = 0.62502 0.38964
# Poissons Ratio (y) = 0.43511 -0.01560
# Poissons Ratio (z) = 0.98780 -0.05680
#
# Static dielectric constant tensor:
#      x y z
#    x 1.629890 0.000000 0.000000 
#    y 0.000000 1.642170 0.000000 
#    z 0.000000 0.000000 1.677720 
# 
# From -- ./inp_files/48770.got.cif
#   From: 2010.05.17/outbox.cif.g08.bks.cpg/sg63_25_cif.got.tgz:48770.got - 2010.06.03 15:47:04.
