data_PCOD9473873
_publ_section_title
;
Structure prediction by ZEFSAII (Michael W. Deem and Ramdas Pophale) SiO2 
 PCOD9473873
Probable space group: C M C M
;
_chemical_formula_sum "Si O2"
_cell_formula_units_Z 84
_cell_length_a 10.894815
_cell_length_b 14.815726
_cell_length_c 21.003748
_cell_angle_alpha 90.000000
_cell_angle_beta 90.000000
_cell_angle_gamma 90.000000
_cell_volume 3390.311453
_symmetry_space_group_name_H-M "C M C M"
_symmetry_group_IT_number 63
_symmetry_cell_setting 'orthorhombic'
loop_
_space_group_symop_operation_xyz
x,y,z
-x,-y,1/2+z
x,-y,-z
-x,y,1/2-z
-x,-y,-z
x,y,1/2-z
-x,y,z
x,-y,1/2+z
1/2+x,1/2+y,z
1/2-x,1/2-y,1/2+z
1/2+x,1/2-y,-z
1/2-x,1/2+y,1/2-z
1/2-x,1/2-y,-z
1/2+x,1/2+y,1/2-z
1/2-x,1/2+y,z
1/2+x,1/2-y,1/2+z
loop_
_atom_site_type_symbol
_atom_site_label
_atom_site_fract_x
_atom_site_fract_y
_atom_site_fract_z
Si Si1 0.373126 0.161675 0.485758
Si Si2 0.360692 0.550128 0.644749
Si Si3 0.000000 0.642442 0.250000
Si Si4 0.738977 0.355179 0.819085
Si Si5 0.370662 0.623444 0.503539
Si Si6 0.861321 0.326883 0.136836
O O1 0.500000 0.126447 0.458855
O O2 0.368773 0.269965 0.476375
O O3 0.252685 0.110620 0.464285
O O4 0.371982 0.148356 0.562026
O O5 0.500000 0.570062 0.668510
O O6 0.317415 0.451262 0.663604
O O7 0.368446 0.567577 0.568555
O O8 0.249091 0.615086 0.666977
O O9 0.886790 0.642625 0.194792
O O10 0.685749 0.329486 0.750000
O O11 0.687971 0.274911 0.862024
O O12 0.500000 0.609251 0.469729
O O13 0.000000 0.336645 0.163204
#
# Coordination Sequence:
#
# PCOD9473873 Si02
#       6
#    16  16   4  16  16  16
#     4   8  14  27  47  76 111 145 180 218 261 315
#     4  10  21  35  59  87 114 149 187 226 275 329
#     4   8  24  44  62  80 102 150 182 236 292 336
#     4  10  23  42  59  77 111 139 186 234 291 329
#     4   8  14  27  47  76 111 145 180 218 261 315
#     4  10  21  35  59  87 114 149 187 226 275 329
#
# _framework density 24.776485000000001
#
# number of rings (size 3 to 8) (size 9 to 14) (size 15 to 20)
#    0.571    2.286    0.000    0.571    2.667    2.286 
#    0.000    0.952    0.000    4.571    0.000    1.333 
#    0.000    0.000    0.000    0.000    0.000    0.000 
#
# Total GULP energy -233851.747585 kJ/mol
# GULP energy per Si atom -5567.898752 kJ/mol
# Density = 2.472009 g / cm^3
# Si number density = 24.776485 Si / 1000 Ang^3
#
#
#
# Elastic Constant Matrix: (Units=GPa)
#
#
# Indices 1 2 3 4 5 6 
#
# 1 314.5610 73.8917 21.8083 0.0000 0.0000 0.0000
# 2 73.8917 64.1107 -7.4354 0.0000 0.0000 0.0000
# 3 21.8083 -7.4354 47.9145 0.0000 0.0000 0.0000
# 4 0.0000 0.0000 0.0000 13.6525 0.0000 0.0000
# 5 0.0000 0.0000 0.0000 0.0000 21.8966 0.0000
# 6 0.0000 0.0000 0.0000 0.0000 0.0000 16.4823
#
#
#
# Elastic Compliance Matrix: (Units=1/GPa)
#
#
# Indices 1 2 3 4 5 6 
#
# 1 0.004767 -0.005851 -0.003078 0.000000 0.000000 0.000000
# 2 -0.005851 0.023066 0.006242 0.000000 0.000000 0.000000
# 3 -0.003078 0.006242 0.023240 0.000000 0.000000 0.000000
# 4 0.000000 0.000000 0.000000 0.073247 0.000000 0.000000
# 5 0.000000 0.000000 0.000000 0.000000 0.045669 0.000000
# 6 0.000000 0.000000 0.000000 0.000000 0.000000 0.060671
#
#
# Mechanical properties :
#
#
# Convention : Reuss Voigt Hill
#
# Bulk Modulus (GPa) = 21.88179 67.01283 44.44731
# Shear Modulus (GPa) = 19.89930 32.96105 26.43017
#
# Velocity S-wave (km/s) = 2.83707 3.65133 3.26965
# Velocity P-wave (km/s) = 4.42525 6.69940 5.67736
#
# Compressibility (1/GPa) = 0.04570011
#
# Stress axis : x y z
#
# Youngs Moduli (GPa) = 209.78323 43.35452 43.02930
#
# Poissons Ratio (x) = 0.25367 0.13243
# Poissons Ratio (y) = 1.22744 -0.26861
# Poissons Ratio (z) = 0.64562 -0.27064
#
# Static dielectric constant tensor:
#      x y z
#    x 2.081270 0.000000 0.000000 
#    y 0.000000 1.951740 0.000000 
#    z 0.000000 0.000000 2.106300 
# 
# From -- ./inp_files/72747.got.cif
#   From: 2010.05.17/outbox.cif.g08.bks.cpg/sg63_37_cif.got.tgz:72747.got - 2010.06.03 15:47:04.
