data_PCOD9473468
_publ_section_title
;
Structure prediction by ZEFSAII (Michael W. Deem and Ramdas Pophale) SiO2 
 PCOD9473468
Probable space group: C M C M
;
_chemical_formula_sum "Si O2"
_cell_formula_units_Z 80
_cell_length_a 7.465709
_cell_length_b 20.024066
_cell_length_c 24.568653
_cell_angle_alpha 90.000000
_cell_angle_beta 90.000000
_cell_angle_gamma 90.000000
_cell_volume 3672.862520
_symmetry_space_group_name_H-M "C M C M"
_symmetry_group_IT_number 63
_symmetry_cell_setting 'orthorhombic'
loop_
_space_group_symop_operation_xyz
x,y,z
-x,-y,1/2+z
x,-y,-z
-x,y,1/2-z
-x,-y,-z
x,y,1/2-z
-x,y,z
x,-y,1/2+z
1/2+x,1/2+y,z
1/2-x,1/2-y,1/2+z
1/2+x,1/2-y,-z
1/2-x,1/2+y,1/2-z
1/2-x,1/2-y,-z
1/2+x,1/2+y,1/2-z
1/2-x,1/2+y,z
1/2+x,1/2-y,1/2+z
loop_
_atom_site_type_symbol
_atom_site_label
_atom_site_fract_x
_atom_site_fract_y
_atom_site_fract_z
Si Si1 0.204159 0.756658 0.162192
Si Si2 0.783298 0.860893 0.250000
Si Si3 0.788799 0.518343 0.250000
Si Si4 0.219889 0.606099 0.351803
Si Si5 0.781207 0.429897 0.525173
Si Si6 0.212361 0.305642 0.455363
O O1 0.280486 0.816089 0.199029
O O2 0.281345 0.681664 0.162230
O O3 0.203907 0.782873 0.100850
O O4 0.000000 0.747829 0.181519
O O5 0.730513 0.938402 0.250000
O O6 0.000000 0.863824 0.250000
O O7 0.720920 0.554457 0.195015
O O8 0.000000 0.532234 0.250000
O O9 0.276455 0.585385 0.412900
O O10 0.000000 0.607036 0.353135
O O11 0.725465 0.500000 0.500000
O O12 0.722596 0.373450 0.482833
O O13 0.000000 0.428547 0.526408
O O14 0.250000 0.250000 0.500000
O O15 0.000000 0.311059 0.445853
#
# Coordination Sequence:
#
# PCOD9473468 Si02
#       6
#    16   8   8  16  16  16
#     4  10  20  38  60  81 109 149 194 231 273 334
#     4  10  23  39  57  81 115 150 180 228 294 340
#     4  10  21  35  59  85 107 138 190 240 272 322
#     4   9  17  33  55  79 105 142 188 230 266 316
#     4   9  18  31  51  79 111 143 179 223 272 322
#     4  11  21  35  58  86 115 146 182 231 282 332
#
# _framework density 21.781376999999999
#
# number of rings (size 3 to 8) (size 9 to 14) (size 15 to 20)
#    0.000    2.200    2.000    1.200    2.800    3.200 
#    0.000    1.000    0.000    3.600    0.000    0.000 
#    0.000    0.000    0.000    0.000    0.000    0.000 
#
# Total GULP energy -223341.854885 kJ/mol
# GULP energy per Si atom -5583.546372 kJ/mol
# Density = 2.173180 g / cm^3
# Si number density = 21.781377 Si / 1000 Ang^3
#
#
#
# Elastic Constant Matrix: (Units=GPa)
#
#
# Indices 1 2 3 4 5 6 
#
# 1 64.4467 -6.5679 -5.2785 0.0000 0.0000 0.0000
# 2 -6.5679 233.0509 99.8731 0.0000 0.0000 0.0000
# 3 -5.2785 99.8731 158.3715 0.0000 0.0000 0.0000
# 4 0.0000 0.0000 0.0000 40.4900 0.0000 0.0000
# 5 0.0000 0.0000 0.0000 0.0000 8.1714 0.0000
# 6 0.0000 0.0000 0.0000 0.0000 0.0000 4.8705
#
#
#
# Elastic Compliance Matrix: (Units=1/GPa)
#
#
# Indices 1 2 3 4 5 6 
#
# 1 0.015574 0.000297 0.000332 0.000000 0.000000 0.000000
# 2 0.000297 0.005886 -0.003702 0.000000 0.000000 0.000000
# 3 0.000332 -0.003702 0.008660 0.000000 0.000000 0.000000
# 4 0.000000 0.000000 0.000000 0.024697 0.000000 0.000000
# 5 0.000000 0.000000 0.000000 0.000000 0.122378 0.000000
# 6 0.000000 0.000000 0.000000 0.000000 0.000000 0.205317
#
#
# Mechanical properties :
#
#
# Convention : Reuss Voigt Hill
#
# Bulk Modulus (GPa) = 41.71302 70.21361 55.96331
# Shear Modulus (GPa) = 12.60559 35.22921 23.91740
#
# Velocity S-wave (km/s) = 2.40830 4.02605 3.31730
# Velocity P-wave (km/s) = 5.18898 7.34287 6.35780
#
# Compressibility (1/GPa) = 0.02397333
#
# Stress axis : x y z
#
# Youngs Moduli (GPa) = 64.20904 169.90518 115.47683
#
# Poissons Ratio (x) = -0.05040 -0.03834
# Poissons Ratio (y) = -0.01905 0.42747
# Poissons Ratio (z) = -0.02132 0.62895
#
# Static dielectric constant tensor:
#      x y z
#    x 1.858900 0.000000 0.000000 
#    y 0.000000 1.219820 0.000000 
#    z 0.000000 0.000000 1.743570 
# 
# From -- ./inp_files/52444.got.cif
#   From: 2010.05.17/outbox.cif.g08.bks.cpg/sg63_27_cif.got.tgz:52444.got - 2010.06.03 15:47:04.
