data_PCOD9473647
_publ_section_title
;
Structure prediction by ZEFSAII (Michael W. Deem and Ramdas Pophale) SiO2 
 PCOD9473647
Probable space group: C M C M
;
_chemical_formula_sum "Si O2"
_cell_formula_units_Z 52
_cell_length_a 9.111504
_cell_length_b 14.466957
_cell_length_c 18.018498
_cell_angle_alpha 90.000000
_cell_angle_beta 90.000000
_cell_angle_gamma 90.000000
_cell_volume 2375.121586
_symmetry_space_group_name_H-M "C M C M"
_symmetry_group_IT_number 63
_symmetry_cell_setting 'orthorhombic'
loop_
_space_group_symop_operation_xyz
x,y,z
-x,-y,1/2+z
x,-y,-z
-x,y,1/2-z
-x,-y,-z
x,y,1/2-z
-x,y,z
x,-y,1/2+z
1/2+x,1/2+y,z
1/2-x,1/2-y,1/2+z
1/2+x,1/2-y,-z
1/2-x,1/2+y,1/2-z
1/2-x,1/2-y,-z
1/2+x,1/2+y,1/2-z
1/2-x,1/2+y,z
1/2+x,1/2-y,1/2+z
loop_
_atom_site_type_symbol
_atom_site_label
_atom_site_fract_x
_atom_site_fract_y
_atom_site_fract_z
Si Si1 0.162057 0.247121 0.601578
Si Si2 0.328666 0.929995 0.431047
Si Si3 0.826750 0.922169 0.662178
Si Si4 0.500000 0.299129 0.250000
O O1 0.257840 0.337317 0.617028
O O2 0.000000 0.271261 0.569660
O O3 0.124097 0.207594 0.683698
O O4 0.244036 0.166100 0.558367
O O5 0.500000 0.913367 0.417449
O O6 0.256016 0.985877 0.363384
O O7 0.313328 0.000000 0.500000
O O8 0.805533 0.907011 0.750000
O O9 0.000000 0.931948 0.647944
#
# Coordination Sequence:
#
# PCOD9473647 Si02
#       4
#    16  16  16   4
#     4  10  20  40  64  89 126 153 198 247 306 353
#     4  11  26  43  60  87 124 166 207 247 299 361
#     4  11  23  39  65  95 122 156 202 250 304 362
#     4   8  20  36  64  96 122 154 192 256 302 360
#
# _framework density 21.893618
#
# number of rings (size 3 to 8) (size 9 to 14) (size 15 to 20)
#    0.923    0.615    1.538    2.769    2.154    5.538 
#    0.000    0.000    0.000    0.000    0.000    0.000 
#    0.000    0.000    0.000    0.000    0.000    0.000 
#
# Total GULP energy -144829.523254 kJ/mol
# GULP energy per Si atom -5570.366279 kJ/mol
# Density = 2.184379 g / cm^3
# Si number density = 21.893618 Si / 1000 Ang^3
#
#
#
# Elastic Constant Matrix: (Units=GPa)
#
#
# Indices 1 2 3 4 5 6 
#
# 1 134.5586 48.9761 54.8464 0.0000 0.0000 0.0000
# 2 48.9761 97.6922 27.0333 0.0000 0.0000 0.0000
# 3 54.8464 27.0333 58.7494 0.0000 0.0000 0.0000
# 4 0.0000 0.0000 0.0000 25.9014 0.0000 0.0000
# 5 0.0000 0.0000 0.0000 0.0000 28.3725 0.0000
# 6 0.0000 0.0000 0.0000 0.0000 0.0000 30.9610
#
#
#
# Elastic Compliance Matrix: (Units=1/GPa)
#
#
# Indices 1 2 3 4 5 6 
#
# 1 0.013030 -0.003628 -0.010495 0.000000 0.000000 0.000000
# 2 -0.003628 0.012740 -0.002475 0.000000 0.000000 0.000000
# 3 -0.010495 -0.002475 0.027958 0.000000 0.000000 0.000000
# 4 0.000000 0.000000 0.000000 0.038608 0.000000 0.000000
# 5 0.000000 0.000000 0.000000 0.000000 0.035245 0.000000
# 6 0.000000 0.000000 0.000000 0.000000 0.000000 0.032299
#
#
# Mechanical properties :
#
#
# Convention : Reuss Voigt Hill
#
# Bulk Modulus (GPa) = 48.70512 61.41241 55.05876
# Shear Modulus (GPa) = 25.00994 27.72326 26.36660
#
# Velocity S-wave (km/s) = 3.38352 3.56233 3.47407
# Velocity P-wave (km/s) = 6.12852 6.71055 6.42613
#
# Compressibility (1/GPa) = 0.02053172
#
# Stress axis : x y z
#
# Youngs Moduli (GPa) = 76.74581 78.49240 35.76791
#
# Poissons Ratio (x) = 0.28479 0.37538
# Poissons Ratio (y) = 0.27845 0.08853
# Poissons Ratio (z) = 0.80544 0.19428
#
# Static dielectric constant tensor:
#      x y z
#    x 1.761450 0.000000 0.000000 
#    y 0.000000 1.796720 0.000000 
#    z 0.000000 0.000000 1.827030 
# 
# From -- ./inp_files/39513.got.cif
#   From: 2010.05.17/outbox.cif.g08.bks.cpg/sg63_20_cif.got.tgz:39513.got - 2010.06.03 15:47:04.
