data_PCOD9473545
_publ_section_title
;
Structure prediction by ZEFSAII (Michael W. Deem and Ramdas Pophale) SiO2 
 PCOD9473545
Probable space group: C M C M
;
_chemical_formula_sum "Si O2"
_cell_formula_units_Z 96
_cell_length_a 19.539464
_cell_length_b 14.488717
_cell_length_c 17.624560
_cell_angle_alpha 90.000000
_cell_angle_beta 90.000000
_cell_angle_gamma 90.000000
_cell_volume 4989.544030
_symmetry_space_group_name_H-M "C M C M"
_symmetry_group_IT_number 63
_symmetry_cell_setting 'orthorhombic'
loop_
_space_group_symop_operation_xyz
x,y,z
-x,-y,1/2+z
x,-y,-z
-x,y,1/2-z
-x,-y,-z
x,y,1/2-z
-x,y,z
x,-y,1/2+z
1/2+x,1/2+y,z
1/2-x,1/2-y,1/2+z
1/2+x,1/2-y,-z
1/2-x,1/2+y,1/2-z
1/2-x,1/2-y,-z
1/2+x,1/2+y,1/2-z
1/2-x,1/2+y,z
1/2+x,1/2-y,1/2+z
loop_
_atom_site_type_symbol
_atom_site_label
_atom_site_fract_x
_atom_site_fract_y
_atom_site_fract_z
Si Si1 0.280586 0.968531 0.588090
Si Si2 0.422371 0.256799 0.895443
Si Si3 0.814013 0.116955 0.836359
Si Si4 0.920628 0.099636 0.533555
Si Si5 0.574739 0.963180 0.086080
Si Si6 0.776544 0.799523 0.834743
O O1 0.255686 0.864934 0.601273
O O2 0.277995 0.000000 0.500000
O O3 0.228472 0.028961 0.636559
O O4 0.357508 0.988189 0.617765
O O5 0.500000 0.270483 0.864595
O O6 0.415700 0.147655 0.913658
O O7 0.357649 0.285382 0.845144
O O8 0.416798 0.321295 0.969708
O O9 0.837909 0.107461 0.750000
O O10 0.875405 0.127394 0.895188
O O11 0.761831 0.202275 0.840617
O O12 0.000000 0.088342 0.555256
O O13 0.897701 0.000000 0.500000
O O14 0.500000 0.982615 0.121790
O O15 0.571150 0.000000 0.000000
O O16 0.763082 0.837221 0.750000
#
# Coordination Sequence:
#
# PCOD9473545 Si02
#       6
#    16  16  16  16  16  16
#     4  11  22  37  62  88 114 156 198 252 296 347
#     4  10  20  38  64  90 119 153 198 254 299 344
#     4  11  23  38  57  84 121 160 194 236 297 359
#     4  10  22  39  60  88 117 151 200 251 297 346
#     4   9  19  35  57  89 118 148 193 246 302 348
#     4  11  24  39  57  86 125 159 195 240 295 363
#
# _framework density 19.240234000000001
#
# number of rings (size 3 to 8) (size 9 to 14) (size 15 to 20)
#    0.000    1.667    1.667    3.000    4.667    2.000 
#    0.000    0.000    0.000    8.000    0.000    0.000 
#    0.000    0.000    0.000    0.000    0.000    0.000 
#
# Total GULP energy -267869.911575 kJ/mol
# GULP energy per Si atom -5580.623158 kJ/mol
# Density = 1.919644 g / cm^3
# Si number density = 19.240234 Si / 1000 Ang^3
#
#
#
# Elastic Constant Matrix: (Units=GPa)
#
#
# Indices 1 2 3 4 5 6 
#
# 1 112.6771 7.9507 27.2376 0.0000 0.0000 0.0000
# 2 7.9507 46.2760 -0.4391 0.0000 0.0000 0.0000
# 3 27.2376 -0.4391 55.3575 0.0000 0.0000 0.0000
# 4 0.0000 0.0000 0.0000 18.5264 0.0000 0.0000
# 5 0.0000 0.0000 0.0000 0.0000 425.6909 0.0000
# 6 0.0000 0.0000 0.0000 0.0000 0.0000 36.7461
#
#
#
# Elastic Compliance Matrix: (Units=1/GPa)
#
#
# Indices 1 2 3 4 5 6 
#
# 1 0.010221 -0.001804 -0.005044 0.000000 0.000000 0.000000
# 2 -0.001804 0.021929 0.001062 0.000000 0.000000 0.000000
# 3 -0.005044 0.001062 0.020554 0.000000 0.000000 0.000000
# 4 0.000000 0.000000 0.000000 0.053977 0.000000 0.000000
# 5 0.000000 0.000000 0.000000 0.000000 0.002349 0.000000
# 6 0.000000 0.000000 0.000000 0.000000 0.000000 0.027214
#
#
# Mechanical properties :
#
#
# Convention : Reuss Voigt Hill
#
# Bulk Modulus (GPa) = 24.31119 31.53434 27.92276
# Shear Modulus (GPa) = 30.95431 108.16344 69.55888
#
# Velocity S-wave (km/s) = 4.01538 7.50596 6.01924
# Velocity P-wave (km/s) = 5.84472 9.56789 7.92796
#
# Compressibility (1/GPa) = 0.04113333
#
# Stress axis : x y z
#
# Youngs Moduli (GPa) = 97.83401 45.60068 48.65137
#
# Poissons Ratio (x) = 0.08226 0.24538
# Poissons Ratio (y) = 0.17649 -0.05165
# Poissons Ratio (z) = 0.49343 -0.04841
#
# Static dielectric constant tensor:
#      x y z
#    x 1.697950 0.000000 0.000000 
#    y 0.000000 1.513080 0.000000 
#    z 0.000000 0.000000 1.645390 
# 
# From -- ./inp_files/35325.got.cif
#   From: 2010.05.17/outbox.cif.g08.bks.cpg/sg63_18_cif.got.tgz:35325.got - 2010.06.03 15:47:04.
