data_PCOD9473187
_publ_section_title
;
Structure prediction by ZEFSAII (Michael W. Deem and Ramdas Pophale) SiO2 
 PCOD9473187
Probable space group: C M C M
;
_chemical_formula_sum "Si O2"
_cell_formula_units_Z 80
_cell_length_a 21.216140
_cell_length_b 22.683230
_cell_length_c 7.982100
_cell_angle_alpha 90.000000
_cell_angle_beta 90.000000
_cell_angle_gamma 90.000000
_cell_volume 3841.390281
_symmetry_space_group_name_H-M "C M C M"
_symmetry_group_IT_number 63
_symmetry_cell_setting 'orthorhombic'
loop_
_space_group_symop_operation_xyz
x,y,z
-x,-y,1/2+z
x,-y,-z
-x,y,1/2-z
-x,-y,-z
x,y,1/2-z
-x,y,z
x,-y,1/2+z
1/2+x,1/2+y,z
1/2-x,1/2-y,1/2+z
1/2+x,1/2-y,-z
1/2-x,1/2+y,1/2-z
1/2-x,1/2-y,-z
1/2+x,1/2+y,1/2-z
1/2-x,1/2+y,z
1/2+x,1/2-y,1/2+z
loop_
_atom_site_type_symbol
_atom_site_label
_atom_site_fract_x
_atom_site_fract_y
_atom_site_fract_z
Si Si1 0.500000 0.681164 0.450485
Si Si2 0.366024 0.342284 0.443892
Si Si3 0.500000 0.176814 0.045042
Si Si4 0.815853 0.727279 0.936818
Si Si5 0.743128 0.566218 0.049015
Si Si6 0.627161 0.116545 0.437068
O O1 0.500000 0.678276 0.250000
O O2 0.439361 0.646347 0.523567
O O3 0.500000 0.752922 0.496587
O O4 0.357538 0.325453 0.250000
O O5 0.357462 0.285089 0.559033
O O6 0.311342 0.389485 0.484907
O O7 0.500000 0.177196 0.250000
O O8 0.439345 0.138191 0.986202
O O9 0.813403 0.701887 0.750000
O O10 0.750000 0.750000 0.000000
O O11 0.839146 0.679746 0.066712
O O12 0.745656 0.572996 0.250000
O O13 0.815336 0.578445 0.985736
O O14 0.725953 0.500000 0.000000
O O15 0.613910 0.093225 0.250000
#
# Coordination Sequence:
#
# PCOD9473187 Si02
#       6
#     8  16   8  16  16  16
#     4  12  24  38  59  94 133 166 201 246 304 377
#     4  12  24  40  62  90 126 165 204 252 312 371
#     4  10  20  36  59  90 128 168 204 246 305 371
#     4  12  22  33  55  89 126 160 201 251 311 371
#     4  11  24  43  65  89 119 161 214 267 313 364
#     4  10  21  37  60  88 124 163 206 253 307 367
#
# _framework density 20.825792
#
# number of rings (size 3 to 8) (size 9 to 14) (size 15 to 20)
#    0.000    0.800    4.000    5.100    0.000    0.800 
#    0.000    1.000    0.000    0.000    0.000    0.000 
#    0.000    0.000    0.000    0.000    0.000    0.000 
#
# Total GULP energy -222824.974527 kJ/mol
# GULP energy per Si atom -5570.624363 kJ/mol
# Density = 2.077839 g / cm^3
# Si number density = 20.825792 Si / 1000 Ang^3
#
#
#
# Elastic Constant Matrix: (Units=GPa)
#
#
# Indices 1 2 3 4 5 6 
#
# 1 120.8659 1.4272 1.8296 0.0000 0.0000 0.0000
# 2 1.4272 56.4092 1.1799 0.0000 0.0000 0.0000
# 3 1.8296 1.1799 98.7850 0.0000 0.0000 0.0000
# 4 0.0000 0.0000 0.0000 17.9787 0.0000 0.0000
# 5 0.0000 0.0000 0.0000 0.0000 12.3760 0.0000
# 6 0.0000 0.0000 0.0000 0.0000 0.0000 6.7462
#
#
#
# Elastic Compliance Matrix: (Units=1/GPa)
#
#
# Indices 1 2 3 4 5 6 
#
# 1 0.008278 -0.000206 -0.000151 0.000000 0.000000 0.000000
# 2 -0.000206 0.017737 -0.000208 0.000000 0.000000 0.000000
# 3 -0.000151 -0.000208 0.010128 0.000000 0.000000 0.000000
# 4 0.000000 0.000000 0.000000 0.055621 0.000000 0.000000
# 5 0.000000 0.000000 0.000000 0.000000 0.080801 0.000000
# 6 0.000000 0.000000 0.000000 0.000000 0.000000 0.148231
#
#
# Mechanical properties :
#
#
# Convention : Reuss Voigt Hill
#
# Bulk Modulus (GPa) = 28.56046 31.65926 30.10986
# Shear Modulus (GPa) = 14.98805 25.52843 20.25824
#
# Velocity S-wave (km/s) = 2.68561 3.50495 3.12227
# Velocity P-wave (km/s) = 4.83326 5.62268 5.24285
#
# Compressibility (1/GPa) = 0.03501344
#
# Stress axis : x y z
#
# Youngs Moduli (GPa) = 120.79702 56.37879 98.73353
#
# Poissons Ratio (x) = 0.01163 0.01489
# Poissons Ratio (y) = 0.02492 0.02054
# Poissons Ratio (z) = 0.01822 0.01173
#
# Static dielectric constant tensor:
#      x y z
#    x 1.919200 0.000000 0.000000 
#    y 0.000000 1.597080 0.000000 
#    z 0.000000 0.000000 1.732910 
# 
# From -- ./inp_files/8094.got.cif
#   From: 2010.05.17/outbox.cif.g08.bks.cpg/sg63_5_cif.got.tgz:8094.got - 2010.06.03 15:47:04.
