data_PCOD9473979
_publ_section_title
;
Structure prediction by ZEFSAII (Michael W. Deem and Ramdas Pophale) SiO2 
 PCOD9473979
Probable space group: C M C M
;
_chemical_formula_sum "Si O2"
_cell_formula_units_Z 112
_cell_length_a 14.182191
_cell_length_b 13.479143
_cell_length_c 32.102081
_cell_angle_alpha 90.000000
_cell_angle_beta 90.000000
_cell_angle_gamma 90.000000
_cell_volume 6136.755167
_symmetry_space_group_name_H-M "C M C M"
_symmetry_group_IT_number 63
_symmetry_cell_setting 'orthorhombic'
loop_
_space_group_symop_operation_xyz
x,y,z
-x,-y,1/2+z
x,-y,-z
-x,y,1/2-z
-x,-y,-z
x,y,1/2-z
-x,y,z
x,-y,1/2+z
1/2+x,1/2+y,z
1/2-x,1/2-y,1/2+z
1/2+x,1/2-y,-z
1/2-x,1/2+y,1/2-z
1/2-x,1/2-y,-z
1/2+x,1/2+y,1/2-z
1/2-x,1/2+y,z
1/2+x,1/2-y,1/2+z
loop_
_atom_site_type_symbol
_atom_site_label
_atom_site_fract_x
_atom_site_fract_y
_atom_site_fract_z
Si Si1 0.708264 0.617210 0.079391
Si Si2 0.742345 0.273602 0.147592
Si Si3 0.390391 0.310047 0.496243
Si Si4 0.608310 0.132229 0.200119
Si Si5 0.110240 0.399340 0.200377
Si Si6 0.112187 0.911990 0.091774
Si Si7 0.891596 0.584329 0.034442
O O1 0.710071 0.704995 0.112500
O O2 0.671135 0.657068 0.035115
O O3 0.644281 0.525609 0.093206
O O4 0.815039 0.579945 0.070909
O O5 0.681104 0.201924 0.176869
O O6 0.819772 0.332845 0.173776
O O7 0.671201 0.348604 0.124632
O O8 0.500000 0.332415 0.505626
O O9 0.364837 0.369361 0.454339
O O10 0.383277 0.193261 0.486257
O O11 0.614927 0.145012 0.250000
O O12 0.500000 0.154511 0.187810
O O13 0.626028 0.016005 0.191347
O O14 0.125109 0.384921 0.250000
O O15 0.000000 0.377819 0.191736
O O16 0.000000 0.900998 0.097766
O O17 0.000000 0.573558 0.049011
O O18 0.873360 0.500000 0.000000
#
# Coordination Sequence:
#
# PCOD9473979 Si02
#       7
#    16  16  16  16  16  16  16
#     4  12  24  36  59  82 117 156 203 243 291 352
#     4  12  23  36  60  91 123 150 188 240 298 348
#     4  10  21  40  59  78 108 159 209 244 288 346
#     4   9  19  39  65  89 114 149 191 232 282 351
#     4   9  20  41  65  89 120 155 192 233 284 352
#     4  11  24  41  58  82 117 158 199 245 293 339
#     4  10  21  36  57  82 110 148 204 261 298 337
#
# _framework density 18.250688
#
# number of rings (size 3 to 8) (size 9 to 14) (size 15 to 20)
#    0.000    1.571    1.429    4.714    2.000    2.857 
#    0.000    0.714    0.000    0.000    0.000    6.000 
#    0.000    0.000    0.000    0.000    0.000    0.000 
#
# Total GULP energy -313049.287434 kJ/mol
# GULP energy per Si atom -5590.165847 kJ/mol
# Density = 1.820915 g / cm^3
# Si number density = 18.250688 Si / 1000 Ang^3
#
#
#
# Elastic Constant Matrix: (Units=GPa)
#
#
# Indices 1 2 3 4 5 6 
#
# 1 114.8662 68.4536 82.7894 0.0000 0.0000 0.0000
# 2 68.4536 82.7101 52.9177 0.0000 0.0000 0.0000
# 3 82.7894 52.9177 84.0953 0.0000 0.0000 0.0000
# 4 0.0000 0.0000 0.0000 86.2107 0.0000 0.0000
# 5 0.0000 0.0000 0.0000 0.0000 26.9535 0.0000
# 6 0.0000 0.0000 0.0000 0.0000 0.0000 35.9813
#
#
#
# Elastic Compliance Matrix: (Units=1/GPa)
#
#
# Indices 1 2 3 4 5 6 
#
# 1 0.035782 -0.011846 -0.027772 0.000000 0.000000 0.000000
# 2 -0.011846 0.024160 -0.003541 0.000000 0.000000 0.000000
# 3 -0.027772 -0.003541 0.041460 0.000000 0.000000 0.000000
# 4 0.000000 0.000000 0.000000 0.011599 0.000000 0.000000
# 5 0.000000 0.000000 0.000000 0.000000 0.037101 0.000000
# 6 0.000000 0.000000 0.000000 0.000000 0.000000 0.027792
#
#
# Mechanical properties :
#
#
# Convention : Reuss Voigt Hill
#
# Bulk Modulus (GPa) = 66.29425 76.66589 71.48007
# Shear Modulus (GPa) = 18.57074 34.99649 26.78361
#
# Velocity S-wave (km/s) = 3.19335 4.38373 3.83500
# Velocity P-wave (km/s) = 7.07105 8.22928 7.67205
#
# Compressibility (1/GPa) = 0.01508426
#
# Stress axis : x y z
#
# Youngs Moduli (GPa) = 27.94716 41.39098 24.11935
#
# Poissons Ratio (x) = 0.49030 0.66985
# Poissons Ratio (y) = 0.33105 0.08541
# Poissons Ratio (z) = 0.77615 0.14657
#
# Static dielectric constant tensor:
#      x y z
#    x 1.632460 0.000000 0.000000 
#    y 0.000000 1.606500 0.000000 
#    z 0.000000 0.000000 1.601460 
# 
# From -- ./inp_files/73405.got.cif
#   From: 2010.05.17/outbox.cif.g08.bks.cpg/sg63_37_cif.got.tgz:73405.got - 2010.06.03 15:47:04.
