data_PCOD9473450
_publ_section_title
;
Structure prediction by ZEFSAII (Michael W. Deem and Ramdas Pophale) SiO2 
 PCOD9473450
Probable space group: C M C M
;
_chemical_formula_sum "Si O2"
_cell_formula_units_Z 96
_cell_length_a 28.339117
_cell_length_b 11.516314
_cell_length_c 15.892008
_cell_angle_alpha 90.000000
_cell_angle_beta 90.000000
_cell_angle_gamma 90.000000
_cell_volume 5186.550214
_symmetry_space_group_name_H-M "C M C M"
_symmetry_group_IT_number 63
_symmetry_cell_setting 'orthorhombic'
loop_
_space_group_symop_operation_xyz
x,y,z
-x,-y,1/2+z
x,-y,-z
-x,y,1/2-z
-x,-y,-z
x,y,1/2-z
-x,y,z
x,-y,1/2+z
1/2+x,1/2+y,z
1/2-x,1/2-y,1/2+z
1/2+x,1/2-y,-z
1/2-x,1/2+y,1/2-z
1/2-x,1/2-y,-z
1/2+x,1/2+y,1/2-z
1/2-x,1/2+y,z
1/2+x,1/2-y,1/2+z
loop_
_atom_site_type_symbol
_atom_site_label
_atom_site_fract_x
_atom_site_fract_y
_atom_site_fract_z
Si Si1 0.391792 0.498382 0.398350
Si Si2 0.556841 0.633597 0.750000
Si Si3 0.443180 0.104023 0.250000
Si Si4 0.445431 0.053331 0.907595
Si Si5 0.122544 0.254466 0.150554
Si Si6 0.719123 0.527124 0.597772
Si Si7 0.231107 0.232642 0.349533
O O1 0.399838 0.500000 0.500000
O O2 0.423788 0.421449 0.336838
O O3 0.398149 0.628022 0.364664
O O4 0.336666 0.468114 0.381199
O O5 0.500000 0.627807 0.750000
O O6 0.574462 0.765912 0.750000
O O7 0.500000 0.110406 0.250000
O O8 0.430517 0.036397 0.165233
O O9 0.500000 0.088375 0.890151
O O10 0.409210 0.157376 0.900375
O O11 0.444156 0.000000 0.000000
O O12 0.121315 0.282728 0.250000
O O13 0.176865 0.250301 0.121632
O O14 0.722935 0.500000 0.500000
O O15 0.740366 0.655703 0.614906
O O16 0.741064 0.406405 0.636414
O O17 0.232977 0.248558 0.250000
#
# Coordination Sequence:
#
# PCOD9473450 Si02
#       7
#    16   8   8  16  16  16  16
#     4  10  23  41  62  88 121 159 198 247 300 353
#     4  11  24  41  61  86 122 160 196 247 302 356
#     4   9  20  39  55  78 118 148 184 247 293 338
#     4  10  21  37  59  84 113 154 196 241 302 355
#     4  10  20  38  58  84 119 153 199 254 291 344
#     4  10  21  40  61  87 122 160 199 247 301 356
#     4  10  21  36  59  86 121 156 197 248 298 353
#
# _framework density 18.509412999999999
#
# number of rings (size 3 to 8) (size 9 to 14) (size 15 to 20)
#    0.000    2.000    1.667    1.000    4.667    1.667 
#    3.000    0.000    0.000    0.000    0.000    0.000 
#    0.000    0.000    0.000    0.000    0.000    0.000 
#
# Total GULP energy -267323.848429 kJ/mol
# GULP energy per Si atom -5569.246842 kJ/mol
# Density = 1.846728 g / cm^3
# Si number density = 18.509413 Si / 1000 Ang^3
#
#
#
# Elastic Constant Matrix: (Units=GPa)
#
#
# Indices 1 2 3 4 5 6 
#
# 1 35.0571 27.9116 14.8799 0.0000 0.0000 0.0000
# 2 27.9116 72.6435 8.7890 0.0000 0.0000 0.0000
# 3 14.8799 8.7890 59.0563 0.0000 0.0000 0.0000
# 4 0.0000 0.0000 0.0000 31.0521 0.0000 0.0000
# 5 0.0000 0.0000 0.0000 0.0000 16.5425 0.0000
# 6 0.0000 0.0000 0.0000 0.0000 0.0000 24.7119
#
#
#
# Elastic Compliance Matrix: (Units=1/GPa)
#
#
# Indices 1 2 3 4 5 6 
#
# 1 0.045349 -0.016336 -0.008995 0.000000 0.000000 0.000000
# 2 -0.016336 0.019903 0.001154 0.000000 0.000000 0.000000
# 3 -0.008995 0.001154 0.019028 0.000000 0.000000 0.000000
# 4 0.000000 0.000000 0.000000 0.032204 0.000000 0.000000
# 5 0.000000 0.000000 0.000000 0.000000 0.060450 0.000000
# 6 0.000000 0.000000 0.000000 0.000000 0.000000 0.040466
#
#
# Mechanical properties :
#
#
# Convention : Reuss Voigt Hill
#
# Bulk Modulus (GPa) = 27.83530 29.99089 28.91310
# Shear Modulus (GPa) = 18.00309 22.13973 20.07141
#
# Velocity S-wave (km/s) = 3.12211 3.46227 3.29658
# Velocity P-wave (km/s) = 5.29791 5.67638 5.49041
#
# Compressibility (1/GPa) = 0.03592560
#
# Stress axis : x y z
#
# Youngs Moduli (GPa) = 22.05107 50.24363 52.55506
#
# Poissons Ratio (x) = 0.82079 0.47274
# Poissons Ratio (y) = 0.36023 -0.06065
# Poissons Ratio (z) = 0.19835 -0.05798
#
# Static dielectric constant tensor:
#      x y z
#    x 1.657830 0.000000 0.000000 
#    y 0.000000 1.689480 0.000000 
#    z 0.000000 0.000000 1.622700 
# 
# From -- ./inp_files/38462.got.cif
#   From: 2010.05.17/outbox.cif.g08.bks.cpg/sg63_20_cif.got.tgz:38462.got - 2010.06.03 15:47:04.
