data_PCOD9473700
_publ_section_title
;
Structure prediction by ZEFSAII (Michael W. Deem and Ramdas Pophale) SiO2 
 PCOD9473700
Probable space group: C M C M
;
_chemical_formula_sum "Si O2"
_cell_formula_units_Z 80
_cell_length_a 21.673492
_cell_length_b 9.199406
_cell_length_c 24.274422
_cell_angle_alpha 90.000000
_cell_angle_beta 90.000000
_cell_angle_gamma 90.000000
_cell_volume 4839.913207
_symmetry_space_group_name_H-M "C M C M"
_symmetry_group_IT_number 63
_symmetry_cell_setting 'orthorhombic'
loop_
_space_group_symop_operation_xyz
x,y,z
-x,-y,1/2+z
x,-y,-z
-x,y,1/2-z
-x,-y,-z
x,y,1/2-z
-x,y,z
x,-y,1/2+z
1/2+x,1/2+y,z
1/2-x,1/2-y,1/2+z
1/2+x,1/2-y,-z
1/2-x,1/2+y,1/2-z
1/2-x,1/2-y,-z
1/2+x,1/2+y,1/2-z
1/2-x,1/2+y,z
1/2+x,1/2-y,1/2+z
loop_
_atom_site_type_symbol
_atom_site_label
_atom_site_fract_x
_atom_site_fract_y
_atom_site_fract_z
Si Si1 0.500000 0.622007 0.953016
Si Si2 0.000000 0.935358 0.841951
Si Si3 0.812535 0.668314 0.750000
Si Si4 0.000000 0.378141 0.311808
Si Si5 0.429802 0.907832 0.554368
Si Si6 0.672218 0.729608 0.750000
Si Si7 0.372727 0.040549 0.167205
Si Si8 0.898211 0.943525 0.750000
O O1 0.500000 0.536874 0.895173
O O2 0.557572 0.736151 0.956550
O O3 0.500000 0.500000 0.000000
O O4 0.000000 0.760618 0.852429
O O5 0.059347 0.963799 0.803710
O O6 0.745803 0.740582 0.750000
O O7 0.823939 0.569310 0.804405
O O8 0.865567 0.788567 0.750000
O O9 0.939268 0.475478 0.316136
O O10 0.000000 0.311534 0.250000
O O11 0.500000 0.956227 0.572243
O O12 0.415524 0.000000 0.500000
O O13 0.380549 0.937512 0.602113
O O14 0.654563 0.562940 0.750000
O O15 0.641953 0.809147 0.697558
#
# Coordination Sequence:
#
# PCOD9473700 Si02
#       8
#     8   8   8   8  16   8  16   8
#     4  10  21  31  48  79 122 151 162 224 281 328
#     4  11  20  30  50  80 115 132 179 214 284 344
#     4  11  22  37  53  81 106 156 192 227 278 329
#     4  12  17  32  54  85 103 148 193 211 290 354
#     4   9  20  35  54  86 116 149 190 221 279 354
#     4  11  24  34  53  80 113 144 194 233 277 335
#     4  11  20  36  60  76 115 152 184 232 278 351
#     4  11  20  33  50  77 109 137 174 234 277 327
#
# _framework density 16.529222000000001
#
# number of rings (size 3 to 8) (size 9 to 14) (size 15 to 20)
#    0.600    0.800    6.000    2.400    2.800    1.600 
#    0.000    0.000    0.000    1.200    0.000    2.800 
#    0.000    0.000    0.000    0.000    0.000    0.000 
#
# Total GULP energy -222746.979685 kJ/mol
# GULP energy per Si atom -5568.674492 kJ/mol
# Density = 1.649160 g / cm^3
# Si number density = 16.529222 Si / 1000 Ang^3
#
#
#
# Elastic Constant Matrix: (Units=GPa)
#
#
# Indices 1 2 3 4 5 6 
#
# 1 60.0318 20.2179 25.6535 0.0000 0.0000 0.0000
# 2 20.2179 99.9665 56.1269 0.0000 0.0000 0.0000
# 3 25.6535 56.1269 129.1465 0.0000 0.0000 0.0000
# 4 0.0000 0.0000 0.0000 25.7836 0.0000 0.0000
# 5 0.0000 0.0000 0.0000 0.0000 6.6728 0.0000
# 6 0.0000 0.0000 0.0000 0.0000 0.0000 25.3904
#
#
#
# Elastic Compliance Matrix: (Units=1/GPa)
#
#
# Indices 1 2 3 4 5 6 
#
# 1 0.018571 -0.002229 -0.002720 0.000000 0.000000 0.000000
# 2 -0.002229 0.013500 -0.005424 0.000000 0.000000 0.000000
# 3 -0.002720 -0.005424 0.010641 0.000000 0.000000 0.000000
# 4 0.000000 0.000000 0.000000 0.038784 0.000000 0.000000
# 5 0.000000 0.000000 0.000000 0.000000 0.149862 0.000000
# 6 0.000000 0.000000 0.000000 0.000000 0.000000 0.039385
#
#
# Mechanical properties :
#
#
# Convention : Reuss Voigt Hill
#
# Bulk Modulus (GPa) = 45.52684 54.79347 50.16016
# Shear Modulus (GPa) = 16.73304 24.04581 20.38942
#
# Velocity S-wave (km/s) = 3.18517 3.81825 3.51599
# Velocity P-wave (km/s) = 6.41327 7.25673 6.84800
#
# Compressibility (1/GPa) = 0.02196506
#
# Stress axis : x y z
#
# Youngs Moduli (GPa) = 53.84772 74.07674 93.97727
#
# Poissons Ratio (x) = 0.16508 0.25566
# Poissons Ratio (y) = 0.12000 0.50975
# Poissons Ratio (z) = 0.14649 0.40181
#
# Static dielectric constant tensor:
#      x y z
#    x 1.527470 0.000000 0.000000 
#    y 0.000000 1.580090 0.000000 
#    z 0.000000 0.000000 1.567910 
# 
# From -- ./inp_files/64374.got.cif
#   From: 2010.05.17/outbox.cif.g08.bks.cpg/sg63_33_cif.got.tgz:64374.got - 2010.06.03 15:47:04.
