data_PCOD9473745
_publ_section_title
;
Structure prediction by ZEFSAII (Michael W. Deem and Ramdas Pophale) SiO2 
 PCOD9473745
Probable space group: C M C M
;
_chemical_formula_sum "Si O2"
_cell_formula_units_Z 116
_cell_length_a 7.236060
_cell_length_b 29.671937
_cell_length_c 21.967235
_cell_angle_alpha 90.000000
_cell_angle_beta 90.000000
_cell_angle_gamma 90.000000
_cell_volume 4716.539257
_symmetry_space_group_name_H-M "C M C M"
_symmetry_group_IT_number 63
_symmetry_cell_setting 'orthorhombic'
loop_
_space_group_symop_operation_xyz
x,y,z
-x,-y,1/2+z
x,-y,-z
-x,y,1/2-z
-x,-y,-z
x,y,1/2-z
-x,y,z
x,-y,1/2+z
1/2+x,1/2+y,z
1/2-x,1/2-y,1/2+z
1/2+x,1/2-y,-z
1/2-x,1/2+y,1/2-z
1/2-x,1/2-y,-z
1/2+x,1/2+y,1/2-z
1/2-x,1/2+y,z
1/2+x,1/2-y,1/2+z
loop_
_atom_site_type_symbol
_atom_site_label
_atom_site_fract_x
_atom_site_fract_y
_atom_site_fract_z
Si Si1 0.794873 0.178513 0.943559
Si Si2 0.723124 0.847205 0.682497
Si Si3 0.724746 0.040064 0.631732
Si Si4 0.212092 0.583347 0.506572
Si Si5 0.000000 0.736745 0.750000
Si Si6 0.275514 0.867324 0.184086
Si Si7 0.725945 0.245522 0.136213
Si Si8 0.773887 0.560201 0.127259
O O1 0.711881 0.137312 0.982017
O O2 0.798145 0.157259 0.875132
O O3 0.718173 0.227385 0.924934
O O4 0.000000 0.184637 0.967558
O O5 0.788089 0.833672 0.750000
O O6 0.500000 0.848574 0.684180
O O7 0.770065 0.807830 0.635470
O O8 0.786407 0.897090 0.666430
O O9 0.500000 0.039492 0.630303
O O10 0.789398 0.057518 0.565313
O O11 0.773420 0.080117 0.677109
O O12 0.784479 0.989675 0.646334
O O13 0.289025 0.569693 0.441685
O O14 0.000000 0.568706 0.504227
O O15 0.161150 0.737480 0.695167
O O16 0.216004 0.851137 0.250000
O O17 0.500000 0.863473 0.181647
O O18 0.500000 0.249856 0.142828
O O19 0.000000 0.560699 0.128555
#
# Coordination Sequence:
#
# PCOD9473745 Si02
#       8
#    16  16  16  16   4  16  16  16
#     4  10  21  34  50  71 103 140 172 218 271 323
#     4   9  17  32  50  74 108 138 172 223 265 318
#     4   8  14  26  44  74 106 131 168 223 272 312
#     4   9  17  31  51  76 104 131 177 230 264 318
#     4  12  22  32  64  82 108 152 182 224 270 330
#     4   9  18  29  46  73 107 135 169 218 261 317
#     4  10  22  37  54  84 114 143 185 227 269 322
#     4   9  16  27  52  79 100 138 179 217 275 320
#
# _framework density 24.594303
#
# number of rings (size 3 to 8) (size 9 to 14) (size 15 to 20)
#    0.000    2.759    0.690    1.862    2.897    2.483 
#    0.000    3.448    1.517    6.621    0.000    0.000 
#    0.000    0.000    0.000    0.000    0.000    0.000 
#
# Total GULP energy -323259.852454 kJ/mol
# GULP energy per Si atom -5573.445732 kJ/mol
# Density = 2.453833 g / cm^3
# Si number density = 24.594303 Si / 1000 Ang^3
#
#
#
# Elastic Constant Matrix: (Units=GPa)
#
#
# Indices 1 2 3 4 5 6 
#
# 1 124.1989 -7.4298 -8.8725 0.0000 0.0000 0.0000
# 2 -7.4298 154.6107 5.6325 0.0000 0.0000 0.0000
# 3 -8.8725 5.6325 20.1400 0.0000 0.0000 0.0000
# 4 0.0000 0.0000 0.0000 36.5535 0.0000 0.0000
# 5 0.0000 0.0000 0.0000 0.0000 -25.3205 0.0000
# 6 0.0000 0.0000 0.0000 0.0000 0.0000 20.3539
#
#
#
# Elastic Compliance Matrix: (Units=1/GPa)
#
#
# Indices 1 2 3 4 5 6 
#
# 1 0.008324 0.000269 0.003592 0.000000 0.000000 0.000000
# 2 0.000269 0.006543 -0.001711 0.000000 0.000000 0.000000
# 3 0.003592 -0.001711 0.051713 0.000000 0.000000 0.000000
# 4 0.000000 0.000000 0.000000 0.027357 0.000000 0.000000
# 5 0.000000 0.000000 0.000000 0.000000 -0.039494 0.000000
# 6 0.000000 0.000000 0.000000 0.000000 0.000000 0.049131
#
#
# Mechanical properties :
#
#
# Convention : Reuss Voigt Hill
#
# Bulk Modulus (GPa) = 14.10825 30.84553 22.47689
# Shear Modulus (GPa) = 40.68268 26.95866 33.82067
#
# Velocity S-wave (km/s) = 4.07154 3.31438 3.71231
# Velocity P-wave (km/s) = 5.27751 5.21688 5.24728
#
# Compressibility (1/GPa) = 0.07088051
#
# Stress axis : x y z
#
# Youngs Moduli (GPa) = 120.13013 152.83195 19.33732
#
# Poissons Ratio (x) = -0.04114 -0.06946
# Poissons Ratio (y) = -0.03234 0.03309
# Poissons Ratio (z) = -0.43150 0.26154
#
# Static dielectric constant tensor:
#      x y z
#    x 2.018820 0.000000 0.000000 
#    y 0.000000 2.012780 0.000000 
#    z 0.000000 0.000000 1.890650 
# 
# From -- ./inp_files/60628.got.cif
#   From: 2010.05.17/outbox.cif.g08.bks.cpg/sg63_31_cif.got.tgz:60628.got - 2010.06.03 15:47:04.
