data_PCOD9473567
_publ_section_title
;
Structure prediction by ZEFSAII (Michael W. Deem and Ramdas Pophale) SiO2 
 PCOD9473567
Probable space group: C M C M
;
_chemical_formula_sum "Si O2"
_cell_formula_units_Z 116
_cell_length_a 24.792422
_cell_length_b 9.499341
_cell_length_c 25.053798
_cell_angle_alpha 90.000000
_cell_angle_beta 90.000000
_cell_angle_gamma 90.000000
_cell_volume 5900.461827
_symmetry_space_group_name_H-M "C M C M"
_symmetry_group_IT_number 63
_symmetry_cell_setting 'orthorhombic'
loop_
_space_group_symop_operation_xyz
x,y,z
-x,-y,1/2+z
x,-y,-z
-x,y,1/2-z
-x,-y,-z
x,y,1/2-z
-x,y,z
x,-y,1/2+z
1/2+x,1/2+y,z
1/2-x,1/2-y,1/2+z
1/2+x,1/2-y,-z
1/2-x,1/2+y,1/2-z
1/2-x,1/2-y,-z
1/2+x,1/2+y,1/2-z
1/2-x,1/2+y,z
1/2+x,1/2-y,1/2+z
loop_
_atom_site_type_symbol
_atom_site_label
_atom_site_fract_x
_atom_site_fract_y
_atom_site_fract_z
Si Si1 0.295285 0.826110 0.811039
Si Si2 0.935815 0.408603 0.553212
Si Si3 0.934985 0.156855 0.486891
Si Si4 0.500000 0.999519 0.750000
Si Si5 0.864254 0.770929 0.888504
Si Si6 0.292565 0.475449 0.368543
Si Si7 0.100920 0.490131 0.167649
Si Si8 0.225627 0.626828 0.963788
O O1 0.277577 0.806713 0.750000
O O2 0.298857 0.673437 0.838813
O O3 0.253529 0.927906 0.841405
O O4 0.352185 0.907328 0.812073
O O5 0.927778 0.500000 0.500000
O O6 0.915873 0.255853 0.535081
O O7 0.909395 0.464940 0.606325
O O8 0.000000 0.404309 0.562938
O O9 0.912449 0.209318 0.430630
O O10 0.000000 0.163698 0.485249
O O11 0.917590 0.000000 0.500000
O O12 0.452131 0.999961 0.703440
O O13 0.844287 0.923926 0.870262
O O14 0.879073 0.670765 0.839117
O O15 0.816919 0.694578 0.922620
O O16 0.272697 0.441288 0.428161
O O17 0.202388 0.500000 0.000000
O O18 0.250000 0.750000 0.000000
#
# Coordination Sequence:
#
# PCOD9473567 Si02
#       8
#    16  16  16   4  16  16  16  16
#     4  12  25  47  73  99 130 181 239 300 355 407
#     4  10  20  38  66  97 133 172 220 280 340 414
#     4  10  24  41  60  97 140 185 226 279 343 423
#     4  12  28  52  78 102 136 180 248 312 350 408
#     4  12  26  41  69 100 143 191 234 279 362 428
#     4  12  25  47  66 103 144 185 236 292 344 431
#     4  12  25  46  72 103 138 181 237 296 357 418
#     4  12  24  40  63 101 152 189 222 275 345 429
#
# _framework density 19.659479000000001
#
# number of rings (size 3 to 8) (size 9 to 14) (size 15 to 20)
#    0.000    0.552    6.897    0.414    6.759    0.000 
#    2.483    0.000    0.000    0.828    0.000    0.000 
#    0.000    0.000    0.000    0.000    0.000    0.000 
#
# Total GULP energy -323807.005777 kJ/mol
# GULP energy per Si atom -5582.879410 kJ/mol
# Density = 1.961473 g / cm^3
# Si number density = 19.659479 Si / 1000 Ang^3
#
#
#
# Elastic Constant Matrix: (Units=GPa)
#
#
# Indices 1 2 3 4 5 6 
#
# 1 51.0035 20.0985 19.6067 0.0000 0.0000 0.0000
# 2 20.0985 131.3277 36.7812 0.0000 0.0000 0.0000
# 3 19.6067 36.7812 87.6865 0.0000 0.0000 0.0000
# 4 0.0000 0.0000 0.0000 11.1999 0.0000 0.0000
# 5 0.0000 0.0000 0.0000 0.0000 29.3331 0.0000
# 6 0.0000 0.0000 0.0000 0.0000 0.0000 21.9883
#
#
#
# Elastic Compliance Matrix: (Units=1/GPa)
#
#
# Indices 1 2 3 4 5 6 
#
# 1 0.022025 -0.002257 -0.003978 0.000000 0.000000 0.000000
# 2 -0.002257 0.008859 -0.003212 0.000000 0.000000 0.000000
# 3 -0.003978 -0.003212 0.013641 0.000000 0.000000 0.000000
# 4 0.000000 0.000000 0.000000 0.089286 0.000000 0.000000
# 5 0.000000 0.000000 0.000000 0.000000 0.034091 0.000000
# 6 0.000000 0.000000 0.000000 0.000000 0.000000 0.045479
#
#
# Mechanical properties :
#
#
# Convention : Reuss Voigt Hill
#
# Bulk Modulus (GPa) = 39.01292 46.99894 43.00593
# Shear Modulus (GPa) = 20.76252 25.40635 23.08443
#
# Velocity S-wave (km/s) = 3.25331 3.59879 3.43040
# Velocity P-wave (km/s) = 5.83090 6.42081 6.13295
#
# Compressibility (1/GPa) = 0.02563253
#
# Stress axis : x y z
#
# Youngs Moduli (GPa) = 45.40290 112.87498 73.30870
#
# Poissons Ratio (x) = 0.25471 0.29164
# Poissons Ratio (y) = 0.10245 0.23544
# Poissons Ratio (z) = 0.18062 0.36251
#
# Static dielectric constant tensor:
#      x y z
#    x 1.698770 0.000000 0.000000 
#    y 0.000000 1.726940 0.000000 
#    z 0.000000 0.000000 1.679650 
# 
# From -- ./inp_files/65482.got.cif
#   From: 2010.05.17/outbox.cif.g08.bks.cpg/sg63_33_cif.got.tgz:65482.got - 2010.06.03 15:47:04.
