data_PCOD9473086
_publ_section_title
;
Structure prediction by ZEFSAII (Michael W. Deem and Ramdas Pophale) SiO2 
 PCOD9473086
Probable space group: C M C M
;
_chemical_formula_sum "Si O2"
_cell_formula_units_Z 88
_cell_length_a 21.301696
_cell_length_b 11.487269
_cell_length_c 14.659956
_cell_angle_alpha 90.000000
_cell_angle_beta 90.000000
_cell_angle_gamma 90.000000
_cell_volume 3587.266489
_symmetry_space_group_name_H-M "C M C M"
_symmetry_group_IT_number 63
_symmetry_cell_setting 'orthorhombic'
loop_
_space_group_symop_operation_xyz
x,y,z
-x,-y,1/2+z
x,-y,-z
-x,y,1/2-z
-x,-y,-z
x,y,1/2-z
-x,y,z
x,-y,1/2+z
1/2+x,1/2+y,z
1/2-x,1/2-y,1/2+z
1/2+x,1/2-y,-z
1/2-x,1/2+y,1/2-z
1/2-x,1/2-y,-z
1/2+x,1/2+y,1/2-z
1/2-x,1/2+y,z
1/2+x,1/2-y,1/2+z
loop_
_atom_site_type_symbol
_atom_site_label
_atom_site_fract_x
_atom_site_fract_y
_atom_site_fract_z
Si Si1 0.228287 0.448606 0.897939
Si Si2 0.500000 0.485806 0.858272
Si Si3 0.138604 0.748138 0.049897
Si Si4 0.862926 0.992471 0.354196
Si Si5 0.500000 0.262416 0.451836
Si Si6 0.000000 0.676535 0.849446
Si Si7 0.361009 0.846687 0.151391
O O1 0.190747 0.328182 0.899699
O O2 0.298187 0.439275 0.861272
O O3 0.186575 0.546230 0.848970
O O4 0.232045 0.500000 0.000000
O O5 0.500000 0.510140 0.750000
O O6 0.571554 0.441837 0.874878
O O7 0.500000 0.606735 0.914637
O O8 0.143212 0.882024 0.078589
O O9 0.067231 0.709061 0.075132
O O10 0.148229 0.723426 0.942425
O O11 0.867441 0.947942 0.250000
O O12 0.500000 0.256653 0.561657
O O13 0.066082 0.610475 0.853500
O O14 0.000000 0.739090 0.750000
O O15 0.355373 0.784900 0.250000
#
# Coordination Sequence:
#
# PCOD9473086 Si02
#       7
#    16   8  16  16   8   8  16
#     4  10  21  34  50  77 111 147 185 225 272 328
#     4   8  16  32  54  79 104 135 178 230 282 327
#     4   9  19  34  56  83 113 146 184 229 274 328
#     4  10  20  36  58  82 110 142 181 231 283 333
#     4   8  14  29  52  80 109 141 180 224 275 322
#     4   8  14  25  43  69 103 144 183 214 256 321
#     4   9  17  30  48  73 108 147 184 222 266 321
#
# _framework density 24.531213000000001
#
# number of rings (size 3 to 8) (size 9 to 14) (size 15 to 20)
#    0.000    2.909    0.000    0.545    0.000    5.091 
#    0.000    4.091    0.000    8.727    0.000    2.545 
#    0.000   17.455    0.000    0.000    0.000    0.000 
#
# Total GULP energy -245825.760293 kJ/mol
# GULP energy per Si atom -5586.949098 kJ/mol
# Density = 2.447538 g / cm^3
# Si number density = 24.531213 Si / 1000 Ang^3
#
#
#
# Elastic Constant Matrix: (Units=GPa)
#
#
# Indices 1 2 3 4 5 6 
#
# 1 269.2230 83.5608 55.9109 0.0000 0.0000 0.0000
# 2 83.5608 53.4170 18.5244 0.0000 0.0000 0.0000
# 3 55.9109 18.5244 75.4843 0.0000 0.0000 0.0000
# 4 0.0000 0.0000 0.0000 24.4170 0.0000 0.0000
# 5 0.0000 0.0000 0.0000 0.0000 37.9777 0.0000
# 6 0.0000 0.0000 0.0000 0.0000 0.0000 54.5321
#
#
#
# Elastic Compliance Matrix: (Units=1/GPa)
#
#
# Indices 1 2 3 4 5 6 
#
# 1 0.007812 -0.011164 -0.003047 0.000000 0.000000 0.000000
# 2 -0.011164 0.036416 -0.000668 0.000000 0.000000 0.000000
# 3 -0.003047 -0.000668 0.015668 0.000000 0.000000 0.000000
# 4 0.000000 0.000000 0.000000 0.040955 0.000000 0.000000
# 5 0.000000 0.000000 0.000000 0.000000 0.026331 0.000000
# 6 0.000000 0.000000 0.000000 0.000000 0.000000 0.018338
#
#
# Mechanical properties :
#
#
# Convention : Reuss Voigt Hill
#
# Bulk Modulus (GPa) = 33.17850 79.34628 56.26239
# Shear Modulus (GPa) = 26.97965 39.39390 33.18677
#
# Velocity S-wave (km/s) = 3.31993 4.01168 3.68209
# Velocity P-wave (km/s) = 5.31510 7.33984 6.40795
#
# Compressibility (1/GPa) = 0.03014000
#
# Stress axis : x y z
#
# Youngs Moduli (GPa) = 128.00417 27.46011 63.82306
#
# Poissons Ratio (x) = 0.30657 0.19445
# Poissons Ratio (y) = 1.42907 0.04261
# Poissons Ratio (z) = 0.38999 0.01833
#
# Static dielectric constant tensor:
#      x y z
#    x 1.953750 0.000000 0.000000 
#    y 0.000000 1.927810 0.000000 
#    z 0.000000 0.000000 1.980920 
# 
# From -- ./inp_files/35265.got.cif
#   From: 2010.05.17/outbox.cif.g08.bks.cpg/sg63_18_cif.got.tgz:35265.got - 2010.06.03 15:47:04.
