data_PCOD9473617
_publ_section_title
;
Structure prediction by ZEFSAII (Michael W. Deem and Ramdas Pophale) SiO2 
 PCOD9473617
Probable space group: C M C M
;
_chemical_formula_sum "Si O2"
_cell_formula_units_Z 112
_cell_length_a 12.772608
_cell_length_b 14.206019
_cell_length_c 25.085131
_cell_angle_alpha 90.000000
_cell_angle_beta 90.000000
_cell_angle_gamma 90.000000
_cell_volume 4551.644640
_symmetry_space_group_name_H-M "C M C M"
_symmetry_group_IT_number 63
_symmetry_cell_setting 'orthorhombic'
loop_
_space_group_symop_operation_xyz
x,y,z
-x,-y,1/2+z
x,-y,-z
-x,y,1/2-z
-x,-y,-z
x,y,1/2-z
-x,y,z
x,-y,1/2+z
1/2+x,1/2+y,z
1/2-x,1/2-y,1/2+z
1/2+x,1/2-y,-z
1/2-x,1/2+y,1/2-z
1/2-x,1/2-y,-z
1/2+x,1/2+y,1/2-z
1/2-x,1/2+y,z
1/2+x,1/2-y,1/2+z
loop_
_atom_site_type_symbol
_atom_site_label
_atom_site_fract_x
_atom_site_fract_y
_atom_site_fract_z
Si Si1 0.377577 0.488334 0.332082
Si Si2 0.766339 0.184462 0.189931
Si Si3 0.874087 0.944701 0.551161
Si Si4 0.619622 0.955431 0.421409
Si Si5 0.874746 0.736655 0.528717
Si Si6 0.373993 0.166693 0.085889
Si Si7 0.172689 0.611756 0.691607
O O1 0.500000 0.474540 0.320029
O O2 0.335428 0.589992 0.313220
O O3 0.361254 0.494616 0.395660
O O4 0.296991 0.411479 0.310532
O O5 0.720369 0.188397 0.250000
O O6 0.683439 0.186497 0.141676
O O7 0.838586 0.276799 0.184082
O O8 0.840889 0.835320 0.554371
O O9 0.000000 0.937146 0.544663
O O10 0.834323 0.000000 0.500000
O O11 0.500000 0.957198 0.440249
O O12 0.667129 0.860040 0.445580
O O13 0.623749 0.942905 0.357582
O O14 0.658152 0.060566 0.432476
O O15 0.857410 0.734675 0.465011
O O16 0.000000 0.732650 0.536701
O O17 0.500000 0.165510 0.094898
O O18 0.133714 0.583873 0.750000
#
# Coordination Sequence:
#
# PCOD9473617 Si02
#       7
#    16  16  16  16  16  16  16
#     4  11  24  45  70  94 130 178 224 270 331 395
#     4  11  25  44  64  94 130 166 222 282 327 389
#     4   9  19  36  59  90 127 168 211 262 315 377
#     4  10  20  39  66  95 128 166 209 261 325 392
#     4   9  18  35  62  95 130 164 212 266 318 391
#     4  10  21  38  65  95 127 170 208 257 333 400
#     4  11  25  43  64  95 132 168 218 279 329 386
#
# _framework density 24.606490000000001
#
# number of rings (size 3 to 8) (size 9 to 14) (size 15 to 20)
#    0.000    1.857    1.429    1.714    2.000    5.714 
#    2.571    5.714    0.000    0.000    0.000    0.000 
#    0.000    0.000    0.000    0.000    0.000    0.000 
#
# Total GULP energy -313449.175265 kJ/mol
# GULP energy per Si atom -5597.306701 kJ/mol
# Density = 2.455048 g / cm^3
# Si number density = 24.606490 Si / 1000 Ang^3
#
#
#
# Elastic Constant Matrix: (Units=GPa)
#
#
# Indices 1 2 3 4 5 6 
#
# 1 73.2742 0.3257 4.1549 0.0000 0.0000 0.0000
# 2 0.3257 83.9303 34.3135 0.0000 0.0000 0.0000
# 3 4.1549 34.3135 155.1912 0.0000 0.0000 0.0000
# 4 0.0000 0.0000 0.0000 22.5441 0.0000 0.0000
# 5 0.0000 0.0000 0.0000 0.0000 20.2911 0.0000
# 6 0.0000 0.0000 0.0000 0.0000 0.0000 28.2263
#
#
#
# Elastic Compliance Matrix: (Units=1/GPa)
#
#
# Indices 1 2 3 4 5 6 
#
# 1 0.013669 0.000106 -0.000389 0.000000 0.000000 0.000000
# 2 0.000106 0.013100 -0.002899 0.000000 0.000000 0.000000
# 3 -0.000389 -0.002899 0.007095 0.000000 0.000000 0.000000
# 4 0.000000 0.000000 0.000000 0.044357 0.000000 0.000000
# 5 0.000000 0.000000 0.000000 0.000000 0.049283 0.000000
# 6 0.000000 0.000000 0.000000 0.000000 0.000000 0.035428
#
#
# Mechanical properties :
#
#
# Convention : Reuss Voigt Hill
#
# Bulk Modulus (GPa) = 36.36539 43.33155 39.84847
# Shear Modulus (GPa) = 28.01701 32.45240 30.23471
#
# Velocity S-wave (km/s) = 3.37798 3.63554 3.50913
# Velocity P-wave (km/s) = 5.47952 5.93893 5.71385
#
# Compressibility (1/GPa) = 0.02749867
#
# Stress axis : x y z
#
# Youngs Moduli (GPa) = 73.15834 76.33864 140.94193
#
# Poissons Ratio (x) = -0.00810 0.05489
# Poissons Ratio (y) = -0.00777 0.40862
# Poissons Ratio (z) = 0.02849 0.22132
#
# Static dielectric constant tensor:
#      x y z
#    x 2.014300 0.000000 0.000000 
#    y 0.000000 1.922520 0.000000 
#    z 0.000000 0.000000 1.921220 
# 
# From -- ./inp_files/62971.got.cif
#   From: 2010.05.17/outbox.cif.g08.bks.cpg/sg63_32_cif.got.tgz:62971.got - 2010.06.03 15:47:04.
