data_PCOD9473518
_publ_section_title
;
Structure prediction by ZEFSAII (Michael W. Deem and Ramdas Pophale) SiO2 
 PCOD9473518
Probable space group: C M C M
;
_chemical_formula_sum "Si O2"
_cell_formula_units_Z 116
_cell_length_a 7.606095
_cell_length_b 27.210071
_cell_length_c 24.405766
_cell_angle_alpha 90.000000
_cell_angle_beta 90.000000
_cell_angle_gamma 90.000000
_cell_volume 5051.075539
_symmetry_space_group_name_H-M "C M C M"
_symmetry_group_IT_number 63
_symmetry_cell_setting 'orthorhombic'
loop_
_space_group_symop_operation_xyz
x,y,z
-x,-y,1/2+z
x,-y,-z
-x,y,1/2-z
-x,-y,-z
x,y,1/2-z
-x,y,z
x,-y,1/2+z
1/2+x,1/2+y,z
1/2-x,1/2-y,1/2+z
1/2+x,1/2-y,-z
1/2-x,1/2+y,1/2-z
1/2-x,1/2-y,-z
1/2+x,1/2+y,1/2-z
1/2-x,1/2+y,z
1/2+x,1/2-y,1/2+z
loop_
_atom_site_type_symbol
_atom_site_label
_atom_site_fract_x
_atom_site_fract_y
_atom_site_fract_z
Si Si1 0.205813 0.232881 0.184824
Si Si2 0.286948 0.049904 0.186246
Si Si3 0.307774 0.499625 0.078910
Si Si4 0.500000 0.000000 0.000000
Si Si5 0.214246 0.342551 0.188971
Si Si6 0.300923 0.857342 0.616202
Si Si7 0.788926 0.691886 0.006128
Si Si8 0.713533 0.109355 0.579561
O O1 0.215489 0.226806 0.250000
O O2 0.271373 0.287664 0.172911
O O3 0.304868 0.190204 0.154698
O O4 0.000000 0.229970 0.168786
O O5 0.226937 0.047183 0.250000
O O6 0.500000 0.050880 0.188710
O O7 0.224146 0.098846 0.153342
O O8 0.231990 0.007449 0.143587
O O9 0.500000 0.519886 0.066712
O O10 0.153246 0.521180 0.042071
O O11 0.298303 0.441949 0.064824
O O12 0.275184 0.354206 0.250000
O O13 0.260699 0.379873 0.142130
O O14 0.000000 0.340316 0.190543
O O15 0.500000 0.873040 0.602846
O O16 0.218506 0.836066 0.560321
O O17 0.000000 0.690138 0.009349
O O18 0.750000 0.750000 0.000000
O O19 0.737372 0.657147 0.955453
O O20 0.500000 0.101937 0.574036
#
# Coordination Sequence:
#
# PCOD9473518 Si02
#       8
#    16  16  16   4  16  16  16  16
#     4   9  17  31  52  81 115 154 205 261 310 371
#     4  10  22  43  69  97 135 182 230 293 368 432
#     4  12  27  45  74 105 133 179 227 287 348 412
#     4  12  26  52  74  98 144 172 230 282 344 422
#     4   8  15  29  53  83 115 158 210 256 316 390
#     4  10  21  35  57  86 119 168 219 267 333 406
#     4  10  22  37  58  87 128 175 223 276 332 396
#     4  10  20  38  62  89 124 169 213 268 331 395
#
# _framework density 22.965406000000002
#
# number of rings (size 3 to 8) (size 9 to 14) (size 15 to 20)
#    0.000    2.069    1.379    2.276    1.931    4.414 
#    0.000    2.069    0.000    0.828    0.000    0.000 
#    0.000    0.000    0.000    0.000    0.000    0.000 
#
# Total GULP energy -323324.153182 kJ/mol
# GULP energy per Si atom -5574.554365 kJ/mol
# Density = 2.291314 g / cm^3
# Si number density = 22.965406 Si / 1000 Ang^3
#
#
#
# Elastic Constant Matrix: (Units=GPa)
#
#
# Indices 1 2 3 4 5 6 
#
# 1 90.1718 17.4215 43.0658 0.0000 0.0000 0.0000
# 2 17.4215 73.0947 67.8485 0.0000 0.0000 0.0000
# 3 43.0658 67.8485 98.6990 0.0000 0.0000 0.0000
# 4 0.0000 0.0000 0.0000 35.4247 0.0000 0.0000
# 5 0.0000 0.0000 0.0000 0.0000 8.0483 0.0000
# 6 0.0000 0.0000 0.0000 0.0000 0.0000 14.8677
#
#
#
# Elastic Compliance Matrix: (Units=1/GPa)
#
#
# Indices 1 2 3 4 5 6 
#
# 1 0.015205 0.007002 -0.011448 0.000000 0.000000 0.000000
# 2 0.007002 0.041027 -0.031258 0.000000 0.000000 0.000000
# 3 -0.011448 -0.031258 0.036615 0.000000 0.000000 0.000000
# 4 0.000000 0.000000 0.000000 0.028229 0.000000 0.000000
# 5 0.000000 0.000000 0.000000 0.000000 0.124250 0.000000
# 6 0.000000 0.000000 0.000000 0.000000 0.000000 0.067260
#
#
# Mechanical properties :
#
#
# Convention : Reuss Voigt Hill
#
# Bulk Modulus (GPa) = 46.64533 57.62637 52.13585
# Shear Modulus (GPa) = 12.78318 20.57679 16.67999
#
# Velocity S-wave (km/s) = 2.36186 2.99656 2.69794
# Velocity P-wave (km/s) = 5.27191 6.09259 5.69705
#
# Compressibility (1/GPa) = 0.02143837
#
# Stress axis : x y z
#
# Youngs Moduli (GPa) = 65.76982 24.37428 27.31129
#
# Poissons Ratio (x) = -0.17068 0.31266
# Poissons Ratio (y) = -0.46055 0.85371
# Poissons Ratio (z) = 0.75293 0.76190
#
# Static dielectric constant tensor:
#      x y z
#    x 1.909790 0.000000 0.000000 
#    y 0.000000 1.856320 0.000000 
#    z 0.000000 0.000000 1.881860 
# 
# From -- ./inp_files/60446.got.cif
#   From: 2010.05.17/outbox.cif.g08.bks.cpg/sg63_31_cif.got.tgz:60446.got - 2010.06.03 15:47:04.
