data_PCOD9473877
_publ_section_title
;
Structure prediction by ZEFSAII (Michael W. Deem and Ramdas Pophale) SiO2 
 PCOD9473877
Probable space group: C M C M
;
_chemical_formula_sum "Si O2"
_cell_formula_units_Z 64
_cell_length_a 17.335363
_cell_length_b 11.540377
_cell_length_c 15.255341
_cell_angle_alpha 90.000000
_cell_angle_beta 90.000000
_cell_angle_gamma 90.000000
_cell_volume 3051.932025
_symmetry_space_group_name_H-M "C M C M"
_symmetry_group_IT_number 63
_symmetry_cell_setting 'orthorhombic'
loop_
_space_group_symop_operation_xyz
x,y,z
-x,-y,1/2+z
x,-y,-z
-x,y,1/2-z
-x,-y,-z
x,y,1/2-z
-x,y,z
x,-y,1/2+z
1/2+x,1/2+y,z
1/2-x,1/2-y,1/2+z
1/2+x,1/2-y,-z
1/2-x,1/2+y,1/2-z
1/2-x,1/2-y,-z
1/2+x,1/2+y,1/2-z
1/2-x,1/2+y,z
1/2+x,1/2-y,1/2+z
loop_
_atom_site_type_symbol
_atom_site_label
_atom_site_fract_x
_atom_site_fract_y
_atom_site_fract_z
Si Si1 0.912222 0.526600 0.896511
Si Si2 0.376615 0.766679 0.843780
Si Si3 0.915496 0.866581 0.523448
Si Si4 0.789223 0.732397 0.903387
O O1 0.892969 0.403640 0.852496
O O2 0.842477 0.619188 0.887271
O O3 0.000000 0.563523 0.870734
O O4 0.914732 0.500000 0.000000
O O5 0.408372 0.725539 0.750000
O O6 0.284919 0.743796 0.843885
O O7 0.406979 0.705416 0.932376
O O8 0.851545 0.834104 0.594129
O O9 0.000000 0.840690 0.558744
O O10 0.908722 0.000000 0.500000
O O11 0.750000 0.750000 0.000000
#
# Coordination Sequence:
#
# PCOD9473877 Si02
#       4
#    16  16  16  16
#     4  11  21  38  65  94 123 163 214 263 308 369
#     4  11  25  40  63  95 128 162 205 265 324 371
#     4  10  21  38  63  91 120 163 211 249 299 374
#     4  10  21  35  61  88 123 162 205 250 304 370
#
# _framework density 20.970324000000002
#
# number of rings (size 3 to 8) (size 9 to 14) (size 15 to 20)
#    0.000    1.500    5.000    1.500    7.000    3.000 
#    0.000    0.000    0.000    3.750    0.000    0.000 
#    0.000    0.000    0.000    0.000    0.000    0.000 
#
# Total GULP energy -178333.176111 kJ/mol
# GULP energy per Si atom -5572.911753 kJ/mol
# Density = 2.092259 g / cm^3
# Si number density = 20.970324 Si / 1000 Ang^3
#
#
#
# Elastic Constant Matrix: (Units=GPa)
#
#
# Indices 1 2 3 4 5 6 
#
# 1 150.2254 50.6372 -17.3717 0.0000 0.0000 0.0000
# 2 50.6372 100.9657 3.0060 0.0000 0.0000 0.0000
# 3 -17.3717 3.0060 39.2515 0.0000 0.0000 0.0000
# 4 0.0000 0.0000 0.0000 1.0382 0.0000 0.0000
# 5 0.0000 0.0000 0.0000 0.0000 -7.2398 0.0000
# 6 0.0000 0.0000 0.0000 0.0000 0.0000 67.7528
#
#
#
# Elastic Compliance Matrix: (Units=1/GPa)
#
#
# Indices 1 2 3 4 5 6 
#
# 1 0.008641 -0.004458 0.004166 0.000000 0.000000 0.000000
# 2 -0.004458 0.012227 -0.002909 0.000000 0.000000 0.000000
# 3 0.004166 -0.002909 0.027543 0.000000 0.000000 0.000000
# 4 0.000000 0.000000 0.000000 0.963174 0.000000 0.000000
# 5 0.000000 0.000000 0.000000 0.000000 -0.138126 0.000000
# 6 0.000000 0.000000 0.000000 0.000000 0.000000 0.014760
#
#
# Mechanical properties :
#
#
# Convention : Reuss Voigt Hill
#
# Bulk Modulus (GPa) = 23.80489 40.33171 32.06830
# Shear Modulus (GPa) = 5.50283 29.25500 17.37891
#
# Velocity S-wave (km/s) = 1.62167 3.73911 2.88190
# Velocity P-wave (km/s) = 3.85782 6.15758 5.13802
#
# Compressibility (1/GPa) = 0.04200818
#
# Stress axis : x y z
#
# Youngs Moduli (GPa) = 115.72799 81.78863 36.30671
#
# Poissons Ratio (x) = 0.36459 -0.15124
# Poissons Ratio (y) = 0.51588 0.10562
# Poissons Ratio (z) = -0.48208 0.23794
#
# Static dielectric constant tensor:
#      x y z
#    x 1.919760 0.000000 0.000000 
#    y 0.000000 1.754170 0.000000 
#    z 0.000000 0.000000 1.746810 
# 
# From -- ./inp_files/33370.got.cif
#   From: 2010.05.17/outbox.cif.g08.bks.cpg/sg63_17_cif.got.tgz:33370.got - 2010.06.03 15:47:04.
