data_PCOD9473623
_publ_section_title
;
Structure prediction by ZEFSAII (Michael W. Deem and Ramdas Pophale) SiO2 
 PCOD9473623
Probable space group: C M C M
;
_chemical_formula_sum "Si O2"
_cell_formula_units_Z 68
_cell_length_a 22.437112
_cell_length_b 17.169501
_cell_length_c 9.418756
_cell_angle_alpha 90.000000
_cell_angle_beta 90.000000
_cell_angle_gamma 90.000000
_cell_volume 3628.425208
_symmetry_space_group_name_H-M "C M C M"
_symmetry_group_IT_number 63
_symmetry_cell_setting 'orthorhombic'
loop_
_space_group_symop_operation_xyz
x,y,z
-x,-y,1/2+z
x,-y,-z
-x,y,1/2-z
-x,-y,-z
x,y,1/2-z
-x,y,z
x,-y,1/2+z
1/2+x,1/2+y,z
1/2-x,1/2-y,1/2+z
1/2+x,1/2-y,-z
1/2-x,1/2+y,1/2-z
1/2-x,1/2-y,-z
1/2+x,1/2+y,1/2-z
1/2-x,1/2+y,z
1/2+x,1/2-y,1/2+z
loop_
_atom_site_type_symbol
_atom_site_label
_atom_site_fract_x
_atom_site_fract_y
_atom_site_fract_z
Si Si1 0.405576 0.369114 0.918954
Si Si2 0.227453 0.173146 0.417753
Si Si3 0.846317 0.420889 0.915822
Si Si4 0.500000 0.500000 0.000000
Si Si5 0.432155 0.188626 0.913787
O O1 0.407766 0.388630 0.750000
O O2 0.336427 0.361140 0.964674
O O3 0.429783 0.281389 0.934774
O O4 0.447487 0.431730 0.993736
O O5 0.221109 0.193122 0.250000
O O6 0.250000 0.250000 0.500000
O O7 0.278704 0.108915 0.432283
O O8 0.858627 0.431682 0.750000
O O9 0.856091 0.500000 0.000000
O O10 0.888354 0.354710 0.981012
O O11 0.413977 0.173931 0.750000
O O12 0.500000 0.161693 0.932169
#
# Coordination Sequence:
#
# PCOD9473623 Si02
#       5
#    16  16  16   4  16
#     4  10  21  39  60  88 126 167 210 257 315 379
#     4  10  21  39  64  91 123 164 211 263 319 377
#     4  11  24  40  61  92 127 163 208 262 319 378
#     4  12  22  36  64  94 130 172 216 252 310 398
#     4  10  20  39  67  90 118 164 209 255 317 379
#
# _framework density 18.740912999999999
#
# number of rings (size 3 to 8) (size 9 to 14) (size 15 to 20)
#    0.000    1.647    3.529    1.059    1.647    1.882 
#    0.000    4.706    0.000    0.000    0.000    0.000 
#    0.000    0.000    0.000    0.000    0.000    0.000 
#
# Total GULP energy -189269.609592 kJ/mol
# GULP energy per Si atom -5566.753223 kJ/mol
# Density = 1.869826 g / cm^3
# Si number density = 18.740913 Si / 1000 Ang^3
#
#
#
# Elastic Constant Matrix: (Units=GPa)
#
#
# Indices 1 2 3 4 5 6 
#
# 1 140.0657 51.6314 55.3018 0.0000 0.0000 0.0000
# 2 51.6314 94.8538 49.7216 0.0000 0.0000 0.0000
# 3 55.3018 49.7216 60.1028 0.0000 0.0000 0.0000
# 4 0.0000 0.0000 0.0000 10.6511 0.0000 0.0000
# 5 0.0000 0.0000 0.0000 0.0000 9.1728 0.0000
# 6 0.0000 0.0000 0.0000 0.0000 0.0000 31.3246
#
#
#
# Elastic Compliance Matrix: (Units=1/GPa)
#
#
# Indices 1 2 3 4 5 6 
#
# 1 0.011295 -0.001237 -0.009369 0.000000 0.000000 0.000000
# 2 -0.001237 0.018750 -0.014374 0.000000 0.000000 0.000000
# 3 -0.009369 -0.014374 0.037150 0.000000 0.000000 0.000000
# 4 0.000000 0.000000 0.000000 0.093887 0.000000 0.000000
# 5 0.000000 0.000000 0.000000 0.000000 0.109017 0.000000
# 6 0.000000 0.000000 0.000000 0.000000 0.000000 0.031924
#
#
# Mechanical properties :
#
#
# Convention : Reuss Voigt Hill
#
# Bulk Modulus (GPa) = 58.01983 67.59245 62.80614
# Shear Modulus (GPa) = 13.97707 19.45420 16.71563
#
# Velocity S-wave (km/s) = 2.73391 3.22539 2.98976
# Velocity P-wave (km/s) = 6.40248 7.07219 6.74565
#
# Compressibility (1/GPa) = 0.01723549
#
# Stress axis : x y z
#
# Youngs Moduli (GPa) = 88.53753 53.33238 26.91765
#
# Poissons Ratio (x) = 0.06595 0.25220
# Poissons Ratio (y) = 0.10948 0.38691
# Poissons Ratio (z) = 0.82955 0.76659
#
# Static dielectric constant tensor:
#      x y z
#    x 1.679280 0.000000 0.000000 
#    y 0.000000 1.613650 0.000000 
#    z 0.000000 0.000000 1.653410 
# 
# From -- ./inp_files/7597.got.cif
#   From: 2010.05.17/outbox.cif.g08.bks.cpg/sg63_4_cif.got.tgz:7597.got - 2010.06.03 15:47:04.
