data_PCOD9473934
_publ_section_title
;
Structure prediction by ZEFSAII (Michael W. Deem and Ramdas Pophale) SiO2 
 PCOD9473934
Probable space group: C M C M
;
_chemical_formula_sum "Si O2"
_cell_formula_units_Z 64
_cell_length_a 10.544328
_cell_length_b 23.884703
_cell_length_c 14.302096
_cell_angle_alpha 90.000000
_cell_angle_beta 90.000000
_cell_angle_gamma 90.000000
_cell_volume 3601.956313
_symmetry_space_group_name_H-M "C M C M"
_symmetry_group_IT_number 63
_symmetry_cell_setting 'orthorhombic'
loop_
_space_group_symop_operation_xyz
x,y,z
-x,-y,1/2+z
x,-y,-z
-x,y,1/2-z
-x,-y,-z
x,y,1/2-z
-x,y,z
x,-y,1/2+z
1/2+x,1/2+y,z
1/2-x,1/2-y,1/2+z
1/2+x,1/2-y,-z
1/2-x,1/2+y,1/2-z
1/2-x,1/2-y,-z
1/2+x,1/2+y,1/2-z
1/2-x,1/2+y,z
1/2+x,1/2-y,1/2+z
loop_
_atom_site_type_symbol
_atom_site_label
_atom_site_fract_x
_atom_site_fract_y
_atom_site_fract_z
Si Si1 0.142424 0.326431 0.480861
Si Si2 0.146289 0.764370 0.361127
Si Si3 0.715889 0.566624 0.500276
Si Si4 0.500000 0.569214 0.353848
Si Si5 0.000000 0.933922 0.146768
O O1 0.155928 0.293032 0.578889
O O2 0.248472 0.303298 0.409738
O O3 0.166809 0.392009 0.496400
O O4 0.000000 0.315727 0.446049
O O5 0.166562 0.757715 0.250000
O O6 0.000000 0.784786 0.374435
O O7 0.742667 0.500000 0.500000
O O8 0.625736 0.582407 0.412667
O O9 0.625374 0.579142 0.588749
O O10 0.500000 0.592997 0.250000
O O11 0.500000 0.501622 0.348126
O O12 0.000000 0.909590 0.250000
#
# Coordination Sequence:
#
# PCOD9473934 Si02
#       5
#    16  16  16   8   8
#     4  10  21  36  55  80 113 140 172 224 269 321
#     4   9  20  39  60  77  98 139 187 226 269 315
#     4   9  18  31  50  78 110 142 177 213 261 321
#     4   8  15  29  48  73 105 138 179 223 252 291
#     4   8  15  29  48  71 103 142 179 217 252 295
#
# _framework density 17.768122000000002
#
# number of rings (size 3 to 8) (size 9 to 14) (size 15 to 20)
#    0.000    3.000    0.000    1.500    3.500    3.000 
#    0.000    0.000    0.000    0.000    0.000   10.500 
#    0.000    0.000    0.000    0.000    0.000    0.000 
#
# Total GULP energy -178232.483607 kJ/mol
# GULP energy per Si atom -5569.765113 kJ/mol
# Density = 1.772768 g / cm^3
# Si number density = 17.768122 Si / 1000 Ang^3
#
#
#
# Elastic Constant Matrix: (Units=GPa)
#
#
# Indices 1 2 3 4 5 6 
#
# 1 102.9150 50.2210 56.9466 0.0000 0.0000 0.0000
# 2 50.2210 81.8719 25.9196 0.0000 0.0000 0.0000
# 3 56.9466 25.9196 135.1130 0.0000 0.0000 0.0000
# 4 0.0000 0.0000 0.0000 7.6083 0.0000 0.0000
# 5 0.0000 0.0000 0.0000 0.0000 15.1316 0.0000
# 6 0.0000 0.0000 0.0000 0.0000 0.0000 27.2416
#
#
#
# Elastic Compliance Matrix: (Units=1/GPa)
#
#
# Indices 1 2 3 4 5 6 
#
# 1 0.016997 -0.008686 -0.005498 0.000000 0.000000 0.000000
# 2 -0.008686 0.017443 0.000315 0.000000 0.000000 0.000000
# 3 -0.005498 0.000315 0.009658 0.000000 0.000000 0.000000
# 4 0.000000 0.000000 0.000000 0.131436 0.000000 0.000000
# 5 0.000000 0.000000 0.000000 0.000000 0.066087 0.000000
# 6 0.000000 0.000000 0.000000 0.000000 0.000000 0.036709
#
#
# Mechanical properties :
#
#
# Convention : Reuss Voigt Hill
#
# Bulk Modulus (GPa) = 61.12358 65.11936 63.12147
# Shear Modulus (GPa) = 16.05033 22.45049 19.25041
#
# Velocity S-wave (km/s) = 3.00879 3.55847 3.29511
# Velocity P-wave (km/s) = 6.82245 7.32207 7.07667
#
# Compressibility (1/GPa) = 0.01636030
#
# Stress axis : x y z
#
# Youngs Moduli (GPa) = 58.83240 57.33101 103.54139
#
# Poissons Ratio (x) = 0.49797 0.56924
# Poissons Ratio (y) = 0.51101 -0.03259
# Poissons Ratio (z) = 0.32344 -0.01805
#
# Static dielectric constant tensor:
#      x y z
#    x 1.593880 0.000000 0.000000 
#    y 0.000000 1.626540 0.000000 
#    z 0.000000 0.000000 1.613600 
# 
# From -- ./inp_files/27616.got.cif
#   From: 2010.05.17/outbox.cif.g08.bks.cpg/sg63_14_cif.got.tgz:27616.got - 2010.06.03 15:47:04.
