data_PCOD9473951
_publ_section_title
;
Structure prediction by ZEFSAII (Michael W. Deem and Ramdas Pophale) SiO2 
 PCOD9473951
Probable space group: C M C M
;
_chemical_formula_sum "Si O2"
_cell_formula_units_Z 72
_cell_length_a 27.677509
_cell_length_b 15.144905
_cell_length_c 8.596353
_cell_angle_alpha 90.000000
_cell_angle_beta 90.000000
_cell_angle_gamma 90.000000
_cell_volume 3603.361177
_symmetry_space_group_name_H-M "C M C M"
_symmetry_group_IT_number 63
_symmetry_cell_setting 'orthorhombic'
loop_
_space_group_symop_operation_xyz
x,y,z
-x,-y,1/2+z
x,-y,-z
-x,y,1/2-z
-x,-y,-z
x,y,1/2-z
-x,y,z
x,-y,1/2+z
1/2+x,1/2+y,z
1/2-x,1/2-y,1/2+z
1/2+x,1/2-y,-z
1/2-x,1/2+y,1/2-z
1/2-x,1/2-y,-z
1/2+x,1/2+y,1/2-z
1/2-x,1/2+y,z
1/2+x,1/2-y,1/2+z
loop_
_atom_site_type_symbol
_atom_site_label
_atom_site_fract_x
_atom_site_fract_y
_atom_site_fract_z
Si Si1 0.000000 0.899445 0.435165
Si Si2 0.832097 0.911250 0.564301
Si Si3 0.372819 0.903187 0.436749
Si Si4 0.231458 0.343919 0.562408
Si Si5 0.913263 0.779390 0.562039
O O1 0.954436 0.841049 0.491368
O O2 0.000000 0.905812 0.250000
O O3 0.000000 0.000000 0.500000
O O4 0.832783 0.914766 0.750000
O O5 0.776706 0.904622 0.513888
O O6 0.862619 0.825862 0.518005
O O7 0.855359 0.000000 0.500000
O O8 0.372139 0.905730 0.250000
O O9 0.319095 0.876377 0.493828
O O10 0.408711 0.823185 0.484994
O O11 0.385199 0.000000 0.500000
O O12 0.227956 0.341829 0.750000
O O13 0.250000 0.250000 0.500000
O O14 0.918200 0.781887 0.750000
#
# Coordination Sequence:
#
# PCOD9473951 Si02
#       5
#     8  16  16  16  16
#     4  12  26  44  69 100 127 156 199 246 310 378
#     4  10  21  36  55  84 118 157 202 246 299 360
#     4  11  23  41  63  91 126 167 213 258 310 368
#     4  11  21  36  57  85 123 167 212 256 306 360
#     4  10  22  43  65  88 123 161 203 254 309 366
#
# _framework density 19.981344
#
# number of rings (size 3 to 8) (size 9 to 14) (size 15 to 20)
#    0.000    1.333    2.222    3.667    0.000    8.000 
#    0.000    0.556    0.000    0.000    0.000    0.000 
#    0.000    0.000    0.000    0.000    0.000    0.000 
#
# Total GULP energy -201002.655833 kJ/mol
# GULP energy per Si atom -5583.407106 kJ/mol
# Density = 1.993587 g / cm^3
# Si number density = 19.981344 Si / 1000 Ang^3
#
#
#
# Elastic Constant Matrix: (Units=GPa)
#
#
# Indices 1 2 3 4 5 6 
#
# 1 92.9277 62.6329 33.6175 0.0000 0.0000 0.0000
# 2 62.6329 212.3034 51.5801 0.0000 0.0000 0.0000
# 3 33.6175 51.5801 48.2165 0.0000 0.0000 0.0000
# 4 0.0000 0.0000 0.0000 36.4614 0.0000 0.0000
# 5 0.0000 0.0000 0.0000 0.0000 29.9640 0.0000
# 6 0.0000 0.0000 0.0000 0.0000 0.0000 29.9446
#
#
#
# Elastic Compliance Matrix: (Units=1/GPa)
#
#
# Indices 1 2 3 4 5 6 
#
# 1 0.015394 -0.002613 -0.007938 0.000000 0.000000 0.000000
# 2 -0.002613 0.006808 -0.005461 0.000000 0.000000 0.000000
# 3 -0.007938 -0.005461 0.032116 0.000000 0.000000 0.000000
# 4 0.000000 0.000000 0.000000 0.027426 0.000000 0.000000
# 5 0.000000 0.000000 0.000000 0.000000 0.033373 0.000000
# 6 0.000000 0.000000 0.000000 0.000000 0.000000 0.033395
#
#
# Mechanical properties :
#
#
# Convention : Reuss Voigt Hill
#
# Bulk Modulus (GPa) = 44.85405 72.12318 58.48862
# Shear Modulus (GPa) = 26.60044 32.98179 29.79112
#
# Velocity S-wave (km/s) = 3.65261 4.06720 3.86547
# Velocity P-wave (km/s) = 6.34708 7.63084 7.01838
#
# Compressibility (1/GPa) = 0.02229453
#
# Stress axis : x y z
#
# Youngs Moduli (GPa) = 64.96193 146.88882 31.13705
#
# Poissons Ratio (x) = 0.38380 0.24715
# Poissons Ratio (y) = 0.16974 0.17004
# Poissons Ratio (z) = 0.51564 0.80217
#
# Static dielectric constant tensor:
#      x y z
#    x 1.713130 0.000000 0.000000 
#    y 0.000000 1.738850 0.000000 
#    z 0.000000 0.000000 1.676450 
# 
# From -- ./inp_files/11694.got.cif
#   From: 2010.05.17/outbox.cif.g08.bks.cpg/sg63_6_cif.got.tgz:11694.got - 2010.06.03 15:47:04.
