data_PCOD9473347
_publ_section_title
;
Structure prediction by ZEFSAII (Michael W. Deem and Ramdas Pophale) SiO2 
 PCOD9473347
Probable space group: C M C M
;
_chemical_formula_sum "Si O2"
_cell_formula_units_Z 72
_cell_length_a 14.954010
_cell_length_b 30.642370
_cell_length_c 8.459777
_cell_angle_alpha 90.000000
_cell_angle_beta 90.000000
_cell_angle_gamma 90.000000
_cell_volume 3876.492376
_symmetry_space_group_name_H-M "C M C M"
_symmetry_group_IT_number 63
_symmetry_cell_setting 'orthorhombic'
loop_
_space_group_symop_operation_xyz
x,y,z
-x,-y,1/2+z
x,-y,-z
-x,y,1/2-z
-x,-y,-z
x,y,1/2-z
-x,y,z
x,-y,1/2+z
1/2+x,1/2+y,z
1/2-x,1/2-y,1/2+z
1/2+x,1/2-y,-z
1/2-x,1/2+y,1/2-z
1/2-x,1/2-y,-z
1/2+x,1/2+y,1/2-z
1/2-x,1/2+y,z
1/2+x,1/2-y,1/2+z
loop_
_atom_site_type_symbol
_atom_site_label
_atom_site_fract_x
_atom_site_fract_y
_atom_site_fract_z
Si Si1 0.000000 0.049826 0.940543
Si Si2 0.304988 0.291871 0.440040
Si Si3 0.000000 0.235704 0.942590
Si Si4 0.500000 0.162780 0.442866
Si Si5 0.190878 0.627208 0.060816
Si Si6 0.304227 0.450426 0.060355
O O1 0.903026 0.067494 0.991215
O O2 0.000000 0.050496 0.750000
O O3 0.000000 0.000000 0.000000
O O4 0.303798 0.291902 0.250000
O O5 0.250000 0.250000 0.500000
O O6 0.407964 0.286876 0.493253
O O7 0.257245 0.335126 0.501176
O O8 0.000000 0.286489 0.992359
O O9 0.000000 0.235626 0.750000
O O10 0.500000 0.162962 0.250000
O O11 0.409113 0.139281 0.494956
O O12 0.190242 0.627739 0.250000
O O13 0.227841 0.581114 0.002540
O O14 0.302303 0.450847 0.250000
O O15 0.295647 0.500000 0.000000
#
# Coordination Sequence:
#
# PCOD9473347 Si02
#       6
#     8  16   8   8  16  16
#     4   8  16  31  54  79 109 145 178 215 269 334
#     4  11  21  36  57  82 111 146 186 230 278 333
#     4   9  18  35  57  79 111 153 188 224 279 340
#     4   9  18  36  58  78 106 150 192 227 280 341
#     4  11  22  38  59  83 112 148 191 235 282 335
#     4  10  20  37  59  86 116 149 188 230 280 333
#
# _framework density 18.573491000000001
#
# number of rings (size 3 to 8) (size 9 to 14) (size 15 to 20)
#    0.000    2.000    2.222    2.000    0.000    1.778 
#    0.000   10.556    0.000    0.000    0.000    0.000 
#    0.000    0.000    0.000    0.000    0.000    0.000 
#
# Total GULP energy -200888.276151 kJ/mol
# GULP energy per Si atom -5580.229893 kJ/mol
# Density = 1.853122 g / cm^3
# Si number density = 18.573491 Si / 1000 Ang^3
#
#
#
# Elastic Constant Matrix: (Units=GPa)
#
#
# Indices 1 2 3 4 5 6 
#
# 1 200.6645 83.6102 33.0172 0.0000 0.0000 0.0000
# 2 83.6102 102.5734 23.0619 0.0000 0.0000 0.0000
# 3 33.0172 23.0619 39.3743 0.0000 0.0000 0.0000
# 4 0.0000 0.0000 0.0000 33.0676 0.0000 0.0000
# 5 0.0000 0.0000 0.0000 0.0000 20.0898 0.0000
# 6 0.0000 0.0000 0.0000 0.0000 0.0000 28.0224
#
#
#
# Elastic Compliance Matrix: (Units=1/GPa)
#
#
# Indices 1 2 3 4 5 6 
#
# 1 0.007899 -0.005700 -0.003285 0.000000 0.000000 0.000000
# 2 -0.005700 0.015341 -0.004206 0.000000 0.000000 0.000000
# 3 -0.003285 -0.004206 0.030615 0.000000 0.000000 0.000000
# 4 0.000000 0.000000 0.000000 0.030241 0.000000 0.000000
# 5 0.000000 0.000000 0.000000 0.000000 0.049777 0.000000
# 6 0.000000 0.000000 0.000000 0.000000 0.000000 0.035686
#
#
# Mechanical properties :
#
#
# Convention : Reuss Voigt Hill
#
# Bulk Modulus (GPa) = 36.39843 69.11011 52.75427
# Shear Modulus (GPa) = 24.37860 29.76414 27.07137
#
# Velocity S-wave (km/s) = 3.62684 4.00748 3.82190
# Velocity P-wave (km/s) = 6.09739 7.66178 6.92391
#
# Compressibility (1/GPa) = 0.02747371
#
# Stress axis : x y z
#
# Youngs Moduli (GPa) = 126.59818 65.18496 32.66348
#
# Poissons Ratio (x) = 0.37156 0.10730
# Poissons Ratio (y) = 0.72162 0.13737
# Poissons Ratio (z) = 0.41589 0.27414
#
# Static dielectric constant tensor:
#      x y z
#    x 1.669320 0.000000 0.000000 
#    y 0.000000 1.599830 0.000000 
#    z 0.000000 0.000000 1.642900 
# 
# From -- ./inp_files/4983.got.cif
#   From: 2010.05.17/outbox.cif.g08.bks.cpg/sg63_3_cif.got.tgz:4983.got - 2010.06.03 15:47:04.
