data_PCOD9473471
_publ_section_title
;
Structure prediction by ZEFSAII (Michael W. Deem and Ramdas Pophale) SiO2 
 PCOD9473471
Probable space group: C M C M
;
_chemical_formula_sum "Si O2"
_cell_formula_units_Z 96
_cell_length_a 28.492675
_cell_length_b 9.879918
_cell_length_c 16.388226
_cell_angle_alpha 90.000000
_cell_angle_beta 90.000000
_cell_angle_gamma 90.000000
_cell_volume 4613.372355
_symmetry_space_group_name_H-M "C M C M"
_symmetry_group_IT_number 63
_symmetry_cell_setting 'orthorhombic'
loop_
_space_group_symop_operation_xyz
x,y,z
-x,-y,1/2+z
x,-y,-z
-x,y,1/2-z
-x,-y,-z
x,y,1/2-z
-x,y,z
x,-y,1/2+z
1/2+x,1/2+y,z
1/2-x,1/2-y,1/2+z
1/2+x,1/2-y,-z
1/2-x,1/2+y,1/2-z
1/2-x,1/2-y,-z
1/2+x,1/2+y,1/2-z
1/2-x,1/2+y,z
1/2+x,1/2-y,1/2+z
loop_
_atom_site_type_symbol
_atom_site_label
_atom_site_fract_x
_atom_site_fract_y
_atom_site_fract_z
Si Si1 0.303015 0.389506 0.348889
Si Si2 0.407304 0.531125 0.596841
Si Si3 0.220852 0.584239 0.348571
Si Si4 0.553713 0.754280 0.126437
Si Si5 0.619293 0.000781 0.841713
Si Si6 0.448881 0.193323 0.432397
O O1 0.301883 0.387311 0.250000
O O2 0.355361 0.428162 0.375204
O O3 0.266227 0.503172 0.378660
O O4 0.287971 0.238355 0.377074
O O5 0.405633 0.500000 0.500000
O O6 0.428370 0.398200 0.638634
O O7 0.440399 0.660909 0.607785
O O8 0.225752 0.591993 0.250000
O O9 0.173841 0.497261 0.365054
O O10 0.500000 0.772583 0.155184
O O11 0.592074 0.858032 0.159767
O O12 0.552734 0.783576 0.029119
O O13 0.617199 0.941044 0.750000
O O14 0.591425 0.905406 0.903003
O O15 0.500000 0.136578 0.410487
#
# Coordination Sequence:
#
# PCOD9473471 Si02
#       6
#    16  16  16  16  16  16
#     4  10  20  38  60  82 109 147 190 231 279 342
#     4  10  21  38  59  85 115 146 190 239 282 326
#     4   9  20  36  58  83 109 145 187 227 280 340
#     4  10  22  38  57  83 115 154 192 227 278 340
#     4  11  22  37  57  86 117 145 186 239 282 328
#     4  10  20  38  61  81 110 153 193 229 278 340
#
# _framework density 20.809073000000001
#
# number of rings (size 3 to 8) (size 9 to 14) (size 15 to 20)
#    0.000    2.000    1.667    1.500    2.333    5.333 
#    0.000    2.500    0.000    3.000    0.000    0.000 
#    0.000    0.000    0.000    0.000    0.000    0.000 
#
# Total GULP energy -268068.002820 kJ/mol
# GULP energy per Si atom -5584.750059 kJ/mol
# Density = 2.076171 g / cm^3
# Si number density = 20.809073 Si / 1000 Ang^3
#
#
#
# Elastic Constant Matrix: (Units=GPa)
#
#
# Indices 1 2 3 4 5 6 
#
# 1 86.8513 -3.4334 8.2821 0.0000 0.0000 0.0000
# 2 -3.4334 69.4499 4.8393 0.0000 0.0000 0.0000
# 3 8.2821 4.8393 19.9310 0.0000 0.0000 0.0000
# 4 0.0000 0.0000 0.0000 17.8402 0.0000 0.0000
# 5 0.0000 0.0000 0.0000 0.0000 25.1831 0.0000
# 6 0.0000 0.0000 0.0000 0.0000 0.0000 35.6094
#
#
#
# Elastic Compliance Matrix: (Units=1/GPa)
#
#
# Indices 1 2 3 4 5 6 
#
# 1 0.012052 0.000961 -0.005241 0.000000 0.000000 0.000000
# 2 0.000961 0.014723 -0.003974 0.000000 0.000000 0.000000
# 3 -0.005241 -0.003974 0.053316 0.000000 0.000000 0.000000
# 4 0.000000 0.000000 0.000000 0.056053 0.000000 0.000000
# 5 0.000000 0.000000 0.000000 0.000000 0.039709 0.000000
# 6 0.000000 0.000000 0.000000 0.000000 0.000000 0.028082
#
#
# Mechanical properties :
#
#
# Convention : Reuss Voigt Hill
#
# Bulk Modulus (GPa) = 15.72770 21.73427 18.73099
# Shear Modulus (GPa) = 20.69202 26.82949 23.76076
#
# Velocity S-wave (km/s) = 3.15679 3.59460 3.38279
# Velocity P-wave (km/s) = 4.56745 5.26265 4.92733
#
# Compressibility (1/GPa) = 0.06358207
#
# Stress axis : x y z
#
# Youngs Moduli (GPa) = 82.97564 67.91958 18.75607
#
# Poissons Ratio (x) = -0.06527 0.09831
# Poissons Ratio (y) = -0.07974 0.07454
# Poissons Ratio (z) = 0.43490 0.26993
#
# Static dielectric constant tensor:
#      x y z
#    x 1.702010 0.000000 0.000000 
#    y 0.000000 1.749980 0.000000 
#    z 0.000000 0.000000 1.768800 
# 
# From -- ./inp_files/58040.got.cif
#   From: 2010.05.17/outbox.cif.g08.bks.cpg/sg63_30_cif.got.tgz:58040.got - 2010.06.03 15:47:04.
