data_PCOD9473383
_publ_section_title
;
Structure prediction by ZEFSAII (Michael W. Deem and Ramdas Pophale) SiO2 
 PCOD9473383
Probable space group: C M C M
;
_chemical_formula_sum "Si O2"
_cell_formula_units_Z 80
_cell_length_a 17.860497
_cell_length_b 23.772999
_cell_length_c 9.807946
_cell_angle_alpha 90.000000
_cell_angle_beta 90.000000
_cell_angle_gamma 90.000000
_cell_volume 4164.430110
_symmetry_space_group_name_H-M "C M C M"
_symmetry_group_IT_number 63
_symmetry_cell_setting 'orthorhombic'
loop_
_space_group_symop_operation_xyz
x,y,z
-x,-y,1/2+z
x,-y,-z
-x,y,1/2-z
-x,-y,-z
x,y,1/2-z
-x,y,z
x,-y,1/2+z
1/2+x,1/2+y,z
1/2-x,1/2-y,1/2+z
1/2+x,1/2-y,-z
1/2-x,1/2+y,1/2-z
1/2-x,1/2-y,-z
1/2+x,1/2+y,1/2-z
1/2-x,1/2+y,z
1/2+x,1/2-y,1/2+z
loop_
_atom_site_type_symbol
_atom_site_label
_atom_site_fract_x
_atom_site_fract_y
_atom_site_fract_z
Si Si1 0.679351 0.243701 0.596569
Si Si2 0.798714 0.556942 0.412483
Si Si3 0.855006 0.872501 0.900264
Si Si4 0.587794 0.546299 0.898355
Si Si5 0.410742 0.869095 0.088035
O O1 0.706561 0.231706 0.750000
O O2 0.750000 0.250000 0.500000
O O3 0.643699 0.305535 0.598095
O O4 0.623312 0.193181 0.561151
O O5 0.785976 0.500000 0.500000
O O6 0.811357 0.545874 0.250000
O O7 0.727742 0.600132 0.418513
O O8 0.867319 0.588513 0.488077
O O9 0.882124 0.891987 0.750000
O O10 0.902456 0.895668 0.024499
O O11 0.623664 0.544931 0.750000
O O12 0.500000 0.534544 0.884250
O O13 0.619805 0.500000 0.000000
O O14 0.397053 0.881812 0.250000
O O15 0.500000 0.870023 0.067060
#
# Coordination Sequence:
#
# PCOD9473383 Si02
#       5
#    16  16  16  16  16
#     4  10  20  37  61  88 117 151 189 233 285 343
#     4  11  23  39  60  88 119 155 200 246 296 351
#     4  10  21  36  58  88 118 151 194 237 286 349
#     4  10  21  36  54  79 113 153 195 239 289 341
#     4  10  22  40  62  89 120 156 197 241 293 350
#
# _framework density 19.210311999999998
#
# number of rings (size 3 to 8) (size 9 to 14) (size 15 to 20)
#    0.000    1.800    2.000    1.800    0.000    6.800 
#    0.000    2.000    0.000    0.000    0.000    0.000 
#    0.000    0.000    0.000    0.000    0.000    0.000 
#
# Total GULP energy -223070.861637 kJ/mol
# GULP energy per Si atom -5576.771541 kJ/mol
# Density = 1.916659 g / cm^3
# Si number density = 19.210312 Si / 1000 Ang^3
#
#
#
# Elastic Constant Matrix: (Units=GPa)
#
#
# Indices 1 2 3 4 5 6 
#
# 1 68.0125 28.3369 44.6309 0.0000 0.0000 0.0000
# 2 28.3369 98.1944 54.3351 0.0000 0.0000 0.0000
# 3 44.6309 54.3351 139.6381 0.0000 0.0000 0.0000
# 4 0.0000 0.0000 0.0000 27.5453 0.0000 0.0000
# 5 0.0000 0.0000 0.0000 0.0000 24.1512 0.0000
# 6 0.0000 0.0000 0.0000 0.0000 0.0000 27.1580
#
#
#
# Elastic Compliance Matrix: (Units=1/GPa)
#
#
# Indices 1 2 3 4 5 6 
#
# 1 0.019162 -0.002728 -0.005063 0.000000 0.000000 0.000000
# 2 -0.002728 0.013367 -0.004329 0.000000 0.000000 0.000000
# 3 -0.005063 -0.004329 0.010464 0.000000 0.000000 0.000000
# 4 0.000000 0.000000 0.000000 0.036304 0.000000 0.000000
# 5 0.000000 0.000000 0.000000 0.000000 0.041406 0.000000
# 6 0.000000 0.000000 0.000000 0.000000 0.000000 0.036822
#
#
# Mechanical properties :
#
#
# Convention : Reuss Voigt Hill
#
# Bulk Modulus (GPa) = 53.32692 62.27233 57.79962
# Shear Modulus (GPa) = 26.59346 27.67370 27.13358
#
# Velocity S-wave (km/s) = 3.72470 3.79959 3.76233
# Velocity P-wave (km/s) = 6.80571 7.19275 7.00190
#
# Compressibility (1/GPa) = 0.01875225
#
# Stress axis : x y z
#
# Youngs Moduli (GPa) = 52.18576 74.81264 95.56444
#
# Poissons Ratio (x) = 0.20411 0.48384
# Poissons Ratio (y) = 0.14238 0.41372
# Poissons Ratio (z) = 0.26422 0.32388
#
# Static dielectric constant tensor:
#      x y z
#    x 1.669090 0.000000 0.000000 
#    y 0.000000 1.709870 0.000000 
#    z 0.000000 0.000000 1.707110 
# 
# From -- ./inp_files/6448.got.cif
#   From: 2010.05.17/outbox.cif.g08.bks.cpg/sg63_4_cif.got.tgz:6448.got - 2010.06.03 15:47:04.
