data_PCOD9473846
_publ_section_title
;
Structure prediction by ZEFSAII (Michael W. Deem and Ramdas Pophale) SiO2 
 PCOD9473846
Probable space group: C M C M
;
_chemical_formula_sum "Si O2"
_cell_formula_units_Z 80
_cell_length_a 7.484412
_cell_length_b 30.436516
_cell_length_c 18.289977
_cell_angle_alpha 90.000000
_cell_angle_beta 90.000000
_cell_angle_gamma 90.000000
_cell_volume 4166.446255
_symmetry_space_group_name_H-M "C M C M"
_symmetry_group_IT_number 63
_symmetry_cell_setting 'orthorhombic'
loop_
_space_group_symop_operation_xyz
x,y,z
-x,-y,1/2+z
x,-y,-z
-x,y,1/2-z
-x,-y,-z
x,y,1/2-z
-x,y,z
x,-y,1/2+z
1/2+x,1/2+y,z
1/2-x,1/2-y,1/2+z
1/2+x,1/2-y,-z
1/2-x,1/2+y,1/2-z
1/2-x,1/2-y,-z
1/2+x,1/2+y,1/2-z
1/2-x,1/2+y,z
1/2+x,1/2-y,1/2+z
loop_
_atom_site_type_symbol
_atom_site_label
_atom_site_fract_x
_atom_site_fract_y
_atom_site_fract_z
Si Si1 0.000000 0.500391 0.838542
Si Si2 0.286679 0.246401 0.667359
Si Si3 0.000000 0.399785 0.662014
Si Si4 0.782788 0.837009 0.909571
Si Si5 0.287126 0.658012 0.578347
Si Si6 0.212048 0.071291 0.662851
O O1 0.826911 0.528988 0.859512
O O2 0.000000 0.498368 0.750000
O O3 0.000000 0.450333 0.864098
O O4 0.214588 0.244451 0.750000
O O5 0.500000 0.250054 0.672412
O O6 0.228576 0.290122 0.624942
O O7 0.250055 0.202129 0.623156
O O8 0.825359 0.374532 0.632570
O O9 0.000000 0.398588 0.750000
O O10 0.000000 0.841757 0.903997
O O11 0.728043 0.838302 0.994627
O O12 0.500000 0.653584 0.575676
O O13 0.222866 0.614492 0.620016
O O14 0.237134 0.078512 0.750000
O O15 0.000000 0.064816 0.650683
#
# Coordination Sequence:
#
# PCOD9473846 Si02
#       6
#     8  16   8  16  16  16
#     4   9  20  37  59  87 113 145 197 247 296 349
#     4  10  21  35  55  84 116 155 198 240 291 343
#     4  11  24  41  65  89 108 153 205 239 294 355
#     4  10  23  41  58  83 122 155 192 244 292 342
#     4  10  21  36  57  85 116 157 195 233 294 355
#     4   9  18  34  56  84 118 150 189 243 293 343
#
# _framework density 19.201015000000002
#
# number of rings (size 3 to 8) (size 9 to 14) (size 15 to 20)
#    0.000    2.200    0.000    1.800    4.200    3.200 
#    0.000    4.000    0.000    3.600    0.000    0.000 
#    0.000    0.000    0.000    0.000    0.000    0.000 
#
# Total GULP energy -223305.472729 kJ/mol
# GULP energy per Si atom -5582.636818 kJ/mol
# Density = 1.915731 g / cm^3
# Si number density = 19.201015 Si / 1000 Ang^3
#
#
#
# Elastic Constant Matrix: (Units=GPa)
#
#
# Indices 1 2 3 4 5 6 
#
# 1 70.8780 45.8101 34.9005 0.0000 0.0000 0.0000
# 2 45.8101 196.8443 74.4690 0.0000 0.0000 0.0000
# 3 34.9005 74.4690 108.1509 0.0000 0.0000 0.0000
# 4 0.0000 0.0000 0.0000 -19.0936 0.0000 0.0000
# 5 0.0000 0.0000 0.0000 0.0000 -0.2851 0.0000
# 6 0.0000 0.0000 0.0000 0.0000 0.0000 29.9768
#
#
#
# Elastic Compliance Matrix: (Units=1/GPa)
#
#
# Indices 1 2 3 4 5 6 
#
# 1 0.017744 -0.002655 -0.003898 0.000000 0.000000 0.000000
# 2 -0.002655 0.007267 -0.004147 0.000000 0.000000 0.000000
# 3 -0.003898 -0.004147 0.013360 0.000000 0.000000 0.000000
# 4 0.000000 0.000000 0.000000 -0.052374 0.000000 0.000000
# 5 0.000000 0.000000 0.000000 0.000000 -3.506972 0.000000
# 6 0.000000 0.000000 0.000000 0.000000 0.000000 0.033359
#
#
# Mechanical properties :
#
#
# Convention : Reuss Voigt Hill
#
# Bulk Modulus (GPa) = 58.92420 76.24806 67.58613
# Shear Modulus (GPa) = -1.44485 16.83253 7.69384
#
# Velocity S-wave (km/s) = -0.86840 2.96404 2.00392
# Velocity P-wave (km/s) = 5.45428 7.17709 6.37416
#
# Compressibility (1/GPa) = 0.01697095
#
# Stress axis : x y z
#
# Youngs Moduli (GPa) = 56.35716 137.61116 74.85176
#
# Poissons Ratio (x) = 0.36532 0.29178
# Poissons Ratio (y) = 0.14961 0.31041
# Poissons Ratio (z) = 0.21968 0.57068
#
# Static dielectric constant tensor:
#      x y z
#    x 1.654660 0.000000 0.000000 
#    y 0.000000 1.641010 0.000000 
#    z 0.000000 0.000000 1.675650 
# 
# From -- ./inp_files/40547.got.cif
#   From: 2010.05.17/outbox.cif.g08.bks.cpg/sg63_21_cif.got.tgz:40547.got - 2010.06.03 15:47:04.
