data_PCOD9473767
_publ_section_title
;
Structure prediction by ZEFSAII (Michael W. Deem and Ramdas Pophale) SiO2 
 PCOD9473767
Probable space group: C M C M
;
_chemical_formula_sum "Si O2"
_cell_formula_units_Z 112
_cell_length_a 29.296899
_cell_length_b 13.640486
_cell_length_c 14.183647
_cell_angle_alpha 90.000000
_cell_angle_beta 90.000000
_cell_angle_gamma 90.000000
_cell_volume 5668.124907
_symmetry_space_group_name_H-M "C M C M"
_symmetry_group_IT_number 63
_symmetry_cell_setting 'orthorhombic'
loop_
_space_group_symop_operation_xyz
x,y,z
-x,-y,1/2+z
x,-y,-z
-x,y,1/2-z
-x,-y,-z
x,y,1/2-z
-x,y,z
x,-y,1/2+z
1/2+x,1/2+y,z
1/2-x,1/2-y,1/2+z
1/2+x,1/2-y,-z
1/2-x,1/2+y,1/2-z
1/2-x,1/2-y,-z
1/2+x,1/2+y,1/2-z
1/2-x,1/2+y,z
1/2+x,1/2-y,1/2+z
loop_
_atom_site_type_symbol
_atom_site_label
_atom_site_fract_x
_atom_site_fract_y
_atom_site_fract_z
Si Si1 0.921075 0.531334 0.857732
Si Si2 0.622968 0.341686 0.450742
Si Si3 0.298306 0.210798 0.033182
Si Si4 0.324625 0.117782 0.852217
Si Si5 0.643720 0.543293 0.137791
Si Si6 0.248739 0.459296 0.857171
Si Si7 0.446905 0.164561 0.031988
O O1 0.936589 0.544425 0.750000
O O2 0.865998 0.541125 0.857575
O O3 0.938089 0.616106 0.928652
O O4 0.935202 0.426149 0.898347
O O5 0.670228 0.289937 0.416707
O O6 0.619880 0.439654 0.387502
O O7 0.625925 0.380476 0.559219
O O8 0.584168 0.258687 0.446222
O O9 0.284298 0.112503 0.086105
O O10 0.250000 0.250000 0.000000
O O11 0.327730 0.186650 0.940804
O O12 0.327525 0.167469 0.750000
O O13 0.276094 0.063841 0.859897
O O14 0.638827 0.565612 0.250000
O O15 0.698389 0.536208 0.115022
O O16 0.248238 0.423490 0.750000
O O17 0.500000 0.189049 0.040386
#
# Coordination Sequence:
#
# PCOD9473767 Si02
#       7
#    16  16  16  16  16  16  16
#     4  10  21  40  64  93 129 164 195 237 299 371
#     4  11  23  40  62  89 117 161 206 253 310 359
#     4  12  21  32  57  85 119 155 198 244 294 352
#     4  10  21  34  54  83 119 159 197 236 280 341
#     4  10  23  43  61  82 119 162 212 261 304 353
#     4  10  21  35  53  82 120 161 199 240 291 350
#     4  11  24  41  63  95 127 156 196 250 309 375
#
# _framework density 19.759622
#
# number of rings (size 3 to 8) (size 9 to 14) (size 15 to 20)
#    0.000    1.429    2.857    3.000    4.000    4.000 
#    0.000    1.429    0.000    0.857    0.000    0.000 
#    0.000    0.000    0.000    0.000    0.000    0.000 
#
# Total GULP energy -312509.530283 kJ/mol
# GULP energy per Si atom -5580.527326 kJ/mol
# Density = 1.971465 g / cm^3
# Si number density = 19.759622 Si / 1000 Ang^3
#
#
#
# Elastic Constant Matrix: (Units=GPa)
#
#
# Indices 1 2 3 4 5 6 
#
# 1 97.3706 30.0287 0.7030 0.0000 0.0000 0.0000
# 2 30.0287 81.6382 15.0678 0.0000 0.0000 0.0000
# 3 0.7030 15.0678 78.6199 0.0000 0.0000 0.0000
# 4 0.0000 0.0000 0.0000 -11.9206 0.0000 0.0000
# 5 0.0000 0.0000 0.0000 0.0000 9.4607 0.0000
# 6 0.0000 0.0000 0.0000 0.0000 0.0000 22.5835
#
#
#
# Elastic Compliance Matrix: (Units=1/GPa)
#
#
# Indices 1 2 3 4 5 6 
#
# 1 0.011626 -0.004413 0.000742 0.000000 0.000000 0.000000
# 2 -0.004413 0.014374 -0.002715 0.000000 0.000000 0.000000
# 3 0.000742 -0.002715 0.013233 0.000000 0.000000 0.000000
# 4 0.000000 0.000000 0.000000 -0.083888 0.000000 0.000000
# 5 0.000000 0.000000 0.000000 0.000000 0.105700 0.000000
# 6 0.000000 0.000000 0.000000 0.000000 0.000000 0.044280
#
#
# Mechanical properties :
#
#
# Convention : Reuss Voigt Hill
#
# Bulk Modulus (GPa) = 37.79395 38.80308 38.29852
# Shear Modulus (GPa) = 39.39566 18.14666 28.77116
#
# Velocity S-wave (km/s) = 4.46998 3.03375 3.81997
# Velocity P-wave (km/s) = 6.76826 5.65259 6.23543
#
# Compressibility (1/GPa) = 0.02645926
#
# Stress axis : x y z
#
# Youngs Moduli (GPa) = 86.01645 69.57203 75.56753
#
# Poissons Ratio (x) = 0.30703 -0.05606
# Poissons Ratio (y) = 0.37960 0.20519
# Poissons Ratio (z) = -0.06381 0.18891
#
# Static dielectric constant tensor:
#      x y z
#    x 1.644260 0.000000 0.000000 
#    y 0.000000 1.726800 0.000000 
#    z 0.000000 0.000000 1.749450 
# 
# From -- ./inp_files/38576.got.cif
#   From: 2010.05.17/outbox.cif.g08.bks.cpg/sg63_20_cif.got.tgz:38576.got - 2010.06.03 15:47:04.
