data_PCOD9473760
_publ_section_title
;
Structure prediction by ZEFSAII (Michael W. Deem and Ramdas Pophale) SiO2 
 PCOD9473760
Probable space group: C M C M
;
_chemical_formula_sum "Si O2"
_cell_formula_units_Z 112
_cell_length_a 13.114576
_cell_length_b 12.625595
_cell_length_c 29.881077
_cell_angle_alpha 90.000000
_cell_angle_beta 90.000000
_cell_angle_gamma 90.000000
_cell_volume 4947.688565
_symmetry_space_group_name_H-M "C M C M"
_symmetry_group_IT_number 63
_symmetry_cell_setting 'orthorhombic'
loop_
_space_group_symop_operation_xyz
x,y,z
-x,-y,1/2+z
x,-y,-z
-x,y,1/2-z
-x,-y,-z
x,y,1/2-z
-x,y,z
x,-y,1/2+z
1/2+x,1/2+y,z
1/2-x,1/2-y,1/2+z
1/2+x,1/2-y,-z
1/2-x,1/2+y,1/2-z
1/2-x,1/2-y,-z
1/2+x,1/2+y,1/2-z
1/2-x,1/2+y,z
1/2+x,1/2-y,1/2+z
loop_
_atom_site_type_symbol
_atom_site_label
_atom_site_fract_x
_atom_site_fract_y
_atom_site_fract_z
Si Si1 0.670335 0.734199 0.299920
Si Si2 0.380796 0.701643 0.665993
Si Si3 0.886819 0.740056 0.067950
Si Si4 0.613293 0.880333 0.017132
Si Si5 0.186727 0.964176 0.644457
Si Si6 0.885188 0.524740 0.802894
Si Si7 0.692422 0.454910 0.450169
O O1 0.642124 0.700117 0.250000
O O2 0.792482 0.758295 0.301457
O O3 0.642292 0.641710 0.334092
O O4 0.620852 0.848227 0.309255
O O5 0.500000 0.722932 0.676098
O O6 0.350259 0.757229 0.618694
O O7 0.367545 0.574637 0.659073
O O8 0.889711 0.863455 0.055614
O O9 0.000000 0.692206 0.069664
O O10 0.839910 0.682020 0.025311
O O11 0.500000 0.839834 0.029461
O O12 0.699458 0.891291 0.054587
O O13 0.601054 0.000000 0.000000
O O14 0.300090 0.975796 0.665259
O O15 0.186337 0.964163 0.590650
O O16 0.862459 0.505053 0.750000
O O17 0.000000 0.487749 0.812258
O O18 0.685512 0.500000 0.500000
#
# Coordination Sequence:
#
# PCOD9473760 Si02
#       7
#    16  16  16  16  16  16  16
#     4  10  21  36  57  86 114 141 179 227 279 336
#     4   9  20  37  58  81 111 148 186 227 275 331
#     4   9  18  35  55  75 104 143 182 226 273 316
#     4   9  18  31  49  74 102 134 176 220 263 311
#     4  10  21  37  57  83 114 149 188 230 276 330
#     4   9  19  38  61  84 112 144 180 227 282 336
#     4  10  21  34  53  78 107 145 186 225 269 321
#
# _framework density 22.636834
#
# number of rings (size 3 to 8) (size 9 to 14) (size 15 to 20)
#    0.000    2.571    0.000    0.857    4.000    2.857 
#    2.571    0.000    0.000    0.000    0.000    0.000 
#    0.000    0.000    0.000    0.000    0.000    0.000 
#
# Total GULP energy -312381.255251 kJ/mol
# GULP energy per Si atom -5578.236701 kJ/mol
# Density = 2.258531 g / cm^3
# Si number density = 22.636834 Si / 1000 Ang^3
#
#
#
# Elastic Constant Matrix: (Units=GPa)
#
#
# Indices 1 2 3 4 5 6 
#
# 1 72.8394 4.0654 1.3994 0.0000 0.0000 0.0000
# 2 4.0654 64.7063 33.1015 0.0000 0.0000 0.0000
# 3 1.3994 33.1015 89.5120 0.0000 0.0000 0.0000
# 4 0.0000 0.0000 0.0000 38.1506 0.0000 0.0000
# 5 0.0000 0.0000 0.0000 0.0000 33.3011 0.0000
# 6 0.0000 0.0000 0.0000 0.0000 0.0000 4.5376
#
#
#
# Elastic Compliance Matrix: (Units=1/GPa)
#
#
# Indices 1 2 3 4 5 6 
#
# 1 0.013778 -0.000932 0.000129 0.000000 0.000000 0.000000
# 2 -0.000932 0.019123 -0.007057 0.000000 0.000000 0.000000
# 3 0.000129 -0.007057 0.013779 0.000000 0.000000 0.000000
# 4 0.000000 0.000000 0.000000 0.026212 0.000000 0.000000
# 5 0.000000 0.000000 0.000000 0.000000 0.030029 0.000000
# 6 0.000000 0.000000 0.000000 0.000000 0.000000 0.220382
#
#
# Mechanical properties :
#
#
# Convention : Reuss Voigt Hill
#
# Bulk Modulus (GPa) = 32.29824 33.79890 33.04857
# Shear Modulus (GPa) = 14.31254 27.76395 21.03825
#
# Velocity S-wave (km/s) = 2.51722 3.50593 3.05188
# Velocity P-wave (km/s) = 4.76944 5.59930 5.20094
#
# Compressibility (1/GPa) = 0.03096144
#
# Stress axis : x y z
#
# Youngs Moduli (GPa) = 72.57757 52.29254 72.57212
#
# Poissons Ratio (x) = 0.04872 -0.00937
# Poissons Ratio (y) = 0.06762 0.51215
# Poissons Ratio (z) = -0.00937 0.36904
#
# Static dielectric constant tensor:
#      x y z
#    x 1.939290 0.000000 0.000000 
#    y 0.000000 1.856510 0.000000 
#    z 0.000000 0.000000 1.838430 
# 
# From -- ./inp_files/62987.got.cif
#   From: 2010.05.17/outbox.cif.g08.bks.cpg/sg63_32_cif.got.tgz:62987.got - 2010.06.03 15:47:04.
