data_PCOD9473524
_publ_section_title
;
Structure prediction by ZEFSAII (Michael W. Deem and Ramdas Pophale) SiO2 
 PCOD9473524
Probable space group: C M C M
;
_chemical_formula_sum "Si O2"
_cell_formula_units_Z 88
_cell_length_a 27.046239
_cell_length_b 11.175064
_cell_length_c 15.697647
_cell_angle_alpha 90.000000
_cell_angle_beta 90.000000
_cell_angle_gamma 90.000000
_cell_volume 4744.511014
_symmetry_space_group_name_H-M "C M C M"
_symmetry_group_IT_number 63
_symmetry_cell_setting 'orthorhombic'
loop_
_space_group_symop_operation_xyz
x,y,z
-x,-y,1/2+z
x,-y,-z
-x,y,1/2-z
-x,-y,-z
x,y,1/2-z
-x,y,z
x,-y,1/2+z
1/2+x,1/2+y,z
1/2-x,1/2-y,1/2+z
1/2+x,1/2-y,-z
1/2-x,1/2+y,1/2-z
1/2-x,1/2-y,-z
1/2+x,1/2+y,1/2-z
1/2-x,1/2+y,z
1/2+x,1/2-y,1/2+z
loop_
_atom_site_type_symbol
_atom_site_label
_atom_site_fract_x
_atom_site_fract_y
_atom_site_fract_z
Si Si1 0.500000 0.365621 0.146631
Si Si2 0.152945 0.658834 0.250000
Si Si3 0.896236 0.231226 0.909437
Si Si4 0.390707 0.261986 0.897726
Si Si5 0.729042 0.620596 0.750000
Si Si6 0.825369 0.001643 0.903032
Si Si7 0.840720 0.618630 0.750000
Si Si8 0.000000 0.146375 0.352225
O O1 0.500000 0.356687 0.250000
O O2 0.452384 0.303352 0.107582
O O3 0.500000 0.506121 0.123964
O O4 0.121609 0.682954 0.334880
O O5 0.195092 0.760532 0.250000
O O6 0.168400 0.522531 0.250000
O O7 0.865850 0.107409 0.900908
O O8 0.886649 0.277280 0.004251
O O9 0.355412 0.379228 0.885479
O O10 0.371099 0.164914 0.831394
O O11 0.448150 0.297000 0.882663
O O12 0.714418 0.540168 0.667707
O O13 0.784861 0.666708 0.750000
O O14 0.805250 0.000000 0.000000
O O15 0.000000 0.153656 0.250000
#
# Coordination Sequence:
#
# PCOD9473524 Si02
#       8
#     8   8  16  16   8  16   8   8
#     4  11  19  31  65 103 125 168 205 248 314 367
#     4  10  24  45  59  85 123 163 212 254 308 367
#     4  10  20  38  62  93 129 160 200 254 305 369
#     4  11  22  38  63  95 129 162 201 253 319 373
#     4  10  23  42  66  86 117 163 204 270 315 368
#     4   9  19  37  63  95 125 151 195 258 320 372
#     4  12  27  43  61  87 120 170 210 256 313 373
#     4  11  21  33  61  99 137 162 199 254 310 381
#
# _framework density 18.547749
#
# number of rings (size 3 to 8) (size 9 to 14) (size 15 to 20)
#    0.000    1.636    3.636    1.091    2.545    1.455 
#    3.273    4.545    0.000    2.182    0.000    0.000 
#    0.000    0.000    0.000    0.000    0.000    0.000 
#
# Total GULP energy -245616.326209 kJ/mol
# GULP energy per Si atom -5582.189232 kJ/mol
# Density = 1.850553 g / cm^3
# Si number density = 18.547749 Si / 1000 Ang^3
#
#
#
# Elastic Constant Matrix: (Units=GPa)
#
#
# Indices 1 2 3 4 5 6 
#
# 1 100.4680 15.0542 45.0618 0.0000 0.0000 0.0000
# 2 15.0542 50.9489 37.3314 0.0000 0.0000 0.0000
# 3 45.0618 37.3314 128.3216 0.0000 0.0000 0.0000
# 4 0.0000 0.0000 0.0000 1.7963 0.0000 0.0000
# 5 0.0000 0.0000 0.0000 0.0000 -3.0520 0.0000
# 6 0.0000 0.0000 0.0000 0.0000 0.0000 18.3848
#
#
#
# Elastic Compliance Matrix: (Units=1/GPa)
#
#
# Indices 1 2 3 4 5 6 
#
# 1 0.011827 -0.000574 -0.003986 0.000000 0.000000 0.000000
# 2 -0.000574 0.024973 -0.007064 0.000000 0.000000 0.000000
# 3 -0.003986 -0.007064 0.011248 0.000000 0.000000 0.000000
# 4 0.000000 0.000000 0.000000 0.556709 0.000000 0.000000
# 5 0.000000 0.000000 0.000000 0.000000 -0.327658 0.000000
# 6 0.000000 0.000000 0.000000 0.000000 0.000000 0.054393
#
#
# Mechanical properties :
#
#
# Convention : Reuss Voigt Hill
#
# Bulk Modulus (GPa) = 40.32213 52.73703 46.52958
# Shear Modulus (GPa) = 13.77388 15.57856 14.67622
#
# Velocity S-wave (km/s) = 2.72806 2.90127 2.81600
# Velocity P-wave (km/s) = 5.63115 6.30222 5.97612
#
# Compressibility (1/GPa) = 0.02480028
#
# Stress axis : x y z
#
# Youngs Moduli (GPa) = 84.54964 40.04370 88.90672
#
# Poissons Ratio (x) = 0.02298 0.35442
# Poissons Ratio (y) = 0.04851 0.62800
# Poissons Ratio (z) = 0.33705 0.28285
#
# Static dielectric constant tensor:
#      x y z
#    x 1.621430 0.000000 0.000000 
#    y 0.000000 1.608910 0.000000 
#    z 0.000000 0.000000 1.658640 
# 
# From -- ./inp_files/37825.got.cif
#   From: 2010.05.17/outbox.cif.g08.bks.cpg/sg63_19_cif.got.tgz:37825.got - 2010.06.03 15:47:04.
