data_PCOD9473241
_publ_section_title
;
Structure prediction by ZEFSAII (Michael W. Deem and Ramdas Pophale) SiO2 
 PCOD9473241
Probable space group: C M C M
;
_chemical_formula_sum "Si O2"
_cell_formula_units_Z 96
_cell_length_a 12.152071
_cell_length_b 22.610529
_cell_length_c 17.424752
_cell_angle_alpha 90.000000
_cell_angle_beta 90.000000
_cell_angle_gamma 90.000000
_cell_volume 4787.707693
_symmetry_space_group_name_H-M "C M C M"
_symmetry_group_IT_number 63
_symmetry_cell_setting 'orthorhombic'
loop_
_space_group_symop_operation_xyz
x,y,z
-x,-y,1/2+z
x,-y,-z
-x,y,1/2-z
-x,-y,-z
x,y,1/2-z
-x,y,z
x,-y,1/2+z
1/2+x,1/2+y,z
1/2-x,1/2-y,1/2+z
1/2+x,1/2-y,-z
1/2-x,1/2+y,1/2-z
1/2-x,1/2-y,-z
1/2+x,1/2+y,1/2-z
1/2-x,1/2+y,z
1/2+x,1/2-y,1/2+z
loop_
_atom_site_type_symbol
_atom_site_label
_atom_site_fract_x
_atom_site_fract_y
_atom_site_fract_z
Si Si1 0.873178 0.468635 0.079028
Si Si2 0.000000 0.863321 0.659203
Si Si3 0.500000 0.498746 0.656972
Si Si4 0.780613 0.180263 0.085097
Si Si5 0.871976 0.410622 0.662113
Si Si6 0.371909 0.290692 0.083107
Si Si7 0.188049 0.091052 0.659275
O O1 0.867039 0.520049 0.143127
O O2 0.796879 0.416697 0.108660
O O3 0.000000 0.450358 0.068612
O O4 0.837788 0.500000 0.000000
O O5 0.891298 0.829491 0.632867
O O6 0.000000 0.868122 0.750000
O O7 0.000000 0.931363 0.627891
O O8 0.500000 0.496677 0.750000
O O9 0.606279 0.537606 0.635508
O O10 0.703824 0.124156 0.102918
O O11 0.705828 0.236467 0.107602
O O12 0.821943 0.187743 0.998160
O O13 0.836454 0.399629 0.750000
O O14 0.000000 0.392843 0.654285
O O15 0.500000 0.272990 0.074056
O O16 0.364965 0.345949 0.140420
O O17 0.209526 0.086092 0.750000
#
# Coordination Sequence:
#
# PCOD9473241 Si02
#       7
#    16   8   8  16  16  16  16
#     4  10  21  38  60  90 127 166 208 256 312 382
#     4  11  22  39  63  95 130 165 207 265 337 387
#     4   9  20  37  61  91 129 163 194 253 318 377
#     4  11  23  41  63  90 125 163 211 267 319 381
#     4  10  20  36  61  92 123 159 207 260 315 372
#     4  11  24  44  65  87 121 168 220 261 316 387
#     4  11  22  39  62  93 129 167 212 263 319 381
#
# _framework density 20.051348999999998
#
# number of rings (size 3 to 8) (size 9 to 14) (size 15 to 20)
#    0.000    1.500    1.667    3.500    0.000    3.667 
#    1.500    1.250    0.000    0.000    0.000    0.000 
#    0.000    0.000    0.000    0.000    0.000    0.000 
#
# Total GULP energy -268155.495611 kJ/mol
# GULP energy per Si atom -5586.572825 kJ/mol
# Density = 2.000571 g / cm^3
# Si number density = 20.051349 Si / 1000 Ang^3
#
#
#
# Elastic Constant Matrix: (Units=GPa)
#
#
# Indices 1 2 3 4 5 6 
#
# 1 101.5296 46.5215 25.6760 0.0000 0.0000 0.0000
# 2 46.5215 72.0097 18.5377 0.0000 0.0000 0.0000
# 3 25.6760 18.5377 44.2035 0.0000 0.0000 0.0000
# 4 0.0000 0.0000 0.0000 29.8316 0.0000 0.0000
# 5 0.0000 0.0000 0.0000 0.0000 28.2583 0.0000
# 6 0.0000 0.0000 0.0000 0.0000 0.0000 22.1675
#
#
#
# Elastic Compliance Matrix: (Units=1/GPa)
#
#
# Indices 1 2 3 4 5 6 
#
# 1 0.014989 -0.008343 -0.005208 0.000000 0.000000 0.000000
# 2 -0.008343 0.020211 -0.003630 0.000000 0.000000 0.000000
# 3 -0.005208 -0.003630 0.027170 0.000000 0.000000 0.000000
# 4 0.000000 0.000000 0.000000 0.033522 0.000000 0.000000
# 5 0.000000 0.000000 0.000000 0.000000 0.035388 0.000000
# 6 0.000000 0.000000 0.000000 0.000000 0.000000 0.045111
#
#
# Mechanical properties :
#
#
# Convention : Reuss Voigt Hill
#
# Bulk Modulus (GPa) = 35.70279 44.35701 40.02990
# Shear Modulus (GPa) = 22.71807 24.51863 23.61835
#
# Velocity S-wave (km/s) = 3.36965 3.50064 3.43577
# Velocity P-wave (km/s) = 5.74315 6.20556 5.97883
#
# Compressibility (1/GPa) = 0.02800902
#
# Stress axis : x y z
#
# Youngs Moduli (GPa) = 66.71479 49.47679 36.80535
#
# Poissons Ratio (x) = 0.41279 0.19167
# Poissons Ratio (y) = 0.55660 0.13360
# Poissons Ratio (z) = 0.34743 0.17960
#
# Static dielectric constant tensor:
#      x y z
#    x 1.732010 0.000000 0.000000 
#    y 0.000000 1.698540 0.000000 
#    z 0.000000 0.000000 1.690960 
# 
# From -- ./inp_files/42542.got.cif
#   From: 2010.05.17/outbox.cif.g08.bks.cpg/sg63_22_cif.got.tgz:42542.got - 2010.06.03 15:47:04.
