data_PCOD9473100
_publ_section_title
;
Structure prediction by ZEFSAII (Michael W. Deem and Ramdas Pophale) SiO2 
 PCOD9473100
Probable space group: C M C M
;
_chemical_formula_sum "Si O2"
_cell_formula_units_Z 80
_cell_length_a 18.684019
_cell_length_b 26.242997
_cell_length_c 8.708054
_cell_angle_alpha 90.000000
_cell_angle_beta 90.000000
_cell_angle_gamma 90.000000
_cell_volume 4269.773569
_symmetry_space_group_name_H-M "C M C M"
_symmetry_group_IT_number 63
_symmetry_cell_setting 'orthorhombic'
loop_
_space_group_symop_operation_xyz
x,y,z
-x,-y,1/2+z
x,-y,-z
-x,y,1/2-z
-x,-y,-z
x,y,1/2-z
-x,y,z
x,-y,1/2+z
1/2+x,1/2+y,z
1/2-x,1/2-y,1/2+z
1/2+x,1/2-y,-z
1/2-x,1/2+y,1/2-z
1/2-x,1/2-y,-z
1/2+x,1/2+y,1/2-z
1/2-x,1/2+y,z
1/2+x,1/2-y,1/2+z
loop_
_atom_site_type_symbol
_atom_site_label
_atom_site_fract_x
_atom_site_fract_y
_atom_site_fract_z
Si Si1 0.827748 0.054679 0.565540
Si Si2 0.170184 0.249385 0.434094
Si Si3 0.416510 0.149107 0.934964
Si Si4 0.582852 0.654249 0.935381
Si Si5 0.330969 0.945176 0.933138
O O1 0.823075 0.051653 0.750000
O O2 0.880382 0.100604 0.523109
O O3 0.748544 0.065003 0.499452
O O4 0.851101 0.000000 0.500000
O O5 0.173371 0.247961 0.250000
O O6 0.250000 0.250000 0.500000
O O7 0.127953 0.300704 0.479835
O O8 0.127297 0.200517 0.494022
O O9 0.410803 0.143512 0.750000
O O10 0.500000 0.155239 0.973528
O O11 0.382866 0.099605 0.012994
O O12 0.585642 0.658342 0.750000
O O13 0.500000 0.656094 0.983123
O O14 0.327402 0.948053 0.750000
O O15 0.353695 0.000000 0.000000
#
# Coordination Sequence:
#
# PCOD9473100 Si02
#       5
#    16  16  16  16  16
#     4  10  20  36  58  83 113 150 191 234 280 331
#     4  11  23  39  61  87 114 149 191 234 282 336
#     4  10  22  40  59  81 113 149 185 229 280 333
#     4  10  22  39  58  83 117 153 188 232 286 339
#     4  11  22  37  59  85 113 147 188 232 278 331
#
# _framework density 18.736357000000002
#
# number of rings (size 3 to 8) (size 9 to 14) (size 15 to 20)
#    0.000    1.600    0.000    6.000    0.000   10.400 
#    0.000    0.000    0.000    0.000    0.000    0.000 
#    0.000    0.000    0.000    0.000    0.000    0.000 
#
# Total GULP energy -223636.521456 kJ/mol
# GULP energy per Si atom -5590.913036 kJ/mol
# Density = 1.869371 g / cm^3
# Si number density = 18.736357 Si / 1000 Ang^3
#
#
#
# Elastic Constant Matrix: (Units=GPa)
#
#
# Indices 1 2 3 4 5 6 
#
# 1 166.7485 135.4247 62.6823 0.0000 0.0000 0.0000
# 2 135.4247 183.2225 67.8187 0.0000 0.0000 0.0000
# 3 62.6823 67.8187 63.0229 0.0000 0.0000 0.0000
# 4 0.0000 0.0000 0.0000 37.8349 0.0000 0.0000
# 5 0.0000 0.0000 0.0000 0.0000 27.0948 0.0000
# 6 0.0000 0.0000 0.0000 0.0000 0.0000 -163.9496
#
#
#
# Elastic Compliance Matrix: (Units=1/GPa)
#
#
# Indices 1 2 3 4 5 6 
#
# 1 0.016001 -0.009866 -0.005298 0.000000 0.000000 0.000000
# 2 -0.009866 0.015154 -0.006494 0.000000 0.000000 0.000000
# 3 -0.005298 -0.006494 0.028125 0.000000 0.000000 0.000000
# 4 0.000000 0.000000 0.000000 0.026431 0.000000 0.000000
# 5 0.000000 0.000000 0.000000 0.000000 0.036907 0.000000
# 6 0.000000 0.000000 0.000000 0.000000 0.000000 -0.006099
#
#
# Mechanical properties :
#
#
# Convention : Reuss Voigt Hill
#
# Bulk Modulus (GPa) = 62.64258 104.98281 83.81270
# Shear Modulus (GPa) = 30.27419 -9.99942 10.13739
#
# Velocity S-wave (km/s) = 4.02406 -2.31268 2.32858
# Velocity P-wave (km/s) = 7.42274 7.00157 7.21523
#
# Compressibility (1/GPa) = 0.01596358
#
# Stress axis : x y z
#
# Youngs Moduli (GPa) = 62.49520 65.98982 35.55503
#
# Poissons Ratio (x) = 0.65105 0.18838
# Poissons Ratio (y) = 0.61657 0.23091
# Poissons Ratio (z) = 0.33111 0.42857
#
# Static dielectric constant tensor:
#      x y z
#    x 1.618950 0.000000 0.000000 
#    y 0.000000 1.622530 0.000000 
#    z 0.000000 0.000000 1.633290 
# 
# From -- ./inp_files/6450.got.cif
#   From: 2010.05.17/outbox.cif.g08.bks.cpg/sg63_4_cif.got.tgz:6450.got - 2010.06.03 15:47:04.
