data_PCOD9473456
_publ_section_title
;
Structure prediction by ZEFSAII (Michael W. Deem and Ramdas Pophale) SiO2 
 PCOD9473456
Probable space group: C M C M
;
_chemical_formula_sum "Si O2"
_cell_formula_units_Z 96
_cell_length_a 24.083423
_cell_length_b 25.887468
_cell_length_c 8.832471
_cell_angle_alpha 90.000000
_cell_angle_beta 90.000000
_cell_angle_gamma 90.000000
_cell_volume 5506.682144
_symmetry_space_group_name_H-M "C M C M"
_symmetry_group_IT_number 63
_symmetry_cell_setting 'orthorhombic'
loop_
_space_group_symop_operation_xyz
x,y,z
-x,-y,1/2+z
x,-y,-z
-x,y,1/2-z
-x,-y,-z
x,y,1/2-z
-x,y,z
x,-y,1/2+z
1/2+x,1/2+y,z
1/2-x,1/2-y,1/2+z
1/2+x,1/2-y,-z
1/2-x,1/2+y,1/2-z
1/2-x,1/2-y,-z
1/2+x,1/2+y,1/2-z
1/2-x,1/2+y,z
1/2+x,1/2-y,1/2+z
loop_
_atom_site_type_symbol
_atom_site_label
_atom_site_fract_x
_atom_site_fract_y
_atom_site_fract_z
Si Si1 0.619604 0.347711 0.568172
Si Si2 0.188267 0.556161 0.569253
Si Si3 0.119511 0.649226 0.068368
Si Si4 0.817091 0.943663 0.431519
Si Si5 0.000000 0.804933 0.568050
Si Si6 0.500000 0.810035 0.933013
Si Si7 0.188790 0.753043 0.431491
O O1 0.623941 0.349116 0.750000
O O2 0.642973 0.400487 0.499628
O O3 0.555921 0.335331 0.526137
O O4 0.656366 0.300957 0.503530
O O5 0.175930 0.500000 0.500000
O O6 0.184633 0.553238 0.750000
O O7 0.147695 0.599998 0.507549
O O8 0.252591 0.569032 0.529532
O O9 0.120061 0.642072 0.250000
O O10 0.155440 0.700426 0.034431
O O11 0.056290 0.660843 0.020370
O O12 0.821647 0.945091 0.250000
O O13 0.828820 0.000000 0.500000
O O14 0.000000 0.748139 0.495536
O O15 0.000000 0.798628 0.750000
O O16 0.500000 0.806804 0.750000
O O17 0.191281 0.759151 0.250000
O O18 0.250000 0.750000 0.500000
#
# Coordination Sequence:
#
# PCOD9473456 Si02
#       7
#    16  16  16  16   8   8  16
#     4  11  22  37  57  83 115 150 191 236 282 338
#     4  10  21  37  59  84 113 146 184 229 280 337
#     4  10  21  36  56  81 111 146 187 231 279 332
#     4  10  21  38  60  86 114 149 189 233 287 342
#     4  10  22  38  57  82 113 152 193 237 283 331
#     4  10  20  38  59  80 109 150 193 235 279 333
#     4  11  22  35  54  82 115 149 185 232 287 342
#
# _framework density 17.433364999999998
#
# number of rings (size 3 to 8) (size 9 to 14) (size 15 to 20)
#    0.000    1.667    1.667    3.000    0.000    7.333 
#    0.000    0.833    0.000    0.000    0.000    0.000 
#    0.000    0.000    0.000    0.000    0.000    0.000 
#
# Total GULP energy -268193.122086 kJ/mol
# GULP energy per Si atom -5587.356710 kJ/mol
# Density = 1.739369 g / cm^3
# Si number density = 17.433365 Si / 1000 Ang^3
#
#
#
# Elastic Constant Matrix: (Units=GPa)
#
#
# Indices 1 2 3 4 5 6 
#
# 1 181.5789 114.8087 63.3592 0.0000 0.0000 0.0000
# 2 114.8087 156.7939 62.1517 0.0000 0.0000 0.0000
# 3 63.3592 62.1517 50.8603 0.0000 0.0000 0.0000
# 4 0.0000 0.0000 0.0000 38.6210 0.0000 0.0000
# 5 0.0000 0.0000 0.0000 0.0000 26.3447 0.0000
# 6 0.0000 0.0000 0.0000 0.0000 0.0000 9.0084
#
#
#
# Elastic Compliance Matrix: (Units=1/GPa)
#
#
# Indices 1 2 3 4 5 6 
#
# 1 0.011715 -0.005417 -0.007974 0.000000 0.000000 0.000000
# 2 -0.005417 0.014874 -0.011428 0.000000 0.000000 0.000000
# 3 -0.007974 -0.011428 0.043561 0.000000 0.000000 0.000000
# 4 0.000000 0.000000 0.000000 0.025893 0.000000 0.000000
# 5 0.000000 0.000000 0.000000 0.000000 0.037958 0.000000
# 6 0.000000 0.000000 0.000000 0.000000 0.000000 0.111008
#
#
# Mechanical properties :
#
#
# Convention : Reuss Voigt Hill
#
# Bulk Modulus (GPa) = 48.75382 96.65249 72.70315
# Shear Modulus (GPa) = 16.58458 24.72236 20.65347
#
# Velocity S-wave (km/s) = 3.08768 3.76986 3.44569
# Velocity P-wave (km/s) = 6.38265 8.63195 7.59107
#
# Compressibility (1/GPa) = 0.02051121
#
# Stress axis : x y z
#
# Youngs Moduli (GPa) = 85.36275 67.22950 22.95641
#
# Poissons Ratio (x) = 0.36418 0.18305
# Poissons Ratio (y) = 0.46241 0.26236
# Poissons Ratio (z) = 0.68068 0.76833
#
# Static dielectric constant tensor:
#      x y z
#    x 1.587170 0.000000 0.000000 
#    y 0.000000 1.551420 0.000000 
#    z 0.000000 0.000000 1.584210 
# 
# From -- ./inp_files/10539.got.cif
#   From: 2010.05.17/outbox.cif.g08.bks.cpg/sg63_6_cif.got.tgz:10539.got - 2010.06.03 15:47:04.
