data_PCOD9473602
_publ_section_title
;
Structure prediction by ZEFSAII (Michael W. Deem and Ramdas Pophale) SiO2 
 PCOD9473602
Probable space group: C M C M
;
_chemical_formula_sum "Si O2"
_cell_formula_units_Z 80
_cell_length_a 14.145156
_cell_length_b 13.643033
_cell_length_c 19.348295
_cell_angle_alpha 90.000000
_cell_angle_beta 90.000000
_cell_angle_gamma 90.000000
_cell_volume 3733.888727
_symmetry_space_group_name_H-M "C M C M"
_symmetry_group_IT_number 63
_symmetry_cell_setting 'orthorhombic'
loop_
_space_group_symop_operation_xyz
x,y,z
-x,-y,1/2+z
x,-y,-z
-x,y,1/2-z
-x,-y,-z
x,y,1/2-z
-x,y,z
x,-y,1/2+z
1/2+x,1/2+y,z
1/2-x,1/2-y,1/2+z
1/2+x,1/2-y,-z
1/2-x,1/2+y,1/2-z
1/2-x,1/2-y,-z
1/2+x,1/2+y,1/2-z
1/2-x,1/2+y,z
1/2+x,1/2-y,1/2+z
loop_
_atom_site_type_symbol
_atom_site_label
_atom_site_fract_x
_atom_site_fract_y
_atom_site_fract_z
Si Si1 0.696527 0.631848 0.105943
Si Si2 0.111923 0.350596 0.119641
Si Si3 0.711635 0.559006 0.675370
Si Si4 0.894812 0.874587 0.039277
Si Si5 0.103635 0.360662 0.538376
O O1 0.657467 0.740650 0.120921
O O2 0.683877 0.554608 0.166863
O O3 0.807144 0.624319 0.086785
O O4 0.646099 0.595249 0.035215
O O5 0.176957 0.417807 0.167680
O O6 0.000000 0.345520 0.135088
O O7 0.121148 0.392156 0.040979
O O8 0.679056 0.596640 0.750000
O O9 0.666855 0.606688 0.606980
O O10 0.900885 0.757108 0.032295
O O11 0.000000 0.913102 0.050564
O O12 0.000000 0.396390 0.561492
#
# Coordination Sequence:
#
# PCOD9473602 Si02
#       5
#    16  16  16  16  16
#     4  11  20  39  66  94 120 160 207 260 307 367
#     4  10  21  41  66  92 123 159 205 261 315 365
#     4  12  26  39  57  90 129 166 206 249 306 375
#     4  10  20  39  65  91 118 153 203 260 312 363
#     4   9  17  34  66  97 114 145 202 260 310 365
#
# _framework density 21.425383
#
# number of rings (size 3 to 8) (size 9 to 14) (size 15 to 20)
#    0.000    1.600    4.000    3.600    0.000    4.800 
#    0.000    2.000    0.000    0.000    0.000    0.000 
#    0.000    0.000    0.000    0.000    0.000    0.000 
#
# Total GULP energy -223268.393732 kJ/mol
# GULP energy per Si atom -5581.709843 kJ/mol
# Density = 2.137662 g / cm^3
# Si number density = 21.425383 Si / 1000 Ang^3
#
#
#
# Elastic Constant Matrix: (Units=GPa)
#
#
# Indices 1 2 3 4 5 6 
#
# 1 122.2024 7.2901 33.7169 0.0000 0.0000 0.0000
# 2 7.2901 53.6641 14.2916 0.0000 0.0000 0.0000
# 3 33.7169 14.2916 96.4478 0.0000 0.0000 0.0000
# 4 0.0000 0.0000 0.0000 11.1579 0.0000 0.0000
# 5 0.0000 0.0000 0.0000 0.0000 6.4724 0.0000
# 6 0.0000 0.0000 0.0000 0.0000 0.0000 19.7129
#
#
#
# Elastic Compliance Matrix: (Units=1/GPa)
#
#
# Indices 1 2 3 4 5 6 
#
# 1 0.009065 -0.000403 -0.003109 0.000000 0.000000 0.000000
# 2 -0.000403 0.019418 -0.002736 0.000000 0.000000 0.000000
# 3 -0.003109 -0.002736 0.011861 0.000000 0.000000 0.000000
# 4 0.000000 0.000000 0.000000 0.089623 0.000000 0.000000
# 5 0.000000 0.000000 0.000000 0.000000 0.154503 0.000000
# 6 0.000000 0.000000 0.000000 0.000000 0.000000 0.050728
#
#
# Mechanical properties :
#
#
# Convention : Reuss Voigt Hill
#
# Bulk Modulus (GPa) = 35.91208 42.54573 39.22890
# Shear Modulus (GPa) = 14.00649 21.93635 17.97142
#
# Velocity S-wave (km/s) = 2.55960 3.20323 2.89933
# Velocity P-wave (km/s) = 5.05304 5.79497 5.43668
#
# Compressibility (1/GPa) = 0.02784579
#
# Stress axis : x y z
#
# Youngs Moduli (GPa) = 110.31332 51.49874 84.31185
#
# Poissons Ratio (x) = 0.02078 0.26215
# Poissons Ratio (y) = 0.04450 0.23070
# Poissons Ratio (z) = 0.34299 0.14092
#
# Static dielectric constant tensor:
#      x y z
#    x 1.817840 0.000000 0.000000 
#    y 0.000000 1.845020 0.000000 
#    z 0.000000 0.000000 1.762930 
# 
# From -- ./inp_files/43986.got.cif
#   From: 2010.05.17/outbox.cif.g08.bks.cpg/sg63_22_cif.got.tgz:43986.got - 2010.06.03 15:47:04.
