data_PCOD9473618
_publ_section_title
;
Structure prediction by ZEFSAII (Michael W. Deem and Ramdas Pophale) SiO2 
 PCOD9473618
Probable space group: C M C M
;
_chemical_formula_sum "Si O2"
_cell_formula_units_Z 68
_cell_length_a 18.719809
_cell_length_b 9.512024
_cell_length_c 14.663427
_cell_angle_alpha 90.000000
_cell_angle_beta 90.000000
_cell_angle_gamma 90.000000
_cell_volume 2611.017797
_symmetry_space_group_name_H-M "C M C M"
_symmetry_group_IT_number 63
_symmetry_cell_setting 'orthorhombic'
loop_
_space_group_symop_operation_xyz
x,y,z
-x,-y,1/2+z
x,-y,-z
-x,y,1/2-z
-x,-y,-z
x,y,1/2-z
-x,y,z
x,-y,1/2+z
1/2+x,1/2+y,z
1/2-x,1/2-y,1/2+z
1/2+x,1/2-y,-z
1/2-x,1/2+y,1/2-z
1/2-x,1/2-y,-z
1/2+x,1/2+y,1/2-z
1/2-x,1/2+y,z
1/2+x,1/2-y,1/2+z
loop_
_atom_site_type_symbol
_atom_site_label
_atom_site_fract_x
_atom_site_fract_y
_atom_site_fract_z
Si Si1 0.788392 0.096359 0.640094
Si Si2 0.100405 0.909678 0.914258
Si Si3 0.000000 0.986933 0.750000
Si Si4 0.580832 0.796762 0.638857
Si Si5 0.123514 0.386057 0.360732
O O1 0.787819 0.095453 0.750000
O O2 0.848722 0.209377 0.609140
O O3 0.706900 0.118695 0.613843
O O4 0.816517 0.946776 0.603585
O O5 0.061094 0.974710 0.828253
O O6 0.087110 0.744335 0.911284
O O7 0.078238 0.000000 0.000000
O O8 0.579570 0.783772 0.750000
O O9 0.500000 0.756973 0.609972
O O10 0.593008 0.960906 0.618242
O O11 0.115893 0.363708 0.250000
#
# Coordination Sequence:
#
# PCOD9473618 Si02
#       5
#    16  16   4  16  16
#     4  10  20  39  66  96 132 176 222 276 339 405
#     4  12  26  42  70 101 132 178 229 279 339 405
#     4  12  26  48  64  92 140 180 224 290 328 406
#     4   9  19  32  58  90 125 171 222 268 329 397
#     4  10  20  39  66  96 132 176 222 276 339 405
#
# _framework density 26.043483999999999
#
# number of rings (size 3 to 8) (size 9 to 14) (size 15 to 20)
#    0.000    1.647    2.353    1.765    3.294    4.706 
#    0.000    1.176    0.000    1.412    0.000    0.000 
#    0.000    0.000    0.000    0.000    0.000    0.000 
#
# Total GULP energy -189987.964557 kJ/mol
# GULP energy per Si atom -5587.881310 kJ/mol
# Density = 2.598421 g / cm^3
# Si number density = 26.043484 Si / 1000 Ang^3
#
#
#
# Elastic Constant Matrix: (Units=GPa)
#
#
# Indices 1 2 3 4 5 6 
#
# 1 138.7141 42.4491 13.6098 0.0000 0.0000 0.0000
# 2 42.4491 166.8529 8.8165 0.0000 0.0000 0.0000
# 3 13.6098 8.8165 90.3880 0.0000 0.0000 0.0000
# 4 0.0000 0.0000 0.0000 28.2523 0.0000 0.0000
# 5 0.0000 0.0000 0.0000 0.0000 -144.0919 0.0000
# 6 0.0000 0.0000 0.0000 0.0000 0.0000 8.7001
#
#
#
# Elastic Compliance Matrix: (Units=1/GPa)
#
#
# Indices 1 2 3 4 5 6 
#
# 1 0.007907 -0.001959 -0.000999 0.000000 0.000000 0.000000
# 2 -0.001959 0.006510 -0.000340 0.000000 0.000000 0.000000
# 3 -0.000999 -0.000340 0.011247 0.000000 0.000000 0.000000
# 4 0.000000 0.000000 0.000000 0.035395 0.000000 0.000000
# 5 0.000000 0.000000 0.000000 0.000000 -0.006940 0.000000
# 6 0.000000 0.000000 0.000000 0.000000 0.000000 0.114941
#
#
# Mechanical properties :
#
#
# Convention : Reuss Voigt Hill
#
# Bulk Modulus (GPa) = 52.44702 58.41175 55.42938
# Shear Modulus (GPa) = 27.47074 0.64406 14.05740
#
# Velocity S-wave (km/s) = 3.25130 0.49783 2.32581
# Velocity P-wave (km/s) = 5.85462 4.77574 5.34248
#
# Compressibility (1/GPa) = 0.01906686
#
# Stress axis : x y z
#
# Youngs Moduli (GPa) = 126.47773 153.61966 88.91208
#
# Poissons Ratio (x) = 0.30089 0.08886
# Poissons Ratio (y) = 0.24773 0.03023
# Poissons Ratio (z) = 0.12641 0.05223
#
# Static dielectric constant tensor:
#      x y z
#    x 2.015140 0.000000 0.000000 
#    y 0.000000 2.093160 0.000000 
#    z 0.000000 0.000000 2.054620 
# 
# From -- ./inp_files/46658.got.cif
#   From: 2010.05.17/outbox.cif.g08.bks.cpg/sg63_24_cif.got.tgz:46658.got - 2010.06.03 15:47:04.
