data_PCOD9473537
_publ_section_title
;
Structure prediction by ZEFSAII (Michael W. Deem and Ramdas Pophale) SiO2 
 PCOD9473537
Probable space group: C M C M
;
_chemical_formula_sum "Si O2"
_cell_formula_units_Z 64
_cell_length_a 9.820872
_cell_length_b 34.695858
_cell_length_c 9.991618
_cell_angle_alpha 90.000000
_cell_angle_beta 90.000000
_cell_angle_gamma 90.000000
_cell_volume 3404.579691
_symmetry_space_group_name_H-M "C M C M"
_symmetry_group_IT_number 63
_symmetry_cell_setting 'orthorhombic'
loop_
_space_group_symop_operation_xyz
x,y,z
-x,-y,1/2+z
x,-y,-z
-x,y,1/2-z
-x,-y,-z
x,y,1/2-z
-x,y,z
x,-y,1/2+z
1/2+x,1/2+y,z
1/2-x,1/2-y,1/2+z
1/2+x,1/2-y,-z
1/2-x,1/2+y,1/2-z
1/2-x,1/2-y,-z
1/2+x,1/2+y,1/2-z
1/2-x,1/2+y,z
1/2+x,1/2-y,1/2+z
loop_
_atom_site_type_symbol
_atom_site_label
_atom_site_fract_x
_atom_site_fract_y
_atom_site_fract_z
Si Si1 0.000000 0.696886 0.594756
Si Si2 0.155969 0.031122 0.750000
Si Si3 0.209079 0.838085 0.407212
Si Si4 0.335861 0.044611 0.250000
Si Si5 0.500000 0.728691 0.590967
Si Si6 0.846283 0.079822 0.022059
O O1 0.133102 0.671145 0.574967
O O2 0.000000 0.733180 0.496687
O O3 0.000000 0.710318 0.750000
O O4 0.169519 0.057122 0.617796
O O5 0.000000 0.015454 0.750000
O O6 0.268381 0.997861 0.750000
O O7 0.181264 0.846440 0.250000
O O8 0.127859 0.799024 0.439039
O O9 0.164959 0.874839 0.491579
O O10 0.500000 0.044070 0.250000
O O11 0.270180 0.065935 0.377841
O O12 0.500000 0.737591 0.750000
O O13 0.000000 0.071518 0.072588
#
# Coordination Sequence:
#
# PCOD9473537 Si02
#       6
#     8   8  16   8   8  16
#     4  10  22  38  56  88 129 165 204 250 315 375
#     4  10  22  42  74  96 119 164 220 259 308 377
#     4  10  20  38  63  91 123 164 210 260 307 370
#     4  12  28  44  58  96 139 166 200 259 324 377
#     4  10  20  38  64  86 121 161 210 260 305 369
#     4  11  22  42  69  94 125 167 217 261 311 368
#
# _framework density 18.798209
#
# number of rings (size 3 to 8) (size 9 to 14) (size 15 to 20)
#    0.000    1.500    2.500    2.625    1.750    4.000 
#    4.500    0.000    0.000    0.000    0.000    0.000 
#    0.000    0.000    0.000    0.000    0.000    0.000 
#
# Total GULP energy -178778.380396 kJ/mol
# GULP energy per Si atom -5586.824387 kJ/mol
# Density = 1.875542 g / cm^3
# Si number density = 18.798209 Si / 1000 Ang^3
#
#
#
# Elastic Constant Matrix: (Units=GPa)
#
#
# Indices 1 2 3 4 5 6 
#
# 1 152.1877 31.0511 54.0278 0.0000 0.0000 0.0000
# 2 31.0511 89.7190 47.1341 0.0000 0.0000 0.0000
# 3 54.0278 47.1341 85.8708 0.0000 0.0000 0.0000
# 4 0.0000 0.0000 0.0000 38.9035 0.0000 0.0000
# 5 0.0000 0.0000 0.0000 0.0000 40.4323 0.0000
# 6 0.0000 0.0000 0.0000 0.0000 0.0000 -4.5849
#
#
#
# Elastic Compliance Matrix: (Units=1/GPa)
#
#
# Indices 1 2 3 4 5 6 
#
# 1 0.008463 -0.000185 -0.005223 0.000000 0.000000 0.000000
# 2 -0.000185 0.015666 -0.008483 0.000000 0.000000 0.000000
# 3 -0.005223 -0.008483 0.019588 0.000000 0.000000 0.000000
# 4 0.000000 0.000000 0.000000 0.025705 0.000000 0.000000
# 5 0.000000 0.000000 0.000000 0.000000 0.024733 0.000000
# 6 0.000000 0.000000 0.000000 0.000000 0.000000 -0.218109
#
#
# Mechanical properties :
#
#
# Convention : Reuss Voigt Hill
#
# Bulk Modulus (GPa) = 62.75381 65.80039 64.27710
# Shear Modulus (GPa) = -55.02874 27.98782 -13.52046
#
# Velocity S-wave (km/s) = -5.41636 3.86276 -2.68478
# Velocity P-wave (km/s) = 2.37920 7.41445 4.96555
#
# Compressibility (1/GPa) = 0.01593529
#
# Stress axis : x y z
#
# Youngs Moduli (GPa) = 118.16421 63.83083 51.05213
#
# Poissons Ratio (x) = 0.01181 0.26665
# Poissons Ratio (y) = 0.02186 0.43307
# Poissons Ratio (z) = 0.61718 0.54147
#
# Static dielectric constant tensor:
#      x y z
#    x 1.669650 0.000000 0.000000 
#    y 0.000000 1.616540 0.000000 
#    z 0.000000 0.000000 1.644590 
# 
# From -- ./inp_files/16308.got.cif
#   From: 2010.05.17/outbox.cif.g08.bks.cpg/sg63_9_cif.got.tgz:16308.got - 2010.06.03 15:47:04.
