data_PCOD9473161
_publ_section_title
;
Structure prediction by ZEFSAII (Michael W. Deem and Ramdas Pophale) SiO2 
 PCOD9473161
Probable space group: C M C M
;
_chemical_formula_sum "Si O2"
_cell_formula_units_Z 96
_cell_length_a 27.934602
_cell_length_b 20.760092
_cell_length_c 8.683820
_cell_angle_alpha 90.000000
_cell_angle_beta 90.000000
_cell_angle_gamma 90.000000
_cell_volume 5035.963510
_symmetry_space_group_name_H-M "C M C M"
_symmetry_group_IT_number 63
_symmetry_cell_setting 'orthorhombic'
loop_
_space_group_symop_operation_xyz
x,y,z
-x,-y,1/2+z
x,-y,-z
-x,y,1/2-z
-x,-y,-z
x,y,1/2-z
-x,y,z
x,-y,1/2+z
1/2+x,1/2+y,z
1/2-x,1/2-y,1/2+z
1/2+x,1/2-y,-z
1/2-x,1/2+y,1/2-z
1/2-x,1/2-y,-z
1/2+x,1/2+y,1/2-z
1/2-x,1/2+y,z
1/2+x,1/2-y,1/2+z
loop_
_atom_site_type_symbol
_atom_site_label
_atom_site_fract_x
_atom_site_fract_y
_atom_site_fract_z
Si Si1 0.395388 0.195636 0.434074
Si Si2 0.264095 0.570346 0.565613
Si Si3 0.370128 0.569915 0.435706
Si Si4 0.714963 0.804639 0.565048
Si Si5 0.943873 0.430528 0.434192
Si Si6 0.445614 0.679609 0.435713
O O1 0.398539 0.194068 0.250000
O O2 0.340157 0.208710 0.477052
O O3 0.412984 0.127614 0.499605
O O4 0.428125 0.252656 0.498356
O O5 0.250918 0.500000 0.500000
O O6 0.263882 0.568728 0.750000
O O7 0.317917 0.584376 0.505544
O O8 0.230534 0.626643 0.502840
O O9 0.384346 0.500000 0.500000
O O10 0.366348 0.567386 0.250000
O O11 0.408512 0.623804 0.480779
O O12 0.718876 0.806124 0.750000
O O13 0.750000 0.750000 0.500000
O O14 0.929287 0.500000 0.500000
O O15 0.940487 0.431445 0.250000
O O16 0.000000 0.420564 0.476128
O O17 0.444790 0.683483 0.250000
O O18 0.500000 0.665467 0.483989
#
# Coordination Sequence:
#
# PCOD9473161 Si02
#       6
#    16  16  16  16  16  16
#     4  11  24  39  58  85 115 148 188 235 284 336
#     4  11  22  38  61  87 116 151 191 234 284 340
#     4  10  20  36  59  85 116 152 190 234 284 337
#     4  11  24  41  60  85 116 150 191 237 287 341
#     4  10  21  38  61  87 116 151 189 230 278 333
#     4  10  22  39  58  82 114 152 192 234 282 336
#
# _framework density 19.062887
#
# number of rings (size 3 to 8) (size 9 to 14) (size 15 to 20)
#    0.000    1.500    0.000    6.000    0.000   11.000 
#    0.000    0.000    0.000    0.000    0.000    0.000 
#    0.000    0.000    0.000    0.000    0.000    0.000 
#
# Total GULP energy -268414.032332 kJ/mol
# GULP energy per Si atom -5591.959007 kJ/mol
# Density = 1.901950 g / cm^3
# Si number density = 19.062887 Si / 1000 Ang^3
#
#
#
# Elastic Constant Matrix: (Units=GPa)
#
#
# Indices 1 2 3 4 5 6 
#
# 1 23.4936 -2.9997 6.6660 0.0000 0.0000 0.0000
# 2 -2.9997 29.2057 -2.0849 0.0000 0.0000 0.0000
# 3 6.6660 -2.0849 43.3836 0.0000 0.0000 0.0000
# 4 0.0000 0.0000 0.0000 38.8179 0.0000 0.0000
# 5 0.0000 0.0000 0.0000 0.0000 23.7064 0.0000
# 6 0.0000 0.0000 0.0000 0.0000 0.0000 12.2108
#
#
#
# Elastic Compliance Matrix: (Units=1/GPa)
#
#
# Indices 1 2 3 4 5 6 
#
# 1 0.044999 0.004143 -0.006715 0.000000 0.000000 0.000000
# 2 0.004143 0.034739 0.001033 0.000000 0.000000 0.000000
# 3 -0.006715 0.001033 0.024132 0.000000 0.000000 0.000000
# 4 0.000000 0.000000 0.000000 0.025761 0.000000 0.000000
# 5 0.000000 0.000000 0.000000 0.000000 0.042183 0.000000
# 6 0.000000 0.000000 0.000000 0.000000 0.000000 0.081894
#
#
# Mechanical properties :
#
#
# Convention : Reuss Voigt Hill
#
# Bulk Modulus (GPa) = 9.92157 11.02729 10.47443
# Shear Modulus (GPa) = 17.21855 21.24713 19.23284
#
# Velocity S-wave (km/s) = 3.00867 3.34216 3.17979
# Velocity P-wave (km/s) = 4.15758 4.54869 4.35752
#
# Compressibility (1/GPa) = 0.10079051
#
# Stress axis : x y z
#
# Youngs Moduli (GPa) = 22.22266 28.78601 41.43940
#
# Poissons Ratio (x) = -0.11925 0.27827
# Poissons Ratio (y) = -0.09206 -0.04281
# Poissons Ratio (z) = 0.14923 -0.02974
#
# Static dielectric constant tensor:
#      x y z
#    x 1.656770 0.000000 0.000000 
#    y 0.000000 1.628750 0.000000 
#    z 0.000000 0.000000 1.640080 
# 
# From -- ./inp_files/12318.got.cif
#   From: 2010.05.17/outbox.cif.g08.bks.cpg/sg63_7_cif.got.tgz:12318.got - 2010.06.03 15:47:04.
