data_PCOD9473784
_publ_section_title
;
Structure prediction by ZEFSAII (Michael W. Deem and Ramdas Pophale) SiO2 
 PCOD9473784
Probable space group: C M C M
;
_chemical_formula_sum "Si O2"
_cell_formula_units_Z 80
_cell_length_a 7.273914
_cell_length_b 14.564598
_cell_length_c 31.790724
_cell_angle_alpha 90.000000
_cell_angle_beta 90.000000
_cell_angle_gamma 90.000000
_cell_volume 3367.961224
_symmetry_space_group_name_H-M "C M C M"
_symmetry_group_IT_number 63
_symmetry_cell_setting 'orthorhombic'
loop_
_space_group_symop_operation_xyz
x,y,z
-x,-y,1/2+z
x,-y,-z
-x,y,1/2-z
-x,-y,-z
x,y,1/2-z
-x,y,z
x,-y,1/2+z
1/2+x,1/2+y,z
1/2-x,1/2-y,1/2+z
1/2+x,1/2-y,-z
1/2-x,1/2+y,1/2-z
1/2-x,1/2-y,-z
1/2+x,1/2+y,1/2-z
1/2-x,1/2+y,z
1/2+x,1/2-y,1/2+z
loop_
_atom_site_type_symbol
_atom_site_label
_atom_site_fract_x
_atom_site_fract_y
_atom_site_fract_z
Si Si1 0.724647 0.334611 0.886615
Si Si2 0.277498 0.121195 0.613756
Si Si3 0.219664 0.159995 0.295128
Si Si4 0.290020 0.473429 0.544803
Si Si5 0.719739 0.118522 0.705031
O O1 0.500000 0.338939 0.885833
O O2 0.774168 0.227863 0.890525
O O3 0.788266 0.370921 0.840780
O O4 0.790850 0.393584 0.925944
O O5 0.500000 0.117513 0.613764
O O6 0.211946 0.086235 0.659679
O O7 0.209787 0.060781 0.575470
O O8 0.292681 0.126102 0.250000
O O9 0.245943 0.270777 0.295384
O O10 0.000000 0.144765 0.294641
O O11 0.206254 0.500000 0.500000
O O12 0.500000 0.444305 0.535703
O O13 0.792941 0.084462 0.750000
O O14 0.500000 0.103625 0.705428
#
# Coordination Sequence:
#
# PCOD9473784 Si02
#       5
#    16  16  16  16  16
#     4   8  15  29  47  66  91 122 153 186 228 279
#     4   9  17  31  52  73  91 117 156 196 227 266
#     4   7   9  16  35  62  87 112 145 182 217 260
#     4  10  21  35  48  65  94 128 157 193 246 293
#     4   7  10  19  39  67  93 114 140 178 224 270
#
# _framework density 23.753242
#
# number of rings (size 3 to 8) (size 9 to 14) (size 15 to 20)
#    0.000    3.800    0.000    3.600    0.000    1.200 
#    0.000    2.000    0.000    1.800    0.000    0.000 
#    0.000    1.600    0.000    0.000    0.000    0.000 
#
# Total GULP energy -223141.332591 kJ/mol
# GULP energy per Si atom -5578.533315 kJ/mol
# Density = 2.369918 g / cm^3
# Si number density = 23.753242 Si / 1000 Ang^3
#
#
#
# Elastic Constant Matrix: (Units=GPa)
#
#
# Indices 1 2 3 4 5 6 
#
# 1 101.9024 -7.1004 -0.0073 0.0000 0.0000 0.0000
# 2 -7.1004 88.6664 45.3693 0.0000 0.0000 0.0000
# 3 -0.0073 45.3693 227.6654 0.0000 0.0000 0.0000
# 4 0.0000 0.0000 0.0000 39.1938 0.0000 0.0000
# 5 0.0000 0.0000 0.0000 0.0000 88.9124 0.0000
# 6 0.0000 0.0000 0.0000 0.0000 0.0000 -3.2021
#
#
#
# Elastic Compliance Matrix: (Units=1/GPa)
#
#
# Indices 1 2 3 4 5 6 
#
# 1 0.009875 0.000880 -0.000175 0.000000 0.000000 0.000000
# 2 0.000880 0.012637 -0.002518 0.000000 0.000000 0.000000
# 3 -0.000175 -0.002518 0.004894 0.000000 0.000000 0.000000
# 4 0.000000 0.000000 0.000000 0.025514 0.000000 0.000000
# 5 0.000000 0.000000 0.000000 0.000000 0.011247 0.000000
# 6 0.000000 0.000000 0.000000 0.000000 0.000000 -0.312297
#
#
# Mechanical properties :
#
#
# Convention : Reuss Voigt Hill
#
# Bulk Modulus (GPa) = 42.05207 54.97303 48.51255
# Shear Modulus (GPa) = -21.13481 50.31233 14.58876
#
# Velocity S-wave (km/s) = -2.98613 4.60730 2.48095
# Velocity P-wave (km/s) = 2.41927 7.17611 5.35488
#
# Compressibility (1/GPa) = 0.02378004
#
# Stress axis : x y z
#
# Youngs Moduli (GPa) = 101.26950 79.13061 204.32083
#
# Poissons Ratio (x) = -0.06966 0.03578
# Poissons Ratio (y) = -0.08916 0.51455
# Poissons Ratio (z) = 0.01773 0.19928
#
# Static dielectric constant tensor:
#      x y z
#    x 1.886570 0.000000 0.000000 
#    y 0.000000 1.898430 0.000000 
#    z 0.000000 0.000000 1.920230 
# 
# From -- ./inp_files/66540.got.cif
#   From: 2010.05.17/outbox.cif.g08.bks.cpg/sg63_34_cif.got.tgz:66540.got - 2010.06.03 15:47:04.
