data_PCOD9473461
_publ_section_title
;
Structure prediction by ZEFSAII (Michael W. Deem and Ramdas Pophale) SiO2 
 PCOD9473461
Probable space group: C M C M
;
_chemical_formula_sum "Si O2"
_cell_formula_units_Z 92
_cell_length_a 27.610479
_cell_length_b 20.649969
_cell_length_c 9.216625
_cell_angle_alpha 90.000000
_cell_angle_beta 90.000000
_cell_angle_gamma 90.000000
_cell_volume 5254.909762
_symmetry_space_group_name_H-M "C M C M"
_symmetry_group_IT_number 63
_symmetry_cell_setting 'orthorhombic'
loop_
_space_group_symop_operation_xyz
x,y,z
-x,-y,1/2+z
x,-y,-z
-x,y,1/2-z
-x,-y,-z
x,y,1/2-z
-x,y,z
x,-y,1/2+z
1/2+x,1/2+y,z
1/2-x,1/2-y,1/2+z
1/2+x,1/2-y,-z
1/2-x,1/2+y,1/2-z
1/2-x,1/2-y,-z
1/2+x,1/2+y,1/2-z
1/2-x,1/2+y,z
1/2+x,1/2-y,1/2+z
loop_
_atom_site_type_symbol
_atom_site_label
_atom_site_fract_x
_atom_site_fract_y
_atom_site_fract_z
Si Si1 0.500000 0.899210 0.038238
Si Si2 0.057217 0.840224 0.578436
Si Si3 0.184563 0.293488 0.579768
Si Si4 0.500000 0.022730 0.250000
Si Si5 0.365346 0.430301 0.075477
Si Si6 0.591418 0.192817 0.915870
Si Si7 0.790000 0.840299 0.921852
O O1 0.500000 0.964246 0.129800
O O2 0.546991 0.855977 0.071746
O O3 0.500000 0.921581 0.874612
O O4 0.065912 0.854348 0.750000
O O5 0.090005 0.886079 0.479569
O O6 0.072486 0.765611 0.554271
O O7 0.000000 0.847757 0.551076
O O8 0.182064 0.276200 0.750000
O O9 0.134860 0.323863 0.524206
O O10 0.192254 0.228752 0.484604
O O11 0.231901 0.338162 0.560377
O O12 0.364133 0.434665 0.250000
O O13 0.369608 0.500000 0.000000
O O14 0.317540 0.394961 0.012045
O O15 0.609771 0.191834 0.750000
O O16 0.801190 0.845280 0.750000
#
# Coordination Sequence:
#
# PCOD9473461 Si02
#       7
#     8  16  16   4  16  16  16
#     4  11  22  42  64  90 121 168 204 244 302 360
#     4  10  21  38  60  90 125 159 204 255 300 359
#     4  10  21  34  58  92 123 150 199 254 303 351
#     4  10  24  42  64  86 124 162 210 246 284 380
#     4  12  25  41  63  86 119 165 209 251 310 373
#     4  11  20  35  61  92 124 163 202 249 307 355
#     4  10  20  38  59  85 121 160 196 248 304 360
#
# _framework density 17.507435999999998
#
# number of rings (size 3 to 8) (size 9 to 14) (size 15 to 20)
#    0.000    1.391    3.478    2.609    1.217    2.783 
#    0.000    0.000    3.826    0.000    0.000    0.000 
#    0.000    0.000    0.000    0.000    0.000    0.000 
#
# Total GULP energy -256279.033385 kJ/mol
# GULP energy per Si atom -5571.283334 kJ/mol
# Density = 1.746759 g / cm^3
# Si number density = 17.507436 Si / 1000 Ang^3
#
#
#
# Elastic Constant Matrix: (Units=GPa)
#
#
# Indices 1 2 3 4 5 6 
#
# 1 106.5849 32.1015 54.5469 0.0000 0.0000 0.0000
# 2 32.1015 83.5680 53.9013 0.0000 0.0000 0.0000
# 3 54.5469 53.9013 153.8609 0.0000 0.0000 0.0000
# 4 0.0000 0.0000 0.0000 29.5446 0.0000 0.0000
# 5 0.0000 0.0000 0.0000 0.0000 44.5632 0.0000
# 6 0.0000 0.0000 0.0000 0.0000 0.0000 54.8256
#
#
#
# Elastic Compliance Matrix: (Units=1/GPa)
#
#
# Indices 1 2 3 4 5 6 
#
# 1 0.011815 -0.002373 -0.003357 0.000000 0.000000 0.000000
# 2 -0.002373 0.015936 -0.004742 0.000000 0.000000 0.000000
# 3 -0.003357 -0.004742 0.009351 0.000000 0.000000 0.000000
# 4 0.000000 0.000000 0.000000 0.033847 0.000000 0.000000
# 5 0.000000 0.000000 0.000000 0.000000 0.022440 0.000000
# 6 0.000000 0.000000 0.000000 0.000000 0.000000 0.018240
#
#
# Mechanical properties :
#
#
# Convention : Reuss Voigt Hill
#
# Bulk Modulus (GPa) = 61.88874 69.45700 65.67287
# Shear Modulus (GPa) = 36.24270 39.35096 37.79683
#
# Velocity S-wave (km/s) = 4.55481 4.74610 4.65144
# Velocity P-wave (km/s) = 7.94282 8.35422 8.15112
#
# Compressibility (1/GPa) = 0.01615803
#
# Stress axis : x y z
#
# Youngs Moduli (GPa) = 84.63735 62.75028 106.94395
#
# Poissons Ratio (x) = 0.14891 0.35905
# Poissons Ratio (y) = 0.20086 0.50708
# Poissons Ratio (z) = 0.28416 0.29753
#
# Static dielectric constant tensor:
#      x y z
#    x 1.616950 0.000000 0.000000 
#    y 0.000000 1.562070 0.000000 
#    z 0.000000 0.000000 1.597800 
# 
# From -- ./inp_files/12446.got.cif
#   From: 2010.05.17/outbox.cif.g08.bks.cpg/sg63_7_cif.got.tgz:12446.got - 2010.06.03 15:47:04.
