data_PCOD9473028
_publ_section_title
;
Structure prediction by ZEFSAII (Michael W. Deem and Ramdas Pophale) SiO2 
 PCOD9473028
Probable space group: C M C M
;
_chemical_formula_sum "Si O2"
_cell_formula_units_Z 96
_cell_length_a 8.528998
_cell_length_b 20.588910
_cell_length_c 29.231018
_cell_angle_alpha 90.000000
_cell_angle_beta 90.000000
_cell_angle_gamma 90.000000
_cell_volume 5133.047795
_symmetry_space_group_name_H-M "C M C M"
_symmetry_group_IT_number 63
_symmetry_cell_setting 'orthorhombic'
loop_
_space_group_symop_operation_xyz
x,y,z
-x,-y,1/2+z
x,-y,-z
-x,y,1/2-z
-x,-y,-z
x,y,1/2-z
-x,y,z
x,-y,1/2+z
1/2+x,1/2+y,z
1/2-x,1/2-y,1/2+z
1/2+x,1/2-y,-z
1/2-x,1/2+y,1/2-z
1/2-x,1/2-y,-z
1/2+x,1/2+y,1/2-z
1/2-x,1/2+y,z
1/2+x,1/2-y,1/2+z
loop_
_atom_site_type_symbol
_atom_site_label
_atom_site_fract_x
_atom_site_fract_y
_atom_site_fract_z
Si Si1 0.189634 0.498037 0.802961
Si Si2 0.691468 0.431386 0.520360
Si Si3 0.812421 0.104423 0.376545
Si Si4 0.189317 0.194880 0.533714
Si Si5 0.184062 0.643856 0.695281
Si Si6 0.313731 0.750583 0.869549
O O1 0.239111 0.486542 0.750000
O O2 0.248344 0.444118 0.837992
O O3 0.240692 0.571052 0.817191
O O4 0.000000 0.498435 0.802909
O O5 0.743566 0.500000 0.500000
O O6 0.500000 0.431713 0.521066
O O7 0.742353 0.416500 0.572383
O O8 0.742194 0.373835 0.486518
O O9 0.762216 0.178453 0.367122
O O10 0.000000 0.100906 0.376235
O O11 0.250000 0.250000 0.500000
O O12 0.241516 0.213625 0.584487
O O13 0.000000 0.194673 0.533448
O O14 0.195798 0.647980 0.750000
O O15 0.273006 0.702551 0.671616
O O16 0.000000 0.648743 0.683119
O O17 0.500000 0.759833 0.872353
#
# Coordination Sequence:
#
# PCOD9473028 Si02
#       6
#    16  16  16  16  16  16
#     4   9  20  40  62  83 113 149 182 229 290 341
#     4   9  19  35  55  80 112 147 183 228 279 329
#     4  11  22  36  59  85 114 152 192 233 279 335
#     4  10  20  36  57  80 112 150 186 226 277 334
#     4   9  20  40  63  85 112 148 188 231 284 345
#     4  11  23  36  57  86 117 151 190 237 283 331
#
# _framework density 18.702338999999998
#
# number of rings (size 3 to 8) (size 9 to 14) (size 15 to 20)
#    0.000    2.167    1.667    2.000    2.333    2.667 
#    0.000    1.667    0.000    2.500    0.000    0.000 
#    0.000    0.000    0.000    0.000    0.000    0.000 
#
# Total GULP energy -267892.479244 kJ/mol
# GULP energy per Si atom -5581.093318 kJ/mol
# Density = 1.865977 g / cm^3
# Si number density = 18.702339 Si / 1000 Ang^3
#
#
#
# Elastic Constant Matrix: (Units=GPa)
#
#
# Indices 1 2 3 4 5 6 
#
# 1 13.1516 19.8502 14.3844 0.0000 0.0000 0.0000
# 2 19.8502 177.6095 64.1686 0.0000 0.0000 0.0000
# 3 14.3844 64.1686 56.2041 0.0000 0.0000 0.0000
# 4 0.0000 0.0000 0.0000 39.2222 0.0000 0.0000
# 5 0.0000 0.0000 0.0000 0.0000 20.5334 0.0000
# 6 0.0000 0.0000 0.0000 0.0000 0.0000 20.7923
#
#
#
# Elastic Compliance Matrix: (Units=1/GPa)
#
#
# Indices 1 2 3 4 5 6 
#
# 1 0.106865 -0.003510 -0.023342 0.000000 0.000000 0.000000
# 2 -0.003510 0.009699 -0.010175 0.000000 0.000000 0.000000
# 3 -0.023342 -0.010175 0.035383 0.000000 0.000000 0.000000
# 4 0.000000 0.000000 0.000000 0.025496 0.000000 0.000000
# 5 0.000000 0.000000 0.000000 0.000000 0.048701 0.000000
# 6 0.000000 0.000000 0.000000 0.000000 0.000000 0.048095
#
#
# Mechanical properties :
#
#
# Convention : Reuss Voigt Hill
#
# Bulk Modulus (GPa) = 12.83835 49.30796 31.07315
# Shear Modulus (GPa) = 13.35985 26.01372 19.68679
#
# Velocity S-wave (km/s) = 2.67562 3.73357 3.24796
# Velocity P-wave (km/s) = 4.05274 6.70879 5.54223
#
# Compressibility (1/GPa) = 0.07789163
#
# Stress axis : x y z
#
# Youngs Moduli (GPa) = 9.35764 103.10718 28.26229
#
# Poissons Ratio (x) = 0.36192 0.65971
# Poissons Ratio (y) = 0.03285 0.28756
# Poissons Ratio (z) = 0.21843 1.04908
#
# Static dielectric constant tensor:
#      x y z
#    x 1.639910 0.000000 0.000000 
#    y 0.000000 1.638810 0.000000 
#    z 0.000000 0.000000 1.550350 
# 
# From -- ./inp_files/66961.got.cif
#   From: 2010.05.17/outbox.cif.g08.bks.cpg/sg63_34_cif.got.tgz:66961.got - 2010.06.03 15:47:04.
