data_PCOD9473496
_publ_section_title
;
Structure prediction by ZEFSAII (Michael W. Deem and Ramdas Pophale) SiO2 
 PCOD9473496
Probable space group: C M C M
;
_chemical_formula_sum "Si O2"
_cell_formula_units_Z 116
_cell_length_a 7.542431
_cell_length_b 26.045382
_cell_length_c 25.044183
_cell_angle_alpha 90.000000
_cell_angle_beta 90.000000
_cell_angle_gamma 90.000000
_cell_volume 4919.816966
_symmetry_space_group_name_H-M "C M C M"
_symmetry_group_IT_number 63
_symmetry_cell_setting 'orthorhombic'
loop_
_space_group_symop_operation_xyz
x,y,z
-x,-y,1/2+z
x,-y,-z
-x,y,1/2-z
-x,-y,-z
x,y,1/2-z
-x,y,z
x,-y,1/2+z
1/2+x,1/2+y,z
1/2-x,1/2-y,1/2+z
1/2+x,1/2-y,-z
1/2-x,1/2+y,1/2-z
1/2-x,1/2-y,-z
1/2+x,1/2+y,1/2-z
1/2-x,1/2+y,z
1/2+x,1/2-y,1/2+z
loop_
_atom_site_type_symbol
_atom_site_label
_atom_site_fract_x
_atom_site_fract_y
_atom_site_fract_z
Si Si1 0.213829 0.238692 0.191030
Si Si2 0.205817 0.054425 0.188980
Si Si3 0.299138 0.509544 0.078778
Si Si4 0.500000 0.000000 0.000000
Si Si5 0.215314 0.357657 0.193028
Si Si6 0.299389 0.850370 0.617905
Si Si7 0.787351 0.689145 0.006323
Si Si8 0.716573 0.104861 0.579201
O O1 0.258891 0.218619 0.250000
O O2 0.266079 0.298015 0.189046
O O3 0.298180 0.204784 0.145989
O O4 0.000000 0.236512 0.185312
O O5 0.281336 0.053264 0.250000
O O6 0.216138 0.110357 0.160513
O O7 0.000000 0.041194 0.194807
O O8 0.269372 0.018368 0.139857
O O9 0.500000 0.530387 0.074177
O O10 0.154636 0.528628 0.036918
O O11 0.300634 0.449208 0.066222
O O12 0.276592 0.378705 0.250000
O O13 0.269842 0.385228 0.139972
O O14 0.000000 0.358377 0.193339
O O15 0.500000 0.868869 0.610849
O O16 0.216876 0.838457 0.560097
O O17 0.000000 0.686237 0.009783
O O18 0.750000 0.750000 0.000000
O O19 0.734059 0.653835 0.956323
O O20 0.500000 0.097475 0.574629
#
# Coordination Sequence:
#
# PCOD9473496 Si02
#       8
#    16  16  16   4  16  16  16  16
#     4   9  17  32  54  80 112 155 205 255 306 370
#     4  10  24  46  68  96 133 171 222 286 346 414
#     4  11  26  45  72 102 131 177 223 277 341 407
#     4  12  26  48  74  98 140 168 226 282 336 398
#     4   8  15  29  54  85 115 154 207 257 312 382
#     4  11  23  35  55  87 122 164 213 267 331 400
#     4  10  23  39  58  86 126 171 219 272 327 391
#     4  10  20  38  61  89 125 165 207 264 324 386
#
# _framework density 23.578112000000001
#
# number of rings (size 3 to 8) (size 9 to 14) (size 15 to 20)
#    0.000    2.069    0.690    2.690    2.897    5.517 
#    0.000    0.690    0.000    0.828    0.000    0.000 
#    0.000    0.000    0.000    0.000    0.000    0.000 
#
# Total GULP energy -323238.379852 kJ/mol
# GULP energy per Si atom -5573.075515 kJ/mol
# Density = 2.352445 g / cm^3
# Si number density = 23.578112 Si / 1000 Ang^3
#
#
#
# Elastic Constant Matrix: (Units=GPa)
#
#
# Indices 1 2 3 4 5 6 
#
# 1 78.5389 6.9614 41.1025 0.0000 0.0000 0.0000
# 2 6.9614 51.0432 26.0668 0.0000 0.0000 0.0000
# 3 41.1025 26.0668 172.4721 0.0000 0.0000 0.0000
# 4 0.0000 0.0000 0.0000 30.2399 0.0000 0.0000
# 5 0.0000 0.0000 0.0000 0.0000 23.6369 0.0000
# 6 0.0000 0.0000 0.0000 0.0000 0.0000 13.9527
#
#
#
# Elastic Compliance Matrix: (Units=1/GPa)
#
#
# Indices 1 2 3 4 5 6 
#
# 1 0.014549 -0.000231 -0.003432 0.000000 0.000000 0.000000
# 2 -0.000231 0.021234 -0.003154 0.000000 0.000000 0.000000
# 3 -0.003432 -0.003154 0.007093 0.000000 0.000000 0.000000
# 4 0.000000 0.000000 0.000000 0.033069 0.000000 0.000000
# 5 0.000000 0.000000 0.000000 0.000000 0.042307 0.000000
# 6 0.000000 0.000000 0.000000 0.000000 0.000000 0.071671
#
#
# Mechanical properties :
#
#
# Convention : Reuss Voigt Hill
#
# Bulk Modulus (GPa) = 34.19974 50.03507 42.11741
# Shear Modulus (GPa) = 23.44069 28.76078 26.10074
#
# Velocity S-wave (km/s) = 3.15647 3.49636 3.33076
# Velocity P-wave (km/s) = 5.27454 6.12915 5.71783
#
# Compressibility (1/GPa) = 0.02923999
#
# Stress axis : x y z
#
# Youngs Moduli (GPa) = 68.73168 47.09539 140.99014
#
# Poissons Ratio (x) = 0.01090 0.48392
# Poissons Ratio (y) = 0.01591 0.44468
# Poissons Ratio (z) = 0.23591 0.14854
#
# Static dielectric constant tensor:
#      x y z
#    x 1.934030 0.000000 0.000000 
#    y 0.000000 1.875580 0.000000 
#    z 0.000000 0.000000 1.968620 
# 
# From -- ./inp_files/60447.got.cif
#   From: 2010.05.17/outbox.cif.g08.bks.cpg/sg63_31_cif.got.tgz:60447.got - 2010.06.03 15:47:04.
