data_PCOD9473653
_publ_section_title
;
Structure prediction by ZEFSAII (Michael W. Deem and Ramdas Pophale) SiO2 
 PCOD9473653
Probable space group: C M C M
;
_chemical_formula_sum "Si O2"
_cell_formula_units_Z 104
_cell_length_a 20.248687
_cell_length_b 14.093410
_cell_length_c 18.160909
_cell_angle_alpha 90.000000
_cell_angle_beta 90.000000
_cell_angle_gamma 90.000000
_cell_volume 5182.633953
_symmetry_space_group_name_H-M "C M C M"
_symmetry_group_IT_number 63
_symmetry_cell_setting 'orthorhombic'
loop_
_space_group_symop_operation_xyz
x,y,z
-x,-y,1/2+z
x,-y,-z
-x,y,1/2-z
-x,-y,-z
x,y,1/2-z
-x,y,z
x,-y,1/2+z
1/2+x,1/2+y,z
1/2-x,1/2-y,1/2+z
1/2+x,1/2-y,-z
1/2-x,1/2+y,1/2-z
1/2-x,1/2-y,-z
1/2+x,1/2+y,1/2-z
1/2-x,1/2+y,z
1/2+x,1/2-y,1/2+z
loop_
_atom_site_type_symbol
_atom_site_label
_atom_site_fract_x
_atom_site_fract_y
_atom_site_fract_z
Si Si1 0.099469 0.099837 0.468105
Si Si2 0.873638 0.396305 0.074502
Si Si3 0.500000 0.674043 0.581186
Si Si4 0.229584 0.152941 0.959032
Si Si5 0.921933 0.782576 0.834263
Si Si6 0.370252 0.283814 0.335853
Si Si7 0.922352 0.599773 0.407491
O O1 0.176263 0.106020 0.487097
O O2 0.088495 0.123204 0.383228
O O3 0.057683 0.175052 0.515513
O O4 0.074265 0.000000 0.500000
O O5 0.795656 0.404227 0.059104
O O6 0.886494 0.303786 0.123508
O O7 0.904529 0.491142 0.109688
O O8 0.906824 0.387498 0.993986
O O9 0.440152 0.669074 0.642127
O O10 0.188735 0.174505 0.885013
O O11 0.250000 0.250000 0.000000
O O12 0.899733 0.792029 0.750000
O O13 0.000000 0.761835 0.834212
O O14 0.357033 0.291754 0.250000
O O15 0.380911 0.174236 0.360565
O O16 0.000000 0.622973 0.396494
#
# Coordination Sequence:
#
# PCOD9473653 Si02
#       7
#    16  16   8  16  16  16  16
#     4  11  23  39  68  93 119 161 220 262 311 377
#     4  11  22  40  62  92 128 168 214 256 312 378
#     4  10  20  40  65  89 120 163 204 262 322 385
#     4  11  22  40  65  89 121 172 215 252 308 395
#     4  11  23  39  62  92 130 166 204 258 325 379
#     4  11  23  39  62  94 128 162 207 267 325 375
#     4  11  22  36  67 101 125 161 217 276 314 384
#
# _framework density 20.067017
#
# number of rings (size 3 to 8) (size 9 to 14) (size 15 to 20)
#    0.000    1.077    4.615    3.231    2.154    1.231 
#    0.000    3.846    0.000    0.000    0.000    0.000 
#    0.000    0.000    0.000    0.000    0.000    0.000 
#
# Total GULP energy -289495.451381 kJ/mol
# GULP energy per Si atom -5567.220219 kJ/mol
# Density = 2.002134 g / cm^3
# Si number density = 20.067017 Si / 1000 Ang^3
#
#
#
# Elastic Constant Matrix: (Units=GPa)
#
#
# Indices 1 2 3 4 5 6 
#
# 1 79.2975 2.7099 12.5107 0.0000 0.0000 0.0000
# 2 2.7099 43.8832 16.3231 0.0000 0.0000 0.0000
# 3 12.5107 16.3231 115.3750 0.0000 0.0000 0.0000
# 4 0.0000 0.0000 0.0000 16.6300 0.0000 0.0000
# 5 0.0000 0.0000 0.0000 0.0000 16.7307 0.0000
# 6 0.0000 0.0000 0.0000 0.0000 0.0000 6.6294
#
#
#
# Elastic Compliance Matrix: (Units=1/GPa)
#
#
# Indices 1 2 3 4 5 6 
#
# 1 0.012834 -0.000290 -0.001351 0.000000 0.000000 0.000000
# 2 -0.000290 0.024060 -0.003373 0.000000 0.000000 0.000000
# 3 -0.001351 -0.003373 0.009291 0.000000 0.000000 0.000000
# 4 0.000000 0.000000 0.000000 0.060132 0.000000 0.000000
# 5 0.000000 0.000000 0.000000 0.000000 0.059770 0.000000
# 6 0.000000 0.000000 0.000000 0.000000 0.000000 0.150844
#
#
# Mechanical properties :
#
#
# Convention : Reuss Voigt Hill
#
# Bulk Modulus (GPa) = 27.65612 33.51590 30.58601
# Shear Modulus (GPa) = 14.74880 21.79882 18.27381
#
# Velocity S-wave (km/s) = 2.71399 3.29948 3.02095
# Velocity P-wave (km/s) = 4.86135 5.59050 5.23863
#
# Compressibility (1/GPa) = 0.03615836
#
# Stress axis : x y z
#
# Youngs Moduli (GPa) = 77.91969 41.56245 107.63132
#
# Poissons Ratio (x) = 0.01206 0.14536
# Poissons Ratio (y) = 0.02261 0.36299
# Poissons Ratio (z) = 0.10524 0.14017
#
# Static dielectric constant tensor:
#      x y z
#    x 1.656580 0.000000 0.000000 
#    y 0.000000 1.489080 0.000000 
#    z 0.000000 0.000000 1.703490 
# 
# From -- ./inp_files/47129.got.cif
#   From: 2010.05.17/outbox.cif.g08.bks.cpg/sg63_24_cif.got.tgz:47129.got - 2010.06.03 15:47:04.
