data_PCOD9473544
_publ_section_title
;
Structure prediction by ZEFSAII (Michael W. Deem and Ramdas Pophale) SiO2 
 PCOD9473544
Probable space group: C M C M
;
_chemical_formula_sum "Si O2"
_cell_formula_units_Z 68
_cell_length_a 17.870145
_cell_length_b 22.263226
_cell_length_c 9.330514
_cell_angle_alpha 90.000000
_cell_angle_beta 90.000000
_cell_angle_gamma 90.000000
_cell_volume 3712.117720
_symmetry_space_group_name_H-M "C M C M"
_symmetry_group_IT_number 63
_symmetry_cell_setting 'orthorhombic'
loop_
_space_group_symop_operation_xyz
x,y,z
-x,-y,1/2+z
x,-y,-z
-x,y,1/2-z
-x,-y,-z
x,y,1/2-z
-x,y,z
x,-y,1/2+z
1/2+x,1/2+y,z
1/2-x,1/2-y,1/2+z
1/2+x,1/2-y,-z
1/2-x,1/2+y,1/2-z
1/2-x,1/2-y,-z
1/2+x,1/2+y,1/2-z
1/2-x,1/2+y,z
1/2+x,1/2-y,1/2+z
loop_
_atom_site_type_symbol
_atom_site_label
_atom_site_fract_x
_atom_site_fract_y
_atom_site_fract_z
Si Si1 0.912785 0.214424 0.077310
Si Si2 0.303503 0.622706 0.919982
Si Si3 0.880727 0.000000 0.500000
Si Si4 0.000000 0.973258 0.750000
Si Si5 0.500000 0.063866 0.576041
Si Si6 0.865046 0.651013 0.923700
O O1 0.905613 0.209566 0.250000
O O2 0.889323 0.281878 0.033593
O O3 0.000000 0.203978 0.042498
O O4 0.859926 0.166834 0.001253
O O5 0.307083 0.635077 0.750000
O O6 0.329979 0.555001 0.946800
O O7 0.218601 0.634625 0.970267
O O8 0.934550 0.023687 0.374505
O O9 0.500000 0.057561 0.750000
O O10 0.572850 0.102599 0.533242
O O11 0.500000 0.000000 0.500000
O O12 0.865342 0.651020 0.750000
#
# Coordination Sequence:
#
# PCOD9473544 Si02
#       6
#    16  16   8   4   8  16
#     4  10  21  37  63  88 112 154 201 237 287 354
#     4  11  24  38  58  87 121 153 192 245 297 338
#     4  11  24  40  60  87 118 158 194 243 292 348
#     4  10  24  42  60  74 122 154 200 234 286 346
#     4  10  20  38  64  88 117 156 194 237 286 347
#     4   9  19  40  62  85 118 154 195 239 290 350
#
# _framework density 18.318386
#
# number of rings (size 3 to 8) (size 9 to 14) (size 15 to 20)
#    0.000    1.882    2.353    0.706    6.588    0.471 
#    0.000    2.353    0.000    0.000    0.000    0.000 
#    0.000    0.000    0.000    0.000    0.000    0.000 
#
# Total GULP energy -189306.041758 kJ/mol
# GULP energy per Si atom -5567.824758 kJ/mol
# Density = 1.827669 g / cm^3
# Si number density = 18.318386 Si / 1000 Ang^3
#
#
#
# Elastic Constant Matrix: (Units=GPa)
#
#
# Indices 1 2 3 4 5 6 
#
# 1 200.7438 92.9196 38.9181 0.0000 0.0000 0.0000
# 2 92.9196 137.5752 14.7641 0.0000 0.0000 0.0000
# 3 38.9181 14.7641 42.7101 0.0000 0.0000 0.0000
# 4 0.0000 0.0000 0.0000 21.4837 0.0000 0.0000
# 5 0.0000 0.0000 0.0000 0.0000 25.4559 0.0000
# 6 0.0000 0.0000 0.0000 0.0000 0.0000 3.0263
#
#
#
# Elastic Compliance Matrix: (Units=1/GPa)
#
#
# Indices 1 2 3 4 5 6 
#
# 1 0.008503 -0.005100 -0.005985 0.000000 0.000000 0.000000
# 2 -0.005100 0.010608 0.000981 0.000000 0.000000 0.000000
# 3 -0.005985 0.000981 0.028528 0.000000 0.000000 0.000000
# 4 0.000000 0.000000 0.000000 0.046547 0.000000 0.000000
# 5 0.000000 0.000000 0.000000 0.000000 0.039284 0.000000
# 6 0.000000 0.000000 0.000000 0.000000 0.000000 0.330438
#
#
# Mechanical properties :
#
#
# Convention : Reuss Voigt Hill
#
# Bulk Modulus (GPa) = 36.45656 74.91476 55.68566
# Shear Modulus (GPa) = 10.13664 25.62164 17.87914
#
# Velocity S-wave (km/s) = 2.35491 3.74396 3.12752
# Velocity P-wave (km/s) = 5.22867 7.72492 6.59596
#
# Compressibility (1/GPa) = 0.02742990
#
# Stress axis : x y z
#
# Youngs Moduli (GPa) = 117.61112 94.26448 35.05334
#
# Poissons Ratio (x) = 0.48080 0.20978
# Poissons Ratio (y) = 0.59987 -0.03437
# Poissons Ratio (z) = 0.70385 -0.09243
#
# Static dielectric constant tensor:
#      x y z
#    x 1.612050 0.000000 0.000000 
#    y 0.000000 1.619620 0.000000 
#    z 0.000000 0.000000 1.616120 
# 
# From -- ./inp_files/5907.got.cif
#   From: 2010.05.17/outbox.cif.g08.bks.cpg/sg63_3_cif.got.tgz:5907.got - 2010.06.03 15:47:04.
