data_PCOD9473731
_publ_section_title
;
Structure prediction by ZEFSAII (Michael W. Deem and Ramdas Pophale) SiO2 
 PCOD9473731
Probable space group: C M C M
;
_chemical_formula_sum "Si O2"
_cell_formula_units_Z 72
_cell_length_a 18.248404
_cell_length_b 13.638752
_cell_length_c 15.318315
_cell_angle_alpha 90.000000
_cell_angle_beta 90.000000
_cell_angle_gamma 90.000000
_cell_volume 3812.505822
_symmetry_space_group_name_H-M "C M C M"
_symmetry_group_IT_number 63
_symmetry_cell_setting 'orthorhombic'
loop_
_space_group_symop_operation_xyz
x,y,z
-x,-y,1/2+z
x,-y,-z
-x,y,1/2-z
-x,-y,-z
x,y,1/2-z
-x,y,z
x,-y,1/2+z
1/2+x,1/2+y,z
1/2-x,1/2-y,1/2+z
1/2+x,1/2-y,-z
1/2-x,1/2+y,1/2-z
1/2-x,1/2-y,-z
1/2+x,1/2+y,1/2-z
1/2-x,1/2+y,z
1/2+x,1/2-y,1/2+z
loop_
_atom_site_type_symbol
_atom_site_label
_atom_site_fract_x
_atom_site_fract_y
_atom_site_fract_z
Si Si1 0.000000 0.661524 0.936138
Si Si2 0.278330 0.316700 0.750000
Si Si3 0.369996 0.941392 0.750000
Si Si4 0.348475 0.729175 0.071122
Si Si5 0.000000 0.554461 0.377894
Si Si6 0.730899 0.405116 0.442989
Si Si7 0.247923 0.589259 0.750000
O O1 0.929224 0.728232 0.923922
O O2 0.000000 0.564037 0.877135
O O3 0.000000 0.610095 0.031060
O O4 0.205795 0.382378 0.750000
O O5 0.324034 0.323910 0.839267
O O6 0.250084 0.205637 0.750000
O O7 0.423825 0.919527 0.830186
O O8 0.336414 0.051120 0.750000
O O9 0.296462 0.825193 0.058977
O O10 0.333683 0.654392 0.991460
O O11 0.750707 0.500000 0.500000
O O12 0.717579 0.438782 0.343234
#
# Coordination Sequence:
#
# PCOD9473731 Si02
#       7
#     8   8   8  16   8  16   8
#     4  11  24  38  57  92 127 167 199 248 331 378
#     4  10  21  38  61  87 119 164 211 257 302 371
#     4  11  22  40  59  93 122 162 207 252 324 372
#     4  10  23  37  60  89 123 166 210 262 317 377
#     4  10  24  36  60  88 131 161 193 257 318 396
#     4  10  21  37  60  88 119 160 213 266 307 370
#     4  10  21  33  58  84 119 158 200 254 306 364
#
# _framework density 18.885217000000001
#
# number of rings (size 3 to 8) (size 9 to 14) (size 15 to 20)
#    0.000    1.778    0.000    4.000   15.556    1.333 
#    0.000    0.556    0.000    0.000    0.000    0.000 
#    0.000    0.000    0.000    0.000    0.000    0.000 
#
# Total GULP energy -200770.967929 kJ/mol
# GULP energy per Si atom -5576.971331 kJ/mol
# Density = 1.884223 g / cm^3
# Si number density = 18.885217 Si / 1000 Ang^3
#
#
#
# Elastic Constant Matrix: (Units=GPa)
#
#
# Indices 1 2 3 4 5 6 
#
# 1 136.1553 41.1615 43.6843 0.0000 0.0000 0.0000
# 2 41.1615 71.6987 38.7414 0.0000 0.0000 0.0000
# 3 43.6843 38.7414 138.7426 0.0000 0.0000 0.0000
# 4 0.0000 0.0000 0.0000 26.4350 0.0000 0.0000
# 5 0.0000 0.0000 0.0000 0.0000 11.9756 0.0000
# 6 0.0000 0.0000 0.0000 0.0000 0.0000 37.2198
#
#
#
# Elastic Compliance Matrix: (Units=1/GPa)
#
#
# Indices 1 2 3 4 5 6 
#
# 1 0.009206 -0.004380 -0.001676 0.000000 0.000000 0.000000
# 2 -0.004380 0.018509 -0.003789 0.000000 0.000000 0.000000
# 3 -0.001676 -0.003789 0.008793 0.000000 0.000000 0.000000
# 4 0.000000 0.000000 0.000000 0.037829 0.000000 0.000000
# 5 0.000000 0.000000 0.000000 0.000000 0.083503 0.000000
# 6 0.000000 0.000000 0.000000 0.000000 0.000000 0.026867
#
#
# Mechanical properties :
#
#
# Convention : Reuss Voigt Hill
#
# Bulk Modulus (GPa) = 59.45626 65.97456 62.71541
# Shear Modulus (GPa) = 23.80913 29.99339 26.90126
#
# Velocity S-wave (km/s) = 3.55453 3.98954 3.77830
# Velocity P-wave (km/s) = 6.95683 7.49882 7.23290
#
# Compressibility (1/GPa) = 0.01681909
#
# Stress axis : x y z
#
# Youngs Moduli (GPa) = 108.62188 54.02734 113.72291
#
# Poissons Ratio (x) = 0.23663 0.19056
# Poissons Ratio (y) = 0.47574 0.43093
# Poissons Ratio (z) = 0.18202 0.20473
#
# Static dielectric constant tensor:
#      x y z
#    x 1.604940 0.000000 0.000000 
#    y 0.000000 1.665790 0.000000 
#    z 0.000000 0.000000 1.737130 
# 
# From -- ./inp_files/33729.got.cif
#   From: 2010.05.17/outbox.cif.g08.bks.cpg/sg63_17_cif.got.tgz:33729.got - 2010.06.03 15:47:04.
