data_PCOD9473005
_publ_section_title
;
Structure prediction by ZEFSAII (Michael W. Deem and Ramdas Pophale) SiO2 
 PCOD9473005
Probable space group: C M C M
;
_chemical_formula_sum "Si O2"
_cell_formula_units_Z 72
_cell_length_a 11.017790
_cell_length_b 32.419800
_cell_length_c 11.089560
_cell_angle_alpha 90.000000
_cell_angle_beta 90.000000
_cell_angle_gamma 90.000000
_cell_volume 3961.130374
_symmetry_space_group_name_H-M "C M C M"
_symmetry_group_IT_number 63
_symmetry_cell_setting 'orthorhombic'
loop_
_space_group_symop_operation_xyz
x,y,z
-x,-y,1/2+z
x,-y,-z
-x,y,1/2-z
-x,-y,-z
x,y,1/2-z
-x,y,z
x,-y,1/2+z
1/2+x,1/2+y,z
1/2-x,1/2-y,1/2+z
1/2+x,1/2-y,-z
1/2-x,1/2+y,1/2-z
1/2-x,1/2-y,-z
1/2+x,1/2+y,1/2-z
1/2-x,1/2+y,z
1/2+x,1/2-y,1/2+z
loop_
_atom_site_type_symbol
_atom_site_label
_atom_site_fract_x
_atom_site_fract_y
_atom_site_fract_z
Si Si1 0.641058 0.049416 0.998907
Si Si2 0.143123 0.594882 0.250000
Si Si3 0.136590 0.903871 0.109151
Si Si4 0.137967 0.774041 0.250000
Si Si5 0.765031 0.311697 0.750000
Si Si6 0.358624 0.686759 0.505963
O O1 0.500000 0.061003 0.967091
O O2 0.669190 0.068413 0.130601
O O3 0.748968 0.066940 0.916446
O O4 0.645166 0.000000 0.000000
O O5 0.200173 0.640186 0.250000
O O6 0.000000 0.602136 0.250000
O O7 0.137495 0.892507 0.250000
O O8 0.151110 0.862001 0.033350
O O9 0.000000 0.920946 0.083015
O O10 0.136324 0.724669 0.250000
O O11 0.194620 0.790503 0.124692
O O12 0.000000 0.790740 0.250000
O O13 0.696393 0.304458 0.624034
O O14 0.500000 0.698089 0.499284
#
# Coordination Sequence:
#
# PCOD9473005 Si02
#       6
#    16   8  16   8   8  16
#     4  10  22  39  60  84 116 155 193 239 296 354
#     4  10  21  37  54  83 116 147 188 238 291 352
#     4  10  20  37  61  85 114 153 194 238 289 346
#     4  10  21  37  56  79 112 155 191 230 292 357
#     4  12  20  34  58  84 110 148 188 246 285 347
#     4  10  20  36  56  81 113 148 190 236 288 351
#
# _framework density 18.176628999999998
#
# number of rings (size 3 to 8) (size 9 to 14) (size 15 to 20)
#    0.000    1.778    3.333    1.333    1.556    0.889 
#    0.000    0.556    0.000    1.333    0.000    0.000 
#    0.000    0.000    0.000    0.000    0.000    0.000 
#
# Total GULP energy -200483.649005 kJ/mol
# GULP energy per Si atom -5568.990250 kJ/mol
# Density = 1.813526 g / cm^3
# Si number density = 18.176629 Si / 1000 Ang^3
#
#
#
# Elastic Constant Matrix: (Units=GPa)
#
#
# Indices 1 2 3 4 5 6 
#
# 1 70.6598 27.9316 43.2245 0.0000 0.0000 0.0000
# 2 27.9316 79.1884 31.0154 0.0000 0.0000 0.0000
# 3 43.2245 31.0154 131.7609 0.0000 0.0000 0.0000
# 4 0.0000 0.0000 0.0000 21.0601 0.0000 0.0000
# 5 0.0000 0.0000 0.0000 0.0000 24.9127 0.0000
# 6 0.0000 0.0000 0.0000 0.0000 0.0000 25.1674
#
#
#
# Elastic Compliance Matrix: (Units=1/GPa)
#
#
# Indices 1 2 3 4 5 6 
#
# 1 0.019196 -0.004742 -0.005181 0.000000 0.000000 0.000000
# 2 -0.004742 0.015082 -0.001995 0.000000 0.000000 0.000000
# 3 -0.005181 -0.001995 0.009759 0.000000 0.000000 0.000000
# 4 0.000000 0.000000 0.000000 0.047483 0.000000 0.000000
# 5 0.000000 0.000000 0.000000 0.000000 0.040140 0.000000
# 6 0.000000 0.000000 0.000000 0.000000 0.000000 0.039734
#
#
# Mechanical properties :
#
#
# Convention : Reuss Voigt Hill
#
# Bulk Modulus (GPa) = 49.50058 53.99466 51.74762
# Shear Modulus (GPa) = 24.75703 26.19055 25.47379
#
# Velocity S-wave (km/s) = 3.69457 3.80003 3.74767
# Velocity P-wave (km/s) = 6.74477 7.00169 6.87443
#
# Compressibility (1/GPa) = 0.02020178
#
# Stress axis : x y z
#
# Youngs Moduli (GPa) = 52.09379 66.30497 102.47234
#
# Poissons Ratio (x) = 0.31439 0.53093
# Poissons Ratio (y) = 0.24701 0.20439
# Poissons Ratio (z) = 0.26991 0.13225
#
# Static dielectric constant tensor:
#      x y z
#    x 1.627680 0.000000 0.000000 
#    y 0.000000 1.614460 0.000000 
#    z 0.000000 0.000000 1.652460 
# 
# From -- ./inp_files/17656.got.cif
#   From: 2010.05.17/outbox.cif.g08.bks.cpg/sg63_9_cif.got.tgz:17656.got - 2010.06.03 15:47:04.
