data_PCOD9473868
_publ_section_title
;
Structure prediction by ZEFSAII (Michael W. Deem and Ramdas Pophale) SiO2 
 PCOD9473868
Probable space group: C M C M
;
_chemical_formula_sum "Si O2"
_cell_formula_units_Z 64
_cell_length_a 9.672753
_cell_length_b 10.299179
_cell_length_c 25.926157
_cell_angle_alpha 90.000000
_cell_angle_beta 90.000000
_cell_angle_gamma 90.000000
_cell_volume 2582.800435
_symmetry_space_group_name_H-M "C M C M"
_symmetry_group_IT_number 63
_symmetry_cell_setting 'orthorhombic'
loop_
_space_group_symop_operation_xyz
x,y,z
-x,-y,1/2+z
x,-y,-z
-x,y,1/2-z
-x,-y,-z
x,y,1/2-z
-x,y,z
x,-y,1/2+z
1/2+x,1/2+y,z
1/2-x,1/2-y,1/2+z
1/2+x,1/2-y,-z
1/2-x,1/2+y,1/2-z
1/2-x,1/2-y,-z
1/2+x,1/2+y,1/2-z
1/2-x,1/2+y,z
1/2+x,1/2-y,1/2+z
loop_
_atom_site_type_symbol
_atom_site_label
_atom_site_fract_x
_atom_site_fract_y
_atom_site_fract_z
Si Si1 0.000000 0.614058 0.691045
Si Si2 0.700550 0.354406 0.693081
Si Si3 0.500000 0.944990 0.072923
Si Si4 0.247494 0.500000 0.500000
Si Si5 0.500000 0.512211 0.874200
Si Si6 0.500000 0.654842 0.025842
Si Si7 0.500000 0.757402 0.808578
O O1 0.131443 0.712426 0.689511
O O2 0.000000 0.550295 0.634546
O O3 0.000000 0.557558 0.750000
O O4 0.666828 0.405541 0.750000
O O5 0.632714 0.447211 0.652194
O O6 0.861997 0.339748 0.688315
O O7 0.360207 0.005123 0.047940
O O8 0.500000 0.794858 0.052636
O O9 0.353231 0.376617 0.498228
O O10 0.500000 0.458612 0.931120
O O11 0.500000 0.659259 0.856402
O O12 0.500000 0.697479 0.750000
#
# Coordination Sequence:
#
# PCOD9473868 Si02
#       7
#     8  16   8   8   8   8   8
#     4   9  18  35  64  93 127 170 205 253 321 380
#     4   9  18  36  56  85 124 162 209 255 305 376
#     4  11  21  45  71  88 135 169 206 268 325 364
#     4  10  26  42  66 102 120 166 224 262 310 388
#     4  11  21  35  63  87 119 166 203 258 322 377
#     4  11  23  42  66  93 127 158 215 266 318 367
#     4  10  21  35  57  87 122 166 211 255 308 375
#
# _framework density 24.779305000000001
#
# number of rings (size 3 to 8) (size 9 to 14) (size 15 to 20)
#    0.000    2.000    2.500    2.625    3.500    0.000 
#    0.000    5.000    0.000    9.000    0.000    0.000 
#    0.000    0.000    0.000    0.000    0.000    0.000 
#
# Total GULP energy -178971.246385 kJ/mol
# GULP energy per Si atom -5592.851450 kJ/mol
# Density = 2.472291 g / cm^3
# Si number density = 24.779305 Si / 1000 Ang^3
#
#
#
# Elastic Constant Matrix: (Units=GPa)
#
#
# Indices 1 2 3 4 5 6 
#
# 1 201.4426 25.0315 46.0367 0.0000 0.0000 0.0000
# 2 25.0315 46.9023 11.1078 0.0000 0.0000 0.0000
# 3 46.0367 11.1078 84.6822 0.0000 0.0000 0.0000
# 4 0.0000 0.0000 0.0000 33.2074 0.0000 0.0000
# 5 0.0000 0.0000 0.0000 0.0000 30.4903 0.0000
# 6 0.0000 0.0000 0.0000 0.0000 0.0000 13.4083
#
#
#
# Elastic Compliance Matrix: (Units=1/GPa)
#
#
# Indices 1 2 3 4 5 6 
#
# 1 0.005936 -0.002481 -0.002901 0.000000 0.000000 0.000000
# 2 -0.002481 0.023041 -0.001674 0.000000 0.000000 0.000000
# 3 -0.002901 -0.001674 0.013606 0.000000 0.000000 0.000000
# 4 0.000000 0.000000 0.000000 0.030114 0.000000 0.000000
# 5 0.000000 0.000000 0.000000 0.000000 0.032797 0.000000
# 6 0.000000 0.000000 0.000000 0.000000 0.000000 0.074581
#
#
# Mechanical properties :
#
#
# Convention : Reuss Voigt Hill
#
# Bulk Modulus (GPa) = 35.12361 55.26433 45.19397
# Shear Modulus (GPa) = 24.54881 32.14460 28.34671
#
# Velocity S-wave (km/s) = 3.15095 3.60562 3.38593
# Velocity P-wave (km/s) = 5.23864 6.29961 5.79346
#
# Compressibility (1/GPa) = 0.02847087
#
# Stress axis : x y z
#
# Youngs Moduli (GPa) = 168.47757 43.40058 73.49847
#
# Poissons Ratio (x) = 0.10766 0.21325
# Poissons Ratio (y) = 0.41793 0.12302
# Poissons Ratio (z) = 0.48882 0.07264
#
# Static dielectric constant tensor:
#      x y z
#    x 1.950300 0.000000 0.000000 
#    y 0.000000 1.968360 0.000000 
#    z 0.000000 0.000000 2.044820 
# 
# From -- ./inp_files/71406.got.cif
#   From: 2010.05.17/outbox.cif.g08.bks.cpg/sg63_36_cif.got.tgz:71406.got - 2010.06.03 15:47:04.
