data_PCOD9473788
_publ_section_title
;
Structure prediction by ZEFSAII (Michael W. Deem and Ramdas Pophale) SiO2 
 PCOD9473788
Probable space group: C M C M
;
_chemical_formula_sum "Si O2"
_cell_formula_units_Z 80
_cell_length_a 15.035702
_cell_length_b 31.593546
_cell_length_c 7.472578
_cell_angle_alpha 90.000000
_cell_angle_beta 90.000000
_cell_angle_gamma 90.000000
_cell_volume 3549.707267
_symmetry_space_group_name_H-M "C M C M"
_symmetry_group_IT_number 63
_symmetry_cell_setting 'orthorhombic'
loop_
_space_group_symop_operation_xyz
x,y,z
-x,-y,1/2+z
x,-y,-z
-x,y,1/2-z
-x,-y,-z
x,y,1/2-z
-x,y,z
x,-y,1/2+z
1/2+x,1/2+y,z
1/2-x,1/2-y,1/2+z
1/2+x,1/2-y,-z
1/2-x,1/2+y,1/2-z
1/2-x,1/2-y,-z
1/2+x,1/2+y,1/2-z
1/2-x,1/2+y,z
1/2+x,1/2-y,1/2+z
loop_
_atom_site_type_symbol
_atom_site_label
_atom_site_fract_x
_atom_site_fract_y
_atom_site_fract_z
Si Si1 0.246858 0.450432 0.535676
Si Si2 0.897806 0.888083 0.530591
Si Si3 0.108764 0.795693 0.540747
Si Si4 0.103228 0.705456 0.534587
Si Si5 0.899540 0.613123 0.462669
O O1 0.245106 0.500000 0.500000
O O2 0.246620 0.445781 0.750000
O O3 0.334334 0.425751 0.471207
O O4 0.162263 0.424140 0.466019
O O5 0.897407 0.886624 0.750000
O O6 0.866300 0.841548 0.466608
O O7 0.000000 0.894222 0.476814
O O8 0.133836 0.796214 0.750000
O O9 0.140115 0.750397 0.465683
O O10 0.000000 0.794604 0.533809
O O11 0.102291 0.708069 0.750000
O O12 0.142299 0.659904 0.487399
O O13 0.000000 0.703236 0.472862
O O14 0.906745 0.607273 0.250000
O O15 0.000000 0.612701 0.537468
#
# Coordination Sequence:
#
# PCOD9473788 Si02
#       5
#    16  16  16  16  16
#     4  10  21  35  50  68  89 115 151 193 233 272
#     4   8  14  27  48  71  93 118 148 182 222 269
#     4   7  10  19  39  67  94 117 144 179 215 254
#     4   8  13  23  43  70  94 117 149 186 219 253
#     4   9  18  32  47  64  91 125 154 181 220 270
#
# _framework density 22.53707
#
# number of rings (size 3 to 8) (size 9 to 14) (size 15 to 20)
#    0.000    3.600    0.000    2.400    0.000    1.600 
#    0.000    1.000    0.000    1.200    0.000    2.800 
#    0.000    0.000    0.000    0.000    0.000    0.000 
#
# Total GULP energy -222992.066122 kJ/mol
# GULP energy per Si atom -5574.801653 kJ/mol
# Density = 2.248577 g / cm^3
# Si number density = 22.537070 Si / 1000 Ang^3
#
#
#
# Elastic Constant Matrix: (Units=GPa)
#
#
# Indices 1 2 3 4 5 6 
#
# 1 99.9919 97.6016 4.3013 0.0000 0.0000 0.0000
# 2 97.6016 271.9899 0.8232 0.0000 0.0000 0.0000
# 3 4.3013 0.8232 65.5821 0.0000 0.0000 0.0000
# 4 0.0000 0.0000 0.0000 39.6554 0.0000 0.0000
# 5 0.0000 0.0000 0.0000 0.0000 -8.6501 0.0000
# 6 0.0000 0.0000 0.0000 0.0000 0.0000 44.2660
#
#
#
# Elastic Compliance Matrix: (Units=1/GPa)
#
#
# Indices 1 2 3 4 5 6 
#
# 1 0.015450 -0.005541 -0.000944 0.000000 0.000000 0.000000
# 2 -0.005541 0.005664 0.000292 0.000000 0.000000 0.000000
# 3 -0.000944 0.000292 0.015306 0.000000 0.000000 0.000000
# 4 0.000000 0.000000 0.000000 0.025217 0.000000 0.000000
# 5 0.000000 0.000000 0.000000 0.000000 -0.115605 0.000000
# 6 0.000000 0.000000 0.000000 0.000000 0.000000 0.022591
#
#
# Mechanical properties :
#
#
# Convention : Reuss Voigt Hill
#
# Bulk Modulus (GPa) = 41.60568 71.44625 56.52597
# Shear Modulus (GPa) = -455.40580 37.37678 -209.01451
#
# Velocity S-wave (km/s) = -14.23054 4.07683 -9.64074
# Velocity P-wave (km/s) = 15.85907 7.34379 9.93928
#
# Compressibility (1/GPa) = 0.02403518
#
# Stress axis : x y z
#
# Youngs Moduli (GPa) = 64.72363 176.54736 65.33260
#
# Poissons Ratio (x) = 0.97831 0.06166
# Poissons Ratio (y) = 0.35866 -0.01910
# Poissons Ratio (z) = 0.06109 -0.05161
#
# Static dielectric constant tensor:
#      x y z
#    x 1.864300 0.000000 0.000000 
#    y 0.000000 1.847660 0.000000 
#    z 0.000000 0.000000 1.853610 
# 
# From -- ./inp_files/19655.got.cif
#   From: 2010.05.17/outbox.cif.g08.bks.cpg/sg63_10_cif.got.tgz:19655.got - 2010.06.03 15:47:04.
