data_PCOD9473739
_publ_section_title
;
Structure prediction by ZEFSAII (Michael W. Deem and Ramdas Pophale) SiO2 
 PCOD9473739
Probable space group: C M C M
;
_chemical_formula_sum "Si O2"
_cell_formula_units_Z 80
_cell_length_a 7.887998
_cell_length_b 30.722179
_cell_length_c 14.877949
_cell_angle_alpha 90.000000
_cell_angle_beta 90.000000
_cell_angle_gamma 90.000000
_cell_volume 3605.469887
_symmetry_space_group_name_H-M "C M C M"
_symmetry_group_IT_number 63
_symmetry_cell_setting 'orthorhombic'
loop_
_space_group_symop_operation_xyz
x,y,z
-x,-y,1/2+z
x,-y,-z
-x,y,1/2-z
-x,-y,-z
x,y,1/2-z
-x,y,z
x,-y,1/2+z
1/2+x,1/2+y,z
1/2-x,1/2-y,1/2+z
1/2+x,1/2-y,-z
1/2-x,1/2+y,1/2-z
1/2-x,1/2-y,-z
1/2+x,1/2+y,1/2-z
1/2-x,1/2+y,z
1/2+x,1/2-y,1/2+z
loop_
_atom_site_type_symbol
_atom_site_label
_atom_site_fract_x
_atom_site_fract_y
_atom_site_fract_z
Si Si1 0.500000 0.767067 0.640236
Si Si2 0.809976 0.983461 0.101215
Si Si3 0.193005 0.924116 0.853391
Si Si4 0.298395 0.110610 0.851727
Si Si5 0.803982 0.294960 0.139656
Si Si6 0.000000 0.632837 0.139168
O O1 0.500000 0.767169 0.750000
O O2 0.330660 0.741431 0.612047
O O3 0.500000 0.817117 0.611497
O O4 0.736417 0.026387 0.148028
O O5 0.000000 0.978575 0.137688
O O6 0.731803 0.935948 0.104082
O O7 0.815236 0.000000 0.000000
O O8 0.175046 0.910523 0.750000
O O9 0.332546 0.892308 0.894463
O O10 0.000000 0.923889 0.892520
O O11 0.229706 0.106513 0.750000
O O12 0.500000 0.116251 0.846070
O O13 0.240763 0.156977 0.890540
O O14 0.804550 0.296540 0.250000
O O15 0.000000 0.286884 0.112498
O O16 0.000000 0.630983 0.250000
#
# Coordination Sequence:
#
# PCOD9473739 Si02
#       6
#     8  16  16  16  16   8
#     4   9  16  26  44  71  98 126 156 198 252 294
#     4  10  21  34  48  71 102 130 170 208 249 297
#     4   9  18  33  50  69  99 135 167 204 248 293
#     4   9  18  31  48  72 101 133 165 199 245 300
#     4   8  15  27  42  66 100 127 154 195 245 302
#     4   9  18  30  47  73  99 126 168 206 241 294
#
# _framework density 22.188507999999999
#
# number of rings (size 3 to 8) (size 9 to 14) (size 15 to 20)
#    0.000    3.000    0.000    1.800    2.800    2.400 
#    0.000    4.000    0.000    0.000    0.000    1.400 
#    0.000    0.000    0.000    0.000    0.000    0.000 
#
# Total GULP energy -222954.082724 kJ/mol
# GULP energy per Si atom -5573.852068 kJ/mol
# Density = 2.213801 g / cm^3
# Si number density = 22.188508 Si / 1000 Ang^3
#
#
#
# Elastic Constant Matrix: (Units=GPa)
#
#
# Indices 1 2 3 4 5 6 
#
# 1 110.2737 101.5039 8.9234 0.0000 0.0000 0.0000
# 2 101.5039 210.3643 8.7815 0.0000 0.0000 0.0000
# 3 8.9234 8.7815 27.5247 0.0000 0.0000 0.0000
# 4 0.0000 0.0000 0.0000 -6.7340 0.0000 0.0000
# 5 0.0000 0.0000 0.0000 0.0000 0.1447 0.0000
# 6 0.0000 0.0000 0.0000 0.0000 0.0000 44.2640
#
#
#
# Elastic Compliance Matrix: (Units=1/GPa)
#
#
# Indices 1 2 3 4 5 6 
#
# 1 0.016532 -0.007858 -0.002853 0.000000 0.000000 0.000000
# 2 -0.007858 0.008553 -0.000181 0.000000 0.000000 0.000000
# 3 -0.002853 -0.000181 0.037314 0.000000 0.000000 0.000000
# 4 0.000000 0.000000 0.000000 -0.148500 0.000000 0.000000
# 5 0.000000 0.000000 0.000000 0.000000 6.910347 0.000000
# 6 0.000000 0.000000 0.000000 0.000000 0.000000 0.022592
#
#
# Mechanical properties :
#
#
# Convention : Reuss Voigt Hill
#
# Bulk Modulus (GPa) = 24.62144 65.17558 44.89851
# Shear Modulus (GPa) = 0.72652 22.79853 11.76253
#
# Velocity S-wave (km/s) = 0.57283 3.20893 2.30493
# Velocity P-wave (km/s) = 3.39972 6.57016 5.23092
#
# Compressibility (1/GPa) = 0.04061500
#
# Stress axis : x y z
#
# Youngs Moduli (GPa) = 60.48797 116.92075 26.79990
#
# Poissons Ratio (x) = 0.91876 0.07645
# Poissons Ratio (y) = 0.47531 0.00486
# Poissons Ratio (z) = 0.17255 0.02118
#
# Static dielectric constant tensor:
#      x y z
#    x 1.826650 0.000000 0.000000 
#    y 0.000000 1.840900 0.000000 
#    z 0.000000 0.000000 1.787740 
# 
# From -- ./inp_files/40616.got.cif
#   From: 2010.05.17/outbox.cif.g08.bks.cpg/sg63_21_cif.got.tgz:40616.got - 2010.06.03 15:47:04.
