data_PCOD9473355
_publ_section_title
;
Structure prediction by ZEFSAII (Michael W. Deem and Ramdas Pophale) SiO2 
 PCOD9473355
Probable space group: C M C M
;
_chemical_formula_sum "Si O2"
_cell_formula_units_Z 72
_cell_length_a 18.277083
_cell_length_b 24.456678
_cell_length_c 8.275256
_cell_angle_alpha 90.000000
_cell_angle_beta 90.000000
_cell_angle_gamma 90.000000
_cell_volume 3699.012403
_symmetry_space_group_name_H-M "C M C M"
_symmetry_group_IT_number 63
_symmetry_cell_setting 'orthorhombic'
loop_
_space_group_symop_operation_xyz
x,y,z
-x,-y,1/2+z
x,-y,-z
-x,y,1/2-z
-x,-y,-z
x,y,1/2-z
-x,y,z
x,-y,1/2+z
1/2+x,1/2+y,z
1/2-x,1/2-y,1/2+z
1/2+x,1/2-y,-z
1/2-x,1/2+y,1/2-z
1/2-x,1/2-y,-z
1/2+x,1/2+y,1/2-z
1/2-x,1/2+y,z
1/2+x,1/2-y,1/2+z
loop_
_atom_site_type_symbol
_atom_site_label
_atom_site_fract_x
_atom_site_fract_y
_atom_site_fract_z
Si Si1 0.085135 0.241203 0.446619
Si Si2 0.785074 0.437831 0.557278
Si Si3 0.084210 0.636266 0.554836
Si Si4 0.643509 0.627577 0.054578
Si Si5 0.500000 0.562634 0.942725
O O1 0.086929 0.241423 0.250000
O O2 0.106150 0.302269 0.499794
O O3 0.132832 0.190016 0.503290
O O4 0.000000 0.232030 0.491872
O O5 0.780917 0.500000 0.500000
O O6 0.781129 0.437916 0.750000
O O7 0.859736 0.408593 0.505836
O O8 0.716243 0.402486 0.494078
O O9 0.084991 0.636021 0.750000
O O10 0.000000 0.626957 0.504097
O O11 0.646391 0.629032 0.250000
O O12 0.571964 0.593407 0.006503
O O13 0.500000 0.564095 0.750000
O O14 0.500000 0.500000 0.000000
#
# Coordination Sequence:
#
# PCOD9473355 Si02
#       5
#    16  16  16  16   8
#     4   8  14  30  59  87 113 148 186 222 272 339
#     4  11  24  39  57  82 113 151 192 240 290 335
#     4   9  19  37  62  88 112 147 188 228 283 349
#     4  10  20  37  60  84 114 153 192 230 279 338
#     4  12  24  36  54  82 114 154 199 238 281 326
#
# _framework density 19.464653999999999
#
# number of rings (size 3 to 8) (size 9 to 14) (size 15 to 20)
#    0.000    2.222    1.111    3.667    0.000    5.333 
#    0.000    1.111    0.000    0.000    0.000    0.000 
#    0.000    0.000    0.000    0.000    0.000    0.000 
#
# Total GULP energy -200981.240845 kJ/mol
# GULP energy per Si atom -5582.812246 kJ/mol
# Density = 1.942035 g / cm^3
# Si number density = 19.464654 Si / 1000 Ang^3
#
#
#
# Elastic Constant Matrix: (Units=GPa)
#
#
# Indices 1 2 3 4 5 6 
#
# 1 110.1597 67.1443 12.9554 0.0000 0.0000 0.0000
# 2 67.1443 108.0744 12.6339 0.0000 0.0000 0.0000
# 3 12.9554 12.6339 15.1513 0.0000 0.0000 0.0000
# 4 0.0000 0.0000 0.0000 4.7250 0.0000 0.0000
# 5 0.0000 0.0000 0.0000 0.0000 18.8930 0.0000
# 6 0.0000 0.0000 0.0000 0.0000 0.0000 21.1623
#
#
#
# Elastic Compliance Matrix: (Units=1/GPa)
#
#
# Indices 1 2 3 4 5 6 
#
# 1 0.015029 -0.008681 -0.005612 0.000000 0.000000 0.000000
# 2 -0.008681 0.015267 -0.005307 0.000000 0.000000 0.000000
# 3 -0.005612 -0.005307 0.075225 0.000000 0.000000 0.000000
# 4 0.000000 0.000000 0.000000 0.211640 0.000000 0.000000
# 5 0.000000 0.000000 0.000000 0.000000 0.052930 0.000000
# 6 0.000000 0.000000 0.000000 0.000000 0.000000 0.047254
#
#
# Mechanical properties :
#
#
# Convention : Reuss Voigt Hill
#
# Bulk Modulus (GPa) = 15.07846 46.53918 30.80882
# Shear Modulus (GPa) = 10.44601 18.33287 14.38944
#
# Velocity S-wave (km/s) = 2.31912 3.07229 2.72188
# Velocity P-wave (km/s) = 3.86452 6.04540 5.07352
#
# Compressibility (1/GPa) = 0.06631978
#
# Stress axis : x y z
#
# Youngs Moduli (GPa) = 66.53768 65.50195 13.29350
#
# Poissons Ratio (x) = 0.56863 0.07460
# Poissons Ratio (y) = 0.57763 0.07055
# Poissons Ratio (z) = 0.37342 0.34763
#
# Static dielectric constant tensor:
#      x y z
#    x 1.662030 0.000000 0.000000 
#    y 0.000000 1.680600 0.000000 
#    z 0.000000 0.000000 1.670380 
# 
# From -- ./inp_files/6100.got.cif
#   From: 2010.05.17/outbox.cif.g08.bks.cpg/sg63_4_cif.got.tgz:6100.got - 2010.06.03 15:47:04.
