data_PCOD9473931
_publ_section_title
;
Structure prediction by ZEFSAII (Michael W. Deem and Ramdas Pophale) SiO2 
 PCOD9473931
Probable space group: C M C M
;
_chemical_formula_sum "Si O2"
_cell_formula_units_Z 64
_cell_length_a 9.258077
_cell_length_b 42.180039
_cell_length_c 9.193446
_cell_angle_alpha 90.000000
_cell_angle_beta 90.000000
_cell_angle_gamma 90.000000
_cell_volume 3590.096273
_symmetry_space_group_name_H-M "C M C M"
_symmetry_group_IT_number 63
_symmetry_cell_setting 'orthorhombic'
loop_
_space_group_symop_operation_xyz
x,y,z
-x,-y,1/2+z
x,-y,-z
-x,y,1/2-z
-x,-y,-z
x,y,1/2-z
-x,y,z
x,-y,1/2+z
1/2+x,1/2+y,z
1/2-x,1/2-y,1/2+z
1/2+x,1/2-y,-z
1/2-x,1/2+y,1/2-z
1/2-x,1/2-y,-z
1/2+x,1/2+y,1/2-z
1/2-x,1/2+y,z
1/2+x,1/2-y,1/2+z
loop_
_atom_site_type_symbol
_atom_site_label
_atom_site_fract_x
_atom_site_fract_y
_atom_site_fract_z
Si Si1 0.171402 0.343817 0.077248
Si Si2 0.326505 0.090899 0.079208
Si Si3 0.669221 0.720938 0.575114
Si Si4 0.326468 0.532708 0.579280
O O1 0.193737 0.349233 0.250000
O O2 0.258565 0.312534 0.033537
O O3 0.000000 0.338308 0.054847
O O4 0.214070 0.375230 0.990024
O O5 0.291443 0.090009 0.250000
O O6 0.500000 0.087767 0.063437
O O7 0.249624 0.062399 0.995791
O O8 0.683340 0.723842 0.750000
O O9 0.500000 0.721200 0.538503
O O10 0.750000 0.750000 0.500000
O O11 0.284861 0.500000 0.500000
O O12 0.290550 0.531159 0.750000
O O13 0.500000 0.536044 0.565969
#
# Coordination Sequence:
#
# PCOD9473931 Si02
#       4
#    16  16  16  16
#     4   9  18  34  54  75 104 142 180 219 264 314
#     4  10  21  36  55  81 111 142 177 218 265 317
#     4  10  21  36  55  80 109 141 178 220 266 317
#     4  10  21  37  57  80 107 141 180 222 268 317
#
# _framework density 17.826820999999999
#
# number of rings (size 3 to 8) (size 9 to 14) (size 15 to 20)
#    0.000    2.250    0.000    2.250    0.000    7.000 
#    0.000    5.000    0.000    0.000    0.000    0.000 
#    0.000    0.000    0.000    0.000    0.000    0.000 
#
# Total GULP energy -178694.459127 kJ/mol
# GULP energy per Si atom -5584.201848 kJ/mol
# Density = 1.778625 g / cm^3
# Si number density = 17.826821 Si / 1000 Ang^3
#
#
#
# Elastic Constant Matrix: (Units=GPa)
#
#
# Indices 1 2 3 4 5 6 
#
# 1 62.7467 94.3321 66.1498 0.0000 0.0000 0.0000
# 2 94.3321 224.5092 114.8499 0.0000 0.0000 0.0000
# 3 66.1498 114.8499 107.3630 0.0000 0.0000 0.0000
# 4 0.0000 0.0000 0.0000 42.2564 0.0000 0.0000
# 5 0.0000 0.0000 0.0000 0.0000 26.7276 0.0000
# 6 0.0000 0.0000 0.0000 0.0000 0.0000 42.0255
#
#
#
# Elastic Compliance Matrix: (Units=1/GPa)
#
#
# Indices 1 2 3 4 5 6 
#
# 1 0.060515 -0.014032 -0.022275 0.000000 0.000000 0.000000
# 2 -0.014032 0.013091 -0.005359 0.000000 0.000000 0.000000
# 3 -0.022275 -0.005359 0.028771 0.000000 0.000000 0.000000
# 4 0.000000 0.000000 0.000000 0.023665 0.000000 0.000000
# 5 0.000000 0.000000 0.000000 0.000000 0.037415 0.000000
# 6 0.000000 0.000000 0.000000 0.000000 0.000000 0.023795
#
#
# Mechanical properties :
#
#
# Convention : Reuss Voigt Hill
#
# Bulk Modulus (GPa) = 52.50373 105.03139 78.76756
# Shear Modulus (GPa) = 18.05496 30.15438 24.10467
#
# Velocity S-wave (km/s) = 3.18590 4.11727 3.68116
# Velocity P-wave (km/s) = 6.56120 9.03593 7.89612
#
# Compressibility (1/GPa) = 0.01904627
#
# Stress axis : x y z
#
# Youngs Moduli (GPa) = 16.52476 76.38781 34.75699
#
# Poissons Ratio (x) = 1.07184 0.77423
# Poissons Ratio (y) = 0.23187 0.18625
# Poissons Ratio (z) = 0.36810 0.40934
#
# Static dielectric constant tensor:
#      x y z
#    x 1.596570 0.000000 0.000000 
#    y 0.000000 1.567680 0.000000 
#    z 0.000000 0.000000 1.595860 
# 
# From -- ./inp_files/3123.got.cif
#   From: 2010.05.17/outbox.cif.g08.bks.cpg/sg63_2_cif.got.tgz:3123.got - 2010.06.03 15:47:04.
