data_PCOD9473606
_publ_section_title
;
Structure prediction by ZEFSAII (Michael W. Deem and Ramdas Pophale) SiO2 
 PCOD9473606
Probable space group: C M C M
;
_chemical_formula_sum "Si O2"
_cell_formula_units_Z 112
_cell_length_a 24.281527
_cell_length_b 14.256099
_cell_length_c 14.877040
_cell_angle_alpha 90.000000
_cell_angle_beta 90.000000
_cell_angle_gamma 90.000000
_cell_volume 5149.833976
_symmetry_space_group_name_H-M "C M C M"
_symmetry_group_IT_number 63
_symmetry_cell_setting 'orthorhombic'
loop_
_space_group_symop_operation_xyz
x,y,z
-x,-y,1/2+z
x,-y,-z
-x,y,1/2-z
-x,-y,-z
x,y,1/2-z
-x,y,z
x,-y,1/2+z
1/2+x,1/2+y,z
1/2-x,1/2-y,1/2+z
1/2+x,1/2-y,-z
1/2-x,1/2+y,1/2-z
1/2-x,1/2-y,-z
1/2+x,1/2+y,1/2-z
1/2-x,1/2+y,z
1/2+x,1/2-y,1/2+z
loop_
_atom_site_type_symbol
_atom_site_label
_atom_site_fract_x
_atom_site_fract_y
_atom_site_fract_z
Si Si1 0.438827 0.215255 0.456011
Si Si2 0.847345 0.401011 0.853964
Si Si3 0.303776 0.901351 0.350600
Si Si4 0.647525 0.572929 0.349041
Si Si5 0.756392 0.859481 0.524921
Si Si6 0.437826 0.565727 0.588374
Si Si7 0.903118 0.732005 0.848528
O O1 0.500000 0.192892 0.424030
O O2 0.394678 0.150376 0.408169
O O3 0.428435 0.325351 0.435540
O O4 0.434743 0.201689 0.563163
O O5 0.848841 0.373562 0.750000
O O6 0.847331 0.513847 0.859449
O O7 0.790141 0.375242 0.900504
O O8 0.279563 0.906451 0.250000
O O9 0.260416 0.908491 0.430862
O O10 0.340642 0.807955 0.357255
O O11 0.675178 0.576902 0.250000
O O12 0.688154 0.600800 0.430397
O O13 0.613827 0.476831 0.358544
O O14 0.602156 0.655925 0.349216
O O15 0.750000 0.750000 0.500000
O O16 0.438957 0.500000 0.500000
O O17 0.500000 0.558808 0.628706
O O18 0.923605 0.701811 0.750000
#
# Coordination Sequence:
#
# PCOD9473606 Si02
#       7
#    16  16  16  16  16  16  16
#     4  11  23  43  72 101 131 180 233 284 348 411
#     4  11  25  45  66  94 134 180 225 279 341 399
#     4  10  22  43  69  94 132 178 222 277 344 407
#     4  11  23  40  65 100 137 179 230 277 334 411
#     4  12  23  41  68  97 136 177 221 280 340 399
#     4  10  22  41  66  97 137 178 224 281 343 408
#     4  10  20  39  65  98 136 171 218 278 340 406
#
# _framework density 21.748273999999999
#
# number of rings (size 3 to 8) (size 9 to 14) (size 15 to 20)
#    0.000    1.286    4.286    0.857    0.000    3.143 
#    0.000    4.286    0.000    2.571    0.000    0.000 
#    0.000    0.000    0.000    0.000    0.000    0.000 
#
# Total GULP energy -312857.933060 kJ/mol
# GULP energy per Si atom -5586.748805 kJ/mol
# Density = 2.169877 g / cm^3
# Si number density = 21.748274 Si / 1000 Ang^3
#
#
#
# Elastic Constant Matrix: (Units=GPa)
#
#
# Indices 1 2 3 4 5 6 
#
# 1 79.1602 23.4375 54.6980 0.0000 0.0000 0.0000
# 2 23.4375 67.0690 42.5345 0.0000 0.0000 0.0000
# 3 54.6980 42.5345 144.9400 0.0000 0.0000 0.0000
# 4 0.0000 0.0000 0.0000 28.8545 0.0000 0.0000
# 5 0.0000 0.0000 0.0000 0.0000 -9.9451 0.0000
# 6 0.0000 0.0000 0.0000 0.0000 0.0000 30.3955
#
#
#
# Elastic Compliance Matrix: (Units=1/GPa)
#
#
# Indices 1 2 3 4 5 6 
#
# 1 0.017386 -0.002352 -0.005871 0.000000 0.000000 0.000000
# 2 -0.002352 0.018638 -0.004582 0.000000 0.000000 0.000000
# 3 -0.005871 -0.004582 0.010460 0.000000 0.000000 0.000000
# 4 0.000000 0.000000 0.000000 0.034657 0.000000 0.000000
# 5 0.000000 0.000000 0.000000 0.000000 -0.100552 0.000000
# 6 0.000000 0.000000 0.000000 0.000000 0.000000 0.032900
#
#
# Mechanical properties :
#
#
# Convention : Reuss Voigt Hill
#
# Bulk Modulus (GPa) = 47.90819 59.16770 53.53794
# Shear Modulus (GPa) = 108.56748 21.22761 64.89754
#
# Velocity S-wave (km/s) = 7.07308 3.12758 5.46856
# Velocity P-wave (km/s) = 9.42236 6.34879 8.03393
#
# Compressibility (1/GPa) = 0.02087326
#
# Stress axis : x y z
#
# Youngs Moduli (GPa) = 57.51872 53.65458 95.60685
#
# Poissons Ratio (x) = 0.12621 0.56128
# Poissons Ratio (y) = 0.13530 0.43805
# Poissons Ratio (z) = 0.33768 0.24583
#
# Static dielectric constant tensor:
#      x y z
#    x 1.787320 0.000000 0.000000 
#    y 0.000000 1.927150 0.000000 
#    z 0.000000 0.000000 1.815730 
# 
# From -- ./inp_files/36955.got.cif
#   From: 2010.05.17/outbox.cif.g08.bks.cpg/sg63_19_cif.got.tgz:36955.got - 2010.06.03 15:47:04.
