data_PCOD9473995
_publ_section_title
;
Structure prediction by ZEFSAII (Michael W. Deem and Ramdas Pophale) SiO2 
 PCOD9473995
Probable space group: C M C M
;
_chemical_formula_sum "Si O2"
_cell_formula_units_Z 84
_cell_length_a 7.712038
_cell_length_b 21.608386
_cell_length_c 23.670050
_cell_angle_alpha 90.000000
_cell_angle_beta 90.000000
_cell_angle_gamma 90.000000
_cell_volume 3944.488238
_symmetry_space_group_name_H-M "C M C M"
_symmetry_group_IT_number 63
_symmetry_cell_setting 'orthorhombic'
loop_
_space_group_symop_operation_xyz
x,y,z
-x,-y,1/2+z
x,-y,-z
-x,y,1/2-z
-x,-y,-z
x,y,1/2-z
-x,y,z
x,-y,1/2+z
1/2+x,1/2+y,z
1/2-x,1/2-y,1/2+z
1/2+x,1/2-y,-z
1/2-x,1/2+y,1/2-z
1/2-x,1/2-y,-z
1/2+x,1/2+y,1/2-z
1/2-x,1/2+y,z
1/2+x,1/2-y,1/2+z
loop_
_atom_site_type_symbol
_atom_site_label
_atom_site_fract_x
_atom_site_fract_y
_atom_site_fract_z
Si Si1 0.794162 0.379803 0.622804
Si Si2 0.703204 0.898528 0.750000
Si Si3 0.309231 0.101844 0.750000
Si Si4 0.294695 0.508747 0.564251
Si Si5 0.207964 0.743519 0.434967
Si Si6 0.500000 0.502522 0.750000
Si Si7 0.788161 0.866630 0.129016
O O1 0.770331 0.366491 0.689329
O O2 0.725587 0.446330 0.601379
O O3 0.722124 0.321455 0.588581
O O4 0.000000 0.384252 0.612741
O O5 0.500000 0.918750 0.750000
O O6 0.847132 0.950662 0.750000
O O7 0.500000 0.072329 0.750000
O O8 0.286354 0.137945 0.691714
O O9 0.151282 0.054985 0.750000
O O10 0.224469 0.500000 0.500000
O O11 0.500000 0.519554 0.557929
O O12 0.229942 0.569466 0.598017
O O13 0.250000 0.750000 0.500000
O O14 0.267638 0.805912 0.404585
O O15 0.000000 0.741586 0.427189
O O16 0.000000 0.868654 0.131932
#
# Coordination Sequence:
#
# PCOD9473995 Si02
#       7
#    16   8   8  16  16   4  16
#     4  10  22  39  61  92 126 166 212 267 326 387
#     4  10  23  40  62  96 133 171 215 267 324 397
#     4  12  25  40  64  98 133 173 219 273 328 395
#     4  10  21  36  58  88 120 161 213 264 319 384
#     4  10  22  41  66  93 128 175 221 270 332 392
#     4  12  22  40  64  94 134 176 214 254 332 392
#     4  10  21  40  64  91 128 175 219 268 331 396
#
# _framework density 21.295539999999999
#
# number of rings (size 3 to 8) (size 9 to 14) (size 15 to 20)
#    0.000    1.714    0.952    2.571    4.000    6.476 
#    0.000    2.857    2.095    0.000    0.000    0.000 
#    0.000    0.000    0.000    0.000    0.000    0.000 
#
# Total GULP energy -233923.774860 kJ/mol
# GULP energy per Si atom -5569.613687 kJ/mol
# Density = 2.124707 g / cm^3
# Si number density = 21.295540 Si / 1000 Ang^3
#
#
#
# Elastic Constant Matrix: (Units=GPa)
#
#
# Indices 1 2 3 4 5 6 
#
# 1 68.5991 6.2489 8.5742 0.0000 0.0000 0.0000
# 2 6.2489 120.4410 46.0530 0.0000 0.0000 0.0000
# 3 8.5742 46.0530 138.6289 0.0000 0.0000 0.0000
# 4 0.0000 0.0000 0.0000 151.8032 0.0000 0.0000
# 5 0.0000 0.0000 0.0000 0.0000 12.6045 0.0000
# 6 0.0000 0.0000 0.0000 0.0000 0.0000 18.5848
#
#
#
# Elastic Compliance Matrix: (Units=1/GPa)
#
#
# Indices 1 2 3 4 5 6 
#
# 1 0.014715 -0.000476 -0.000752 0.000000 0.000000 0.000000
# 2 -0.000476 0.009526 -0.003135 0.000000 0.000000 0.000000
# 3 -0.000752 -0.003135 0.008302 0.000000 0.000000 0.000000
# 4 0.000000 0.000000 0.000000 0.006587 0.000000 0.000000
# 5 0.000000 0.000000 0.000000 0.000000 0.079337 0.000000
# 6 0.000000 0.000000 0.000000 0.000000 0.000000 0.053807
#
#
# Mechanical properties :
#
#
# Convention : Reuss Voigt Hill
#
# Bulk Modulus (GPa) = 41.98796 49.93570 45.96183
# Shear Modulus (GPa) = 26.46356 54.38470 40.42413
#
# Velocity S-wave (km/s) = 3.52899 5.05900 4.36161
# Velocity P-wave (km/s) = 6.03031 7.59108 6.85526
#
# Compressibility (1/GPa) = 0.02381635
#
# Stress axis : x y z
#
# Youngs Moduli (GPa) = 67.95881 104.97214 120.45932
#
# Poissons Ratio (x) = 0.04996 0.09059
# Poissons Ratio (y) = 0.03234 0.37767
# Poissons Ratio (z) = 0.05111 0.32911
#
# Static dielectric constant tensor:
#      x y z
#    x 1.782510 0.000000 0.000000 
#    y 0.000000 1.725700 0.000000 
#    z 0.000000 0.000000 1.860600 
# 
# From -- ./inp_files/59579.got.cif
#   From: 2010.05.17/outbox.cif.g08.bks.cpg/sg63_30_cif.got.tgz:59579.got - 2010.06.03 15:47:04.
