data_PCOD9473428
_publ_section_title
;
Structure prediction by ZEFSAII (Michael W. Deem and Ramdas Pophale) SiO2 
 PCOD9473428
Probable space group: C M C M
;
_chemical_formula_sum "Si O2"
_cell_formula_units_Z 60
_cell_length_a 12.825042
_cell_length_b 13.920121
_cell_length_c 16.222183
_cell_angle_alpha 90.000000
_cell_angle_beta 90.000000
_cell_angle_gamma 90.000000
_cell_volume 2896.083656
_symmetry_space_group_name_H-M "C M C M"
_symmetry_group_IT_number 63
_symmetry_cell_setting 'orthorhombic'
loop_
_space_group_symop_operation_xyz
x,y,z
-x,-y,1/2+z
x,-y,-z
-x,y,1/2-z
-x,-y,-z
x,y,1/2-z
-x,y,z
x,-y,1/2+z
1/2+x,1/2+y,z
1/2-x,1/2-y,1/2+z
1/2+x,1/2-y,-z
1/2-x,1/2+y,1/2-z
1/2-x,1/2-y,-z
1/2+x,1/2+y,1/2-z
1/2-x,1/2+y,z
1/2+x,1/2-y,1/2+z
loop_
_atom_site_type_symbol
_atom_site_label
_atom_site_fract_x
_atom_site_fract_y
_atom_site_fract_z
Si Si1 0.326847 0.899664 0.250000
Si Si2 0.378755 0.601866 0.082020
Si Si3 0.174499 0.884105 0.094211
Si Si4 0.882796 0.185409 0.250000
Si Si5 0.000000 0.749918 0.157077
Si Si6 0.000000 0.438515 0.750000
O O1 0.259982 0.894574 0.165598
O O2 0.387368 0.799214 0.250000
O O3 0.400270 0.992358 0.250000
O O4 0.500000 0.634127 0.066755
O O5 0.382659 0.487666 0.096279
O O6 0.334833 0.649339 0.164979
O O7 0.305508 0.624269 0.003829
O O8 0.101034 0.794724 0.115408
O O9 0.000000 0.143586 0.250000
O O10 0.000000 0.635849 0.172790
O O11 0.000000 0.791652 0.250000
#
# Coordination Sequence:
#
# PCOD9473428 Si02
#       6
#     8  16  16   8   8   4
#     4  12  24  42  61  85 131 181 219 260 304 397
#     4  10  20  37  66 100 127 152 197 277 339 381
#     4  11  20  35  68  99 125 155 210 267 330 379
#     4  10  23  39  61  83 123 175 213 254 325 370
#     4  10  20  37  63  97 123 170 203 267 310 377
#     4  10  26  44  58  86 140 182 226 252 316 382
#
# _framework density 20.717632999999999
#
# number of rings (size 3 to 8) (size 9 to 14) (size 15 to 20)
#    0.400    1.067    4.667    1.600    0.000    5.333 
#    0.000    2.667    0.000    4.800    0.000    0.000 
#    0.000    0.000    0.000    0.000    0.000    0.000 
#
# Total GULP energy -167182.704180 kJ/mol
# GULP energy per Si atom -5572.756806 kJ/mol
# Density = 2.067048 g / cm^3
# Si number density = 20.717633 Si / 1000 Ang^3
#
#
#
# Elastic Constant Matrix: (Units=GPa)
#
#
# Indices 1 2 3 4 5 6 
#
# 1 71.7693 32.6589 57.8102 0.0000 0.0000 0.0000
# 2 32.6589 129.5172 64.1051 0.0000 0.0000 0.0000
# 3 57.8102 64.1051 194.7810 0.0000 0.0000 0.0000
# 4 0.0000 0.0000 0.0000 -260.9983 0.0000 0.0000
# 5 0.0000 0.0000 0.0000 0.0000 -8.9541 0.0000
# 6 0.0000 0.0000 0.0000 0.0000 0.0000 149.1654
#
#
#
# Elastic Compliance Matrix: (Units=1/GPa)
#
#
# Indices 1 2 3 4 5 6 
#
# 1 0.018905 -0.002377 -0.004828 0.000000 0.000000 0.000000
# 2 -0.002377 0.009522 -0.002428 0.000000 0.000000 0.000000
# 3 -0.004828 -0.002428 0.007366 0.000000 0.000000 0.000000
# 4 0.000000 0.000000 0.000000 -0.003831 0.000000 0.000000
# 5 0.000000 0.000000 0.000000 0.000000 -0.111680 0.000000
# 6 0.000000 0.000000 0.000000 0.000000 0.000000 0.006704
#
#
# Mechanical properties :
#
#
# Convention : Reuss Voigt Hill
#
# Bulk Modulus (GPa) = 60.51352 78.35734 69.43543
# Shear Modulus (GPa) = -103.65221 -8.05785 -55.85503
#
# Velocity S-wave (km/s) = -7.08093 -1.97429 -5.19795
# Velocity P-wave (km/s) = 6.13030 5.71897 1.56109
#
# Compressibility (1/GPa) = 0.01652523
#
# Stress axis : x y z
#
# Youngs Moduli (GPa) = 52.89721 105.01614 135.75386
#
# Poissons Ratio (x) = 0.24963 0.65548
# Poissons Ratio (y) = 0.12574 0.32967
# Poissons Ratio (z) = 0.25541 0.25502
#
# Static dielectric constant tensor:
#      x y z
#    x 1.872960 0.000000 0.000000 
#    y 0.000000 1.713500 0.000000 
#    z 0.000000 0.000000 1.819640 
# 
# From -- ./inp_files/31165.got.cif
#   From: 2010.05.17/outbox.cif.g08.bks.cpg/sg63_16_cif.got.tgz:31165.got - 2010.06.03 15:47:04.
