data_PCOD9473421
_publ_section_title
;
Structure prediction by ZEFSAII (Michael W. Deem and Ramdas Pophale) SiO2 
 PCOD9473421
Probable space group: C M C M
;
_chemical_formula_sum "Si O2"
_cell_formula_units_Z 80
_cell_length_a 13.330330
_cell_length_b 13.595042
_cell_length_c 18.763872
_cell_angle_alpha 90.000000
_cell_angle_beta 90.000000
_cell_angle_gamma 90.000000
_cell_volume 3400.508902
_symmetry_space_group_name_H-M "C M C M"
_symmetry_group_IT_number 63
_symmetry_cell_setting 'orthorhombic'
loop_
_space_group_symop_operation_xyz
x,y,z
-x,-y,1/2+z
x,-y,-z
-x,y,1/2-z
-x,-y,-z
x,y,1/2-z
-x,y,z
x,-y,1/2+z
1/2+x,1/2+y,z
1/2-x,1/2-y,1/2+z
1/2+x,1/2-y,-z
1/2-x,1/2+y,1/2-z
1/2-x,1/2-y,-z
1/2+x,1/2+y,1/2-z
1/2-x,1/2+y,z
1/2+x,1/2-y,1/2+z
loop_
_atom_site_type_symbol
_atom_site_label
_atom_site_fract_x
_atom_site_fract_y
_atom_site_fract_z
Si Si1 0.610113 0.817168 0.664193
Si Si2 0.172770 0.107599 0.332843
Si Si3 0.316916 0.103333 0.969668
Si Si4 0.108407 0.182810 0.023167
Si Si5 0.207903 0.889043 0.332854
O O1 0.604092 0.822513 0.750000
O O2 0.500000 0.844377 0.636455
O O3 0.709161 0.879290 0.646804
O O4 0.640283 0.704645 0.647261
O O5 0.159804 0.136937 0.250000
O O6 0.114287 0.169112 0.391263
O O7 0.150193 0.992166 0.339347
O O8 0.373474 0.202036 0.993286
O O9 0.303591 0.105793 0.884430
O O10 0.201464 0.119944 0.994631
O O11 0.354447 0.000000 0.000000
O O12 0.000000 0.150290 0.997343
O O13 0.236802 0.878388 0.250000
#
# Coordination Sequence:
#
# PCOD9473421 Si02
#       5
#    16  16  16  16  16
#     4   9  18  34  59  89 120 158 203 248 297 355
#     4  10  20  38  62  92 130 162 200 258 311 357
#     4  11  23  44  64  88 125 164 202 253 310 366
#     4  11  25  42  63  92 122 162 211 254 308 369
#     4  10  20  37  63  91 123 160 200 250 306 362
#
# _framework density 23.52589
#
# number of rings (size 3 to 8) (size 9 to 14) (size 15 to 20)
#    0.000    1.800    4.000    0.000    0.000    2.800 
#    0.000    3.000    0.000    1.200    0.000    0.000 
#    0.000    0.000    0.000    0.000    0.000    0.000 
#
# Total GULP energy -223627.407422 kJ/mol
# GULP energy per Si atom -5590.685186 kJ/mol
# Density = 2.347234 g / cm^3
# Si number density = 23.525890 Si / 1000 Ang^3
#
#
#
# Elastic Constant Matrix: (Units=GPa)
#
#
# Indices 1 2 3 4 5 6 
#
# 1 77.5825 5.4608 4.4940 0.0000 0.0000 0.0000
# 2 5.4608 109.9385 8.6336 0.0000 0.0000 0.0000
# 3 4.4940 8.6336 97.1789 0.0000 0.0000 0.0000
# 4 0.0000 0.0000 0.0000 34.0693 0.0000 0.0000
# 5 0.0000 0.0000 0.0000 0.0000 20.4345 0.0000
# 6 0.0000 0.0000 0.0000 0.0000 0.0000 -3.3649
#
#
#
# Elastic Compliance Matrix: (Units=1/GPa)
#
#
# Indices 1 2 3 4 5 6 
#
# 1 0.012963 -0.000601 -0.000546 0.000000 0.000000 0.000000
# 2 -0.000601 0.009188 -0.000788 0.000000 0.000000 0.000000
# 3 -0.000546 -0.000788 0.010386 0.000000 0.000000 0.000000
# 4 0.000000 0.000000 0.000000 0.029352 0.000000 0.000000
# 5 0.000000 0.000000 0.000000 0.000000 0.048937 0.000000
# 6 0.000000 0.000000 0.000000 0.000000 0.000000 -0.297182
#
#
# Mechanical properties :
#
#
# Convention : Reuss Voigt Hill
#
# Bulk Modulus (GPa) = 34.88496 35.76406 35.32451
# Shear Modulus (GPa) = -28.91346 27.96854 -0.47246
#
# Velocity S-wave (km/s) = -3.50952 3.45170 -0.44862
# Velocity P-wave (km/s) = 1.24972 5.57859 3.84440
#
# Compressibility (1/GPa) = 0.02866565
#
# Stress axis : x y z
#
# Youngs Moduli (GPa) = 77.14000 108.84038 96.28713
#
# Poissons Ratio (x) = 0.06542 0.05258
# Poissons Ratio (y) = 0.04636 0.07592
# Poissons Ratio (z) = 0.04213 0.08582
#
# Static dielectric constant tensor:
#      x y z
#    x 1.844200 0.000000 0.000000 
#    y 0.000000 1.863480 0.000000 
#    z 0.000000 0.000000 1.990500 
# 
# From -- ./inp_files/53993.got.cif
#   From: 2010.05.17/outbox.cif.g08.bks.cpg/sg63_27_cif.got.tgz:53993.got - 2010.06.03 15:47:04.
