data_PCOD9473429
_publ_section_title
;
Structure prediction by ZEFSAII (Michael W. Deem and Ramdas Pophale) SiO2 
 PCOD9473429
Probable space group: C M C M
;
_chemical_formula_sum "Si O2"
_cell_formula_units_Z 64
_cell_length_a 14.815534
_cell_length_b 9.070250
_cell_length_c 23.642348
_cell_angle_alpha 90.000000
_cell_angle_beta 90.000000
_cell_angle_gamma 90.000000
_cell_volume 3177.072845
_symmetry_space_group_name_H-M "C M C M"
_symmetry_group_IT_number 63
_symmetry_cell_setting 'orthorhombic'
loop_
_space_group_symop_operation_xyz
x,y,z
-x,-y,1/2+z
x,-y,-z
-x,y,1/2-z
-x,-y,-z
x,y,1/2-z
-x,y,z
x,-y,1/2+z
1/2+x,1/2+y,z
1/2-x,1/2-y,1/2+z
1/2+x,1/2-y,-z
1/2-x,1/2+y,1/2-z
1/2-x,1/2-y,-z
1/2+x,1/2+y,1/2-z
1/2-x,1/2+y,z
1/2+x,1/2-y,1/2+z
loop_
_atom_site_type_symbol
_atom_site_label
_atom_site_fract_x
_atom_site_fract_y
_atom_site_fract_z
Si Si1 0.341205 0.198814 0.750000
Si Si2 0.500000 0.896735 0.446941
Si Si3 0.858659 0.945232 0.250000
Si Si4 0.500000 0.353208 0.035440
Si Si5 0.353625 0.685292 0.866250
Si Si6 0.841599 0.536870 0.861747
O O1 0.237849 0.139902 0.750000
O O2 0.348867 0.376443 0.750000
O O3 0.378038 0.122249 0.806311
O O4 0.500000 0.747793 0.480385
O O5 0.588321 0.926304 0.410454
O O6 0.500000 0.000000 0.500000
O O7 0.897075 0.889948 0.189952
O O8 0.415419 0.331049 0.078185
O O9 0.500000 0.500000 0.000000
O O10 0.257735 0.602433 0.874348
O O11 0.338008 0.859727 0.854230
#
# Coordination Sequence:
#
# PCOD9473429 Si02
#       6
#     8   8   8   8  16  16
#     4  10  20  37  64 101 126 167 205 268 316 390
#     4  12  26  49  62  93 129 174 217 266 306 388
#     4  10  20  37  64  97 134 157 215 258 326 380
#     4  12  30  45  66  91 133 168 225 264 316 374
#     4  11  23  44  67  99 127 173 207 269 320 383
#     4  11  23  42  71  94 132 166 216 259 329 374
#
# _framework density 20.144328000000002
#
# number of rings (size 3 to 8) (size 9 to 14) (size 15 to 20)
#    0.000    1.000    2.500    6.750    7.000    3.000 
#    0.000    3.750    0.000    0.000    0.000    0.000 
#    0.000    0.000    0.000    0.000    0.000    0.000 
#
# Total GULP energy -178480.756837 kJ/mol
# GULP energy per Si atom -5577.523651 kJ/mol
# Density = 2.009848 g / cm^3
# Si number density = 20.144328 Si / 1000 Ang^3
#
#
#
# Elastic Constant Matrix: (Units=GPa)
#
#
# Indices 1 2 3 4 5 6 
#
# 1 116.0129 49.7789 68.9067 0.0000 0.0000 0.0000
# 2 49.7789 248.3712 74.0587 0.0000 0.0000 0.0000
# 3 68.9067 74.0587 142.9488 0.0000 0.0000 0.0000
# 4 0.0000 0.0000 0.0000 48.9019 0.0000 0.0000
# 5 0.0000 0.0000 0.0000 0.0000 283.3944 0.0000
# 6 0.0000 0.0000 0.0000 0.0000 0.0000 6.1404
#
#
#
# Elastic Compliance Matrix: (Units=1/GPa)
#
#
# Indices 1 2 3 4 5 6 
#
# 1 0.012217 -0.000819 -0.005465 0.000000 0.000000 0.000000
# 2 -0.000819 0.004817 -0.002101 0.000000 0.000000 0.000000
# 3 -0.005465 -0.002101 0.010718 0.000000 0.000000 0.000000
# 4 0.000000 0.000000 0.000000 0.020449 0.000000 0.000000
# 5 0.000000 0.000000 0.000000 0.000000 0.003529 0.000000
# 6 0.000000 0.000000 0.000000 0.000000 0.000000 0.162856
#
#
# Mechanical properties :
#
#
# Convention : Reuss Voigt Hill
#
# Bulk Modulus (GPa) = 91.05061 99.20241 95.12651
# Shear Modulus (GPa) = 21.27524 88.65991 54.96757
#
# Velocity S-wave (km/s) = 3.25336 6.64138 5.22935
# Velocity P-wave (km/s) = 7.70777 10.40016 9.15350
#
# Compressibility (1/GPa) = 0.01098290
#
# Stress axis : x y z
#
# Youngs Moduli (GPa) = 81.85325 207.60860 93.30105
#
# Poissons Ratio (x) = 0.17005 0.50986
# Poissons Ratio (y) = 0.06705 0.19599
# Poissons Ratio (z) = 0.44730 0.43611
#
# Static dielectric constant tensor:
#      x y z
#    x 1.745390 0.000000 0.000000 
#    y 0.000000 1.650160 0.000000 
#    z 0.000000 0.000000 1.724800 
# 
# From -- ./inp_files/55078.got.cif
#   From: 2010.05.17/outbox.cif.g08.bks.cpg/sg63_28_cif.got.tgz:55078.got - 2010.06.03 15:47:04.
