data_PCOD9473377
_publ_section_title
;
Structure prediction by ZEFSAII (Michael W. Deem and Ramdas Pophale) SiO2 
 PCOD9473377
Probable space group: C M C M
;
_chemical_formula_sum "Si O2"
_cell_formula_units_Z 84
_cell_length_a 16.633440
_cell_length_b 15.821050
_cell_length_c 14.550025
_cell_angle_alpha 90.000000
_cell_angle_beta 90.000000
_cell_angle_gamma 90.000000
_cell_volume 3828.962549
_symmetry_space_group_name_H-M "C M C M"
_symmetry_group_IT_number 63
_symmetry_cell_setting 'orthorhombic'
loop_
_space_group_symop_operation_xyz
x,y,z
-x,-y,1/2+z
x,-y,-z
-x,y,1/2-z
-x,-y,-z
x,y,1/2-z
-x,y,z
x,-y,1/2+z
1/2+x,1/2+y,z
1/2-x,1/2-y,1/2+z
1/2+x,1/2-y,-z
1/2-x,1/2+y,1/2-z
1/2-x,1/2-y,-z
1/2+x,1/2+y,1/2-z
1/2-x,1/2+y,z
1/2+x,1/2-y,1/2+z
loop_
_atom_site_type_symbol
_atom_site_label
_atom_site_fract_x
_atom_site_fract_y
_atom_site_fract_z
Si Si1 0.908883 0.156199 0.981845
Si Si2 0.730150 0.592837 0.859158
Si Si3 0.621039 0.189916 0.148521
Si Si4 0.500000 0.928035 0.250000
Si Si5 0.383176 0.997884 0.607207
Si Si6 0.305824 0.272494 0.855902
O O1 0.849387 0.097733 0.921149
O O2 0.909867 0.245066 0.926208
O O3 0.000000 0.124987 0.991293
O O4 0.866783 0.180077 0.077771
O O5 0.712001 0.598217 0.750000
O O6 0.788569 0.514946 0.878273
O O7 0.783496 0.676188 0.884489
O O8 0.602397 0.223824 0.250000
O O9 0.717650 0.185846 0.139687
O O10 0.592014 0.094692 0.141106
O O11 0.569477 0.935812 0.169498
O O12 0.401024 0.000000 0.500000
O O13 0.333364 0.271698 0.750000
#
# Coordination Sequence:
#
# PCOD9473377 Si02
#       6
#    16  16  16   4  16  16
#     4  11  22  35  59  92 118 151 201 249 296 344
#     4  10  20  40  59  81 120 164 201 236 292 361
#     4  10  20  37  61  85 114 153 193 242 299 360
#     4  12  26  40  52  94 130 148 202 234 300 354
#     4  12  23  40  61  86 125 162 191 238 296 362
#     4   9  19  37  57  80 113 158 203 238 291 357
#
# _framework density 21.938058000000002
#
# number of rings (size 3 to 8) (size 9 to 14) (size 15 to 20)
#    0.000    1.524    1.905    6.571    1.333    1.905 
#    5.143    0.000    0.000    5.143    0.000    5.333 
#    0.000    0.000    0.000    0.000    0.000    0.000 
#
# Total GULP energy -234314.896499 kJ/mol
# GULP energy per Si atom -5578.926107 kJ/mol
# Density = 2.188813 g / cm^3
# Si number density = 21.938058 Si / 1000 Ang^3
#
#
#
# Elastic Constant Matrix: (Units=GPa)
#
#
# Indices 1 2 3 4 5 6 
#
# 1 137.0328 8.2050 41.2377 0.0000 0.0000 0.0000
# 2 8.2050 33.5481 -13.8261 0.0000 0.0000 0.0000
# 3 41.2377 -13.8261 134.4981 0.0000 0.0000 0.0000
# 4 0.0000 0.0000 0.0000 8.4227 0.0000 0.0000
# 5 0.0000 0.0000 0.0000 0.0000 16.9400 0.0000
# 6 0.0000 0.0000 0.0000 0.0000 0.0000 -8.4830
#
#
#
# Elastic Compliance Matrix: (Units=1/GPa)
#
#
# Indices 1 2 3 4 5 6 
#
# 1 0.008363 -0.003240 -0.002897 0.000000 0.000000 0.000000
# 2 -0.003240 0.032381 0.004322 0.000000 0.000000 0.000000
# 3 -0.002897 0.004322 0.008768 0.000000 0.000000 0.000000
# 4 0.000000 0.000000 0.000000 0.118727 0.000000 0.000000
# 5 0.000000 0.000000 0.000000 0.000000 0.059032 0.000000
# 6 0.000000 0.000000 0.000000 0.000000 0.000000 -0.117883
#
#
# Mechanical properties :
#
#
# Convention : Reuss Voigt Hill
#
# Bulk Modulus (GPa) = 21.79459 41.81247 31.80353
# Shear Modulus (GPa) = 38.96739 21.34010 30.15374
#
# Velocity S-wave (km/s) = 4.21913 3.12227 3.71144
# Velocity P-wave (km/s) = 5.80438 5.66558 5.73540
#
# Compressibility (1/GPa) = 0.04588295
#
# Stress axis : x y z
#
# Youngs Moduli (GPa) = 119.56901 30.88184 114.05570
#
# Poissons Ratio (x) = 0.10004 0.33045
# Poissons Ratio (y) = 0.38734 -0.49295
# Poissons Ratio (z) = 0.34642 -0.13347
#
# Static dielectric constant tensor:
#      x y z
#    x 1.832600 0.000000 0.000000 
#    y 0.000000 1.832890 0.000000 
#    z 0.000000 0.000000 1.788760 
# 
# From -- ./inp_files/31757.got.cif
#   From: 2010.05.17/outbox.cif.g08.bks.cpg/sg63_16_cif.got.tgz:31757.got - 2010.06.03 15:47:04.
