data_PCOD9473981
_publ_section_title
;
Structure prediction by ZEFSAII (Michael W. Deem and Ramdas Pophale) SiO2 
 PCOD9473981
Probable space group: C M C M
;
_chemical_formula_sum "Si O2"
_cell_formula_units_Z 80
_cell_length_a 27.964538
_cell_length_b 8.421440
_cell_length_c 16.442204
_cell_angle_alpha 90.000000
_cell_angle_beta 90.000000
_cell_angle_gamma 90.000000
_cell_volume 3872.166647
_symmetry_space_group_name_H-M "C M C M"
_symmetry_group_IT_number 63
_symmetry_cell_setting 'orthorhombic'
loop_
_space_group_symop_operation_xyz
x,y,z
-x,-y,1/2+z
x,-y,-z
-x,y,1/2-z
-x,-y,-z
x,y,1/2-z
-x,y,z
x,-y,1/2+z
1/2+x,1/2+y,z
1/2-x,1/2-y,1/2+z
1/2+x,1/2-y,-z
1/2-x,1/2+y,1/2-z
1/2-x,1/2-y,-z
1/2+x,1/2+y,1/2-z
1/2-x,1/2+y,z
1/2+x,1/2-y,1/2+z
loop_
_atom_site_type_symbol
_atom_site_label
_atom_site_fract_x
_atom_site_fract_y
_atom_site_fract_z
Si Si1 0.446206 0.188251 0.993015
Si Si2 0.771302 0.291641 0.411631
Si Si3 0.634180 0.597267 0.083673
Si Si4 0.593957 0.707936 0.657850
Si Si5 0.191256 0.607165 0.341926
O O1 0.500000 0.215808 0.961803
O O2 0.441775 0.260764 0.083804
O O3 0.406108 0.272825 0.938470
O O4 0.438231 0.000000 0.000000
O O5 0.750000 0.250000 0.500000
O O6 0.816413 0.179402 0.393246
O O7 0.790492 0.469254 0.400973
O O8 0.727814 0.252947 0.351613
O O9 0.614507 0.469508 0.147136
O O10 0.642792 0.500000 0.000000
O O11 0.576649 0.732544 0.750000
O O12 0.638486 0.827114 0.641791
O O13 0.192445 0.545086 0.250000
#
# Coordination Sequence:
#
# PCOD9473981 Si02
#       5
#    16  16  16  16  16
#     4  10  21  40  64  87 114 149 189 235 291 351
#     4  12  22  35  56  81 111 151 199 241 278 334
#     4  10  21  36  57  84 113 147 188 236 286 338
#     4  10  22  39  59  85 117 152 193 241 291 345
#     4  11  23  37  54  80 117 156 191 234 291 342
#
# _framework density 20.660269
#
# number of rings (size 3 to 8) (size 9 to 14) (size 15 to 20)
#    0.000    1.400    0.000    7.200    0.000    7.200 
#    0.000    1.000    0.000    1.200    0.000    0.000 
#    0.000    0.000    0.000    0.000    0.000    0.000 
#
# Total GULP energy -223602.954737 kJ/mol
# GULP energy per Si atom -5590.073868 kJ/mol
# Density = 2.061324 g / cm^3
# Si number density = 20.660269 Si / 1000 Ang^3
#
#
#
# Elastic Constant Matrix: (Units=GPa)
#
#
# Indices 1 2 3 4 5 6 
#
# 1 55.3578 0.8505 1.7166 0.0000 0.0000 0.0000
# 2 0.8505 68.0715 4.8283 0.0000 0.0000 0.0000
# 3 1.7166 4.8283 56.4859 0.0000 0.0000 0.0000
# 4 0.0000 0.0000 0.0000 23.7698 0.0000 0.0000
# 5 0.0000 0.0000 0.0000 0.0000 13.0255 0.0000
# 6 0.0000 0.0000 0.0000 0.0000 0.0000 21.0783
#
#
#
# Elastic Compliance Matrix: (Units=1/GPa)
#
#
# Indices 1 2 3 4 5 6 
#
# 1 0.018084 -0.000188 -0.000533 0.000000 0.000000 0.000000
# 2 -0.000188 0.014782 -0.001258 0.000000 0.000000 0.000000
# 3 -0.000533 -0.001258 0.017827 0.000000 0.000000 0.000000
# 4 0.000000 0.000000 0.000000 0.042070 0.000000 0.000000
# 5 0.000000 0.000000 0.000000 0.000000 0.076772 0.000000
# 6 0.000000 0.000000 0.000000 0.000000 0.000000 0.047442
#
#
# Mechanical properties :
#
#
# Convention : Reuss Voigt Hill
#
# Bulk Modulus (GPa) = 21.39760 21.63399 21.51580
# Shear Modulus (GPa) = 21.14035 23.07604 22.10820
#
# Velocity S-wave (km/s) = 3.20228 3.34567 3.27476
# Velocity P-wave (km/s) = 4.90430 5.04170 4.97347
#
# Compressibility (1/GPa) = 0.04673421
#
# Stress axis : x y z
#
# Youngs Moduli (GPa) = 55.29830 67.64986 56.09386
#
# Poissons Ratio (x) = 0.01273 0.02992
# Poissons Ratio (y) = 0.01040 0.07056
# Poissons Ratio (z) = 0.02950 0.08509
#
# Static dielectric constant tensor:
#      x y z
#    x 1.703840 0.000000 0.000000 
#    y 0.000000 1.759120 0.000000 
#    z 0.000000 0.000000 1.780620 
# 
# From -- ./inp_files/48762.got.cif
#   From: 2010.05.17/outbox.cif.g08.bks.cpg/sg63_25_cif.got.tgz:48762.got - 2010.06.03 15:47:04.
