data_PCOD9473160
_publ_section_title
;
Structure prediction by ZEFSAII (Michael W. Deem and Ramdas Pophale) SiO2 
 PCOD9473160
Probable space group: C M C M
;
_chemical_formula_sum "Si O2"
_cell_formula_units_Z 100
_cell_length_a 15.079960
_cell_length_b 21.705683
_cell_length_c 16.973215
_cell_angle_alpha 90.000000
_cell_angle_beta 90.000000
_cell_angle_gamma 90.000000
_cell_volume 5555.686846
_symmetry_space_group_name_H-M "C M C M"
_symmetry_group_IT_number 63
_symmetry_cell_setting 'orthorhombic'
loop_
_space_group_symop_operation_xyz
x,y,z
-x,-y,1/2+z
x,-y,-z
-x,y,1/2-z
-x,-y,-z
x,y,1/2-z
-x,y,z
x,-y,1/2+z
1/2+x,1/2+y,z
1/2-x,1/2-y,1/2+z
1/2+x,1/2-y,-z
1/2-x,1/2+y,1/2-z
1/2-x,1/2-y,-z
1/2+x,1/2+y,1/2-z
1/2-x,1/2+y,z
1/2+x,1/2-y,1/2+z
loop_
_atom_site_type_symbol
_atom_site_label
_atom_site_fract_x
_atom_site_fract_y
_atom_site_fract_z
Si Si1 0.500000 0.328490 0.750000
Si Si2 0.105665 0.911023 0.339932
Si Si3 0.161128 0.838098 0.876396
Si Si4 0.901566 0.449923 0.843748
Si Si5 0.603949 0.301771 0.044210
Si Si6 0.858551 0.307442 0.837745
Si Si7 0.713028 0.521036 0.410112
O O1 0.578282 0.329535 0.818989
O O2 0.119331 0.890501 0.250000
O O3 0.134786 0.858499 0.400985
O O4 0.000000 0.922064 0.350218
O O5 0.159577 0.972860 0.356774
O O6 0.252533 0.814884 0.838876
O O7 0.174858 0.910702 0.895294
O O8 0.149776 0.803534 0.959738
O O9 0.891854 0.461851 0.750000
O O10 0.895821 0.375857 0.853037
O O11 0.817140 0.477992 0.887846
O O12 0.000000 0.470886 0.868511
O O13 0.500000 0.311557 0.029344
O O14 0.615155 0.240287 0.095138
O O15 0.887669 0.287579 0.750000
O O16 0.701122 0.500000 0.500000
#
# Coordination Sequence:
#
# PCOD9473160 Si02
#       7
#     4  16  16  16  16  16  16
#     4  12  24  40  62  84 116 156 200 242 282 346
#     4  10  22  35  53  82 116 153 190 227 287 354
#     4  11  23  38  57  85 114 155 195 237 288 342
#     4   9  19  36  58  85 110 143 194 247 290 337
#     4  11  21  36  56  84 116 150 186 234 292 346
#     4  10  20  36  59  85 113 145 190 241 294 344
#     4  11  22  36  56  82 117 154 193 240 291 341
#
# _framework density 17.999573999999999
#
# number of rings (size 3 to 8) (size 9 to 14) (size 15 to 20)
#    0.000    1.600    3.200    1.920    3.360    2.240 
#    0.000    0.000    0.000    0.000    2.080    0.000 
#    0.000    0.000    0.000    0.000    0.000    0.000 
#
# Total GULP energy -278590.170374 kJ/mol
# GULP energy per Si atom -5571.803407 kJ/mol
# Density = 1.795861 g / cm^3
# Si number density = 17.999574 Si / 1000 Ang^3
#
#
#
# Elastic Constant Matrix: (Units=GPa)
#
#
# Indices 1 2 3 4 5 6 
#
# 1 65.4950 -14.6999 22.0401 0.0000 0.0000 0.0000
# 2 -14.6999 21.6936 16.6592 0.0000 0.0000 0.0000
# 3 22.0401 16.6592 111.4556 0.0000 0.0000 0.0000
# 4 0.0000 0.0000 0.0000 12.3356 0.0000 0.0000
# 5 0.0000 0.0000 0.0000 0.0000 27.6848 0.0000
# 6 0.0000 0.0000 0.0000 0.0000 0.0000 14.2114
#
#
#
# Elastic Compliance Matrix: (Units=1/GPa)
#
#
# Indices 1 2 3 4 5 6 
#
# 1 0.022586 0.021163 -0.007630 0.000000 0.000000 0.000000
# 2 0.021163 0.071904 -0.014932 0.000000 0.000000 0.000000
# 3 -0.007630 -0.014932 0.012713 0.000000 0.000000 0.000000
# 4 0.000000 0.000000 0.000000 0.081066 0.000000 0.000000
# 5 0.000000 0.000000 0.000000 0.000000 0.036121 0.000000
# 6 0.000000 0.000000 0.000000 0.000000 0.000000 0.070366
#
#
# Mechanical properties :
#
#
# Convention : Reuss Voigt Hill
#
# Bulk Modulus (GPa) = 9.57804 27.40477 18.49140
# Shear Modulus (GPa) = 15.04415 22.48935 18.76675
#
# Velocity S-wave (km/s) = 2.89417 3.53857 3.23247
# Velocity P-wave (km/s) = 4.06215 5.65275 4.92213
#
# Compressibility (1/GPa) = 0.10440554
#
# Stress axis : x y z
#
# Youngs Moduli (GPa) = 44.27556 13.90741 78.66047
#
# Poissons Ratio (x) = -0.29433 0.60015
# Poissons Ratio (y) = -0.93702 1.17460
# Poissons Ratio (z) = 0.33780 0.20767
#
# Static dielectric constant tensor:
#      x y z
#    x 1.612450 0.000000 0.000000 
#    y 0.000000 1.594390 0.000000 
#    z 0.000000 0.000000 1.620650 
# 
# From -- ./inp_files/44414.got.cif
#   From: 2010.05.17/outbox.cif.g08.bks.cpg/sg63_23_cif.got.tgz:44414.got - 2010.06.03 15:47:04.
