data_PCOD9473338
_publ_section_title
;
Structure prediction by ZEFSAII (Michael W. Deem and Ramdas Pophale) SiO2 
 PCOD9473338
Probable space group: C M C M
;
_chemical_formula_sum "Si O2"
_cell_formula_units_Z 80
_cell_length_a 31.438343
_cell_length_b 8.127686
_cell_length_c 16.397372
_cell_angle_alpha 90.000000
_cell_angle_beta 90.000000
_cell_angle_gamma 90.000000
_cell_volume 4189.872567
_symmetry_space_group_name_H-M "C M C M"
_symmetry_group_IT_number 63
_symmetry_cell_setting 'orthorhombic'
loop_
_space_group_symop_operation_xyz
x,y,z
-x,-y,1/2+z
x,-y,-z
-x,y,1/2-z
-x,-y,-z
x,y,1/2-z
-x,y,z
x,-y,1/2+z
1/2+x,1/2+y,z
1/2-x,1/2-y,1/2+z
1/2+x,1/2-y,-z
1/2-x,1/2+y,1/2-z
1/2-x,1/2-y,-z
1/2+x,1/2+y,1/2-z
1/2-x,1/2+y,z
1/2+x,1/2-y,1/2+z
loop_
_atom_site_type_symbol
_atom_site_label
_atom_site_fract_x
_atom_site_fract_y
_atom_site_fract_z
Si Si1 0.903093 0.387101 0.150716
Si Si2 0.950128 0.058772 0.093404
Si Si3 0.804293 0.399671 0.154030
Si Si4 0.233169 0.115397 0.436885
Si Si5 0.047911 0.288560 0.653132
O O1 0.906464 0.371783 0.250000
O O2 0.923418 0.222299 0.112645
O O3 0.853575 0.414637 0.131120
O O4 0.927148 0.552479 0.122293
O O5 0.000000 0.089416 0.115902
O O6 0.934201 0.894262 0.139322
O O7 0.948708 0.000000 0.000000
O O8 0.799414 0.431803 0.250000
O O9 0.791763 0.212488 0.132069
O O10 0.772352 0.518166 0.104388
O O11 0.250000 0.250000 0.500000
O O12 0.207459 0.000000 0.500000
O O13 0.045253 0.310851 0.750000
O O14 0.000000 0.287995 0.618232
#
# Coordination Sequence:
#
# PCOD9473338 Si02
#       5
#    16  16  16  16  16
#     4  10  21  37  57  86 115 146 193 244 287 337
#     4  10  21  37  55  82 118 156 195 234 285 346
#     4  10  20  37  59  84 112 145 190 237 287 346
#     4   9  19  38  58  80 110 146 183 228 285 355
#     4   9  18  35  58  81 110 151 193 232 279 335
#
# _framework density 19.093658999999999
#
# number of rings (size 3 to 8) (size 9 to 14) (size 15 to 20)
#    0.000    2.400    0.000    1.800    0.000    3.600 
#   18.000    3.000    0.000    0.000    0.000    0.000 
#    0.000    0.000    0.000    0.000    0.000    0.000 
#
# Total GULP energy -222761.297040 kJ/mol
# GULP energy per Si atom -5569.032426 kJ/mol
# Density = 1.905020 g / cm^3
# Si number density = 19.093659 Si / 1000 Ang^3
#
#
#
# Elastic Constant Matrix: (Units=GPa)
#
#
# Indices 1 2 3 4 5 6 
#
# 1 78.3003 56.1013 28.9566 0.0000 0.0000 0.0000
# 2 56.1013 126.6553 27.4894 0.0000 0.0000 0.0000
# 3 28.9566 27.4894 41.4559 0.0000 0.0000 0.0000
# 4 0.0000 0.0000 0.0000 27.2208 0.0000 0.0000
# 5 0.0000 0.0000 0.0000 0.0000 13.0943 0.0000
# 6 0.0000 0.0000 0.0000 0.0000 0.0000 21.5098
#
#
#
# Elastic Compliance Matrix: (Units=1/GPa)
#
#
# Indices 1 2 3 4 5 6 
#
# 1 0.021970 -0.007477 -0.010388 0.000000 0.000000 0.000000
# 2 -0.007477 0.011767 -0.002580 0.000000 0.000000 0.000000
# 3 -0.010388 -0.002580 0.033089 0.000000 0.000000 0.000000
# 4 0.000000 0.000000 0.000000 0.036737 0.000000 0.000000
# 5 0.000000 0.000000 0.000000 0.000000 0.076369 0.000000
# 6 0.000000 0.000000 0.000000 0.000000 0.000000 0.046490
#
#
# Mechanical properties :
#
#
# Convention : Reuss Voigt Hill
#
# Bulk Modulus (GPa) = 38.55659 52.38956 45.47308
# Shear Modulus (GPa) = 18.11867 21.28926 19.70396
#
# Velocity S-wave (km/s) = 3.08382 3.34277 3.21590
# Velocity P-wave (km/s) = 5.73735 6.51127 6.13652
#
# Compressibility (1/GPa) = 0.02593591
#
# Stress axis : x y z
#
# Youngs Moduli (GPa) = 45.51645 84.98089 30.22151
#
# Poissons Ratio (x) = 0.63539 0.31394
# Poissons Ratio (y) = 0.34032 0.07798
# Poissons Ratio (z) = 0.47282 0.21928
#
# Static dielectric constant tensor:
#      x y z
#    x 1.660700 0.000000 0.000000 
#    y 0.000000 1.712460 0.000000 
#    z 0.000000 0.000000 1.714940 
# 
# From -- ./inp_files/48774.got.cif
#   From: 2010.05.17/outbox.cif.g08.bks.cpg/sg63_25_cif.got.tgz:48774.got - 2010.06.03 15:47:04.
