data_PCOD9473607
_publ_section_title
;
Structure prediction by ZEFSAII (Michael W. Deem and Ramdas Pophale) SiO2 
 PCOD9473607
Probable space group: C M C M
;
_chemical_formula_sum "Si O2"
_cell_formula_units_Z 116
_cell_length_a 17.180887
_cell_length_b 14.219643
_cell_length_c 21.945953
_cell_angle_alpha 90.000000
_cell_angle_beta 90.000000
_cell_angle_gamma 90.000000
_cell_volume 5361.529740
_symmetry_space_group_name_H-M "C M C M"
_symmetry_group_IT_number 63
_symmetry_cell_setting 'orthorhombic'
loop_
_space_group_symop_operation_xyz
x,y,z
-x,-y,1/2+z
x,-y,-z
-x,y,1/2-z
-x,-y,-z
x,y,1/2-z
-x,y,z
x,-y,1/2+z
1/2+x,1/2+y,z
1/2-x,1/2-y,1/2+z
1/2+x,1/2-y,-z
1/2-x,1/2+y,1/2-z
1/2-x,1/2-y,-z
1/2+x,1/2+y,1/2-z
1/2-x,1/2+y,z
1/2+x,1/2-y,1/2+z
loop_
_atom_site_type_symbol
_atom_site_label
_atom_site_fract_x
_atom_site_fract_y
_atom_site_fract_z
Si Si1 0.844530 0.690395 0.372008
Si Si2 0.283148 0.887792 0.504257
Si Si3 0.587273 0.165961 0.909589
Si Si4 0.120584 0.497555 0.180824
Si Si5 0.871737 0.127996 0.568141
Si Si6 0.192962 0.013517 0.682453
Si Si7 0.000000 0.000000 0.000000
Si Si8 0.684546 0.289018 0.682126
O O1 0.795899 0.641328 0.426545
O O2 0.888038 0.606777 0.337384
O O3 0.895036 0.772693 0.401722
O O4 0.775435 0.733323 0.330443
O O5 0.357693 0.853712 0.466547
O O6 0.204670 0.850751 0.472948
O O7 0.278662 0.000000 0.500000
O O8 0.500000 0.194221 0.926508
O O9 0.629721 0.242340 0.867505
O O10 0.584959 0.071560 0.868708
O O11 0.094277 0.481561 0.250000
O O12 0.213594 0.476800 0.178754
O O13 0.932569 0.071056 0.528223
O O14 0.845829 0.063520 0.625298
O O15 0.168002 0.047179 0.750000
O O16 0.176916 0.901738 0.680217
O O17 0.663651 0.255799 0.750000
#
# Coordination Sequence:
#
# PCOD9473607 Si02
#       8
#    16  16  16  16  16  16   4  16
#     4  11  22  40  70  98 126 177 233 276 332 400
#     4  12  22  44  70  94 134 181 222 279 336 399
#     4  12  25  41  65 100 142 183 221 271 339 410
#     4  10  20  39  66 102 135 173 225 273 332 399
#     4  12  24  45  67  94 132 170 229 278 336 406
#     4   9  19  39  70  96 127 173 224 280 330 399
#     4  12  32  44  66 100 128 176 224 286 344 390
#     4  10  21  39  66 105 134 167 226 278 337 404
#
# _framework density 21.635617
#
# number of rings (size 3 to 8) (size 9 to 14) (size 15 to 20)
#    0.000    1.103    4.828    2.897    0.000    3.586 
#    6.207    0.345    0.000    0.000    0.000    0.000 
#    0.000    0.000    0.000    0.000    0.000    0.000 
#
# Total GULP energy -324041.466915 kJ/mol
# GULP energy per Si atom -5586.921843 kJ/mol
# Density = 2.158637 g / cm^3
# Si number density = 21.635617 Si / 1000 Ang^3
#
#
#
# Elastic Constant Matrix: (Units=GPa)
#
#
# Indices 1 2 3 4 5 6 
#
# 1 72.6318 9.5955 10.6006 0.0000 0.0000 0.0000
# 2 9.5955 60.8848 2.5325 0.0000 0.0000 0.0000
# 3 10.6006 2.5325 83.3429 0.0000 0.0000 0.0000
# 4 0.0000 0.0000 0.0000 37.3999 0.0000 0.0000
# 5 0.0000 0.0000 0.0000 0.0000 3.1952 0.0000
# 6 0.0000 0.0000 0.0000 0.0000 0.0000 2.2939
#
#
#
# Elastic Compliance Matrix: (Units=1/GPa)
#
#
# Indices 1 2 3 4 5 6 
#
# 1 0.014312 -0.002183 -0.001754 0.000000 0.000000 0.000000
# 2 -0.002183 0.016778 -0.000232 0.000000 0.000000 0.000000
# 3 -0.001754 -0.000232 0.012229 0.000000 0.000000 0.000000
# 4 0.000000 0.000000 0.000000 0.026738 0.000000 0.000000
# 5 0.000000 0.000000 0.000000 0.000000 0.312974 0.000000
# 6 0.000000 0.000000 0.000000 0.000000 0.000000 0.435944
#
#
# Mechanical properties :
#
#
# Convention : Reuss Voigt Hill
#
# Bulk Modulus (GPa) = 28.58667 29.14629 28.86648
# Shear Modulus (GPa) = 5.95966 21.51984 13.73975
#
# Velocity S-wave (km/s) = 1.66149 3.15723 2.52276
# Velocity P-wave (km/s) = 4.11366 5.17605 4.67513
#
# Compressibility (1/GPa) = 0.03498134
#
# Stress axis : x y z
#
# Youngs Moduli (GPa) = 69.86928 59.60145 81.77419
#
# Poissons Ratio (x) = 0.13009 0.14344
# Poissons Ratio (y) = 0.15250 0.01899
# Poissons Ratio (z) = 0.12256 0.01384
#
# Static dielectric constant tensor:
#      x y z
#    x 1.758350 0.000000 0.000000 
#    y 0.000000 1.818390 0.000000 
#    z 0.000000 0.000000 1.763400 
# 
# From -- ./inp_files/63945.got.cif
#   From: 2010.05.17/outbox.cif.g08.bks.cpg/sg63_32_cif.got.tgz:63945.got - 2010.06.03 15:47:04.
