data_PCOD9473658
_publ_section_title
;
Structure prediction by ZEFSAII (Michael W. Deem and Ramdas Pophale) SiO2 
 PCOD9473658
Probable space group: C M C M
;
_chemical_formula_sum "Si O2"
_cell_formula_units_Z 100
_cell_length_a 8.613601
_cell_length_b 28.758802
_cell_length_c 21.982887
_cell_angle_alpha 90.000000
_cell_angle_beta 90.000000
_cell_angle_gamma 90.000000
_cell_volume 5445.531426
_symmetry_space_group_name_H-M "C M C M"
_symmetry_group_IT_number 63
_symmetry_cell_setting 'orthorhombic'
loop_
_space_group_symop_operation_xyz
x,y,z
-x,-y,1/2+z
x,-y,-z
-x,y,1/2-z
-x,-y,-z
x,y,1/2-z
-x,y,z
x,-y,1/2+z
1/2+x,1/2+y,z
1/2-x,1/2-y,1/2+z
1/2+x,1/2-y,-z
1/2-x,1/2+y,1/2-z
1/2-x,1/2-y,-z
1/2+x,1/2+y,1/2-z
1/2-x,1/2+y,z
1/2+x,1/2-y,1/2+z
loop_
_atom_site_type_symbol
_atom_site_label
_atom_site_fract_x
_atom_site_fract_y
_atom_site_fract_z
Si Si1 0.671417 0.725126 0.178721
Si Si2 0.500000 0.101815 0.824143
Si Si3 0.000000 0.493565 0.823113
Si Si4 0.748316 0.325708 0.359281
Si Si5 0.320978 0.852799 0.893517
Si Si6 0.000000 0.828637 0.250000
Si Si7 0.822132 0.198168 0.504249
Si Si8 0.818950 0.061864 0.176710
O O1 0.705654 0.727812 0.250000
O O2 0.500000 0.703731 0.171208
O O3 0.667332 0.776561 0.152020
O O4 0.797781 0.694067 0.145623
O O5 0.500000 0.106153 0.750000
O O6 0.644599 0.129491 0.851654
O O7 0.500000 0.047681 0.840478
O O8 0.168052 0.470472 0.839929
O O9 0.000000 0.491384 0.750000
O O10 0.630793 0.328411 0.303788
O O11 0.682944 0.320476 0.427016
O O12 0.500000 0.867680 0.892292
O O13 0.214991 0.891651 0.861672
O O14 0.268220 0.837230 0.960356
O O15 0.750000 0.250000 0.500000
O O16 0.000000 0.201378 0.483348
O O17 0.808624 0.070507 0.250000
O O18 0.000000 0.046027 0.165861
#
# Coordination Sequence:
#
# PCOD9473658 Si02
#       8
#    16   8   8  16  16   4  16  16
#     4  11  22  35  55  83 119 169 216 259 318 379
#     4  11  22  42  66  95 127 170 207 267 345 394
#     4   9  20  40  66 100 132 165 217 276 341 404
#     4  12  24  40  62  85 127 164 210 271 317 382
#     4  12  25  37  59  88 127 172 215 268 323 388
#     4  12  24  42  60  94 118 162 216 272 326 372
#     4  12  26  41  58  86 124 175 225 267 314 386
#     4  10  20  40  66  96 131 169 214 275 333 392
#
# _framework density 18.363681
#
# number of rings (size 3 to 8) (size 9 to 14) (size 15 to 20)
#    0.000    0.800    5.600    2.400    3.360    2.240 
#    1.440    0.000    0.000    1.920    0.000    2.240 
#    0.000    0.000    0.000    0.000    0.000    0.000 
#
# Total GULP energy -278341.993590 kJ/mol
# GULP energy per Si atom -5566.839872 kJ/mol
# Density = 1.832188 g / cm^3
# Si number density = 18.363681 Si / 1000 Ang^3
#
#
#
# Elastic Constant Matrix: (Units=GPa)
#
#
# Indices 1 2 3 4 5 6 
#
# 1 127.9732 44.2443 26.6561 0.0000 0.0000 0.0000
# 2 44.2443 102.9167 27.4388 0.0000 0.0000 0.0000
# 3 26.6561 27.4388 98.3387 0.0000 0.0000 0.0000
# 4 0.0000 0.0000 0.0000 11.5812 0.0000 0.0000
# 5 0.0000 0.0000 0.0000 0.0000 27.9037 0.0000
# 6 0.0000 0.0000 0.0000 0.0000 0.0000 29.0780
#
#
#
# Elastic Compliance Matrix: (Units=1/GPa)
#
#
# Indices 1 2 3 4 5 6 
#
# 1 0.009387 -0.003627 -0.001533 0.000000 0.000000 0.000000
# 2 -0.003627 0.011899 -0.002337 0.000000 0.000000 0.000000
# 3 -0.001533 -0.002337 0.011236 0.000000 0.000000 0.000000
# 4 0.000000 0.000000 0.000000 0.086347 0.000000 0.000000
# 5 0.000000 0.000000 0.000000 0.000000 0.035838 0.000000
# 6 0.000000 0.000000 0.000000 0.000000 0.000000 0.034390
#
#
# Mechanical properties :
#
#
# Convention : Reuss Voigt Hill
#
# Bulk Modulus (GPa) = 57.04621 58.43413 57.74017
# Shear Modulus (GPa) = 23.81702 29.10518 26.46110
#
# Velocity S-wave (km/s) = 3.60524 3.98544 3.80010
# Velocity P-wave (km/s) = 6.96150 7.28477 7.12497
#
# Compressibility (1/GPa) = 0.01752965
#
# Stress axis : x y z
#
# Youngs Moduli (GPa) = 106.52638 84.04115 88.99636
#
# Poissons Ratio (x) = 0.30482 0.13639
# Poissons Ratio (y) = 0.38638 0.20798
# Poissons Ratio (z) = 0.16326 0.19640
#
# Static dielectric constant tensor:
#      x y z
#    x 1.714400 0.000000 0.000000 
#    y 0.000000 1.613220 0.000000 
#    z 0.000000 0.000000 1.625500 
# 
# From -- ./inp_files/51739.got.cif
#   From: 2010.05.17/outbox.cif.g08.bks.cpg/sg63_26_cif.got.tgz:51739.got - 2010.06.03 15:47:04.
