data_PCOD9473702
_publ_section_title
;
Structure prediction by ZEFSAII (Michael W. Deem and Ramdas Pophale) SiO2 
 PCOD9473702
Probable space group: C M C M
;
_chemical_formula_sum "Si O2"
_cell_formula_units_Z 112
_cell_length_a 13.586821
_cell_length_b 15.041666
_cell_length_c 33.134477
_cell_angle_alpha 90.000000
_cell_angle_beta 90.000000
_cell_angle_gamma 90.000000
_cell_volume 6771.640827
_symmetry_space_group_name_H-M "C M C M"
_symmetry_group_IT_number 63
_symmetry_cell_setting 'orthorhombic'
loop_
_space_group_symop_operation_xyz
x,y,z
-x,-y,1/2+z
x,-y,-z
-x,y,1/2-z
-x,-y,-z
x,y,1/2-z
-x,y,z
x,-y,1/2+z
1/2+x,1/2+y,z
1/2-x,1/2-y,1/2+z
1/2+x,1/2-y,-z
1/2-x,1/2+y,1/2-z
1/2-x,1/2-y,-z
1/2+x,1/2+y,1/2-z
1/2-x,1/2+y,z
1/2+x,1/2-y,1/2+z
loop_
_atom_site_type_symbol
_atom_site_label
_atom_site_fract_x
_atom_site_fract_y
_atom_site_fract_z
Si Si1 0.613927 0.156480 0.413734
Si Si2 0.114312 0.564974 0.798612
Si Si3 0.889414 0.839263 0.452331
Si Si4 0.610923 0.530189 0.409906
Si Si5 0.740838 0.403206 0.979507
Si Si6 0.752625 0.417851 0.658100
Si Si7 0.384217 0.271392 0.798739
O O1 0.500000 0.131694 0.410255
O O2 0.623027 0.261898 0.420008
O O3 0.660391 0.119857 0.455531
O O4 0.673200 0.124819 0.374725
O O5 0.118757 0.561837 0.750000
O O6 0.186552 0.490064 0.816161
O O7 0.137149 0.667961 0.810342
O O8 0.000000 0.547805 0.810399
O O9 0.804581 0.840650 0.485979
O O10 0.000000 0.829464 0.470444
O O11 0.887445 0.933176 0.429857
O O12 0.500000 0.557967 0.402268
O O13 0.660832 0.591990 0.443613
O O14 0.672685 0.531846 0.369315
O O15 0.749829 0.500000 0.000000
O O16 0.692353 0.341467 0.682116
O O17 0.377734 0.276821 0.750000
O O18 0.500000 0.289111 0.809331
#
# Coordination Sequence:
#
# PCOD9473702 Si02
#       7
#    16  16  16  16  16  16  16
#     4  10  21  32  45  71 101 133 165 204 255 303
#     4   9  19  36  56  76 101 137 176 209 247 302
#     4   9  17  31  49  67  95 128 164 207 252 300
#     4   9  18  30  47  74 100 125 161 205 255 300
#     4   9  17  31  50  68  88 128 173 211 245 296
#     4  11  20  31  54  77 105 134 167 208 253 309
#     4   9  19  36  57  80 104 133 172 215 256 300
#
# _framework density 16.539566000000001
#
# number of rings (size 3 to 8) (size 9 to 14) (size 15 to 20)
#    0.000    2.571    0.000    3.000    2.000    2.000 
#    0.000    0.000    0.000    0.857    0.000    6.000 
#    0.000    0.000    0.000    0.000    0.000    0.000 
#
# Total GULP energy -311796.612321 kJ/mol
# GULP energy per Si atom -5567.796649 kJ/mol
# Density = 1.650192 g / cm^3
# Si number density = 16.539566 Si / 1000 Ang^3
#
#
#
# Elastic Constant Matrix: (Units=GPa)
#
#
# Indices 1 2 3 4 5 6 
#
# 1 110.0810 46.0392 39.9049 0.0000 0.0000 0.0000
# 2 46.0392 64.4932 27.7621 0.0000 0.0000 0.0000
# 3 39.9049 27.7621 56.3003 0.0000 0.0000 0.0000
# 4 0.0000 0.0000 0.0000 17.0156 0.0000 0.0000
# 5 0.0000 0.0000 0.0000 0.0000 23.8473 0.0000
# 6 0.0000 0.0000 0.0000 0.0000 0.0000 28.1898
#
#
#
# Elastic Compliance Matrix: (Units=1/GPa)
#
#
# Indices 1 2 3 4 5 6 
#
# 1 0.014680 -0.007618 -0.006649 0.000000 0.000000 0.000000
# 2 -0.007618 0.023636 -0.006256 0.000000 0.000000 0.000000
# 3 -0.006649 -0.006256 0.025559 0.000000 0.000000 0.000000
# 4 0.000000 0.000000 0.000000 0.058770 0.000000 0.000000
# 5 0.000000 0.000000 0.000000 0.000000 0.041933 0.000000
# 6 0.000000 0.000000 0.000000 0.000000 0.000000 0.035474
#
#
# Mechanical properties :
#
#
# Convention : Reuss Voigt Hill
#
# Bulk Modulus (GPa) = 43.79994 50.92077 47.36035
# Shear Modulus (GPa) = 20.10382 21.62177 20.86280
#
# Velocity S-wave (km/s) = 3.49018 3.61955 3.55545
# Velocity P-wave (km/s) = 6.54074 6.95142 6.74920
#
# Compressibility (1/GPa) = 0.02283108
#
# Stress axis : x y z
#
# Youngs Moduli (GPa) = 68.11789 42.30753 39.12440
#
# Poissons Ratio (x) = 0.32228 0.26014
# Poissons Ratio (y) = 0.51890 0.24476
# Poissons Ratio (z) = 0.45291 0.26468
#
# Static dielectric constant tensor:
#      x y z
#    x 1.570420 0.000000 0.000000 
#    y 0.000000 1.564120 0.000000 
#    z 0.000000 0.000000 1.536810 
# 
# From -- ./inp_files/72860.got.cif
#   From: 2010.05.17/outbox.cif.g08.bks.cpg/sg63_37_cif.got.tgz:72860.got - 2010.06.03 15:47:04.
