data_PCOD9473455
_publ_section_title
;
Structure prediction by ZEFSAII (Michael W. Deem and Ramdas Pophale) SiO2 
 PCOD9473455
Probable space group: C M C M
;
_chemical_formula_sum "Si O2"
_cell_formula_units_Z 116
_cell_length_a 26.960007
_cell_length_b 9.667682
_cell_length_c 23.888628
_cell_angle_alpha 90.000000
_cell_angle_beta 90.000000
_cell_angle_gamma 90.000000
_cell_volume 6226.350501
_symmetry_space_group_name_H-M "C M C M"
_symmetry_group_IT_number 63
_symmetry_cell_setting 'orthorhombic'
loop_
_space_group_symop_operation_xyz
x,y,z
-x,-y,1/2+z
x,-y,-z
-x,y,1/2-z
-x,-y,-z
x,y,1/2-z
-x,y,z
x,-y,1/2+z
1/2+x,1/2+y,z
1/2-x,1/2-y,1/2+z
1/2+x,1/2-y,-z
1/2-x,1/2+y,1/2-z
1/2-x,1/2-y,-z
1/2+x,1/2+y,1/2-z
1/2-x,1/2+y,z
1/2+x,1/2-y,1/2+z
loop_
_atom_site_type_symbol
_atom_site_label
_atom_site_fract_x
_atom_site_fract_y
_atom_site_fract_z
Si Si1 0.440847 0.686586 0.918576
Si Si2 0.559795 0.870758 0.812466
Si Si3 0.896610 0.655062 0.852809
Si Si4 0.415257 0.526624 0.340458
Si Si5 0.802359 0.014788 0.817001
Si Si6 0.500000 0.538579 0.750000
Si Si7 0.942172 0.346284 0.473902
Si Si8 0.712996 0.201840 0.818062
O O1 0.500000 0.705941 0.920874
O O2 0.429686 0.529043 0.901908
O O3 0.422960 0.781127 0.865919
O O4 0.422915 0.743102 0.977950
O O5 0.577687 0.829202 0.750000
O O6 0.500000 0.858460 0.810889
O O7 0.574725 0.029421 0.823334
O O8 0.910295 0.653266 0.917977
O O9 0.838268 0.639041 0.840779
O O10 0.912690 0.808066 0.832283
O O11 0.359959 0.469932 0.330871
O O12 0.456520 0.468342 0.298667
O O13 0.799354 0.017892 0.750000
O O14 0.762479 0.125077 0.837655
O O15 0.786396 0.861667 0.835295
O O16 0.942027 0.500000 0.500000
O O17 0.000000 0.314139 0.459520
O O18 0.710271 0.196012 0.750000
#
# Coordination Sequence:
#
# PCOD9473455 Si02
#       8
#    16  16  16  16  16   4  16  16
#     4  10  21  37  53  80 112 156 200 234 282 347
#     4  10  21  31  50  78 115 149 191 234 284 348
#     4  11  22  36  56  86 112 152 200 246 292 344
#     4  11  24  35  57  88 123 161 191 233 299 355
#     4   9  18  36  55  82 114 155 192 236 284 350
#     4  12  24  36  56  84 144 168 176 222 304 376
#     4  10  20  38  59  78 113 158 202 249 290 341
#     4   9  19  35  57  81 115 145 192 243 292 347
#
# _framework density 18.630496000000001
#
# number of rings (size 3 to 8) (size 9 to 14) (size 15 to 20)
#    0.000    1.931    2.759    0.828    4.828    1.655 
#    0.000    2.759    0.000    0.828    0.000    0.000 
#    0.000    0.000    0.000    0.000    0.000    0.000 
#
# Total GULP energy -323075.545102 kJ/mol
# GULP energy per Si atom -5570.268019 kJ/mol
# Density = 1.858809 g / cm^3
# Si number density = 18.630496 Si / 1000 Ang^3
#
#
#
# Elastic Constant Matrix: (Units=GPa)
#
#
# Indices 1 2 3 4 5 6 
#
# 1 86.9078 32.8647 43.4361 0.0000 0.0000 0.0000
# 2 32.8647 46.1526 9.8540 0.0000 0.0000 0.0000
# 3 43.4361 9.8540 55.2331 0.0000 0.0000 0.0000
# 4 0.0000 0.0000 0.0000 18.9453 0.0000 0.0000
# 5 0.0000 0.0000 0.0000 0.0000 20.7073 0.0000
# 6 0.0000 0.0000 0.0000 0.0000 0.0000 20.9527
#
#
#
# Elastic Compliance Matrix: (Units=1/GPa)
#
#
# Indices 1 2 3 4 5 6 
#
# 1 0.025947 -0.014679 -0.017786 0.000000 0.000000 0.000000
# 2 -0.014679 0.030830 0.006043 0.000000 0.000000 0.000000
# 3 -0.017786 0.006043 0.031014 0.000000 0.000000 0.000000
# 4 0.000000 0.000000 0.000000 0.052784 0.000000 0.000000
# 5 0.000000 0.000000 0.000000 0.000000 0.048292 0.000000
# 6 0.000000 0.000000 0.000000 0.000000 0.000000 0.047726
#
#
# Mechanical properties :
#
#
# Convention : Reuss Voigt Hill
#
# Bulk Modulus (GPa) = 28.61441 40.06700 34.34071
# Shear Modulus (GPa) = 16.60663 18.93032 17.76848
#
# Velocity S-wave (km/s) = 2.98882 3.19108 3.09160
# Velocity P-wave (km/s) = 5.22522 5.92707 5.58718
#
# Compressibility (1/GPa) = 0.03494742
#
# Stress axis : x y z
#
# Youngs Moduli (GPa) = 38.54050 32.43640 32.24342
#
# Poissons Ratio (x) = 0.47613 0.57348
# Poissons Ratio (y) = 0.56573 -0.19486
# Poissons Ratio (z) = 0.68548 -0.19603
#
# Static dielectric constant tensor:
#      x y z
#    x 1.625970 0.000000 0.000000 
#    y 0.000000 1.714900 0.000000 
#    z 0.000000 0.000000 1.650050 
# 
# From -- ./inp_files/65485.got.cif
#   From: 2010.05.17/outbox.cif.g08.bks.cpg/sg63_33_cif.got.tgz:65485.got - 2010.06.03 15:47:04.
