data_PCOD9473616
_publ_section_title
;
Structure prediction by ZEFSAII (Michael W. Deem and Ramdas Pophale) SiO2 
 PCOD9473616
Probable space group: C M C M
;
_chemical_formula_sum "Si O2"
_cell_formula_units_Z 96
_cell_length_a 20.820775
_cell_length_b 15.531966
_cell_length_c 15.377389
_cell_angle_alpha 90.000000
_cell_angle_beta 90.000000
_cell_angle_gamma 90.000000
_cell_volume 4972.856452
_symmetry_space_group_name_H-M "C M C M"
_symmetry_group_IT_number 63
_symmetry_cell_setting 'orthorhombic'
loop_
_space_group_symop_operation_xyz
x,y,z
-x,-y,1/2+z
x,-y,-z
-x,y,1/2-z
-x,-y,-z
x,y,1/2-z
-x,y,z
x,-y,1/2+z
1/2+x,1/2+y,z
1/2-x,1/2-y,1/2+z
1/2+x,1/2-y,-z
1/2-x,1/2+y,1/2-z
1/2-x,1/2-y,-z
1/2+x,1/2+y,1/2-z
1/2-x,1/2+y,z
1/2+x,1/2-y,1/2+z
loop_
_atom_site_type_symbol
_atom_site_label
_atom_site_fract_x
_atom_site_fract_y
_atom_site_fract_z
Si Si1 0.893184 0.200935 0.146813
Si Si2 0.755296 0.321994 0.851499
Si Si3 0.315069 0.352214 0.352569
Si Si4 0.794210 0.511773 0.599813
Si Si5 0.072945 0.597160 0.853214
Si Si6 0.430855 0.600228 0.521168
O O1 0.903869 0.178132 0.250000
O O2 0.818851 0.183492 0.123224
O O3 0.911269 0.301334 0.137909
O O4 0.928048 0.148269 0.071719
O O5 0.754040 0.301813 0.750000
O O6 0.794093 0.241587 0.888907
O O7 0.784334 0.416449 0.862199
O O8 0.332864 0.349378 0.250000
O O9 0.254544 0.417766 0.360440
O O10 0.373504 0.380349 0.412988
O O11 0.775993 0.500000 0.500000
O O12 0.867415 0.544621 0.607512
O O13 0.073398 0.578544 0.750000
O O14 0.000000 0.580214 0.885591
O O15 0.427702 0.500000 0.500000
O O16 0.500000 0.621167 0.562212
#
# Coordination Sequence:
#
# PCOD9473616 Si02
#       6
#    16  16  16  16  16  16
#     4  10  20  39  66  94 121 161 214 266 318 371
#     4  10  21  37  62  91 120 157 209 262 312 375
#     4  11  23  42  65  88 123 170 214 264 320 375
#     4  12  24  37  62  97 127 162 204 264 325 385
#     4  10  21  39  62  88 125 169 211 261 318 380
#     4  11  25  41  59  90 128 165 210 265 322 380
#
# _framework density 19.3048
#
# number of rings (size 3 to 8) (size 9 to 14) (size 15 to 20)
#    0.000    1.333    1.667    4.500    2.333    5.000 
#    0.000    2.500    0.000    1.000    0.000    0.000 
#    0.000    0.000    0.000    0.000    0.000    0.000 
#
# Total GULP energy -267825.798157 kJ/mol
# GULP energy per Si atom -5579.704128 kJ/mol
# Density = 1.926086 g / cm^3
# Si number density = 19.304800 Si / 1000 Ang^3
#
#
#
# Elastic Constant Matrix: (Units=GPa)
#
#
# Indices 1 2 3 4 5 6 
#
# 1 146.4634 55.5362 29.3515 0.0000 0.0000 0.0000
# 2 55.5362 99.3148 8.2418 0.0000 0.0000 0.0000
# 3 29.3515 8.2418 56.4295 0.0000 0.0000 0.0000
# 4 0.0000 0.0000 0.0000 44.3141 0.0000 0.0000
# 5 0.0000 0.0000 0.0000 0.0000 46.7308 0.0000
# 6 0.0000 0.0000 0.0000 0.0000 0.0000 2.9797
#
#
#
# Elastic Compliance Matrix: (Units=1/GPa)
#
#
# Indices 1 2 3 4 5 6 
#
# 1 0.009576 -0.005002 -0.004250 0.000000 0.000000 0.000000
# 2 -0.005002 0.012805 0.000732 0.000000 0.000000 0.000000
# 3 -0.004250 0.000732 0.019825 0.000000 0.000000 0.000000
# 4 0.000000 0.000000 0.000000 0.022566 0.000000 0.000000
# 5 0.000000 0.000000 0.000000 0.000000 0.021399 0.000000
# 6 0.000000 0.000000 0.000000 0.000000 0.000000 0.335599
#
#
# Mechanical properties :
#
#
# Convention : Reuss Voigt Hill
#
# Bulk Modulus (GPa) = 39.73808 54.27409 47.00609
# Shear Modulus (GPa) = 11.18065 32.74349 21.96207
#
# Velocity S-wave (km/s) = 2.40919 4.12288 3.37656
# Velocity P-wave (km/s) = 5.32618 7.13018 6.29316
#
# Compressibility (1/GPa) = 0.02516478
#
# Stress axis : x y z
#
# Youngs Moduli (GPa) = 104.42580 78.09151 50.44087
#
# Poissons Ratio (x) = 0.39063 0.21439
# Poissons Ratio (y) = 0.52236 -0.03690
# Poissons Ratio (z) = 0.44385 -0.05713
#
# Static dielectric constant tensor:
#      x y z
#    x 1.720650 0.000000 0.000000 
#    y 0.000000 1.636850 0.000000 
#    z 0.000000 0.000000 1.667560 
# 
# From -- ./inp_files/35360.got.cif
#   From: 2010.05.17/outbox.cif.g08.bks.cpg/sg63_18_cif.got.tgz:35360.got - 2010.06.03 15:47:04.
