data_PCOD9473962
_publ_section_title
;
Structure prediction by ZEFSAII (Michael W. Deem and Ramdas Pophale) SiO2 
 PCOD9473962
Probable space group: C M C M
;
_chemical_formula_sum "Si O2"
_cell_formula_units_Z 96
_cell_length_a 8.807694
_cell_length_b 24.105973
_cell_length_c 25.727268
_cell_angle_alpha 90.000000
_cell_angle_beta 90.000000
_cell_angle_gamma 90.000000
_cell_volume 5462.362956
_symmetry_space_group_name_H-M "C M C M"
_symmetry_group_IT_number 63
_symmetry_cell_setting 'orthorhombic'
loop_
_space_group_symop_operation_xyz
x,y,z
-x,-y,1/2+z
x,-y,-z
-x,y,1/2-z
-x,-y,-z
x,y,1/2-z
-x,y,z
x,-y,1/2+z
1/2+x,1/2+y,z
1/2-x,1/2-y,1/2+z
1/2+x,1/2-y,-z
1/2-x,1/2+y,1/2-z
1/2-x,1/2-y,-z
1/2+x,1/2+y,1/2-z
1/2-x,1/2+y,z
1/2+x,1/2-y,1/2+z
loop_
_atom_site_type_symbol
_atom_site_label
_atom_site_fract_x
_atom_site_fract_y
_atom_site_fract_z
Si Si1 0.180750 0.133927 0.098627
Si Si2 0.319366 0.936405 0.811118
Si Si3 0.181215 0.434879 0.503867
Si Si4 0.681961 0.247162 0.057999
Si Si5 0.317533 0.369726 0.093340
Si Si6 0.682565 0.443456 0.309691
O O1 0.238738 0.107885 0.152305
O O2 0.250769 0.194044 0.086962
O O3 0.000000 0.137128 0.097588
O O4 0.237972 0.093452 0.052757
O O5 0.287935 0.927116 0.750000
O O6 0.500000 0.934242 0.819286
O O7 0.259454 0.998130 0.823871
O O8 0.217623 0.500000 0.500000
O O9 0.236149 0.403661 0.452213
O O10 0.000000 0.428937 0.509792
O O11 0.500000 0.241961 0.054410
O O12 0.718603 0.304921 0.086727
O O13 0.750000 0.250000 0.000000
O O14 0.500000 0.375460 0.086535
O O15 0.276799 0.396457 0.148730
O O16 0.724184 0.429909 0.250000
O O17 0.500000 0.450879 0.311427
#
# Coordination Sequence:
#
# PCOD9473962 Si02
#       6
#    16  16  16  16  16  16
#     4  12  24  38  58  83 113 151 192 236 286 341
#     4  10  21  38  60  86 116 150 188 233 284 338
#     4  11  23  36  54  82 114 146 183 233 289 343
#     4  11  22  38  58  82 113 153 197 239 287 340
#     4  10  21  36  56  82 112 148 190 232 280 340
#     4   9  18  35  59  86 116 150 186 227 279 341
#
# _framework density 17.574811
#
# number of rings (size 3 to 8) (size 9 to 14) (size 15 to 20)
#    0.000    1.500    1.667    4.000    0.000    6.333 
#    0.000    0.833    0.000    3.000    0.000    0.000 
#    0.000    0.000    0.000    0.000    0.000    0.000 
#
# Total GULP energy -268247.798932 kJ/mol
# GULP energy per Si atom -5588.495811 kJ/mol
# Density = 1.753481 g / cm^3
# Si number density = 17.574811 Si / 1000 Ang^3
#
#
#
# Elastic Constant Matrix: (Units=GPa)
#
#
# Indices 1 2 3 4 5 6 
#
# 1 73.2641 84.1049 58.6540 0.0000 0.0000 0.0000
# 2 84.1049 181.1178 95.2735 0.0000 0.0000 0.0000
# 3 58.6540 95.2735 101.5067 0.0000 0.0000 0.0000
# 4 0.0000 0.0000 0.0000 14.9245 0.0000 0.0000
# 5 0.0000 0.0000 0.0000 0.0000 28.4007 0.0000
# 6 0.0000 0.0000 0.0000 0.0000 0.0000 28.3316
#
#
#
# Elastic Compliance Matrix: (Units=1/GPa)
#
#
# Indices 1 2 3 4 5 6 
#
# 1 0.033149 -0.010503 -0.009297 0.000000 0.000000 0.000000
# 2 -0.010503 0.014234 -0.007291 0.000000 0.000000 0.000000
# 3 -0.009297 -0.007291 0.022066 0.000000 0.000000 0.000000
# 4 0.000000 0.000000 0.000000 0.067004 0.000000 0.000000
# 5 0.000000 0.000000 0.000000 0.000000 0.035210 0.000000
# 6 0.000000 0.000000 0.000000 0.000000 0.000000 0.035296
#
#
# Mechanical properties :
#
#
# Convention : Reuss Voigt Hill
#
# Bulk Modulus (GPa) = 65.49374 92.43928 78.96651
# Shear Modulus (GPa) = 18.78081 22.18845 20.48463
#
# Velocity S-wave (km/s) = 3.27252 3.55704 3.41774
# Velocity P-wave (km/s) = 7.18511 8.34157 7.78485
#
# Compressibility (1/GPa) = 0.01526863
#
# Stress axis : x y z
#
# Youngs Moduli (GPa) = 30.16680 70.25674 45.31798
#
# Poissons Ratio (x) = 0.73790 0.42130
# Poissons Ratio (y) = 0.31684 0.33039
# Poissons Ratio (z) = 0.28045 0.51221
#
# Static dielectric constant tensor:
#      x y z
#    x 1.590590 0.000000 0.000000 
#    y 0.000000 1.573810 0.000000 
#    z 0.000000 0.000000 1.583400 
# 
# From -- ./inp_files/59889.got.cif
#   From: 2010.05.17/outbox.cif.g08.bks.cpg/sg63_30_cif.got.tgz:59889.got - 2010.06.03 15:47:04.
