data_PCOD9473916
_publ_section_title
;
Structure prediction by ZEFSAII (Michael W. Deem and Ramdas Pophale) SiO2 
 PCOD9473916
Probable space group: C M C M
;
_chemical_formula_sum "Si O2"
_cell_formula_units_Z 116
_cell_length_a 30.230135
_cell_length_b 25.329887
_cell_length_c 7.991621
_cell_angle_alpha 90.000000
_cell_angle_beta 90.000000
_cell_angle_gamma 90.000000
_cell_volume 6119.391211
_symmetry_space_group_name_H-M "C M C M"
_symmetry_group_IT_number 63
_symmetry_cell_setting 'orthorhombic'
loop_
_space_group_symop_operation_xyz
x,y,z
-x,-y,1/2+z
x,-y,-z
-x,y,1/2-z
-x,-y,-z
x,y,1/2-z
-x,y,z
x,-y,1/2+z
1/2+x,1/2+y,z
1/2-x,1/2-y,1/2+z
1/2+x,1/2-y,-z
1/2-x,1/2+y,1/2-z
1/2-x,1/2-y,-z
1/2+x,1/2+y,1/2-z
1/2-x,1/2+y,z
1/2+x,1/2-y,1/2+z
loop_
_atom_site_type_symbol
_atom_site_label
_atom_site_fract_x
_atom_site_fract_y
_atom_site_fract_z
Si Si1 0.300268 0.757346 0.443571
Si Si2 0.564953 0.863799 0.445436
Si Si3 0.000000 0.606440 0.250000
Si Si4 0.337351 0.865724 0.944738
Si Si5 0.657546 0.559307 0.945573
Si Si6 0.549594 0.738707 0.049941
Si Si7 0.367255 0.329272 0.051941
Si Si8 0.241222 0.559231 0.450491
O O1 0.301188 0.772558 0.250000
O O2 0.250000 0.750000 0.500000
O O3 0.324042 0.804444 0.541911
O O4 0.328205 0.704246 0.468022
O O5 0.551328 0.873743 0.250000
O O6 0.538117 0.890833 0.597224
O O7 0.616953 0.875670 0.461133
O O8 0.558812 0.800809 0.478161
O O9 0.344025 0.879182 0.750000
O O10 0.295672 0.899534 0.008557
O O11 0.649505 0.559354 0.750000
O O12 0.632661 0.610753 0.015608
O O13 0.646302 0.500000 0.000000
O O14 0.709790 0.568168 0.978260
O O15 0.550529 0.731329 0.250000
O O16 0.500000 0.727258 0.987853
O O17 0.587247 0.701905 0.975189
O O18 0.357791 0.330216 0.250000
O O19 0.227883 0.500000 0.500000
O O20 0.244951 0.562827 0.250000
#
# Coordination Sequence:
#
# PCOD9473916 Si02
#       8
#    16  16   4  16  16  16  16  16
#     4  12  24  36  52  77 112 155 191 229 282 347
#     4  11  22  36  56  85 117 154 195 239 292 351
#     4  12  22  36  60  82 118 156 194 244 292 346
#     4  11  22  37  55  82 118 153 191 237 288 345
#     4  10  21  37  57  81 108 145 190 238 286 339
#     4  10  21  36  54  80 113 147 190 234 284 342
#     4  11  23  36  55  82 112 145 188 232 285 346
#     4  10  21  36  58  83 112 148 193 238 284 338
#
# _framework density 18.956135
#
# number of rings (size 3 to 8) (size 9 to 14) (size 15 to 20)
#    0.000    1.241    2.759    4.759    0.966    6.897 
#    0.000    0.000    0.000    0.414    0.000    0.483 
#    0.000    0.000    0.000    0.000    0.000    0.000 
#
# Total GULP energy -323322.693851 kJ/mol
# GULP energy per Si atom -5574.529204 kJ/mol
# Density = 1.891299 g / cm^3
# Si number density = 18.956135 Si / 1000 Ang^3
#
#
#
# Elastic Constant Matrix: (Units=GPa)
#
#
# Indices 1 2 3 4 5 6 
#
# 1 43.9235 -10.7764 -1.7385 0.0000 0.0000 0.0000
# 2 -10.7764 31.7236 -5.5684 0.0000 0.0000 0.0000
# 3 -1.7385 -5.5684 50.0723 0.0000 0.0000 0.0000
# 4 0.0000 0.0000 0.0000 16.0960 0.0000 0.0000
# 5 0.0000 0.0000 0.0000 0.0000 23.1099 0.0000
# 6 0.0000 0.0000 0.0000 0.0000 0.0000 9.5484
#
#
#
# Elastic Compliance Matrix: (Units=1/GPa)
#
#
# Indices 1 2 3 4 5 6 
#
# 1 0.025004 0.008818 0.001849 0.000000 0.000000 0.000000
# 2 0.008818 0.035260 0.004227 0.000000 0.000000 0.000000
# 3 0.001849 0.004227 0.020505 0.000000 0.000000 0.000000
# 4 0.000000 0.000000 0.000000 0.062127 0.000000 0.000000
# 5 0.000000 0.000000 0.000000 0.000000 0.043271 0.000000
# 6 0.000000 0.000000 0.000000 0.000000 0.000000 0.104730
#
#
# Mechanical properties :
#
#
# Convention : Reuss Voigt Hill
#
# Bulk Modulus (GPa) = 9.04510 9.95030 9.49770
# Shear Modulus (GPa) = 16.78071 19.33770 18.05921
#
# Velocity S-wave (km/s) = 2.97852 3.19741 3.08991
# Velocity P-wave (km/s) = 4.07563 4.34647 4.21322
#
# Compressibility (1/GPa) = 0.11055714
#
# Stress axis : x y z
#
# Youngs Moduli (GPa) = 39.99433 28.36094 48.76757
#
# Poissons Ratio (x) = -0.25009 -0.09016
# Poissons Ratio (y) = -0.35268 -0.20615
# Poissons Ratio (z) = -0.07394 -0.11989
#
# Static dielectric constant tensor:
#      x y z
#    x 1.637650 0.000000 0.000000 
#    y 0.000000 1.647620 0.000000 
#    z 0.000000 0.000000 1.643910 
# 
# From -- ./inp_files/14730.got.cif
#   From: 2010.05.17/outbox.cif.g08.bks.cpg/sg63_8_cif.got.tgz:14730.got - 2010.06.03 15:47:04.
