data_PCOD9473159
_publ_section_title
;
Structure prediction by ZEFSAII (Michael W. Deem and Ramdas Pophale) SiO2 
 PCOD9473159
Probable space group: C M C M
;
_chemical_formula_sum "Si O2"
_cell_formula_units_Z 80
_cell_length_a 11.784295
_cell_length_b 20.316594
_cell_length_c 18.586384
_cell_angle_alpha 90.000000
_cell_angle_beta 90.000000
_cell_angle_gamma 90.000000
_cell_volume 4449.891412
_symmetry_space_group_name_H-M "C M C M"
_symmetry_group_IT_number 63
_symmetry_cell_setting 'orthorhombic'
loop_
_space_group_symop_operation_xyz
x,y,z
-x,-y,1/2+z
x,-y,-z
-x,y,1/2-z
-x,-y,-z
x,y,1/2-z
-x,y,z
x,-y,1/2+z
1/2+x,1/2+y,z
1/2-x,1/2-y,1/2+z
1/2+x,1/2-y,-z
1/2-x,1/2+y,1/2-z
1/2-x,1/2-y,-z
1/2+x,1/2+y,1/2-z
1/2-x,1/2+y,z
1/2+x,1/2-y,1/2+z
loop_
_atom_site_type_symbol
_atom_site_label
_atom_site_fract_x
_atom_site_fract_y
_atom_site_fract_z
Si Si1 0.000000 0.253817 0.833216
Si Si2 0.251581 0.577623 0.336795
Si Si3 0.500000 0.088017 0.166489
Si Si4 0.709350 0.685671 0.587274
Si Si5 0.867295 0.060290 0.663860
Si Si6 0.865034 0.195832 0.422507
O O1 0.890139 0.225915 0.872681
O O2 0.000000 0.232565 0.750000
O O3 0.000000 0.332599 0.835446
O O4 0.247589 0.586113 0.250000
O O5 0.326395 0.513409 0.352790
O O6 0.305741 0.642393 0.371329
O O7 0.122103 0.567116 0.363688
O O8 0.500000 0.066393 0.250000
O O9 0.707790 0.614290 0.623318
O O10 0.820658 0.730594 0.594360
O O11 0.675805 0.680852 0.503718
O O12 0.857719 0.069391 0.750000
O O13 0.000000 0.069402 0.644248
O O14 0.000000 0.191215 0.417520
#
# Coordination Sequence:
#
# PCOD9473159 Si02
#       6
#     8  16   8  16  16  16
#     4  11  18  34  64  86 105 142 200 248 272 323
#     4  10  21  37  58  83 112 151 192 235 286 337
#     4   9  18  34  58  82 105 143 197 241 273 329
#     4  11  22  37  58  86 114 147 190 232 287 338
#     4  10  20  36  59  85 112 144 189 241 284 331
#     4  11  23  38  57  82 119 153 183 232 286 343
#
# _framework density 17.977967
#
# number of rings (size 3 to 8) (size 9 to 14) (size 15 to 20)
#    0.000    1.600    4.000    1.200    0.000    2.800 
#    1.800    2.000    0.000    1.200    0.000    0.000 
#    0.000    0.000    0.000    0.000    0.000    0.000 
#
# Total GULP energy -223257.432970 kJ/mol
# GULP energy per Si atom -5581.435824 kJ/mol
# Density = 1.793705 g / cm^3
# Si number density = 17.977967 Si / 1000 Ang^3
#
#
#
# Elastic Constant Matrix: (Units=GPa)
#
#
# Indices 1 2 3 4 5 6 
#
# 1 90.2401 46.4280 11.8756 0.0000 0.0000 0.0000
# 2 46.4280 99.1586 40.0421 0.0000 0.0000 0.0000
# 3 11.8756 40.0421 45.6024 0.0000 0.0000 0.0000
# 4 0.0000 0.0000 0.0000 832.2372 0.0000 0.0000
# 5 0.0000 0.0000 0.0000 0.0000 20.0823 0.0000
# 6 0.0000 0.0000 0.0000 0.0000 0.0000 20.8721
#
#
#
# Elastic Compliance Matrix: (Units=1/GPa)
#
#
# Indices 1 2 3 4 5 6 
#
# 1 0.014948 -0.008409 0.003491 0.000000 0.000000 0.000000
# 2 -0.008409 0.020355 -0.015684 0.000000 0.000000 0.000000
# 3 0.003491 -0.015684 0.034791 0.000000 0.000000 0.000000
# 4 0.000000 0.000000 0.000000 0.001202 0.000000 0.000000
# 5 0.000000 0.000000 0.000000 0.000000 0.049795 0.000000
# 6 0.000000 0.000000 0.000000 0.000000 0.000000 0.047911
#
#
# Mechanical properties :
#
#
# Convention : Reuss Voigt Hill
#
# Bulk Modulus (GPa) = 34.61250 47.96583 41.28916
# Shear Modulus (GPa) = 22.74422 183.74869 103.24646
#
# Velocity S-wave (km/s) = 3.56071 10.12075 7.58644
# Velocity P-wave (km/s) = 6.01659 12.77932 9.98775
#
# Compressibility (1/GPa) = 0.02889130
#
# Stress axis : x y z
#
# Youngs Moduli (GPa) = 66.89678 49.12723 28.74307
#
# Poissons Ratio (x) = 0.41310 -0.10033
# Poissons Ratio (y) = 0.56252 0.45080
# Poissons Ratio (z) = -0.23351 0.77049
#
# Static dielectric constant tensor:
#      x y z
#    x 1.611580 0.000000 0.000000 
#    y 0.000000 1.600930 0.000000 
#    z 0.000000 0.000000 1.617150 
# 
# From -- ./inp_files/52470.got.cif
#   From: 2010.05.17/outbox.cif.g08.bks.cpg/sg63_27_cif.got.tgz:52470.got - 2010.06.03 15:47:04.
