data_PCOD9473735
_publ_section_title
;
Structure prediction by ZEFSAII (Michael W. Deem and Ramdas Pophale) SiO2 
 PCOD9473735
Probable space group: C M C M
;
_chemical_formula_sum "Si O2"
_cell_formula_units_Z 64
_cell_length_a 7.321810
_cell_length_b 14.761455
_cell_length_c 25.971448
_cell_angle_alpha 90.000000
_cell_angle_beta 90.000000
_cell_angle_gamma 90.000000
_cell_volume 2807.008873
_symmetry_space_group_name_H-M "C M C M"
_symmetry_group_IT_number 63
_symmetry_cell_setting 'orthorhombic'
loop_
_space_group_symop_operation_xyz
x,y,z
-x,-y,1/2+z
x,-y,-z
-x,y,1/2-z
-x,-y,-z
x,y,1/2-z
-x,y,z
x,-y,1/2+z
1/2+x,1/2+y,z
1/2-x,1/2-y,1/2+z
1/2+x,1/2-y,-z
1/2-x,1/2+y,1/2-z
1/2-x,1/2-y,-z
1/2+x,1/2+y,1/2-z
1/2-x,1/2+y,z
1/2+x,1/2-y,1/2+z
loop_
_atom_site_type_symbol
_atom_site_label
_atom_site_fract_x
_atom_site_fract_y
_atom_site_fract_z
Si Si1 0.787156 0.158155 0.250000
Si Si2 0.776274 0.835784 0.862084
Si Si3 0.721408 0.125875 0.638192
Si Si4 0.713017 0.879113 0.250000
Si Si5 0.710053 0.523491 0.055384
O O1 0.711721 0.130788 0.194364
O O2 0.780285 0.268661 0.250000
O O3 0.000000 0.131973 0.250000
O O4 0.725903 0.730765 0.868261
O O5 0.711101 0.896896 0.909099
O O6 0.000000 0.839172 0.860653
O O7 0.500000 0.123247 0.639031
O O8 0.788387 0.092963 0.694550
O O9 0.786161 0.063823 0.592040
O O10 0.500000 0.904914 0.250000
O O11 0.500000 0.550680 0.045290
O O12 0.792429 0.500000 0.000000
#
# Coordination Sequence:
#
# PCOD9473735 Si02
#       5
#     8  16  16   8  16
#     4   7  10  21  44  69  88 113 154 191 223 282
#     4   8  15  29  48  68  92 123 155 190 236 288
#     4   9  17  32  53  72  91 120 158 195 234 286
#     4   7  12  25  47  73  94 111 142 195 245 278
#     4  10  21  34  46  67 100 131 161 200 240 273
#
# _framework density 22.800072
#
# number of rings (size 3 to 8) (size 9 to 14) (size 15 to 20)
#    0.000    3.500    0.000    3.000    0.000    2.500 
#    0.000    3.125    0.000    0.000    0.000    1.750 
#    0.000    0.000    0.000    0.000    0.000    0.000 
#
# Total GULP energy -178548.126252 kJ/mol
# GULP energy per Si atom -5579.628945 kJ/mol
# Density = 2.274818 g / cm^3
# Si number density = 22.800072 Si / 1000 Ang^3
#
#
#
# Elastic Constant Matrix: (Units=GPa)
#
#
# Indices 1 2 3 4 5 6 
#
# 1 90.7189 -10.6481 -2.2843 0.0000 0.0000 0.0000
# 2 -10.6481 83.0694 58.4458 0.0000 0.0000 0.0000
# 3 -2.2843 58.4458 216.9661 0.0000 0.0000 0.0000
# 4 0.0000 0.0000 0.0000 38.6095 0.0000 0.0000
# 5 0.0000 0.0000 0.0000 0.0000 76.5806 0.0000
# 6 0.0000 0.0000 0.0000 0.0000 0.0000 2.6624
#
#
#
# Elastic Compliance Matrix: (Units=1/GPa)
#
#
# Indices 1 2 3 4 5 6 
#
# 1 0.011211 0.001671 -0.000332 0.000000 0.000000 0.000000
# 2 0.001671 0.015102 -0.004051 0.000000 0.000000 0.000000
# 3 -0.000332 -0.004051 0.005697 0.000000 0.000000 0.000000
# 4 0.000000 0.000000 0.000000 0.025900 0.000000 0.000000
# 5 0.000000 0.000000 0.000000 0.000000 0.013058 0.000000
# 6 0.000000 0.000000 0.000000 0.000000 0.000000 0.375595
#
#
# Mechanical properties :
#
#
# Convention : Reuss Voigt Hill
#
# Bulk Modulus (GPa) = 37.61425 53.53126 45.57275
# Shear Modulus (GPa) = 10.84954 46.58658 28.71806
#
# Velocity S-wave (km/s) = 2.18378 4.52515 3.55288
# Velocity P-wave (km/s) = 4.78453 7.12967 6.07141
#
# Compressibility (1/GPa) = 0.02658567
#
# Stress axis : x y z
#
# Youngs Moduli (GPa) = 89.19980 66.21561 175.54146
#
# Poissons Ratio (x) = -0.11062 0.05828
# Poissons Ratio (y) = -0.14902 0.71105
# Poissons Ratio (z) = 0.02961 0.26821
#
# Static dielectric constant tensor:
#      x y z
#    x 1.851600 0.000000 0.000000 
#    y 0.000000 1.827100 0.000000 
#    z 0.000000 0.000000 1.851790 
# 
# From -- ./inp_files/59114.got.cif
#   From: 2010.05.17/outbox.cif.g08.bks.cpg/sg63_30_cif.got.tgz:59114.got - 2010.06.03 15:47:04.
