data_PCOD9473969
_publ_section_title
;
Structure prediction by ZEFSAII (Michael W. Deem and Ramdas Pophale) SiO2 
 PCOD9473969
Probable space group: C M C M
;
_chemical_formula_sum "Si O2"
_cell_formula_units_Z 64
_cell_length_a 13.297913
_cell_length_b 12.639105
_cell_length_c 14.906661
_cell_angle_alpha 90.000000
_cell_angle_beta 90.000000
_cell_angle_gamma 90.000000
_cell_volume 2505.417947
_symmetry_space_group_name_H-M "C M C M"
_symmetry_group_IT_number 63
_symmetry_cell_setting 'orthorhombic'
loop_
_space_group_symop_operation_xyz
x,y,z
-x,-y,1/2+z
x,-y,-z
-x,y,1/2-z
-x,-y,-z
x,y,1/2-z
-x,y,z
x,-y,1/2+z
1/2+x,1/2+y,z
1/2-x,1/2-y,1/2+z
1/2+x,1/2-y,-z
1/2-x,1/2+y,1/2-z
1/2-x,1/2-y,-z
1/2+x,1/2+y,1/2-z
1/2-x,1/2+y,z
1/2+x,1/2-y,1/2+z
loop_
_atom_site_type_symbol
_atom_site_label
_atom_site_fract_x
_atom_site_fract_y
_atom_site_fract_z
Si Si1 0.828747 0.001660 0.107709
Si Si2 0.392822 0.734844 0.145096
Si Si3 0.671699 0.727796 0.644764
Si Si4 0.892544 0.549149 0.098886
O O1 0.871717 0.889132 0.136554
O O2 0.883902 0.107540 0.138371
O O3 0.712865 0.011891 0.141233
O O4 0.828025 0.000000 0.000000
O O5 0.393932 0.764221 0.250000
O O6 0.500000 0.768333 0.104877
O O7 0.286797 0.776056 0.108021
O O8 0.674648 0.756506 0.750000
O O9 0.616849 0.823711 0.596489
O O10 0.000000 0.521900 0.142142
O O11 0.893394 0.500000 0.000000
#
# Coordination Sequence:
#
# PCOD9473969 Si02
#       4
#    16  16  16  16
#     4  10  21  36  56  84 117 151 188 233 284 337
#     4   9  19  36  56  79 109 146 189 236 285 337
#     4  10  21  38  59  83 113 150 191 234 282 338
#     4   9  20  38  59  85 117 151 189 235 286 339
#
# _framework density 25.544640000000001
#
# number of rings (size 3 to 8) (size 9 to 14) (size 15 to 20)
#    0.000    2.500    0.000    0.750    0.000   13.000 
#    0.000    5.000    0.000    0.000    0.000    0.000 
#    0.000    0.000    0.000    0.000    0.000    0.000 
#
# Total GULP energy -178982.917547 kJ/mol
# GULP energy per Si atom -5593.216173 kJ/mol
# Density = 2.548650 g / cm^3
# Si number density = 25.544640 Si / 1000 Ang^3
#
#
#
# Elastic Constant Matrix: (Units=GPa)
#
#
# Indices 1 2 3 4 5 6 
#
# 1 130.8970 -5.9210 12.5274 0.0000 0.0000 0.0000
# 2 -5.9210 132.6117 -10.2082 0.0000 0.0000 0.0000
# 3 12.5274 -10.2082 86.4510 0.0000 0.0000 0.0000
# 4 0.0000 0.0000 0.0000 12.8168 0.0000 0.0000
# 5 0.0000 0.0000 0.0000 0.0000 -12.7701 0.0000
# 6 0.0000 0.0000 0.0000 0.0000 0.0000 -22.1994
#
#
#
# Elastic Compliance Matrix: (Units=1/GPa)
#
#
# Indices 1 2 3 4 5 6 
#
# 1 0.007756 0.000262 -0.001093 0.000000 0.000000 0.000000
# 2 0.000262 0.007619 0.000862 0.000000 0.000000 0.000000
# 3 -0.001093 0.000862 0.011827 0.000000 0.000000 0.000000
# 4 0.000000 0.000000 0.000000 0.078022 0.000000 0.000000
# 5 0.000000 0.000000 0.000000 0.000000 -0.078308 0.000000
# 6 0.000000 0.000000 0.000000 0.000000 0.000000 -0.045046
#
#
# Mechanical properties :
#
#
# Convention : Reuss Voigt Hill
#
# Bulk Modulus (GPa) = 36.67841 38.08401 37.38121
# Shear Modulus (GPa) = -549.27942 19.14022 -265.06960
#
# Velocity S-wave (km/s) = -14.67972 2.74028 -10.19767
# Velocity P-wave (km/s) = 16.52077 4.99533 11.13513
#
# Compressibility (1/GPa) = 0.02726400
#
# Stress axis : x y z
#
# Youngs Moduli (GPa) = 128.93159 131.25344 84.54969
#
# Poissons Ratio (x) = -0.03441 0.09241
# Poissons Ratio (y) = -0.03380 -0.07285
# Poissons Ratio (z) = 0.14092 -0.11309
#
# Static dielectric constant tensor:
#      x y z
#    x 2.044700 0.000000 0.000000 
#    y 0.000000 1.979630 0.000000 
#    z 0.000000 0.000000 1.962230 
# 
# From -- ./inp_files/31110.got.cif
#   From: 2010.05.17/outbox.cif.g08.bks.cpg/sg63_16_cif.got.tgz:31110.got - 2010.06.03 15:47:04.
