data_PCOD9473276
_publ_section_title
;
Structure prediction by ZEFSAII (Michael W. Deem and Ramdas Pophale) SiO2 
 PCOD9473276
Probable space group: C M C M
;
_chemical_formula_sum "Si O2"
_cell_formula_units_Z 64
_cell_length_a 13.001327
_cell_length_b 14.579456
_cell_length_c 18.340512
_cell_angle_alpha 90.000000
_cell_angle_beta 90.000000
_cell_angle_gamma 90.000000
_cell_volume 3476.485773
_symmetry_space_group_name_H-M "C M C M"
_symmetry_group_IT_number 63
_symmetry_cell_setting 'orthorhombic'
loop_
_space_group_symop_operation_xyz
x,y,z
-x,-y,1/2+z
x,-y,-z
-x,y,1/2-z
-x,-y,-z
x,y,1/2-z
-x,y,z
x,-y,1/2+z
1/2+x,1/2+y,z
1/2-x,1/2-y,1/2+z
1/2+x,1/2-y,-z
1/2-x,1/2+y,1/2-z
1/2-x,1/2-y,-z
1/2+x,1/2+y,1/2-z
1/2-x,1/2+y,z
1/2+x,1/2-y,1/2+z
loop_
_atom_site_type_symbol
_atom_site_label
_atom_site_fract_x
_atom_site_fract_y
_atom_site_fract_z
Si Si1 0.000000 0.452956 0.167257
Si Si2 0.813482 0.293619 0.565247
Si Si3 0.619337 0.377350 0.163258
Si Si4 0.500000 0.891541 0.014198
Si Si5 0.274388 0.042571 0.164843
O O1 0.000000 0.380623 0.101601
O O2 0.105539 0.511251 0.159233
O O3 0.000000 0.415628 0.250000
O O4 0.750000 0.250000 0.500000
O O5 0.854892 0.213363 0.617661
O O6 0.903537 0.347138 0.524427
O O7 0.756775 0.369532 0.614518
O O8 0.630562 0.359040 0.250000
O O9 0.500000 0.403754 0.150357
O O10 0.699645 0.458228 0.144462
O O11 0.500000 0.000000 0.000000
O O12 0.255857 0.064038 0.250000
#
# Coordination Sequence:
#
# PCOD9473276 Si02
#       5
#     8  16  16   8  16
#     4  10  20  36  64  90 116 158 206 254 309 367
#     4  12  24  38  62  93 126 161 205 261 312 369
#     4  10  22  42  65  91 124 165 215 259 309 382
#     4  12  22  40  60  89 124 155 202 254 312 368
#     4  10  21  40  65  92 123 164 208 260 316 371
#
# _framework density 18.409395
#
# number of rings (size 3 to 8) (size 9 to 14) (size 15 to 20)
#    0.000    1.250    3.750    2.250    0.000    0.000 
#    2.250    2.500    0.000    0.000    0.000    0.000 
#    0.000    0.000    0.000    0.000    0.000    0.000 
#
# Total GULP energy -178663.358399 kJ/mol
# GULP energy per Si atom -5583.229950 kJ/mol
# Density = 1.836749 g / cm^3
# Si number density = 18.409395 Si / 1000 Ang^3
#
#
#
# Elastic Constant Matrix: (Units=GPa)
#
#
# Indices 1 2 3 4 5 6 
#
# 1 106.6621 80.3561 42.0855 0.0000 0.0000 0.0000
# 2 80.3561 141.5720 83.1499 0.0000 0.0000 0.0000
# 3 42.0855 83.1499 118.3963 0.0000 0.0000 0.0000
# 4 0.0000 0.0000 0.0000 48.5899 0.0000 0.0000
# 5 0.0000 0.0000 0.0000 0.0000 24.6224 0.0000
# 6 0.0000 0.0000 0.0000 0.0000 0.0000 15.0890
#
#
#
# Elastic Compliance Matrix: (Units=1/GPa)
#
#
# Indices 1 2 3 4 5 6 
#
# 1 0.016481 -0.010066 0.001211 0.000000 0.000000 0.000000
# 2 -0.010066 0.018170 -0.009183 0.000000 0.000000 0.000000
# 3 0.001211 -0.009183 0.014465 0.000000 0.000000 0.000000
# 4 0.000000 0.000000 0.000000 0.020580 0.000000 0.000000
# 5 0.000000 0.000000 0.000000 0.000000 0.040613 0.000000
# 6 0.000000 0.000000 0.000000 0.000000 0.000000 0.066273
#
#
# Mechanical properties :
#
#
# Convention : Reuss Voigt Hill
#
# Bulk Modulus (GPa) = 76.68479 86.42369 81.55424
# Shear Modulus (GPa) = 23.04084 28.39620 25.71852
#
# Velocity S-wave (km/s) = 3.54161 3.93171 3.74174
# Velocity P-wave (km/s) = 7.64654 8.22548 7.94129
#
# Compressibility (1/GPa) = 0.01304040
#
# Stress axis : x y z
#
# Youngs Moduli (GPa) = 60.67662 55.03485 69.13189
#
# Poissons Ratio (x) = 0.55396 -0.08370
# Poissons Ratio (y) = 0.61075 0.63484
# Poissons Ratio (z) = -0.07347 0.50539
#
# Static dielectric constant tensor:
#      x y z
#    x 1.632210 0.000000 0.000000 
#    y 0.000000 1.611030 0.000000 
#    z 0.000000 0.000000 1.657440 
# 
# From -- ./inp_files/41559.got.cif
#   From: 2010.05.17/outbox.cif.g08.bks.cpg/sg63_21_cif.got.tgz:41559.got - 2010.06.03 15:47:04.
