data_PCOD9473770
_publ_section_title
;
Structure prediction by ZEFSAII (Michael W. Deem and Ramdas Pophale) SiO2 
 PCOD9473770
Probable space group: C M C M
;
_chemical_formula_sum "Si O2"
_cell_formula_units_Z 116
_cell_length_a 7.871070
_cell_length_b 31.300820
_cell_length_c 24.592842
_cell_angle_alpha 90.000000
_cell_angle_beta 90.000000
_cell_angle_gamma 90.000000
_cell_volume 6058.961731
_symmetry_space_group_name_H-M "C M C M"
_symmetry_group_IT_number 63
_symmetry_cell_setting 'orthorhombic'
loop_
_space_group_symop_operation_xyz
x,y,z
-x,-y,1/2+z
x,-y,-z
-x,y,1/2-z
-x,-y,-z
x,y,1/2-z
-x,y,z
x,-y,1/2+z
1/2+x,1/2+y,z
1/2-x,1/2-y,1/2+z
1/2+x,1/2-y,-z
1/2-x,1/2+y,1/2-z
1/2-x,1/2-y,-z
1/2+x,1/2+y,1/2-z
1/2-x,1/2+y,z
1/2+x,1/2-y,1/2+z
loop_
_atom_site_type_symbol
_atom_site_label
_atom_site_fract_x
_atom_site_fract_y
_atom_site_fract_z
Si Si1 0.797512 0.766858 0.312697
Si Si2 0.000000 0.155334 0.250000
Si Si3 0.302827 0.172866 0.163924
Si Si4 0.196568 0.940951 0.377574
Si Si5 0.800362 0.902563 0.898572
Si Si6 0.196636 0.452367 0.497272
Si Si7 0.292397 0.525090 0.312735
Si Si8 0.199169 0.640143 0.687404
O O1 0.736712 0.759696 0.250000
O O2 0.762761 0.723092 0.344124
O O3 0.722317 0.811368 0.332912
O O4 0.000000 0.772631 0.311040
O O5 0.153675 0.156398 0.203599
O O6 0.500000 0.171224 0.184533
O O7 0.290954 0.142153 0.112162
O O8 0.289086 0.938169 0.435087
O O9 0.259867 0.979928 0.339555
O O10 0.210192 0.896437 0.346225
O O11 0.000000 0.950507 0.389656
O O12 0.000000 0.897173 0.890019
O O13 0.738161 0.937034 0.853269
O O14 0.777120 0.921739 0.958281
O O15 0.272932 0.500000 0.500000
O O16 0.000000 0.455579 0.513275
O O17 0.235820 0.529808 0.250000
O O18 0.500000 0.525754 0.311280
O O19 0.260952 0.640068 0.750000
O O20 0.000000 0.629983 0.687355
#
# Coordination Sequence:
#
# PCOD9473770 Si02
#       8
#    16   4  16  16  16  16  16  16
#     4   9  18  33  54  82 116 156 197 240 284 347
#     4  12  22  36  60  86 122 172 198 248 296 366
#     4  11  23  37  57  88 125 160 205 248 297 357
#     4  11  21  37  59  82 111 150 196 246 294 349
#     4  11  22  37  60  86 117 155 201 246 298 355
#     4  11  23  40  61  82 112 150 199 256 301 350
#     4   9  19  32  52  81 116 151 188 231 288 356
#     4  10  21  34  55  85 121 155 192 237 293 358
#
# _framework density 19.145195000000001
#
# number of rings (size 3 to 8) (size 9 to 14) (size 15 to 20)
#    0.000    1.655    2.759    2.276    1.931    1.931 
#    0.000    0.000    0.000    3.310    0.000    0.000 
#    0.000    0.000    0.000    0.000    0.000    0.000 
#
# Total GULP energy -323140.675991 kJ/mol
# GULP energy per Si atom -5571.390965 kJ/mol
# Density = 1.910162 g / cm^3
# Si number density = 19.145195 Si / 1000 Ang^3
#
#
#
# Elastic Constant Matrix: (Units=GPa)
#
#
# Indices 1 2 3 4 5 6 
#
# 1 59.2965 2.1858 2.3437 0.0000 0.0000 0.0000
# 2 2.1858 110.5474 36.2760 0.0000 0.0000 0.0000
# 3 2.3437 36.2760 80.5042 0.0000 0.0000 0.0000
# 4 0.0000 0.0000 0.0000 20.4204 0.0000 0.0000
# 5 0.0000 0.0000 0.0000 0.0000 14.3476 0.0000
# 6 0.0000 0.0000 0.0000 0.0000 0.0000 17.0850
#
#
#
# Elastic Compliance Matrix: (Units=1/GPa)
#
#
# Indices 1 2 3 4 5 6 
#
# 1 0.016888 -0.000203 -0.000400 0.000000 0.000000 0.000000
# 2 -0.000203 0.010618 -0.004779 0.000000 0.000000 0.000000
# 3 -0.000400 -0.004779 0.014587 0.000000 0.000000 0.000000
# 4 0.000000 0.000000 0.000000 0.048971 0.000000 0.000000
# 5 0.000000 0.000000 0.000000 0.000000 0.069698 0.000000
# 6 0.000000 0.000000 0.000000 0.000000 0.000000 0.058531
#
#
# Mechanical properties :
#
#
# Convention : Reuss Voigt Hill
#
# Bulk Modulus (GPa) = 31.91909 36.88434 34.40172
# Shear Modulus (GPa) = 20.79019 24.34013 22.56516
#
# Velocity S-wave (km/s) = 3.29891 3.56946 3.43685
# Velocity P-wave (km/s) = 5.58737 6.02457 5.81008
#
# Compressibility (1/GPa) = 0.03132921
#
# Stress axis : x y z
#
# Youngs Moduli (GPa) = 59.21471 94.17953 68.55562
#
# Poissons Ratio (x) = 0.01907 0.02745
# Poissons Ratio (y) = 0.01199 0.32761
# Poissons Ratio (z) = 0.02371 0.45006
#
# Static dielectric constant tensor:
#      x y z
#    x 1.683340 0.000000 0.000000 
#    y 0.000000 1.689090 0.000000 
#    z 0.000000 0.000000 1.669760 
# 
# From -- ./inp_files/60602.got.cif
#   From: 2010.05.17/outbox.cif.g08.bks.cpg/sg63_31_cif.got.tgz:60602.got - 2010.06.03 15:47:04.
