data_PCOD9473490
_publ_section_title
;
Structure prediction by ZEFSAII (Michael W. Deem and Ramdas Pophale) SiO2 
 PCOD9473490
Probable space group: C M C M
;
_chemical_formula_sum "Si O2"
_cell_formula_units_Z 80
_cell_length_a 26.249924
_cell_length_b 9.169800
_cell_length_c 18.681086
_cell_angle_alpha 90.000000
_cell_angle_beta 90.000000
_cell_angle_gamma 90.000000
_cell_volume 4496.659819
_symmetry_space_group_name_H-M "C M C M"
_symmetry_group_IT_number 63
_symmetry_cell_setting 'orthorhombic'
loop_
_space_group_symop_operation_xyz
x,y,z
-x,-y,1/2+z
x,-y,-z
-x,y,1/2-z
-x,-y,-z
x,y,1/2-z
-x,y,z
x,-y,1/2+z
1/2+x,1/2+y,z
1/2-x,1/2-y,1/2+z
1/2+x,1/2-y,-z
1/2-x,1/2+y,1/2-z
1/2-x,1/2-y,-z
1/2+x,1/2+y,1/2-z
1/2-x,1/2+y,z
1/2+x,1/2-y,1/2+z
loop_
_atom_site_type_symbol
_atom_site_label
_atom_site_fract_x
_atom_site_fract_y
_atom_site_fract_z
Si Si1 0.000000 0.295754 0.835242
Si Si2 0.000000 0.416136 0.076954
Si Si3 0.693352 0.267580 0.665576
Si Si4 0.096815 0.862289 0.094583
Si Si5 0.595181 0.297548 0.573288
Si Si6 0.796550 0.115146 0.833326
O O1 0.949605 0.220359 0.867962
O O2 0.000000 0.283723 0.750000
O O3 0.000000 0.461348 0.862444
O O4 0.048753 0.312031 0.083791
O O5 0.000000 0.500000 0.000000
O O6 0.683294 0.233048 0.750000
O O7 0.644733 0.240964 0.615487
O O8 0.743535 0.182176 0.640423
O O9 0.704758 0.440190 0.661332
O O10 0.151854 0.833647 0.129136
O O11 0.085916 0.036233 0.099829
O O12 0.101373 0.816168 0.011914
O O13 0.800217 0.155850 0.750000
#
# Coordination Sequence:
#
# PCOD9473490 Si02
#       6
#     8   8  16  16  16  16
#     4  12  25  39  59  89 117 150 192 238 291 349
#     4  12  23  41  58  83 120 153 183 240 301 347
#     4   9  19  35  55  81 112 149 192 236 283 340
#     4  10  20  38  61  86 113 151 198 240 280 349
#     4  10  21  38  62  83 113 154 194 235 292 343
#     4   9  18  34  54  80 116 152 188 237 289 335
#
# _framework density 17.790984000000002
#
# number of rings (size 3 to 8) (size 9 to 14) (size 15 to 20)
#    0.000    2.000    2.000    1.200    0.000    5.600 
#    0.000    3.000    0.000    0.000    0.000    0.000 
#    0.000    0.000    0.000    0.000    0.000    0.000 
#
# Total GULP energy -223203.975950 kJ/mol
# GULP energy per Si atom -5580.099399 kJ/mol
# Density = 1.775049 g / cm^3
# Si number density = 17.790984 Si / 1000 Ang^3
#
#
#
# Elastic Constant Matrix: (Units=GPa)
#
#
# Indices 1 2 3 4 5 6 
#
# 1 207.5901 93.8810 84.3496 0.0000 0.0000 0.0000
# 2 93.8810 65.8996 47.1694 0.0000 0.0000 0.0000
# 3 84.3496 47.1694 82.5384 0.0000 0.0000 0.0000
# 4 0.0000 0.0000 0.0000 23.7272 0.0000 0.0000
# 5 0.0000 0.0000 0.0000 0.0000 33.3619 0.0000
# 6 0.0000 0.0000 0.0000 0.0000 0.0000 41.5989
#
#
#
# Elastic Compliance Matrix: (Units=1/GPa)
#
#
# Indices 1 2 3 4 5 6 
#
# 1 0.014746 -0.017296 -0.005185 0.000000 0.000000 0.000000
# 2 -0.017296 0.045965 -0.008593 0.000000 0.000000 0.000000
# 3 -0.005185 -0.008593 0.022325 0.000000 0.000000 0.000000
# 4 0.000000 0.000000 0.000000 0.042146 0.000000 0.000000
# 5 0.000000 0.000000 0.000000 0.000000 0.029974 0.000000
# 6 0.000000 0.000000 0.000000 0.000000 0.000000 0.024039
#
#
# Mechanical properties :
#
#
# Convention : Reuss Voigt Hill
#
# Bulk Modulus (GPa) = 47.87384 89.64757 68.76071
# Shear Modulus (GPa) = 20.13648 28.44614 24.29131
#
# Velocity S-wave (km/s) = 3.36793 4.00297 3.69910
# Velocity P-wave (km/s) = 6.48779 8.47725 7.54835
#
# Compressibility (1/GPa) = 0.02088823
#
# Stress axis : x y z
#
# Youngs Moduli (GPa) = 67.81528 21.75590 44.79195
#
# Poissons Ratio (x) = 0.37628 0.23226
# Poissons Ratio (y) = 1.17290 0.38489
# Poissons Ratio (z) = 0.35165 0.18695
#
# Static dielectric constant tensor:
#      x y z
#    x 1.585230 0.000000 0.000000 
#    y 0.000000 1.601700 0.000000 
#    z 0.000000 0.000000 1.603410 
# 
# From -- ./inp_files/48823.got.cif
#   From: 2010.05.17/outbox.cif.g08.bks.cpg/sg63_25_cif.got.tgz:48823.got - 2010.06.03 15:47:04.
