data_PCOD9473887
_publ_section_title
;
Structure prediction by ZEFSAII (Michael W. Deem and Ramdas Pophale) SiO2 
 PCOD9473887
Probable space group: C M C M
;
_chemical_formula_sum "Si O2"
_cell_formula_units_Z 64
_cell_length_a 7.547573
_cell_length_b 42.576052
_cell_length_c 9.521494
_cell_angle_alpha 90.000000
_cell_angle_beta 90.000000
_cell_angle_gamma 90.000000
_cell_volume 3059.692683
_symmetry_space_group_name_H-M "C M C M"
_symmetry_group_IT_number 63
_symmetry_cell_setting 'orthorhombic'
loop_
_space_group_symop_operation_xyz
x,y,z
-x,-y,1/2+z
x,-y,-z
-x,y,1/2-z
-x,-y,-z
x,y,1/2-z
-x,y,z
x,-y,1/2+z
1/2+x,1/2+y,z
1/2-x,1/2-y,1/2+z
1/2+x,1/2-y,-z
1/2-x,1/2+y,1/2-z
1/2-x,1/2-y,-z
1/2+x,1/2+y,1/2-z
1/2-x,1/2+y,z
1/2+x,1/2-y,1/2+z
loop_
_atom_site_type_symbol
_atom_site_label
_atom_site_fract_x
_atom_site_fract_y
_atom_site_fract_z
Si Si1 0.286443 0.599621 0.911221
Si Si2 0.210603 0.339422 0.591197
Si Si3 0.284131 0.529778 0.912920
Si Si4 0.787202 0.719015 0.590088
O O1 0.225499 0.605172 0.750000
O O2 0.500000 0.598883 0.906661
O O3 0.226649 0.564763 0.957495
O O4 0.235288 0.627443 0.014285
O O5 0.282536 0.339135 0.750000
O O6 0.282059 0.311411 0.493496
O O7 0.000000 0.334199 0.601861
O O8 0.236574 0.526257 0.750000
O O9 0.500000 0.529624 0.920606
O O10 0.219738 0.500000 0.000000
O O11 0.719474 0.721117 0.750000
O O12 0.750000 0.750000 0.500000
O O13 0.000000 0.716025 0.599422
#
# Coordination Sequence:
#
# PCOD9473887 Si02
#       4
#    16  16  16  16
#     4   9  18  32  50  74 102 131 166 207 249 295
#     4  10  21  36  53  74 101 133 168 205 246 293
#     4   8  14  25  42  66  96 127 159 198 245 294
#     4  10  21  37  57  79 102 131 166 202 244 294
#
# _framework density 20.917133
#
# number of rings (size 3 to 8) (size 9 to 14) (size 15 to 20)
#    0.000    2.750    0.000    3.000    0.000    5.500 
#    0.000    2.500    0.000    0.750    0.000    0.000 
#    0.000    0.000    0.000    0.000    0.000    0.000 
#
# Total GULP energy -178614.281910 kJ/mol
# GULP energy per Si atom -5581.696310 kJ/mol
# Density = 2.086952 g / cm^3
# Si number density = 20.917133 Si / 1000 Ang^3
#
#
#
# Elastic Constant Matrix: (Units=GPa)
#
#
# Indices 1 2 3 4 5 6 
#
# 1 49.5759 -2.1263 7.7549 0.0000 0.0000 0.0000
# 2 -2.1263 224.3074 144.8786 0.0000 0.0000 0.0000
# 3 7.7549 144.8786 185.1506 0.0000 0.0000 0.0000
# 4 0.0000 0.0000 0.0000 42.6413 0.0000 0.0000
# 5 0.0000 0.0000 0.0000 0.0000 15.4118 0.0000
# 6 0.0000 0.0000 0.0000 0.0000 0.0000 14.3597
#
#
#
# Elastic Compliance Matrix: (Units=1/GPa)
#
#
# Indices 1 2 3 4 5 6 
#
# 1 0.020557 0.001518 -0.002049 0.000000 0.000000 0.000000
# 2 0.001518 0.009126 -0.007205 0.000000 0.000000 0.000000
# 3 -0.002049 -0.007205 0.011124 0.000000 0.000000 0.000000
# 4 0.000000 0.000000 0.000000 0.023451 0.000000 0.000000
# 5 0.000000 0.000000 0.000000 0.000000 0.064885 0.000000
# 6 0.000000 0.000000 0.000000 0.000000 0.000000 0.069640
#
#
# Mechanical properties :
#
#
# Convention : Reuss Voigt Hill
#
# Bulk Modulus (GPa) = 39.46886 84.44980 61.95933
# Shear Modulus (GPa) = 22.45181 35.05101 28.75141
#
# Velocity S-wave (km/s) = 3.27979 4.09798 3.71150
# Velocity P-wave (km/s) = 5.76652 7.92795 6.93200
#
# Compressibility (1/GPa) = 0.02533643
#
# Stress axis : x y z
#
# Youngs Moduli (GPa) = 48.64581 109.57779 89.89299
#
# Poissons Ratio (x) = -0.16638 0.18420
# Poissons Ratio (y) = -0.07386 0.64764
# Poissons Ratio (z) = 0.09968 0.78946
#
# Static dielectric constant tensor:
#      x y z
#    x 1.853830 0.000000 0.000000 
#    y 0.000000 1.726670 0.000000 
#    z 0.000000 0.000000 1.725250 
# 
# From -- ./inp_files/3113.got.cif
#   From: 2010.05.17/outbox.cif.g08.bks.cpg/sg63_2_cif.got.tgz:3113.got - 2010.06.03 15:47:04.
