data_PCOD9473464
_publ_section_title
;
Structure prediction by ZEFSAII (Michael W. Deem and Ramdas Pophale) SiO2 
 PCOD9473464
Probable space group: C M C M
;
_chemical_formula_sum "Si O2"
_cell_formula_units_Z 80
_cell_length_a 23.998628
_cell_length_b 12.362989
_cell_length_c 14.596670
_cell_angle_alpha 90.000000
_cell_angle_beta 90.000000
_cell_angle_gamma 90.000000
_cell_volume 4330.755706
_symmetry_space_group_name_H-M "C M C M"
_symmetry_group_IT_number 63
_symmetry_cell_setting 'orthorhombic'
loop_
_space_group_symop_operation_xyz
x,y,z
-x,-y,1/2+z
x,-y,-z
-x,y,1/2-z
-x,-y,-z
x,y,1/2-z
-x,y,z
x,-y,1/2+z
1/2+x,1/2+y,z
1/2-x,1/2-y,1/2+z
1/2+x,1/2-y,-z
1/2-x,1/2+y,1/2-z
1/2-x,1/2-y,-z
1/2+x,1/2+y,1/2-z
1/2-x,1/2+y,z
1/2+x,1/2-y,1/2+z
loop_
_atom_site_type_symbol
_atom_site_label
_atom_site_fract_x
_atom_site_fract_y
_atom_site_fract_z
Si Si1 0.857865 0.830954 0.093966
Si Si2 0.433258 0.694615 0.250000
Si Si3 0.067288 0.937846 0.250000
Si Si4 0.900759 0.500000 0.500000
Si Si5 0.224381 0.000000 0.000000
Si Si6 0.063539 0.270583 0.056578
Si Si7 0.313255 0.096325 0.141480
O O1 0.900753 0.885362 0.164502
O O2 0.827421 0.724211 0.133923
O O3 0.813365 0.915732 0.055830
O O4 0.895924 0.790983 0.010941
O O5 0.500000 0.708700 0.250000
O O6 0.422779 0.566769 0.250000
O O7 0.413382 0.750998 0.341928
O O8 0.000000 0.919277 0.250000
O O9 0.935004 0.604286 0.529639
O O10 0.863249 0.534674 0.412290
O O11 0.261363 0.936886 0.923592
O O12 0.000000 0.229574 0.050510
O O13 0.307600 0.068799 0.250000
#
# Coordination Sequence:
#
# PCOD9473464 Si02
#       7
#    16   8   8   8   8  16  16
#     4  11  22  40  61  90 122 158 205 246 301 365
#     4   9  20  34  53  83 119 156 200 242 289 345
#     4  11  22  38  61  91 123 162 198 244 302 363
#     4   9  21  36  63  88 121 160 203 245 310 362
#     4  11  24  40  64  90 120 162 204 249 314 358
#     4  10  20  38  59  88 125 161 201 250 297 361
#     4  10  22  41  61  89 123 153 201 260 301 355
#
# _framework density 18.472526999999999
#
# number of rings (size 3 to 8) (size 9 to 14) (size 15 to 20)
#    0.000    1.800    1.000    2.700    2.800    0.000 
#    1.800    4.000    0.000    0.000    0.000    0.000 
#    0.000    0.000    0.000    0.000    0.000    0.000 
#
# Total GULP energy -223104.819775 kJ/mol
# GULP energy per Si atom -5577.620494 kJ/mol
# Density = 1.843048 g / cm^3
# Si number density = 18.472527 Si / 1000 Ang^3
#
#
#
# Elastic Constant Matrix: (Units=GPa)
#
#
# Indices 1 2 3 4 5 6 
#
# 1 96.3361 39.6377 58.7350 0.0000 0.0000 0.0000
# 2 39.6377 59.0714 56.0615 0.0000 0.0000 0.0000
# 3 58.7350 56.0615 183.6881 0.0000 0.0000 0.0000
# 4 0.0000 0.0000 0.0000 18.4911 0.0000 0.0000
# 5 0.0000 0.0000 0.0000 0.0000 34.9959 0.0000
# 6 0.0000 0.0000 0.0000 0.0000 0.0000 60.5789
#
#
#
# Elastic Compliance Matrix: (Units=1/GPa)
#
#
# Indices 1 2 3 4 5 6 
#
# 1 0.015078 -0.007802 -0.002440 0.000000 0.000000 0.000000
# 2 -0.007802 0.027868 -0.006011 0.000000 0.000000 0.000000
# 3 -0.002440 -0.006011 0.008059 0.000000 0.000000 0.000000
# 4 0.000000 0.000000 0.000000 0.054080 0.000000 0.000000
# 5 0.000000 0.000000 0.000000 0.000000 0.028575 0.000000
# 6 0.000000 0.000000 0.000000 0.000000 0.000000 0.016507
#
#
# Mechanical properties :
#
#
# Convention : Reuss Voigt Hill
#
# Bulk Modulus (GPa) = 54.05491 71.99601 63.02546
# Shear Modulus (GPa) = 26.47756 35.12396 30.80076
#
# Velocity S-wave (km/s) = 3.79007 4.36525 4.08779
# Velocity P-wave (km/s) = 6.96266 8.02910 7.51482
#
# Compressibility (1/GPa) = 0.01849971
#
# Stress axis : x y z
#
# Youngs Moduli (GPa) = 66.32112 35.88320 124.08890
#
# Poissons Ratio (x) = 0.27995 0.30280
# Poissons Ratio (y) = 0.51742 0.74586
# Poissons Ratio (z) = 0.16184 0.21568
#
# Static dielectric constant tensor:
#      x y z
#    x 1.622260 0.000000 0.000000 
#    y 0.000000 1.619220 0.000000 
#    z 0.000000 0.000000 1.655350 
# 
# From -- ./inp_files/36546.got.cif
#   From: 2010.05.17/outbox.cif.g08.bks.cpg/sg63_19_cif.got.tgz:36546.got - 2010.06.03 15:47:04.
