data_PCOD9473615
_publ_section_title
;
Structure prediction by ZEFSAII (Michael W. Deem and Ramdas Pophale) SiO2 
 PCOD9473615
Probable space group: C M C M
;
_chemical_formula_sum "Si O2"
_cell_formula_units_Z 80
_cell_length_a 13.653654
_cell_length_b 22.214021
_cell_length_c 11.282073
_cell_angle_alpha 90.000000
_cell_angle_beta 90.000000
_cell_angle_gamma 90.000000
_cell_volume 3421.881586
_symmetry_space_group_name_H-M "C M C M"
_symmetry_group_IT_number 63
_symmetry_cell_setting 'orthorhombic'
loop_
_space_group_symop_operation_xyz
x,y,z
-x,-y,1/2+z
x,-y,-z
-x,y,1/2-z
-x,-y,-z
x,y,1/2-z
-x,y,z
x,-y,1/2+z
1/2+x,1/2+y,z
1/2-x,1/2-y,1/2+z
1/2+x,1/2-y,-z
1/2-x,1/2+y,1/2-z
1/2-x,1/2-y,-z
1/2+x,1/2+y,1/2-z
1/2-x,1/2+y,z
1/2+x,1/2-y,1/2+z
loop_
_atom_site_type_symbol
_atom_site_label
_atom_site_fract_x
_atom_site_fract_y
_atom_site_fract_z
Si Si1 0.381237 0.257428 0.250000
Si Si2 0.619095 0.605267 0.750000
Si Si3 0.381188 0.725721 0.382801
Si Si4 0.382285 0.830096 0.962349
Si Si5 0.116800 0.902903 0.988543
Si Si6 0.707356 0.042245 0.387462
O O1 0.500000 0.261104 0.250000
O O2 0.348192 0.325452 0.250000
O O3 0.354811 0.218813 0.136629
O O4 0.500000 0.603667 0.750000
O O5 0.649448 0.580439 0.877603
O O6 0.349149 0.712108 0.250000
O O7 0.500000 0.727672 0.384552
O O8 0.350431 0.792765 0.421623
O O9 0.359028 0.667550 0.463632
O O10 0.500000 0.836589 0.965417
O O11 0.340536 0.893653 0.923054
O O12 0.000000 0.910107 0.977642
O O13 0.177003 0.943182 0.898031
O O14 0.682579 0.025617 0.250000
O O15 0.680389 0.000000 0.500000
#
# Coordination Sequence:
#
# PCOD9473615 Si02
#       6
#     8   8  16  16  16  16
#     4   9  14  30  61  92 123 155 194 240 293 363
#     4   9  16  32  63 100 129 161 202 244 303 377
#     4   9  17  32  59  97 134 164 196 243 309 380
#     4  10  20  39  66  93 125 163 201 249 308 372
#     4  10  21  40  66  94 129 165 201 253 313 374
#     4  12  29  47  64  89 120 164 220 268 310 363
#
# _framework density 23.37895
#
# number of rings (size 3 to 8) (size 9 to 14) (size 15 to 20)
#    0.000    2.000    3.000    0.600    1.400    3.600 
#    0.000    0.000    0.000    0.000    0.000    0.000 
#    0.000    0.000    0.000    0.000    0.000    0.000 
#
# Total GULP energy -223441.535206 kJ/mol
# GULP energy per Si atom -5586.038380 kJ/mol
# Density = 2.332574 g / cm^3
# Si number density = 23.378950 Si / 1000 Ang^3
#
#
#
# Elastic Constant Matrix: (Units=GPa)
#
#
# Indices 1 2 3 4 5 6 
#
# 1 63.0032 23.3730 19.6870 0.0000 0.0000 0.0000
# 2 23.3730 117.6168 53.0509 0.0000 0.0000 0.0000
# 3 19.6870 53.0509 146.8605 0.0000 0.0000 0.0000
# 4 0.0000 0.0000 0.0000 17.7785 0.0000 0.0000
# 5 0.0000 0.0000 0.0000 0.0000 24.3245 0.0000
# 6 0.0000 0.0000 0.0000 0.0000 0.0000 16.6933
#
#
#
# Elastic Compliance Matrix: (Units=1/GPa)
#
#
# Indices 1 2 3 4 5 6 
#
# 1 0.017338 -0.002864 -0.001290 0.000000 0.000000 0.000000
# 2 -0.002864 0.010630 -0.003456 0.000000 0.000000 0.000000
# 3 -0.001290 -0.003456 0.008231 0.000000 0.000000 0.000000
# 4 0.000000 0.000000 0.000000 0.056248 0.000000 0.000000
# 5 0.000000 0.000000 0.000000 0.000000 0.041111 0.000000
# 6 0.000000 0.000000 0.000000 0.000000 0.000000 0.059904
#
#
# Mechanical properties :
#
#
# Convention : Reuss Voigt Hill
#
# Bulk Modulus (GPa) = 47.66586 57.74470 52.70528
# Shear Modulus (GPa) = 23.18325 27.18390 25.18358
#
# Velocity S-wave (km/s) = 3.15243 3.41361 3.28562
# Velocity P-wave (km/s) = 5.80371 6.34745 6.08166
#
# Compressibility (1/GPa) = 0.02097938
#
# Stress axis : x y z
#
# Youngs Moduli (GPa) = 57.67828 94.07243 121.49899
#
# Poissons Ratio (x) = 0.26939 0.15670
# Poissons Ratio (y) = 0.16517 0.41991
# Poissons Ratio (z) = 0.07439 0.32512
#
# Static dielectric constant tensor:
#      x y z
#    x 1.945620 0.000000 0.000000 
#    y 0.000000 1.846380 0.000000 
#    z 0.000000 0.000000 1.914300 
# 
# From -- ./inp_files/19458.got.cif
#   From: 2010.05.17/outbox.cif.g08.bks.cpg/sg63_10_cif.got.tgz:19458.got - 2010.06.03 15:47:04.
