data_PCOD9473491
_publ_section_title
;
Structure prediction by ZEFSAII (Michael W. Deem and Ramdas Pophale) SiO2 
 PCOD9473491
Probable space group: C M C M
;
_chemical_formula_sum "Si O2"
_cell_formula_units_Z 96
_cell_length_a 8.110831
_cell_length_b 20.450332
_cell_length_c 28.902715
_cell_angle_alpha 90.000000
_cell_angle_beta 90.000000
_cell_angle_gamma 90.000000
_cell_volume 4794.069832
_symmetry_space_group_name_H-M "C M C M"
_symmetry_group_IT_number 63
_symmetry_cell_setting 'orthorhombic'
loop_
_space_group_symop_operation_xyz
x,y,z
-x,-y,1/2+z
x,-y,-z
-x,y,1/2-z
-x,-y,-z
x,y,1/2-z
-x,y,z
x,-y,1/2+z
1/2+x,1/2+y,z
1/2-x,1/2-y,1/2+z
1/2+x,1/2-y,-z
1/2-x,1/2+y,1/2-z
1/2-x,1/2-y,-z
1/2+x,1/2+y,1/2-z
1/2-x,1/2+y,z
1/2+x,1/2-y,1/2+z
loop_
_atom_site_type_symbol
_atom_site_label
_atom_site_fract_x
_atom_site_fract_y
_atom_site_fract_z
Si Si1 0.700125 0.012997 0.639528
Si Si2 0.699472 0.260473 0.640690
Si Si3 0.201139 0.636919 0.698169
Si Si4 0.198278 0.386811 0.803285
Si Si5 0.804409 0.050752 0.538469
Si Si6 0.303105 0.203273 0.542130
O O1 0.500000 0.011444 0.637397
O O2 0.752868 0.079086 0.664878
O O3 0.764872 0.017909 0.587712
O O4 0.755734 0.952801 0.671262
O O5 0.500000 0.261933 0.639007
O O6 0.752710 0.205441 0.677123
O O7 0.757347 0.328367 0.662040
O O8 0.758302 0.236332 0.590193
O O9 0.259744 0.627105 0.750000
O O10 0.000000 0.636277 0.698896
O O11 0.259644 0.379253 0.750000
O O12 0.000000 0.390357 0.800231
O O13 0.744679 0.126520 0.537299
O O14 0.000000 0.054835 0.532139
O O15 0.736848 0.000000 0.500000
O O16 0.500000 0.203837 0.544297
O O17 0.250000 0.250000 0.500000
#
# Coordination Sequence:
#
# PCOD9473491 Si02
#       6
#    16  16  16  16  16  16
#     4  10  20  38  61  87 118 157 202 248 297 357
#     4  10  21  38  60  86 119 157 199 244 295 359
#     4   9  16  31  58  86 111 146 193 242 291 348
#     4  10  22  38  58  89 126 162 202 249 300 355
#     4  11  25  43  63  90 123 159 200 252 308 364
#     4  11  24  43  66  93 123 158 203 253 307 369
#
# _framework density 20.024739
#
# number of rings (size 3 to 8) (size 9 to 14) (size 15 to 20)
#    0.000    1.833    1.667    2.000    2.333    6.333 
#    0.000    0.000    0.000    1.500    0.000    0.000 
#    0.000    0.000    0.000    0.000    0.000    0.000 
#
# Total GULP energy -267902.877564 kJ/mol
# GULP energy per Si atom -5581.309949 kJ/mol
# Density = 1.997916 g / cm^3
# Si number density = 20.024739 Si / 1000 Ang^3
#
#
#
# Elastic Constant Matrix: (Units=GPa)
#
#
# Indices 1 2 3 4 5 6 
#
# 1 20.1738 9.5509 7.1531 0.0000 0.0000 0.0000
# 2 9.5509 83.6453 3.8006 0.0000 0.0000 0.0000
# 3 7.1531 3.8006 108.7270 0.0000 0.0000 0.0000
# 4 0.0000 0.0000 0.0000 39.4970 0.0000 0.0000
# 5 0.0000 0.0000 0.0000 0.0000 19.9578 0.0000
# 6 0.0000 0.0000 0.0000 0.0000 0.0000 21.7158
#
#
#
# Elastic Compliance Matrix: (Units=1/GPa)
#
#
# Indices 1 2 3 4 5 6 
#
# 1 0.053569 -0.005966 -0.003316 0.000000 0.000000 0.000000
# 2 -0.005966 0.012639 -0.000049 0.000000 0.000000 0.000000
# 3 -0.003316 -0.000049 0.009417 0.000000 0.000000 0.000000
# 4 0.000000 0.000000 0.000000 0.025318 0.000000 0.000000
# 5 0.000000 0.000000 0.000000 0.000000 0.050106 0.000000
# 6 0.000000 0.000000 0.000000 0.000000 0.000000 0.046049
#
#
# Mechanical properties :
#
#
# Convention : Reuss Voigt Hill
#
# Bulk Modulus (GPa) = 17.55522 28.17281 22.86402
# Shear Modulus (GPa) = 21.29935 29.03689 25.16812
#
# Velocity S-wave (km/s) = 3.26491 3.81208 3.54906
# Velocity P-wave (km/s) = 4.79569 5.78580 5.31386
#
# Compressibility (1/GPa) = 0.05696311
#
# Stress axis : x y z
#
# Youngs Moduli (GPa) = 18.66734 79.12196 106.18857
#
# Poissons Ratio (x) = 0.47205 0.35210
# Poissons Ratio (y) = 0.11137 0.00523
# Poissons Ratio (z) = 0.06190 0.00390
#
# Static dielectric constant tensor:
#      x y z
#    x 1.716630 0.000000 0.000000 
#    y 0.000000 1.675410 0.000000 
#    z 0.000000 0.000000 1.666760 
# 
# From -- ./inp_files/66882.got.cif
#   From: 2010.05.17/outbox.cif.g08.bks.cpg/sg63_34_cif.got.tgz:66882.got - 2010.06.03 15:47:04.
