data_PCOD9473893
_publ_section_title
;
Structure prediction by ZEFSAII (Michael W. Deem and Ramdas Pophale) SiO2 
 PCOD9473893
Probable space group: C M C M
;
_chemical_formula_sum "Si O2"
_cell_formula_units_Z 100
_cell_length_a 21.547289
_cell_length_b 27.113379
_cell_length_c 9.206872
_cell_angle_alpha 90.000000
_cell_angle_beta 90.000000
_cell_angle_gamma 90.000000
_cell_volume 5378.837039
_symmetry_space_group_name_H-M "C M C M"
_symmetry_group_IT_number 63
_symmetry_cell_setting 'orthorhombic'
loop_
_space_group_symop_operation_xyz
x,y,z
-x,-y,1/2+z
x,-y,-z
-x,y,1/2-z
-x,-y,-z
x,y,1/2-z
-x,y,z
x,-y,1/2+z
1/2+x,1/2+y,z
1/2-x,1/2-y,1/2+z
1/2+x,1/2-y,-z
1/2-x,1/2+y,1/2-z
1/2-x,1/2-y,-z
1/2+x,1/2+y,1/2-z
1/2-x,1/2+y,z
1/2+x,1/2-y,1/2+z
loop_
_atom_site_type_symbol
_atom_site_label
_atom_site_fract_x
_atom_site_fract_y
_atom_site_fract_z
Si Si1 0.684489 0.262678 0.925282
Si Si2 0.904112 0.587328 0.075457
Si Si3 0.265801 0.948000 0.923108
Si Si4 0.346476 0.624800 0.076385
Si Si5 0.925451 0.951006 0.415501
Si Si6 0.000000 0.500000 0.500000
Si Si7 0.930063 0.308699 0.424615
O O1 0.692162 0.259960 0.750000
O O2 0.665162 0.318591 0.962512
O O3 0.627397 0.226604 0.966365
O O4 0.750000 0.250000 0.000000
O O5 0.911081 0.590988 0.250000
O O6 0.833112 0.573958 0.040485
O O7 0.946623 0.542815 0.020927
O O8 0.922160 0.638689 0.001603
O O9 0.263915 0.955807 0.750000
O O10 0.213692 0.908027 0.960214
O O11 0.256001 0.000000 0.000000
O O12 0.356486 0.622308 0.250000
O O13 0.402018 0.597812 0.994597
O O14 0.903042 0.952814 0.250000
O O15 0.000000 0.951895 0.414850
O O16 0.903749 0.000000 0.500000
O O17 0.926939 0.315163 0.250000
O O18 0.000000 0.289480 0.457645
#
# Coordination Sequence:
#
# PCOD9473893 Si02
#       7
#    16  16  16  16  16   4  16
#     4  10  22  41  63  87 116 154 199 246 299 352
#     4  11  23  39  59  85 118 156 196 236 284 340
#     4  10  21  36  53  79 113 149 187 232 281 335
#     4  10  21  37  59  84 113 150 195 242 289 345
#     4  10  21  37  58  86 120 154 189 232 289 353
#     4  12  22  36  60  86 118 156 194 230 280 340
#     4  10  22  39  60  86 117 152 194 244 295 346
#
# _framework density 18.591379
#
# number of rings (size 3 to 8) (size 9 to 14) (size 15 to 20)
#    0.000    1.760    1.600    2.160    0.000    8.000 
#    0.000    1.600    0.000    0.000    0.000    0.000 
#    0.000    0.000    0.000    0.000    0.000    0.000 
#
# Total GULP energy -278709.189136 kJ/mol
# GULP energy per Si atom -5574.183783 kJ/mol
# Density = 1.854906 g / cm^3
# Si number density = 18.591379 Si / 1000 Ang^3
#
#
#
# Elastic Constant Matrix: (Units=GPa)
#
#
# Indices 1 2 3 4 5 6 
#
# 1 101.5201 68.7849 39.0988 0.0000 0.0000 0.0000
# 2 68.7849 159.7642 56.9614 0.0000 0.0000 0.0000
# 3 39.0988 56.9614 30.2721 0.0000 0.0000 0.0000
# 4 0.0000 0.0000 0.0000 24.5500 0.0000 0.0000
# 5 0.0000 0.0000 0.0000 0.0000 24.6403 0.0000
# 6 0.0000 0.0000 0.0000 0.0000 0.0000 29.4016
#
#
#
# Elastic Compliance Matrix: (Units=1/GPa)
#
#
# Indices 1 2 3 4 5 6 
#
# 1 0.019769 0.001799 -0.028918 0.000000 0.000000 0.000000
# 2 0.001799 0.019181 -0.038416 0.000000 0.000000 0.000000
# 3 -0.028918 -0.038416 0.142669 0.000000 0.000000 0.000000
# 4 0.000000 0.000000 0.000000 0.040733 0.000000 0.000000
# 5 0.000000 0.000000 0.000000 0.000000 0.040584 0.000000
# 6 0.000000 0.000000 0.000000 0.000000 0.000000 0.034012
#
#
# Mechanical properties :
#
#
# Convention : Reuss Voigt Hill
#
# Bulk Modulus (GPa) = 19.78277 69.02740 44.40508
# Shear Modulus (GPa) = 11.23933 24.16581 17.70257
#
# Velocity S-wave (km/s) = 2.46142 3.60924 3.08911
# Velocity P-wave (km/s) = 4.32921 7.38770 6.05476
#
# Compressibility (1/GPa) = 0.05054903
#
# Stress axis : x y z
#
# Youngs Moduli (GPa) = 50.58543 52.13413 7.00925
#
# Poissons Ratio (x) = -0.09379 0.20269
# Poissons Ratio (y) = -0.09100 0.26927
# Poissons Ratio (z) = 1.46282 2.00278
#
# Static dielectric constant tensor:
#      x y z
#    x 1.660620 0.000000 0.000000 
#    y 0.000000 1.595290 0.000000 
#    z 0.000000 0.000000 1.639690 
# 
# From -- ./inp_files/8765.got.cif
#   From: 2010.05.17/outbox.cif.g08.bks.cpg/sg63_5_cif.got.tgz:8765.got - 2010.06.03 15:47:04.
