data_PCOD9473935
_publ_section_title
;
Structure prediction by ZEFSAII (Michael W. Deem and Ramdas Pophale) SiO2 
 PCOD9473935
Probable space group: C M C M
;
_chemical_formula_sum "Si O2"
_cell_formula_units_Z 80
_cell_length_a 26.850432
_cell_length_b 12.847576
_cell_length_c 12.214990
_cell_angle_alpha 90.000000
_cell_angle_beta 90.000000
_cell_angle_gamma 90.000000
_cell_volume 4213.719177
_symmetry_space_group_name_H-M "C M C M"
_symmetry_group_IT_number 63
_symmetry_cell_setting 'orthorhombic'
loop_
_space_group_symop_operation_xyz
x,y,z
-x,-y,1/2+z
x,-y,-z
-x,y,1/2-z
-x,-y,-z
x,y,1/2-z
-x,y,z
x,-y,1/2+z
1/2+x,1/2+y,z
1/2-x,1/2-y,1/2+z
1/2+x,1/2-y,-z
1/2-x,1/2+y,1/2-z
1/2-x,1/2-y,-z
1/2+x,1/2+y,1/2-z
1/2-x,1/2+y,z
1/2+x,1/2-y,1/2+z
loop_
_atom_site_type_symbol
_atom_site_label
_atom_site_fract_x
_atom_site_fract_y
_atom_site_fract_z
Si Si1 0.702901 0.794445 0.631043
Si Si2 0.500000 0.951913 0.872307
Si Si3 0.000000 0.938937 0.619513
Si Si4 0.397943 0.886571 0.946754
Si Si5 0.198061 0.885555 0.950341
Si Si6 0.903483 0.792210 0.628169
O O1 0.705721 0.745913 0.750000
O O2 0.651989 0.857774 0.617096
O O3 0.750734 0.868022 0.614856
O O4 0.701871 0.701616 0.544566
O O5 0.500000 0.007597 0.750000
O O6 0.448348 0.889759 0.876558
O O7 0.500000 0.000000 0.000000
O O8 0.950555 0.868044 0.615277
O O9 0.000000 0.983591 0.750000
O O10 0.000000 0.000000 0.500000
O O11 0.404791 0.800018 0.040610
O O12 0.391185 0.000000 0.000000
O O13 0.147662 0.856645 0.886466
O O14 0.195014 0.000000 0.000000
O O15 0.904879 0.746716 0.750000
#
# Coordination Sequence:
#
# PCOD9473935 Si02
#       6
#    16   8   8  16  16  16
#     4  10  21  36  55  81 111 144 184 231 283 343
#     4  10  21  36  56  82 112 150 194 238 286 342
#     4  10  21  40  63  88 117 152 194 242 296 352
#     4  10  21  37  57  83 116 151 190 235 285 340
#     4  10  21  38  57  81 111 144 188 235 285 340
#     4  10  21  37  59  86 116 152 195 238 285 348
#
# _framework density 18.985603000000001
#
# number of rings (size 3 to 8) (size 9 to 14) (size 15 to 20)
#    0.000    2.000    0.000    3.000    0.000    5.600 
#    0.000    9.000    0.000    0.000    0.000    0.000 
#    0.000    0.000    0.000    0.000    0.000    0.000 
#
# Total GULP energy -222747.043694 kJ/mol
# GULP energy per Si atom -5568.676092 kJ/mol
# Density = 1.894239 g / cm^3
# Si number density = 18.985603 Si / 1000 Ang^3
#
#
#
# Elastic Constant Matrix: (Units=GPa)
#
#
# Indices 1 2 3 4 5 6 
#
# 1 162.4576 28.3469 42.5903 0.0000 0.0000 0.0000
# 2 28.3469 59.9489 15.4584 0.0000 0.0000 0.0000
# 3 42.5903 15.4584 122.8911 0.0000 0.0000 0.0000
# 4 0.0000 0.0000 0.0000 11.9410 0.0000 0.0000
# 5 0.0000 0.0000 0.0000 0.0000 20.7036 0.0000
# 6 0.0000 0.0000 0.0000 0.0000 0.0000 18.4933
#
#
#
# Elastic Compliance Matrix: (Units=1/GPa)
#
#
# Indices 1 2 3 4 5 6 
#
# 1 0.007216 -0.002860 -0.002141 0.000000 0.000000 0.000000
# 2 -0.002860 0.018374 -0.001320 0.000000 0.000000 0.000000
# 3 -0.002141 -0.001320 0.009045 0.000000 0.000000 0.000000
# 4 0.000000 0.000000 0.000000 0.083745 0.000000 0.000000
# 5 0.000000 0.000000 0.000000 0.000000 0.048301 0.000000
# 6 0.000000 0.000000 0.000000 0.000000 0.000000 0.054074
#
#
# Mechanical properties :
#
#
# Convention : Reuss Voigt Hill
#
# Bulk Modulus (GPa) = 45.46957 57.56543 51.51750
# Shear Modulus (GPa) = 20.77040 27.48771 24.12906
#
# Velocity S-wave (km/s) = 3.31117 3.80915 3.56885
# Velocity P-wave (km/s) = 6.21449 7.05213 6.64652
#
# Compressibility (1/GPa) = 0.02199273
#
# Stress axis : x y z
#
# Youngs Moduli (GPa) = 138.58546 54.42605 110.55413
#
# Poissons Ratio (x) = 0.15565 0.23670
# Poissons Ratio (y) = 0.39634 0.14594
# Poissons Ratio (z) = 0.29671 0.07185
#
# Static dielectric constant tensor:
#      x y z
#    x 1.669630 0.000000 0.000000 
#    y 0.000000 1.609010 0.000000 
#    z 0.000000 0.000000 1.744890 
# 
# From -- ./inp_files/25683.got.cif
#   From: 2010.05.17/outbox.cif.g08.bks.cpg/sg63_13_cif.got.tgz:25683.got - 2010.06.03 15:47:04.
