data_PCOD9473759
_publ_section_title
;
Structure prediction by ZEFSAII (Michael W. Deem and Ramdas Pophale) SiO2 
 PCOD9473759
Probable space group: C M C M
;
_chemical_formula_sum "Si O2"
_cell_formula_units_Z 72
_cell_length_a 18.194046
_cell_length_b 24.370958
_cell_length_c 8.443372
_cell_angle_alpha 90.000000
_cell_angle_beta 90.000000
_cell_angle_gamma 90.000000
_cell_volume 3743.844599
_symmetry_space_group_name_H-M "C M C M"
_symmetry_group_IT_number 63
_symmetry_cell_setting 'orthorhombic'
loop_
_space_group_symop_operation_xyz
x,y,z
-x,-y,1/2+z
x,-y,-z
-x,y,1/2-z
-x,-y,-z
x,y,1/2-z
-x,y,z
x,-y,1/2+z
1/2+x,1/2+y,z
1/2-x,1/2-y,1/2+z
1/2+x,1/2-y,-z
1/2-x,1/2+y,1/2-z
1/2-x,1/2-y,-z
1/2+x,1/2+y,1/2-z
1/2-x,1/2+y,z
1/2+x,1/2-y,1/2+z
loop_
_atom_site_type_symbol
_atom_site_label
_atom_site_fract_x
_atom_site_fract_y
_atom_site_fract_z
Si Si1 0.184205 0.710571 0.556500
Si Si2 0.913810 0.302431 0.750000
Si Si3 0.776218 0.896914 0.424479
Si Si4 0.919369 0.061460 0.063314
Si Si5 0.086312 0.434545 0.750000
Si Si6 0.818695 0.500000 0.500000
O O1 0.167626 0.717458 0.750000
O O2 0.250000 0.750000 0.500000
O O3 0.122600 0.717107 0.417758
O O4 0.217251 0.649429 0.534937
O O5 0.906437 0.368945 0.750000
O O6 0.000000 0.288729 0.750000
O O7 0.803577 0.883490 0.250000
O O8 0.849212 0.901332 0.527382
O O9 0.735192 0.955276 0.423184
O O10 0.924165 0.057080 0.250000
O O11 0.000000 0.079816 0.001750
O O12 0.906204 0.000000 0.000000
O O13 0.128148 0.463137 0.894159
O O14 0.000000 0.447615 0.750000
#
# Coordination Sequence:
#
# PCOD9473759 Si02
#       6
#    16   8  16  16   8   8
#     4  11  24  44  71  99 126 171 223 275 332 398
#     4  11  24  44  69 102 138 176 221 277 340 396
#     4  11  23  36  59  91 119 159 209 260 307 377
#     4  10  21  34  52  81 118 159 198 246 307 368
#     4  11  24  40  59  88 132 172 209 263 324 392
#     4  12  21  36  57  90 124 162 212 252 309 382
#
# _framework density 19.231566999999998
#
# number of rings (size 3 to 8) (size 9 to 14) (size 15 to 20)
#    0.000    1.111    5.556    1.000    3.111    1.778 
#    0.000    1.111    0.000    0.000    0.000    0.000 
#    0.000    0.000    0.000    0.000    0.000    0.000 
#
# Total GULP energy -200482.068276 kJ/mol
# GULP energy per Si atom -5568.946341 kJ/mol
# Density = 1.918780 g / cm^3
# Si number density = 19.231567 Si / 1000 Ang^3
#
#
#
# Elastic Constant Matrix: (Units=GPa)
#
#
# Indices 1 2 3 4 5 6 
#
# 1 129.5227 13.7235 81.2687 0.0000 0.0000 0.0000
# 2 13.7235 43.2265 12.8303 0.0000 0.0000 0.0000
# 3 81.2687 12.8303 121.6670 0.0000 0.0000 0.0000
# 4 0.0000 0.0000 0.0000 18.4696 0.0000 0.0000
# 5 0.0000 0.0000 0.0000 0.0000 31.1197 0.0000
# 6 0.0000 0.0000 0.0000 0.0000 0.0000 -91.2570
#
#
#
# Elastic Compliance Matrix: (Units=1/GPa)
#
#
# Indices 1 2 3 4 5 6 
#
# 1 0.013404 -0.001650 -0.008779 0.000000 0.000000 0.000000
# 2 -0.001650 0.024084 -0.001438 0.000000 0.000000 0.000000
# 3 -0.008779 -0.001438 0.014235 0.000000 0.000000 0.000000
# 4 0.000000 0.000000 0.000000 0.054143 0.000000 0.000000
# 5 0.000000 0.000000 0.000000 0.000000 0.032134 0.000000
# 6 0.000000 0.000000 0.000000 0.000000 0.000000 -0.010958
#
#
# Mechanical properties :
#
#
# Convention : Reuss Voigt Hill
#
# Bulk Modulus (GPa) = 35.72744 56.67346 46.20045
# Shear Modulus (GPa) = 31.22925 4.10605 17.66765
#
# Velocity S-wave (km/s) = 4.03408 1.46277 3.03426
# Velocity P-wave (km/s) = 6.34950 5.69086 6.02918
#
# Compressibility (1/GPa) = 0.02798969
#
# Stress axis : x y z
#
# Youngs Moduli (GPa) = 74.60421 41.52052 70.24893
#
# Poissons Ratio (x) = 0.06849 0.61675
# Poissons Ratio (y) = 0.12307 0.10101
# Poissons Ratio (z) = 0.65498 0.05970
#
# Static dielectric constant tensor:
#      x y z
#    x 1.697940 0.000000 0.000000 
#    y 0.000000 1.730030 0.000000 
#    z 0.000000 0.000000 2.102110 
# 
# From -- ./inp_files/6161.got.cif
#   From: 2010.05.17/outbox.cif.g08.bks.cpg/sg63_4_cif.got.tgz:6161.got - 2010.06.03 15:47:04.
