data_PCOD9473392
_publ_section_title
;
Structure prediction by ZEFSAII (Michael W. Deem and Ramdas Pophale) SiO2 
 PCOD9473392
Probable space group: C M C M
;
_chemical_formula_sum "Si O2"
_cell_formula_units_Z 88
_cell_length_a 22.550795
_cell_length_b 16.071662
_cell_length_c 12.418038
_cell_angle_alpha 90.000000
_cell_angle_beta 90.000000
_cell_angle_gamma 90.000000
_cell_volume 4500.654053
_symmetry_space_group_name_H-M "C M C M"
_symmetry_group_IT_number 63
_symmetry_cell_setting 'orthorhombic'
loop_
_space_group_symop_operation_xyz
x,y,z
-x,-y,1/2+z
x,-y,-z
-x,y,1/2-z
-x,-y,-z
x,y,1/2-z
-x,y,z
x,-y,1/2+z
1/2+x,1/2+y,z
1/2-x,1/2-y,1/2+z
1/2+x,1/2-y,-z
1/2-x,1/2+y,1/2-z
1/2-x,1/2-y,-z
1/2+x,1/2+y,1/2-z
1/2-x,1/2+y,z
1/2+x,1/2-y,1/2+z
loop_
_atom_site_type_symbol
_atom_site_label
_atom_site_fract_x
_atom_site_fract_y
_atom_site_fract_z
Si Si1 0.147758 0.912701 0.045372
Si Si2 0.933456 0.071523 0.750000
Si Si3 0.870135 0.769415 0.621247
Si Si4 0.727786 0.139167 0.624138
Si Si5 0.652279 0.000000 0.000000
Si Si6 0.933498 0.731851 0.250000
Si Si7 0.570654 0.852788 0.537567
O O1 0.102310 0.941612 0.139152
O O2 0.203356 0.863607 0.094883
O O3 0.122953 0.852852 0.950430
O O4 0.171025 0.000000 0.000000
O O5 0.938594 0.170713 0.750000
O O6 0.000000 0.034779 0.750000
O O7 0.878733 0.782498 0.750000
O O8 0.805244 0.727021 0.603975
O O9 0.912272 0.697728 0.570621
O O10 0.721626 0.123211 0.750000
O O11 0.693355 0.063974 0.565318
O O12 0.606470 0.062660 0.057057
O O13 0.907581 0.703995 0.137164
O O14 0.000000 0.695258 0.250000
O O15 0.500000 0.865407 0.536966
#
# Coordination Sequence:
#
# PCOD9473392 Si02
#       7
#    16   8  16  16   8   8  16
#     4  12  24  41  68  91 122 159 203 257 316 367
#     4  11  24  44  65  88 117 157 209 264 313 363
#     4  10  23  40  61  90 127 164 208 250 303 371
#     4  10  21  40  60  89 127 165 201 250 305 368
#     4  10  21  36  58  92 131 160 202 252 304 366
#     4   9  18  36  61  84 113 157 212 256 295 359
#     4  10  20  37  61  90 124 166 208 252 305 361
#
# _framework density 19.552713000000001
#
# number of rings (size 3 to 8) (size 9 to 14) (size 15 to 20)
#    0.000    1.636    3.636    0.818    2.545    0.727 
#    0.000    0.000    0.000    0.000    0.000    0.000 
#    0.000    0.000    0.000    0.000    0.000    0.000 
#
# Total GULP energy -244998.449037 kJ/mol
# GULP energy per Si atom -5568.146569 kJ/mol
# Density = 1.950821 g / cm^3
# Si number density = 19.552713 Si / 1000 Ang^3
#
#
#
# Elastic Constant Matrix: (Units=GPa)
#
#
# Indices 1 2 3 4 5 6 
#
# 1 78.7195 -11.9345 18.2666 0.0000 0.0000 0.0000
# 2 -11.9345 44.5680 9.5121 0.0000 0.0000 0.0000
# 3 18.2666 9.5121 93.0945 0.0000 0.0000 0.0000
# 4 0.0000 0.0000 0.0000 14.8496 0.0000 0.0000
# 5 0.0000 0.0000 0.0000 0.0000 18.5426 0.0000
# 6 0.0000 0.0000 0.0000 0.0000 0.0000 16.6434
#
#
#
# Elastic Compliance Matrix: (Units=1/GPa)
#
#
# Indices 1 2 3 4 5 6 
#
# 1 0.014131 0.004473 -0.003230 0.000000 0.000000 0.000000
# 2 0.004473 0.024354 -0.003366 0.000000 0.000000 0.000000
# 3 -0.003230 -0.003366 0.011719 0.000000 0.000000 0.000000
# 4 0.000000 0.000000 0.000000 0.067342 0.000000 0.000000
# 5 0.000000 0.000000 0.000000 0.000000 0.053930 0.000000
# 6 0.000000 0.000000 0.000000 0.000000 0.000000 0.060084
#
#
# Mechanical properties :
#
#
# Convention : Reuss Voigt Hill
#
# Bulk Modulus (GPa) = 21.75843 27.56338 24.66090
# Shear Modulus (GPa) = 19.91040 23.37631 21.64336
#
# Velocity S-wave (km/s) = 3.19453 3.46143 3.33066
# Velocity P-wave (km/s) = 4.97584 5.48661 5.23745
#
# Compressibility (1/GPa) = 0.04595921
#
# Stress axis : x y z
#
# Youngs Moduli (GPa) = 70.76642 41.06114 85.32826
#
# Poissons Ratio (x) = -0.18368 0.27559
# Poissons Ratio (y) = -0.31656 0.28723
# Poissons Ratio (z) = 0.22856 0.13822
#
# Static dielectric constant tensor:
#      x y z
#    x 1.742400 0.000000 0.000000 
#    y 0.000000 1.677530 0.000000 
#    z 0.000000 0.000000 1.547460 
# 
# From -- ./inp_files/23804.got.cif
#   From: 2010.05.17/outbox.cif.g08.bks.cpg/sg63_12_cif.got.tgz:23804.got - 2010.06.03 15:47:04.
