data_PCOD9473289
_publ_section_title
;
Structure prediction by ZEFSAII (Michael W. Deem and Ramdas Pophale) SiO2 
 PCOD9473289
Probable space group: C M C M
;
_chemical_formula_sum "Si O2"
_cell_formula_units_Z 96
_cell_length_a 25.151883
_cell_length_b 13.244684
_cell_length_c 16.923962
_cell_angle_alpha 90.000000
_cell_angle_beta 90.000000
_cell_angle_gamma 90.000000
_cell_volume 5637.858176
_symmetry_space_group_name_H-M "C M C M"
_symmetry_group_IT_number 63
_symmetry_cell_setting 'orthorhombic'
loop_
_space_group_symop_operation_xyz
x,y,z
-x,-y,1/2+z
x,-y,-z
-x,y,1/2-z
-x,-y,-z
x,y,1/2-z
-x,y,z
x,-y,1/2+z
1/2+x,1/2+y,z
1/2-x,1/2-y,1/2+z
1/2+x,1/2-y,-z
1/2-x,1/2+y,1/2-z
1/2-x,1/2-y,-z
1/2+x,1/2+y,1/2-z
1/2-x,1/2+y,z
1/2+x,1/2-y,1/2+z
loop_
_atom_site_type_symbol
_atom_site_label
_atom_site_fract_x
_atom_site_fract_y
_atom_site_fract_z
Si Si1 0.226958 0.961657 0.842716
Si Si2 0.438598 0.049861 0.345457
Si Si3 0.639662 0.414179 0.442671
Si Si4 0.833783 0.544491 0.588216
Si Si5 0.438790 0.717497 0.844563
Si Si6 0.799709 0.769497 0.942743
O O1 0.215015 0.971112 0.750000
O O2 0.216518 0.848448 0.874514
O O3 0.189222 0.034885 0.895679
O O4 0.287975 0.991478 0.859664
O O5 0.436596 0.043584 0.250000
O O6 0.500000 0.027637 0.368747
O O7 0.426405 0.166541 0.367839
O O8 0.392781 0.981113 0.381905
O O9 0.616416 0.500000 0.500000
O O10 0.599113 0.364280 0.382758
O O11 0.659045 0.326677 0.501047
O O12 0.827382 0.500000 0.500000
O O13 0.821748 0.663478 0.587583
O O14 0.434596 0.713467 0.750000
O O15 0.500000 0.698742 0.866269
O O16 0.750000 0.750000 0.000000
#
# Coordination Sequence:
#
# PCOD9473289 Si02
#       6
#    16  16  16  16  16  16
#     4  11  23  36  54  83 113 144 187 230 277 334
#     4   9  20  37  55  81 114 142 180 232 276 323
#     4  10  20  37  56  77 111 149 182 229 280 328
#     4  12  21  35  58  80 109 149 185 222 279 336
#     4   9  18  34  57  84 111 142 185 234 279 324
#     4  11  21  39  54  78 116 148 180 227 274 332
#
# _framework density 17.027743000000001
#
# number of rings (size 3 to 8) (size 9 to 14) (size 15 to 20)
#    0.000    1.667    3.333    3.500    0.000    2.000 
#    0.000    0.833    0.000    1.000    0.000    9.333 
#    0.000    0.000    0.000    0.000    0.000    0.000 
#
# Total GULP energy -267858.579056 kJ/mol
# GULP energy per Si atom -5580.387064 kJ/mol
# Density = 1.698899 g / cm^3
# Si number density = 17.027743 Si / 1000 Ang^3
#
#
#
# Elastic Constant Matrix: (Units=GPa)
#
#
# Indices 1 2 3 4 5 6 
#
# 1 94.7040 67.0234 22.0135 0.0000 0.0000 0.0000
# 2 67.0234 113.5750 27.3567 0.0000 0.0000 0.0000
# 3 22.0135 27.3567 57.2600 0.0000 0.0000 0.0000
# 4 0.0000 0.0000 0.0000 24.4348 0.0000 0.0000
# 5 0.0000 0.0000 0.0000 0.0000 31.6732 0.0000
# 6 0.0000 0.0000 0.0000 0.0000 0.0000 28.7613
#
#
#
# Elastic Compliance Matrix: (Units=1/GPa)
#
#
# Indices 1 2 3 4 5 6 
#
# 1 0.018358 -0.010321 -0.002127 0.000000 0.000000 0.000000
# 2 -0.010321 0.015753 -0.003558 0.000000 0.000000 0.000000
# 3 -0.002127 -0.003558 0.019982 0.000000 0.000000 0.000000
# 4 0.000000 0.000000 0.000000 0.040925 0.000000 0.000000
# 5 0.000000 0.000000 0.000000 0.000000 0.031572 0.000000
# 6 0.000000 0.000000 0.000000 0.000000 0.000000 0.034769
#
#
# Mechanical properties :
#
#
# Convention : Reuss Voigt Hill
#
# Bulk Modulus (GPa) = 45.28881 55.36961 50.32921
# Shear Modulus (GPa) = 24.90894 26.91688 25.91291
#
# Velocity S-wave (km/s) = 3.82886 3.98020 3.90526
# Velocity P-wave (km/s) = 6.79719 7.32875 7.06797
#
# Compressibility (1/GPa) = 0.02208051
#
# Stress axis : x y z
#
# Youngs Moduli (GPa) = 54.47187 63.48140 50.04592
#
# Poissons Ratio (x) = 0.65521 0.10643
# Poissons Ratio (y) = 0.56222 0.17806
# Poissons Ratio (z) = 0.11584 0.22587
#
# Static dielectric constant tensor:
#      x y z
#    x 1.563980 0.000000 0.000000 
#    y 0.000000 1.525620 0.000000 
#    z 0.000000 0.000000 1.571700 
# 
# From -- ./inp_files/48040.got.cif
#   From: 2010.05.17/outbox.cif.g08.bks.cpg/sg63_25_cif.got.tgz:48040.got - 2010.06.03 15:47:04.
