data_PCOD9473610
_publ_section_title
;
Structure prediction by ZEFSAII (Michael W. Deem and Ramdas Pophale) SiO2 
 PCOD9473610
Probable space group: C M C M
;
_chemical_formula_sum "Si O2"
_cell_formula_units_Z 84
_cell_length_a 7.397323
_cell_length_b 23.943681
_cell_length_c 20.660769
_cell_angle_alpha 90.000000
_cell_angle_beta 90.000000
_cell_angle_gamma 90.000000
_cell_volume 3659.417682
_symmetry_space_group_name_H-M "C M C M"
_symmetry_group_IT_number 63
_symmetry_cell_setting 'orthorhombic'
loop_
_space_group_symop_operation_xyz
x,y,z
-x,-y,1/2+z
x,-y,-z
-x,y,1/2-z
-x,-y,-z
x,y,1/2-z
-x,y,z
x,-y,1/2+z
1/2+x,1/2+y,z
1/2-x,1/2-y,1/2+z
1/2+x,1/2-y,-z
1/2-x,1/2+y,1/2-z
1/2-x,1/2-y,-z
1/2+x,1/2+y,1/2-z
1/2-x,1/2+y,z
1/2+x,1/2-y,1/2+z
loop_
_atom_site_type_symbol
_atom_site_label
_atom_site_fract_x
_atom_site_fract_y
_atom_site_fract_z
Si Si1 0.500000 0.821365 0.750000
Si Si2 0.290618 0.535303 0.678344
Si Si3 0.779911 0.779431 0.852879
Si Si4 0.717195 0.659606 0.481185
Si Si5 0.205231 0.656793 0.868995
Si Si6 0.279250 0.462980 0.561208
O O1 0.660256 0.817146 0.806335
O O2 0.210259 0.533661 0.750000
O O3 0.500000 0.519129 0.684020
O O4 0.290876 0.598402 0.651135
O O5 0.211557 0.493024 0.625819
O O6 0.739112 0.793951 0.927891
O O7 0.724763 0.714976 0.840255
O O8 0.000000 0.785187 0.844420
O O9 0.500000 0.658865 0.488555
O O10 0.791418 0.663653 0.553390
O O11 0.774576 0.600501 0.450377
O O12 0.000000 0.652059 0.846676
O O13 0.223787 0.500000 0.500000
O O14 0.500000 0.463606 0.562221
#
# Coordination Sequence:
#
# PCOD9473610 Si02
#       6
#     4  16  16  16  16  16
#     4  12  26  44  72  86 134 178 212 264 320 400
#     4  10  21  36  59  89 119 159 216 264 320 392
#     4  10  25  43  63  98 129 168 216 263 321 385
#     4  10  20  39  66  90 125 162 210 270 319 371
#     4  11  23  37  60  90 127 162 205 264 320 389
#     4   9  16  33  60  90 117 155 209 264 313 374
#
# _framework density 22.954471999999999
#
# number of rings (size 3 to 8) (size 9 to 14) (size 15 to 20)
#    0.000    1.905    1.905    1.429    5.333    0.381 
#    1.714    1.905    0.000    0.000    0.000    0.000 
#    0.000    0.000    0.000    0.000    0.000    0.000 
#
# Total GULP energy -234165.857034 kJ/mol
# GULP energy per Si atom -5575.377548 kJ/mol
# Density = 2.290223 g / cm^3
# Si number density = 22.954472 Si / 1000 Ang^3
#
#
#
# Elastic Constant Matrix: (Units=GPa)
#
#
# Indices 1 2 3 4 5 6 
#
# 1 87.2112 -6.9782 3.9844 0.0000 0.0000 0.0000
# 2 -6.9782 75.1473 5.2476 0.0000 0.0000 0.0000
# 3 3.9844 5.2476 116.2550 0.0000 0.0000 0.0000
# 4 0.0000 0.0000 0.0000 -11.3954 0.0000 0.0000
# 5 0.0000 0.0000 0.0000 0.0000 27.6755 0.0000
# 6 0.0000 0.0000 0.0000 0.0000 0.0000 -1.9357
#
#
#
# Elastic Compliance Matrix: (Units=1/GPa)
#
#
# Indices 1 2 3 4 5 6 
#
# 1 0.011575 0.001106 -0.000447 0.000000 0.000000 0.000000
# 2 0.001106 0.013455 -0.000645 0.000000 0.000000 0.000000
# 3 -0.000447 -0.000645 0.008646 0.000000 0.000000 0.000000
# 4 0.000000 0.000000 0.000000 -0.087755 0.000000 0.000000
# 5 0.000000 0.000000 0.000000 0.000000 0.036133 0.000000
# 6 0.000000 0.000000 0.000000 0.000000 0.000000 -0.516619
#
#
# Mechanical properties :
#
#
# Convention : Reuss Voigt Hill
#
# Bulk Modulus (GPa) = 29.66930 31.45790 30.56360
# Shear Modulus (GPa) = -9.55369 21.29287 5.86959
#
# Velocity S-wave (km/s) = -2.04232 3.04898 1.60081
# Velocity P-wave (km/s) = 2.71881 5.11168 4.09397
#
# Compressibility (1/GPa) = 0.03370488
#
# Stress axis : x y z
#
# Youngs Moduli (GPa) = 86.39068 74.32196 115.65760
#
# Poissons Ratio (x) = -0.08221 0.05166
# Poissons Ratio (y) = -0.09555 0.07463
# Poissons Ratio (z) = 0.03859 0.04796
#
# Static dielectric constant tensor:
#      x y z
#    x 1.874670 0.000000 0.000000 
#    y 0.000000 1.848890 0.000000 
#    z 0.000000 0.000000 1.842640 
# 
# From -- ./inp_files/50919.got.cif
#   From: 2010.05.17/outbox.cif.g08.bks.cpg/sg63_26_cif.got.tgz:50919.got - 2010.06.03 15:47:04.
