data_PCOD9473430
_publ_section_title
;
Structure prediction by ZEFSAII (Michael W. Deem and Ramdas Pophale) SiO2 
 PCOD9473430
Probable space group: C M C M
;
_chemical_formula_sum "Si O2"
_cell_formula_units_Z 96
_cell_length_a 12.287324
_cell_length_b 17.628026
_cell_length_c 22.781962
_cell_angle_alpha 90.000000
_cell_angle_beta 90.000000
_cell_angle_gamma 90.000000
_cell_volume 4934.601833
_symmetry_space_group_name_H-M "C M C M"
_symmetry_group_IT_number 63
_symmetry_cell_setting 'orthorhombic'
loop_
_space_group_symop_operation_xyz
x,y,z
-x,-y,1/2+z
x,-y,-z
-x,y,1/2-z
-x,-y,-z
x,y,1/2-z
-x,y,z
x,-y,1/2+z
1/2+x,1/2+y,z
1/2-x,1/2-y,1/2+z
1/2+x,1/2-y,-z
1/2-x,1/2+y,1/2-z
1/2-x,1/2-y,-z
1/2+x,1/2+y,1/2-z
1/2-x,1/2+y,z
1/2+x,1/2-y,1/2+z
loop_
_atom_site_type_symbol
_atom_site_label
_atom_site_fract_x
_atom_site_fract_y
_atom_site_fract_z
Si Si1 0.379014 0.173832 0.682581
Si Si2 0.500000 0.592860 0.544884
Si Si3 0.874304 0.671811 0.123003
Si Si4 0.337845 0.645652 0.183893
Si Si5 0.625788 0.086087 0.005012
Si Si6 0.000000 0.919659 0.911322
Si Si7 0.719906 0.331574 0.417154
O O1 0.362973 0.151909 0.750000
O O2 0.500000 0.150497 0.663639
O O3 0.374067 0.265930 0.680243
O O4 0.285603 0.143929 0.640687
O O5 0.500000 0.619068 0.475885
O O6 0.500000 0.505210 0.564600
O O7 0.608926 0.625399 0.572252
O O8 0.791893 0.646520 0.173716
O O9 0.816669 0.744995 0.093186
O O10 0.000000 0.688362 0.139695
O O11 0.875363 0.608625 0.072820
O O12 0.364666 0.618717 0.250000
O O13 0.398391 0.602277 0.130728
O O14 0.500000 0.088155 0.983901
O O15 0.698906 0.146137 0.969757
O O16 0.668215 0.000000 0.000000
#
# Coordination Sequence:
#
# PCOD9473430 Si02
#       7
#    16   8  16  16  16   8  16
#     4   9  18  36  62  89 113 147 199 254 298 339
#     4  11  26  38  58  88 127 164 195 230 315 365
#     4  10  21  38  57  87 122 152 197 249 301 366
#     4  10  20  37  64  89 113 152 200 249 296 347
#     4  10  22  37  58  84 116 161 205 255 310 356
#     4  11  23  40  60  88 121 157 197 252 289 361
#     4  11  21  38  57  85 122 159 201 241 296 375
#
# _framework density 19.454457000000001
#
# number of rings (size 3 to 8) (size 9 to 14) (size 15 to 20)
#    0.000    1.833    1.667    2.250    4.667    1.667 
#    0.000    2.083    0.000    0.000    0.000    0.000 
#    0.000    0.000    0.000    0.000    0.000    0.000 
#
# Total GULP energy -267592.145164 kJ/mol
# GULP energy per Si atom -5574.836358 kJ/mol
# Density = 1.941018 g / cm^3
# Si number density = 19.454457 Si / 1000 Ang^3
#
#
#
# Elastic Constant Matrix: (Units=GPa)
#
#
# Indices 1 2 3 4 5 6 
#
# 1 142.1196 17.6246 74.2214 0.0000 0.0000 0.0000
# 2 17.6246 23.8333 22.2989 0.0000 0.0000 0.0000
# 3 74.2214 22.2989 118.9439 0.0000 0.0000 0.0000
# 4 0.0000 0.0000 0.0000 17.8790 0.0000 0.0000
# 5 0.0000 0.0000 0.0000 0.0000 18.3600 0.0000
# 6 0.0000 0.0000 0.0000 0.0000 0.0000 -0.7782
#
#
#
# Elastic Compliance Matrix: (Units=1/GPa)
#
#
# Indices 1 2 3 4 5 6 
#
# 1 0.010515 -0.001985 -0.006189 0.000000 0.000000 0.000000
# 2 -0.001985 0.051258 -0.008371 0.000000 0.000000 0.000000
# 3 -0.006189 -0.008371 0.013839 0.000000 0.000000 0.000000
# 4 0.000000 0.000000 0.000000 0.055932 0.000000 0.000000
# 5 0.000000 0.000000 0.000000 0.000000 0.054466 0.000000
# 6 0.000000 0.000000 0.000000 0.000000 0.000000 -1.284988
#
#
# Mechanical properties :
#
#
# Convention : Reuss Voigt Hill
#
# Bulk Modulus (GPa) = 23.51753 57.02073 40.26913
# Shear Modulus (GPa) = -4.75414 18.47560 6.86073
#
# Velocity S-wave (km/s) = -1.56494 3.08504 1.87995
# Velocity P-wave (km/s) = 2.97479 6.48563 5.04543
#
# Compressibility (1/GPa) = 0.04252148
#
# Stress axis : x y z
#
# Youngs Moduli (GPa) = 95.10479 19.50912 72.26113
#
# Poissons Ratio (x) = 0.03872 0.44723
# Poissons Ratio (y) = 0.18877 0.60490
# Poissons Ratio (z) = 0.58861 0.16331
#
# Static dielectric constant tensor:
#      x y z
#    x 1.698690 0.000000 0.000000 
#    y 0.000000 1.684640 0.000000 
#    z 0.000000 0.000000 1.676170 
# 
# From -- ./inp_files/52908.got.cif
#   From: 2010.05.17/outbox.cif.g08.bks.cpg/sg63_27_cif.got.tgz:52908.got - 2010.06.03 15:47:04.
