data_PCOD9473125
_publ_section_title
;
Structure prediction by ZEFSAII (Michael W. Deem and Ramdas Pophale) SiO2 
 PCOD9473125
Probable space group: C M C M
;
_chemical_formula_sum "Si O2"
_cell_formula_units_Z 84
_cell_length_a 7.742087
_cell_length_b 25.658320
_cell_length_c 20.486065
_cell_angle_alpha 90.000000
_cell_angle_beta 90.000000
_cell_angle_gamma 90.000000
_cell_volume 4069.535214
_symmetry_space_group_name_H-M "C M C M"
_symmetry_group_IT_number 63
_symmetry_cell_setting 'orthorhombic'
loop_
_space_group_symop_operation_xyz
x,y,z
-x,-y,1/2+z
x,-y,-z
-x,y,1/2-z
-x,-y,-z
x,y,1/2-z
-x,y,z
x,-y,1/2+z
1/2+x,1/2+y,z
1/2-x,1/2-y,1/2+z
1/2+x,1/2-y,-z
1/2-x,1/2+y,1/2-z
1/2-x,1/2-y,-z
1/2+x,1/2+y,1/2-z
1/2-x,1/2+y,z
1/2+x,1/2-y,1/2+z
loop_
_atom_site_type_symbol
_atom_site_label
_atom_site_fract_x
_atom_site_fract_y
_atom_site_fract_z
Si Si1 0.794915 0.589214 0.511551
Si Si2 0.207875 0.052414 0.372949
Si Si3 0.207031 0.835927 0.678415
Si Si4 0.703930 0.199766 0.458321
Si Si5 0.201055 0.061387 0.844218
Si Si6 0.000000 0.402990 0.250000
O O1 0.765836 0.553208 0.448235
O O2 0.725263 0.646156 0.489309
O O3 0.708997 0.571957 0.578386
O O4 0.000000 0.591777 0.523244
O O5 0.272282 0.106010 0.340251
O O6 0.000000 0.053876 0.372824
O O7 0.255731 0.999443 0.336504
O O8 0.271386 0.820210 0.750000
O O9 0.245454 0.798704 0.617624
O O10 0.000000 0.839513 0.681873
O O11 0.500000 0.194078 0.459583
O O12 0.750000 0.250000 0.500000
O O13 0.344780 0.094183 0.806371
O O14 0.000000 0.067989 0.823995
#
# Coordination Sequence:
#
# PCOD9473125 Si02
#       6
#    16  16  16  16  16   4
#     4  10  20  36  58  86 114 147 193 248 297 347
#     4   9  19  33  54  86 117 152 195 233 283 352
#     4   9  18  34  56  83 119 153 185 230 289 348
#     4  10  21  37  60  87 114 146 191 244 294 352
#     4  11  23  39  59  82 117 161 203 244 291 348
#     4  12  26  40  54  82 116 164 208 248 288 338
#
# _framework density 20.641176999999999
#
# number of rings (size 3 to 8) (size 9 to 14) (size 15 to 20)
#    0.000    2.095    0.952    2.000    2.667    4.952 
#    0.000    0.000    2.095    0.000    0.000    0.000 
#    0.000    0.000    0.000    0.000    0.000    0.000 
#
# Total GULP energy -233926.378283 kJ/mol
# GULP energy per Si atom -5569.675673 kJ/mol
# Density = 2.059420 g / cm^3
# Si number density = 20.641177 Si / 1000 Ang^3
#
#
#
# Elastic Constant Matrix: (Units=GPa)
#
#
# Indices 1 2 3 4 5 6 
#
# 1 73.3249 2.1106 15.6957 0.0000 0.0000 0.0000
# 2 2.1106 37.8177 27.9545 0.0000 0.0000 0.0000
# 3 15.6957 27.9545 138.7199 0.0000 0.0000 0.0000
# 4 0.0000 0.0000 0.0000 -4.5013 0.0000 0.0000
# 5 0.0000 0.0000 0.0000 0.0000 -25.1069 0.0000
# 6 0.0000 0.0000 0.0000 0.0000 0.0000 15.4543
#
#
#
# Elastic Compliance Matrix: (Units=1/GPa)
#
#
# Indices 1 2 3 4 5 6 
#
# 1 0.013983 0.000457 -0.001674 0.000000 0.000000 0.000000
# 2 0.000457 0.031086 -0.006316 0.000000 0.000000 0.000000
# 3 -0.001674 -0.006316 0.008671 0.000000 0.000000 0.000000
# 4 0.000000 0.000000 0.000000 -0.222158 0.000000 0.000000
# 5 0.000000 0.000000 0.000000 0.000000 -0.039830 0.000000
# 6 0.000000 0.000000 0.000000 0.000000 0.000000 0.064707
#
#
# Mechanical properties :
#
#
# Convention : Reuss Voigt Hill
#
# Bulk Modulus (GPa) = 25.85731 37.93158 31.89445
# Shear Modulus (GPa) = -43.25886 10.77601 -16.24143
#
# Velocity S-wave (km/s) = -4.58291 2.28735 -2.80812
# Velocity P-wave (km/s) = 3.93063 5.03910 2.22965
#
# Compressibility (1/GPa) = 0.03867378
#
# Stress axis : x y z
#
# Youngs Moduli (GPa) = 71.51455 32.16894 115.32673
#
# Poissons Ratio (x) = -0.01471 0.19309
# Poissons Ratio (y) = -0.03270 0.72841
# Poissons Ratio (z) = 0.11974 0.20318
#
# Static dielectric constant tensor:
#      x y z
#    x 1.742010 0.000000 0.000000 
#    y 0.000000 1.643360 0.000000 
#    z 0.000000 0.000000 1.742010 
# 
# From -- ./inp_files/51227.got.cif
#   From: 2010.05.17/outbox.cif.g08.bks.cpg/sg63_26_cif.got.tgz:51227.got - 2010.06.03 15:47:04.
