data_PCOD9473343
_publ_section_title
;
Structure prediction by ZEFSAII (Michael W. Deem and Ramdas Pophale) SiO2 
 PCOD9473343
Probable space group: C M C M
;
_chemical_formula_sum "Si O2"
_cell_formula_units_Z 80
_cell_length_a 20.376328
_cell_length_b 7.662410
_cell_length_c 23.291737
_cell_angle_alpha 90.000000
_cell_angle_beta 90.000000
_cell_angle_gamma 90.000000
_cell_volume 3636.580344
_symmetry_space_group_name_H-M "C M C M"
_symmetry_group_IT_number 63
_symmetry_cell_setting 'orthorhombic'
loop_
_space_group_symop_operation_xyz
x,y,z
-x,-y,1/2+z
x,-y,-z
-x,y,1/2-z
-x,-y,-z
x,y,1/2-z
-x,y,z
x,-y,1/2+z
1/2+x,1/2+y,z
1/2-x,1/2-y,1/2+z
1/2+x,1/2-y,-z
1/2-x,1/2+y,1/2-z
1/2-x,1/2-y,-z
1/2+x,1/2+y,1/2-z
1/2-x,1/2+y,z
1/2+x,1/2-y,1/2+z
loop_
_atom_site_type_symbol
_atom_site_label
_atom_site_fract_x
_atom_site_fract_y
_atom_site_fract_z
Si Si1 0.129494 0.508497 0.372625
Si Si2 0.733350 0.107071 0.453365
Si Si3 0.000000 0.944457 0.567534
Si Si4 0.317481 0.417456 0.750000
Si Si5 0.500000 0.972314 0.066376
Si Si6 0.336092 0.003586 0.750000
Si Si7 0.140649 0.919250 0.620697
O O1 0.187976 0.622066 0.398917
O O2 0.063727 0.550306 0.404956
O O3 0.126545 0.551657 0.306385
O O4 0.142443 0.297217 0.378994
O O5 0.750000 0.250000 0.500000
O O6 0.801311 0.036322 0.425218
O O7 0.690090 0.000000 0.500000
O O8 0.000000 0.735166 0.574170
O O9 0.070083 0.988769 0.598061
O O10 0.000000 0.000000 0.500000
O O11 0.239132 0.442025 0.750000
O O12 0.343878 0.478445 0.813267
O O13 0.332959 0.212634 0.750000
O O14 0.500000 0.000000 0.000000
#
# Coordination Sequence:
#
# PCOD9473343 Si02
#       7
#    16  16   8   8   8   8  16
#     4  10  21  38  59  87 114 154 197 243 295 348
#     4  12  22  34  56  86 118 150 198 242 293 350
#     4  10  22  41  59  87 119 152 196 238 296 354
#     4  10  20  37  59  87 115 153 196 244 297 343
#     4  10  22  39  61  83 121 156 190 239 294 358
#     4  10  20  37  59  85 117 147 200 244 291 353
#     4  10  21  38  60  86 117 153 196 246 291 351
#
# _framework density 21.998688999999999
#
# number of rings (size 3 to 8) (size 9 to 14) (size 15 to 20)
#    0.000    1.600    4.000    1.200    2.800    0.800 
#    0.000    4.000    0.000    0.000    0.000    2.800 
#    0.000    0.000    0.000    0.000    0.000    0.000 
#
# Total GULP energy -222745.160626 kJ/mol
# GULP energy per Si atom -5568.629016 kJ/mol
# Density = 2.194862 g / cm^3
# Si number density = 21.998689 Si / 1000 Ang^3
#
#
#
# Elastic Constant Matrix: (Units=GPa)
#
#
# Indices 1 2 3 4 5 6 
#
# 1 165.4208 -4.5131 95.7300 0.0000 0.0000 0.0000
# 2 -4.5131 23.8060 8.0335 0.0000 0.0000 0.0000
# 3 95.7300 8.0335 226.2883 0.0000 0.0000 0.0000
# 4 0.0000 0.0000 0.0000 26.5344 0.0000 0.0000
# 5 0.0000 0.0000 0.0000 0.0000 48.1420 0.0000
# 6 0.0000 0.0000 0.0000 0.0000 0.0000 0.9714
#
#
#
# Elastic Compliance Matrix: (Units=1/GPa)
#
#
# Indices 1 2 3 4 5 6 
#
# 1 0.008179 0.002751 -0.003558 0.000000 0.000000 0.000000
# 2 0.002751 0.043441 -0.002706 0.000000 0.000000 0.000000
# 3 -0.003558 -0.002706 0.006020 0.000000 0.000000 0.000000
# 4 0.000000 0.000000 0.000000 0.037687 0.000000 0.000000
# 5 0.000000 0.000000 0.000000 0.000000 0.020772 0.000000
# 6 0.000000 0.000000 0.000000 0.000000 0.000000 1.029453
#
#
# Mechanical properties :
#
#
# Convention : Reuss Voigt Hill
#
# Bulk Modulus (GPa) = 19.75697 68.22400 43.99049
# Shear Modulus (GPa) = 4.27552 36.21388 20.24470
#
# Velocity S-wave (km/s) = 1.39562 4.06172 3.03688
# Velocity P-wave (km/s) = 3.40551 7.28539 5.68658
#
# Compressibility (1/GPa) = 0.05061505
#
# Stress axis : x y z
#
# Youngs Moduli (GPa) = 122.26157 23.01975 166.10378
#
# Poissons Ratio (x) = -0.06333 0.59097
# Poissons Ratio (y) = -0.33637 0.44949
# Poissons Ratio (z) = 0.43499 0.06229
#
# Static dielectric constant tensor:
#      x y z
#    x 1.750040 0.000000 0.000000 
#    y 0.000000 1.980710 0.000000 
#    z 0.000000 0.000000 1.759810 
# 
# From -- ./inp_files/64338.got.cif
#   From: 2010.05.17/outbox.cif.g08.bks.cpg/sg63_33_cif.got.tgz:64338.got - 2010.06.03 15:47:04.
