data_PCOD9473410
_publ_section_title
;
Structure prediction by ZEFSAII (Michael W. Deem and Ramdas Pophale) SiO2 
 PCOD9473410
Probable space group: C M C M
;
_chemical_formula_sum "Si O2"
_cell_formula_units_Z 112
_cell_length_a 14.197958
_cell_length_b 12.497727
_cell_length_c 28.215035
_cell_angle_alpha 90.000000
_cell_angle_beta 90.000000
_cell_angle_gamma 90.000000
_cell_volume 5006.537969
_symmetry_space_group_name_H-M "C M C M"
_symmetry_group_IT_number 63
_symmetry_cell_setting 'orthorhombic'
loop_
_space_group_symop_operation_xyz
x,y,z
-x,-y,1/2+z
x,-y,-z
-x,y,1/2-z
-x,-y,-z
x,y,1/2-z
-x,y,z
x,-y,1/2+z
1/2+x,1/2+y,z
1/2-x,1/2-y,1/2+z
1/2+x,1/2-y,-z
1/2-x,1/2+y,1/2-z
1/2-x,1/2-y,-z
1/2+x,1/2+y,1/2-z
1/2-x,1/2+y,z
1/2+x,1/2-y,1/2+z
loop_
_atom_site_type_symbol
_atom_site_label
_atom_site_fract_x
_atom_site_fract_y
_atom_site_fract_z
Si Si1 0.603006 0.779109 0.625999
Si Si2 0.857041 0.100314 0.803378
Si Si3 0.355008 0.185121 0.803757
Si Si4 0.387541 0.207028 0.478388
Si Si5 0.108141 0.443747 0.697263
Si Si6 0.697646 0.402636 0.967111
Si Si7 0.111731 0.104770 0.135943
O O1 0.500000 0.826721 0.615291
O O2 0.594655 0.677480 0.659175
O O3 0.635443 0.745547 0.574240
O O4 0.654084 0.870565 0.656910
O O5 0.894144 0.102619 0.750000
O O6 0.754098 0.153178 0.802031
O O7 0.858948 0.981949 0.824430
O O8 0.384721 0.216023 0.750000
O O9 0.374786 0.277401 0.841320
O O10 0.397055 0.068325 0.815163
O O11 0.500000 0.184216 0.484215
O O12 0.355043 0.294595 0.516216
O O13 0.309588 0.112979 0.477693
O O14 0.152333 0.433399 0.750000
O O15 0.000000 0.405195 0.702059
O O16 0.670529 0.415673 0.912075
O O17 0.663835 0.500000 0.000000
O O18 0.000000 0.090704 0.125932
#
# Coordination Sequence:
#
# PCOD9473410 Si02
#       7
#    16  16  16  16  16  16  16
#     4  10  20  37  62  91 124 163 210 265 322 386
#     4  11  24  38  60  94 134 176 220 272 328 388
#     4  10  23  40  62  91 131 176 220 269 319 382
#     4  10  23  45  69  98 131 168 217 273 337 401
#     4   9  18  34  58  88 122 163 208 255 313 380
#     4  11  25  45  70  98 131 170 218 277 336 401
#     4  12  26  44  68  97 133 180 229 277 335 402
#
# _framework density 22.370749
#
# number of rings (size 3 to 8) (size 9 to 14) (size 15 to 20)
#    0.000    1.571    0.000    3.857    4.000    6.857 
#    0.000    0.000    0.000    0.000    0.000    0.000 
#    0.000    0.000    0.000    0.000    0.000    0.000 
#
# Total GULP energy -312411.788379 kJ/mol
# GULP energy per Si atom -5578.781935 kJ/mol
# Density = 2.231983 g / cm^3
# Si number density = 22.370749 Si / 1000 Ang^3
#
#
#
# Elastic Constant Matrix: (Units=GPa)
#
#
# Indices 1 2 3 4 5 6 
#
# 1 103.3925 -0.4830 -2.4294 0.0000 0.0000 0.0000
# 2 -0.4830 57.0266 27.9179 0.0000 0.0000 0.0000
# 3 -2.4294 27.9179 102.3320 0.0000 0.0000 0.0000
# 4 0.0000 0.0000 0.0000 26.8242 0.0000 0.0000
# 5 0.0000 0.0000 0.0000 0.0000 23.8364 0.0000
# 6 0.0000 0.0000 0.0000 0.0000 0.0000 23.7074
#
#
#
# Elastic Compliance Matrix: (Units=1/GPa)
#
#
# Indices 1 2 3 4 5 6 
#
# 1 0.009677 -0.000035 0.000239 0.000000 0.000000 0.000000
# 2 -0.000035 0.020239 -0.005522 0.000000 0.000000 0.000000
# 3 0.000239 -0.005522 0.011284 0.000000 0.000000 0.000000
# 4 0.000000 0.000000 0.000000 0.037280 0.000000 0.000000
# 5 0.000000 0.000000 0.000000 0.000000 0.041953 0.000000
# 6 0.000000 0.000000 0.000000 0.000000 0.000000 0.042181
#
#
# Mechanical properties :
#
#
# Convention : Reuss Voigt Hill
#
# Bulk Modulus (GPa) = 32.71804 34.75137 33.73470
# Shear Modulus (GPa) = 27.25708 30.72329 28.99019
#
# Velocity S-wave (km/s) = 3.49438 3.70992 3.60376
# Velocity P-wave (km/s) = 5.56220 5.82403 5.69462
#
# Compressibility (1/GPa) = 0.03056418
#
# Stress axis : x y z
#
# Youngs Moduli (GPa) = 103.33418 49.40986 88.61810
#
# Poissons Ratio (x) = 0.00174 -0.02121
# Poissons Ratio (y) = 0.00364 0.48938
# Poissons Ratio (z) = -0.02473 0.27286
#
# Static dielectric constant tensor:
#      x y z
#    x 1.738050 0.000000 0.000000 
#    y 0.000000 1.784640 0.000000 
#    z 0.000000 0.000000 1.845000 
# 
# From -- ./inp_files/73430.got.cif
#   From: 2010.05.17/outbox.cif.g08.bks.cpg/sg63_37_cif.got.tgz:73430.got - 2010.06.03 15:47:04.
