data_PCOD9473947
_publ_section_title
;
Structure prediction by ZEFSAII (Michael W. Deem and Ramdas Pophale) SiO2 
 PCOD9473947
Probable space group: C M C M
;
_chemical_formula_sum "Si O2"
_cell_formula_units_Z 116
_cell_length_a 27.750468
_cell_length_b 25.842391
_cell_length_c 8.435801
_cell_angle_alpha 90.000000
_cell_angle_beta 90.000000
_cell_angle_gamma 90.000000
_cell_volume 6049.637207
_symmetry_space_group_name_H-M "C M C M"
_symmetry_group_IT_number 63
_symmetry_cell_setting 'orthorhombic'
loop_
_space_group_symop_operation_xyz
x,y,z
-x,-y,1/2+z
x,-y,-z
-x,y,1/2-z
-x,-y,-z
x,y,1/2-z
-x,y,z
x,-y,1/2+z
1/2+x,1/2+y,z
1/2-x,1/2-y,1/2+z
1/2+x,1/2-y,-z
1/2-x,1/2+y,1/2-z
1/2-x,1/2-y,-z
1/2+x,1/2+y,1/2-z
1/2-x,1/2+y,z
1/2+x,1/2-y,1/2+z
loop_
_atom_site_type_symbol
_atom_site_label
_atom_site_fract_x
_atom_site_fract_y
_atom_site_fract_z
Si Si1 0.445931 0.689838 0.559045
Si Si2 0.574470 0.091022 0.061942
Si Si3 0.695212 0.250174 0.939998
Si Si4 0.823261 0.558896 0.940875
Si Si5 0.500000 0.000000 0.000000
Si Si6 0.217663 0.941471 0.438996
Si Si7 0.854311 0.142558 0.438650
Si Si8 0.899118 0.701773 0.441640
O O1 0.446048 0.690810 0.750000
O O2 0.500000 0.681384 0.502336
O O3 0.408171 0.647278 0.502780
O O4 0.426269 0.746060 0.505991
O O5 0.563531 0.087196 0.250000
O O6 0.570781 0.150823 0.008965
O O7 0.630681 0.081371 0.028405
O O8 0.542015 0.045960 0.986129
O O9 0.695841 0.247535 0.750000
O O10 0.672885 0.305186 0.993741
O O11 0.750000 0.250000 0.000000
O O12 0.656237 0.207457 0.998926
O O13 0.829959 0.561401 0.750000
O O14 0.770613 0.581135 0.982756
O O15 0.820908 0.500000 0.000000
O O16 0.216079 0.942661 0.250000
O O17 0.175461 0.906266 0.504025
O O18 0.214095 0.000000 0.500000
O O19 0.855250 0.143443 0.250000
O O20 0.897379 0.700348 0.250000
#
# Coordination Sequence:
#
# PCOD9473947 Si02
#       8
#    16  16  16  16   4  16  16  16
#     4   9  18  35  60  86 113 147 191 238 287 345
#     4  11  24  40  59  81 111 148 195 250 307 362
#     4  10  21  36  55  83 118 154 192 238 293 355
#     4  10  21  37  57  80 108 143 187 235 286 344
#     4  12  26  40  60  86 114 156 206 264 322 368
#     4  10  21  37  59  88 119 155 193 236 283 341
#     4  10  21  36  56  84 118 155 192 235 286 345
#     4   9  20  37  57  83 112 149 193 242 296 356
#
# _framework density 19.174703999999998
#
# number of rings (size 3 to 8) (size 9 to 14) (size 15 to 20)
#    0.000    2.069    0.690    1.862    2.897    4.690 
#    0.000    0.000    0.000    0.414    0.000    0.000 
#    0.000    0.000    0.000    0.000    0.000    0.000 
#
# Total GULP energy -323038.233599 kJ/mol
# GULP energy per Si atom -5569.624717 kJ/mol
# Density = 1.913106 g / cm^3
# Si number density = 19.174704 Si / 1000 Ang^3
#
#
#
# Elastic Constant Matrix: (Units=GPa)
#
#
# Indices 1 2 3 4 5 6 
#
# 1 161.0175 55.6963 18.5557 0.0000 0.0000 0.0000
# 2 55.6963 76.1589 5.0278 0.0000 0.0000 0.0000
# 3 18.5557 5.0278 10.9469 0.0000 0.0000 0.0000
# 4 0.0000 0.0000 0.0000 17.8050 0.0000 0.0000
# 5 0.0000 0.0000 0.0000 0.0000 3.9547 0.0000
# 6 0.0000 0.0000 0.0000 0.0000 0.0000 23.9182
#
#
#
# Elastic Compliance Matrix: (Units=1/GPa)
#
#
# Indices 1 2 3 4 5 6 
#
# 1 0.010057 -0.006424 -0.014097 0.000000 0.000000 0.000000
# 2 -0.006424 0.017645 0.002786 0.000000 0.000000 0.000000
# 3 -0.014097 0.002786 0.113966 0.000000 0.000000 0.000000
# 4 0.000000 0.000000 0.000000 0.056164 0.000000 0.000000
# 5 0.000000 0.000000 0.000000 0.000000 0.252865 0.000000
# 6 0.000000 0.000000 0.000000 0.000000 0.000000 0.041809
#
#
# Mechanical properties :
#
#
# Convention : Reuss Voigt Hill
#
# Bulk Modulus (GPa) = 9.41648 45.18699 27.30173
# Shear Modulus (GPa) = 8.87505 20.39182 14.63343
#
# Velocity S-wave (km/s) = 2.15373 3.26463 2.76554
# Velocity P-wave (km/s) = 3.33261 6.15041 4.94641
#
# Compressibility (1/GPa) = 0.10619682
#
# Stress axis : x y z
#
# Youngs Moduli (GPa) = 99.43061 56.67395 8.77452
#
# Poissons Ratio (x) = 0.36410 0.12370
# Poissons Ratio (y) = 0.63878 -0.02444
# Poissons Ratio (z) = 1.40168 -0.15788
#
# Static dielectric constant tensor:
#      x y z
#    x 1.680060 0.000000 0.000000 
#    y 0.000000 1.551530 0.000000 
#    z 0.000000 0.000000 1.667970 
# 
# From -- ./inp_files/12946.got.cif
#   From: 2010.05.17/outbox.cif.g08.bks.cpg/sg63_7_cif.got.tgz:12946.got - 2010.06.03 15:47:04.
