data_PCOD9473389
_publ_section_title
;
Structure prediction by ZEFSAII (Michael W. Deem and Ramdas Pophale) SiO2 
 PCOD9473389
Probable space group: C M C M
;
_chemical_formula_sum "Si O2"
_cell_formula_units_Z 120
_cell_length_a 11.728265
_cell_length_b 23.100803
_cell_length_c 23.147266
_cell_angle_alpha 90.000000
_cell_angle_beta 90.000000
_cell_angle_gamma 90.000000
_cell_volume 6271.342926
_symmetry_space_group_name_H-M "C M C M"
_symmetry_group_IT_number 63
_symmetry_cell_setting 'orthorhombic'
loop_
_space_group_symop_operation_xyz
x,y,z
-x,-y,1/2+z
x,-y,-z
-x,y,1/2-z
-x,-y,-z
x,y,1/2-z
-x,y,z
x,-y,1/2+z
1/2+x,1/2+y,z
1/2-x,1/2-y,1/2+z
1/2+x,1/2-y,-z
1/2-x,1/2+y,1/2-z
1/2-x,1/2-y,-z
1/2+x,1/2+y,1/2-z
1/2-x,1/2+y,z
1/2+x,1/2-y,1/2+z
loop_
_atom_site_type_symbol
_atom_site_label
_atom_site_fract_x
_atom_site_fract_y
_atom_site_fract_z
Si Si1 0.866312 0.817575 0.185892
Si Si2 0.000000 0.495640 0.605098
Si Si3 0.783916 0.553597 0.960034
Si Si4 0.716165 0.251226 0.595289
Si Si5 0.703627 0.948230 0.816501
Si Si6 0.133219 0.947577 0.150074
Si Si7 0.366930 0.826443 0.508304
Si Si8 0.627738 0.657023 0.182588
O O1 0.832960 0.797162 0.250000
O O2 0.792239 0.789189 0.136203
O O3 0.854471 0.886856 0.183035
O O4 0.000000 0.804261 0.177184
O O5 0.899734 0.533795 0.572014
O O6 0.899477 0.459896 0.640256
O O7 0.685715 0.563708 0.913228
O O8 0.811888 0.611025 0.996157
O O9 0.750026 0.500000 0.000000
O O10 0.647122 0.211720 0.550104
O O11 0.798152 0.292542 0.557541
O O12 0.642299 0.290704 0.638049
O O13 0.663597 0.945755 0.750000
O O14 0.775802 0.890648 0.829383
O O15 0.791701 0.001741 0.822495
O O16 0.000000 0.962784 0.148274
O O17 0.500000 0.833140 0.522722
O O18 0.639668 0.675009 0.250000
O O19 0.500000 0.632095 0.176465
#
# Coordination Sequence:
#
# PCOD9473389 Si02
#       8
#    16   8  16  16  16  16  16  16
#     4  10  20  37  61  89 121 157 201 255 309 367
#     4  10  22  38  64  88 122 158 200 258 302 380
#     4  11  23  39  61  88 118 158 206 254 314 369
#     4  11  23  40  61  88 121 162 210 256 305 362
#     4  10  21  38  61  92 124 158 197 248 311 367
#     4  10  21  38  60  88 121 156 199 249 309 371
#     4  11  24  41  62  87 120 163 208 258 312 370
#     4  10  22  41  64  90 124 162 205 252 303 372
#
# _framework density 19.134658000000002
#
# number of rings (size 3 to 8) (size 9 to 14) (size 15 to 20)
#    0.000    1.600    2.000    2.400    3.733    1.600 
#    1.200    0.667    0.000    0.000    0.000    0.000 
#    0.000    0.000    0.000    0.000    0.000    0.000 
#
# Total GULP energy -334092.714601 kJ/mol
# GULP energy per Si atom -5568.211910 kJ/mol
# Density = 1.909111 g / cm^3
# Si number density = 19.134658 Si / 1000 Ang^3
#
#
#
# Elastic Constant Matrix: (Units=GPa)
#
#
# Indices 1 2 3 4 5 6 
#
# 1 65.6511 7.9866 28.4006 0.0000 0.0000 0.0000
# 2 7.9866 60.5171 21.9061 0.0000 0.0000 0.0000
# 3 28.4006 21.9061 62.6730 0.0000 0.0000 0.0000
# 4 0.0000 0.0000 0.0000 65.4101 0.0000 0.0000
# 5 0.0000 0.0000 0.0000 0.0000 11.8352 0.0000
# 6 0.0000 0.0000 0.0000 0.0000 0.0000 28.1086
#
#
#
# Elastic Compliance Matrix: (Units=1/GPa)
#
#
# Indices 1 2 3 4 5 6 
#
# 1 0.018972 0.000696 -0.008841 0.000000 0.000000 0.000000
# 2 0.000696 0.018943 -0.006937 0.000000 0.000000 0.000000
# 3 -0.008841 -0.006937 0.022387 0.000000 0.000000 0.000000
# 4 0.000000 0.000000 0.000000 0.015288 0.000000 0.000000
# 5 0.000000 0.000000 0.000000 0.000000 0.084493 0.000000
# 6 0.000000 0.000000 0.000000 0.000000 0.000000 0.035576
#
#
# Mechanical properties :
#
#
# Convention : Reuss Voigt Hill
#
# Bulk Modulus (GPa) = 33.17889 33.93645 33.55767
# Shear Modulus (GPa) = 21.19826 29.77396 25.48611
#
# Velocity S-wave (km/s) = 3.33204 3.94892 3.65353
# Velocity P-wave (km/s) = 5.67280 6.21016 5.94755
#
# Compressibility (1/GPa) = 0.03013965
#
# Stress axis : x y z
#
# Youngs Moduli (GPa) = 52.70997 52.78889 44.66947
#
# Poissons Ratio (x) = -0.03676 0.39490
# Poissons Ratio (y) = -0.03671 0.30987
# Poissons Ratio (z) = 0.46599 0.36619
#
# Static dielectric constant tensor:
#      x y z
#    x 1.620490 0.000000 0.000000 
#    y 0.000000 1.653900 0.000000 
#    z 0.000000 0.000000 1.677310 
# 
# From -- ./inp_files/53235.got.cif
#   From: 2010.05.17/outbox.cif.g08.bks.cpg/sg63_27_cif.got.tgz:53235.got - 2010.06.03 15:47:04.
