data_PCOD9473252
_publ_section_title
;
Structure prediction by ZEFSAII (Michael W. Deem and Ramdas Pophale) SiO2 
 PCOD9473252
Probable space group: C M C M
;
_chemical_formula_sum "Si O2"
_cell_formula_units_Z 52
_cell_length_a 19.641227
_cell_length_b 10.052760
_cell_length_c 10.776685
_cell_angle_alpha 90.000000
_cell_angle_beta 90.000000
_cell_angle_gamma 90.000000
_cell_volume 2127.840732
_symmetry_space_group_name_H-M "C M C M"
_symmetry_group_IT_number 63
_symmetry_cell_setting 'orthorhombic'
loop_
_space_group_symop_operation_xyz
x,y,z
-x,-y,1/2+z
x,-y,-z
-x,y,1/2-z
-x,-y,-z
x,y,1/2-z
-x,y,z
x,-y,1/2+z
1/2+x,1/2+y,z
1/2-x,1/2-y,1/2+z
1/2+x,1/2-y,-z
1/2-x,1/2+y,1/2-z
1/2-x,1/2-y,-z
1/2+x,1/2+y,1/2-z
1/2-x,1/2+y,z
1/2+x,1/2-y,1/2+z
loop_
_atom_site_type_symbol
_atom_site_label
_atom_site_fract_x
_atom_site_fract_y
_atom_site_fract_z
Si Si1 0.133084 0.783662 0.982481
Si Si2 0.500000 0.841463 0.607489
Si Si3 0.748241 0.095850 0.884092
Si Si4 0.500000 0.104424 0.750000
Si Si5 0.424806 0.626062 0.250000
O O1 0.185391 0.694884 0.902469
O O2 0.110420 0.895487 0.882033
O O3 0.180446 0.829485 0.095846
O O4 0.066847 0.710265 0.036257
O O5 0.500000 0.787246 0.750000
O O6 0.500000 0.000978 0.635754
O O7 0.744698 0.029887 0.750000
O O8 0.742648 0.000000 0.000000
O O9 0.560552 0.212066 0.750000
O O10 0.500000 0.564068 0.250000
#
# Coordination Sequence:
#
# PCOD9473252 Si02
#       5
#    16   8  16   4   8
#     4  11  23  41  65  93 134 169 212 265 329 382
#     4  10  21  37  65  94 134 162 210 266 322 388
#     4  11  27  43  66  94 131 175 223 265 320 385
#     4   8  22  32  60 106 132 156 208 248 354 376
#     4  10  20  36  61  97 131 160 208 256 332 390
#
# _framework density 24.437919000000001
#
# number of rings (size 3 to 8) (size 9 to 14) (size 15 to 20)
#    0.923    0.615    3.077    0.923    6.462    3.692 
#    0.000    0.769    0.000    0.000    0.000    0.000 
#    0.000    0.000    0.000    0.000    0.000    0.000 
#
# Total GULP energy -145283.119041 kJ/mol
# GULP energy per Si atom -5587.812271 kJ/mol
# Density = 2.438230 g / cm^3
# Si number density = 24.437919 Si / 1000 Ang^3
#
#
#
# Elastic Constant Matrix: (Units=GPa)
#
#
# Indices 1 2 3 4 5 6 
#
# 1 172.8635 29.2710 39.3212 0.0000 0.0000 0.0000
# 2 29.2710 37.4160 15.6502 0.0000 0.0000 0.0000
# 3 39.3212 15.6502 190.7919 0.0000 0.0000 0.0000
# 4 0.0000 0.0000 0.0000 31.8736 0.0000 0.0000
# 5 0.0000 0.0000 0.0000 0.0000 15.4579 0.0000
# 6 0.0000 0.0000 0.0000 0.0000 0.0000 9.9378
#
#
#
# Elastic Compliance Matrix: (Units=1/GPa)
#
#
# Indices 1 2 3 4 5 6 
#
# 1 0.006850 -0.004938 -0.001007 0.000000 0.000000 0.000000
# 2 -0.004938 0.031235 -0.001545 0.000000 0.000000 0.000000
# 3 -0.001007 -0.001545 0.005575 0.000000 0.000000 0.000000
# 4 0.000000 0.000000 0.000000 0.031374 0.000000 0.000000
# 5 0.000000 0.000000 0.000000 0.000000 0.064692 0.000000
# 6 0.000000 0.000000 0.000000 0.000000 0.000000 0.100626
#
#
# Mechanical properties :
#
#
# Convention : Reuss Voigt Hill
#
# Bulk Modulus (GPa) = 34.86393 63.28402 49.07398
# Shear Modulus (GPa) = 18.87562 32.57579 25.72571
#
# Velocity S-wave (km/s) = 2.78221 3.65499 3.24805
# Velocity P-wave (km/s) = 4.96167 6.61544 5.84732
#
# Compressibility (1/GPa) = 0.02868294
#
# Stress axis : x y z
#
# Youngs Moduli (GPa) = 145.98488 32.01489 179.35661
#
# Poissons Ratio (x) = 0.15808 0.18056
# Poissons Ratio (y) = 0.72084 0.27702
# Poissons Ratio (z) = 0.14697 0.04945
#
# Static dielectric constant tensor:
#      x y z
#    x 1.928200 0.000000 0.000000 
#    y 0.000000 2.009480 0.000000 
#    z 0.000000 0.000000 2.130590 
# 
# From -- ./inp_files/22055.got.cif
#   From: 2010.05.17/outbox.cif.g08.bks.cpg/sg63_12_cif.got.tgz:22055.got - 2010.06.03 15:47:04.
