data_PCOD9473624
_publ_section_title
;
Structure prediction by ZEFSAII (Michael W. Deem and Ramdas Pophale) SiO2 
 PCOD9473624
Probable space group: C M C M
;
_chemical_formula_sum "Si O2"
_cell_formula_units_Z 100
_cell_length_a 7.776693
_cell_length_b 25.939431
_cell_length_c 22.812552
_cell_angle_alpha 90.000000
_cell_angle_beta 90.000000
_cell_angle_gamma 90.000000
_cell_volume 4601.816233
_symmetry_space_group_name_H-M "C M C M"
_symmetry_group_IT_number 63
_symmetry_cell_setting 'orthorhombic'
loop_
_space_group_symop_operation_xyz
x,y,z
-x,-y,1/2+z
x,-y,-z
-x,y,1/2-z
-x,-y,-z
x,y,1/2-z
-x,y,z
x,-y,1/2+z
1/2+x,1/2+y,z
1/2-x,1/2-y,1/2+z
1/2+x,1/2-y,-z
1/2-x,1/2+y,1/2-z
1/2-x,1/2-y,-z
1/2+x,1/2+y,1/2-z
1/2-x,1/2+y,z
1/2+x,1/2-y,1/2+z
loop_
_atom_site_type_symbol
_atom_site_label
_atom_site_fract_x
_atom_site_fract_y
_atom_site_fract_z
Si Si1 0.691265 0.823522 0.346021
Si Si2 0.290779 0.166745 0.250000
Si Si3 0.790635 0.714841 0.374922
Si Si4 0.797945 0.974624 0.878741
Si Si5 0.698028 0.120462 0.048795
Si Si6 0.000000 0.175512 0.750000
Si Si7 0.800821 0.083352 0.924103
Si Si8 0.706733 0.953129 0.750000
O O1 0.500000 0.821666 0.319967
O O2 0.718973 0.771635 0.383852
O O3 0.706224 0.873967 0.385997
O O4 0.847622 0.823679 0.300438
O O5 0.500000 0.167482 0.250000
O O6 0.237822 0.195302 0.309693
O O7 0.236510 0.107000 0.250000
O O8 0.733570 0.672879 0.422517
O O9 0.000000 0.715857 0.375440
O O10 0.706101 0.923327 0.901270
O O11 0.771646 0.979443 0.809246
O O12 0.000000 0.968006 0.891439
O O13 0.734503 0.025756 0.911692
O O14 0.500000 0.128903 0.032086
O O15 0.790731 0.098737 0.991842
O O16 0.000000 0.083217 0.905165
O O17 0.500000 0.953882 0.750000
#
# Coordination Sequence:
#
# PCOD9473624 Si02
#       8
#    16   8  16  16  16   4  16   8
#     4  12  26  45  73 104 134 185 235 278 352 417
#     4   9  17  34  62  90 128 171 208 260 346 408
#     4  10  20  39  67  97 140 178 214 284 350 402
#     4  11  24  42  65  96 135 180 226 281 352 411
#     4  11  23  40  69 102 135 179 231 284 345 410
#     4  12  24  50  72 100 148 176 222 304 338 416
#     4  11  25  47  67  90 138 188 232 292 342 401
#     4  11  21  39  64  95 131 166 214 282 341 402
#
# _framework density 21.730550999999998
#
# number of rings (size 3 to 8) (size 9 to 14) (size 15 to 20)
#    0.000    1.120    3.200    2.880    1.120    7.040 
#    0.000    0.000    0.000    0.000    0.000    0.000 
#    0.000    0.000    0.000    0.000    0.000    0.000 
#
# Total GULP energy -279142.956639 kJ/mol
# GULP energy per Si atom -5582.859133 kJ/mol
# Density = 2.168109 g / cm^3
# Si number density = 21.730551 Si / 1000 Ang^3
#
#
#
# Elastic Constant Matrix: (Units=GPa)
#
#
# Indices 1 2 3 4 5 6 
#
# 1 94.3390 11.5791 10.8577 0.0000 0.0000 0.0000
# 2 11.5791 36.4062 8.5049 0.0000 0.0000 0.0000
# 3 10.8577 8.5049 36.8068 0.0000 0.0000 0.0000
# 4 0.0000 0.0000 0.0000 -102.0322 0.0000 0.0000
# 5 0.0000 0.0000 0.0000 0.0000 -7.4911 0.0000
# 6 0.0000 0.0000 0.0000 0.0000 0.0000 2.9396
#
#
#
# Elastic Compliance Matrix: (Units=1/GPa)
#
#
# Indices 1 2 3 4 5 6 
#
# 1 0.011268 -0.002967 -0.002638 0.000000 0.000000 0.000000
# 2 -0.002967 0.029817 -0.006014 0.000000 0.000000 0.000000
# 3 -0.002638 -0.006014 0.029337 0.000000 0.000000 0.000000
# 4 0.000000 0.000000 0.000000 -0.009801 0.000000 0.000000
# 5 0.000000 0.000000 0.000000 0.000000 -0.133493 0.000000
# 6 0.000000 0.000000 0.000000 0.000000 0.000000 0.340182
#
#
# Mechanical properties :
#
#
# Convention : Reuss Voigt Hill
#
# Bulk Modulus (GPa) = 21.19481 25.49283 23.34382
# Shear Modulus (GPa) = 16.32509 -12.20938 2.05785
#
# Velocity S-wave (km/s) = 2.74387 -2.37292 0.97419
# Velocity P-wave (km/s) = 4.45119 2.06135 3.46859
#
# Compressibility (1/GPa) = 0.04718135
#
# Stress axis : x y z
#
# Youngs Moduli (GPa) = 88.74733 33.53832 34.08680
#
# Poissons Ratio (x) = 0.09952 0.08993
# Poissons Ratio (y) = 0.26336 0.20501
# Poissons Ratio (z) = 0.23414 0.20171
#
# Static dielectric constant tensor:
#      x y z
#    x 1.781740 0.000000 0.000000 
#    y 0.000000 1.780440 0.000000 
#    z 0.000000 0.000000 1.754530 
# 
# From -- ./inp_files/51557.got.cif
#   From: 2010.05.17/outbox.cif.g08.bks.cpg/sg63_26_cif.got.tgz:51557.got - 2010.06.03 15:47:04.
