data_PCOD9473796
_publ_section_title
;
Structure prediction by ZEFSAII (Michael W. Deem and Ramdas Pophale) SiO2 
 PCOD9473796
Probable space group: C M C M
;
_chemical_formula_sum "Si O2"
_cell_formula_units_Z 80
_cell_length_a 23.841842
_cell_length_b 9.593558
_cell_length_c 17.125082
_cell_angle_alpha 90.000000
_cell_angle_beta 90.000000
_cell_angle_gamma 90.000000
_cell_volume 3916.987366
_symmetry_space_group_name_H-M "C M C M"
_symmetry_group_IT_number 63
_symmetry_cell_setting 'orthorhombic'
loop_
_space_group_symop_operation_xyz
x,y,z
-x,-y,1/2+z
x,-y,-z
-x,y,1/2-z
-x,-y,-z
x,y,1/2-z
-x,y,z
x,-y,1/2+z
1/2+x,1/2+y,z
1/2-x,1/2-y,1/2+z
1/2+x,1/2-y,-z
1/2-x,1/2+y,1/2-z
1/2-x,1/2-y,-z
1/2+x,1/2+y,1/2-z
1/2-x,1/2+y,z
1/2+x,1/2-y,1/2+z
loop_
_atom_site_type_symbol
_atom_site_label
_atom_site_fract_x
_atom_site_fract_y
_atom_site_fract_z
Si Si1 0.280700 0.327117 0.070289
Si Si2 0.435155 0.848101 0.022985
Si Si3 0.591588 0.596450 0.568395
Si Si4 0.747215 0.584536 0.162379
Si Si5 0.884618 0.839748 0.838492
O O1 0.342622 0.377453 0.050740
O O2 0.246781 0.459251 0.101761
O O3 0.285073 0.214547 0.139373
O O4 0.250000 0.250000 0.000000
O O5 0.500000 0.865353 0.046860
O O6 0.403901 0.767551 0.093998
O O7 0.433558 0.748097 0.946394
O O8 0.411862 0.000000 0.000000
O O9 0.567187 0.500000 0.500000
O O10 0.589836 0.494085 0.642521
O O11 0.757446 0.534801 0.250000
O O12 0.682717 0.638191 0.157338
O O13 0.898866 0.796819 0.750000
#
# Coordination Sequence:
#
# PCOD9473796 Si02
#       5
#    16  16  16  16  16
#     4  11  19  31  51  76 103 137 181 217 250 304
#     4  10  21  37  56  80 109 138 170 216 275 329
#     4   9  19  35  54  77 104 139 180 222 261 305
#     4  10  21  35  50  75 111 142 171 216 268 308
#     4   9  19  37  58  79 105 139 181 223 263 315
#
# _framework density 20.423860000000001
#
# number of rings (size 3 to 8) (size 9 to 14) (size 15 to 20)
#    0.000    2.200    0.000    4.800    0.000    8.000 
#    0.000    2.000    0.000    1.200    0.000    0.000 
#    0.000    0.000    0.000    0.000    0.000    0.000 
#
# Total GULP energy -223038.873633 kJ/mol
# GULP energy per Si atom -5575.971841 kJ/mol
# Density = 2.037737 g / cm^3
# Si number density = 20.423860 Si / 1000 Ang^3
#
#
#
# Elastic Constant Matrix: (Units=GPa)
#
#
# Indices 1 2 3 4 5 6 
#
# 1 28.5804 13.4453 22.8831 0.0000 0.0000 0.0000
# 2 13.4453 147.9094 46.6165 0.0000 0.0000 0.0000
# 3 22.8831 46.6165 103.6755 0.0000 0.0000 0.0000
# 4 0.0000 0.0000 0.0000 31.8287 0.0000 0.0000
# 5 0.0000 0.0000 0.0000 0.0000 12.5170 0.0000
# 6 0.0000 0.0000 0.0000 0.0000 0.0000 4.0662
#
#
#
# Elastic Compliance Matrix: (Units=1/GPa)
#
#
# Indices 1 2 3 4 5 6 
#
# 1 0.042642 -0.001060 -0.008935 0.000000 0.000000 0.000000
# 2 -0.001060 0.007904 -0.003320 0.000000 0.000000 0.000000
# 3 -0.008935 -0.003320 0.013110 0.000000 0.000000 0.000000
# 4 0.000000 0.000000 0.000000 0.031418 0.000000 0.000000
# 5 0.000000 0.000000 0.000000 0.000000 0.079892 0.000000
# 6 0.000000 0.000000 0.000000 0.000000 0.000000 0.245927
#
#
# Mechanical properties :
#
#
# Convention : Reuss Voigt Hill
#
# Bulk Modulus (GPa) = 27.00842 49.56168 38.28505
# Shear Modulus (GPa) = 10.87277 22.83042 16.85159
#
# Velocity S-wave (km/s) = 2.30979 3.34702 2.87556
# Velocity P-wave (km/s) = 4.51289 6.26546 5.45995
#
# Compressibility (1/GPa) = 0.03702549
#
# Stress axis : x y z
#
# Youngs Moduli (GPa) = 23.45124 126.52549 76.27585
#
# Poissons Ratio (x) = 0.13414 0.68153
# Poissons Ratio (y) = 0.02486 0.25322
# Poissons Ratio (z) = 0.20954 0.42003
#
# Static dielectric constant tensor:
#      x y z
#    x 1.752190 0.000000 0.000000 
#    y 0.000000 1.769110 0.000000 
#    z 0.000000 0.000000 1.756010 
# 
# From -- ./inp_files/48809.got.cif
#   From: 2010.05.17/outbox.cif.g08.bks.cpg/sg63_25_cif.got.tgz:48809.got - 2010.06.03 15:47:04.
