data_PCOD9473798
_publ_section_title
;
Structure prediction by ZEFSAII (Michael W. Deem and Ramdas Pophale) SiO2 
 PCOD9473798
Probable space group: C M C M
;
_chemical_formula_sum "Si O2"
_cell_formula_units_Z 72
_cell_length_a 20.973928
_cell_length_b 19.318358
_cell_length_c 9.312534
_cell_angle_alpha 90.000000
_cell_angle_beta 90.000000
_cell_angle_gamma 90.000000
_cell_volume 3773.269752
_symmetry_space_group_name_H-M "C M C M"
_symmetry_group_IT_number 63
_symmetry_cell_setting 'orthorhombic'
loop_
_space_group_symop_operation_xyz
x,y,z
-x,-y,1/2+z
x,-y,-z
-x,y,1/2-z
-x,-y,-z
x,y,1/2-z
-x,y,z
x,-y,1/2+z
1/2+x,1/2+y,z
1/2-x,1/2-y,1/2+z
1/2+x,1/2-y,-z
1/2-x,1/2+y,1/2-z
1/2-x,1/2-y,-z
1/2+x,1/2+y,1/2-z
1/2-x,1/2+y,z
1/2+x,1/2-y,1/2+z
loop_
_atom_site_type_symbol
_atom_site_label
_atom_site_fract_x
_atom_site_fract_y
_atom_site_fract_z
Si Si1 0.617784 0.153144 0.578479
Si Si2 0.759082 0.322587 0.917393
Si Si3 0.386658 0.680391 0.090084
Si Si4 0.500000 0.924082 0.573792
Si Si5 0.574516 0.560768 0.904583
O O1 0.616216 0.136840 0.750000
O O2 0.686292 0.137503 0.504899
O O3 0.610799 0.237024 0.567093
O O4 0.561886 0.115868 0.490082
O O5 0.778339 0.312963 0.750000
O O6 0.686209 0.347717 0.915506
O O7 0.750000 0.250000 0.000000
O O8 0.411819 0.666978 0.250000
O O9 0.422579 0.635607 0.974978
O O10 0.500000 0.926692 0.750000
O O11 0.500000 0.000000 0.500000
O O12 0.605954 0.562109 0.750000
O O13 0.500000 0.543864 0.888928
O O14 0.603441 0.500000 0.000000
#
# Coordination Sequence:
#
# PCOD9473798 Si02
#       5
#    16  16  16   8  16
#     4  10  21  38  60  87 116 149 188 233 288 343
#     4   9  17  32  54  83 115 149 187 233 288 339
#     4   9  19  34  56  84 115 148 185 231 279 332
#     4  12  26  44  64  86 117 154 193 242 294 352
#     4  10  21  35  51  74 107 147 187 227 274 326
#
# _framework density 19.081593999999999
#
# number of rings (size 3 to 8) (size 9 to 14) (size 15 to 20)
#    0.000    2.222    0.000    4.333    1.556    6.667 
#    0.000    1.111    0.000    5.333    0.000    0.000 
#    0.000    0.000    0.000    0.000    0.000    0.000 
#
# Total GULP energy -200431.607261 kJ/mol
# GULP energy per Si atom -5567.544646 kJ/mol
# Density = 1.903816 g / cm^3
# Si number density = 19.081594 Si / 1000 Ang^3
#
#
#
# Elastic Constant Matrix: (Units=GPa)
#
#
# Indices 1 2 3 4 5 6 
#
# 1 85.4190 24.4203 47.1342 0.0000 0.0000 0.0000
# 2 24.4203 55.8651 57.5610 0.0000 0.0000 0.0000
# 3 47.1342 57.5610 173.7930 0.0000 0.0000 0.0000
# 4 0.0000 0.0000 0.0000 17.5273 0.0000 0.0000
# 5 0.0000 0.0000 0.0000 0.0000 24.2262 0.0000
# 6 0.0000 0.0000 0.0000 0.0000 0.0000 -12.4601
#
#
#
# Elastic Compliance Matrix: (Units=1/GPa)
#
#
# Indices 1 2 3 4 5 6 
#
# 1 0.014179 -0.003394 -0.002721 0.000000 0.000000 0.000000
# 2 -0.003394 0.027986 -0.008349 0.000000 0.000000 0.000000
# 3 -0.002721 -0.008349 0.009257 0.000000 0.000000 0.000000
# 4 0.000000 0.000000 0.000000 0.057054 0.000000 0.000000
# 5 0.000000 0.000000 0.000000 0.000000 0.041278 0.000000
# 6 0.000000 0.000000 0.000000 0.000000 0.000000 -0.080256
#
#
# Mechanical properties :
#
#
# Convention : Reuss Voigt Hill
#
# Bulk Modulus (GPa) = 44.45625 63.70088 54.07857
# Shear Modulus (GPa) = 47.20379 18.25610 32.72994
#
# Velocity S-wave (km/s) = 4.97911 3.09647 4.14607
# Velocity P-wave (km/s) = 7.51026 6.80001 7.16394
#
# Compressibility (1/GPa) = 0.02249402
#
# Stress axis : x y z
#
# Youngs Moduli (GPa) = 70.52701 35.73222 108.02532
#
# Poissons Ratio (x) = 0.12128 0.29397
# Poissons Ratio (y) = 0.23938 0.90185
# Poissons Ratio (z) = 0.19193 0.29831
#
# Static dielectric constant tensor:
#      x y z
#    x 1.720460 0.000000 0.000000 
#    y 0.000000 1.635280 0.000000 
#    z 0.000000 0.000000 1.699150 
# 
# From -- ./inp_files/7811.got.cif
#   From: 2010.05.17/outbox.cif.g08.bks.cpg/sg63_4_cif.got.tgz:7811.got - 2010.06.03 15:47:04.
