data_PCOD9473066
_publ_section_title
;
Structure prediction by ZEFSAII (Michael W. Deem and Ramdas Pophale) SiO2 
 PCOD9473066
Probable space group: C M C M
;
_chemical_formula_sum "Si O2"
_cell_formula_units_Z 56
_cell_length_a 16.820071
_cell_length_b 10.081176
_cell_length_c 16.331364
_cell_angle_alpha 90.000000
_cell_angle_beta 90.000000
_cell_angle_gamma 90.000000
_cell_volume 2769.245637
_symmetry_space_group_name_H-M "C M C M"
_symmetry_group_IT_number 63
_symmetry_cell_setting 'orthorhombic'
loop_
_space_group_symop_operation_xyz
x,y,z
-x,-y,1/2+z
x,-y,-z
-x,y,1/2-z
-x,-y,-z
x,y,1/2-z
-x,y,z
x,-y,1/2+z
1/2+x,1/2+y,z
1/2-x,1/2-y,1/2+z
1/2+x,1/2-y,-z
1/2-x,1/2+y,1/2-z
1/2-x,1/2-y,-z
1/2+x,1/2+y,1/2-z
1/2-x,1/2+y,z
1/2+x,1/2-y,1/2+z
loop_
_atom_site_type_symbol
_atom_site_label
_atom_site_fract_x
_atom_site_fract_y
_atom_site_fract_z
Si Si1 0.909641 0.978528 0.750000
Si Si2 0.710771 0.840327 0.115756
Si Si3 0.330471 0.568997 0.424872
Si Si4 0.905182 0.549495 0.750000
Si Si5 0.164438 0.744856 0.250000
O O1 0.868663 0.933048 0.665682
O O2 0.899547 0.137548 0.750000
O O3 0.000000 0.935121 0.750000
O O4 0.683981 0.723069 0.055743
O O5 0.753268 0.973199 0.083873
O O6 0.636590 0.883217 0.171653
O O7 0.777558 0.770153 0.173004
O O8 0.377030 0.500000 0.500000
O O9 0.875654 0.397309 0.750000
O O10 0.000000 0.560246 0.750000
#
# Coordination Sequence:
#
# PCOD9473066 Si02
#       5
#     8  16  16   8   8
#     4  10  22  38  58  87 122 153 198 248 305 366
#     4  10  20  36  57  88 118 154 203 252 294 357
#     4  11  22  38  63  87 116 159 204 250 296 357
#     4  11  20  33  61  92 122 160 202 250 307 358
#     4   9  17  35  60  83 116 163 196 240 301 358
#
# _framework density 20.222113
#
# number of rings (size 3 to 8) (size 9 to 14) (size 15 to 20)
#    0.000    1.714    2.857    3.857    0.000    2.857 
#    0.000    0.000    0.000    0.857    0.000    0.000 
#    0.000    0.000    0.000    0.000    0.000    0.000 
#
# Total GULP energy -156213.995935 kJ/mol
# GULP energy per Si atom -5579.071283 kJ/mol
# Density = 2.017609 g / cm^3
# Si number density = 20.222113 Si / 1000 Ang^3
#
#
#
# Elastic Constant Matrix: (Units=GPa)
#
#
# Indices 1 2 3 4 5 6 
#
# 1 116.4687 41.6248 38.6186 0.0000 0.0000 0.0000
# 2 41.6248 130.9937 9.2968 0.0000 0.0000 0.0000
# 3 38.6186 9.2968 96.0528 0.0000 0.0000 0.0000
# 4 0.0000 0.0000 0.0000 30.5974 0.0000 0.0000
# 5 0.0000 0.0000 0.0000 0.0000 -31.0241 0.0000
# 6 0.0000 0.0000 0.0000 0.0000 0.0000 11.4033
#
#
#
# Elastic Compliance Matrix: (Units=1/GPa)
#
#
# Indices 1 2 3 4 5 6 
#
# 1 0.011122 -0.003239 -0.004158 0.000000 0.000000 0.000000
# 2 -0.003239 0.008630 0.000467 0.000000 0.000000 0.000000
# 3 -0.004158 0.000467 0.012038 0.000000 0.000000 0.000000
# 4 0.000000 0.000000 0.000000 0.032683 0.000000 0.000000
# 5 0.000000 0.000000 0.000000 0.000000 -0.032233 0.000000
# 6 0.000000 0.000000 0.000000 0.000000 0.000000 0.087694
#
#
# Mechanical properties :
#
#
# Convention : Reuss Voigt Hill
#
# Bulk Modulus (GPa) = 55.77487 58.06620 56.92053
# Shear Modulus (GPa) = 35.77275 19.12699 27.44987
#
# Velocity S-wave (km/s) = 4.21050 3.07880 3.68831
# Velocity P-wave (km/s) = 7.16092 6.43546 6.80786
#
# Compressibility (1/GPa) = 0.01792922
#
# Stress axis : x y z
#
# Youngs Moduli (GPa) = 89.90814 115.87360 83.07293
#
# Poissons Ratio (x) = 0.37533 0.34545
# Poissons Ratio (y) = 0.29123 -0.03880
# Poissons Ratio (z) = 0.37387 -0.05412
#
# Static dielectric constant tensor:
#      x y z
#    x 1.692720 0.000000 0.000000 
#    y 0.000000 1.742780 0.000000 
#    z 0.000000 0.000000 1.813530 
# 
# From -- ./inp_files/45028.got.cif
#   From: 2010.05.17/outbox.cif.g08.bks.cpg/sg63_23_cif.got.tgz:45028.got - 2010.06.03 15:47:04.
