data_PCOD9473031
_publ_section_title
;
Structure prediction by ZEFSAII (Michael W. Deem and Ramdas Pophale) SiO2 
 PCOD9473031
Probable space group: C M C M
;
_chemical_formula_sum "Si O2"
_cell_formula_units_Z 104
_cell_length_a 26.755424
_cell_length_b 22.250989
_cell_length_c 7.954674
_cell_angle_alpha 90.000000
_cell_angle_beta 90.000000
_cell_angle_gamma 90.000000
_cell_volume 4735.693023
_symmetry_space_group_name_H-M "C M C M"
_symmetry_group_IT_number 63
_symmetry_cell_setting 'orthorhombic'
loop_
_space_group_symop_operation_xyz
x,y,z
-x,-y,1/2+z
x,-y,-z
-x,y,1/2-z
-x,-y,-z
x,y,1/2-z
-x,y,z
x,-y,1/2+z
1/2+x,1/2+y,z
1/2-x,1/2-y,1/2+z
1/2+x,1/2-y,-z
1/2-x,1/2+y,1/2-z
1/2-x,1/2-y,-z
1/2+x,1/2+y,1/2-z
1/2-x,1/2+y,z
1/2+x,1/2-y,1/2+z
loop_
_atom_site_type_symbol
_atom_site_label
_atom_site_fract_x
_atom_site_fract_y
_atom_site_fract_z
Si Si1 0.218834 0.161074 0.058451
Si Si2 0.705404 0.936807 0.446191
Si Si3 0.360526 0.249861 0.955191
Si Si4 0.057024 0.847803 0.546450
Si Si5 0.106833 0.382801 0.456554
Si Si6 0.361619 0.568190 0.944844
Si Si7 0.500000 0.069809 0.547202
O O1 0.232906 0.173244 0.250000
O O2 0.191776 0.220444 0.984667
O O3 0.263725 0.124155 0.976796
O O4 0.173958 0.111970 0.051135
O O5 0.699942 0.942705 0.250000
O O6 0.649800 0.928133 0.518913
O O7 0.729548 0.000000 0.500000
O O8 0.357635 0.250467 0.750000
O O9 0.406272 0.293443 0.003990
O O10 0.374428 0.183147 0.008039
O O11 0.057964 0.851210 0.750000
O O12 0.082554 0.907345 0.473419
O O13 0.000000 0.839103 0.493523
O O14 0.106015 0.383297 0.250000
O O15 0.051330 0.399591 0.513575
O O16 0.347200 0.574817 0.750000
O O17 0.356926 0.500000 0.000000
O O18 0.500000 0.074439 0.750000
O O19 0.500000 0.000000 0.500000
#
# Coordination Sequence:
#
# PCOD9473031 Si02
#       7
#    16  16  16  16  16  16   8
#     4  10  20  36  57  81 110 142 180 227 280 336
#     4  11  22  36  55  81 114 149 189 232 278 332
#     4   8  16  32  54  82 111 139 180 229 275 328
#     4   9  18  32  52  77 105 139 179 228 279 331
#     4   9  19  34  56  87 115 145 187 235 279 329
#     4  11  21  34  52  74 104 141 182 228 278 333
#     4  10  20  36  60  86 116 152 191 234 281 328
#
# _framework density 21.960882999999999
#
# number of rings (size 3 to 8) (size 9 to 14) (size 15 to 20)
#    0.000    2.308    0.000    4.154    1.077    1.231 
#    0.000    0.769    0.000   12.923    0.000    0.000 
#    0.000    0.000    0.000    0.000    0.000    0.000 
#
# Total GULP energy -290300.408715 kJ/mol
# GULP energy per Si atom -5582.700168 kJ/mol
# Density = 2.191090 g / cm^3
# Si number density = 21.960883 Si / 1000 Ang^3
#
#
#
# Elastic Constant Matrix: (Units=GPa)
#
#
# Indices 1 2 3 4 5 6 
#
# 1 131.8438 45.6214 3.5648 0.0000 0.0000 0.0000
# 2 45.6214 125.9701 -0.6805 0.0000 0.0000 0.0000
# 3 3.5648 -0.6805 33.1647 0.0000 0.0000 0.0000
# 4 0.0000 0.0000 0.0000 15.7451 0.0000 0.0000
# 5 0.0000 0.0000 0.0000 0.0000 12.8152 0.0000
# 6 0.0000 0.0000 0.0000 0.0000 0.0000 18.0426
#
#
#
# Elastic Compliance Matrix: (Units=1/GPa)
#
#
# Indices 1 2 3 4 5 6 
#
# 1 0.008704 -0.003158 -0.001000 0.000000 0.000000 0.000000
# 2 -0.003158 0.009085 0.000526 0.000000 0.000000 0.000000
# 3 -0.001000 0.000526 0.030271 0.000000 0.000000 0.000000
# 4 0.000000 0.000000 0.000000 0.063512 0.000000 0.000000
# 5 0.000000 0.000000 0.000000 0.000000 0.078032 0.000000
# 6 0.000000 0.000000 0.000000 0.000000 0.000000 0.055424
#
#
# Mechanical properties :
#
#
# Convention : Reuss Voigt Hill
#
# Bulk Modulus (GPa) = 24.51256 43.11000 33.81128
# Shear Modulus (GPa) = 18.80462 25.48543 22.14502
#
# Velocity S-wave (km/s) = 2.92940 3.41030 3.17895
# Velocity P-wave (km/s) = 4.75689 5.93126 5.37623
#
# Compressibility (1/GPa) = 0.04079541
#
# Stress axis : x y z
#
# Youngs Moduli (GPa) = 114.88351 110.07314 33.03504
#
# Poissons Ratio (x) = 0.34759 0.03305
# Poissons Ratio (y) = 0.36278 -0.01737
# Poissons Ratio (z) = 0.11493 -0.05788
#
# Static dielectric constant tensor:
#      x y z
#    x 1.829270 0.000000 0.000000 
#    y 0.000000 1.811000 0.000000 
#    z 0.000000 0.000000 1.760050 
# 
# From -- ./inp_files/12520.got.cif
#   From: 2010.05.17/outbox.cif.g08.bks.cpg/sg63_7_cif.got.tgz:12520.got - 2010.06.03 15:47:04.
