data_PCOD9473910
_publ_section_title
;
Structure prediction by ZEFSAII (Michael W. Deem and Ramdas Pophale) SiO2 
 PCOD9473910
Probable space group: C M C M
;
_chemical_formula_sum "Si O2"
_cell_formula_units_Z 80
_cell_length_a 10.406670
_cell_length_b 29.535600
_cell_length_c 14.222908
_cell_angle_alpha 90.000000
_cell_angle_beta 90.000000
_cell_angle_gamma 90.000000
_cell_volume 4371.656012
_symmetry_space_group_name_H-M "C M C M"
_symmetry_group_IT_number 63
_symmetry_cell_setting 'orthorhombic'
loop_
_space_group_symop_operation_xyz
x,y,z
-x,-y,1/2+z
x,-y,-z
-x,y,1/2-z
-x,-y,-z
x,y,1/2-z
-x,y,z
x,-y,1/2+z
1/2+x,1/2+y,z
1/2-x,1/2-y,1/2+z
1/2+x,1/2-y,-z
1/2-x,1/2+y,1/2-z
1/2-x,1/2-y,-z
1/2+x,1/2+y,1/2-z
1/2-x,1/2+y,z
1/2+x,1/2-y,1/2+z
loop_
_atom_site_type_symbol
_atom_site_label
_atom_site_fract_x
_atom_site_fract_y
_atom_site_fract_z
Si Si1 0.651643 0.632223 0.638836
Si Si2 0.223924 0.283044 0.854846
Si Si3 0.859169 0.298505 0.439201
Si Si4 0.655454 0.550896 0.985917
Si Si5 0.348814 0.618328 0.354236
O O1 0.669437 0.638353 0.750000
O O2 0.500000 0.640941 0.616979
O O3 0.744897 0.666238 0.583082
O O4 0.680471 0.580500 0.607317
O O5 0.166553 0.275257 0.750000
O O6 0.330580 0.244811 0.873895
O O7 0.282039 0.333260 0.855033
O O8 0.143756 0.282210 0.951792
O O9 0.000000 0.317852 0.419313
O O10 0.500000 0.548091 0.993220
O O11 0.704737 0.500000 0.000000
O O12 0.701753 0.583458 0.069458
O O13 0.335536 0.598544 0.250000
O O14 0.500000 0.625820 0.372102
#
# Coordination Sequence:
#
# PCOD9473910 Si02
#       5
#    16  16  16  16  16
#     4  10  21  37  56  80 114 152 186 225 277 334
#     4  10  21  36  54  78 109 146 184 223 270 323
#     4  11  23  37  57  85 115 147 186 229 270 324
#     4   9  17  30  50  77 108 140 180 230 280 328
#     4   9  16  28  49  75 103 135 173 221 273 321
#
# _framework density 18.299700999999999
#
# number of rings (size 3 to 8) (size 9 to 14) (size 15 to 20)
#    0.000    2.200    2.000    1.200    0.000    6.800 
#    0.000    4.000    0.000    0.600    0.000    0.000 
#    0.000    0.000    0.000    0.000    0.000    0.000 
#
# Total GULP energy -222744.742587 kJ/mol
# GULP energy per Si atom -5568.618565 kJ/mol
# Density = 1.825805 g / cm^3
# Si number density = 18.299701 Si / 1000 Ang^3
#
#
#
# Elastic Constant Matrix: (Units=GPa)
#
#
# Indices 1 2 3 4 5 6 
#
# 1 61.3410 20.1255 24.1975 0.0000 0.0000 0.0000
# 2 20.1255 90.1958 30.2867 0.0000 0.0000 0.0000
# 3 24.1975 30.2867 109.9765 0.0000 0.0000 0.0000
# 4 0.0000 0.0000 0.0000 17.3876 0.0000 0.0000
# 5 0.0000 0.0000 0.0000 0.0000 1.2162 0.0000
# 6 0.0000 0.0000 0.0000 0.0000 0.0000 -197.0057
#
#
#
# Elastic Compliance Matrix: (Units=1/GPa)
#
#
# Indices 1 2 3 4 5 6 
#
# 1 0.018586 -0.003057 -0.003248 0.000000 0.000000 0.000000
# 2 -0.003057 0.012719 -0.002830 0.000000 0.000000 0.000000
# 3 -0.003248 -0.002830 0.010587 0.000000 0.000000 0.000000
# 4 0.000000 0.000000 0.000000 0.057512 0.000000 0.000000
# 5 0.000000 0.000000 0.000000 0.000000 0.822267 0.000000
# 6 0.000000 0.000000 0.000000 0.000000 0.000000 -0.005076
#
#
# Mechanical properties :
#
#
# Convention : Reuss Voigt Hill
#
# Bulk Modulus (GPa) = 42.33099 45.63696 43.98397
# Shear Modulus (GPa) = 5.30369 -23.22013 -8.95822
#
# Velocity S-wave (km/s) = 1.70427 -3.56600 -2.21493
# Velocity P-wave (km/s) = 5.20144 2.83507 4.18883
#
# Compressibility (1/GPa) = 0.02362336
#
# Stress axis : x y z
#
# Youngs Moduli (GPa) = 53.80307 78.62007 94.45680
#
# Poissons Ratio (x) = 0.24031 0.30676
# Poissons Ratio (y) = 0.16446 0.26734
# Poissons Ratio (z) = 0.17473 0.22252
#
# Static dielectric constant tensor:
#      x y z
#    x 1.650660 0.000000 0.000000 
#    y 0.000000 1.617950 0.000000 
#    z 0.000000 0.000000 1.690510 
# 
# From -- ./inp_files/30218.got.cif
#   From: 2010.05.17/outbox.cif.g08.bks.cpg/sg63_16_cif.got.tgz:30218.got - 2010.06.03 15:47:04.
