data_PCOD9473485
_publ_section_title
;
Structure prediction by ZEFSAII (Michael W. Deem and Ramdas Pophale) SiO2 
 PCOD9473485
Probable space group: C M C M
;
_chemical_formula_sum "Si O2"
_cell_formula_units_Z 104
_cell_length_a 16.656304
_cell_length_b 21.069579
_cell_length_c 15.303545
_cell_angle_alpha 90.000000
_cell_angle_beta 90.000000
_cell_angle_gamma 90.000000
_cell_volume 5370.646175
_symmetry_space_group_name_H-M "C M C M"
_symmetry_group_IT_number 63
_symmetry_cell_setting 'orthorhombic'
loop_
_space_group_symop_operation_xyz
x,y,z
-x,-y,1/2+z
x,-y,-z
-x,y,1/2-z
-x,-y,-z
x,y,1/2-z
-x,y,z
x,-y,1/2+z
1/2+x,1/2+y,z
1/2-x,1/2-y,1/2+z
1/2+x,1/2-y,-z
1/2-x,1/2+y,1/2-z
1/2-x,1/2-y,-z
1/2+x,1/2+y,1/2-z
1/2-x,1/2+y,z
1/2+x,1/2-y,1/2+z
loop_
_atom_site_type_symbol
_atom_site_label
_atom_site_fract_x
_atom_site_fract_y
_atom_site_fract_z
Si Si1 0.500000 0.636925 0.852643
Si Si2 0.685929 0.087697 0.653369
Si Si3 0.412780 0.210796 0.851682
Si Si4 0.774863 0.199541 0.096040
Si Si5 0.321520 0.318922 0.401054
Si Si6 0.170759 0.933557 0.652979
Si Si7 0.270548 0.000000 0.500000
Si Si8 0.500000 0.512232 0.104052
O O1 0.500000 0.654505 0.750000
O O2 0.584206 0.663161 0.894238
O O3 0.500000 0.559841 0.858708
O O4 0.679809 0.057132 0.750000
O O5 0.614975 0.138636 0.646914
O O6 0.768870 0.129241 0.651709
O O7 0.682025 0.045169 0.566725
O O8 0.412193 0.230396 0.750000
O O9 0.500000 0.220018 0.889465
O O10 0.348605 0.252315 0.899766
O O11 0.700124 0.245112 0.122577
O O12 0.798282 0.138790 0.152470
O O13 0.780066 0.175856 0.996544
O O14 0.186960 0.960189 0.750000
O O15 0.215441 0.964670 0.570946
O O16 0.077513 0.947665 0.633563
O O17 0.500000 0.500000 0.000000
#
# Coordination Sequence:
#
# PCOD9473485 Si02
#       8
#     8  16  16  16  16  16   8   8
#     4  12  24  38  60  90 122 162 207 250 299 364
#     4  10  20  38  61  82 115 156 197 244 294 356
#     4   9  19  35  59  88 113 147 195 248 300 351
#     4  10  21  38  59  86 121 157 199 247 303 358
#     4  10  21  39  60  86 117 158 204 249 297 360
#     4  12  24  38  58  85 120 160 198 244 298 357
#     4  12  22  39  55  84 114 156 200 236 288 354
#     4  12  24  42  58  85 131 164 203 248 300 366
#
# _framework density 19.364522999999998
#
# number of rings (size 3 to 8) (size 9 to 14) (size 15 to 20)
#    0.000    1.385    2.308    3.923    2.154    1.846 
#    0.000    0.385    0.000    0.000    2.000    0.000 
#    0.000    0.000    0.000    0.000    0.000    0.000 
#
# Total GULP energy -289672.729554 kJ/mol
# GULP energy per Si atom -5570.629414 kJ/mol
# Density = 1.932045 g / cm^3
# Si number density = 19.364523 Si / 1000 Ang^3
#
#
#
# Elastic Constant Matrix: (Units=GPa)
#
#
# Indices 1 2 3 4 5 6 
#
# 1 51.7017 5.2386 -7.7711 0.0000 0.0000 0.0000
# 2 5.2386 58.0969 19.7425 0.0000 0.0000 0.0000
# 3 -7.7711 19.7425 125.8557 0.0000 0.0000 0.0000
# 4 0.0000 0.0000 0.0000 3.6329 0.0000 0.0000
# 5 0.0000 0.0000 0.0000 0.0000 12.0671 0.0000
# 6 0.0000 0.0000 0.0000 0.0000 0.0000 -3.2390
#
#
#
# Elastic Compliance Matrix: (Units=1/GPa)
#
#
# Indices 1 2 3 4 5 6 
#
# 1 0.019816 -0.002327 0.001589 0.000000 0.000000 0.000000
# 2 -0.002327 0.018455 -0.003039 0.000000 0.000000 0.000000
# 3 0.001589 -0.003039 0.008520 0.000000 0.000000 0.000000
# 4 0.000000 0.000000 0.000000 0.275262 0.000000 0.000000
# 5 0.000000 0.000000 0.000000 0.000000 0.082870 0.000000
# 6 0.000000 0.000000 0.000000 0.000000 0.000000 -0.308735
#
#
# Mechanical properties :
#
#
# Convention : Reuss Voigt Hill
#
# Bulk Modulus (GPa) = 25.48543 30.00827 27.74685
# Shear Modulus (GPa) = 42.80047 17.05516 29.92782
#
# Velocity S-wave (km/s) = 4.70643 2.97095 3.93555
# Velocity P-wave (km/s) = 6.53632 5.22483 5.91702
#
# Compressibility (1/GPa) = 0.03923810
#
# Stress axis : x y z
#
# Youngs Moduli (GPa) = 50.46372 54.18589 117.36606
#
# Poissons Ratio (x) = 0.12607 -0.18644
# Poissons Ratio (y) = 0.11741 0.35663
# Poissons Ratio (z) = -0.08016 0.16465
#
# Static dielectric constant tensor:
#      x y z
#    x 1.674080 0.000000 0.000000 
#    y 0.000000 1.748780 0.000000 
#    z 0.000000 0.000000 1.677790 
# 
# From -- ./inp_files/34236.got.cif
#   From: 2010.05.17/outbox.cif.g08.bks.cpg/sg63_18_cif.got.tgz:34236.got - 2010.06.03 15:47:04.
