data_PCOD9473447
_publ_section_title
;
Structure prediction by ZEFSAII (Michael W. Deem and Ramdas Pophale) SiO2 
 PCOD9473447
Probable space group: C M C M
;
_chemical_formula_sum "Si O2"
_cell_formula_units_Z 76
_cell_length_a 12.622234
_cell_length_b 27.616525
_cell_length_c 13.355777
_cell_angle_alpha 90.000000
_cell_angle_beta 90.000000
_cell_angle_gamma 90.000000
_cell_volume 4655.586675
_symmetry_space_group_name_H-M "C M C M"
_symmetry_group_IT_number 63
_symmetry_cell_setting 'orthorhombic'
loop_
_space_group_symop_operation_xyz
x,y,z
-x,-y,1/2+z
x,-y,-z
-x,y,1/2-z
-x,-y,-z
x,y,1/2-z
-x,y,z
x,-y,1/2+z
1/2+x,1/2+y,z
1/2-x,1/2-y,1/2+z
1/2+x,1/2-y,-z
1/2-x,1/2+y,1/2-z
1/2-x,1/2-y,-z
1/2+x,1/2+y,1/2-z
1/2-x,1/2+y,z
1/2+x,1/2-y,1/2+z
loop_
_atom_site_type_symbol
_atom_site_label
_atom_site_fract_x
_atom_site_fract_y
_atom_site_fract_z
Si Si1 0.873203 0.177844 0.250000
Si Si2 0.000000 0.023429 0.750000
Si Si3 0.278331 0.530919 0.250000
Si Si4 0.798438 0.106037 0.077841
Si Si5 0.000000 0.057208 0.529931
Si Si6 0.371407 0.788458 0.250000
Si Si7 0.116987 0.444269 0.250000
Si Si8 0.876476 0.636657 0.920088
O O1 0.837348 0.148297 0.152238
O O2 0.834390 0.233243 0.250000
O O3 0.000000 0.178783 0.250000
O O4 0.898566 0.988307 0.750000
O O5 0.000000 0.055653 0.849818
O O6 0.260649 0.563227 0.151736
O O7 0.204886 0.484554 0.250000
O O8 0.896291 0.083901 0.014154
O O9 0.704700 0.125811 0.008437
O O10 0.000000 0.000000 0.500000
O O11 0.500000 0.789142 0.250000
O O12 0.341694 0.818335 0.150311
O O13 0.125571 0.409406 0.345752
O O14 0.000000 0.466695 0.250000
O O15 0.000000 0.643723 0.950930
#
# Coordination Sequence:
#
# PCOD9473447 Si02
#       8
#     8   4   8  16   8   8   8  16
#     4  10  20  38  58  81 109 140 187 234 266 341
#     4  12  22  32  52  74 108 154 190 222 258 334
#     4  11  21  33  48  75 108 148 190 211 271 322
#     4  11  22  34  55  82 111 145 186 230 270 330
#     4  12  22  36  54  78 116 156 188 222 280 324
#     4   8  17  37  63  80 104 141 180 230 285 337
#     4   9  19  34  52  72 106 145 182 223 256 324
#     4   9  19  36  55  81 106 138 185 227 280 334
#
# _framework density 16.324473000000001
#
# number of rings (size 3 to 8) (size 9 to 14) (size 15 to 20)
#    0.000    1.895    3.158    2.526    1.474    2.526 
#    0.000    3.684    0.000    0.000    2.737    0.000 
#    0.000    0.000    0.000    0.000    0.000    0.000 
#
# Total GULP energy -211964.000476 kJ/mol
# GULP energy per Si atom -5578.000013 kJ/mol
# Density = 1.628732 g / cm^3
# Si number density = 16.324473 Si / 1000 Ang^3
#
#
#
# Elastic Constant Matrix: (Units=GPa)
#
#
# Indices 1 2 3 4 5 6 
#
# 1 94.0572 57.5595 60.6631 0.0000 0.0000 0.0000
# 2 57.5595 120.8470 55.8595 0.0000 0.0000 0.0000
# 3 60.6631 55.8595 136.5881 0.0000 0.0000 0.0000
# 4 0.0000 0.0000 0.0000 13.1983 0.0000 0.0000
# 5 0.0000 0.0000 0.0000 0.0000 25.3885 0.0000
# 6 0.0000 0.0000 0.0000 0.0000 0.0000 18.5526
#
#
#
# Elastic Compliance Matrix: (Units=1/GPa)
#
#
# Indices 1 2 3 4 5 6 
#
# 1 0.017803 -0.005949 -0.005474 0.000000 0.000000 0.000000
# 2 -0.005949 0.012192 -0.002344 0.000000 0.000000 0.000000
# 3 -0.005474 -0.002344 0.010711 0.000000 0.000000 0.000000
# 4 0.000000 0.000000 0.000000 0.075767 0.000000 0.000000
# 5 0.000000 0.000000 0.000000 0.000000 0.039388 0.000000
# 6 0.000000 0.000000 0.000000 0.000000 0.000000 0.053901
#
#
# Mechanical properties :
#
#
# Convention : Reuss Voigt Hill
#
# Bulk Modulus (GPa) = 75.91881 77.73961 76.82921
# Shear Modulus (GPa) = 20.68794 23.25521 21.97158
#
# Velocity S-wave (km/s) = 3.56377 3.77843 3.67267
# Velocity P-wave (km/s) = 7.97126 8.17070 8.07160
#
# Compressibility (1/GPa) = 0.01317197
#
# Stress axis : x y z
#
# Youngs Moduli (GPa) = 56.17018 82.02095 93.36305
#
# Poissons Ratio (x) = 0.48798 0.51105
# Poissons Ratio (y) = 0.33418 0.21882
# Poissons Ratio (z) = 0.30746 0.19224
#
# Static dielectric constant tensor:
#      x y z
#    x 1.537260 0.000000 0.000000 
#    y 0.000000 1.538110 0.000000 
#    z 0.000000 0.000000 1.545960 
# 
# From -- ./inp_files/17978.got.cif
#   From: 2010.05.17/outbox.cif.g08.bks.cpg/sg63_9_cif.got.tgz:17978.got - 2010.06.03 15:47:04.
