data_PCOD9473763
_publ_section_title
;
Structure prediction by ZEFSAII (Michael W. Deem and Ramdas Pophale) SiO2 
 PCOD9473763
Probable space group: C M C M
;
_chemical_formula_sum "Si O2"
_cell_formula_units_Z 112
_cell_length_a 27.581778
_cell_length_b 12.272296
_cell_length_c 15.469703
_cell_angle_alpha 90.000000
_cell_angle_beta 90.000000
_cell_angle_gamma 90.000000
_cell_volume 5236.366745
_symmetry_space_group_name_H-M "C M C M"
_symmetry_group_IT_number 63
_symmetry_cell_setting 'orthorhombic'
loop_
_space_group_symop_operation_xyz
x,y,z
-x,-y,1/2+z
x,-y,-z
-x,y,1/2-z
-x,-y,-z
x,y,1/2-z
-x,y,z
x,-y,1/2+z
1/2+x,1/2+y,z
1/2-x,1/2-y,1/2+z
1/2+x,1/2-y,-z
1/2-x,1/2+y,1/2-z
1/2-x,1/2-y,-z
1/2+x,1/2+y,1/2-z
1/2-x,1/2+y,z
1/2+x,1/2-y,1/2+z
loop_
_atom_site_type_symbol
_atom_site_label
_atom_site_fract_x
_atom_site_fract_y
_atom_site_fract_z
Si Si1 0.056751 0.788243 0.153895
Si Si2 0.403832 0.118929 0.484074
Si Si3 0.295751 0.900938 0.938247
Si Si4 0.781599 0.017811 0.846875
Si Si5 0.371427 0.259003 0.849355
Si Si6 0.245068 0.754279 0.649331
Si Si7 0.612929 0.499612 0.402457
O O1 0.066591 0.741503 0.250000
O O2 0.069036 0.702739 0.078293
O O3 0.087787 0.898286 0.143995
O O4 0.000000 0.815548 0.148841
O O5 0.352950 0.091659 0.434822
O O6 0.390294 0.178439 0.574949
O O7 0.427181 0.000000 0.500000
O O8 0.283345 0.774388 0.932457
O O9 0.254606 0.916301 0.863251
O O10 0.280980 0.000000 0.000000
O O11 0.801092 0.008053 0.750000
O O12 0.747129 0.120370 0.854303
O O13 0.829170 0.021236 0.903951
O O14 0.380200 0.222315 0.750000
O O15 0.313275 0.271896 0.860194
O O16 0.393363 0.380082 0.862609
O O17 0.262690 0.767045 0.750000
O O18 0.594128 0.500000 0.500000
#
# Coordination Sequence:
#
# PCOD9473763 Si02
#       7
#    16  16  16  16  16  16  16
#     4  11  26  49  76 104 133 171 223 284 346 408
#     4  11  25  44  68 100 134 177 226 281 340 404
#     4  11  22  34  52  83 122 168 214 261 310 381
#     4  11  22  36  56  89 130 178 224 267 322 393
#     4  11  23  41  63  95 137 181 227 280 341 405
#     4  10  21  34  53  80 123 175 225 269 313 380
#     4  12  23  41  68  99 134 177 223 284 346 408
#
# _framework density 21.388874999999999
#
# number of rings (size 3 to 8) (size 9 to 14) (size 15 to 20)
#    0.000    1.000    2.857    4.714    0.000    4.571 
#    0.000    2.143    0.000    0.429    0.000    0.000 
#    0.000    0.000    0.000    0.000    0.000    0.000 
#
# Total GULP energy -311868.955433 kJ/mol
# GULP energy per Si atom -5569.088490 kJ/mol
# Density = 2.134019 g / cm^3
# Si number density = 21.388875 Si / 1000 Ang^3
#
#
#
# Elastic Constant Matrix: (Units=GPa)
#
#
# Indices 1 2 3 4 5 6 
#
# 1 54.3671 27.2669 27.9765 0.0000 0.0000 0.0000
# 2 27.2669 95.9390 29.2038 0.0000 0.0000 0.0000
# 3 27.9765 29.2038 94.2766 0.0000 0.0000 0.0000
# 4 0.0000 0.0000 0.0000 40.3382 0.0000 0.0000
# 5 0.0000 0.0000 0.0000 0.0000 412.3174 0.0000
# 6 0.0000 0.0000 0.0000 0.0000 0.0000 8.4010
#
#
#
# Elastic Compliance Matrix: (Units=1/GPa)
#
#
# Indices 1 2 3 4 5 6 
#
# 1 0.023762 -0.005087 -0.005476 0.000000 0.000000 0.000000
# 2 -0.005087 0.012597 -0.002393 0.000000 0.000000 0.000000
# 3 -0.005476 -0.002393 0.012973 0.000000 0.000000 0.000000
# 4 0.000000 0.000000 0.000000 0.024790 0.000000 0.000000
# 5 0.000000 0.000000 0.000000 0.000000 0.002425 0.000000
# 6 0.000000 0.000000 0.000000 0.000000 0.000000 0.119034
#
#
# Mechanical properties :
#
#
# Convention : Reuss Voigt Hill
#
# Bulk Modulus (GPa) = 42.69408 45.94191 44.31799
# Shear Modulus (GPa) = 21.80545 102.88701 62.34623
#
# Velocity S-wave (km/s) = 3.19639 6.94316 5.40483
# Velocity P-wave (km/s) = 5.79886 9.26297 7.72753
#
# Compressibility (1/GPa) = 0.02342245
#
# Stress axis : x y z
#
# Youngs Moduli (GPa) = 42.08331 79.38174 77.08187
#
# Poissons Ratio (x) = 0.40379 0.42208
# Poissons Ratio (y) = 0.21407 0.18444
# Poissons Ratio (z) = 0.23044 0.18994
#
# Static dielectric constant tensor:
#      x y z
#    x 1.739170 0.000000 0.000000 
#    y 0.000000 1.916580 0.000000 
#    z 0.000000 0.000000 1.917470 
# 
# From -- ./inp_files/38592.got.cif
#   From: 2010.05.17/outbox.cif.g08.bks.cpg/sg63_20_cif.got.tgz:38592.got - 2010.06.03 15:47:04.
