data_PCOD9473321
_publ_section_title
;
Structure prediction by ZEFSAII (Michael W. Deem and Ramdas Pophale) SiO2 
 PCOD9473321
Probable space group: C M C M
;
_chemical_formula_sum "Si O2"
_cell_formula_units_Z 92
_cell_length_a 18.464833
_cell_length_b 11.899838
_cell_length_c 23.399956
_cell_angle_alpha 90.000000
_cell_angle_beta 90.000000
_cell_angle_gamma 90.000000
_cell_volume 5141.637733
_symmetry_space_group_name_H-M "C M C M"
_symmetry_group_IT_number 63
_symmetry_cell_setting 'orthorhombic'
loop_
_space_group_symop_operation_xyz
x,y,z
-x,-y,1/2+z
x,-y,-z
-x,y,1/2-z
-x,-y,-z
x,y,1/2-z
-x,y,z
x,-y,1/2+z
1/2+x,1/2+y,z
1/2-x,1/2-y,1/2+z
1/2+x,1/2-y,-z
1/2-x,1/2+y,1/2-z
1/2-x,1/2-y,-z
1/2+x,1/2+y,1/2-z
1/2-x,1/2+y,z
1/2+x,1/2-y,1/2+z
loop_
_atom_site_type_symbol
_atom_site_label
_atom_site_fract_x
_atom_site_fract_y
_atom_site_fract_z
Si Si1 0.114672 0.589462 0.346945
Si Si2 0.646852 0.835114 0.314496
Si Si3 0.759670 0.264636 0.598083
Si Si4 0.500000 0.241163 0.868704
Si Si5 0.659095 0.634208 0.999178
Si Si6 0.500000 0.627768 0.476583
Si Si7 0.500000 0.159233 0.250000
Si Si8 0.500000 0.002414 0.932330
O O1 0.132798 0.468076 0.319915
O O2 0.185453 0.656021 0.367153
O O3 0.063478 0.651145 0.300834
O O4 0.068715 0.558668 0.403770
O O5 0.666816 0.806544 0.250000
O O6 0.708556 0.800298 0.358250
O O7 0.572169 0.772753 0.331534
O O8 0.706891 0.327931 0.553330
O O9 0.805427 0.180818 0.558243
O O10 0.500000 0.351614 0.908254
O O11 0.500000 0.131450 0.910202
O O12 0.576489 0.678131 0.003381
O O13 0.657356 0.500000 0.000000
O O14 0.500000 0.500000 0.500000
O O15 0.500000 0.000000 0.000000
#
# Coordination Sequence:
#
# PCOD9473321 Si02
#       8
#    16  16  16   8  16   8   4   8
#     4  10  22  37  58  85 121 156 196 242 303 347
#     4  11  22  37  60  85 116 159 200 250 291 343
#     4  11  23  36  60  91 119 153 191 246 299 362
#     4  10  20  37  58  86 113 146 209 240 290 357
#     4  10  22  40  59  85 121 152 192 237 301 359
#     4  10  20  37  61  82 113 160 189 235 289 366
#     4  10  20  42  58  80 116 160 194 248 288 350
#     4   9  21  32  58  87 114 151 189 248 295 347
#
# _framework density 17.893131
#
# number of rings (size 3 to 8) (size 9 to 14) (size 15 to 20)
#    0.000    1.739    2.609    1.826    3.652    2.783 
#    0.000    0.000    0.000    0.000    0.000    0.000 
#    0.000    0.000    0.000    0.000    0.000    0.000 
#
# Total GULP energy -256109.907778 kJ/mol
# GULP energy per Si atom -5567.606691 kJ/mol
# Density = 1.785241 g / cm^3
# Si number density = 17.893131 Si / 1000 Ang^3
#
#
#
# Elastic Constant Matrix: (Units=GPa)
#
#
# Indices 1 2 3 4 5 6 
#
# 1 143.4996 21.2463 53.2305 0.0000 0.0000 0.0000
# 2 21.2463 30.9105 8.1923 0.0000 0.0000 0.0000
# 3 53.2305 8.1923 131.8179 0.0000 0.0000 0.0000
# 4 0.0000 0.0000 0.0000 13.2456 0.0000 0.0000
# 5 0.0000 0.0000 0.0000 0.0000 -10.5066 0.0000
# 6 0.0000 0.0000 0.0000 0.0000 0.0000 37.4791
#
#
#
# Elastic Compliance Matrix: (Units=1/GPa)
#
#
# Indices 1 2 3 4 5 6 
#
# 1 0.008975 -0.005296 -0.003295 0.000000 0.000000 0.000000
# 2 -0.005296 0.036018 -0.000100 0.000000 0.000000 0.000000
# 3 -0.003295 -0.000100 0.008923 0.000000 0.000000 0.000000
# 4 0.000000 0.000000 0.000000 0.075497 0.000000 0.000000
# 5 0.000000 0.000000 0.000000 0.000000 -0.095178 0.000000
# 6 0.000000 0.000000 0.000000 0.000000 0.000000 0.026682
#
#
# Mechanical properties :
#
#
# Convention : Reuss Voigt Hill
#
# Bulk Modulus (GPa) = 27.37147 52.39625 39.88386
# Shear Modulus (GPa) = 55.26338 22.94754 39.10546
#
# Velocity S-wave (km/s) = 5.56348 3.58505 4.68001
# Velocity P-wave (km/s) = 7.52331 6.81786 7.17926
#
# Compressibility (1/GPa) = 0.03653439
#
# Stress axis : x y z
#
# Youngs Moduli (GPa) = 111.41994 27.76399 112.06887
#
# Poissons Ratio (x) = 0.14703 0.36929
# Poissons Ratio (y) = 0.59004 0.01121
# Poissons Ratio (z) = 0.36715 0.00278
#
# Static dielectric constant tensor:
#      x y z
#    x 1.629750 0.000000 0.000000 
#    y 0.000000 1.611160 0.000000 
#    z 0.000000 0.000000 1.585910 
# 
# From -- ./inp_files/55471.got.cif
#   From: 2010.05.17/outbox.cif.g08.bks.cpg/sg63_28_cif.got.tgz:55471.got - 2010.06.03 15:47:04.
