data_PCOD9473611
_publ_section_title
;
Structure prediction by ZEFSAII (Michael W. Deem and Ramdas Pophale) SiO2 
 PCOD9473611
Probable space group: C M C M
;
_chemical_formula_sum "Si O2"
_cell_formula_units_Z 80
_cell_length_a 12.634919
_cell_length_b 9.786833
_cell_length_c 31.245390
_cell_angle_alpha 90.000000
_cell_angle_beta 90.000000
_cell_angle_gamma 90.000000
_cell_volume 3863.675016
_symmetry_space_group_name_H-M "C M C M"
_symmetry_group_IT_number 63
_symmetry_cell_setting 'orthorhombic'
loop_
_space_group_symop_operation_xyz
x,y,z
-x,-y,1/2+z
x,-y,-z
-x,y,1/2-z
-x,-y,-z
x,y,1/2-z
-x,y,z
x,-y,1/2+z
1/2+x,1/2+y,z
1/2-x,1/2-y,1/2+z
1/2+x,1/2-y,-z
1/2-x,1/2+y,1/2-z
1/2-x,1/2-y,-z
1/2+x,1/2+y,1/2-z
1/2-x,1/2+y,z
1/2+x,1/2-y,1/2+z
loop_
_atom_site_type_symbol
_atom_site_label
_atom_site_fract_x
_atom_site_fract_y
_atom_site_fract_z
Si Si1 0.619881 0.842619 0.499832
Si Si2 0.234288 0.742936 0.422297
Si Si3 0.301742 0.372623 0.698846
Si Si4 0.623726 0.502660 0.380743
Si Si5 0.881125 0.570211 0.698479
O O1 0.500000 0.818888 0.487170
O O2 0.690144 0.781837 0.462159
O O3 0.634375 0.802839 0.549300
O O4 0.648296 0.000000 0.500000
O O5 0.302766 0.627290 0.398486
O O6 0.189146 0.867299 0.394069
O O7 0.317927 0.388515 0.750000
O O8 0.376636 0.467556 0.670075
O O9 0.186425 0.435656 0.687805
O O10 0.323680 0.213907 0.688219
O O11 0.500000 0.501948 0.395598
O O12 0.888857 0.570149 0.750000
O O13 0.000000 0.569819 0.680358
#
# Coordination Sequence:
#
# PCOD9473611 Si02
#       5
#    16  16  16  16  16
#     4  10  20  39  66  91 122 161 201 244 302 374
#     4  11  23  42  61  96 126 159 204 253 304 369
#     4  10  21  39  63  89 121 165 214 258 304 364
#     4  12  25  41  62  91 128 165 206 258 311 359
#     4   9  18  36  60  84 113 151 199 254 307 358
#
# _framework density 20.705674999999999
#
# number of rings (size 3 to 8) (size 9 to 14) (size 15 to 20)
#    0.000    1.600    2.000    3.000    0.000    1.200 
#    0.000   10.000    0.000   12.000    0.000    0.000 
#    0.000    0.000    0.000    0.000    0.000    0.000 
#
# Total GULP energy -222699.825772 kJ/mol
# GULP energy per Si atom -5567.495644 kJ/mol
# Density = 2.065855 g / cm^3
# Si number density = 20.705675 Si / 1000 Ang^3
#
#
#
# Elastic Constant Matrix: (Units=GPa)
#
#
# Indices 1 2 3 4 5 6 
#
# 1 159.8087 65.0662 25.0520 0.0000 0.0000 0.0000
# 2 65.0662 97.5832 25.9099 0.0000 0.0000 0.0000
# 3 25.0520 25.9099 76.7277 0.0000 0.0000 0.0000
# 4 0.0000 0.0000 0.0000 26.7558 0.0000 0.0000
# 5 0.0000 0.0000 0.0000 0.0000 31.5812 0.0000
# 6 0.0000 0.0000 0.0000 0.0000 0.0000 94.4588
#
#
#
# Elastic Compliance Matrix: (Units=1/GPa)
#
#
# Indices 1 2 3 4 5 6 
#
# 1 0.008654 -0.005514 -0.000963 0.000000 0.000000 0.000000
# 2 -0.005514 0.014771 -0.003187 0.000000 0.000000 0.000000
# 3 -0.000963 -0.003187 0.014424 0.000000 0.000000 0.000000
# 4 0.000000 0.000000 0.000000 0.037375 0.000000 0.000000
# 5 0.000000 0.000000 0.000000 0.000000 0.031664 0.000000
# 6 0.000000 0.000000 0.000000 0.000000 0.000000 0.010587
#
#
# Mechanical properties :
#
#
# Convention : Reuss Voigt Hill
#
# Bulk Modulus (GPa) = 54.00078 62.90843 58.45461
# Shear Modulus (GPa) = 34.97058 45.09861 40.03459
#
# Velocity S-wave (km/s) = 4.11413 4.67205 4.40194
# Velocity P-wave (km/s) = 6.97889 7.71701 7.35721
#
# Compressibility (1/GPa) = 0.01851825
#
# Stress axis : x y z
#
# Youngs Moduli (GPa) = 115.55850 67.70137 69.32888
#
# Poissons Ratio (x) = 0.37332 0.06679
# Poissons Ratio (y) = 0.63722 0.22098
# Poissons Ratio (z) = 0.11133 0.21580
#
# Static dielectric constant tensor:
#      x y z
#    x 1.792020 0.000000 0.000000 
#    y 0.000000 1.754200 0.000000 
#    z 0.000000 0.000000 1.909770 
# 
# From -- ./inp_files/72493.got.cif
#   From: 2010.05.17/outbox.cif.g08.bks.cpg/sg63_37_cif.got.tgz:72493.got - 2010.06.03 15:47:04.
