data_PCOD9473520
_publ_section_title
;
Structure prediction by ZEFSAII (Michael W. Deem and Ramdas Pophale) SiO2 
 PCOD9473520
Probable space group: C M C M
;
_chemical_formula_sum "Si O2"
_cell_formula_units_Z 64
_cell_length_a 7.779239
_cell_length_b 13.334339
_cell_length_c 37.742642
_cell_angle_alpha 90.000000
_cell_angle_beta 90.000000
_cell_angle_gamma 90.000000
_cell_volume 3915.082374
_symmetry_space_group_name_H-M "C M C M"
_symmetry_group_IT_number 63
_symmetry_cell_setting 'orthorhombic'
loop_
_space_group_symop_operation_xyz
x,y,z
-x,-y,1/2+z
x,-y,-z
-x,y,1/2-z
-x,-y,-z
x,y,1/2-z
-x,y,z
x,-y,1/2+z
1/2+x,1/2+y,z
1/2-x,1/2-y,1/2+z
1/2+x,1/2-y,-z
1/2-x,1/2+y,1/2-z
1/2-x,1/2-y,-z
1/2+x,1/2+y,1/2-z
1/2-x,1/2+y,z
1/2+x,1/2-y,1/2+z
loop_
_atom_site_type_symbol
_atom_site_label
_atom_site_fract_x
_atom_site_fract_y
_atom_site_fract_z
Si Si1 0.807756 0.354969 0.410509
Si Si2 0.807721 0.029485 0.839586
Si Si3 0.000000 0.622045 0.165452
Si Si4 0.000000 0.499101 0.457982
Si Si5 0.500000 0.796641 0.584811
Si Si6 0.000000 0.173538 0.792028
O O1 0.750074 0.412974 0.375088
O O2 0.839656 0.436848 0.441393
O O3 0.667658 0.272462 0.419709
O O4 0.000000 0.311725 0.404444
O O5 0.667720 0.947084 0.830205
O O6 0.000000 0.986157 0.845573
O O7 0.839690 0.111723 0.808829
O O8 0.000000 0.663010 0.125163
O O9 0.000000 0.715785 0.191723
O O10 0.000000 0.500000 0.500000
O O11 0.000000 0.609340 0.441338
O O12 0.000000 0.172886 0.750000
#
# Coordination Sequence:
#
# PCOD9473520 Si02
#       6
#    16  16   8   8   8   8
#     4  10  20  38  62  90 117 154 208 238 294 357
#     4  10  20  38  64  87 118 152 203 244 287 354
#     4  12  20  38  67  90 112 165 200 240 296 368
#     4  10  24  42  58  90 131 150 199 263 296 343
#     4  12  20  38  66  87 118 159 204 244 293 362
#     4  10  24  42  58  89 127 148 194 259 297 341
#
# _framework density 16.347037
#
# number of rings (size 3 to 8) (size 9 to 14) (size 15 to 20)
#    1.500    0.000    7.500    0.000    0.000    3.000 
#    4.500    0.625    0.000    0.000    0.000    0.000 
#    0.000    0.000    0.000    0.000    0.000    0.000 
#
# Total GULP energy -178162.197332 kJ/mol
# GULP energy per Si atom -5567.568667 kJ/mol
# Density = 1.630983 g / cm^3
# Si number density = 16.347037 Si / 1000 Ang^3
#
#
#
# Elastic Constant Matrix: (Units=GPa)
#
#
# Indices 1 2 3 4 5 6 
#
# 1 149.8240 83.4290 44.4716 0.0000 0.0000 0.0000
# 2 83.4290 147.1091 80.0959 0.0000 0.0000 0.0000
# 3 44.4716 80.0959 168.2475 0.0000 0.0000 0.0000
# 4 0.0000 0.0000 0.0000 25.9060 0.0000 0.0000
# 5 0.0000 0.0000 0.0000 0.0000 20.7020 0.0000
# 6 0.0000 0.0000 0.0000 0.0000 0.0000 44.9173
#
#
#
# Elastic Compliance Matrix: (Units=1/GPa)
#
#
# Indices 1 2 3 4 5 6 
#
# 1 0.009756 -0.005573 0.000075 0.000000 0.000000 0.000000
# 2 -0.005573 0.012360 -0.004411 0.000000 0.000000 0.000000
# 3 0.000075 -0.004411 0.008024 0.000000 0.000000 0.000000
# 4 0.000000 0.000000 0.000000 0.038601 0.000000 0.000000
# 5 0.000000 0.000000 0.000000 0.000000 0.048305 0.000000
# 6 0.000000 0.000000 0.000000 0.000000 0.000000 0.022263
#
#
# Mechanical properties :
#
#
# Convention : Reuss Voigt Hill
#
# Bulk Modulus (GPa) = 96.89737 97.90815 97.40276
# Shear Modulus (GPa) = 30.75631 35.45065 33.10348
#
# Velocity S-wave (km/s) = 4.34229 4.66191 4.50493
# Velocity P-wave (km/s) = 9.19481 9.43405 9.31520
#
# Compressibility (1/GPa) = 0.01032020
#
# Stress axis : x y z
#
# Youngs Moduli (GPa) = 102.50218 80.90551 124.62916
#
# Poissons Ratio (x) = 0.45092 -0.00929
# Poissons Ratio (y) = 0.57128 0.54974
# Poissons Ratio (z) = -0.00764 0.35687
#
# Static dielectric constant tensor:
#      x y z
#    x 1.549820 0.000000 0.000000 
#    y 0.000000 1.539950 0.000000 
#    z 0.000000 0.000000 1.521360 
# 
# From -- ./inp_files/71387.got.cif
#   From: 2010.05.17/outbox.cif.g08.bks.cpg/sg63_36_cif.got.tgz:71387.got - 2010.06.03 15:47:04.
