data_PCOD9473829
_publ_section_title
;
Structure prediction by ZEFSAII (Michael W. Deem and Ramdas Pophale) SiO2 
 PCOD9473829
Probable space group: C M C M
;
_chemical_formula_sum "Si O2"
_cell_formula_units_Z 68
_cell_length_a 20.503015
_cell_length_b 19.191601
_cell_length_c 7.617358
_cell_angle_alpha 90.000000
_cell_angle_beta 90.000000
_cell_angle_gamma 90.000000
_cell_volume 2997.321317
_symmetry_space_group_name_H-M "C M C M"
_symmetry_group_IT_number 63
_symmetry_cell_setting 'orthorhombic'
loop_
_space_group_symop_operation_xyz
x,y,z
-x,-y,1/2+z
x,-y,-z
-x,y,1/2-z
-x,-y,-z
x,y,1/2-z
-x,y,z
x,-y,1/2+z
1/2+x,1/2+y,z
1/2-x,1/2-y,1/2+z
1/2+x,1/2-y,-z
1/2-x,1/2+y,1/2-z
1/2-x,1/2-y,-z
1/2+x,1/2+y,1/2-z
1/2-x,1/2+y,z
1/2+x,1/2-y,1/2+z
loop_
_atom_site_type_symbol
_atom_site_label
_atom_site_fract_x
_atom_site_fract_y
_atom_site_fract_z
Si Si1 0.388253 0.215193 0.533574
Si Si2 0.072610 0.918114 0.460133
Si Si3 0.298864 0.663039 0.051165
Si Si4 0.176087 0.579699 0.945197
Si Si5 0.500000 0.248072 0.250000
O O1 0.399602 0.219274 0.750000
O O2 0.322332 0.259953 0.500055
O O3 0.373507 0.135794 0.473440
O O4 0.443469 0.244862 0.406842
O O5 0.074624 0.907430 0.250000
O O6 0.132533 0.878378 0.543632
O O7 0.000000 0.896726 0.520271
O O8 0.078766 0.000000 0.500000
O O9 0.274812 0.663953 0.250000
O O10 0.245813 0.618589 0.947735
O O11 0.150809 0.574498 0.750000
O O12 0.183222 0.500000 0.000000
#
# Coordination Sequence:
#
# PCOD9473829 Si02
#       5
#    16  16  16  16   4
#     4  10  26  46  70 106 139 177 233 287 345 412
#     4  10  21  35  53  81 122 170 223 271 330 401
#     4  11  23  39  64  96 134 176 221 276 339 403
#     4  11  24  44  71  99 140 177 229 287 344 412
#     4  12  26  44  82  94 144 180 230 284 354 414
#
# _framework density 22.686924000000001
#
# number of rings (size 3 to 8) (size 9 to 14) (size 15 to 20)
#    0.000    1.412    0.000    3.882    8.235    1.412 
#    0.000    0.588    0.000    0.000    0.000    0.000 
#    0.000    0.000    0.000    0.000    0.000    0.000 
#
# Total GULP energy -189334.568078 kJ/mol
# GULP energy per Si atom -5568.663767 kJ/mol
# Density = 2.263529 g / cm^3
# Si number density = 22.686924 Si / 1000 Ang^3
#
#
#
# Elastic Constant Matrix: (Units=GPa)
#
#
# Indices 1 2 3 4 5 6 
#
# 1 57.5407 9.2827 20.4550 0.0000 0.0000 0.0000
# 2 9.2827 139.4939 17.4248 0.0000 0.0000 0.0000
# 3 20.4550 17.4248 94.4511 0.0000 0.0000 0.0000
# 4 0.0000 0.0000 0.0000 4.7408 0.0000 0.0000
# 5 0.0000 0.0000 0.0000 0.0000 76.6229 0.0000
# 6 0.0000 0.0000 0.0000 0.0000 0.0000 -43.8106
#
#
#
# Elastic Compliance Matrix: (Units=1/GPa)
#
#
# Indices 1 2 3 4 5 6 
#
# 1 0.018908 -0.000764 -0.003954 0.000000 0.000000 0.000000
# 2 -0.000764 0.007369 -0.001194 0.000000 0.000000 0.000000
# 3 -0.003954 -0.001194 0.011664 0.000000 0.000000 0.000000
# 4 0.000000 0.000000 0.000000 0.210934 0.000000 0.000000
# 5 0.000000 0.000000 0.000000 0.000000 0.013051 0.000000
# 6 0.000000 0.000000 0.000000 0.000000 0.000000 -0.022826
#
#
# Mechanical properties :
#
#
# Convention : Reuss Voigt Hill
#
# Bulk Modulus (GPa) = 38.28994 42.86786 40.57890
# Shear Modulus (GPa) = 19.25819 23.79882 21.52851
#
# Velocity S-wave (km/s) = 2.91669 3.24236 3.08383
# Velocity P-wave (km/s) = 5.31573 5.74052 5.53220
#
# Compressibility (1/GPa) = 0.02611652
#
# Stress axis : x y z
#
# Youngs Moduli (GPa) = 52.88810 135.70784 85.73379
#
# Poissons Ratio (x) = 0.10373 0.33898
# Poissons Ratio (y) = 0.04043 0.10236
# Poissons Ratio (z) = 0.20911 0.16202
#
# Static dielectric constant tensor:
#      x y z
#    x 1.825180 0.000000 0.000000 
#    y 0.000000 2.000480 0.000000 
#    z 0.000000 0.000000 1.933210 
# 
# From -- ./inp_files/5878.got.cif
#   From: 2010.05.17/outbox.cif.g08.bks.cpg/sg63_3_cif.got.tgz:5878.got - 2010.06.03 15:47:04.
