data_PCOD9473777
_publ_section_title
;
Structure prediction by ZEFSAII (Michael W. Deem and Ramdas Pophale) SiO2 
 PCOD9473777
Probable space group: C M C M
;
_chemical_formula_sum "Si O2"
_cell_formula_units_Z 64
_cell_length_a 16.043093
_cell_length_b 18.802392
_cell_length_c 11.946760
_cell_angle_alpha 90.000000
_cell_angle_beta 90.000000
_cell_angle_gamma 90.000000
_cell_volume 3603.722514
_symmetry_space_group_name_H-M "C M C M"
_symmetry_group_IT_number 63
_symmetry_cell_setting 'orthorhombic'
loop_
_space_group_symop_operation_xyz
x,y,z
-x,-y,1/2+z
x,-y,-z
-x,y,1/2-z
-x,-y,-z
x,y,1/2-z
-x,y,z
x,-y,1/2+z
1/2+x,1/2+y,z
1/2-x,1/2-y,1/2+z
1/2+x,1/2-y,-z
1/2-x,1/2+y,1/2-z
1/2-x,1/2-y,-z
1/2+x,1/2+y,1/2-z
1/2-x,1/2+y,z
1/2+x,1/2-y,1/2+z
loop_
_atom_site_type_symbol
_atom_site_label
_atom_site_fract_x
_atom_site_fract_y
_atom_site_fract_z
Si Si1 0.827931 0.695670 0.991549
Si Si2 0.095305 0.182681 0.879773
Si Si3 0.204698 0.081319 0.467924
Si Si4 0.901812 0.116300 0.250000
Si Si5 0.597916 0.788587 0.250000
O O1 0.857496 0.686304 0.863876
O O2 0.750000 0.750000 0.000000
O O3 0.895953 0.741204 0.058759
O O4 0.792276 0.623275 0.043483
O O5 0.116934 0.191544 0.750000
O O6 0.000000 0.158360 0.890235
O O7 0.154730 0.124599 0.936292
O O8 0.147341 0.089136 0.358415
O O9 0.216300 0.000000 0.500000
O O10 0.897261 0.202367 0.250000
O O11 0.000000 0.096860 0.250000
O O12 0.500000 0.807875 0.250000
#
# Coordination Sequence:
#
# PCOD9473777 Si02
#       5
#    16  16  16   8   8
#     4  10  21  34  60  81 114 145 191 240 279 329
#     4  10  21  36  57  84 114 147 188 236 284 334
#     4  11  25  37  55  85 120 154 186 227 286 345
#     4  11  22  37  58  84 116 154 192 229 279 343
#     4  11  20  37  62  86 108 146 200 245 281 331
#
# _framework density 17.759414
#
# number of rings (size 3 to 8) (size 9 to 14) (size 15 to 20)
#    0.000    1.500    5.000    1.500   10.500    2.000 
#    0.000    0.000    0.000    3.000    0.000    0.000 
#    0.000    0.000    0.000    0.000    0.000    0.000 
#
# Total GULP energy -178502.064128 kJ/mol
# GULP energy per Si atom -5578.189504 kJ/mol
# Density = 1.771899 g / cm^3
# Si number density = 17.759414 Si / 1000 Ang^3
#
#
#
# Elastic Constant Matrix: (Units=GPa)
#
#
# Indices 1 2 3 4 5 6 
#
# 1 56.2558 24.3081 22.0092 0.0000 0.0000 0.0000
# 2 24.3081 112.1747 21.0489 0.0000 0.0000 0.0000
# 3 22.0092 21.0489 83.2847 0.0000 0.0000 0.0000
# 4 0.0000 0.0000 0.0000 0.1990 0.0000 0.0000
# 5 0.0000 0.0000 0.0000 0.0000 32.0785 0.0000
# 6 0.0000 0.0000 0.0000 0.0000 0.0000 17.5429
#
#
#
# Elastic Compliance Matrix: (Units=1/GPa)
#
#
# Indices 1 2 3 4 5 6 
#
# 1 0.021208 -0.003721 -0.004664 0.000000 0.000000 0.000000
# 2 -0.003721 0.010011 -0.001547 0.000000 0.000000 0.000000
# 3 -0.004664 -0.001547 0.013631 0.000000 0.000000 0.000000
# 4 0.000000 0.000000 0.000000 5.025420 0.000000 0.000000
# 5 0.000000 0.000000 0.000000 0.000000 0.031174 0.000000
# 6 0.000000 0.000000 0.000000 0.000000 0.000000 0.057003
#
#
# Mechanical properties :
#
#
# Convention : Reuss Voigt Hill
#
# Bulk Modulus (GPa) = 40.02165 42.93863 41.48014
# Shear Modulus (GPa) = 0.96402 22.25402 11.60902
#
# Velocity S-wave (km/s) = 0.73756 3.54373 2.55950
# Velocity P-wave (km/s) = 4.82801 6.40113 5.66940
#
# Compressibility (1/GPa) = 0.02498648
#
# Stress axis : x y z
#
# Youngs Moduli (GPa) = 47.15102 99.88820 73.36436
#
# Poissons Ratio (x) = 0.37164 0.34220
# Poissons Ratio (y) = 0.17543 0.11349
# Poissons Ratio (z) = 0.21993 0.15452
#
# Static dielectric constant tensor:
#      x y z
#    x 1.647940 0.000000 0.000000 
#    y 0.000000 1.594260 0.000000 
#    z 0.000000 0.000000 1.620230 
# 
# From -- ./inp_files/18980.got.cif
#   From: 2010.05.17/outbox.cif.g08.bks.cpg/sg63_10_cif.got.tgz:18980.got - 2010.06.03 15:47:04.
