data_PCOD9473662
_publ_section_title
;
Structure prediction by ZEFSAII (Michael W. Deem and Ramdas Pophale) SiO2 
 PCOD9473662
Probable space group: C M C M
;
_chemical_formula_sum "Si O2"
_cell_formula_units_Z 56
_cell_length_a 11.006114
_cell_length_b 14.399094
_cell_length_c 12.871759
_cell_angle_alpha 90.000000
_cell_angle_beta 90.000000
_cell_angle_gamma 90.000000
_cell_volume 2039.891525
_symmetry_space_group_name_H-M "C M C M"
_symmetry_group_IT_number 63
_symmetry_cell_setting 'orthorhombic'
loop_
_space_group_symop_operation_xyz
x,y,z
-x,-y,1/2+z
x,-y,-z
-x,y,1/2-z
-x,-y,-z
x,y,1/2-z
-x,y,z
x,-y,1/2+z
1/2+x,1/2+y,z
1/2-x,1/2-y,1/2+z
1/2+x,1/2-y,-z
1/2-x,1/2+y,1/2-z
1/2-x,1/2-y,-z
1/2+x,1/2+y,1/2-z
1/2-x,1/2+y,z
1/2+x,1/2-y,1/2+z
loop_
_atom_site_type_symbol
_atom_site_label
_atom_site_fract_x
_atom_site_fract_y
_atom_site_fract_z
Si Si1 0.000000 0.412489 0.424149
Si Si2 0.500000 0.707662 0.415904
Si Si3 0.000000 0.011986 0.130399
Si Si4 0.268982 0.184879 0.362584
Si Si5 0.235882 0.108363 0.914446
O O1 0.000000 0.500000 0.500000
O O2 0.868635 0.414287 0.367474
O O3 0.000000 0.307078 0.473863
O O4 0.500000 0.599197 0.450034
O O5 0.625984 0.708060 0.356492
O O6 0.128423 0.959370 0.118754
O O7 0.000000 0.045582 0.250000
O O8 0.313547 0.152053 0.250000
O O9 0.316383 0.288553 0.388325
O O10 0.271905 0.117625 0.462386
#
# Coordination Sequence:
#
# PCOD9473662 Si02
#       5
#     8   8   8  16  16
#     4  10  24  49  73 106 147 199 251 297 383 468
#     4  10  23  41  68 103 143 191 249 308 381 471
#     4  12  25  44  73 114 151 193 260 332 387 451
#     4  10  20  40  67 102 148 196 253 317 383 453
#     4  10  24  42  71 107 147 200 255 315 383 461
#
# _framework density 27.452438999999998
#
# number of rings (size 3 to 8) (size 9 to 14) (size 15 to 20)
#    0.000    1.714    0.000    3.000    4.000    4.571 
#    0.000    4.286    0.000   10.286    0.000    0.000 
#    0.000    0.000    0.000    0.000    0.000    0.000 
#
# Total GULP energy -156145.016092 kJ/mol
# GULP energy per Si atom -5576.607718 kJ/mol
# Density = 2.738996 g / cm^3
# Si number density = 27.452439 Si / 1000 Ang^3
#
#
#
# Elastic Constant Matrix: (Units=GPa)
#
#
# Indices 1 2 3 4 5 6 
#
# 1 168.7271 94.9847 13.3784 0.0000 0.0000 0.0000
# 2 94.9847 165.5221 17.3878 0.0000 0.0000 0.0000
# 3 13.3784 17.3878 161.4683 0.0000 0.0000 0.0000
# 4 0.0000 0.0000 0.0000 5.8974 0.0000 0.0000
# 5 0.0000 0.0000 0.0000 0.0000 5.6469 0.0000
# 6 0.0000 0.0000 0.0000 0.0000 0.0000 55.3803
#
#
#
# Elastic Compliance Matrix: (Units=1/GPa)
#
#
# Indices 1 2 3 4 5 6 
#
# 1 0.008761 -0.005008 -0.000187 0.000000 0.000000 0.000000
# 2 -0.005008 0.008973 -0.000551 0.000000 0.000000 0.000000
# 3 -0.000187 -0.000551 0.006268 0.000000 0.000000 0.000000
# 4 0.000000 0.000000 0.000000 0.169567 0.000000 0.000000
# 5 0.000000 0.000000 0.000000 0.000000 0.177087 0.000000
# 6 0.000000 0.000000 0.000000 0.000000 0.000000 0.018057
#
#
# Mechanical properties :
#
#
# Convention : Reuss Voigt Hill
#
# Bulk Modulus (GPa) = 79.93349 83.02436 81.47892
# Shear Modulus (GPa) = 12.36478 38.04936 25.20707
#
# Velocity S-wave (km/s) = 2.12458 3.72695 3.03348
# Velocity P-wave (km/s) = 5.93285 6.98777 6.48181
#
# Compressibility (1/GPa) = 0.01251040
#
# Stress axis : x y z
#
# Youngs Moduli (GPa) = 114.14779 111.44492 159.54050
#
# Poissons Ratio (x) = 0.55808 0.02977
# Poissons Ratio (y) = 0.57161 0.08796
# Poissons Ratio (z) = 0.02130 0.06145
#
# Static dielectric constant tensor:
#      x y z
#    x 2.134730 0.000000 0.000000 
#    y 0.000000 2.261800 0.000000 
#    z 0.000000 0.000000 2.234920 
# 
# From -- ./inp_files/51938.got.cif
#   From: 2010.05.17/outbox.cif.g08.bks.cpg/sg63_26_cif.got.tgz:51938.got - 2010.06.03 15:47:04.
