data_PCOD9473655
_publ_section_title
;
Structure prediction by ZEFSAII (Michael W. Deem and Ramdas Pophale) SiO2 
 PCOD9473655
Probable space group: C M C M
;
_chemical_formula_sum "Si O2"
_cell_formula_units_Z 116
_cell_length_a 9.130683
_cell_length_b 24.477362
_cell_length_c 25.725229
_cell_angle_alpha 90.000000
_cell_angle_beta 90.000000
_cell_angle_gamma 90.000000
_cell_volume 5749.460907
_symmetry_space_group_name_H-M "C M C M"
_symmetry_group_IT_number 63
_symmetry_cell_setting 'orthorhombic'
loop_
_space_group_symop_operation_xyz
x,y,z
-x,-y,1/2+z
x,-y,-z
-x,y,1/2-z
-x,-y,-z
x,y,1/2-z
-x,y,z
x,-y,1/2+z
1/2+x,1/2+y,z
1/2-x,1/2-y,1/2+z
1/2+x,1/2-y,-z
1/2-x,1/2+y,1/2-z
1/2-x,1/2-y,-z
1/2+x,1/2+y,1/2-z
1/2-x,1/2+y,z
1/2+x,1/2-y,1/2+z
loop_
_atom_site_type_symbol
_atom_site_label
_atom_site_fract_x
_atom_site_fract_y
_atom_site_fract_z
Si Si1 0.263606 0.146461 0.805407
Si Si2 0.327677 0.038559 0.384974
Si Si3 0.174945 0.779053 0.951265
Si Si4 0.827102 0.612498 0.481895
Si Si5 0.000000 0.099536 0.750000
Si Si6 0.174012 0.262992 0.655944
Si Si7 0.172357 0.125492 0.189424
Si Si8 0.331385 0.081007 0.904491
O O1 0.346345 0.144762 0.750000
O O2 0.205175 0.208072 0.812059
O O3 0.331246 0.125231 0.858650
O O4 0.127372 0.106788 0.794319
O O5 0.500000 0.040430 0.369381
O O6 0.319923 0.060437 0.444175
O O7 0.240307 0.079258 0.347469
O O8 0.270113 0.976665 0.384542
O O9 0.228480 0.841416 0.955343
O O10 0.244674 0.755591 0.898898
O O11 0.000000 0.773770 0.951767
O O12 0.250000 0.750000 0.000000
O O13 0.771854 0.602050 0.540445
O O14 0.000000 0.630082 0.483168
O O15 0.242839 0.317476 0.680737
O O16 0.000000 0.270041 0.649191
O O17 0.185569 0.109649 0.250000
O O18 0.000000 0.133609 0.177658
O O19 0.500000 0.067642 0.917573
#
# Coordination Sequence:
#
# PCOD9473655 Si02
#       8
#    16  16  16  16   4  16  16  16
#     4  10  21  40  62  88 122 160 206 258 307 374
#     4  10  21  41  66  92 123 168 212 259 311 375
#     4  12  25  39  59  90 131 169 209 258 310 378
#     4  10  20  40  65  92 125 163 209 258 315 376
#     4   8  20  44  58  84 126 156 212 252 310 374
#     4  12  22  40  67  92 122 163 210 262 318 382
#     4  11  25  42  61  92 129 167 209 261 318 374
#     4  10  22  39  64  95 125 159 210 261 313 370
#
# _framework density 20.175803999999999
#
# number of rings (size 3 to 8) (size 9 to 14) (size 15 to 20)
#    0.414    0.966    2.069    3.724    0.000    6.345 
#    2.483    1.379    0.000    1.655    0.000    0.000 
#    0.000    0.000    0.000    0.000    0.000    0.000 
#
# Total GULP energy -323068.871237 kJ/mol
# GULP energy per Si atom -5570.152952 kJ/mol
# Density = 2.012988 g / cm^3
# Si number density = 20.175804 Si / 1000 Ang^3
#
#
#
# Elastic Constant Matrix: (Units=GPa)
#
#
# Indices 1 2 3 4 5 6 
#
# 1 117.0396 21.4004 41.7026 0.0000 0.0000 0.0000
# 2 21.4004 62.0093 26.4412 0.0000 0.0000 0.0000
# 3 41.7026 26.4412 127.3051 0.0000 0.0000 0.0000
# 4 0.0000 0.0000 0.0000 0.9695 0.0000 0.0000
# 5 0.0000 0.0000 0.0000 0.0000 25.9845 0.0000
# 6 0.0000 0.0000 0.0000 0.0000 0.0000 10.7223
#
#
#
# Elastic Compliance Matrix: (Units=1/GPa)
#
#
# Indices 1 2 3 4 5 6 
#
# 1 0.009950 -0.002243 -0.002793 0.000000 0.000000 0.000000
# 2 -0.002243 0.018199 -0.003045 0.000000 0.000000 0.000000
# 3 -0.002793 -0.003045 0.009403 0.000000 0.000000 0.000000
# 4 0.000000 0.000000 0.000000 1.031509 0.000000 0.000000
# 5 0.000000 0.000000 0.000000 0.000000 0.038484 0.000000
# 6 0.000000 0.000000 0.000000 0.000000 0.000000 0.093264
#
#
# Mechanical properties :
#
#
# Convention : Reuss Voigt Hill
#
# Bulk Modulus (GPa) = 46.75385 53.93804 50.34594
# Shear Modulus (GPa) = 4.08463 21.98924 13.03694
#
# Velocity S-wave (km/s) = 1.42440 3.30492 2.54474
# Velocity P-wave (km/s) = 5.09203 6.43081 5.80018
#
# Compressibility (1/GPa) = 0.02138861
#
# Stress axis : x y z
#
# Youngs Moduli (GPa) = 100.50736 54.94779 106.35190
#
# Poissons Ratio (x) = 0.12322 0.29709
# Poissons Ratio (y) = 0.22539 0.32388
# Poissons Ratio (z) = 0.28077 0.16733
#
# Static dielectric constant tensor:
#      x y z
#    x 1.697080 0.000000 0.000000 
#    y 0.000000 1.746540 0.000000 
#    z 0.000000 0.000000 1.740600 
# 
# From -- ./inp_files/67462.got.cif
#   From: 2010.05.17/outbox.cif.g08.bks.cpg/sg63_34_cif.got.tgz:67462.got - 2010.06.03 15:47:04.
