data_PCOD9473821
_publ_section_title
;
Structure prediction by ZEFSAII (Michael W. Deem and Ramdas Pophale) SiO2 
 PCOD9473821
Probable space group: C M C M
;
_chemical_formula_sum "Si O2"
_cell_formula_units_Z 80
_cell_length_a 26.531025
_cell_length_b 11.915094
_cell_length_c 13.815910
_cell_angle_alpha 90.000000
_cell_angle_beta 90.000000
_cell_angle_gamma 90.000000
_cell_volume 4367.480727
_symmetry_space_group_name_H-M "C M C M"
_symmetry_group_IT_number 63
_symmetry_cell_setting 'orthorhombic'
loop_
_space_group_symop_operation_xyz
x,y,z
-x,-y,1/2+z
x,-y,-z
-x,y,1/2-z
-x,-y,-z
x,y,1/2-z
-x,y,z
x,-y,1/2+z
1/2+x,1/2+y,z
1/2-x,1/2-y,1/2+z
1/2+x,1/2-y,-z
1/2-x,1/2+y,1/2-z
1/2-x,1/2-y,-z
1/2+x,1/2+y,1/2-z
1/2-x,1/2+y,z
1/2+x,1/2-y,1/2+z
loop_
_atom_site_type_symbol
_atom_site_label
_atom_site_fract_x
_atom_site_fract_y
_atom_site_fract_z
Si Si1 0.441842 0.292635 0.133625
Si Si2 0.285687 0.242759 0.134183
Si Si3 0.852038 0.046438 0.866974
Si Si4 0.331838 0.293207 0.633851
Si Si5 0.627449 0.130030 0.479723
O O1 0.438244 0.278223 0.250000
O O2 0.500000 0.310848 0.108435
O O3 0.405032 0.395908 0.107135
O O4 0.417804 0.185548 0.080860
O O5 0.291634 0.229996 0.250000
O O6 0.308089 0.365030 0.107130
O O7 0.227052 0.229391 0.112202
O O8 0.321596 0.153498 0.081873
O O9 0.850547 0.040192 0.750000
O O10 0.844963 0.919411 0.900107
O O11 0.338495 0.285360 0.750000
O O12 0.364588 0.202247 0.577153
O O13 0.620513 0.000000 0.500000
#
# Coordination Sequence:
#
# PCOD9473821 Si02
#       5
#    16  16  16  16  16
#     4   9  19  39  64  83 103 139 185 235 286 330
#     4   9  19  35  54  76 107 150 189 222 267 324
#     4   8  16  33  55  80 105 136 184 230 266 324
#     4  10  21  35  53  78 114 152 181 222 277 326
#     4  11  23  35  52  83 115 145 187 231 270 330
#
# _framework density 18.317195999999999
#
# number of rings (size 3 to 8) (size 9 to 14) (size 15 to 20)
#    0.000    2.600    0.000    2.400    2.800    5.200 
#    0.000    2.000    0.000    1.800    0.000    0.000 
#    0.000    0.000    0.000    0.000    0.000    0.000 
#
# Total GULP energy -223309.500965 kJ/mol
# GULP energy per Si atom -5582.737524 kJ/mol
# Density = 1.827551 g / cm^3
# Si number density = 18.317196 Si / 1000 Ang^3
#
#
#
# Elastic Constant Matrix: (Units=GPa)
#
#
# Indices 1 2 3 4 5 6 
#
# 1 119.1152 83.8668 43.2553 0.0000 0.0000 0.0000
# 2 83.8668 178.9964 45.9397 0.0000 0.0000 0.0000
# 3 43.2553 45.9397 71.4256 0.0000 0.0000 0.0000
# 4 0.0000 0.0000 0.0000 31.4512 0.0000 0.0000
# 5 0.0000 0.0000 0.0000 0.0000 23.9039 0.0000
# 6 0.0000 0.0000 0.0000 0.0000 0.0000 6.1984
#
#
#
# Elastic Compliance Matrix: (Units=1/GPa)
#
#
# Indices 1 2 3 4 5 6 
#
# 1 0.013908 -0.005216 -0.005068 0.000000 0.000000 0.000000
# 2 -0.005216 0.008647 -0.002403 0.000000 0.000000 0.000000
# 3 -0.005068 -0.002403 0.018615 0.000000 0.000000 0.000000
# 4 0.000000 0.000000 0.000000 0.031795 0.000000 0.000000
# 5 0.000000 0.000000 0.000000 0.000000 0.041834 0.000000
# 6 0.000000 0.000000 0.000000 0.000000 0.000000 0.161331
#
#
# Mechanical properties :
#
#
# Convention : Reuss Voigt Hill
#
# Bulk Modulus (GPa) = 63.30343 79.51788 71.41065
# Shear Modulus (GPa) = 16.29885 25.40905 20.85395
#
# Velocity S-wave (km/s) = 2.98621 3.72851 3.37781
# Velocity P-wave (km/s) = 6.82089 7.87665 7.36770
#
# Compressibility (1/GPa) = 0.01579693
#
# Stress axis : x y z
#
# Youngs Moduli (GPa) = 71.90172 115.64408 53.71901
#
# Poissons Ratio (x) = 0.60316 0.27225
# Poissons Ratio (y) = 0.37502 0.12909
# Poissons Ratio (z) = 0.36440 0.27791
#
# Static dielectric constant tensor:
#      x y z
#    x 1.599430 0.000000 0.000000 
#    y 0.000000 1.608920 0.000000 
#    z 0.000000 0.000000 1.692230 
# 
# From -- ./inp_files/36469.got.cif
#   From: 2010.05.17/outbox.cif.g08.bks.cpg/sg63_19_cif.got.tgz:36469.got - 2010.06.03 15:47:04.
