data_PCOD9473778
_publ_section_title
;
Structure prediction by ZEFSAII (Michael W. Deem and Ramdas Pophale) SiO2 
 PCOD9473778
Probable space group: C M C M
;
_chemical_formula_sum "Si O2"
_cell_formula_units_Z 64
_cell_length_a 11.630896
_cell_length_b 17.445396
_cell_length_c 17.062668
_cell_angle_alpha 90.000000
_cell_angle_beta 90.000000
_cell_angle_gamma 90.000000
_cell_volume 3462.110659
_symmetry_space_group_name_H-M "C M C M"
_symmetry_group_IT_number 63
_symmetry_cell_setting 'orthorhombic'
loop_
_space_group_symop_operation_xyz
x,y,z
-x,-y,1/2+z
x,-y,-z
-x,y,1/2-z
-x,-y,-z
x,y,1/2-z
-x,y,z
x,-y,1/2+z
1/2+x,1/2+y,z
1/2-x,1/2-y,1/2+z
1/2+x,1/2-y,-z
1/2-x,1/2+y,1/2-z
1/2-x,1/2-y,-z
1/2+x,1/2+y,1/2-z
1/2-x,1/2+y,z
1/2+x,1/2-y,1/2+z
loop_
_atom_site_type_symbol
_atom_site_label
_atom_site_fract_x
_atom_site_fract_y
_atom_site_fract_z
Si Si1 0.261127 0.702159 0.418613
Si Si2 0.000000 0.887622 0.572788
Si Si3 0.500000 0.434856 0.388888
Si Si4 0.863878 0.415534 0.488583
Si Si5 0.233814 0.145724 0.837574
O O1 0.250000 0.750000 0.500000
O O2 0.386804 0.663667 0.409895
O O3 0.174320 0.633584 0.436577
O O4 0.227144 0.762657 0.352374
O O5 0.000000 0.907805 0.479989
O O6 0.000000 0.971940 0.613473
O O7 0.387165 0.397188 0.350721
O O8 0.814205 0.500000 0.500000
O O9 0.815783 0.383315 0.407089
O O10 0.000000 0.417362 0.484088
O O11 0.275866 0.130414 0.750000
#
# Coordination Sequence:
#
# PCOD9473778 Si02
#       5
#    16   8   8  16  16
#     4  10  21  34  61  86 119 152 194 245 286 352
#     4  11  20  38  64  94 112 155 212 251 289 337
#     4  11  21  38  66  88 120 153 204 251 293 353
#     4  10  21  38  62  87 112 154 201 239 286 349
#     4  11  24  38  58  88 122 156 190 243 308 355
#
# _framework density 18.485833
#
# number of rings (size 3 to 8) (size 9 to 14) (size 15 to 20)
#    0.000    1.500    5.000    1.875    8.750    0.500 
#    0.000    6.250    0.000    1.500    0.000    0.000 
#    0.000    0.000    0.000    0.000    0.000    0.000 
#
# Total GULP energy -178408.844660 kJ/mol
# GULP energy per Si atom -5575.276396 kJ/mol
# Density = 1.844376 g / cm^3
# Si number density = 18.485833 Si / 1000 Ang^3
#
#
#
# Elastic Constant Matrix: (Units=GPa)
#
#
# Indices 1 2 3 4 5 6 
#
# 1 87.7966 41.6895 22.5619 0.0000 0.0000 0.0000
# 2 41.6895 139.3688 32.1904 0.0000 0.0000 0.0000
# 3 22.5619 32.1904 72.7670 0.0000 0.0000 0.0000
# 4 0.0000 0.0000 0.0000 12.9205 0.0000 0.0000
# 5 0.0000 0.0000 0.0000 0.0000 0.2210 0.0000
# 6 0.0000 0.0000 0.0000 0.0000 0.0000 35.7361
#
#
#
# Elastic Compliance Matrix: (Units=1/GPa)
#
#
# Indices 1 2 3 4 5 6 
#
# 1 0.013743 -0.003483 -0.002720 0.000000 0.000000 0.000000
# 2 -0.003483 0.008874 -0.002846 0.000000 0.000000 0.000000
# 3 -0.002720 -0.002846 0.015845 0.000000 0.000000 0.000000
# 4 0.000000 0.000000 0.000000 0.077396 0.000000 0.000000
# 5 0.000000 0.000000 0.000000 0.000000 4.525879 0.000000
# 6 0.000000 0.000000 0.000000 0.000000 0.000000 0.027983
#
#
# Mechanical properties :
#
#
# Convention : Reuss Voigt Hill
#
# Bulk Modulus (GPa) = 49.10608 54.75731 51.93169
# Shear Modulus (GPa) = 1.06505 23.34155 12.20330
#
# Velocity S-wave (km/s) = 0.75987 3.55727 2.57211
# Velocity P-wave (km/s) = 5.23371 6.82332 6.08068
#
# Compressibility (1/GPa) = 0.02036408
#
# Stress axis : x y z
#
# Youngs Moduli (GPa) = 72.76584 112.68518 63.11143
#
# Poissons Ratio (x) = 0.39243 0.17169
# Poissons Ratio (y) = 0.25341 0.17961
# Poissons Ratio (z) = 0.19796 0.32070
#
# Static dielectric constant tensor:
#      x y z
#    x 1.632040 0.000000 0.000000 
#    y 0.000000 1.799890 0.000000 
#    z 0.000000 0.000000 1.603980 
# 
# From -- ./inp_files/41554.got.cif
#   From: 2010.05.17/outbox.cif.g08.bks.cpg/sg63_21_cif.got.tgz:41554.got - 2010.06.03 15:47:04.
