data_PCOD9473876
_publ_section_title
;
Structure prediction by ZEFSAII (Michael W. Deem and Ramdas Pophale) SiO2 
 PCOD9473876
Probable space group: C M C M
;
_chemical_formula_sum "Si O2"
_cell_formula_units_Z 64
_cell_length_a 16.510321
_cell_length_b 9.787060
_cell_length_c 17.143051
_cell_angle_alpha 90.000000
_cell_angle_beta 90.000000
_cell_angle_gamma 90.000000
_cell_volume 2770.102792
_symmetry_space_group_name_H-M "C M C M"
_symmetry_group_IT_number 63
_symmetry_cell_setting 'orthorhombic'
loop_
_space_group_symop_operation_xyz
x,y,z
-x,-y,1/2+z
x,-y,-z
-x,y,1/2-z
-x,-y,-z
x,y,1/2-z
-x,y,z
x,-y,1/2+z
1/2+x,1/2+y,z
1/2-x,1/2-y,1/2+z
1/2+x,1/2-y,-z
1/2-x,1/2+y,1/2-z
1/2-x,1/2-y,-z
1/2+x,1/2+y,1/2-z
1/2-x,1/2+y,z
1/2+x,1/2-y,1/2+z
loop_
_atom_site_type_symbol
_atom_site_label
_atom_site_fract_x
_atom_site_fract_y
_atom_site_fract_z
Si Si1 0.251539 0.080390 0.376881
Si Si2 0.875989 0.847535 0.505661
Si Si3 0.847207 0.174761 0.667138
Si Si4 0.586746 0.072203 0.584332
O O1 0.215595 0.124541 0.461592
O O2 0.272363 0.219573 0.333588
O O3 0.184346 0.980157 0.341430
O O4 0.333569 0.991048 0.377213
O O5 0.885323 0.792927 0.417395
O O6 0.907155 0.733656 0.565070
O O7 0.911554 0.000000 0.500000
O O8 0.890839 0.190937 0.750000
O O9 0.500000 0.044407 0.623779
O O10 0.585441 0.000000 0.500000
#
# Coordination Sequence:
#
# PCOD9473876 Si02
#       4
#    16  16  16  16
#     4  11  20  37  59  86 114 155 195 246 289 344
#     4  10  21  35  61  83 115 153 198 241 289 342
#     4  11  21  32  55  88 117 147 198 248 291 341
#     4  11  21  35  59  89 117 147 191 242 290 342
#
# _framework density 23.103835
#
# number of rings (size 3 to 8) (size 9 to 14) (size 15 to 20)
#    0.000    1.250    5.000    3.750    0.000    0.500 
#    0.000    0.000    0.000    5.250    0.000    0.000 
#    0.000    0.000    0.000    0.000    0.000    0.000 
#
# Total GULP energy -178251.751334 kJ/mol
# GULP energy per Si atom -5570.367229 kJ/mol
# Density = 2.305125 g / cm^3
# Si number density = 23.103835 Si / 1000 Ang^3
#
#
#
# Elastic Constant Matrix: (Units=GPa)
#
#
# Indices 1 2 3 4 5 6 
#
# 1 85.8169 -5.3018 13.2815 0.0000 0.0000 0.0000
# 2 -5.3018 130.0170 -5.3052 0.0000 0.0000 0.0000
# 3 13.2815 -5.3052 104.4824 0.0000 0.0000 0.0000
# 4 0.0000 0.0000 0.0000 2.9100 0.0000 0.0000
# 5 0.0000 0.0000 0.0000 0.0000 -2.0834 0.0000
# 6 0.0000 0.0000 0.0000 0.0000 0.0000 -0.5129
#
#
#
# Elastic Compliance Matrix: (Units=1/GPa)
#
#
# Indices 1 2 3 4 5 6 
#
# 1 0.011910 0.000425 -0.001492 0.000000 0.000000 0.000000
# 2 0.000425 0.007722 0.000338 0.000000 0.000000 0.000000
# 3 -0.001492 0.000338 0.009778 0.000000 0.000000 0.000000
# 4 0.000000 0.000000 0.000000 0.343644 0.000000 0.000000
# 5 0.000000 0.000000 0.000000 0.000000 -0.479986 0.000000
# 6 0.000000 0.000000 0.000000 0.000000 0.000000 -1.949795
#
#
# Mechanical properties :
#
#
# Convention : Reuss Voigt Hill
#
# Bulk Modulus (GPa) = 35.77667 36.18507 35.98087
# Shear Modulus (GPa) = -2.44385 21.23886 9.39751
#
# Velocity S-wave (km/s) = -1.02959 3.03525 2.01899
# Velocity P-wave (km/s) = 3.75571 5.28957 4.58721
#
# Compressibility (1/GPa) = 0.02795118
#
# Stress axis : x y z
#
# Youngs Moduli (GPa) = 83.96359 129.49314 102.27182
#
# Poissons Ratio (x) = -0.05500 0.15263
# Poissons Ratio (y) = -0.03566 -0.03458
# Poissons Ratio (z) = 0.12531 -0.04378
#
# Static dielectric constant tensor:
#      x y z
#    x 1.948830 0.000000 0.000000 
#    y 0.000000 1.889630 0.000000 
#    z 0.000000 0.000000 2.823820 
# 
# From -- ./inp_files/45155.got.cif
#   From: 2010.05.17/outbox.cif.g08.bks.cpg/sg63_23_cif.got.tgz:45155.got - 2010.06.03 15:47:04.
