data_PCOD9473521
_publ_section_title
;
Structure prediction by ZEFSAII (Michael W. Deem and Ramdas Pophale) SiO2 
 PCOD9473521
Probable space group: C M C M
;
_chemical_formula_sum "Si O2"
_cell_formula_units_Z 96
_cell_length_a 21.019748
_cell_length_b 8.114568
_cell_length_c 28.038331
_cell_angle_alpha 90.000000
_cell_angle_beta 90.000000
_cell_angle_gamma 90.000000
_cell_volume 4782.390858
_symmetry_space_group_name_H-M "C M C M"
_symmetry_group_IT_number 63
_symmetry_cell_setting 'orthorhombic'
loop_
_space_group_symop_operation_xyz
x,y,z
-x,-y,1/2+z
x,-y,-z
-x,y,1/2-z
-x,-y,-z
x,y,1/2-z
-x,y,z
x,-y,1/2+z
1/2+x,1/2+y,z
1/2-x,1/2-y,1/2+z
1/2+x,1/2-y,-z
1/2-x,1/2+y,1/2-z
1/2-x,1/2-y,-z
1/2+x,1/2+y,1/2-z
1/2-x,1/2+y,z
1/2+x,1/2-y,1/2+z
loop_
_atom_site_type_symbol
_atom_site_label
_atom_site_fract_x
_atom_site_fract_y
_atom_site_fract_z
Si Si1 0.427348 0.663128 0.941887
Si Si2 0.846972 0.669099 0.525234
Si Si3 0.072229 0.509500 0.610619
Si Si4 0.340213 0.934244 0.804642
Si Si5 0.813817 0.063058 0.412020
Si Si6 0.253295 0.814995 0.349519
O O1 0.500000 0.608961 0.949520
O O2 0.428183 0.819647 0.906688
O O3 0.381200 0.522187 0.921664
O O4 0.395451 0.739855 0.989220
O O5 0.823766 0.500000 0.500000
O O6 0.885741 0.607896 0.571993
O O7 0.801278 0.816640 0.543165
O O8 0.103763 0.504092 0.662428
O O9 0.000000 0.571085 0.610451
O O10 0.356890 0.905855 0.750000
O O11 0.309329 0.774071 0.829824
O O12 0.284040 0.068362 0.810344
O O13 0.804598 0.180160 0.366164
O O14 0.764877 0.919661 0.396990
#
# Coordination Sequence:
#
# PCOD9473521 Si02
#       6
#    16  16  16  16  16  16
#     4  10  21  38  61  89 118 159 206 240 288 349
#     4  10  21  37  59  89 120 160 205 241 289 346
#     4  10  20  38  62  90 124 153 191 250 302 349
#     4  11  21  40  67  89 113 152 199 248 302 364
#     4  11  21  39  62  83 123 158 196 251 290 348
#     4  10  23  40  61  88 118 155 201 246 300 354
#
# _framework density 20.073642
#
# number of rings (size 3 to 8) (size 9 to 14) (size 15 to 20)
#    0.000    1.667    3.333    1.500    0.000    4.333 
#    0.000    5.833    0.000    0.000    0.000    2.333 
#    0.000    0.000    0.000    0.000    0.000    0.000 
#
# Total GULP energy -267727.207235 kJ/mol
# GULP energy per Si atom -5577.650151 kJ/mol
# Density = 2.002795 g / cm^3
# Si number density = 20.073642 Si / 1000 Ang^3
#
#
#
# Elastic Constant Matrix: (Units=GPa)
#
#
# Indices 1 2 3 4 5 6 
#
# 1 52.6051 32.0932 50.5312 0.0000 0.0000 0.0000
# 2 32.0932 83.5489 37.0726 0.0000 0.0000 0.0000
# 3 50.5312 37.0726 117.3501 0.0000 0.0000 0.0000
# 4 0.0000 0.0000 0.0000 15.7905 0.0000 0.0000
# 5 0.0000 0.0000 0.0000 0.0000 17.6478 0.0000
# 6 0.0000 0.0000 0.0000 0.0000 0.0000 28.3222
#
#
#
# Elastic Compliance Matrix: (Units=1/GPa)
#
#
# Indices 1 2 3 4 5 6 
#
# 1 0.036731 -0.008247 -0.013211 0.000000 0.000000 0.000000
# 2 -0.008247 0.015772 -0.001431 0.000000 0.000000 0.000000
# 3 -0.013211 -0.001431 0.014662 0.000000 0.000000 0.000000
# 4 0.000000 0.000000 0.000000 0.063329 0.000000 0.000000
# 5 0.000000 0.000000 0.000000 0.000000 0.056664 0.000000
# 6 0.000000 0.000000 0.000000 0.000000 0.000000 0.035308
#
#
# Mechanical properties :
#
#
# Convention : Reuss Voigt Hill
#
# Bulk Modulus (GPa) = 46.75882 54.76645 50.76264
# Shear Modulus (GPa) = 18.15701 21.27258 19.71480
#
# Velocity S-wave (km/s) = 3.01079 3.25888 3.13728
# Velocity P-wave (km/s) = 5.95237 6.44223 6.20214
#
# Compressibility (1/GPa) = 0.02138634
#
# Stress axis : x y z
#
# Youngs Moduli (GPa) = 27.22469 63.40286 68.20140
#
# Poissons Ratio (x) = 0.52290 0.90102
# Poissons Ratio (y) = 0.22453 0.09762
# Poissons Ratio (z) = 0.35967 0.09075
#
# Static dielectric constant tensor:
#      x y z
#    x 1.711840 0.000000 0.000000 
#    y 0.000000 1.764790 0.000000 
#    z 0.000000 0.000000 1.697060 
# 
# From -- ./inp_files/70290.got.cif
#   From: 2010.05.17/outbox.cif.g08.bks.cpg/sg63_36_cif.got.tgz:70290.got - 2010.06.03 15:47:04.
