data_PCOD9473177
_publ_section_title
;
Structure prediction by ZEFSAII (Michael W. Deem and Ramdas Pophale) SiO2 
 PCOD9473177
Probable space group: C M C M
;
_chemical_formula_sum "Si O2"
_cell_formula_units_Z 80
_cell_length_a 18.079840
_cell_length_b 9.668253
_cell_length_c 24.766605
_cell_angle_alpha 90.000000
_cell_angle_beta 90.000000
_cell_angle_gamma 90.000000
_cell_volume 4329.214128
_symmetry_space_group_name_H-M "C M C M"
_symmetry_group_IT_number 63
_symmetry_cell_setting 'orthorhombic'
loop_
_space_group_symop_operation_xyz
x,y,z
-x,-y,1/2+z
x,-y,-z
-x,y,1/2-z
-x,-y,-z
x,y,1/2-z
-x,y,z
x,-y,1/2+z
1/2+x,1/2+y,z
1/2-x,1/2-y,1/2+z
1/2+x,1/2-y,-z
1/2-x,1/2+y,1/2-z
1/2-x,1/2-y,-z
1/2+x,1/2+y,1/2-z
1/2-x,1/2+y,z
1/2+x,1/2-y,1/2+z
loop_
_atom_site_type_symbol
_atom_site_label
_atom_site_fract_x
_atom_site_fract_y
_atom_site_fract_z
Si Si1 0.774902 0.629242 0.538833
Si Si2 0.414171 0.144857 0.612127
Si Si3 0.163108 0.837070 0.689176
Si Si4 0.088350 0.621795 0.312814
Si Si5 0.200426 0.146316 0.845918
O O1 0.770267 0.500000 0.500000
O O2 0.750000 0.750000 0.500000
O O3 0.857491 0.643592 0.562636
O O4 0.722724 0.625678 0.591609
O O5 0.500000 0.136268 0.597109
O O6 0.397013 0.282141 0.646790
O O7 0.395660 0.013377 0.650891
O O8 0.135409 0.824237 0.750000
O O9 0.232544 0.733804 0.680504
O O10 0.188055 0.994397 0.678500
O O11 0.110747 0.600554 0.250000
O O12 0.130195 0.754770 0.336428
O O13 0.000000 0.641978 0.313716
#
# Coordination Sequence:
#
# PCOD9473177 Si02
#       5
#    16  16  16  16  16
#     4  11  22  39  60  81 108 146 192 243 291 328
#     4  10  22  39  59  86 115 146 189 235 283 343
#     4  11  21  34  57  85 117 153 186 229 281 341
#     4  10  20  36  59  87 122 157 185 224 281 343
#     4  11  22  37  56  84 116 150 197 238 278 336
#
# _framework density 18.479104
#
# number of rings (size 3 to 8) (size 9 to 14) (size 15 to 20)
#    0.000    1.400    0.000    8.400    0.000    2.400 
#    0.000    1.000    0.000    2.400    0.000    0.000 
#    0.000    0.000    0.000    0.000    0.000    0.000 
#
# Total GULP energy -223434.997708 kJ/mol
# GULP energy per Si atom -5585.874943 kJ/mol
# Density = 1.843704 g / cm^3
# Si number density = 18.479104 Si / 1000 Ang^3
#
#
#
# Elastic Constant Matrix: (Units=GPa)
#
#
# Indices 1 2 3 4 5 6 
#
# 1 76.3014 61.3403 46.6394 0.0000 0.0000 0.0000
# 2 61.3403 135.0212 46.2687 0.0000 0.0000 0.0000
# 3 46.6394 46.2687 115.7510 0.0000 0.0000 0.0000
# 4 0.0000 0.0000 0.0000 37.7496 0.0000 0.0000
# 5 0.0000 0.0000 0.0000 0.0000 22.3855 0.0000
# 6 0.0000 0.0000 0.0000 0.0000 0.0000 25.8782
#
#
#
# Elastic Compliance Matrix: (Units=1/GPa)
#
#
# Indices 1 2 3 4 5 6 
#
# 1 0.023887 -0.008753 -0.006126 0.000000 0.000000 0.000000
# 2 -0.008753 0.011789 -0.001186 0.000000 0.000000 0.000000
# 3 -0.006126 -0.001186 0.011582 0.000000 0.000000 0.000000
# 4 0.000000 0.000000 0.000000 0.026490 0.000000 0.000000
# 5 0.000000 0.000000 0.000000 0.000000 0.044672 0.000000
# 6 0.000000 0.000000 0.000000 0.000000 0.000000 0.038642
#
#
# Mechanical properties :
#
#
# Convention : Reuss Voigt Hill
#
# Bulk Modulus (GPa) = 66.09967 70.61894 68.35931
# Shear Modulus (GPa) = 25.74221 28.72433 27.23327
#
# Velocity S-wave (km/s) = 3.73640 3.94689 3.84309
# Velocity P-wave (km/s) = 7.37983 7.68565 7.53429
#
# Compressibility (1/GPa) = 0.01512867
#
# Stress axis : x y z
#
# Youngs Moduli (GPa) = 41.86396 84.82595 86.34422
#
# Poissons Ratio (x) = 0.74245 0.52895
# Poissons Ratio (y) = 0.36642 0.10237
# Poissons Ratio (z) = 0.25646 0.10057
#
# Static dielectric constant tensor:
#      x y z
#    x 1.655490 0.000000 0.000000 
#    y 0.000000 1.610610 0.000000 
#    z 0.000000 0.000000 1.628320 
# 
# From -- ./inp_files/69724.got.cif
#   From: 2010.05.17/outbox.cif.g08.bks.cpg/sg63_35_cif.got.tgz:69724.got - 2010.06.03 15:47:04.
