data_PCOD9473170
_publ_section_title
;
Structure prediction by ZEFSAII (Michael W. Deem and Ramdas Pophale) SiO2 
 PCOD9473170
Probable space group: C M C M
;
_chemical_formula_sum "Si O2"
_cell_formula_units_Z 64
_cell_length_a 13.956906
_cell_length_b 12.234986
_cell_length_c 14.891862
_cell_angle_alpha 90.000000
_cell_angle_beta 90.000000
_cell_angle_gamma 90.000000
_cell_volume 2542.972322
_symmetry_space_group_name_H-M "C M C M"
_symmetry_group_IT_number 63
_symmetry_cell_setting 'orthorhombic'
loop_
_space_group_symop_operation_xyz
x,y,z
-x,-y,1/2+z
x,-y,-z
-x,y,1/2-z
-x,-y,-z
x,y,1/2-z
-x,y,z
x,-y,1/2+z
1/2+x,1/2+y,z
1/2-x,1/2-y,1/2+z
1/2+x,1/2-y,-z
1/2-x,1/2+y,1/2-z
1/2-x,1/2-y,-z
1/2+x,1/2+y,1/2-z
1/2-x,1/2+y,z
1/2+x,1/2-y,1/2+z
loop_
_atom_site_type_symbol
_atom_site_label
_atom_site_fract_x
_atom_site_fract_y
_atom_site_fract_z
Si Si1 0.139645 0.838982 0.155618
Si Si2 0.896253 0.632130 0.051249
Si Si3 0.865619 0.696609 0.647114
Si Si4 0.178596 0.061440 0.094496
O O1 0.105233 0.792139 0.250000
O O2 0.104628 0.760654 0.077502
O O3 0.253555 0.827949 0.151704
O O4 0.129416 0.968255 0.154166
O O5 0.795468 0.585854 0.092506
O O6 0.000000 0.589423 0.083406
O O7 0.895865 0.630093 0.942322
O O8 0.900441 0.677495 0.750000
O O9 0.870178 0.824425 0.620059
O O10 0.163789 0.000000 0.000000
#
# Coordination Sequence:
#
# PCOD9473170 Si02
#       4
#    16  16  16  16
#     4  10  20  38  62  85 117 161 206 249 293 355
#     4  11  23  38  60  93 129 157 192 251 311 360
#     4  10  20  36  59  86 119 164 209 245 288 358
#     4  11  18  37  64  88 114 154 213 245 289 356
#
# _framework density 25.167400000000001
#
# number of rings (size 3 to 8) (size 9 to 14) (size 15 to 20)
#    0.000    1.500    5.000    2.250    0.000    2.500 
#    0.000    2.500    0.000    3.000    0.000    0.000 
#    0.000    0.000    0.000    0.000    0.000    0.000 
#
# Total GULP energy -178167.778683 kJ/mol
# GULP energy per Si atom -5567.743084 kJ/mol
# Density = 2.511012 g / cm^3
# Si number density = 25.167400 Si / 1000 Ang^3
#
#
#
# Elastic Constant Matrix: (Units=GPa)
#
#
# Indices 1 2 3 4 5 6 
#
# 1 108.7292 -17.1570 24.9901 0.0000 0.0000 0.0000
# 2 -17.1570 77.5453 -45.5927 0.0000 0.0000 0.0000
# 3 24.9901 -45.5927 87.1485 0.0000 0.0000 0.0000
# 4 0.0000 0.0000 0.0000 13.4075 0.0000 0.0000
# 5 0.0000 0.0000 0.0000 0.0000 -40.2032 0.0000
# 6 0.0000 0.0000 0.0000 0.0000 0.0000 -0.5688
#
#
#
# Elastic Compliance Matrix: (Units=1/GPa)
#
#
# Indices 1 2 3 4 5 6 
#
# 1 0.009876 0.000751 -0.002439 0.000000 0.000000 0.000000
# 2 0.000751 0.018682 0.009558 0.000000 0.000000 0.000000
# 3 -0.002439 0.009558 0.017175 0.000000 0.000000 0.000000
# 4 0.000000 0.000000 0.000000 0.074585 0.000000 0.000000
# 5 0.000000 0.000000 0.000000 0.000000 -0.024874 0.000000
# 6 0.000000 0.000000 0.000000 0.000000 0.000000 -1.758167
#
#
# Mechanical properties :
#
#
# Convention : Reuss Voigt Hill
#
# Bulk Modulus (GPa) = 16.26748 21.98930 19.12839
# Shear Modulus (GPa) = -3.01573 15.27262 6.12845
#
# Velocity S-wave (km/s) = -1.09584 2.46609 1.56216
# Velocity P-wave (km/s) = 2.20830 4.10670 3.29709
#
# Compressibility (1/GPa) = 0.06147234
#
# Stress axis : x y z
#
# Youngs Moduli (GPa) = 101.25270 53.52881 58.22584
#
# Poissons Ratio (x) = -0.04020 0.14202
# Poissons Ratio (y) = -0.07605 -0.55653
# Poissons Ratio (z) = 0.24697 -0.51163
#
# Static dielectric constant tensor:
#      x y z
#    x 2.017760 0.000000 0.000000 
#    y 0.000000 2.037030 0.000000 
#    z 0.000000 0.000000 2.524460 
# 
# From -- ./inp_files/31114.got.cif
#   From: 2010.05.17/outbox.cif.g08.bks.cpg/sg63_16_cif.got.tgz:31114.got - 2010.06.03 15:47:04.
