data_PCOD9473325
_publ_section_title
;
Structure prediction by ZEFSAII (Michael W. Deem and Ramdas Pophale) SiO2 
 PCOD9473325
Probable space group: C M C M
;
_chemical_formula_sum "Si O2"
_cell_formula_units_Z 96
_cell_length_a 18.871409
_cell_length_b 9.823473
_cell_length_c 29.611408
_cell_angle_alpha 90.000000
_cell_angle_beta 90.000000
_cell_angle_gamma 90.000000
_cell_volume 5489.445040
_symmetry_space_group_name_H-M "C M C M"
_symmetry_group_IT_number 63
_symmetry_cell_setting 'orthorhombic'
loop_
_space_group_symop_operation_xyz
x,y,z
-x,-y,1/2+z
x,-y,-z
-x,y,1/2-z
-x,-y,-z
x,y,1/2-z
-x,y,z
x,-y,1/2+z
1/2+x,1/2+y,z
1/2-x,1/2-y,1/2+z
1/2+x,1/2-y,-z
1/2-x,1/2+y,1/2-z
1/2-x,1/2-y,-z
1/2+x,1/2+y,1/2-z
1/2-x,1/2+y,z
1/2+x,1/2-y,1/2+z
loop_
_atom_site_type_symbol
_atom_site_label
_atom_site_fract_x
_atom_site_fract_y
_atom_site_fract_z
Si Si1 0.816730 0.990242 0.618490
Si Si2 0.674918 0.184459 0.113305
Si Si3 0.580369 0.391272 0.540121
Si Si4 0.581352 0.817281 0.800514
Si Si5 0.416271 0.147232 0.022469
Si Si6 0.080083 0.986987 0.801498
O O1 0.744348 0.908495 0.612540
O O2 0.869110 0.947712 0.578316
O O3 0.858238 0.948357 0.664192
O O4 0.807327 0.154156 0.617506
O O5 0.629527 0.142683 0.157480
O O6 0.628642 0.164127 0.067960
O O7 0.577393 0.500000 0.500000
O O8 0.500000 0.370760 0.557337
O O9 0.606194 0.254355 0.515925
O O10 0.605394 0.858846 0.750000
O O11 0.500000 0.863186 0.806455
O O12 0.579713 0.652149 0.800924
O O13 0.500000 0.173597 0.032370
O O14 0.409684 0.000000 0.000000
O O15 0.091946 0.941001 0.750000
O O16 0.000000 0.945109 0.815347
#
# Coordination Sequence:
#
# PCOD9473325 Si02
#       6
#    16  16  16  16  16  16
#     4  11  23  35  53  81 112 146 179 218 270 322
#     4  11  23  36  53  80 114 146 178 219 268 322
#     4  10  20  37  59  80 102 136 184 227 263 310
#     4   8  15  31  57  83 104 134 180 227 266 311
#     4  10  22  39  59  81 105 139 181 227 274 316
#     4   8  15  31  56  82 105 134 179 228 266 309
#
# _framework density 17.488108
#
# number of rings (size 3 to 8) (size 9 to 14) (size 15 to 20)
#    0.000    2.333    1.667    2.000    2.333    3.333 
#    0.000    0.000    0.000    0.000    0.000    2.333 
#    0.000    0.000    0.000    0.000    0.000    0.000 
#
# Total GULP energy -267599.128527 kJ/mol
# GULP energy per Si atom -5574.981844 kJ/mol
# Density = 1.744830 g / cm^3
# Si number density = 17.488108 Si / 1000 Ang^3
#
#
#
# Elastic Constant Matrix: (Units=GPa)
#
#
# Indices 1 2 3 4 5 6 
#
# 1 94.2018 23.9552 66.0340 0.0000 0.0000 0.0000
# 2 23.9552 56.4031 24.2555 0.0000 0.0000 0.0000
# 3 66.0340 24.2555 99.5380 0.0000 0.0000 0.0000
# 4 0.0000 0.0000 0.0000 14.5727 0.0000 0.0000
# 5 0.0000 0.0000 0.0000 0.0000 -1.8529 0.0000
# 6 0.0000 0.0000 0.0000 0.0000 0.0000 25.3028
#
#
#
# Elastic Compliance Matrix: (Units=1/GPa)
#
#
# Indices 1 2 3 4 5 6 
#
# 1 0.020338 -0.003168 -0.012720 0.000000 0.000000 0.000000
# 2 -0.003168 0.020298 -0.002845 0.000000 0.000000 0.000000
# 3 -0.012720 -0.002845 0.019178 0.000000 0.000000 0.000000
# 4 0.000000 0.000000 0.000000 0.068621 0.000000 0.000000
# 5 0.000000 0.000000 0.000000 0.000000 -0.539705 0.000000
# 6 0.000000 0.000000 0.000000 0.000000 0.000000 0.039521
#
#
# Mechanical properties :
#
#
# Convention : Reuss Voigt Hill
#
# Bulk Modulus (GPa) = 44.74504 53.18137 48.96321
# Shear Modulus (GPa) = -15.29831 16.66442 0.68306
#
# Velocity S-wave (km/s) = -2.96088 3.09026 0.62565
# Velocity P-wave (km/s) = 3.73529 6.57335 5.34609
#
# Compressibility (1/GPa) = 0.02234884
#
# Stress axis : x y z
#
# Youngs Moduli (GPa) = 49.16980 49.26539 52.14214
#
# Poissons Ratio (x) = 0.15605 0.66326
# Poissons Ratio (y) = 0.15575 0.14834
# Poissons Ratio (z) = 0.62545 0.14016
#
# Static dielectric constant tensor:
#      x y z
#    x 1.592370 0.000000 0.000000 
#    y 0.000000 1.673010 0.000000 
#    z 0.000000 0.000000 1.596980 
# 
# From -- ./inp_files/69903.got.cif
#   From: 2010.05.17/outbox.cif.g08.bks.cpg/sg63_35_cif.got.tgz:69903.got - 2010.06.03 15:47:04.
