data_PCOD9473881
_publ_section_title
;
Structure prediction by ZEFSAII (Michael W. Deem and Ramdas Pophale) SiO2 
 PCOD9473881
Probable space group: C M C M
;
_chemical_formula_sum "Si O2"
_cell_formula_units_Z 96
_cell_length_a 7.431174
_cell_length_b 31.290384
_cell_length_c 19.694223
_cell_angle_alpha 90.000000
_cell_angle_beta 90.000000
_cell_angle_gamma 90.000000
_cell_volume 4579.385181
_symmetry_space_group_name_H-M "C M C M"
_symmetry_group_IT_number 63
_symmetry_cell_setting 'orthorhombic'
loop_
_space_group_symop_operation_xyz
x,y,z
-x,-y,1/2+z
x,-y,-z
-x,y,1/2-z
-x,-y,-z
x,y,1/2-z
-x,y,z
x,-y,1/2+z
1/2+x,1/2+y,z
1/2-x,1/2-y,1/2+z
1/2+x,1/2-y,-z
1/2-x,1/2+y,1/2-z
1/2-x,1/2-y,-z
1/2+x,1/2+y,1/2-z
1/2-x,1/2+y,z
1/2+x,1/2-y,1/2+z
loop_
_atom_site_type_symbol
_atom_site_label
_atom_site_fract_x
_atom_site_fract_y
_atom_site_fract_z
Si Si1 0.719884 0.937299 0.672169
Si Si2 0.280565 0.014100 0.924391
Si Si3 0.211600 0.685136 0.826202
Si Si4 0.286953 0.235991 0.422593
Si Si5 0.779922 0.388890 0.424894
Si Si6 0.280104 0.860236 0.576084
O O1 0.778502 0.937544 0.750000
O O2 0.500000 0.937383 0.672089
O O3 0.776491 0.895042 0.631308
O O4 0.777339 0.979140 0.630397
O O5 0.500000 0.013903 0.924393
O O6 0.223739 0.062608 0.910521
O O7 0.225189 0.000000 0.000000
O O8 0.286043 0.689042 0.750000
O O9 0.224679 0.728323 0.869879
O O10 0.285367 0.645916 0.870767
O O11 0.000000 0.676237 0.819630
O O12 0.500000 0.233956 0.414965
O O13 0.250000 0.250000 0.500000
O O14 0.216934 0.188031 0.411096
O O15 0.725855 0.375105 0.500756
O O16 0.000000 0.388398 0.424811
O O17 0.500000 0.859855 0.576295
#
# Coordination Sequence:
#
# PCOD9473881 Si02
#       6
#    16  16  16  16  16  16
#     4   9  16  24  35  58  92 124 156 199 248 297
#     4   9  14  21  37  59  86 124 164 197 237 298
#     4  10  21  36  52  73 104 138 173 216 261 304
#     4  11  21  34  55  78 102 134 176 216 257 310
#     4   9  15  26  44  64  90 127 168 200 242 300
#     4   9  16  27  44  64  89 125 163 201 246 304
#
# _framework density 20.963512999999999
#
# number of rings (size 3 to 8) (size 9 to 14) (size 15 to 20)
#    0.000    2.500    3.333    0.500    0.000    1.667 
#    0.000    5.000    0.000    0.000    0.000    0.000 
#    0.000    7.333    0.000    2.000    0.000    1.333 
#
# Total GULP energy -268087.187788 kJ/mol
# GULP energy per Si atom -5585.149746 kJ/mol
# Density = 2.091580 g / cm^3
# Si number density = 20.963513 Si / 1000 Ang^3
#
#
#
# Elastic Constant Matrix: (Units=GPa)
#
#
# Indices 1 2 3 4 5 6 
#
# 1 64.6195 1.1232 3.4861 0.0000 0.0000 0.0000
# 2 1.1232 251.0943 142.9261 0.0000 0.0000 0.0000
# 3 3.4861 142.9261 225.4714 0.0000 0.0000 0.0000
# 4 0.0000 0.0000 0.0000 31.7326 0.0000 0.0000
# 5 0.0000 0.0000 0.0000 0.0000 -1.4329 0.0000
# 6 0.0000 0.0000 0.0000 0.0000 0.0000 8.8013
#
#
#
# Elastic Compliance Matrix: (Units=1/GPa)
#
#
# Indices 1 2 3 4 5 6 
#
# 1 0.015490 0.000105 -0.000306 0.000000 0.000000 0.000000
# 2 0.000105 0.006231 -0.003952 0.000000 0.000000 0.000000
# 3 -0.000306 -0.003952 0.006945 0.000000 0.000000 0.000000
# 4 0.000000 0.000000 0.000000 0.031513 0.000000 0.000000
# 5 0.000000 0.000000 0.000000 0.000000 -0.697879 0.000000
# 6 0.000000 0.000000 0.000000 0.000000 0.000000 0.113620
#
#
# Mechanical properties :
#
#
# Convention : Reuss Voigt Hill
#
# Bulk Modulus (GPa) = 49.11454 92.91733 71.01594
# Shear Modulus (GPa) = -9.82344 34.06351 12.12004
#
# Velocity S-wave (km/s) = -2.16706 4.03537 2.40708
# Velocity P-wave (km/s) = 4.14945 8.13215 6.45561
#
# Compressibility (1/GPa) = 0.02036057
#
# Stress axis : x y z
#
# Youngs Moduli (GPa) = 64.55820 160.47536 143.99064
#
# Poissons Ratio (x) = -0.01683 0.04406
# Poissons Ratio (y) = -0.00677 0.56902
# Poissons Ratio (z) = 0.01975 0.63416
#
# Static dielectric constant tensor:
#      x y z
#    x 1.885620 0.000000 0.000000 
#    y 0.000000 1.724310 0.000000 
#    z 0.000000 0.000000 1.697450 
# 
# From -- ./inp_files/53272.got.cif
#   From: 2010.05.17/outbox.cif.g08.bks.cpg/sg63_27_cif.got.tgz:53272.got - 2010.06.03 15:47:04.
