data_PCOD9473619
_publ_section_title
;
Structure prediction by ZEFSAII (Michael W. Deem and Ramdas Pophale) SiO2 
 PCOD9473619
Probable space group: C M C M
;
_chemical_formula_sum "Si O2"
_cell_formula_units_Z 96
_cell_length_a 15.135385
_cell_length_b 21.325980
_cell_length_c 14.624542
_cell_angle_alpha 90.000000
_cell_angle_beta 90.000000
_cell_angle_gamma 90.000000
_cell_volume 4720.464591
_symmetry_space_group_name_H-M "C M C M"
_symmetry_group_IT_number 63
_symmetry_cell_setting 'orthorhombic'
loop_
_space_group_symop_operation_xyz
x,y,z
-x,-y,1/2+z
x,-y,-z
-x,y,1/2-z
-x,-y,-z
x,y,1/2-z
-x,y,z
x,-y,1/2+z
1/2+x,1/2+y,z
1/2-x,1/2-y,1/2+z
1/2+x,1/2-y,-z
1/2-x,1/2+y,1/2-z
1/2-x,1/2-y,-z
1/2+x,1/2+y,1/2-z
1/2-x,1/2+y,z
1/2+x,1/2-y,1/2+z
loop_
_atom_site_type_symbol
_atom_site_label
_atom_site_fract_x
_atom_site_fract_y
_atom_site_fract_z
Si Si1 0.895935 0.425491 0.985775
Si Si2 0.838659 0.216984 0.467751
Si Si3 0.602980 0.508390 0.609191
Si Si4 0.895086 0.150474 0.650687
Si Si5 0.896296 0.665127 0.646603
Si Si6 0.735528 0.397059 0.853754
O O1 0.827861 0.408486 0.905772
O O2 0.000000 0.408888 0.968352
O O3 0.892315 0.500000 0.000000
O O4 0.863403 0.388202 0.076393
O O5 0.750000 0.250000 0.500000
O O6 0.879110 0.193629 0.563155
O O7 0.886697 0.268608 0.405372
O O8 0.817324 0.156601 0.407285
O O9 0.602433 0.500000 0.500000
O O10 0.500000 0.499399 0.639632
O O11 0.633689 0.578766 0.632803
O O12 0.672608 0.458062 0.645358
O O13 0.860560 0.172602 0.750000
O O14 0.000000 0.146195 0.657406
O O15 0.858683 0.665394 0.750000
O O16 0.000000 0.652086 0.655601
O O17 0.752414 0.377840 0.750000
#
# Coordination Sequence:
#
# PCOD9473619 Si02
#       6
#    16  16  16  16  16  16
#     4  10  23  45  69  94 125 164 217 275 326 378
#     4  12  24  41  60  90 132 170 211 261 312 380
#     4  10  20  39  66  96 134 171 209 264 326 390
#     4  10  22  41  66  94 125 168 216 261 322 393
#     4  10  22  43  69  93 122 165 214 264 322 386
#     4  12  25  40  63  97 132 170 215 262 324 386
#
# _framework density 20.336981999999999
#
# number of rings (size 3 to 8) (size 9 to 14) (size 15 to 20)
#    0.000    1.333    3.333    2.000    0.000    4.000 
#    0.000    1.667    0.000    0.000    0.000    0.000 
#    0.000    0.000    0.000    0.000    0.000    0.000 
#
# Total GULP energy -267978.555631 kJ/mol
# GULP energy per Si atom -5582.886576 kJ/mol
# Density = 2.029069 g / cm^3
# Si number density = 20.336982 Si / 1000 Ang^3
#
#
#
# Elastic Constant Matrix: (Units=GPa)
#
#
# Indices 1 2 3 4 5 6 
#
# 1 55.5976 15.6003 35.8252 0.0000 0.0000 0.0000
# 2 15.6003 93.6855 51.7299 0.0000 0.0000 0.0000
# 3 35.8252 51.7299 189.9546 0.0000 0.0000 0.0000
# 4 0.0000 0.0000 0.0000 13.6944 0.0000 0.0000
# 5 0.0000 0.0000 0.0000 0.0000 -4.8924 0.0000
# 6 0.0000 0.0000 0.0000 0.0000 0.0000 23.3740
#
#
#
# Elastic Compliance Matrix: (Units=1/GPa)
#
#
# Indices 1 2 3 4 5 6 
#
# 1 0.020656 -0.001517 -0.003483 0.000000 0.000000 0.000000
# 2 -0.001517 0.012674 -0.003166 0.000000 0.000000 0.000000
# 3 -0.003483 -0.003166 0.006783 0.000000 0.000000 0.000000
# 4 0.000000 0.000000 0.000000 0.073022 0.000000 0.000000
# 5 0.000000 0.000000 0.000000 0.000000 -0.204398 0.000000
# 6 0.000000 0.000000 0.000000 0.000000 0.000000 0.042783
#
#
# Mechanical properties :
#
#
# Convention : Reuss Voigt Hill
#
# Bulk Modulus (GPa) = 42.04487 60.61653 51.33070
# Shear Modulus (GPa) = -206.43245 22.17402 -92.12922
#
# Velocity S-wave (km/s) = -10.08595 3.30560 -6.73793
# Velocity P-wave (km/s) = 10.71989 6.66634 5.93616
#
# Compressibility (1/GPa) = 0.02378411
#
# Stress axis : x y z
#
# Youngs Moduli (GPa) = 48.41198 78.89870 147.42027
#
# Poissons Ratio (x) = 0.11966 0.51342
# Poissons Ratio (y) = 0.07342 0.46667
# Poissons Ratio (z) = 0.16860 0.24976
#
# Static dielectric constant tensor:
#      x y z
#    x 1.727880 0.000000 0.000000 
#    y 0.000000 1.803760 0.000000 
#    z 0.000000 0.000000 1.705870 
# 
# From -- ./inp_files/31849.got.cif
#   From: 2010.05.17/outbox.cif.g08.bks.cpg/sg63_16_cif.got.tgz:31849.got - 2010.06.03 15:47:04.
