data_PCOD9473114
_publ_section_title
;
Structure prediction by ZEFSAII (Michael W. Deem and Ramdas Pophale) SiO2 
 PCOD9473114
Probable space group: C M C M
;
_chemical_formula_sum "Si O2"
_cell_formula_units_Z 112
_cell_length_a 13.455546
_cell_length_b 13.033822
_cell_length_c 29.586769
_cell_angle_alpha 90.000000
_cell_angle_beta 90.000000
_cell_angle_gamma 90.000000
_cell_volume 5188.844452
_symmetry_space_group_name_H-M "C M C M"
_symmetry_group_IT_number 63
_symmetry_cell_setting 'orthorhombic'
loop_
_space_group_symop_operation_xyz
x,y,z
-x,-y,1/2+z
x,-y,-z
-x,y,1/2-z
-x,-y,-z
x,y,1/2-z
-x,y,z
x,-y,1/2+z
1/2+x,1/2+y,z
1/2-x,1/2-y,1/2+z
1/2+x,1/2-y,-z
1/2-x,1/2+y,1/2-z
1/2-x,1/2-y,-z
1/2+x,1/2+y,1/2-z
1/2-x,1/2+y,z
1/2+x,1/2-y,1/2+z
loop_
_atom_site_type_symbol
_atom_site_label
_atom_site_fract_x
_atom_site_fract_y
_atom_site_fract_z
Si Si1 0.806857 0.507379 0.697391
Si Si2 0.817453 0.708476 0.653175
Si Si3 0.613645 0.738653 0.991792
Si Si4 0.392906 0.439733 0.649980
Si Si5 0.712099 0.125484 0.555087
Si Si6 0.613094 0.215538 0.304315
Si Si7 0.147522 0.952347 0.952497
O O1 0.783072 0.504269 0.750000
O O2 0.853813 0.616619 0.685195
O O3 0.702948 0.494314 0.670811
O O4 0.872807 0.406864 0.687592
O O5 0.872696 0.817514 0.655107
O O6 0.825904 0.660518 0.603298
O O7 0.702918 0.732020 0.668190
O O8 0.500000 0.731873 0.978493
O O9 0.642785 0.847471 0.012653
O O10 0.637364 0.666023 0.035169
O O11 0.687209 0.692555 0.954540
O O12 0.500000 0.466191 0.670563
O O13 0.397160 0.466593 0.596736
O O14 0.746653 0.007885 0.553369
O O15 0.626865 0.233055 0.250000
O O16 0.500000 0.246111 0.316208
O O17 0.107470 0.000000 0.000000
#
# Coordination Sequence:
#
# PCOD9473114 Si02
#       7
#    16  16  16  16  16  16  16
#     4  10  22  41  61  83 115 153 191 238 294 348
#     4  11  21  37  59  85 118 149 188 239 293 343
#     4  10  21  38  59  83 115 155 196 239 287 340
#     4  11  23  38  60  91 122 153 195 244 293 347
#     4  10  21  35  57  86 118 150 192 240 286 342
#     4   9  20  39  60  81 108 145 187 229 280 347
#     4  10  20  36  58  84 117 154 195 237 288 341
#
# _framework density 21.584768
#
# number of rings (size 3 to 8) (size 9 to 14) (size 15 to 20)
#    0.000    1.857    2.857    0.857    0.000    7.714 
#    0.000    0.000    0.000   10.714    0.000    0.000 
#    0.000    0.000    0.000    0.000    0.000    0.000 
#
# Total GULP energy -312195.003350 kJ/mol
# GULP energy per Si atom -5574.910774 kJ/mol
# Density = 2.153564 g / cm^3
# Si number density = 21.584768 Si / 1000 Ang^3
#
#
#
# Elastic Constant Matrix: (Units=GPa)
#
#
# Indices 1 2 3 4 5 6 
#
# 1 53.1639 -9.8521 -2.6144 0.0000 0.0000 0.0000
# 2 -9.8521 61.0802 5.1784 0.0000 0.0000 0.0000
# 3 -2.6144 5.1784 56.3276 0.0000 0.0000 0.0000
# 4 0.0000 0.0000 0.0000 24.9179 0.0000 0.0000
# 5 0.0000 0.0000 0.0000 0.0000 2.8443 0.0000
# 6 0.0000 0.0000 0.0000 0.0000 0.0000 2.6699
#
#
#
# Elastic Compliance Matrix: (Units=1/GPa)
#
#
# Indices 1 2 3 4 5 6 
#
# 1 0.019411 0.003079 0.000618 0.000000 0.000000 0.000000
# 2 0.003079 0.016989 -0.001419 0.000000 0.000000 0.000000
# 3 0.000618 -0.001419 0.017912 0.000000 0.000000 0.000000
# 4 0.000000 0.000000 0.000000 0.040132 0.000000 0.000000
# 5 0.000000 0.000000 0.000000 0.000000 0.351582 0.000000
# 6 0.000000 0.000000 0.000000 0.000000 0.000000 0.374550
#
#
# Mechanical properties :
#
#
# Convention : Reuss Voigt Hill
#
# Bulk Modulus (GPa) = 16.98750 17.33282 17.16016
# Shear Modulus (GPa) = 5.98342 17.94374 11.96358
#
# Velocity S-wave (km/s) = 1.66676 2.88638 2.35683
# Velocity P-wave (km/s) = 3.40460 4.37674 3.92091
#
# Compressibility (1/GPa) = 0.05886681
#
# Stress axis : x y z
#
# Youngs Moduli (GPa) = 51.51812 58.86241 55.82721
#
# Poissons Ratio (x) = -0.18121 -0.03450
# Poissons Ratio (y) = -0.15860 0.07922
# Poissons Ratio (z) = -0.03183 0.08352
#
# Static dielectric constant tensor:
#      x y z
#    x 1.806590 0.000000 0.000000 
#    y 0.000000 1.880360 0.000000 
#    z 0.000000 0.000000 1.758970 
# 
# From -- ./inp_files/73446.got.cif
#   From: 2010.05.17/outbox.cif.g08.bks.cpg/sg63_37_cif.got.tgz:73446.got - 2010.06.03 15:47:04.
