data_PCOD9473431
_publ_section_title
;
Structure prediction by ZEFSAII (Michael W. Deem and Ramdas Pophale) SiO2 
 PCOD9473431
Probable space group: C M C M
;
_chemical_formula_sum "Si O2"
_cell_formula_units_Z 56
_cell_length_a 7.902936
_cell_length_b 36.787184
_cell_length_c 10.439767
_cell_angle_alpha 90.000000
_cell_angle_beta 90.000000
_cell_angle_gamma 90.000000
_cell_volume 3035.119643
_symmetry_space_group_name_H-M "C M C M"
_symmetry_group_IT_number 63
_symmetry_cell_setting 'orthorhombic'
loop_
_space_group_symop_operation_xyz
x,y,z
-x,-y,1/2+z
x,-y,-z
-x,y,1/2-z
-x,-y,-z
x,y,1/2-z
-x,y,z
x,-y,1/2+z
1/2+x,1/2+y,z
1/2-x,1/2-y,1/2+z
1/2+x,1/2-y,-z
1/2-x,1/2+y,1/2-z
1/2-x,1/2-y,-z
1/2+x,1/2+y,1/2-z
1/2-x,1/2+y,z
1/2+x,1/2-y,1/2+z
loop_
_atom_site_type_symbol
_atom_site_label
_atom_site_fract_x
_atom_site_fract_y
_atom_site_fract_z
Si Si1 0.700688 0.664015 0.990735
Si Si2 0.000000 0.033526 0.597270
Si Si3 0.293469 0.712113 0.750000
Si Si4 0.689801 0.912388 0.099202
Si Si5 0.296416 0.204310 0.250000
O O1 0.500000 0.658464 0.973418
O O2 0.734661 0.683618 0.124110
O O3 0.761140 0.690195 0.875878
O O4 0.784461 0.624617 0.978869
O O5 0.834809 0.058360 0.572700
O O6 0.000000 0.023654 0.750000
O O7 0.000000 0.000000 0.500000
O O8 0.500000 0.712749 0.750000
O O9 0.236463 0.753822 0.750000
O O10 0.707414 0.902480 0.250000
O O11 0.500000 0.926690 0.079128
O O12 0.500000 0.204460 0.250000
#
# Coordination Sequence:
#
# PCOD9473431 Si02
#       5
#    16   8   8  16   8
#     4  11  20  37  60  84 115 161 209 255 305 364
#     4  10  22  42  66  94 126 156 196 248 302 364
#     4   9  20  35  59  81 113 157 210 261 308 365
#     4  10  20  37  64  93 119 160 207 243 292 363
#     4  11  23  37  49  83 125 160 201 261 319 362
#
# _framework density 18.450672000000001
#
# number of rings (size 3 to 8) (size 9 to 14) (size 15 to 20)
#    0.000    1.714    2.857    2.143    0.000    0.571 
#    2.571    4.286    0.000    0.000    0.000    0.000 
#    0.000    0.000    0.000    0.000    0.000    0.000 
#
# Total GULP energy -156416.764284 kJ/mol
# GULP energy per Si atom -5586.313010 kJ/mol
# Density = 1.840868 g / cm^3
# Si number density = 18.450672 Si / 1000 Ang^3
#
#
#
# Elastic Constant Matrix: (Units=GPa)
#
#
# Indices 1 2 3 4 5 6 
#
# 1 96.7697 49.5968 25.4629 0.0000 0.0000 0.0000
# 2 49.5968 140.6277 75.7342 0.0000 0.0000 0.0000
# 3 25.4629 75.7342 124.9992 0.0000 0.0000 0.0000
# 4 0.0000 0.0000 0.0000 39.7151 0.0000 0.0000
# 5 0.0000 0.0000 0.0000 0.0000 10.5061 0.0000
# 6 0.0000 0.0000 0.0000 0.0000 0.0000 18.8951
#
#
#
# Elastic Compliance Matrix: (Units=1/GPa)
#
#
# Indices 1 2 3 4 5 6 
#
# 1 0.012617 -0.004550 0.000187 0.000000 0.000000 0.000000
# 2 -0.004550 0.012196 -0.006462 0.000000 0.000000 0.000000
# 3 0.000187 -0.006462 0.011877 0.000000 0.000000 0.000000
# 4 0.000000 0.000000 0.000000 0.025179 0.000000 0.000000
# 5 0.000000 0.000000 0.000000 0.000000 0.095182 0.000000
# 6 0.000000 0.000000 0.000000 0.000000 0.000000 0.052924
#
#
# Mechanical properties :
#
#
# Convention : Reuss Voigt Hill
#
# Bulk Modulus (GPa) = 66.49596 73.77605 70.13601
# Shear Modulus (GPa) = 21.12909 27.93011 24.52960
#
# Velocity S-wave (km/s) = 3.38770 3.89494 3.65014
# Velocity P-wave (km/s) = 7.17078 7.76530 7.47395
#
# Compressibility (1/GPa) = 0.01503851
#
# Stress axis : x y z
#
# Youngs Moduli (GPa) = 79.25936 81.99357 84.19346
#
# Poissons Ratio (x) = 0.37310 -0.01573
# Poissons Ratio (y) = 0.36066 0.54409
# Poissons Ratio (z) = -0.01481 0.52988
#
# Static dielectric constant tensor:
#      x y z
#    x 1.660080 0.000000 0.000000 
#    y 0.000000 1.599300 0.000000 
#    z 0.000000 0.000000 1.607200 
# 
# From -- ./inp_files/16138.got.cif
#   From: 2010.05.17/outbox.cif.g08.bks.cpg/sg63_9_cif.got.tgz:16138.got - 2010.06.03 15:47:04.
