data_PCOD9473087
_publ_section_title
;
Structure prediction by ZEFSAII (Michael W. Deem and Ramdas Pophale) SiO2 
 PCOD9473087
Probable space group: C M C M
;
_chemical_formula_sum "Si O2"
_cell_formula_units_Z 64
_cell_length_a 12.993038
_cell_length_b 6.873693
_cell_length_c 25.199236
_cell_angle_alpha 90.000000
_cell_angle_beta 90.000000
_cell_angle_gamma 90.000000
_cell_volume 2250.547657
_symmetry_space_group_name_H-M "C M C M"
_symmetry_group_IT_number 63
_symmetry_cell_setting 'orthorhombic'
loop_
_space_group_symop_operation_xyz
x,y,z
-x,-y,1/2+z
x,-y,-z
-x,y,1/2-z
-x,-y,-z
x,y,1/2-z
-x,y,z
x,-y,1/2+z
1/2+x,1/2+y,z
1/2-x,1/2-y,1/2+z
1/2+x,1/2-y,-z
1/2-x,1/2+y,1/2-z
1/2-x,1/2-y,-z
1/2+x,1/2+y,1/2-z
1/2-x,1/2+y,z
1/2+x,1/2-y,1/2+z
loop_
_atom_site_type_symbol
_atom_site_label
_atom_site_fract_x
_atom_site_fract_y
_atom_site_fract_z
Si Si1 0.342817 0.622851 0.448837
Si Si2 0.888551 0.993455 0.331999
Si Si3 0.841691 0.566065 0.807601
Si Si4 0.388068 0.937142 0.923977
O O1 0.371552 0.500000 0.500000
O O2 0.375983 0.508915 0.395672
O O3 0.386678 0.839044 0.444008
O O4 0.218497 0.647656 0.445747
O O5 0.782073 0.907871 0.310877
O O6 0.000000 0.911159 0.317769
O O7 0.886202 0.217907 0.313146
O O8 0.868843 0.484826 0.750000
O O9 0.875507 0.449927 0.859959
O O10 0.500000 0.855153 0.937251
#
# Coordination Sequence:
#
# PCOD9473087 Si02
#       4
#    16  16  16  16
#     4  10  20  38  59  83 115 147 186 232 275 330
#     4  10  22  39  58  83 115 148 185 231 279 329
#     4  10  20  36  58  82 110 145 186 230 276 331
#     4  10  22  38  56  82 113 145 185 230 277 331
#
# _framework density 28.437522999999999
#
# number of rings (size 3 to 8) (size 9 to 14) (size 15 to 20)
#    0.000    2.000    0.000    4.500    0.000    6.000 
#    0.000   22.500    0.000   12.000    0.000    0.000 
#    0.000    0.000    0.000    0.000    0.000    0.000 
#
# Total GULP energy -179840.731403 kJ/mol
# GULP energy per Si atom -5620.022856 kJ/mol
# Density = 2.837280 g / cm^3
# Si number density = 28.437523 Si / 1000 Ang^3
#
#
#
# Elastic Constant Matrix: (Units=GPa)
#
#
# Indices 1 2 3 4 5 6 
#
# 1 270.2210 39.3046 29.8343 0.0000 0.0000 0.0000
# 2 39.3046 76.4382 14.8918 0.0000 0.0000 0.0000
# 3 29.8343 14.8918 202.1260 0.0000 0.0000 0.0000
# 4 0.0000 0.0000 0.0000 30.6124 0.0000 0.0000
# 5 0.0000 0.0000 0.0000 0.0000 6.7031 0.0000
# 6 0.0000 0.0000 0.0000 0.0000 0.0000 73.3864
#
#
#
# Elastic Compliance Matrix: (Units=1/GPa)
#
#
# Indices 1 2 3 4 5 6 
#
# 1 0.004040 -0.001990 -0.000450 0.000000 0.000000 0.000000
# 2 -0.001990 0.014253 -0.000756 0.000000 0.000000 0.000000
# 3 -0.000450 -0.000756 0.005070 0.000000 0.000000 0.000000
# 4 0.000000 0.000000 0.000000 0.032666 0.000000 0.000000
# 5 0.000000 0.000000 0.000000 0.000000 0.149185 0.000000
# 6 0.000000 0.000000 0.000000 0.000000 0.000000 0.013626
#
#
# Mechanical properties :
#
#
# Convention : Reuss Voigt Hill
#
# Bulk Modulus (GPa) = 58.92517 79.64963 69.28740
# Shear Modulus (GPa) = 21.65546 53.12401 37.38974
#
# Velocity S-wave (km/s) = 2.76254 4.32684 3.62995
# Velocity P-wave (km/s) = 5.56250 7.28227 6.47969
#
# Compressibility (1/GPa) = 0.01697068
#
# Stress axis : x y z
#
# Youngs Moduli (GPa) = 247.54184 70.16117 197.25754
#
# Poissons Ratio (x) = 0.13959 0.08870
# Poissons Ratio (y) = 0.49251 0.14921
# Poissons Ratio (z) = 0.11132 0.05307
#
# Static dielectric constant tensor:
#      x y z
#    x 2.078420 0.000000 0.000000 
#    y 0.000000 2.208860 0.000000 
#    z 0.000000 0.000000 2.191190 
# 
# From -- ./inp_files/67938.got.cif
#   From: 2010.05.17/outbox.cif.g08.bks.cpg/sg63_34_cif.got.tgz:67938.got - 2010.06.03 15:47:04.
