data_PCOD9473965
_publ_section_title
;
Structure prediction by ZEFSAII (Michael W. Deem and Ramdas Pophale) SiO2 
 PCOD9473965
Probable space group: C M C M
;
_chemical_formula_sum "Si O2"
_cell_formula_units_Z 88
_cell_length_a 31.510462
_cell_length_b 17.828786
_cell_length_c 8.773007
_cell_angle_alpha 90.000000
_cell_angle_beta 90.000000
_cell_angle_gamma 90.000000
_cell_volume 4928.616411
_symmetry_space_group_name_H-M "C M C M"
_symmetry_group_IT_number 63
_symmetry_cell_setting 'orthorhombic'
loop_
_space_group_symop_operation_xyz
x,y,z
-x,-y,1/2+z
x,-y,-z
-x,y,1/2-z
-x,-y,-z
x,y,1/2-z
-x,y,z
x,-y,1/2+z
1/2+x,1/2+y,z
1/2-x,1/2-y,1/2+z
1/2+x,1/2-y,-z
1/2-x,1/2+y,1/2-z
1/2-x,1/2-y,-z
1/2+x,1/2+y,1/2-z
1/2-x,1/2+y,z
1/2+x,1/2-y,1/2+z
loop_
_atom_site_type_symbol
_atom_site_label
_atom_site_fract_x
_atom_site_fract_y
_atom_site_fract_z
Si Si1 0.048385 0.916560 0.067395
Si Si2 0.500000 0.083203 0.431701
Si Si3 0.086044 0.635463 0.927529
Si Si4 0.203958 0.267050 0.065953
Si Si5 0.381869 0.306462 0.572920
Si Si6 0.330222 0.078197 0.431307
O O1 0.049470 0.920355 0.250000
O O2 0.000000 0.891628 0.022715
O O3 0.086083 0.862214 0.011817
O O4 0.054178 0.000000 0.000000
O O5 0.500000 0.080772 0.250000
O O6 0.458835 0.124081 0.495710
O O7 0.500000 0.000000 0.500000
O O8 0.085938 0.612092 0.750000
O O9 0.098864 0.722648 0.933102
O O10 0.120856 0.588367 0.019223
O O11 0.203978 0.267573 0.250000
O O12 0.166718 0.208028 0.017966
O O13 0.250000 0.250000 0.000000
O O14 0.191560 0.349248 0.005464
O O15 0.380029 0.330091 0.750000
O O16 0.325822 0.079098 0.250000
O O17 0.314199 0.000000 0.500000
#
# Coordination Sequence:
#
# PCOD9473965 Si02
#       6
#    16   8  16  16  16  16
#     4  10  21  36  56  83 114 150 191 237 286 341
#     4  12  24  36  50  72 105 144 185 228 272 320
#     4  10  21  37  54  77 108 145 185 227 275 327
#     4  10  21  39  61  87 116 149 188 234 289 347
#     4   9  20  37  58  82 111 146 183 226 279 338
#     4  11  21  36  58  83 111 146 185 230 278 332
#
# _framework density 17.85491
#
# number of rings (size 3 to 8) (size 9 to 14) (size 15 to 20)
#    0.000    1.818    0.000    5.727    1.273    5.455 
#    0.000    0.909    0.000    4.364    0.000    0.000 
#    0.000    0.000    0.000    0.000    0.000    0.000 
#
# Total GULP energy -245582.709036 kJ/mol
# GULP energy per Si atom -5581.425205 kJ/mol
# Density = 1.781427 g / cm^3
# Si number density = 17.854910 Si / 1000 Ang^3
#
#
#
# Elastic Constant Matrix: (Units=GPa)
#
#
# Indices 1 2 3 4 5 6 
#
# 1 159.2164 59.2753 53.0175 0.0000 0.0000 0.0000
# 2 59.2753 76.0358 38.0976 0.0000 0.0000 0.0000
# 3 53.0175 38.0976 100.6510 0.0000 0.0000 0.0000
# 4 0.0000 0.0000 0.0000 34.4276 0.0000 0.0000
# 5 0.0000 0.0000 0.0000 0.0000 32.6770 0.0000
# 6 0.0000 0.0000 0.0000 0.0000 0.0000 20.3871
#
#
#
# Elastic Compliance Matrix: (Units=1/GPa)
#
#
# Indices 1 2 3 4 5 6 
#
# 1 0.009404 -0.005984 -0.002688 0.000000 0.000000 0.000000
# 2 -0.005984 0.020037 -0.004432 0.000000 0.000000 0.000000
# 3 -0.002688 -0.004432 0.013029 0.000000 0.000000 0.000000
# 4 0.000000 0.000000 0.000000 0.029046 0.000000 0.000000
# 5 0.000000 0.000000 0.000000 0.000000 0.030603 0.000000
# 6 0.000000 0.000000 0.000000 0.000000 0.000000 0.049051
#
#
# Mechanical properties :
#
#
# Convention : Reuss Voigt Hill
#
# Bulk Modulus (GPa) = 61.49722 70.74268 66.11995
# Shear Modulus (GPa) = 27.35236 29.86587 28.60912
#
# Velocity S-wave (km/s) = 3.91823 4.09430 4.00723
# Velocity P-wave (km/s) = 7.41536 7.87769 7.65001
#
# Compressibility (1/GPa) = 0.01626090
#
# Stress axis : x y z
#
# Youngs Moduli (GPa) = 106.34082 49.90672 76.75098
#
# Poissons Ratio (x) = 0.29863 0.20634
# Poissons Ratio (y) = 0.63633 0.34019
# Poissons Ratio (z) = 0.28589 0.22121
#
# Static dielectric constant tensor:
#      x y z
#    x 1.586460 0.000000 0.000000 
#    y 0.000000 1.590430 0.000000 
#    z 0.000000 0.000000 1.594970 
# 
# From -- ./inp_files/14188.got.cif
#   From: 2010.05.17/outbox.cif.g08.bks.cpg/sg63_8_cif.got.tgz:14188.got - 2010.06.03 15:47:04.
