data_PCOD9473578
_publ_section_title
;
Structure prediction by ZEFSAII (Michael W. Deem and Ramdas Pophale) SiO2 
 PCOD9473578
Probable space group: C M C M
;
_chemical_formula_sum "Si O2"
_cell_formula_units_Z 96
_cell_length_a 8.882876
_cell_length_b 24.187665
_cell_length_c 25.776318
_cell_angle_alpha 90.000000
_cell_angle_beta 90.000000
_cell_angle_gamma 90.000000
_cell_volume 5538.197326
_symmetry_space_group_name_H-M "C M C M"
_symmetry_group_IT_number 63
_symmetry_cell_setting 'orthorhombic'
loop_
_space_group_symop_operation_xyz
x,y,z
-x,-y,1/2+z
x,-y,-z
-x,y,1/2-z
-x,-y,-z
x,y,1/2-z
-x,y,z
x,-y,1/2+z
1/2+x,1/2+y,z
1/2-x,1/2-y,1/2+z
1/2+x,1/2-y,-z
1/2-x,1/2+y,1/2-z
1/2-x,1/2-y,-z
1/2+x,1/2+y,1/2-z
1/2-x,1/2+y,z
1/2+x,1/2-y,1/2+z
loop_
_atom_site_type_symbol
_atom_site_label
_atom_site_fract_x
_atom_site_fract_y
_atom_site_fract_z
Si Si1 0.819299 0.383064 0.594453
Si Si2 0.181020 0.691695 0.309582
Si Si3 0.319439 0.618170 0.601028
Si Si4 0.181496 0.997471 0.561119
Si Si5 0.320202 0.810294 0.189869
Si Si6 0.319230 0.689059 0.498286
O O1 0.777704 0.355494 0.649502
O O2 0.757686 0.444660 0.587021
O O3 0.748653 0.345257 0.549384
O O4 0.000000 0.382669 0.589865
O O5 0.224845 0.679375 0.250000
O O6 0.253225 0.750346 0.324644
O O7 0.000000 0.697984 0.311065
O O8 0.500000 0.619583 0.607615
O O9 0.275934 0.555340 0.587710
O O10 0.242666 0.643762 0.651342
O O11 0.283381 0.656231 0.551248
O O12 0.000000 0.991551 0.563842
O O13 0.221043 0.000000 0.500000
O O14 0.277609 0.820609 0.250000
O O15 0.500000 0.808015 0.186597
O O16 0.500000 0.691832 0.493450
O O17 0.250000 0.750000 0.500000
#
# Coordination Sequence:
#
# PCOD9473578 Si02
#       6
#    16  16  16  16  16  16
#     4  11  22  35  55  84 111 142 184 228 276 330
#     4   9  19  37  58  79 109 148 184 219 268 330
#     4  10  21  37  57  78 106 146 187 221 268 330
#     4  10  20  39  59  77 106 148 187 226 273 322
#     4  10  21  36  56  84 114 142 178 228 279 320
#     4  11  22  36  53  79 113 145 178 225 278 330
#
# _framework density 17.334160000000001
#
# number of rings (size 3 to 8) (size 9 to 14) (size 15 to 20)
#    0.000    1.833    1.667    2.500    0.000    8.667 
#    0.000    0.833    0.000    3.000    0.000    0.000 
#    0.000    0.000    0.000    0.000    0.000    0.000 
#
# Total GULP energy -268098.803124 kJ/mol
# GULP energy per Si atom -5585.391732 kJ/mol
# Density = 1.729471 g / cm^3
# Si number density = 17.334160 Si / 1000 Ang^3
#
#
#
# Elastic Constant Matrix: (Units=GPa)
#
#
# Indices 1 2 3 4 5 6 
#
# 1 32.2586 56.3812 44.7340 0.0000 0.0000 0.0000
# 2 56.3812 187.7288 97.9453 0.0000 0.0000 0.0000
# 3 44.7340 97.9453 112.7507 0.0000 0.0000 0.0000
# 4 0.0000 0.0000 0.0000 21.5155 0.0000 0.0000
# 5 0.0000 0.0000 0.0000 0.0000 28.9020 0.0000
# 6 0.0000 0.0000 0.0000 0.0000 0.0000 34.3763
#
#
#
# Elastic Compliance Matrix: (Units=1/GPa)
#
#
# Indices 1 2 3 4 5 6 
#
# 1 0.086809 -0.014818 -0.021569 0.000000 0.000000 0.000000
# 2 -0.014818 0.012272 -0.004781 0.000000 0.000000 0.000000
# 3 -0.021569 -0.004781 0.021580 0.000000 0.000000 0.000000
# 4 0.000000 0.000000 0.000000 0.046478 0.000000 0.000000
# 5 0.000000 0.000000 0.000000 0.000000 0.034600 0.000000
# 6 0.000000 0.000000 0.000000 0.000000 0.000000 0.029090
#
#
# Mechanical properties :
#
#
# Convention : Reuss Voigt Hill
#
# Bulk Modulus (GPa) = 26.09342 81.20657 53.65000
# Shear Modulus (GPa) = 15.34020 25.87061 20.60540
#
# Velocity S-wave (km/s) = 2.97807 3.86743 3.45152
# Velocity P-wave (km/s) = 5.18759 8.17876 6.84847
#
# Compressibility (1/GPa) = 0.03832384
#
# Stress axis : x y z
#
# Youngs Moduli (GPa) = 11.51949 81.48765 46.33883
#
# Poissons Ratio (x) = 1.20750 0.99950
# Poissons Ratio (y) = 0.17070 0.22156
# Poissons Ratio (z) = 0.24847 0.38961
#
# Static dielectric constant tensor:
#      x y z
#    x 1.581020 0.000000 0.000000 
#    y 0.000000 1.558050 0.000000 
#    z 0.000000 0.000000 1.580240 
# 
# From -- ./inp_files/59853.got.cif
#   From: 2010.05.17/outbox.cif.g08.bks.cpg/sg63_30_cif.got.tgz:59853.got - 2010.06.03 15:47:04.
