data_PCOD9473040
_publ_section_title
;
Structure prediction by ZEFSAII (Michael W. Deem and Ramdas Pophale) SiO2 
 PCOD9473040
Probable space group: C M C M
;
_chemical_formula_sum "Si O2"
_cell_formula_units_Z 116
_cell_length_a 23.717026
_cell_length_b 27.606081
_cell_length_c 7.505892
_cell_angle_alpha 90.000000
_cell_angle_beta 90.000000
_cell_angle_gamma 90.000000
_cell_volume 4914.363750
_symmetry_space_group_name_H-M "C M C M"
_symmetry_group_IT_number 63
_symmetry_cell_setting 'orthorhombic'
loop_
_space_group_symop_operation_xyz
x,y,z
-x,-y,1/2+z
x,-y,-z
-x,y,1/2-z
-x,-y,-z
x,y,1/2-z
-x,y,z
x,-y,1/2+z
1/2+x,1/2+y,z
1/2-x,1/2-y,1/2+z
1/2+x,1/2-y,-z
1/2-x,1/2+y,1/2-z
1/2-x,1/2-y,-z
1/2+x,1/2+y,1/2-z
1/2-x,1/2+y,z
1/2+x,1/2-y,1/2+z
loop_
_atom_site_type_symbol
_atom_site_label
_atom_site_fract_x
_atom_site_fract_y
_atom_site_fract_z
Si Si1 0.594364 0.579969 0.532951
Si Si2 0.876122 0.285630 0.542198
Si Si3 0.661217 0.945039 0.037296
Si Si4 0.564427 0.309976 0.467124
Si Si5 0.561453 0.877168 0.034692
Si Si6 0.219061 0.907427 0.468925
Si Si7 0.000000 0.000000 0.500000
Si Si8 0.255522 0.805506 0.053093
O O1 0.589811 0.577792 0.750000
O O2 0.580196 0.635393 0.481088
O O3 0.658990 0.570929 0.478463
O O4 0.549311 0.541302 0.467667
O O5 0.860980 0.281786 0.750000
O O6 0.893181 0.232511 0.473533
O O7 0.927983 0.321911 0.521173
O O8 0.823030 0.311453 0.449960
O O9 0.663346 0.937857 0.250000
O O10 0.613149 0.909387 0.966299
O O11 0.724443 0.934389 0.970844
O O12 0.645675 0.000000 0.000000
O O13 0.565783 0.308610 0.250000
O O14 0.500000 0.299677 0.521575
O O15 0.562256 0.878669 0.250000
O O16 0.500000 0.894119 0.975012
O O17 0.218957 0.907312 0.250000
O O18 0.226502 0.851755 0.534843
O O19 0.231710 0.806991 0.250000
O O20 0.250000 0.750000 0.000000
#
# Coordination Sequence:
#
# PCOD9473040 Si02
#       8
#    16  16  16  16  16  16   4  16
#     4  10  20  36  57  82 110 147 193 244 301 358
#     4  11  21  34  58  91 124 159 204 256 305 365
#     4  10  21  39  60  85 116 156 203 254 307 369
#     4   9  17  32  53  80 113 148 194 249 298 353
#     4  10  21  39  61  85 120 165 204 246 312 376
#     4   9  19  37  60  83 115 155 197 245 305 374
#     4  12  22  32  60  86 108 144 192 248 302 358
#     4  11  21  37  60  89 124 161 202 250 306 372
#
# _framework density 23.604277
#
# number of rings (size 3 to 8) (size 9 to 14) (size 15 to 20)
#    0.000    1.931    2.069    2.276    0.966    3.862 
#    0.000    0.000    0.000    9.931    0.000    0.000 
#    0.000    0.000    0.000    0.000    0.000    0.000 
#
# Total GULP energy -323591.630904 kJ/mol
# GULP energy per Si atom -5579.166050 kJ/mol
# Density = 2.355055 g / cm^3
# Si number density = 23.604277 Si / 1000 Ang^3
#
#
#
# Elastic Constant Matrix: (Units=GPa)
#
#
# Indices 1 2 3 4 5 6 
#
# 1 174.8055 67.5454 2.0492 0.0000 0.0000 0.0000
# 2 67.5454 147.6463 -4.2145 0.0000 0.0000 0.0000
# 3 2.0492 -4.2145 60.6622 0.0000 0.0000 0.0000
# 4 0.0000 0.0000 0.0000 -5.6481 0.0000 0.0000
# 5 0.0000 0.0000 0.0000 0.0000 -34.1885 0.0000
# 6 0.0000 0.0000 0.0000 0.0000 0.0000 43.7908
#
#
#
# Elastic Compliance Matrix: (Units=1/GPa)
#
#
# Indices 1 2 3 4 5 6 
#
# 1 0.006962 -0.003198 -0.000457 0.000000 0.000000 0.000000
# 2 -0.003198 0.008255 0.000682 0.000000 0.000000 0.000000
# 3 -0.000457 0.000682 0.016548 0.000000 0.000000 0.000000
# 4 0.000000 0.000000 0.000000 -0.177052 0.000000 0.000000
# 5 0.000000 0.000000 0.000000 0.000000 -0.029250 0.000000
# 6 0.000000 0.000000 0.000000 0.000000 0.000000 0.022836
#
#
# Mechanical properties :
#
#
# Convention : Reuss Voigt Hill
#
# Bulk Modulus (GPa) = 38.73382 57.09715 47.91548
# Shear Modulus (GPa) = -36.45704 21.97310 -7.24197
#
# Velocity S-wave (km/s) = -3.93429 3.05437 -1.75349
# Velocity P-wave (km/s) = 2.04765 6.05646 4.03037
#
# Compressibility (1/GPa) = 0.02581723
#
# Stress axis : x y z
#
# Youngs Moduli (GPa) = 143.64340 121.13319 60.43201
#
# Poissons Ratio (x) = 0.38737 0.02764
# Poissons Ratio (y) = 0.45936 -0.04119
# Poissons Ratio (z) = 0.06569 -0.08256
#
# Static dielectric constant tensor:
#      x y z
#    x 1.911810 0.000000 0.000000 
#    y 0.000000 1.863770 0.000000 
#    z 0.000000 0.000000 1.946600 
# 
# From -- ./inp_files/10938.got.cif
#   From: 2010.05.17/outbox.cif.g08.bks.cpg/sg63_6_cif.got.tgz:10938.got - 2010.06.03 15:47:04.
