data_PCOD9473756
_publ_section_title
;
Structure prediction by ZEFSAII (Michael W. Deem and Ramdas Pophale) SiO2 
 PCOD9473756
Probable space group: C M C M
;
_chemical_formula_sum "Si O2"
_cell_formula_units_Z 60
_cell_length_a 5.203856
_cell_length_b 24.842611
_cell_length_c 24.338132
_cell_angle_alpha 90.000000
_cell_angle_beta 90.000000
_cell_angle_gamma 90.000000
_cell_volume 3146.369703
_symmetry_space_group_name_H-M "C M C M"
_symmetry_group_IT_number 63
_symmetry_cell_setting 'orthorhombic'
loop_
_space_group_symop_operation_xyz
x,y,z
-x,-y,1/2+z
x,-y,-z
-x,y,1/2-z
-x,-y,-z
x,y,1/2-z
-x,y,z
x,-y,1/2+z
1/2+x,1/2+y,z
1/2-x,1/2-y,1/2+z
1/2+x,1/2-y,-z
1/2-x,1/2+y,1/2-z
1/2-x,1/2-y,-z
1/2+x,1/2+y,1/2-z
1/2-x,1/2+y,z
1/2+x,1/2-y,1/2+z
loop_
_atom_site_type_symbol
_atom_site_label
_atom_site_fract_x
_atom_site_fract_y
_atom_site_fract_z
Si Si1 0.500000 0.988518 0.935505
Si Si2 0.500000 0.175601 0.250000
Si Si3 0.500000 0.458040 0.625630
Si Si4 0.500000 0.895860 0.375596
Si Si5 0.000000 0.157317 0.172277
Si Si6 0.000000 0.681262 0.521378
Si Si7 0.000000 0.074353 0.815183
Si Si8 0.000000 0.191097 0.045713
O O1 0.750926 0.958313 0.913228
O O2 0.500000 0.046842 0.906582
O O3 0.500000 0.000000 0.000000
O O4 0.735035 0.173863 0.202790
O O5 0.500000 0.407745 0.666422
O O6 0.500000 0.513856 0.659849
O O7 0.500000 0.851156 0.422182
O O8 0.750904 0.895419 0.337995
O O9 0.000000 0.178728 0.109920
O O10 0.000000 0.744543 0.535998
O O11 0.750200 0.668816 0.485185
O O12 0.000000 0.071357 0.750000
#
# Coordination Sequence:
#
# PCOD9473756 Si02
#       8
#     8   4   8   8   8   8   8   8
#     4  10  21  34  51  82 117 150 180 224 282 352
#     4  10  24  38  58  84 116 152 196 236 290 324
#     4  10  22  35  53  84 111 149 192 226 284 328
#     4  10  21  36  58  80 117 144 190 237 287 330
#     4  11  22  40  60  87 118 153 196 239 286 349
#     4  10  21  39  61  93 115 151 184 239 292 348
#     4  10  21  38  56  80 108 155 194 240 274 337
#     4  10  22  37  65  89 117 149 192 230 296 356
#
# _framework density 19.069595
#
# number of rings (size 3 to 8) (size 9 to 14) (size 15 to 20)
#    0.000    1.867    0.000    3.200    5.600    0.000 
#    0.000    0.000    8.800    0.000    0.000    0.000 
#    0.000    0.000    0.000    0.000    0.000    0.000 
#
# Total GULP energy -167029.725543 kJ/mol
# GULP energy per Si atom -5567.657518 kJ/mol
# Density = 1.902619 g / cm^3
# Si number density = 19.069595 Si / 1000 Ang^3
#
#
#
# Elastic Constant Matrix: (Units=GPa)
#
#
# Indices 1 2 3 4 5 6 
#
# 1 228.4435 21.6009 103.0138 0.0000 0.0000 0.0000
# 2 21.6009 20.3277 18.3383 0.0000 0.0000 0.0000
# 3 103.0138 18.3383 187.2600 0.0000 0.0000 0.0000
# 4 0.0000 0.0000 0.0000 10.7468 0.0000 0.0000
# 5 0.0000 0.0000 0.0000 0.0000 55.7337 0.0000
# 6 0.0000 0.0000 0.0000 0.0000 0.0000 -7.1398
#
#
#
# Elastic Compliance Matrix: (Units=1/GPa)
#
#
# Indices 1 2 3 4 5 6 
#
# 1 0.006075 -0.003774 -0.002972 0.000000 0.000000 0.000000
# 2 -0.003774 0.056306 -0.003438 0.000000 0.000000 0.000000
# 3 -0.002972 -0.003438 0.007312 0.000000 0.000000 0.000000
# 4 0.000000 0.000000 0.000000 0.093051 0.000000 0.000000
# 5 0.000000 0.000000 0.000000 0.000000 0.017942 0.000000
# 6 0.000000 0.000000 0.000000 0.000000 0.000000 -0.140061
#
#
# Mechanical properties :
#
#
# Convention : Reuss Voigt Hill
#
# Bulk Modulus (GPa) = 20.27400 80.21524 50.24462
# Shear Modulus (GPa) = 64.57138 31.40671 47.98904
#
# Velocity S-wave (km/s) = 5.82533 4.06267 5.02194
# Velocity P-wave (km/s) = 7.47667 8.01017 7.74801
#
# Compressibility (1/GPa) = 0.04932425
#
# Stress axis : x y z
#
# Youngs Moduli (GPa) = 164.62211 17.76022 136.76466
#
# Poissons Ratio (x) = 0.06702 0.40648
# Poissons Ratio (y) = 0.62125 0.47019
# Poissons Ratio (z) = 0.48927 0.06106
#
# Static dielectric constant tensor:
#      x y z
#    x 1.735550 0.000000 0.000000 
#    y 0.000000 1.668090 0.000000 
#    z 0.000000 0.000000 1.620000 
# 
# From -- ./inp_files/49798.got.cif
#   From: 2010.05.17/outbox.cif.g08.bks.cpg/sg63_25_cif.got.tgz:49798.got - 2010.06.03 15:47:04.
