data_PCOD9473917
_publ_section_title
;
Structure prediction by ZEFSAII (Michael W. Deem and Ramdas Pophale) SiO2 
 PCOD9473917
Probable space group: C M C M
;
_chemical_formula_sum "Si O2"
_cell_formula_units_Z 68
_cell_length_a 20.731310
_cell_length_b 19.125627
_cell_length_c 8.795995
_cell_angle_alpha 90.000000
_cell_angle_beta 90.000000
_cell_angle_gamma 90.000000
_cell_volume 3487.605880
_symmetry_space_group_name_H-M "C M C M"
_symmetry_group_IT_number 63
_symmetry_cell_setting 'orthorhombic'
loop_
_space_group_symop_operation_xyz
x,y,z
-x,-y,1/2+z
x,-y,-z
-x,y,1/2-z
-x,-y,-z
x,y,1/2-z
-x,y,z
x,-y,1/2+z
1/2+x,1/2+y,z
1/2-x,1/2-y,1/2+z
1/2+x,1/2-y,-z
1/2-x,1/2+y,1/2-z
1/2-x,1/2-y,-z
1/2+x,1/2+y,1/2-z
1/2-x,1/2+y,z
1/2+x,1/2-y,1/2+z
loop_
_atom_site_type_symbol
_atom_site_label
_atom_site_fract_x
_atom_site_fract_y
_atom_site_fract_z
Si Si1 0.282109 0.423096 0.930754
Si Si2 0.133437 0.820284 0.081808
Si Si3 0.922568 0.573630 0.426219
Si Si4 0.000000 0.192716 0.750000
Si Si5 0.672097 0.176807 0.930229
O O1 0.277303 0.426295 0.750000
O O2 0.274173 0.500000 0.000000
O O3 0.349310 0.388054 0.983629
O O4 0.228098 0.370515 0.996503
O O5 0.163430 0.830383 0.250000
O O6 0.058150 0.808403 0.119467
O O7 0.165138 0.752845 0.004266
O O8 0.902688 0.500000 0.500000
O O9 0.901453 0.578341 0.250000
O O10 0.892632 0.635308 0.523558
O O11 0.000000 0.576956 0.427657
O O12 0.678948 0.181848 0.750000
#
# Coordination Sequence:
#
# PCOD9473917 Si02
#       5
#    16  16  16   4  16
#     4  12  25  44  69  98 135 175 220 276 334 393
#     4  10  22  44  69  97 129 171 219 267 332 385
#     4  10  21  36  54  80 121 169 218 268 322 387
#     4   8  24  44  76  92 136 172 214 278 336 384
#     4  12  24  38  62  97 133 174 217 266 326 389
#
# _framework density 19.497616000000001
#
# number of rings (size 3 to 8) (size 9 to 14) (size 15 to 20)
#    0.706    0.471    0.000    7.059    1.647    1.412 
#    0.000    2.353    0.000    0.000    0.000    0.000 
#    0.000    0.000    0.000    0.000    0.000    0.000 
#
# Total GULP energy -189413.555078 kJ/mol
# GULP energy per Si atom -5570.986914 kJ/mol
# Density = 1.945324 g / cm^3
# Si number density = 19.497616 Si / 1000 Ang^3
#
#
#
# Elastic Constant Matrix: (Units=GPa)
#
#
# Indices 1 2 3 4 5 6 
#
# 1 82.5744 47.2660 43.8055 0.0000 0.0000 0.0000
# 2 47.2660 100.3316 46.7395 0.0000 0.0000 0.0000
# 3 43.8055 46.7395 162.1353 0.0000 0.0000 0.0000
# 4 0.0000 0.0000 0.0000 34.1289 0.0000 0.0000
# 5 0.0000 0.0000 0.0000 0.0000 32.6740 0.0000
# 6 0.0000 0.0000 0.0000 0.0000 0.0000 4.3409
#
#
#
# Elastic Compliance Matrix: (Units=1/GPa)
#
#
# Indices 1 2 3 4 5 6 
#
# 1 0.017567 -0.007005 -0.002727 0.000000 0.000000 0.000000
# 2 -0.007005 0.014307 -0.002232 0.000000 0.000000 0.000000
# 3 -0.002727 -0.002232 0.007548 0.000000 0.000000 0.000000
# 4 0.000000 0.000000 0.000000 0.029301 0.000000 0.000000
# 5 0.000000 0.000000 0.000000 0.000000 0.030605 0.000000
# 6 0.000000 0.000000 0.000000 0.000000 0.000000 0.230368
#
#
# Mechanical properties :
#
#
# Convention : Reuss Voigt Hill
#
# Bulk Modulus (GPa) = 64.54171 68.96259 66.75215
# Shear Modulus (GPa) = 13.93584 28.04410 20.98997
#
# Velocity S-wave (km/s) = 2.67637 3.79665 3.28463
# Velocity P-wave (km/s) = 6.53643 7.39364 6.97821
#
# Compressibility (1/GPa) = 0.01549386
#
# Stress axis : x y z
#
# Youngs Moduli (GPa) = 56.92578 69.89694 132.49107
#
# Poissons Ratio (x) = 0.48966 0.36126
# Poissons Ratio (y) = 0.39879 0.29566
# Poissons Ratio (z) = 0.15522 0.15598
#
# Static dielectric constant tensor:
#      x y z
#    x 1.733670 0.000000 0.000000 
#    y 0.000000 1.683430 0.000000 
#    z 0.000000 0.000000 1.656020 
# 
# From -- ./inp_files/7628.got.cif
#   From: 2010.05.17/outbox.cif.g08.bks.cpg/sg63_4_cif.got.tgz:7628.got - 2010.06.03 15:47:04.
