data_PCOD9473959
_publ_section_title
;
Structure prediction by ZEFSAII (Michael W. Deem and Ramdas Pophale) SiO2 
 PCOD9473959
Probable space group: C M C M
;
_chemical_formula_sum "Si O2"
_cell_formula_units_Z 72
_cell_length_a 13.617600
_cell_length_b 32.827699
_cell_length_c 8.008572
_cell_angle_alpha 90.000000
_cell_angle_beta 90.000000
_cell_angle_gamma 90.000000
_cell_volume 3580.107771
_symmetry_space_group_name_H-M "C M C M"
_symmetry_group_IT_number 63
_symmetry_cell_setting 'orthorhombic'
loop_
_space_group_symop_operation_xyz
x,y,z
-x,-y,1/2+z
x,-y,-z
-x,y,1/2-z
-x,-y,-z
x,y,1/2-z
-x,y,z
x,-y,1/2+z
1/2+x,1/2+y,z
1/2-x,1/2-y,1/2+z
1/2+x,1/2-y,-z
1/2-x,1/2+y,1/2-z
1/2-x,1/2-y,-z
1/2+x,1/2+y,1/2-z
1/2-x,1/2+y,z
1/2+x,1/2-y,1/2+z
loop_
_atom_site_type_symbol
_atom_site_label
_atom_site_fract_x
_atom_site_fract_y
_atom_site_fract_z
Si Si1 0.200125 0.686931 0.547805
Si Si2 0.500000 0.046960 0.951726
Si Si3 0.193504 0.405548 0.048946
Si Si4 0.889651 0.952885 0.949531
Si Si5 0.605335 0.731804 0.549489
O O1 0.200707 0.686316 0.750000
O O2 0.185823 0.641018 0.488238
O O3 0.304060 0.705134 0.486286
O O4 0.122695 0.720986 0.493706
O O5 0.500000 0.049679 0.750000
O O6 0.600039 0.068564 0.012661
O O7 0.500000 0.000000 0.000000
O O8 0.186944 0.404456 0.250000
O O9 0.298431 0.425695 0.008294
O O10 0.891462 0.950904 0.750000
O O11 0.000000 0.941301 0.011498
O O12 0.873303 0.000000 0.000000
O O13 0.605936 0.728284 0.750000
O O14 0.500000 0.718006 0.485230
#
# Coordination Sequence:
#
# PCOD9473959 Si02
#       5
#    16   8  16  16  16
#     4   9  19  34  53  78 105 137 178 221 268 319
#     4  10  22  38  54  78 110 144 184 228 274 324
#     4  10  21  36  56  81 110 143 183 230 273 325
#     4  10  21  37  57  81 109 141 178 222 272 327
#     4   9  18  33  52  75 106 140 175 218 266 321
#
# _framework density 20.111127
#
# number of rings (size 3 to 8) (size 9 to 14) (size 15 to 20)
#    0.000    2.444    0.000    1.333    1.556    6.222 
#    0.000    2.222    0.000    0.000    0.000    0.000 
#    0.000    0.000    0.000    0.000    0.000    0.000 
#
# Total GULP energy -200863.991912 kJ/mol
# GULP energy per Si atom -5579.555331 kJ/mol
# Density = 2.006535 g / cm^3
# Si number density = 20.111127 Si / 1000 Ang^3
#
#
#
# Elastic Constant Matrix: (Units=GPa)
#
#
# Indices 1 2 3 4 5 6 
#
# 1 120.9123 51.7112 7.9065 0.0000 0.0000 0.0000
# 2 51.7112 119.2962 4.5371 0.0000 0.0000 0.0000
# 3 7.9065 4.5371 14.7076 0.0000 0.0000 0.0000
# 4 0.0000 0.0000 0.0000 25.4119 0.0000 0.0000
# 5 0.0000 0.0000 0.0000 0.0000 19.6725 0.0000
# 6 0.0000 0.0000 0.0000 0.0000 0.0000 9.2943
#
#
#
# Elastic Compliance Matrix: (Units=1/GPa)
#
#
# Indices 1 2 3 4 5 6 
#
# 1 0.010409 -0.004350 -0.004254 0.000000 0.000000 0.000000
# 2 -0.004350 0.010300 -0.000839 0.000000 0.000000 0.000000
# 3 -0.004254 -0.000839 0.070538 0.000000 0.000000 0.000000
# 4 0.000000 0.000000 0.000000 0.039352 0.000000 0.000000
# 5 0.000000 0.000000 0.000000 0.000000 0.050832 0.000000
# 6 0.000000 0.000000 0.000000 0.000000 0.000000 0.107592
#
#
# Mechanical properties :
#
#
# Convention : Reuss Voigt Hill
#
# Bulk Modulus (GPa) = 13.81955 42.58063 28.20009
# Shear Modulus (GPa) = 15.05891 23.59317 19.32604
#
# Velocity S-wave (km/s) = 2.73936 3.42883 3.10330
# Velocity P-wave (km/s) = 4.10999 6.07408 5.18587
#
# Compressibility (1/GPa) = 0.07236127
#
# Stress axis : x y z
#
# Youngs Moduli (GPa) = 96.06967 97.08643 14.17681
#
# Poissons Ratio (x) = 0.42235 0.06030
# Poissons Ratio (y) = 0.41793 0.01189
# Poissons Ratio (z) = 0.40866 0.08144
#
# Static dielectric constant tensor:
#      x y z
#    x 1.729540 0.000000 0.000000 
#    y 0.000000 1.680640 0.000000 
#    z 0.000000 0.000000 1.722010 
# 
# From -- ./inp_files/4638.got.cif
#   From: 2010.05.17/outbox.cif.g08.bks.cpg/sg63_3_cif.got.tgz:4638.got - 2010.06.03 15:47:04.
