data_PCOD9473803
_publ_section_title
;
Structure prediction by ZEFSAII (Michael W. Deem and Ramdas Pophale) SiO2 
 PCOD9473803
Probable space group: C M C M
;
_chemical_formula_sum "Si O2"
_cell_formula_units_Z 96
_cell_length_a 7.514294
_cell_length_b 28.077641
_cell_length_c 19.482205
_cell_angle_alpha 90.000000
_cell_angle_beta 90.000000
_cell_angle_gamma 90.000000
_cell_volume 4110.426707
_symmetry_space_group_name_H-M "C M C M"
_symmetry_group_IT_number 63
_symmetry_cell_setting 'orthorhombic'
loop_
_space_group_symop_operation_xyz
x,y,z
-x,-y,1/2+z
x,-y,-z
-x,y,1/2-z
-x,-y,-z
x,y,1/2-z
-x,y,z
x,-y,1/2+z
1/2+x,1/2+y,z
1/2-x,1/2-y,1/2+z
1/2+x,1/2-y,-z
1/2-x,1/2+y,1/2-z
1/2-x,1/2-y,-z
1/2+x,1/2+y,1/2-z
1/2-x,1/2+y,z
1/2+x,1/2-y,1/2+z
loop_
_atom_site_type_symbol
_atom_site_label
_atom_site_fract_x
_atom_site_fract_y
_atom_site_fract_z
Si Si1 0.788377 0.287049 0.672470
Si Si2 0.214529 0.151116 0.049398
Si Si3 0.217307 0.197670 0.584612
Si Si4 0.292243 0.997602 0.671688
Si Si5 0.702309 0.546557 0.465273
Si Si6 0.285355 0.394243 0.328659
O O1 0.717580 0.289429 0.750000
O O2 0.761581 0.333458 0.625952
O O3 0.716889 0.242869 0.627413
O O4 0.000000 0.279606 0.678107
O O5 0.282089 0.098937 0.027936
O O6 0.000000 0.148915 0.046115
O O7 0.275943 0.190351 0.993925
O O8 0.270000 0.149377 0.624132
O O9 0.000000 0.199685 0.584348
O O10 0.224853 0.993868 0.750000
O O11 0.500000 0.984960 0.671600
O O12 0.275443 0.053129 0.650766
O O13 0.198593 0.965558 0.615361
O O14 0.787691 0.500000 0.500000
O O15 0.500000 0.549455 0.493414
O O16 0.227466 0.386244 0.250000
O O17 0.500000 0.395161 0.329491
#
# Coordination Sequence:
#
# PCOD9473803 Si02
#       6
#    16  16  16  16  16  16
#     4  10  21  37  57  81 110 144 180 216 257 312
#     4  10  21  36  56  81 108 138 174 221 271 317
#     4   9  17  33  57  82 107 138 179 222 264 314
#     4  10  21  35  51  76 111 146 180 221 271 327
#     4  10  21  38  59  81 105 138 183 230 274 322
#     4   9  16  29  53  81 107 139 181 227 271 315
#
# _framework density 23.355239000000001
#
# number of rings (size 3 to 8) (size 9 to 14) (size 15 to 20)
#    0.000    2.333    0.000    2.500    0.000    7.667 
#    0.000    6.667    0.000    2.000    0.000    0.000 
#    0.000    0.000    0.000    0.000    0.000    0.000 
#
# Total GULP energy -268241.497269 kJ/mol
# GULP energy per Si atom -5588.364526 kJ/mol
# Density = 2.330208 g / cm^3
# Si number density = 23.355239 Si / 1000 Ang^3
#
#
#
# Elastic Constant Matrix: (Units=GPa)
#
#
# Indices 1 2 3 4 5 6 
#
# 1 65.3755 -0.9822 2.3979 0.0000 0.0000 0.0000
# 2 -0.9822 111.3749 66.7811 0.0000 0.0000 0.0000
# 3 2.3979 66.7811 131.2094 0.0000 0.0000 0.0000
# 4 0.0000 0.0000 0.0000 38.3146 0.0000 0.0000
# 5 0.0000 0.0000 0.0000 0.0000 13.2530 0.0000
# 6 0.0000 0.0000 0.0000 0.0000 0.0000 28.3870
#
#
#
# Elastic Compliance Matrix: (Units=1/GPa)
#
#
# Indices 1 2 3 4 5 6 
#
# 1 0.015321 0.000436 -0.000502 0.000000 0.000000 0.000000
# 2 0.000436 0.012935 -0.006591 0.000000 0.000000 0.000000
# 3 -0.000502 -0.006591 0.010985 0.000000 0.000000 0.000000
# 4 0.000000 0.000000 0.000000 0.026100 0.000000 0.000000
# 5 0.000000 0.000000 0.000000 0.000000 0.075454 0.000000
# 6 0.000000 0.000000 0.000000 0.000000 0.000000 0.035227
#
#
# Mechanical properties :
#
#
# Convention : Reuss Voigt Hill
#
# Bulk Modulus (GPa) = 38.56994 49.37259 43.97127
# Shear Modulus (GPa) = 25.25515 31.97513 28.61514
#
# Velocity S-wave (km/s) = 3.29195 3.70412 3.50410
# Velocity P-wave (km/s) = 5.56773 6.28329 5.93630
#
# Compressibility (1/GPa) = 0.02592692
#
# Stress axis : x y z
#
# Youngs Moduli (GPa) = 65.26902 77.31136 91.03056
#
# Poissons Ratio (x) = -0.03371 0.04569
# Poissons Ratio (y) = -0.02846 0.60001
# Poissons Ratio (z) = 0.03276 0.50958
#
# Static dielectric constant tensor:
#      x y z
#    x 1.913590 0.000000 0.000000 
#    y 0.000000 1.856840 0.000000 
#    z 0.000000 0.000000 1.873770 
# 
# From -- ./inp_files/51251.got.cif
#   From: 2010.05.17/outbox.cif.g08.bks.cpg/sg63_26_cif.got.tgz:51251.got - 2010.06.03 15:47:04.
