data_PCOD9473009
_publ_section_title
;
Structure prediction by ZEFSAII (Michael W. Deem and Ramdas Pophale) SiO2 
 PCOD9473009
Probable space group: C M C M
;
_chemical_formula_sum "Si O2"
_cell_formula_units_Z 64
_cell_length_a 8.202090
_cell_length_b 23.612457
_cell_length_c 14.203604
_cell_angle_alpha 90.000000
_cell_angle_beta 90.000000
_cell_angle_gamma 90.000000
_cell_volume 2750.833256
_symmetry_space_group_name_H-M "C M C M"
_symmetry_group_IT_number 63
_symmetry_cell_setting 'orthorhombic'
loop_
_space_group_symop_operation_xyz
x,y,z
-x,-y,1/2+z
x,-y,-z
-x,y,1/2-z
-x,-y,-z
x,y,1/2-z
-x,y,z
x,-y,1/2+z
1/2+x,1/2+y,z
1/2-x,1/2-y,1/2+z
1/2+x,1/2-y,-z
1/2-x,1/2+y,1/2-z
1/2-x,1/2-y,-z
1/2+x,1/2+y,1/2-z
1/2-x,1/2+y,z
1/2+x,1/2-y,1/2+z
loop_
_atom_site_type_symbol
_atom_site_label
_atom_site_fract_x
_atom_site_fract_y
_atom_site_fract_z
Si Si1 0.500000 0.521282 0.391966
Si Si2 0.681129 0.033044 0.598398
Si Si3 0.192200 0.341428 0.138886
Si Si4 0.821118 0.720714 0.364874
Si Si5 0.000000 0.846015 0.863860
O O1 0.500000 0.500000 0.500000
O O2 0.332740 0.496400 0.351328
O O3 0.500000 0.588370 0.388396
O O4 0.500000 0.030734 0.642392
O O5 0.667524 0.000000 0.500000
O O6 0.721359 0.099487 0.586739
O O7 0.226339 0.352081 0.250000
O O8 0.291318 0.286209 0.109478
O O9 0.000000 0.327148 0.131934
O O10 0.821891 0.718990 0.250000
O O11 0.666327 0.684232 0.396127
O O12 0.000000 0.701234 0.397759
O O13 0.000000 0.841415 0.750000
#
# Coordination Sequence:
#
# PCOD9473009 Si02
#       5
#     8  16  16  16   8
#     4  10  22  38  56  76 106 149 188 223 264 319
#     4   9  19  35  53  76 104 149 185 221 268 316
#     4   9  16  29  52  83 115 140 175 226 272 320
#     4   9  17  30  51  82 114 143 172 215 276 331
#     4  10  20  36  56  82 115 143 176 219 268 323
#
# _framework density 23.265678000000001
#
# number of rings (size 3 to 8) (size 9 to 14) (size 15 to 20)
#    0.000    2.750    1.250    0.000    1.750    2.000 
#    0.000    0.000    0.000    6.000    0.000    0.000 
#    0.000    0.000    0.000    0.000    0.000    0.000 
#
# Total GULP energy -178790.087045 kJ/mol
# GULP energy per Si atom -5587.190220 kJ/mol
# Density = 2.321272 g / cm^3
# Si number density = 23.265678 Si / 1000 Ang^3
#
#
#
# Elastic Constant Matrix: (Units=GPa)
#
#
# Indices 1 2 3 4 5 6 
#
# 1 229.7068 119.1031 14.9551 0.0000 0.0000 0.0000
# 2 119.1031 152.0423 4.6257 0.0000 0.0000 0.0000
# 3 14.9551 4.6257 78.6336 0.0000 0.0000 0.0000
# 4 0.0000 0.0000 0.0000 34.8158 0.0000 0.0000
# 5 0.0000 0.0000 0.0000 0.0000 781.1683 0.0000
# 6 0.0000 0.0000 0.0000 0.0000 0.0000 29.0150
#
#
#
# Elastic Compliance Matrix: (Units=1/GPa)
#
#
# Indices 1 2 3 4 5 6 
#
# 1 0.007420 -0.005780 -0.001071 0.000000 0.000000 0.000000
# 2 -0.005780 0.011091 0.000447 0.000000 0.000000 0.000000
# 3 -0.001071 0.000447 0.012895 0.000000 0.000000 0.000000
# 4 0.000000 0.000000 0.000000 0.028723 0.000000 0.000000
# 5 0.000000 0.000000 0.000000 0.000000 0.001280 0.000000
# 6 0.000000 0.000000 0.000000 0.000000 0.000000 0.034465
#
#
# Mechanical properties :
#
#
# Convention : Reuss Voigt Hill
#
# Bulk Modulus (GPa) = 53.77112 81.97228 67.87170
# Shear Modulus (GPa) = 43.52321 190.44638 116.98480
#
# Velocity S-wave (km/s) = 4.32986 9.05731 7.09868
# Velocity P-wave (km/s) = 6.93966 12.02870 9.81958
#
# Compressibility (1/GPa) = 0.01859734
#
# Stress axis : x y z
#
# Youngs Moduli (GPa) = 134.77086 90.16120 77.55151
#
# Poissons Ratio (x) = 0.52112 0.08307
# Poissons Ratio (y) = 0.77896 -0.03465
# Poissons Ratio (z) = 0.14436 -0.04028
#
# Static dielectric constant tensor:
#      x y z
#    x 1.944840 0.000000 0.000000 
#    y 0.000000 1.791210 0.000000 
#    z 0.000000 0.000000 1.719290 
# 
# From -- ./inp_files/50338.got.cif
#   From: 2010.05.17/outbox.cif.g08.bks.cpg/sg63_26_cif.got.tgz:50338.got - 2010.06.03 15:47:04.
