data_PCOD9473004
_publ_section_title
;
Structure prediction by ZEFSAII (Michael W. Deem and Ramdas Pophale) SiO2 
 PCOD9473004
Probable space group: C M C M
;
_chemical_formula_sum "Si O2"
_cell_formula_units_Z 96
_cell_length_a 9.368686
_cell_length_b 20.606063
_cell_length_c 28.561147
_cell_angle_alpha 90.000000
_cell_angle_beta 90.000000
_cell_angle_gamma 90.000000
_cell_volume 5513.778952
_symmetry_space_group_name_H-M "C M C M"
_symmetry_group_IT_number 63
_symmetry_cell_setting 'orthorhombic'
loop_
_space_group_symop_operation_xyz
x,y,z
-x,-y,1/2+z
x,-y,-z
-x,y,1/2-z
-x,-y,-z
x,y,1/2-z
-x,y,z
x,-y,1/2+z
1/2+x,1/2+y,z
1/2-x,1/2-y,1/2+z
1/2+x,1/2-y,-z
1/2-x,1/2+y,1/2-z
1/2-x,1/2-y,-z
1/2+x,1/2+y,1/2-z
1/2-x,1/2+y,z
1/2+x,1/2-y,1/2+z
loop_
_atom_site_type_symbol
_atom_site_label
_atom_site_fract_x
_atom_site_fract_y
_atom_site_fract_z
Si Si1 0.668945 0.869788 0.107013
Si Si2 0.670686 0.170519 0.196476
Si Si3 0.670511 0.675866 0.804177
Si Si4 0.668714 0.261171 0.548049
Si Si5 0.829513 0.115995 0.390486
Si Si6 0.829679 0.983758 0.053875
O O1 0.500000 0.881573 0.111344
O O2 0.743298 0.864483 0.157611
O O3 0.689662 0.800322 0.081804
O O4 0.742855 0.924082 0.075079
O O5 0.709410 0.154060 0.250000
O O6 0.500000 0.163571 0.191708
O O7 0.703065 0.247252 0.189624
O O8 0.750799 0.128159 0.158220
O O9 0.702818 0.659438 0.750000
O O10 0.500000 0.667939 0.810998
O O11 0.500000 0.267291 0.538407
O O12 0.750000 0.250000 0.500000
O O13 0.716018 0.326458 0.574327
O O14 0.000000 0.122360 0.383589
O O15 0.802059 0.047132 0.414528
O O16 0.000000 0.969662 0.055224
O O17 0.793099 0.000000 0.000000
#
# Coordination Sequence:
#
# PCOD9473004 Si02
#       6
#    16  16  16  16  16  16
#     4  11  22  36  56  84 115 144 181 233 286 331
#     4   9  18  33  55  84 114 144 179 222 276 332
#     4   9  18  34  57  84 113 147 186 224 270 334
#     4  10  21  35  53  80 109 139 180 229 276 325
#     4  10  20  36  56  81 110 142 185 229 273 326
#     4  10  22  40  60  78 107 154 195 229 274 332
#
# _framework density 17.410927000000001
#
# number of rings (size 3 to 8) (size 9 to 14) (size 15 to 20)
#    0.000    2.167    1.667    2.500    0.000    5.000 
#    0.000    2.500    0.000    1.000    0.000    0.000 
#    0.000    0.000    0.000    0.000    0.000    0.000 
#
# Total GULP energy -267934.080814 kJ/mol
# GULP energy per Si atom -5581.960017 kJ/mol
# Density = 1.737130 g / cm^3
# Si number density = 17.410927 Si / 1000 Ang^3
#
#
#
# Elastic Constant Matrix: (Units=GPa)
#
#
# Indices 1 2 3 4 5 6 
#
# 1 37.3066 24.0567 44.6680 0.0000 0.0000 0.0000
# 2 24.0567 20.7720 -2.9615 0.0000 0.0000 0.0000
# 3 44.6680 -2.9615 99.9667 0.0000 0.0000 0.0000
# 4 0.0000 0.0000 0.0000 30.2699 0.0000 0.0000
# 5 0.0000 0.0000 0.0000 0.0000 33.9511 0.0000
# 6 0.0000 0.0000 0.0000 0.0000 0.0000 28.6877
#
#
#
# Elastic Compliance Matrix: (Units=1/GPa)
#
#
# Indices 1 2 3 4 5 6 
#
# 1 -0.072494 0.088952 0.035028 0.000000 0.000000 0.000000
# 2 0.088952 -0.060800 -0.041548 0.000000 0.000000 0.000000
# 3 0.035028 -0.041548 -0.006879 0.000000 0.000000 0.000000
# 4 0.000000 0.000000 0.000000 0.033036 0.000000 0.000000
# 5 0.000000 0.000000 0.000000 0.000000 0.029454 0.000000
# 6 0.000000 0.000000 0.000000 0.000000 0.000000 0.034858
#
#
# Mechanical properties :
#
#
# Convention : Reuss Voigt Hill
#
# Bulk Modulus (GPa) = 40.50019 32.17463 36.33741
# Shear Modulus (GPa) = -25.06775 24.73387 -0.16694
#
# Velocity S-wave (km/s) = -3.79855 3.77317 -0.30998
# Velocity P-wave (km/s) = 2.01823 6.12389 4.55935
#
# Compressibility (1/GPa) = 0.02469124
#
# Stress axis : x y z
#
# Youngs Moduli (GPa) = -13.79416 -16.44734 -145.37083
#
# Poissons Ratio (x) = 1.46303 5.09202
# Poissons Ratio (y) = 1.22702 -6.03981
# Poissons Ratio (z) = 0.48318 -0.68335
#
# Static dielectric constant tensor:
#      x y z
#    x 1.577420 0.000000 0.000000 
#    y 0.000000 1.577920 0.000000 
#    z 0.000000 0.000000 1.574820 
# 
# From -- ./inp_files/61498.got.cif
#   From: 2010.05.17/outbox.cif.g08.bks.cpg/sg63_31_cif.got.tgz:61498.got - 2010.06.03 15:47:04.
