data_PCOD9473176
_publ_section_title
;
Structure prediction by ZEFSAII (Michael W. Deem and Ramdas Pophale) SiO2 
 PCOD9473176
Probable space group: C M C M
;
_chemical_formula_sum "Si O2"
_cell_formula_units_Z 64
_cell_length_a 8.412701
_cell_length_b 18.376720
_cell_length_c 21.263795
_cell_angle_alpha 90.000000
_cell_angle_beta 90.000000
_cell_angle_gamma 90.000000
_cell_volume 3287.337005
_symmetry_space_group_name_H-M "C M C M"
_symmetry_group_IT_number 63
_symmetry_cell_setting 'orthorhombic'
loop_
_space_group_symop_operation_xyz
x,y,z
-x,-y,1/2+z
x,-y,-z
-x,y,1/2-z
-x,-y,-z
x,y,1/2-z
-x,y,z
x,-y,1/2+z
1/2+x,1/2+y,z
1/2-x,1/2-y,1/2+z
1/2+x,1/2-y,-z
1/2-x,1/2+y,1/2-z
1/2-x,1/2-y,-z
1/2+x,1/2+y,1/2-z
1/2-x,1/2+y,z
1/2+x,1/2-y,1/2+z
loop_
_atom_site_type_symbol
_atom_site_label
_atom_site_fract_x
_atom_site_fract_y
_atom_site_fract_z
Si Si1 0.690571 0.833103 0.126510
Si Si2 0.805900 0.583978 0.500428
Si Si3 0.192325 0.667847 0.374661
Si Si4 0.311103 0.584041 0.750000
Si Si5 0.307513 0.918833 0.750000
O O1 0.500000 0.833810 0.126554
O O2 0.748641 0.750261 0.126504
O O3 0.749303 0.874971 0.188096
O O4 0.745952 0.874461 0.063363
O O5 0.754354 0.500000 0.500000
O O6 0.754664 0.626349 0.437769
O O7 0.000000 0.583709 0.500343
O O8 0.243960 0.624175 0.312510
O O9 0.000000 0.668823 0.374639
O O10 0.500000 0.585993 0.750000
O O11 0.252780 0.501009 0.750000
O O12 0.500000 0.920947 0.750000
#
# Coordination Sequence:
#
# PCOD9473176 Si02
#       5
#    16  16  16   8   8
#     4  11  22  37  59  85 115 152 194 237 282 337
#     4   9  18  34  57  84 115 153 194 234 278 332
#     4  10  20  36  59  87 120 155 191 231 279 336
#     4  12  25  40  59  83 113 147 187 240 295 344
#     4  10  21  38  61  85 111 149 191 230 279 340
#
# _framework density 19.468647000000001
#
# number of rings (size 3 to 8) (size 9 to 14) (size 15 to 20)
#    0.000    1.750    0.000    4.875    0.000    6.000 
#    0.000    1.250    0.000    5.250    0.000    0.000 
#    0.000    0.000    0.000    0.000    0.000    0.000 
#
# Total GULP energy -178900.369404 kJ/mol
# GULP energy per Si atom -5590.636544 kJ/mol
# Density = 1.942434 g / cm^3
# Si number density = 19.468647 Si / 1000 Ang^3
#
#
#
# Elastic Constant Matrix: (Units=GPa)
#
#
# Indices 1 2 3 4 5 6 
#
# 1 18.3567 30.3605 35.4153 0.0000 0.0000 0.0000
# 2 30.3605 246.2194 154.8871 0.0000 0.0000 0.0000
# 3 35.4153 154.8871 250.5193 0.0000 0.0000 0.0000
# 4 0.0000 0.0000 0.0000 47.1415 0.0000 0.0000
# 5 0.0000 0.0000 0.0000 0.0000 -666.9151 0.0000
# 6 0.0000 0.0000 0.0000 0.0000 0.0000 33.3662
#
#
#
# Elastic Compliance Matrix: (Units=1/GPa)
#
#
# Indices 1 2 3 4 5 6 
#
# 1 0.077676 -0.004370 -0.008279 0.000000 0.000000 0.000000
# 2 -0.004370 0.006892 -0.003643 0.000000 0.000000 0.000000
# 3 -0.008279 -0.003643 0.007415 0.000000 0.000000 0.000000
# 4 0.000000 0.000000 0.000000 0.021213 0.000000 0.000000
# 5 0.000000 0.000000 0.000000 0.000000 -0.001499 0.000000
# 6 0.000000 0.000000 0.000000 0.000000 0.000000 0.029970
#
#
# Mechanical properties :
#
#
# Convention : Reuss Voigt Hill
#
# Bulk Modulus (GPa) = 16.83556 106.26904 61.55230
# Shear Modulus (GPa) = 25.76641 -97.65263 -35.94311
#
# Velocity S-wave (km/s) = 3.64192 -7.08998 -4.30141
# Velocity P-wave (km/s) = 5.13333 3.51006 2.64863
#
# Compressibility (1/GPa) = 0.05939808
#
# Stress axis : x y z
#
# Youngs Moduli (GPa) = 12.87397 145.09154 134.86695
#
# Poissons Ratio (x) = 0.63404 1.11658
# Poissons Ratio (y) = 0.05626 0.49138
# Poissons Ratio (z) = 0.10659 0.52863
#
# Static dielectric constant tensor:
#      x y z
#    x 1.671210 0.000000 0.000000 
#    y 0.000000 1.629650 0.000000 
#    z 0.000000 0.000000 1.683720 
# 
# From -- ./inp_files/50387.got.cif
#   From: 2010.05.17/outbox.cif.g08.bks.cpg/sg63_26_cif.got.tgz:50387.got - 2010.06.03 15:47:04.
