data_PCOD9473741
_publ_section_title
;
Structure prediction by ZEFSAII (Michael W. Deem and Ramdas Pophale) SiO2 
 PCOD9473741
Probable space group: C M C M
;
_chemical_formula_sum "Si O2"
_cell_formula_units_Z 112
_cell_length_a 13.451446
_cell_length_b 29.711715
_cell_length_c 14.029092
_cell_angle_alpha 90.000000
_cell_angle_beta 90.000000
_cell_angle_gamma 90.000000
_cell_volume 5606.944488
_symmetry_space_group_name_H-M "C M C M"
_symmetry_group_IT_number 63
_symmetry_cell_setting 'orthorhombic'
loop_
_space_group_symop_operation_xyz
x,y,z
-x,-y,1/2+z
x,-y,-z
-x,y,1/2-z
-x,-y,-z
x,y,1/2-z
-x,y,z
x,-y,1/2+z
1/2+x,1/2+y,z
1/2-x,1/2-y,1/2+z
1/2+x,1/2-y,-z
1/2-x,1/2+y,1/2-z
1/2-x,1/2-y,-z
1/2+x,1/2+y,1/2-z
1/2-x,1/2+y,z
1/2+x,1/2-y,1/2+z
loop_
_atom_site_type_symbol
_atom_site_label
_atom_site_fract_x
_atom_site_fract_y
_atom_site_fract_z
Si Si1 0.618272 0.204687 0.979710
Si Si2 0.393059 0.075961 0.133751
Si Si3 0.183496 0.115893 0.364030
Si Si4 0.880860 0.614707 0.861616
Si Si5 0.680579 0.018368 0.857458
Si Si6 0.107417 0.979243 0.603771
Si Si7 0.714506 0.285303 0.864778
O O1 0.500000 0.206274 0.996630
O O2 0.642828 0.157825 0.925957
O O3 0.652223 0.244117 0.907174
O O4 0.682223 0.211927 0.075990
O O5 0.394409 0.074254 0.250000
O O6 0.500000 0.093154 0.100563
O O7 0.298452 0.105954 0.110681
O O8 0.375798 0.024685 0.099927
O O9 0.174443 0.110846 0.250000
O O10 0.122194 0.074356 0.404365
O O11 0.159896 0.167186 0.387015
O O12 0.851977 0.622535 0.750000
O O13 0.831849 0.568162 0.898415
O O14 0.000000 0.608339 0.863131
O O15 0.640510 0.023507 0.750000
O O16 0.794161 0.001237 0.851927
O O17 0.000000 0.988419 0.648148
O O18 0.106276 0.000000 0.500000
O O19 0.728352 0.282502 0.750000
#
# Coordination Sequence:
#
# PCOD9473741 Si02
#       7
#    16  16  16  16  16  16  16
#     4  10  22  39  61  90 120 151 192 243 295 355
#     4   8  13  24  44  72 105 136 170 213 263 326
#     4   9  19  34  54  79 106 143 187 232 282 338
#     4   9  17  31  55  85 114 146 185 230 284 347
#     4   9  17  29  49  74 103 142 182 226 279 332
#     4  10  21  34  49  72 104 146 190 236 284 329
#     4  10  22  40  62  88 119 155 194 242 301 359
#
# _framework density 19.975228999999999
#
# number of rings (size 3 to 8) (size 9 to 14) (size 15 to 20)
#    0.000    2.714    0.000    2.143    2.000    5.143 
#    0.000    2.857    0.000    2.143    0.000    2.000 
#    0.000    0.000    0.000    0.000    0.000    0.000 
#
# Total GULP energy -312382.317092 kJ/mol
# GULP energy per Si atom -5578.255662 kJ/mol
# Density = 1.992976 g / cm^3
# Si number density = 19.975229 Si / 1000 Ang^3
#
#
#
# Elastic Constant Matrix: (Units=GPa)
#
#
# Indices 1 2 3 4 5 6 
#
# 1 61.4108 21.9704 6.4473 0.0000 0.0000 0.0000
# 2 21.9704 154.0464 39.5462 0.0000 0.0000 0.0000
# 3 6.4473 39.5462 100.0151 0.0000 0.0000 0.0000
# 4 0.0000 0.0000 0.0000 29.8308 0.0000 0.0000
# 5 0.0000 0.0000 0.0000 0.0000 1.4751 0.0000
# 6 0.0000 0.0000 0.0000 0.0000 0.0000 -5.6298
#
#
#
# Elastic Compliance Matrix: (Units=1/GPa)
#
#
# Indices 1 2 3 4 5 6 
#
# 1 0.017161 -0.002408 -0.000154 0.000000 0.000000 0.000000
# 2 -0.002408 0.007563 -0.002835 0.000000 0.000000 0.000000
# 3 -0.000154 -0.002835 0.011129 0.000000 0.000000 0.000000
# 4 0.000000 0.000000 0.000000 0.033522 0.000000 0.000000
# 5 0.000000 0.000000 0.000000 0.000000 0.677915 0.000000
# 6 0.000000 0.000000 0.000000 0.000000 0.000000 -0.177628
#
#
# Mechanical properties :
#
#
# Convention : Reuss Voigt Hill
#
# Bulk Modulus (GPa) = 39.90561 50.15556 45.03059
# Shear Modulus (GPa) = 8.49169 21.63578 15.06374
#
# Velocity S-wave (km/s) = 2.06406 3.29467 2.74911
# Velocity P-wave (km/s) = 5.06965 6.29575 5.71567
#
# Compressibility (1/GPa) = 0.02505913
#
# Stress axis : x y z
#
# Youngs Moduli (GPa) = 58.27005 132.22592 89.85174
#
# Poissons Ratio (x) = 0.31841 0.01385
# Poissons Ratio (y) = 0.14032 0.25474
# Poissons Ratio (z) = 0.00898 0.37488
#
# Static dielectric constant tensor:
#      x y z
#    x 1.709950 0.000000 0.000000 
#    y 0.000000 1.712530 0.000000 
#    z 0.000000 0.000000 1.752600 
# 
# From -- ./inp_files/32760.got.cif
#   From: 2010.05.17/outbox.cif.g08.bks.cpg/sg63_17_cif.got.tgz:32760.got - 2010.06.03 15:47:04.
