data_PCOD9473725
_publ_section_title
;
Structure prediction by ZEFSAII (Michael W. Deem and Ramdas Pophale) SiO2 
 PCOD9473725
Probable space group: C M C M
;
_chemical_formula_sum "Si O2"
_cell_formula_units_Z 80
_cell_length_a 18.655900
_cell_length_b 14.244453
_cell_length_c 13.580172
_cell_angle_alpha 90.000000
_cell_angle_beta 90.000000
_cell_angle_gamma 90.000000
_cell_volume 3608.836880
_symmetry_space_group_name_H-M "C M C M"
_symmetry_group_IT_number 63
_symmetry_cell_setting 'orthorhombic'
loop_
_space_group_symop_operation_xyz
x,y,z
-x,-y,1/2+z
x,-y,-z
-x,y,1/2-z
-x,-y,-z
x,y,1/2-z
-x,y,z
x,-y,1/2+z
1/2+x,1/2+y,z
1/2-x,1/2-y,1/2+z
1/2+x,1/2-y,-z
1/2-x,1/2+y,1/2-z
1/2-x,1/2-y,-z
1/2+x,1/2+y,1/2-z
1/2-x,1/2+y,z
1/2+x,1/2-y,1/2+z
loop_
_atom_site_type_symbol
_atom_site_label
_atom_site_fract_x
_atom_site_fract_y
_atom_site_fract_z
Si Si1 0.078067 0.019299 0.615641
Si Si2 0.143295 0.820029 0.856624
Si Si3 0.786301 0.897354 0.451783
Si Si4 0.915312 0.574950 0.139169
Si Si5 0.872134 0.368617 0.426305
O O1 0.146278 0.088371 0.621719
O O2 0.000000 0.053056 0.647816
O O3 0.073287 0.000000 0.500000
O O4 0.097902 0.915624 0.651374
O O5 0.179901 0.809200 0.750000
O O6 0.098061 0.726906 0.880634
O O7 0.191708 0.835460 0.953890
O O8 0.712665 0.867624 0.402805
O O9 0.771543 0.000000 0.500000
O O10 0.888425 0.596208 0.250000
O O11 0.904477 0.463900 0.117563
O O12 0.000000 0.595030 0.136176
O O13 0.880528 0.626303 0.045018
#
# Coordination Sequence:
#
# PCOD9473725 Si02
#       5
#    16  16  16  16  16
#     4   8  17  35  56  78 109 150 190 232 285 344
#     4  10  21  33  54  87 119 149 189 243 292 338
#     4   9  18  36  56  80 109 149 191 235 284 347
#     4  10  22  38  57  82 113 154 197 238 293 352
#     4  11  19  36  58  85 117 150 194 242 294 348
#
# _framework density 22.167807
#
# number of rings (size 3 to 8) (size 9 to 14) (size 15 to 20)
#    0.000    2.800    2.000    2.400    0.000    2.800 
#    0.000    1.000    0.000   19.200    0.000    0.000 
#    0.000    0.000    0.000    0.000    0.000    0.000 
#
# Total GULP energy -222847.463542 kJ/mol
# GULP energy per Si atom -5571.186589 kJ/mol
# Density = 2.211735 g / cm^3
# Si number density = 22.167807 Si / 1000 Ang^3
#
#
#
# Elastic Constant Matrix: (Units=GPa)
#
#
# Indices 1 2 3 4 5 6 
#
# 1 109.6293 5.9090 19.8944 0.0000 0.0000 0.0000
# 2 5.9090 67.6083 25.0857 0.0000 0.0000 0.0000
# 3 19.8944 25.0857 116.3394 0.0000 0.0000 0.0000
# 4 0.0000 0.0000 0.0000 -10.0246 0.0000 0.0000
# 5 0.0000 0.0000 0.0000 0.0000 41.5178 0.0000
# 6 0.0000 0.0000 0.0000 0.0000 0.0000 -1.2843
#
#
#
# Elastic Compliance Matrix: (Units=1/GPa)
#
#
# Indices 1 2 3 4 5 6 
#
# 1 0.009418 -0.000245 -0.001558 0.000000 0.000000 0.000000
# 2 -0.000245 0.016084 -0.003426 0.000000 0.000000 0.000000
# 3 -0.001558 -0.003426 0.009601 0.000000 0.000000 0.000000
# 4 0.000000 0.000000 0.000000 -0.099754 0.000000 0.000000
# 5 0.000000 0.000000 0.000000 0.000000 0.024086 0.000000
# 6 0.000000 0.000000 0.000000 0.000000 0.000000 -0.778654
#
#
# Mechanical properties :
#
#
# Convention : Reuss Voigt Hill
#
# Bulk Modulus (GPa) = 40.57753 43.92836 42.25294
# Shear Modulus (GPa) = -6.24572 22.22096 7.98762
#
# Velocity S-wave (km/s) = -1.68035 3.16950 1.90028
# Velocity P-wave (km/s) = 3.81833 5.76660 4.89046
#
# Compressibility (1/GPa) = 0.02464418
#
# Stress axis : x y z
#
# Youngs Moduli (GPa) = 106.18510 62.17452 104.15956
#
# Poissons Ratio (x) = 0.01524 0.16223
# Poissons Ratio (y) = 0.02603 0.35687
# Poissons Ratio (z) = 0.16539 0.21302
#
# Static dielectric constant tensor:
#      x y z
#    x 1.865150 0.000000 0.000000 
#    y 0.000000 1.868140 0.000000 
#    z 0.000000 0.000000 1.882320 
# 
# From -- ./inp_files/35115.got.cif
#   From: 2010.05.17/outbox.cif.g08.bks.cpg/sg63_18_cif.got.tgz:35115.got - 2010.06.03 15:47:04.
