data_PCOD9473581
_publ_section_title
;
Structure prediction by ZEFSAII (Michael W. Deem and Ramdas Pophale) SiO2 
 PCOD9473581
Probable space group: C M C M
;
_chemical_formula_sum "Si O2"
_cell_formula_units_Z 96
_cell_length_a 28.918976
_cell_length_b 10.289441
_cell_length_c 17.691306
_cell_angle_alpha 90.000000
_cell_angle_beta 90.000000
_cell_angle_gamma 90.000000
_cell_volume 5264.226735
_symmetry_space_group_name_H-M "C M C M"
_symmetry_group_IT_number 63
_symmetry_cell_setting 'orthorhombic'
loop_
_space_group_symop_operation_xyz
x,y,z
-x,-y,1/2+z
x,-y,-z
-x,y,1/2-z
-x,-y,-z
x,y,1/2-z
-x,y,z
x,-y,1/2+z
1/2+x,1/2+y,z
1/2-x,1/2-y,1/2+z
1/2+x,1/2-y,-z
1/2-x,1/2+y,1/2-z
1/2-x,1/2-y,-z
1/2+x,1/2+y,1/2-z
1/2-x,1/2+y,z
1/2+x,1/2-y,1/2+z
loop_
_atom_site_type_symbol
_atom_site_label
_atom_site_fract_x
_atom_site_fract_y
_atom_site_fract_z
Si Si1 0.643121 0.041119 0.340757
Si Si2 0.710224 0.723988 0.658704
Si Si3 0.317921 0.761848 0.158653
Si Si4 0.147569 0.997592 0.409039
Si Si5 0.447809 0.100854 0.431295
Si Si6 0.550686 0.402333 0.070908
O O1 0.641784 0.042146 0.250000
O O2 0.680040 0.150858 0.364197
O O3 0.593070 0.073448 0.373311
O O4 0.660068 0.898838 0.364983
O O5 0.708398 0.711896 0.750000
O O6 0.763750 0.739724 0.637576
O O7 0.686716 0.597807 0.622901
O O8 0.320479 0.751848 0.250000
O O9 0.343898 0.640901 0.122183
O O10 0.097078 0.942433 0.385311
O O11 0.149473 0.000000 0.500000
O O12 0.500000 0.083395 0.400443
O O13 0.444154 0.252468 0.454925
O O14 0.442742 0.000000 0.500000
O O15 0.500000 0.412358 0.109275
O O16 0.549291 0.500000 0.000000
#
# Coordination Sequence:
#
# PCOD9473581 Si02
#       6
#    16  16  16  16  16  16
#     4  10  21  36  57  84 112 146 187 236 279 319
#     4  10  20  39  61  80 109 154 196 226 270 335
#     4  10  22  39  59  80 111 153 192 227 273 339
#     4  11  22  35  57  89 115 145 182 234 287 321
#     4  10  21  37  60  85 110 148 188 226 278 339
#     4   9  19  36  56  82 113 147 185 222 275 338
#
# _framework density 18.236295999999999
#
# number of rings (size 3 to 8) (size 9 to 14) (size 15 to 20)
#    0.000    2.000    1.667    1.500    4.667    3.667 
#    0.000    1.667    0.000    3.000    0.000    0.000 
#    0.000    0.000    0.000    0.000    0.000    0.000 
#
# Total GULP energy -267784.159574 kJ/mol
# GULP energy per Si atom -5578.836658 kJ/mol
# Density = 1.819479 g / cm^3
# Si number density = 18.236296 Si / 1000 Ang^3
#
#
#
# Elastic Constant Matrix: (Units=GPa)
#
#
# Indices 1 2 3 4 5 6 
#
# 1 120.3749 57.2714 20.4687 0.0000 0.0000 0.0000
# 2 57.2714 155.5296 25.9981 0.0000 0.0000 0.0000
# 3 20.4687 25.9981 9.8269 0.0000 0.0000 0.0000
# 4 0.0000 0.0000 0.0000 28.3068 0.0000 0.0000
# 5 0.0000 0.0000 0.0000 0.0000 35.2939 0.0000
# 6 0.0000 0.0000 0.0000 0.0000 0.0000 32.9046
#
#
#
# Elastic Compliance Matrix: (Units=1/GPa)
#
#
# Indices 1 2 3 4 5 6 
#
# 1 0.012882 -0.000463 -0.025607 0.000000 0.000000 0.000000
# 2 -0.000463 0.011544 -0.029577 0.000000 0.000000 0.000000
# 3 -0.025607 -0.029577 0.233348 0.000000 0.000000 0.000000
# 4 0.000000 0.000000 0.000000 0.035327 0.000000 0.000000
# 5 0.000000 0.000000 0.000000 0.000000 0.028334 0.000000
# 6 0.000000 0.000000 0.000000 0.000000 0.000000 0.030391
#
#
# Mechanical properties :
#
#
# Convention : Reuss Voigt Hill
#
# Bulk Modulus (GPa) = 6.82683 54.80086 30.81385
# Shear Modulus (GPa) = 9.76664 31.43393 20.60028
#
# Velocity S-wave (km/s) = 2.31673 4.15625 3.36464
# Velocity P-wave (km/s) = 3.30272 7.29028 5.65934
#
# Compressibility (1/GPa) = 0.14648078
#
# Stress axis : x y z
#
# Youngs Moduli (GPa) = 77.62781 86.62345 4.28544
#
# Poissons Ratio (x) = 0.04012 0.10974
# Poissons Ratio (y) = 0.03596 0.12675
# Poissons Ratio (z) = 1.98781 2.56205
#
# Static dielectric constant tensor:
#      x y z
#    x 1.644200 0.000000 0.000000 
#    y 0.000000 1.614210 0.000000 
#    z 0.000000 0.000000 1.598530 
# 
# From -- ./inp_files/58064.got.cif
#   From: 2010.05.17/outbox.cif.g08.bks.cpg/sg63_30_cif.got.tgz:58064.got - 2010.06.03 15:47:04.
