data_PCOD9473598
_publ_section_title
;
Structure prediction by ZEFSAII (Michael W. Deem and Ramdas Pophale) SiO2 
 PCOD9473598
Probable space group: C M C M
;
_chemical_formula_sum "Si O2"
_cell_formula_units_Z 80
_cell_length_a 12.084452
_cell_length_b 15.192245
_cell_length_c 22.548931
_cell_angle_alpha 90.000000
_cell_angle_beta 90.000000
_cell_angle_gamma 90.000000
_cell_volume 4139.757238
_symmetry_space_group_name_H-M "C M C M"
_symmetry_group_IT_number 63
_symmetry_cell_setting 'orthorhombic'
loop_
_space_group_symop_operation_xyz
x,y,z
-x,-y,1/2+z
x,-y,-z
-x,y,1/2-z
-x,-y,-z
x,y,1/2-z
-x,y,z
x,-y,1/2+z
1/2+x,1/2+y,z
1/2-x,1/2-y,1/2+z
1/2+x,1/2-y,-z
1/2-x,1/2+y,1/2-z
1/2-x,1/2-y,-z
1/2+x,1/2+y,1/2-z
1/2-x,1/2+y,z
1/2+x,1/2-y,1/2+z
loop_
_atom_site_type_symbol
_atom_site_label
_atom_site_fract_x
_atom_site_fract_y
_atom_site_fract_z
Si Si1 0.500000 0.165288 0.679000
Si Si2 0.630697 0.826139 0.870333
Si Si3 0.870572 0.394980 0.003892
Si Si4 0.000000 0.135903 0.178442
Si Si5 0.266040 0.851416 0.376482
Si Si6 0.715343 0.471631 0.820490
O O1 0.500000 0.160385 0.750000
O O2 0.500000 0.265534 0.656454
O O3 0.384175 0.130625 0.655324
O O4 0.500000 0.812315 0.857877
O O5 0.703650 0.738349 0.858298
O O6 0.678941 0.910813 0.835737
O O7 0.642507 0.851419 0.939703
O O8 0.792882 0.353230 0.053797
O O9 0.000000 0.384808 0.021588
O O10 0.849301 0.500000 0.000000
O O11 0.110809 0.087195 0.161298
O O12 0.000000 0.140422 0.250000
O O13 0.202139 0.938158 0.356117
O O14 0.712988 0.488929 0.750000
#
# Coordination Sequence:
#
# PCOD9473598 Si02
#       6
#     8  16  16   8  16  16
#     4  11  22  38  63  93 119 161 217 256 294 360
#     4  11  25  42  63  93 129 162 205 257 314 372
#     4  10  20  39  64  91 120 163 210 256 310 364
#     4   9  20  42  62  82 122 166 205 248 305 368
#     4  12  23  40  66  91 125 163 207 259 308 368
#     4  11  24  41  64  91 124 165 205 252 309 372
#
# _framework density 19.324804
#
# number of rings (size 3 to 8) (size 9 to 14) (size 15 to 20)
#    0.000    1.200    5.000    1.200    2.800    1.200 
#    0.000    0.000    0.000    1.800    0.000    0.000 
#    0.000    0.000    0.000    0.000    0.000    0.000 
#
# Total GULP energy -223274.423880 kJ/mol
# GULP energy per Si atom -5581.860597 kJ/mol
# Density = 1.928082 g / cm^3
# Si number density = 19.324804 Si / 1000 Ang^3
#
#
#
# Elastic Constant Matrix: (Units=GPa)
#
#
# Indices 1 2 3 4 5 6 
#
# 1 52.1520 -6.0814 1.0506 0.0000 0.0000 0.0000
# 2 -6.0814 66.5392 -13.6812 0.0000 0.0000 0.0000
# 3 1.0506 -13.6812 41.3147 0.0000 0.0000 0.0000
# 4 0.0000 0.0000 0.0000 21.5871 0.0000 0.0000
# 5 0.0000 0.0000 0.0000 0.0000 15.8098 0.0000
# 6 0.0000 0.0000 0.0000 0.0000 0.0000 96.9328
#
#
#
# Elastic Compliance Matrix: (Units=1/GPa)
#
#
# Indices 1 2 3 4 5 6 
#
# 1 0.019382 0.001792 0.000101 0.000000 0.000000 0.000000
# 2 0.001792 0.016292 0.005350 0.000000 0.000000 0.000000
# 3 0.000101 0.005350 0.025973 0.000000 0.000000 0.000000
# 4 0.000000 0.000000 0.000000 0.046324 0.000000 0.000000
# 5 0.000000 0.000000 0.000000 0.000000 0.063252 0.000000
# 6 0.000000 0.000000 0.000000 0.000000 0.000000 0.010316
#
#
# Mechanical properties :
#
#
# Convention : Reuss Voigt Hill
#
# Bulk Modulus (GPa) = 13.13506 13.62021 13.37764
# Shear Modulus (GPa) = 25.98309 38.78045 32.38177
#
# Velocity S-wave (km/s) = 3.67078 4.48456 4.09792
# Velocity P-wave (km/s) = 4.97775 5.82051 5.41555
#
# Compressibility (1/GPa) = 0.07613211
#
# Stress axis : x y z
#
# Youngs Moduli (GPa) = 51.59517 61.37808 38.50087
#
# Poissons Ratio (x) = -0.10999 -0.00387
# Poissons Ratio (y) = -0.09246 -0.20597
# Poissons Ratio (z) = -0.00519 -0.32835
#
# Static dielectric constant tensor:
#      x y z
#    x 1.694880 0.000000 0.000000 
#    y 0.000000 1.645590 0.000000 
#    z 0.000000 0.000000 1.669240 
# 
# From -- ./inp_files/61146.got.cif
#   From: 2010.05.17/outbox.cif.g08.bks.cpg/sg63_31_cif.got.tgz:61146.got - 2010.06.03 15:47:04.
