data_PCOD9473636
_publ_section_title
;
Structure prediction by ZEFSAII (Michael W. Deem and Ramdas Pophale) SiO2 
 PCOD9473636
Probable space group: C M C M
;
_chemical_formula_sum "Si O2"
_cell_formula_units_Z 64
_cell_length_a 24.139274
_cell_length_b 8.339542
_cell_length_c 13.849255
_cell_angle_alpha 90.000000
_cell_angle_beta 90.000000
_cell_angle_gamma 90.000000
_cell_volume 2788.000301
_symmetry_space_group_name_H-M "C M C M"
_symmetry_group_IT_number 63
_symmetry_cell_setting 'orthorhombic'
loop_
_space_group_symop_operation_xyz
x,y,z
-x,-y,1/2+z
x,-y,-z
-x,y,1/2-z
-x,-y,-z
x,y,1/2-z
-x,y,z
x,-y,1/2+z
1/2+x,1/2+y,z
1/2-x,1/2-y,1/2+z
1/2+x,1/2-y,-z
1/2-x,1/2+y,1/2-z
1/2-x,1/2-y,-z
1/2+x,1/2+y,1/2-z
1/2-x,1/2+y,z
1/2+x,1/2-y,1/2+z
loop_
_atom_site_type_symbol
_atom_site_label
_atom_site_fract_x
_atom_site_fract_y
_atom_site_fract_z
Si Si1 0.667974 0.862717 0.075736
Si Si2 0.559937 0.967407 0.886151
Si Si3 0.898872 0.132617 0.933085
Si Si4 0.332687 0.429269 0.250000
Si Si5 0.238776 0.769951 0.750000
O O1 0.712899 0.802982 0.151649
O O2 0.615894 0.936400 0.137014
O O3 0.643721 0.723888 0.005513
O O4 0.687583 0.000000 0.000000
O O5 0.500000 0.017119 0.847711
O O6 0.567685 0.776090 0.881433
O O7 0.557392 0.000000 0.000000
O O8 0.867599 0.046572 0.845830
O O9 0.928404 0.000000 0.000000
O O10 0.304552 0.254409 0.250000
O O11 0.280994 0.547971 0.250000
#
# Coordination Sequence:
#
# PCOD9473636 Si02
#       5
#    16  16  16   8   8
#     4   9  21  39  64  85 124 153 197 247 301 350
#     4   8  17  35  64  92 116 156 197 235 295 359
#     4  10  20  40  58  88 122 156 191 249 298 351
#     4  12  28  38  62  85 119 159 211 248 304 351
#     4  12  26  42  58  89 115 161 207 254 296 361
#
# _framework density 22.955521999999998
#
# number of rings (size 3 to 8) (size 9 to 14) (size 15 to 20)
#    0.000    2.750    2.500    0.000    7.000    2.500 
#    0.000    2.500    0.000    1.500    0.000    0.000 
#    0.000    0.000    0.000    0.000    0.000    0.000 
#
# Total GULP energy -178447.150839 kJ/mol
# GULP energy per Si atom -5576.473464 kJ/mol
# Density = 2.290327 g / cm^3
# Si number density = 22.955522 Si / 1000 Ang^3
#
#
#
# Elastic Constant Matrix: (Units=GPa)
#
#
# Indices 1 2 3 4 5 6 
#
# 1 41.0867 -16.0206 15.5598 0.0000 0.0000 0.0000
# 2 -16.0206 47.0400 17.2901 0.0000 0.0000 0.0000
# 3 15.5598 17.2901 118.9162 0.0000 0.0000 0.0000
# 4 0.0000 0.0000 0.0000 14.6774 0.0000 0.0000
# 5 0.0000 0.0000 0.0000 0.0000 66.9292 0.0000
# 6 0.0000 0.0000 0.0000 0.0000 0.0000 -18.1219
#
#
#
# Elastic Compliance Matrix: (Units=1/GPa)
#
#
# Indices 1 2 3 4 5 6 
#
# 1 0.031702 0.013017 -0.006041 0.000000 0.000000 0.000000
# 2 0.013017 0.027804 -0.005746 0.000000 0.000000 0.000000
# 3 -0.006041 -0.005746 0.010035 0.000000 0.000000 0.000000
# 4 0.000000 0.000000 0.000000 0.068132 0.000000 0.000000
# 5 0.000000 0.000000 0.000000 0.000000 0.014941 0.000000
# 6 0.000000 0.000000 0.000000 0.000000 0.000000 -0.055182
#
#
# Mechanical properties :
#
#
# Convention : Reuss Voigt Hill
#
# Bulk Modulus (GPa) = 13.88842 26.74462 20.31652
# Shear Modulus (GPa) = 42.02673 25.37785 33.70229
#
# Velocity S-wave (km/s) = 4.28341 3.32855 3.83581
# Velocity P-wave (km/s) = 5.52511 5.14278 5.33737
#
# Compressibility (1/GPa) = 0.07200242
#
# Stress axis : x y z
#
# Youngs Moduli (GPa) = 31.54357 35.96627 99.64984
#
# Poissons Ratio (x) = -0.46818 0.60197
# Poissons Ratio (y) = -0.41061 0.57258
# Poissons Ratio (z) = 0.19055 0.20666
#
# Static dielectric constant tensor:
#      x y z
#    x 1.880860 0.000000 0.000000 
#    y 0.000000 1.949610 0.000000 
#    z 0.000000 0.000000 0.440330 
# 
# From -- ./inp_files/37476.got.cif
#   From: 2010.05.17/outbox.cif.g08.bks.cpg/sg63_19_cif.got.tgz:37476.got - 2010.06.03 15:47:04.
