data_PCOD9473511
_publ_section_title
;
Structure prediction by ZEFSAII (Michael W. Deem and Ramdas Pophale) SiO2 
 PCOD9473511
Probable space group: C M C M
;
_chemical_formula_sum "Si O2"
_cell_formula_units_Z 116
_cell_length_a 10.258068
_cell_length_b 25.405052
_cell_length_c 21.950917
_cell_angle_alpha 90.000000
_cell_angle_beta 90.000000
_cell_angle_gamma 90.000000
_cell_volume 5720.557160
_symmetry_space_group_name_H-M "C M C M"
_symmetry_group_IT_number 63
_symmetry_cell_setting 'orthorhombic'
loop_
_space_group_symop_operation_xyz
x,y,z
-x,-y,1/2+z
x,-y,-z
-x,y,1/2-z
-x,-y,-z
x,y,1/2-z
-x,y,z
x,-y,1/2+z
1/2+x,1/2+y,z
1/2-x,1/2-y,1/2+z
1/2+x,1/2-y,-z
1/2-x,1/2+y,1/2-z
1/2-x,1/2-y,-z
1/2+x,1/2+y,1/2-z
1/2-x,1/2+y,z
1/2+x,1/2-y,1/2+z
loop_
_atom_site_type_symbol
_atom_site_label
_atom_site_fract_x
_atom_site_fract_y
_atom_site_fract_z
Si Si1 0.348536 0.150686 0.486935
Si Si2 0.353973 0.562277 0.992549
Si Si3 0.500000 0.445591 0.250000
Si Si4 0.792782 0.079405 0.853755
Si Si5 0.647254 0.820907 0.130700
Si Si6 0.853281 0.100120 0.321910
Si Si7 0.348821 0.295197 0.598358
Si Si8 0.357792 0.015727 0.323620
O O1 0.500000 0.147029 0.466634
O O2 0.262498 0.097478 0.480426
O O3 0.351720 0.164943 0.558551
O O4 0.261485 0.194000 0.451906
O O5 0.500000 0.575446 0.017149
O O6 0.352561 0.575583 0.920804
O O7 0.333690 0.500000 0.000000
O O8 0.612206 0.442860 0.303088
O O9 0.748293 0.138779 0.839885
O O10 0.668309 0.040959 0.852454
O O11 0.500000 0.829495 0.153719
O O12 0.677381 0.759163 0.133513
O O13 0.831215 0.109180 0.250000
O O14 0.843351 0.154717 0.357163
O O15 0.000000 0.078913 0.328334
O O16 0.752424 0.056457 0.343259
O O17 0.500000 0.291487 0.574808
O O18 0.352411 0.011032 0.250000
O O19 0.500000 0.035930 0.340297
#
# Coordination Sequence:
#
# PCOD9473511 Si02
#       8
#    16  16   4  16  16  16  16  16
#     4  10  21  37  58  88 121 155 196 246 307 366
#     4  10  22  39  60  87 119 160 202 251 306 360
#     4  12  24  40  60  92 124 168 202 246 310 370
#     4  11  22  39  61  88 123 154 202 251 303 365
#     4   9  20  40  62  85 118 155 198 253 302 354
#     4   9  20  36  57  81 112 149 194 243 292 346
#     4  10  20  38  62  88 114 155 205 248 295 360
#     4  10  21  36  58  84 117 155 195 238 295 360
#
# _framework density 20.277746
#
# number of rings (size 3 to 8) (size 9 to 14) (size 15 to 20)
#    0.000    2.069    1.379    1.241    2.897    1.379 
#    2.483    0.000    0.000    0.000    0.000    0.000 
#    0.000    0.000    0.000    0.000    0.000    0.000 
#
# Total GULP energy -323337.860319 kJ/mol
# GULP energy per Si atom -5574.790695 kJ/mol
# Density = 2.023159 g / cm^3
# Si number density = 20.277746 Si / 1000 Ang^3
#
#
#
# Elastic Constant Matrix: (Units=GPa)
#
#
# Indices 1 2 3 4 5 6 
#
# 1 117.0457 48.6447 5.8453 0.0000 0.0000 0.0000
# 2 48.6447 102.7523 -9.5784 0.0000 0.0000 0.0000
# 3 5.8453 -9.5784 36.9010 0.0000 0.0000 0.0000
# 4 0.0000 0.0000 0.0000 9.6820 0.0000 0.0000
# 5 0.0000 0.0000 0.0000 0.0000 37.7115 0.0000
# 6 0.0000 0.0000 0.0000 0.0000 0.0000 -96.5138
#
#
#
# Elastic Compliance Matrix: (Units=1/GPa)
#
#
# Indices 1 2 3 4 5 6 
#
# 1 0.010986 -0.005496 -0.003167 0.000000 0.000000 0.000000
# 2 -0.005496 0.012723 0.004173 0.000000 0.000000 0.000000
# 3 -0.003167 0.004173 0.028684 0.000000 0.000000 0.000000
# 4 0.000000 0.000000 0.000000 0.103285 0.000000 0.000000
# 5 0.000000 0.000000 0.000000 0.000000 0.026517 0.000000
# 6 0.000000 0.000000 0.000000 0.000000 0.000000 -0.010361
#
#
# Mechanical properties :
#
#
# Convention : Reuss Voigt Hill
#
# Bulk Modulus (GPa) = 23.03418 38.50248 30.76833
# Shear Modulus (GPa) = 25.60354 4.29511 14.94933
#
# Velocity S-wave (km/s) = 3.55722 1.45696 2.71814
# Velocity P-wave (km/s) = 5.31562 4.67537 5.00574
#
# Compressibility (1/GPa) = 0.04341374
#
# Stress axis : x y z
#
# Youngs Moduli (GPa) = 91.02437 78.59685 34.86218
#
# Poissons Ratio (x) = 0.43198 0.11040
# Poissons Ratio (y) = 0.50029 -0.14549
# Poissons Ratio (z) = 0.28826 -0.32800
#
# Static dielectric constant tensor:
#      x y z
#    x 1.757270 0.000000 0.000000 
#    y 0.000000 1.710600 0.000000 
#    z 0.000000 0.000000 1.733410 
# 
# From -- ./inp_files/67473.got.cif
#   From: 2010.05.17/outbox.cif.g08.bks.cpg/sg63_34_cif.got.tgz:67473.got - 2010.06.03 15:47:04.
