data_PCOD9473444
_publ_section_title
;
Structure prediction by ZEFSAII (Michael W. Deem and Ramdas Pophale) SiO2 
 PCOD9473444
Probable space group: C M C M
;
_chemical_formula_sum "Si O2"
_cell_formula_units_Z 52
_cell_length_a 11.518821
_cell_length_b 13.952503
_cell_length_c 19.378184
_cell_angle_alpha 90.000000
_cell_angle_beta 90.000000
_cell_angle_gamma 90.000000
_cell_volume 3114.391672
_symmetry_space_group_name_H-M "C M C M"
_symmetry_group_IT_number 63
_symmetry_cell_setting 'orthorhombic'
loop_
_space_group_symop_operation_xyz
x,y,z
-x,-y,1/2+z
x,-y,-z
-x,y,1/2-z
-x,-y,-z
x,y,1/2-z
-x,y,z
x,-y,1/2+z
1/2+x,1/2+y,z
1/2-x,1/2-y,1/2+z
1/2+x,1/2-y,-z
1/2-x,1/2+y,1/2-z
1/2-x,1/2-y,-z
1/2+x,1/2+y,1/2-z
1/2-x,1/2+y,z
1/2+x,1/2-y,1/2+z
loop_
_atom_site_type_symbol
_atom_site_label
_atom_site_fract_x
_atom_site_fract_y
_atom_site_fract_z
Si Si1 0.368626 0.285563 0.750000
Si Si2 0.000000 0.970704 0.750000
Si Si3 0.500000 0.345256 0.170633
Si Si4 0.639505 0.113480 0.005200
Si Si5 0.265565 0.262347 0.389261
O O1 0.500000 0.244559 0.750000
O O2 0.390905 0.399969 0.750000
O O3 0.302288 0.256648 0.818721
O O4 0.000000 0.041055 0.684820
O O5 0.500000 0.304900 0.250000
O O6 0.613799 0.312723 0.130796
O O7 0.500000 0.126151 0.010009
O O8 0.689806 0.170256 0.939258
O O9 0.701497 0.165034 0.070000
O O10 0.663311 0.000000 0.000000
#
# Coordination Sequence:
#
# PCOD9473444 Si02
#       5
#     8   4   8  16  16
#     4  10  21  36  61  85 111 141 190 237 285 331
#     4   8  22  34  56  90 110 140 192 236 282 336
#     4  10  20  38  57  85 115 146 187 235 283 341
#     4  10  23  39  57  83 116 153 194 233 281 342
#     4  11  21  39  60  82 116 153 186 236 289 334
#
# _framework density 16.696679
#
# number of rings (size 3 to 8) (size 9 to 14) (size 15 to 20)
#    0.923    0.923    3.077    0.923    4.308    0.000 
#    0.000    0.769    0.000    0.000    0.000    0.000 
#    0.000    0.000    0.000    0.000    0.000    0.000 
#
# Total GULP energy -144863.002066 kJ/mol
# GULP energy per Si atom -5571.653926 kJ/mol
# Density = 1.665868 g / cm^3
# Si number density = 16.696679 Si / 1000 Ang^3
#
#
#
# Elastic Constant Matrix: (Units=GPa)
#
#
# Indices 1 2 3 4 5 6 
#
# 1 117.9437 60.2429 67.4092 0.0000 0.0000 0.0000
# 2 60.2429 111.8264 56.0939 0.0000 0.0000 0.0000
# 3 67.4092 56.0939 138.7380 0.0000 0.0000 0.0000
# 4 0.0000 0.0000 0.0000 -18.5851 0.0000 0.0000
# 5 0.0000 0.0000 0.0000 0.0000 29.1418 0.0000
# 6 0.0000 0.0000 0.0000 0.0000 0.0000 21.5744
#
#
#
# Elastic Compliance Matrix: (Units=1/GPa)
#
#
# Indices 1 2 3 4 5 6 
#
# 1 0.013702 -0.005070 -0.004607 0.000000 0.000000 0.000000
# 2 -0.005070 0.013094 -0.002830 0.000000 0.000000 0.000000
# 3 -0.004607 -0.002830 0.010591 0.000000 0.000000 0.000000
# 4 0.000000 0.000000 0.000000 -0.053807 0.000000 0.000000
# 5 0.000000 0.000000 0.000000 0.000000 0.034315 0.000000
# 6 0.000000 0.000000 0.000000 0.000000 0.000000 0.046351
#
#
# Mechanical properties :
#
#
# Convention : Reuss Voigt Hill
#
# Bulk Modulus (GPa) = 80.84011 81.77780 81.30895
# Shear Modulus (GPa) = 53.54183 18.74371 36.14277
#
# Velocity S-wave (km/s) = 5.66895 3.35416 4.65765
# Velocity P-wave (km/s) = 9.55883 8.00533 8.81637
#
# Compressibility (1/GPa) = 0.01237010
#
# Stress axis : x y z
#
# Youngs Moduli (GPa) = 72.98416 76.37281 94.42156
#
# Poissons Ratio (x) = 0.38723 0.43503
# Poissons Ratio (y) = 0.37005 0.26726
# Poissons Ratio (z) = 0.33626 0.21617
#
# Static dielectric constant tensor:
#      x y z
#    x 1.539600 0.000000 0.000000 
#    y 0.000000 1.545380 0.000000 
#    z 0.000000 0.000000 1.546240 
# 
# From -- ./inp_files/41304.got.cif
#   From: 2010.05.17/outbox.cif.g08.bks.cpg/sg63_21_cif.got.tgz:41304.got - 2010.06.03 15:47:04.
