data_PCOD9473851
_publ_section_title
;
Structure prediction by ZEFSAII (Michael W. Deem and Ramdas Pophale) SiO2 
 PCOD9473851
Probable space group: C M C M
;
_chemical_formula_sum "Si O2"
_cell_formula_units_Z 100
_cell_length_a 17.605746
_cell_length_b 22.960054
_cell_length_c 14.058809
_cell_angle_alpha 90.000000
_cell_angle_beta 90.000000
_cell_angle_gamma 90.000000
_cell_volume 5682.976600
_symmetry_space_group_name_H-M "C M C M"
_symmetry_group_IT_number 63
_symmetry_cell_setting 'orthorhombic'
loop_
_space_group_symop_operation_xyz
x,y,z
-x,-y,1/2+z
x,-y,-z
-x,y,1/2-z
-x,-y,-z
x,y,1/2-z
-x,y,z
x,-y,1/2+z
1/2+x,1/2+y,z
1/2-x,1/2-y,1/2+z
1/2+x,1/2-y,-z
1/2-x,1/2+y,1/2-z
1/2-x,1/2-y,-z
1/2+x,1/2+y,1/2-z
1/2-x,1/2+y,z
1/2+x,1/2-y,1/2+z
loop_
_atom_site_type_symbol
_atom_site_label
_atom_site_fract_x
_atom_site_fract_y
_atom_site_fract_z
Si Si1 0.183065 0.657230 0.861516
Si Si2 0.409504 0.274927 0.860366
Si Si3 0.210879 0.957037 0.857545
Si Si4 0.179122 0.141271 0.995628
Si Si5 0.500000 0.994750 0.250000
Si Si6 0.911461 0.054905 0.862497
Si Si7 0.136258 0.526054 0.896358
O O1 0.205646 0.652527 0.750000
O O2 0.123359 0.709689 0.869337
O O3 0.255481 0.668134 0.928980
O O4 0.146373 0.595715 0.891260
O O5 0.395641 0.293472 0.750000
O O6 0.500000 0.276404 0.875919
O O7 0.365972 0.314632 0.936542
O O8 0.203621 0.934152 0.750000
O O9 0.137642 0.996778 0.879506
O O10 0.283708 0.998753 0.862503
O O11 0.216837 0.906431 0.934455
O O12 0.122480 0.106037 0.926634
O O13 0.433113 0.992216 0.331205
O O14 0.902656 0.068652 0.750000
O O15 0.000000 0.045457 0.882202
O O16 0.123850 0.500000 0.000000
#
# Coordination Sequence:
#
# PCOD9473851 Si02
#       7
#    16  16  16  16   4  16  16
#     4  11  22  39  65  87 118 158 204 249 299 356
#     4  10  24  42  61  86 118 154 203 257 304 351
#     4  11  21  37  59  84 126 163 195 242 301 365
#     4  12  21  37  61  90 116 159 197 252 300 366
#     4  12  26  36  64  90 130 156 206 252 310 344
#     4  10  21  35  55  88 122 162 204 246 297 358
#     4  12  22  40  61  94 120 162 203 245 303 364
#
# _framework density 17.596412000000001
#
# number of rings (size 3 to 8) (size 9 to 14) (size 15 to 20)
#    0.000    0.960    4.800    2.640    1.120    1.920 
#    0.000    1.600    0.000    0.000    0.000    0.000 
#    0.000    0.000    0.000    0.000    0.000    0.000 
#
# Total GULP energy -278810.630771 kJ/mol
# GULP energy per Si atom -5576.212615 kJ/mol
# Density = 1.755636 g / cm^3
# Si number density = 17.596412 Si / 1000 Ang^3
#
#
#
# Elastic Constant Matrix: (Units=GPa)
#
#
# Indices 1 2 3 4 5 6 
#
# 1 52.8737 1.1881 14.8082 0.0000 0.0000 0.0000
# 2 1.1881 59.5242 28.1694 0.0000 0.0000 0.0000
# 3 14.8082 28.1694 110.8204 0.0000 0.0000 0.0000
# 4 0.0000 0.0000 0.0000 -7.5106 0.0000 0.0000
# 5 0.0000 0.0000 0.0000 0.0000 38.6936 0.0000
# 6 0.0000 0.0000 0.0000 0.0000 0.0000 10.3660
#
#
#
# Elastic Compliance Matrix: (Units=1/GPa)
#
#
# Indices 1 2 3 4 5 6 
#
# 1 0.019697 0.000969 -0.002878 0.000000 0.000000 0.000000
# 2 0.000969 0.019145 -0.004996 0.000000 0.000000 0.000000
# 3 -0.002878 -0.004996 0.010678 0.000000 0.000000 0.000000
# 4 0.000000 0.000000 0.000000 -0.133145 0.000000 0.000000
# 5 0.000000 0.000000 0.000000 0.000000 0.025844 0.000000
# 6 0.000000 0.000000 0.000000 0.000000 0.000000 0.096470
#
#
# Mechanical properties :
#
#
# Convention : Reuss Voigt Hill
#
# Bulk Modulus (GPa) = 28.00352 34.61664 31.31008
# Shear Modulus (GPa) = 77.63682 20.24663 48.94173
#
# Velocity S-wave (km/s) = 6.64956 3.39575 5.27957
# Velocity P-wave (km/s) = 8.65473 5.92369 7.41601
#
# Compressibility (1/GPa) = 0.03570979
#
# Stress axis : x y z
#
# Youngs Moduli (GPa) = 50.76828 52.23349 93.64942
#
# Poissons Ratio (x) = -0.05061 0.26955
# Poissons Ratio (y) = -0.04919 0.46786
# Poissons Ratio (z) = 0.14613 0.26095
#
# Static dielectric constant tensor:
#      x y z
#    x 1.577310 0.000000 0.000000 
#    y 0.000000 1.579400 0.000000 
#    z 0.000000 0.000000 1.443640 
# 
# From -- ./inp_files/34204.got.cif
#   From: 2010.05.17/outbox.cif.g08.bks.cpg/sg63_18_cif.got.tgz:34204.got - 2010.06.03 15:47:04.
