data_PCOD9473195
_publ_section_title
;
Structure prediction by ZEFSAII (Michael W. Deem and Ramdas Pophale) SiO2 
 PCOD9473195
Probable space group: C M C M
;
_chemical_formula_sum "Si O2"
_cell_formula_units_Z 116
_cell_length_a 17.445070
_cell_length_b 14.631678
_cell_length_c 24.016334
_cell_angle_alpha 90.000000
_cell_angle_beta 90.000000
_cell_angle_gamma 90.000000
_cell_volume 6130.184790
_symmetry_space_group_name_H-M "C M C M"
_symmetry_group_IT_number 63
_symmetry_cell_setting 'orthorhombic'
loop_
_space_group_symop_operation_xyz
x,y,z
-x,-y,1/2+z
x,-y,-z
-x,y,1/2-z
-x,-y,-z
x,y,1/2-z
-x,y,z
x,-y,1/2+z
1/2+x,1/2+y,z
1/2-x,1/2-y,1/2+z
1/2+x,1/2-y,-z
1/2-x,1/2+y,1/2-z
1/2-x,1/2-y,-z
1/2+x,1/2+y,1/2-z
1/2-x,1/2+y,z
1/2+x,1/2-y,1/2+z
loop_
_atom_site_type_symbol
_atom_site_label
_atom_site_fract_x
_atom_site_fract_y
_atom_site_fract_z
Si Si1 0.631248 0.147569 0.407054
Si Si2 0.586172 0.807373 0.030264
Si Si3 0.687291 0.330511 0.906231
Si Si4 0.588096 0.947481 0.368842
Si Si5 0.293832 0.181624 0.685366
Si Si6 0.000000 0.133268 0.750000
Si Si7 0.619876 0.338604 0.148770
Si Si8 0.589981 0.499589 0.434550
O O1 0.594680 0.158575 0.467720
O O2 0.723099 0.151559 0.414982
O O3 0.607093 0.233698 0.369510
O O4 0.607618 0.052457 0.379687
O O5 0.500000 0.769859 0.038812
O O6 0.648682 0.730992 0.045459
O O7 0.596217 0.891156 0.073196
O O8 0.680379 0.269036 0.850892
O O9 0.640894 0.424282 0.904270
O O10 0.500000 0.938051 0.350607
O O11 0.646728 0.899337 0.327133
O O12 0.290839 0.203976 0.750000
O O13 0.209392 0.153741 0.664553
O O14 0.933335 0.135709 0.700569
O O15 0.603179 0.403367 0.095939
O O16 0.610872 0.500000 0.500000
O O17 0.500000 0.522303 0.430632
#
# Coordination Sequence:
#
# PCOD9473195 Si02
#       8
#    16  16  16  16  16   4  16  16
#     4  11  22  37  60  90 121 160 200 244 306 370
#     4  10  20  36  60  85 123 157 194 250 303 364
#     4  10  22  38  59  91 118 156 203 249 305 360
#     4  10  22  38  59  90 121 156 202 248 303 367
#     4  10  22  45  63  84 120 159 206 259 305 360
#     4  12  24  44  62  88 124 166 212 254 298 368
#     4  11  24  42  64  90 122 163 206 254 308 367
#     4  11  23  40  63  94 127 160 203 258 318 381
#
# _framework density 18.922758000000002
#
# number of rings (size 3 to 8) (size 9 to 14) (size 15 to 20)
#    0.000    1.517    1.379    3.310    1.931    6.345 
#    2.483    1.379    0.000    0.000    0.000    0.000 
#    0.000    0.000    0.000    0.000    0.000    0.000 
#
# Total GULP energy -323610.406855 kJ/mol
# GULP energy per Si atom -5579.489773 kJ/mol
# Density = 1.887969 g / cm^3
# Si number density = 18.922758 Si / 1000 Ang^3
#
#
#
# Elastic Constant Matrix: (Units=GPa)
#
#
# Indices 1 2 3 4 5 6 
#
# 1 90.2748 38.7344 31.8315 0.0000 0.0000 0.0000
# 2 38.7344 64.4031 0.1040 0.0000 0.0000 0.0000
# 3 31.8315 0.1040 79.6303 0.0000 0.0000 0.0000
# 4 0.0000 0.0000 0.0000 8.8417 0.0000 0.0000
# 5 0.0000 0.0000 0.0000 0.0000 102.3592 0.0000
# 6 0.0000 0.0000 0.0000 0.0000 0.0000 38.2791
#
#
#
# Elastic Compliance Matrix: (Units=1/GPa)
#
#
# Indices 1 2 3 4 5 6 
#
# 1 0.018415 -0.011063 -0.007347 0.000000 0.000000 0.000000
# 2 -0.011063 0.022174 0.004394 0.000000 0.000000 0.000000
# 3 -0.007347 0.004394 0.015489 0.000000 0.000000 0.000000
# 4 0.000000 0.000000 0.000000 0.113100 0.000000 0.000000
# 5 0.000000 0.000000 0.000000 0.000000 0.009770 0.000000
# 6 0.000000 0.000000 0.000000 0.000000 0.000000 0.026124
#
#
# Mechanical properties :
#
#
# Convention : Reuss Voigt Hill
#
# Bulk Modulus (GPa) = 35.65734 41.73866 38.69800
# Shear Modulus (GPa) = 20.62256 40.80524 30.71390
#
# Velocity S-wave (km/s) = 3.30484 4.64875 4.03317
# Velocity P-wave (km/s) = 5.78335 7.13581 6.49488
#
# Compressibility (1/GPa) = 0.02804472
#
# Stress axis : x y z
#
# Youngs Moduli (GPa) = 54.30415 45.09773 64.56170
#
# Poissons Ratio (x) = 0.49894 0.47431
# Poissons Ratio (y) = 0.60079 -0.28365
# Poissons Ratio (z) = 0.39896 -0.19814
#
# Static dielectric constant tensor:
#      x y z
#    x 1.662030 0.000000 0.000000 
#    y 0.000000 1.643680 0.000000 
#    z 0.000000 0.000000 1.627360 
# 
# From -- ./inp_files/63923.got.cif
#   From: 2010.05.17/outbox.cif.g08.bks.cpg/sg63_32_cif.got.tgz:63923.got - 2010.06.03 15:47:04.
