data_PCOD9473052
_publ_section_title
;
Structure prediction by ZEFSAII (Michael W. Deem and Ramdas Pophale) SiO2 
 PCOD9473052
Probable space group: C M C M
;
_chemical_formula_sum "Si O2"
_cell_formula_units_Z 64
_cell_length_a 8.713494
_cell_length_b 14.627365
_cell_length_c 25.494463
_cell_angle_alpha 90.000000
_cell_angle_beta 90.000000
_cell_angle_gamma 90.000000
_cell_volume 3249.408437
_symmetry_space_group_name_H-M "C M C M"
_symmetry_group_IT_number 63
_symmetry_cell_setting 'orthorhombic'
loop_
_space_group_symop_operation_xyz
x,y,z
-x,-y,1/2+z
x,-y,-z
-x,y,1/2-z
-x,-y,-z
x,y,1/2-z
-x,y,z
x,-y,1/2+z
1/2+x,1/2+y,z
1/2-x,1/2-y,1/2+z
1/2+x,1/2-y,-z
1/2-x,1/2+y,1/2-z
1/2-x,1/2-y,-z
1/2+x,1/2+y,1/2-z
1/2-x,1/2+y,z
1/2+x,1/2-y,1/2+z
loop_
_atom_site_type_symbol
_atom_site_label
_atom_site_fract_x
_atom_site_fract_y
_atom_site_fract_z
Si Si1 0.679250 0.320113 0.114881
Si Si2 0.680558 0.681844 0.043101
Si Si3 0.820033 0.500338 0.579977
Si Si4 0.181195 0.450188 0.308342
O O1 0.500000 0.299632 0.110948
O O2 0.779270 0.234669 0.097156
O O3 0.724872 0.405585 0.076744
O O4 0.725546 0.362070 0.171145
O O5 0.500000 0.672468 0.035809
O O6 0.759589 0.583225 0.046439
O O7 0.750000 0.750000 0.000000
O O8 0.801290 0.479806 0.642888
O O9 0.000000 0.517391 0.569929
O O10 0.225643 0.479622 0.250000
O O11 0.000000 0.427441 0.307940
#
# Coordination Sequence:
#
# PCOD9473052 Si02
#       4
#    16  16  16  16
#     4  10  20  36  57  84 115 148 185 228 274 331
#     4  12  24  39  58  82 111 148 188 233 279 332
#     4   9  19  37  58  83 114 147 184 230 275 328
#     4   8  16  34  59  83 112 148 183 225 276 326
#
# _framework density 19.695893000000002
#
# number of rings (size 3 to 8) (size 9 to 14) (size 15 to 20)
#    1.500    0.750    0.000    4.500    0.000    1.500 
#    0.000    6.250    0.000    4.500    0.000    0.000 
#    0.000    0.000    0.000    0.000    0.000    0.000 
#
# Total GULP energy -178191.291579 kJ/mol
# GULP energy per Si atom -5568.477862 kJ/mol
# Density = 1.965106 g / cm^3
# Si number density = 19.695893 Si / 1000 Ang^3
#
#
#
# Elastic Constant Matrix: (Units=GPa)
#
#
# Indices 1 2 3 4 5 6 
#
# 1 75.6195 -5.8105 1.4578 0.0000 0.0000 0.0000
# 2 -5.8105 43.0195 -9.8385 0.0000 0.0000 0.0000
# 3 1.4578 -9.8385 71.3458 0.0000 0.0000 0.0000
# 4 0.0000 0.0000 0.0000 22.7148 0.0000 0.0000
# 5 0.0000 0.0000 0.0000 0.0000 23.2864 0.0000
# 6 0.0000 0.0000 0.0000 0.0000 0.0000 28.7050
#
#
#
# Elastic Compliance Matrix: (Units=1/GPa)
#
#
# Indices 1 2 3 4 5 6 
#
# 1 0.013363 0.001799 -0.000025 0.000000 0.000000 0.000000
# 2 0.001799 0.024244 0.003307 0.000000 0.000000 0.000000
# 3 -0.000025 0.003307 0.014473 0.000000 0.000000 0.000000
# 4 0.000000 0.000000 0.000000 0.044024 0.000000 0.000000
# 5 0.000000 0.000000 0.000000 0.000000 0.042944 0.000000
# 6 0.000000 0.000000 0.000000 0.000000 0.000000 0.034837
#
#
# Mechanical properties :
#
#
# Convention : Reuss Voigt Hill
#
# Bulk Modulus (GPa) = 16.06642 17.95580 17.01111
# Shear Modulus (GPa) = 27.10459 28.55297 27.82878
#
# Velocity S-wave (km/s) = 3.71368 3.81161 3.76296
# Velocity P-wave (km/s) = 5.15398 5.33924 5.24743
#
# Compressibility (1/GPa) = 0.06224161
#
# Stress axis : x y z
#
# Youngs Moduli (GPa) = 74.83441 41.24648 69.09551
#
# Poissons Ratio (x) = -0.07421 0.00172
# Poissons Ratio (y) = -0.13464 -0.22847
# Poissons Ratio (z) = 0.00187 -0.13638
#
# Static dielectric constant tensor:
#      x y z
#    x 1.648520 0.000000 0.000000 
#    y 0.000000 1.680070 0.000000 
#    z 0.000000 0.000000 1.805240 
# 
# From -- ./inp_files/59066.got.cif
#   From: 2010.05.17/outbox.cif.g08.bks.cpg/sg63_30_cif.got.tgz:59066.got - 2010.06.03 15:47:04.
