data_PCOD9473939
_publ_section_title
;
Structure prediction by ZEFSAII (Michael W. Deem and Ramdas Pophale) SiO2 
 PCOD9473939
Probable space group: C M C M
;
_chemical_formula_sum "Si O2"
_cell_formula_units_Z 64
_cell_length_a 7.519329
_cell_length_b 9.975058
_cell_length_c 34.470797
_cell_angle_alpha 90.000000
_cell_angle_beta 90.000000
_cell_angle_gamma 90.000000
_cell_volume 2585.507737
_symmetry_space_group_name_H-M "C M C M"
_symmetry_group_IT_number 63
_symmetry_cell_setting 'orthorhombic'
loop_
_space_group_symop_operation_xyz
x,y,z
-x,-y,1/2+z
x,-y,-z
-x,y,1/2-z
-x,-y,-z
x,y,1/2-z
-x,y,z
x,-y,1/2+z
1/2+x,1/2+y,z
1/2-x,1/2-y,1/2+z
1/2+x,1/2-y,-z
1/2-x,1/2+y,1/2-z
1/2-x,1/2-y,-z
1/2+x,1/2+y,1/2-z
1/2-x,1/2+y,z
1/2+x,1/2-y,1/2+z
loop_
_atom_site_type_symbol
_atom_site_label
_atom_site_fract_x
_atom_site_fract_y
_atom_site_fract_z
Si Si1 0.284137 0.350900 0.706340
Si Si2 0.706934 0.102973 0.659462
Si Si3 0.787841 0.191235 0.542215
Si Si4 0.294419 0.941865 0.587112
O O1 0.229158 0.315536 0.750000
O O2 0.500000 0.350237 0.705437
O O3 0.218094 0.243023 0.674737
O O4 0.220071 0.497503 0.694498
O O5 0.500000 0.127721 0.650087
O O6 0.788292 0.024286 0.622829
O O7 0.750000 0.250000 0.500000
O O8 0.712068 0.045455 0.551309
O O9 0.717720 0.300221 0.573516
O O10 0.000000 0.180870 0.546064
O O11 0.500000 0.915581 0.597111
#
# Coordination Sequence:
#
# PCOD9473939 Si02
#       4
#    16  16  16  16
#     4  10  21  36  55  82 113 144 182 226 271 324
#     4  10  21  38  59  82 111 147 185 228 278 329
#     4  11  23  38  58  84 113 147 187 229 277 333
#     4  10  22  39  58  83 113 144 184 232 277 328
#
# _framework density 24.753359
#
# number of rings (size 3 to 8) (size 9 to 14) (size 15 to 20)
#    0.000    1.750    0.000    3.750    0.000    8.500 
#    0.000    0.000    0.000    0.000    0.000    0.000 
#    0.000    0.000    0.000    0.000    0.000    0.000 
#
# Total GULP energy -179053.175265 kJ/mol
# GULP energy per Si atom -5595.411727 kJ/mol
# Density = 2.469702 g / cm^3
# Si number density = 24.753359 Si / 1000 Ang^3
#
#
#
# Elastic Constant Matrix: (Units=GPa)
#
#
# Indices 1 2 3 4 5 6 
#
# 1 80.1659 -4.9028 3.1501 0.0000 0.0000 0.0000
# 2 -4.9028 102.1369 -12.7963 0.0000 0.0000 0.0000
# 3 3.1501 -12.7963 73.6707 0.0000 0.0000 0.0000
# 4 0.0000 0.0000 0.0000 49.6826 0.0000 0.0000
# 5 0.0000 0.0000 0.0000 0.0000 17.9860 0.0000
# 6 0.0000 0.0000 0.0000 0.0000 0.0000 14.8611
#
#
#
# Elastic Compliance Matrix: (Units=1/GPa)
#
#
# Indices 1 2 3 4 5 6 
#
# 1 0.012525 0.000546 -0.000441 0.000000 0.000000 0.000000
# 2 0.000546 0.010032 0.001719 0.000000 0.000000 0.000000
# 3 -0.000441 0.001719 0.013891 0.000000 0.000000 0.000000
# 4 0.000000 0.000000 0.000000 0.020128 0.000000 0.000000
# 5 0.000000 0.000000 0.000000 0.000000 0.055599 0.000000
# 6 0.000000 0.000000 0.000000 0.000000 0.000000 0.067290
#
#
# Mechanical properties :
#
#
# Convention : Reuss Voigt Hill
#
# Bulk Modulus (GPa) = 24.93912 25.20841 25.07377
# Shear Modulus (GPa) = 26.42956 34.54076 30.48516
#
# Velocity S-wave (km/s) = 3.27114 3.73955 3.51316
# Velocity P-wave (km/s) = 4.93599 5.37137 5.15828
#
# Compressibility (1/GPa) = 0.04009764
#
# Stress axis : x y z
#
# Youngs Moduli (GPa) = 79.84132 99.67722 71.98709
#
# Poissons Ratio (x) = -0.05442 0.03173
# Poissons Ratio (y) = -0.04359 -0.12376
# Poissons Ratio (z) = 0.03519 -0.17137
#
# Static dielectric constant tensor:
#      x y z
#    x 1.962750 0.000000 0.000000 
#    y 0.000000 1.907120 0.000000 
#    z 0.000000 0.000000 2.001670 
# 
# From -- ./inp_files/71334.got.cif
#   From: 2010.05.17/outbox.cif.g08.bks.cpg/sg63_36_cif.got.tgz:71334.got - 2010.06.03 15:47:04.
