data_PCOD9473239
_publ_section_title
;
Structure prediction by ZEFSAII (Michael W. Deem and Ramdas Pophale) SiO2 
 PCOD9473239
Probable space group: C M C M
;
_chemical_formula_sum "Si O2"
_cell_formula_units_Z 96
_cell_length_a 20.532201
_cell_length_b 15.338453
_cell_length_c 15.090555
_cell_angle_alpha 90.000000
_cell_angle_beta 90.000000
_cell_angle_gamma 90.000000
_cell_volume 4752.501686
_symmetry_space_group_name_H-M "C M C M"
_symmetry_group_IT_number 63
_symmetry_cell_setting 'orthorhombic'
loop_
_space_group_symop_operation_xyz
x,y,z
-x,-y,1/2+z
x,-y,-z
-x,y,1/2-z
-x,-y,-z
x,y,1/2-z
-x,y,z
x,-y,1/2+z
1/2+x,1/2+y,z
1/2-x,1/2-y,1/2+z
1/2+x,1/2-y,-z
1/2-x,1/2+y,1/2-z
1/2-x,1/2-y,-z
1/2+x,1/2+y,1/2-z
1/2-x,1/2+y,z
1/2+x,1/2-y,1/2+z
loop_
_atom_site_type_symbol
_atom_site_label
_atom_site_fract_x
_atom_site_fract_y
_atom_site_fract_z
Si Si1 0.393918 0.411671 0.552913
Si Si2 0.787229 0.707850 0.250000
Si Si3 0.749490 0.657780 0.445807
Si Si4 0.855189 0.858109 0.250000
Si Si5 0.570348 0.275459 0.414372
Si Si6 0.924555 0.036472 0.250000
Si Si7 0.112600 0.577139 0.060571
Si Si8 0.079213 0.595393 0.250000
O O1 0.411907 0.500000 0.500000
O O2 0.317173 0.393416 0.540260
O O3 0.426620 0.331139 0.503122
O O4 0.412912 0.416190 0.656168
O O5 0.756045 0.676399 0.340684
O O6 0.785009 0.813199 0.250000
O O7 0.863734 0.672251 0.250000
O O8 0.750000 0.750000 0.500000
O O9 0.812898 0.599338 0.465650
O O10 0.882930 0.820693 0.156996
O O11 0.872260 0.958339 0.250000
O O12 0.500000 0.282143 0.371559
O O13 0.582474 0.174666 0.437445
O O14 0.000000 0.004510 0.250000
O O15 0.098703 0.546537 0.160735
O O16 0.086734 0.500000 0.000000
O O17 0.000000 0.614298 0.250000
#
# Coordination Sequence:
#
# PCOD9473239 Si02
#       8
#    16   8  16   8  16   8  16   8
#     4  12  25  42  65  94 128 172 216 261 324 384
#     4  10  21  37  62  89 123 162 208 256 323 369
#     4  11  21  43  65  91 127 168 213 265 317 380
#     4  12  20  39  65  97 123 164 211 267 321 366
#     4  12  23  39  65  95 131 165 209 267 321 378
#     4  12  27  42  62  95 135 171 212 261 324 398
#     4  11  23  41  65  95 127 167 213 266 323 377
#     4  10  20  36  61  91 124 155 204 266 310 365
#
# _framework density 20.199887
#
# number of rings (size 3 to 8) (size 9 to 14) (size 15 to 20)
#    0.000    0.667    6.667    2.750    0.000    2.333 
#    0.000    1.667    0.000    1.000    0.000    0.000 
#    0.000    0.000    0.000    0.000    0.000    0.000 
#
# Total GULP energy -267507.225387 kJ/mol
# GULP energy per Si atom -5573.067196 kJ/mol
# Density = 2.015391 g / cm^3
# Si number density = 20.199887 Si / 1000 Ang^3
#
#
#
# Elastic Constant Matrix: (Units=GPa)
#
#
# Indices 1 2 3 4 5 6 
#
# 1 61.7460 -17.3418 -12.6183 0.0000 0.0000 0.0000
# 2 -17.3418 76.3712 58.1575 0.0000 0.0000 0.0000
# 3 -12.6183 58.1575 152.0068 0.0000 0.0000 0.0000
# 4 0.0000 0.0000 0.0000 30.3861 0.0000 0.0000
# 5 0.0000 0.0000 0.0000 0.0000 28.4897 0.0000
# 6 0.0000 0.0000 0.0000 0.0000 0.0000 -43.2105
#
#
#
# Elastic Compliance Matrix: (Units=1/GPa)
#
#
# Indices 1 2 3 4 5 6 
#
# 1 0.017300 0.004000 -0.000094 0.000000 0.000000 0.000000
# 2 0.004000 0.019402 -0.007091 0.000000 0.000000 0.000000
# 3 -0.000094 -0.007091 0.009284 0.000000 0.000000 0.000000
# 4 0.000000 0.000000 0.000000 0.032910 0.000000 0.000000
# 5 0.000000 0.000000 0.000000 0.000000 0.035100 0.000000
# 6 0.000000 0.000000 0.000000 0.000000 0.000000 -0.023143
#
#
# Mechanical properties :
#
#
# Convention : Reuss Voigt Hill
#
# Bulk Modulus (GPa) = 25.24307 38.50207 31.87257
# Shear Modulus (GPa) = 45.27784 20.59484 32.93634
#
# Velocity S-wave (km/s) = 4.73957 3.19651 4.04235
# Velocity P-wave (km/s) = 6.51730 5.72062 6.13191
#
# Compressibility (1/GPa) = 0.03961484
#
# Stress axis : x y z
#
# Youngs Moduli (GPa) = 57.80494 51.54024 107.71330
#
# Poissons Ratio (x) = -0.20617 0.01017
# Poissons Ratio (y) = -0.23123 0.76382
# Poissons Ratio (z) = 0.00546 0.36548
#
# Static dielectric constant tensor:
#      x y z
#    x 1.795090 0.000000 0.000000 
#    y 0.000000 1.728810 0.000000 
#    z 0.000000 0.000000 1.785150 
# 
# From -- ./inp_files/35459.got.cif
#   From: 2010.05.17/outbox.cif.g08.bks.cpg/sg63_18_cif.got.tgz:35459.got - 2010.06.03 15:47:04.
