data_PCOD9473417
_publ_section_title
;
Structure prediction by ZEFSAII (Michael W. Deem and Ramdas Pophale) SiO2 
 PCOD9473417
Probable space group: C M C M
;
_chemical_formula_sum "Si O2"
_cell_formula_units_Z 56
_cell_length_a 14.186794
_cell_length_b 11.053252
_cell_length_c 17.900419
_cell_angle_alpha 90.000000
_cell_angle_beta 90.000000
_cell_angle_gamma 90.000000
_cell_volume 2806.968447
_symmetry_space_group_name_H-M "C M C M"
_symmetry_group_IT_number 63
_symmetry_cell_setting 'orthorhombic'
loop_
_space_group_symop_operation_xyz
x,y,z
-x,-y,1/2+z
x,-y,-z
-x,y,1/2-z
-x,-y,-z
x,y,1/2-z
-x,y,z
x,-y,1/2+z
1/2+x,1/2+y,z
1/2-x,1/2-y,1/2+z
1/2+x,1/2-y,-z
1/2-x,1/2+y,1/2-z
1/2-x,1/2-y,-z
1/2+x,1/2+y,1/2-z
1/2-x,1/2+y,z
1/2+x,1/2-y,1/2+z
loop_
_atom_site_type_symbol
_atom_site_label
_atom_site_fract_x
_atom_site_fract_y
_atom_site_fract_z
Si Si1 0.500000 0.164844 0.993713
Si Si2 0.000000 0.929033 0.577358
Si Si3 0.844746 0.070936 0.834263
Si Si4 0.286792 0.876292 0.037707
Si Si5 0.000000 0.279967 0.832732
O O1 0.500000 0.294969 0.953590
O O2 0.399169 0.116646 0.967498
O O3 0.500000 0.160070 0.084985
O O4 0.000000 0.000000 0.500000
O O5 0.091484 0.969541 0.624713
O O6 0.824752 0.033085 0.750000
O O7 0.753128 0.110467 0.879371
O O8 0.910862 0.189816 0.833559
O O9 0.250000 0.750000 0.000000
O O10 0.248718 0.000000 0.000000
O O11 0.000000 0.342720 0.750000
#
# Coordination Sequence:
#
# PCOD9473417 Si02
#       5
#     8   8  16  16   8
#     4  12  22  38  62  96 128 172 215 275 340 395
#     4  11  17  36  66  91 120 160 220 270 314 382
#     4  10  20  37  62  94 125 167 221 272 322 384
#     4  12  24  42  65  95 132 175 223 273 326 398
#     4   9  17  33  60  92 127 163 213 271 325 381
#
# _framework density 19.95035
#
# number of rings (size 3 to 8) (size 9 to 14) (size 15 to 20)
#    0.000    1.143    5.714    4.286    0.000    0.000 
#    0.000    9.286    0.000    0.000    0.000    0.000 
#    0.000    0.000    0.000    0.000    0.000    0.000 
#
# Total GULP energy -156048.502102 kJ/mol
# GULP energy per Si atom -5573.160789 kJ/mol
# Density = 1.990494 g / cm^3
# Si number density = 19.950350 Si / 1000 Ang^3
#
#
#
# Elastic Constant Matrix: (Units=GPa)
#
#
# Indices 1 2 3 4 5 6 
#
# 1 132.9264 30.0272 78.6193 0.0000 0.0000 0.0000
# 2 30.0272 101.1198 37.8067 0.0000 0.0000 0.0000
# 3 78.6193 37.8067 190.6356 0.0000 0.0000 0.0000
# 4 0.0000 0.0000 0.0000 18.8630 0.0000 0.0000
# 5 0.0000 0.0000 0.0000 0.0000 1931.3254 0.0000
# 6 0.0000 0.0000 0.0000 0.0000 0.0000 -86.8920
#
#
#
# Elastic Compliance Matrix: (Units=1/GPa)
#
#
# Indices 1 2 3 4 5 6 
#
# 1 0.010175 -0.001569 -0.003885 0.000000 0.000000 0.000000
# 2 -0.001569 0.010923 -0.001519 0.000000 0.000000 0.000000
# 3 -0.003885 -0.001519 0.007149 0.000000 0.000000 0.000000
# 4 0.000000 0.000000 0.000000 0.053014 0.000000 0.000000
# 5 0.000000 0.000000 0.000000 0.000000 0.000518 0.000000
# 6 0.000000 0.000000 0.000000 0.000000 0.000000 -0.011509
#
#
# Mechanical properties :
#
#
# Convention : Reuss Voigt Hill
#
# Bulk Modulus (GPa) = 69.92565 79.73202 74.82883
# Shear Modulus (GPa) = 56.18956 391.20783 223.69869
#
# Velocity S-wave (km/s) = 5.31280 14.01843 10.60052
# Velocity P-wave (km/s) = 8.52997 17.38027 13.69004
#
# Compressibility (1/GPa) = 0.01430090
#
# Stress axis : x y z
#
# Youngs Moduli (GPa) = 98.27746 91.54859 139.87609
#
# Poissons Ratio (x) = 0.14363 0.54345
# Poissons Ratio (y) = 0.15419 0.21251
# Poissons Ratio (z) = 0.38183 0.13908
#
# Static dielectric constant tensor:
#      x y z
#    x 4.290990 0.000000 0.000000 
#    y 0.000000 1.745960 0.000000 
#    z 0.000000 0.000000 1.729430 
# 
# From -- ./inp_files/30880.got.cif
#   From: 2010.05.17/outbox.cif.g08.bks.cpg/sg63_16_cif.got.tgz:30880.got - 2010.06.03 15:47:04.
