data_PCOD9473205
_publ_section_title
;
Structure prediction by ZEFSAII (Michael W. Deem and Ramdas Pophale) SiO2 
 PCOD9473205
Probable space group: C M C M
;
_chemical_formula_sum "Si O2"
_cell_formula_units_Z 96
_cell_length_a 12.205625
_cell_length_b 24.468880
_cell_length_c 17.657457
_cell_angle_alpha 90.000000
_cell_angle_beta 90.000000
_cell_angle_gamma 90.000000
_cell_volume 5273.540324
_symmetry_space_group_name_H-M "C M C M"
_symmetry_group_IT_number 63
_symmetry_cell_setting 'orthorhombic'
loop_
_space_group_symop_operation_xyz
x,y,z
-x,-y,1/2+z
x,-y,-z
-x,y,1/2-z
-x,-y,-z
x,y,1/2-z
-x,y,z
x,-y,1/2+z
1/2+x,1/2+y,z
1/2-x,1/2-y,1/2+z
1/2+x,1/2-y,-z
1/2-x,1/2+y,1/2-z
1/2-x,1/2-y,-z
1/2+x,1/2+y,1/2-z
1/2-x,1/2+y,z
1/2+x,1/2-y,1/2+z
loop_
_atom_site_type_symbol
_atom_site_label
_atom_site_fract_x
_atom_site_fract_y
_atom_site_fract_z
Si Si1 0.500000 0.860231 0.163636
Si Si2 0.212372 0.716853 0.835045
Si Si3 0.500000 0.031156 0.581250
Si Si4 0.369873 0.315976 0.926126
Si Si5 0.128831 0.136021 0.594312
Si Si6 0.746512 0.020016 0.912540
Si Si7 0.374364 0.422938 0.839396
O O1 0.500000 0.885094 0.250000
O O2 0.607150 0.822735 0.158604
O O3 0.500000 0.903304 0.094717
O O4 0.211906 0.740607 0.750000
O O5 0.196838 0.763796 0.897470
O O6 0.317464 0.678670 0.847739
O O7 0.380187 0.017372 0.613491
O O8 0.500000 0.000000 0.500000
O O9 0.500000 0.306299 0.909660
O O10 0.330734 0.368656 0.879134
O O11 0.360702 0.333838 0.013077
O O12 0.198892 0.079908 0.593511
O O13 0.000000 0.124642 0.607597
O O14 0.812632 0.976955 0.863500
O O15 0.752044 0.000000 0.000000
O O16 0.372780 0.415767 0.750000
O O17 0.500000 0.428537 0.865707
#
# Coordination Sequence:
#
# PCOD9473205 Si02
#       7
#     8  16   8  16  16  16  16
#     4  10  20  36  60  88 112 149 197 240 289 340
#     4  11  22  38  61  86 118 154 192 245 292 340
#     4  10  22  38  60  86 112 150 191 240 289 336
#     4  10  20  37  61  88 117 149 198 243 286 343
#     4  11  23  37  60  90 116 154 194 237 294 349
#     4  11  21  38  60  84 117 153 191 237 292 348
#     4  10  21  35  57  89 119 153 194 241 291 347
#
# _framework density 18.204090000000001
#
# number of rings (size 3 to 8) (size 9 to 14) (size 15 to 20)
#    0.000    1.500    4.167    1.500    0.000    3.000 
#    0.000    0.000    1.833    0.000    0.000    0.000 
#    0.000    0.000    0.000    0.000    0.000    0.000 
#
# Total GULP energy -267623.036867 kJ/mol
# GULP energy per Si atom -5575.479935 kJ/mol
# Density = 1.816266 g / cm^3
# Si number density = 18.204090 Si / 1000 Ang^3
#
#
#
# Elastic Constant Matrix: (Units=GPa)
#
#
# Indices 1 2 3 4 5 6 
#
# 1 91.4844 32.6846 13.4812 0.0000 0.0000 0.0000
# 2 32.6846 86.6987 20.2012 0.0000 0.0000 0.0000
# 3 13.4812 20.2012 33.7074 0.0000 0.0000 0.0000
# 4 0.0000 0.0000 0.0000 10.0582 0.0000 0.0000
# 5 0.0000 0.0000 0.0000 0.0000 5.9705 0.0000
# 6 0.0000 0.0000 0.0000 0.0000 0.0000 13.3968
#
#
#
# Elastic Compliance Matrix: (Units=1/GPa)
#
#
# Indices 1 2 3 4 5 6 
#
# 1 0.012824 -0.004230 -0.002594 0.000000 0.000000 0.000000
# 2 -0.004230 0.014802 -0.007179 0.000000 0.000000 0.000000
# 3 -0.002594 -0.007179 0.035007 0.000000 0.000000 0.000000
# 4 0.000000 0.000000 0.000000 0.099422 0.000000 0.000000
# 5 0.000000 0.000000 0.000000 0.000000 0.167490 0.000000
# 6 0.000000 0.000000 0.000000 0.000000 0.000000 0.074645
#
#
# Mechanical properties :
#
#
# Convention : Reuss Voigt Hill
#
# Bulk Modulus (GPa) = 28.87928 38.29162 33.58545
# Shear Modulus (GPa) = 11.26792 15.58665 13.42728
#
# Velocity S-wave (km/s) = 2.49062 2.92929 2.71882
# Velocity P-wave (km/s) = 4.91625 5.70274 5.32404
#
# Compressibility (1/GPa) = 0.03462690
#
# Stress axis : x y z
#
# Youngs Moduli (GPa) = 77.97626 67.55977 28.56576
#
# Poissons Ratio (x) = 0.28580 0.07410
# Poissons Ratio (y) = 0.32986 0.20507
# Poissons Ratio (z) = 0.20226 0.48501
#
# Static dielectric constant tensor:
#      x y z
#    x 1.641910 0.000000 0.000000 
#    y 0.000000 1.615360 0.000000 
#    z 0.000000 0.000000 1.638170 
# 
# From -- ./inp_files/42571.got.cif
#   From: 2010.05.17/outbox.cif.g08.bks.cpg/sg63_22_cif.got.tgz:42571.got - 2010.06.03 15:47:04.
