data_PCOD9473064
_publ_section_title
;
Structure prediction by ZEFSAII (Michael W. Deem and Ramdas Pophale) SiO2 
 PCOD9473064
Probable space group: C M C M
;
_chemical_formula_sum "Si O2"
_cell_formula_units_Z 88
_cell_length_a 17.083608
_cell_length_b 9.063554
_cell_length_c 31.485798
_cell_angle_alpha 90.000000
_cell_angle_beta 90.000000
_cell_angle_gamma 90.000000
_cell_volume 4875.204402
_symmetry_space_group_name_H-M "C M C M"
_symmetry_group_IT_number 63
_symmetry_cell_setting 'orthorhombic'
loop_
_space_group_symop_operation_xyz
x,y,z
-x,-y,1/2+z
x,-y,-z
-x,y,1/2-z
-x,-y,-z
x,y,1/2-z
-x,y,z
x,-y,1/2+z
1/2+x,1/2+y,z
1/2-x,1/2-y,1/2+z
1/2+x,1/2-y,-z
1/2-x,1/2+y,1/2-z
1/2-x,1/2-y,-z
1/2+x,1/2+y,1/2-z
1/2-x,1/2+y,z
1/2+x,1/2-y,1/2+z
loop_
_atom_site_type_symbol
_atom_site_label
_atom_site_fract_x
_atom_site_fract_y
_atom_site_fract_z
Si Si1 0.346708 0.316476 0.103408
Si Si2 0.836239 0.824401 0.494743
Si Si3 0.000000 0.861875 0.966985
Si Si4 0.500000 0.480056 0.124862
Si Si5 0.829300 0.297222 0.201073
Si Si6 0.756374 0.445873 0.646575
Si Si7 0.500000 0.297840 0.702925
O O1 0.360070 0.294984 0.053744
O O2 0.424797 0.376315 0.124632
O O3 0.284939 0.448976 0.111982
O O4 0.314907 0.167615 0.124230
O O5 0.750000 0.750000 0.500000
O O6 0.914434 0.786165 0.523276
O O7 0.824508 0.000000 0.500000
O O8 0.000000 0.924102 0.918950
O O9 0.000000 0.000000 0.000000
O O10 0.500000 0.585342 0.165270
O O11 0.803243 0.280939 0.250000
O O12 0.795342 0.443013 0.179784
O O13 0.802819 0.157842 0.172791
O O14 0.922583 0.299024 0.200113
O O15 0.500000 0.369859 0.750000
#
# Coordination Sequence:
#
# PCOD9473064 Si02
#       7
#    16  16   8   8  16  16   8
#     4  11  21  36  58  85 118 154 197 242 295 351
#     4  11  21  37  59  87 118 158 199 247 292 356
#     4  10  20  36  57  87 112 159 199 229 302 354
#     4  12  20  39  61  83 120 157 198 250 293 364
#     4  10  20  38  58  82 116 152 194 245 296 355
#     4  10  22  35  56  88 114 151 199 236 299 353
#     4  10  22  37  59  86 114 154 195 241 303 353
#
# _framework density 18.050526000000001
#
# number of rings (size 3 to 8) (size 9 to 14) (size 15 to 20)
#    0.000    1.455    5.455    1.636    0.000    0.727 
#    0.000    1.364    0.000    1.091    0.000    0.000 
#    0.000    0.000    0.000    0.000    0.000    0.000 
#
# Total GULP energy -245285.801844 kJ/mol
# GULP energy per Si atom -5574.677315 kJ/mol
# Density = 1.800944 g / cm^3
# Si number density = 18.050526 Si / 1000 Ang^3
#
#
#
# Elastic Constant Matrix: (Units=GPa)
#
#
# Indices 1 2 3 4 5 6 
#
# 1 108.8970 30.9641 4.9351 0.0000 0.0000 0.0000
# 2 30.9641 66.2259 8.9547 0.0000 0.0000 0.0000
# 3 4.9351 8.9547 55.6978 0.0000 0.0000 0.0000
# 4 0.0000 0.0000 0.0000 16.8241 0.0000 0.0000
# 5 0.0000 0.0000 0.0000 0.0000 30.0156 0.0000
# 6 0.0000 0.0000 0.0000 0.0000 0.0000 -25.1752
#
#
#
# Elastic Compliance Matrix: (Units=1/GPa)
#
#
# Indices 1 2 3 4 5 6 
#
# 1 0.010592 -0.004933 -0.000145 0.000000 0.000000 0.000000
# 2 -0.004933 0.017733 -0.002414 0.000000 0.000000 0.000000
# 3 -0.000145 -0.002414 0.018355 0.000000 0.000000 0.000000
# 4 0.000000 0.000000 0.000000 0.059439 0.000000 0.000000
# 5 0.000000 0.000000 0.000000 0.000000 0.033316 0.000000
# 6 0.000000 0.000000 0.000000 0.000000 0.000000 -0.039722
#
#
# Mechanical properties :
#
#
# Convention : Reuss Voigt Hill
#
# Bulk Modulus (GPa) = 31.55012 35.61429 33.58221
# Shear Modulus (GPa) = 39.91630 16.73067 28.32348
#
# Velocity S-wave (km/s) = 4.70762 3.04777 3.96551
# Velocity P-wave (km/s) = 6.86044 5.67084 6.29381
#
# Compressibility (1/GPa) = 0.03169560
#
# Stress axis : x y z
#
# Youngs Moduli (GPa) = 94.40936 56.39348 54.48101
#
# Poissons Ratio (x) = 0.27817 0.00793
# Poissons Ratio (y) = 0.46570 0.13151
# Poissons Ratio (z) = 0.01373 0.13613
#
# Static dielectric constant tensor:
#      x y z
#    x 1.661570 0.000000 0.000000 
#    y 0.000000 1.624780 0.000000 
#    z 0.000000 0.000000 1.638140 
# 
# From -- ./inp_files/73854.got.cif
#   From: 2010.05.17/outbox.cif.g08.bks.cpg/sg63_37_cif.got.tgz:73854.got - 2010.06.03 15:47:04.
