data_PCOD9473348
_publ_section_title
;
Structure prediction by ZEFSAII (Michael W. Deem and Ramdas Pophale) SiO2 
 PCOD9473348
Probable space group: C M C M
;
_chemical_formula_sum "Si O2"
_cell_formula_units_Z 64
_cell_length_a 8.289697
_cell_length_b 23.073377
_cell_length_c 16.719840
_cell_angle_alpha 90.000000
_cell_angle_beta 90.000000
_cell_angle_gamma 90.000000
_cell_volume 3198.025601
_symmetry_space_group_name_H-M "C M C M"
_symmetry_group_IT_number 63
_symmetry_cell_setting 'orthorhombic'
loop_
_space_group_symop_operation_xyz
x,y,z
-x,-y,1/2+z
x,-y,-z
-x,y,1/2-z
-x,-y,-z
x,y,1/2-z
-x,y,z
x,-y,1/2+z
1/2+x,1/2+y,z
1/2-x,1/2-y,1/2+z
1/2+x,1/2-y,-z
1/2-x,1/2+y,1/2-z
1/2-x,1/2-y,-z
1/2+x,1/2+y,1/2-z
1/2-x,1/2+y,z
1/2+x,1/2-y,1/2+z
loop_
_atom_site_type_symbol
_atom_site_label
_atom_site_fract_x
_atom_site_fract_y
_atom_site_fract_z
Si Si1 0.182396 0.384272 0.250000
Si Si2 0.688039 0.740170 0.750000
Si Si3 0.193333 0.580556 0.447966
Si Si4 0.311102 0.466544 0.116188
Si Si5 0.805425 0.285546 0.921546
O O1 0.297071 0.328960 0.250000
O O2 0.215810 0.424869 0.174894
O O3 0.000000 0.362345 0.250000
O O4 0.500000 0.757874 0.750000
O O5 0.755993 0.762132 0.664566
O O6 0.244697 0.532106 0.383794
O O7 0.281533 0.560022 0.528441
O O8 0.236887 0.646566 0.428857
O O9 0.000000 0.577072 0.459667
O O10 0.500000 0.466306 0.135439
O O11 0.000000 0.281197 0.920954
O O12 0.750000 0.250000 0.000000
#
# Coordination Sequence:
#
# PCOD9473348 Si02
#       5
#     8   8  16  16  16
#     4  12  24  39  58  83 113 148 190 240 291 346
#     4  10  22  41  60  85 117 152 194 242 291 352
#     4  10  20  37  59  86 116 151 192 236 286 345
#     4  11  22  37  58  85 114 150 190 237 291 346
#     4  10  22  38  60  86 118 157 197 240 292 346
#
# _framework density 20.012346000000001
#
# number of rings (size 3 to 8) (size 9 to 14) (size 15 to 20)
#    0.000    1.500    0.000    7.125    0.000    8.000 
#    0.000    2.500    0.000    0.000    0.000    0.000 
#    0.000    0.000    0.000    0.000    0.000    0.000 
#
# Total GULP energy -178704.600948 kJ/mol
# GULP energy per Si atom -5584.518780 kJ/mol
# Density = 1.996680 g / cm^3
# Si number density = 20.012346 Si / 1000 Ang^3
#
#
#
# Elastic Constant Matrix: (Units=GPa)
#
#
# Indices 1 2 3 4 5 6 
#
# 1 42.4854 -2.5406 -1.3596 0.0000 0.0000 0.0000
# 2 -2.5406 147.2929 62.8083 0.0000 0.0000 0.0000
# 3 -1.3596 62.8083 113.0886 0.0000 0.0000 0.0000
# 4 0.0000 0.0000 0.0000 29.9183 0.0000 0.0000
# 5 0.0000 0.0000 0.0000 0.0000 31.9389 0.0000
# 6 0.0000 0.0000 0.0000 0.0000 0.0000 28.5559
#
#
#
# Elastic Compliance Matrix: (Units=1/GPa)
#
#
# Indices 1 2 3 4 5 6 
#
# 1 0.023562 0.000374 0.000075 0.000000 0.000000 0.000000
# 2 0.000374 0.008902 -0.004940 0.000000 0.000000 0.000000
# 3 0.000075 -0.004940 0.011587 0.000000 0.000000 0.000000
# 4 0.000000 0.000000 0.000000 0.033424 0.000000 0.000000
# 5 0.000000 0.000000 0.000000 0.000000 0.031310 0.000000
# 6 0.000000 0.000000 0.000000 0.000000 0.000000 0.035019
#
#
# Mechanical properties :
#
#
# Convention : Reuss Voigt Hill
#
# Bulk Modulus (GPa) = 28.51329 46.74259 37.62794
# Shear Modulus (GPa) = 30.39982 34.34653 32.37318
#
# Velocity S-wave (km/s) = 3.90173 4.14728 4.02638
# Velocity P-wave (km/s) = 5.88020 6.80741 6.36072
#
# Compressibility (1/GPa) = 0.03507137
#
# Stress axis : x y z
#
# Youngs Moduli (GPa) = 42.44072 112.33467 86.30420
#
# Poissons Ratio (x) = -0.04204 -0.00651
# Poissons Ratio (y) = -0.01588 0.42631
# Poissons Ratio (z) = -0.00320 0.55489
#
# Static dielectric constant tensor:
#      x y z
#    x 1.696290 0.000000 0.000000 
#    y 0.000000 1.683240 0.000000 
#    z 0.000000 0.000000 34.591990 
# 
# From -- ./inp_files/27565.got.cif
#   From: 2010.05.17/outbox.cif.g08.bks.cpg/sg63_14_cif.got.tgz:27565.got - 2010.06.03 15:47:04.
