data_PCOD9473318
_publ_section_title
;
Structure prediction by ZEFSAII (Michael W. Deem and Ramdas Pophale) SiO2 
 PCOD9473318
Probable space group: C M C M
;
_chemical_formula_sum "Si O2"
_cell_formula_units_Z 100
_cell_length_a 7.389570
_cell_length_b 21.241214
_cell_length_c 28.840943
_cell_angle_alpha 90.000000
_cell_angle_beta 90.000000
_cell_angle_gamma 90.000000
_cell_volume 4526.973561
_symmetry_space_group_name_H-M "C M C M"
_symmetry_group_IT_number 63
_symmetry_cell_setting 'orthorhombic'
loop_
_space_group_symop_operation_xyz
x,y,z
-x,-y,1/2+z
x,-y,-z
-x,y,1/2-z
-x,-y,-z
x,y,1/2-z
-x,y,z
x,-y,1/2+z
1/2+x,1/2+y,z
1/2-x,1/2-y,1/2+z
1/2+x,1/2-y,-z
1/2-x,1/2+y,1/2-z
1/2-x,1/2-y,-z
1/2+x,1/2+y,1/2-z
1/2-x,1/2+y,z
1/2+x,1/2-y,1/2+z
loop_
_atom_site_type_symbol
_atom_site_label
_atom_site_fract_x
_atom_site_fract_y
_atom_site_fract_z
Si Si1 0.779516 0.970239 0.360014
Si Si2 0.786674 0.910086 0.697330
Si Si3 0.714830 0.274982 0.448768
Si Si4 0.281668 0.220114 0.354280
Si Si5 0.279352 0.652728 0.696904
Si Si6 0.000000 0.500000 0.000000
Si Si7 0.781991 0.080472 0.957889
O O1 0.714244 0.032400 0.333671
O O2 0.000000 0.970292 0.360339
O O3 0.722266 0.907734 0.332500
O O4 0.727557 0.962399 0.413573
O O5 0.713422 0.907090 0.750000
O O6 0.769730 0.844318 0.670613
O O7 0.000000 0.922888 0.701752
O O8 0.500000 0.276677 0.442522
O O9 0.750000 0.250000 0.500000
O O10 0.784436 0.231543 0.406892
O O11 0.769972 0.347874 0.445471
O O12 0.500000 0.220226 0.354307
O O13 0.221814 0.281454 0.325454
O O14 0.221996 0.647569 0.750000
O O15 0.500000 0.652649 0.696247
O O16 0.839558 0.554556 0.998911
O O17 0.000000 0.077469 0.965365
#
# Coordination Sequence:
#
# PCOD9473318 Si02
#       7
#    16  16  16  16  16   4  16
#     4   9  17  35  60  83 120 159 199 251 312 377
#     4  10  21  36  56  88 125 161 203 255 318 385
#     4  10  22  40  64  90 124 165 213 270 326 388
#     4  10  20  37  58  84 119 159 201 253 310 374
#     4   9  15  27  56  89 110 145 200 247 296 363
#     4  12  26  40  68  98 130 164 222 278 320 402
#     4  10  22  44  66  92 130 169 213 272 332 387
#
# _framework density 22.089812999999999
#
# number of rings (size 3 to 8) (size 9 to 14) (size 15 to 20)
#    0.000    2.240    1.600    1.200    1.120    4.800 
#    4.320    3.200    0.000    0.000    0.000    0.000 
#    0.000    0.000    0.000    0.000    0.000    0.480 
#
# Total GULP energy -278766.105859 kJ/mol
# GULP energy per Si atom -5575.322117 kJ/mol
# Density = 2.203954 g / cm^3
# Si number density = 22.089813 Si / 1000 Ang^3
#
#
#
# Elastic Constant Matrix: (Units=GPa)
#
#
# Indices 1 2 3 4 5 6 
#
# 1 85.9875 6.6544 3.6438 0.0000 0.0000 0.0000
# 2 6.6544 153.3022 49.7052 0.0000 0.0000 0.0000
# 3 3.6438 49.7052 100.4453 0.0000 0.0000 0.0000
# 4 0.0000 0.0000 0.0000 39.6605 0.0000 0.0000
# 5 0.0000 0.0000 0.0000 0.0000 1.0132 0.0000
# 6 0.0000 0.0000 0.0000 0.0000 0.0000 43.1928
#
#
#
# Elastic Compliance Matrix: (Units=1/GPa)
#
#
# Indices 1 2 3 4 5 6 
#
# 1 0.011672 -0.000440 -0.000206 0.000000 0.000000 0.000000
# 2 -0.000440 0.007786 -0.003837 0.000000 0.000000 0.000000
# 3 -0.000206 -0.003837 0.011862 0.000000 0.000000 0.000000
# 4 0.000000 0.000000 0.000000 0.025214 0.000000 0.000000
# 5 0.000000 0.000000 0.000000 0.000000 0.986977 0.000000
# 6 0.000000 0.000000 0.000000 0.000000 0.000000 0.023152
#
#
# Mechanical properties :
#
#
# Convention : Reuss Voigt Hill
#
# Bulk Modulus (GPa) = 44.73264 51.08243 47.90754
# Shear Modulus (GPa) = 4.61646 35.42207 20.01926
#
# Velocity S-wave (km/s) = 1.44720 4.00878 3.01369
# Velocity P-wave (km/s) = 4.80488 6.67848 5.81760
#
# Compressibility (1/GPa) = 0.02235504
#
# Stress axis : x y z
#
# Youngs Moduli (GPa) = 85.67241 128.43153 84.30357
#
# Poissons Ratio (x) = 0.05651 0.01734
# Poissons Ratio (y) = 0.03769 0.32348
# Poissons Ratio (z) = 0.01762 0.49280
#
# Static dielectric constant tensor:
#      x y z
#    x 1.866340 0.000000 0.000000 
#    y 0.000000 1.778880 0.000000 
#    z 0.000000 0.000000 1.826860 
# 
# From -- ./inp_files/67095.got.cif
#   From: 2010.05.17/outbox.cif.g08.bks.cpg/sg63_34_cif.got.tgz:67095.got - 2010.06.03 15:47:04.
