data_PCOD9473847
_publ_section_title
;
Structure prediction by ZEFSAII (Michael W. Deem and Ramdas Pophale) SiO2 
 PCOD9473847
Probable space group: C M C M
;
_chemical_formula_sum "Si O2"
_cell_formula_units_Z 64
_cell_length_a 10.785744
_cell_length_b 13.446240
_cell_length_c 19.577290
_cell_angle_alpha 90.000000
_cell_angle_beta 90.000000
_cell_angle_gamma 90.000000
_cell_volume 2839.249388
_symmetry_space_group_name_H-M "C M C M"
_symmetry_group_IT_number 63
_symmetry_cell_setting 'orthorhombic'
loop_
_space_group_symop_operation_xyz
x,y,z
-x,-y,1/2+z
x,-y,-z
-x,y,1/2-z
-x,-y,-z
x,y,1/2-z
-x,y,z
x,-y,1/2+z
1/2+x,1/2+y,z
1/2-x,1/2-y,1/2+z
1/2+x,1/2-y,-z
1/2-x,1/2+y,1/2-z
1/2-x,1/2-y,-z
1/2+x,1/2+y,1/2-z
1/2-x,1/2+y,z
1/2+x,1/2-y,1/2+z
loop_
_atom_site_type_symbol
_atom_site_label
_atom_site_fract_x
_atom_site_fract_y
_atom_site_fract_z
Si Si1 0.140091 0.426972 0.173269
Si Si2 0.362284 0.313785 0.828370
Si Si3 0.214824 0.089689 0.542156
Si Si4 0.636462 0.188684 0.070049
O O1 0.172573 0.459463 0.250000
O O2 0.134574 0.306605 0.174008
O O3 0.238822 0.449209 0.115023
O O4 0.000000 0.460899 0.157816
O O5 0.345930 0.347494 0.750000
O O6 0.500000 0.346796 0.852435
O O7 0.246835 0.334119 0.877263
O O8 0.334058 0.125249 0.497618
O O9 0.143737 0.193700 0.551370
O O10 0.154468 0.000000 0.500000
O O11 0.500000 0.168600 0.097010
#
# Coordination Sequence:
#
# PCOD9473847 Si02
#       4
#    16  16  16  16
#     4   8  14  27  49  74  99 135 185 231 270 323
#     4   8  15  31  55  80 111 153 191 224 275 342
#     4  10  21  36  54  78 113 153 189 227 285 348
#     4  10  21  35  55  86 117 145 188 243 286 328
#
# _framework density 22.541169
#
# number of rings (size 3 to 8) (size 9 to 14) (size 15 to 20)
#    0.000    3.000    0.000    2.250    0.000    9.000 
#    0.000    1.250    0.000    1.500    0.000    0.000 
#    0.000    0.000    0.000    0.000    0.000    0.000 
#
# Total GULP energy -178632.435086 kJ/mol
# GULP energy per Si atom -5582.263596 kJ/mol
# Density = 2.248986 g / cm^3
# Si number density = 22.541169 Si / 1000 Ang^3
#
#
#
# Elastic Constant Matrix: (Units=GPa)
#
#
# Indices 1 2 3 4 5 6 
#
# 1 145.9023 17.7030 53.5861 0.0000 0.0000 0.0000
# 2 17.7030 112.8531 17.0638 0.0000 0.0000 0.0000
# 3 53.5861 17.0638 101.7509 0.0000 0.0000 0.0000
# 4 0.0000 0.0000 0.0000 7.5538 0.0000 0.0000
# 5 0.0000 0.0000 0.0000 0.0000 1.9291 0.0000
# 6 0.0000 0.0000 0.0000 0.0000 0.0000 -16.7711
#
#
#
# Elastic Compliance Matrix: (Units=1/GPa)
#
#
# Indices 1 2 3 4 5 6 
#
# 1 0.008548 -0.000677 -0.004388 0.000000 0.000000 0.000000
# 2 -0.000677 0.009145 -0.001177 0.000000 0.000000 0.000000
# 3 -0.004388 -0.001177 0.012336 0.000000 0.000000 0.000000
# 4 0.000000 0.000000 0.000000 0.132384 0.000000 0.000000
# 5 0.000000 0.000000 0.000000 0.000000 0.518386 0.000000
# 6 0.000000 0.000000 0.000000 0.000000 0.000000 -0.059626
#
#
# Mechanical properties :
#
#
# Convention : Reuss Voigt Hill
#
# Bulk Modulus (GPa) = 56.99766 59.69025 58.34396
# Shear Modulus (GPa) = 7.81853 16.68589 12.25221
#
# Velocity S-wave (km/s) = 1.86443 2.72369 2.33394
# Velocity P-wave (km/s) = 5.47501 6.03567 5.76216
#
# Compressibility (1/GPa) = 0.01754458
#
# Stress axis : x y z
#
# Youngs Moduli (GPa) = 116.99092 109.34589 81.06243
#
# Poissons Ratio (x) = 0.07407 0.35570
# Poissons Ratio (y) = 0.07925 0.09541
# Poissons Ratio (z) = 0.51335 0.12869
#
# Static dielectric constant tensor:
#      x y z
#    x 1.806180 0.000000 0.000000 
#    y 0.000000 1.863500 0.000000 
#    z 0.000000 0.000000 1.853080 
# 
# From -- ./inp_files/41500.got.cif
#   From: 2010.05.17/outbox.cif.g08.bks.cpg/sg63_21_cif.got.tgz:41500.got - 2010.06.03 15:47:04.
