data_PCOD9473952
_publ_section_title
;
Structure prediction by ZEFSAII (Michael W. Deem and Ramdas Pophale) SiO2 
 PCOD9473952
Probable space group: C M C M
;
_chemical_formula_sum "Si O2"
_cell_formula_units_Z 112
_cell_length_a 15.854256
_cell_length_b 23.669117
_cell_length_c 13.886477
_cell_angle_alpha 90.000000
_cell_angle_beta 90.000000
_cell_angle_gamma 90.000000
_cell_volume 5210.987149
_symmetry_space_group_name_H-M "C M C M"
_symmetry_group_IT_number 63
_symmetry_cell_setting 'orthorhombic'
loop_
_space_group_symop_operation_xyz
x,y,z
-x,-y,1/2+z
x,-y,-z
-x,y,1/2-z
-x,-y,-z
x,y,1/2-z
-x,y,z
x,-y,1/2+z
1/2+x,1/2+y,z
1/2-x,1/2-y,1/2+z
1/2+x,1/2-y,-z
1/2-x,1/2+y,1/2-z
1/2-x,1/2-y,-z
1/2+x,1/2+y,1/2-z
1/2-x,1/2+y,z
1/2+x,1/2-y,1/2+z
loop_
_atom_site_type_symbol
_atom_site_label
_atom_site_fract_x
_atom_site_fract_y
_atom_site_fract_z
Si Si1 0.629253 0.040607 0.144361
Si Si2 0.747103 0.708387 0.358092
Si Si3 0.315170 0.480814 0.898205
Si Si4 0.400825 0.599472 0.639017
Si Si5 0.908000 0.128459 0.138239
Si Si6 0.906406 0.584032 0.567887
Si Si7 0.258498 0.166402 0.566952
O O1 0.597262 0.058301 0.250000
O O2 0.602453 0.073564 0.047785
O O3 0.731175 0.041238 0.151756
O O4 0.602879 0.976160 0.121021
O O5 0.781049 0.695600 0.250000
O O6 0.654731 0.680630 0.363391
O O7 0.744052 0.775144 0.375293
O O8 0.784299 0.681530 0.456205
O O9 0.365576 0.534966 0.860570
O O10 0.376686 0.428247 0.912443
O O11 0.279277 0.500000 0.000000
O O12 0.396964 0.619548 0.750000
O O13 0.500000 0.600763 0.610106
O O14 0.333309 0.637138 0.579714
O O15 0.910895 0.110165 0.250000
O O16 0.000000 0.145442 0.105485
O O17 0.829903 0.623312 0.601682
O O18 0.000000 0.606924 0.586989
#
# Coordination Sequence:
#
# PCOD9473952 Si02
#       7
#    16  16  16  16  16  16  16
#     4  11  21  38  61  87 129 172 206 255 317 380
#     4  10  23  42  65  89 119 166 219 267 324 387
#     4  12  21  34  57  91 130 170 210 255 315 382
#     4  11  23  39  63  96 132 169 208 256 320 395
#     4  10  21  36  55  85 123 163 211 262 311 375
#     4  11  24  41  61  93 127 162 218 268 312 380
#     4  11  23  43  67  91 125 168 212 270 328 381
#
# _framework density 21.493048999999999
#
# number of rings (size 3 to 8) (size 9 to 14) (size 15 to 20)
#    0.000    1.143    2.857    4.714    0.000    8.000 
#    0.000    2.143    0.000    0.857    0.000    0.000 
#    0.000    0.000    0.000    0.000    0.000    0.000 
#
# Total GULP energy -312593.366742 kJ/mol
# GULP energy per Si atom -5582.024406 kJ/mol
# Density = 2.144413 g / cm^3
# Si number density = 21.493049 Si / 1000 Ang^3
#
#
#
# Elastic Constant Matrix: (Units=GPa)
#
#
# Indices 1 2 3 4 5 6 
#
# 1 77.2317 27.8521 -19.2517 0.0000 0.0000 0.0000
# 2 27.8521 100.3886 -8.0151 0.0000 0.0000 0.0000
# 3 -19.2517 -8.0151 75.2271 0.0000 0.0000 0.0000
# 4 0.0000 0.0000 0.0000 6.6432 0.0000 0.0000
# 5 0.0000 0.0000 0.0000 0.0000 14.5225 0.0000
# 6 0.0000 0.0000 0.0000 0.0000 0.0000 -4.9556
#
#
#
# Elastic Compliance Matrix: (Units=1/GPa)
#
#
# Indices 1 2 3 4 5 6 
#
# 1 0.015240 -0.003950 0.003479 0.000000 0.000000 0.000000
# 2 -0.003950 0.011071 0.000169 0.000000 0.000000 0.000000
# 3 0.003479 0.000169 0.014201 0.000000 0.000000 0.000000
# 4 0.000000 0.000000 0.000000 0.150531 0.000000 0.000000
# 5 0.000000 0.000000 0.000000 0.000000 0.068859 0.000000
# 6 0.000000 0.000000 0.000000 0.000000 0.000000 -0.201792
#
#
# Mechanical properties :
#
#
# Convention : Reuss Voigt Hill
#
# Bulk Modulus (GPa) = 25.05832 28.22422 26.64127
# Shear Modulus (GPa) = 69.42839 20.05948 44.74394
#
# Velocity S-wave (km/s) = 5.68971 3.05831 4.56761
# Velocity P-wave (km/s) = 7.40594 5.06274 6.34347
#
# Compressibility (1/GPa) = 0.03990690
#
# Stress axis : x y z
#
# Youngs Moduli (GPa) = 65.61686 90.32788 70.41542
#
# Poissons Ratio (x) = 0.35684 -0.24499
# Poissons Ratio (y) = 0.25922 -0.01187
# Poissons Ratio (z) = -0.22830 -0.01523
#
# Static dielectric constant tensor:
#      x y z
#    x 1.782330 0.000000 0.000000 
#    y 0.000000 1.729770 0.000000 
#    z 0.000000 0.000000 2.067570 
# 
# From -- ./inp_files/32320.got.cif
#   From: 2010.05.17/outbox.cif.g08.bks.cpg/sg63_17_cif.got.tgz:32320.got - 2010.06.03 15:47:04.
