data_PCOD9473190
_publ_section_title
;
Structure prediction by ZEFSAII (Michael W. Deem and Ramdas Pophale) SiO2 
 PCOD9473190
Probable space group: C M C M
;
_chemical_formula_sum "Si O2"
_cell_formula_units_Z 96
_cell_length_a 22.363796
_cell_length_b 9.168728
_cell_length_c 22.332760
_cell_angle_alpha 90.000000
_cell_angle_beta 90.000000
_cell_angle_gamma 90.000000
_cell_volume 4579.278003
_symmetry_space_group_name_H-M "C M C M"
_symmetry_group_IT_number 63
_symmetry_cell_setting 'orthorhombic'
loop_
_space_group_symop_operation_xyz
x,y,z
-x,-y,1/2+z
x,-y,-z
-x,y,1/2-z
-x,-y,-z
x,y,1/2-z
-x,y,z
x,-y,1/2+z
1/2+x,1/2+y,z
1/2-x,1/2-y,1/2+z
1/2+x,1/2-y,-z
1/2-x,1/2+y,1/2-z
1/2-x,1/2-y,-z
1/2+x,1/2+y,1/2-z
1/2-x,1/2+y,z
1/2+x,1/2-y,1/2+z
loop_
_atom_site_type_symbol
_atom_site_label
_atom_site_fract_x
_atom_site_fract_y
_atom_site_fract_z
Si Si1 0.000000 0.172050 0.989732
Si Si2 0.850274 0.156757 0.377428
Si Si3 0.166410 0.186508 0.250000
Si Si4 0.629024 0.951625 0.430777
Si Si5 0.792689 0.681881 0.126303
Si Si6 0.710871 0.344908 0.250000
Si Si7 0.500000 0.065890 0.567028
Si Si8 0.373374 0.387773 0.053995
O O1 0.064020 0.195959 0.957375
O O2 0.000000 0.262347 0.051292
O O3 0.000000 0.000000 0.000000
O O4 0.869123 0.203492 0.311215
O O5 0.864141 0.278605 0.426302
O O6 0.777904 0.151943 0.375593
O O7 0.879708 0.003595 0.392434
O O8 0.218180 0.309437 0.250000
O O9 0.194094 0.017889 0.250000
O O10 0.562401 0.982289 0.406601
O O11 0.635620 0.000000 0.500000
O O12 0.675753 0.028675 0.387289
O O13 0.808883 0.761715 0.188928
O O14 0.819167 0.783611 0.073214
O O15 0.500000 0.000000 0.500000
O O16 0.359015 0.500000 0.000000
#
# Coordination Sequence:
#
# PCOD9473190 Si02
#       8
#     8  16   8  16  16   8   8  16
#     4  10  20  36  60  81 110 158 208 237 277 352
#     4  11  23  37  59  87 124 154 195 246 302 360
#     4  10  22  40  62  85 116 162 210 243 281 358
#     4  11  23  38  60  90 121 158 197 246 300 357
#     4  11  23  37  59  87 122 156 194 243 301 356
#     4  10  22  40  62  85 116 160 212 241 281 360
#     4  10  20  40  60  81 116 158 210 241 273 352
#     4  11  21  36  58  86 117 156 197 243 301 355
#
# _framework density 20.964003000000002
#
# number of rings (size 3 to 8) (size 9 to 14) (size 15 to 20)
#    0.000    1.333    1.667    6.000    7.000    4.000 
#    0.000    0.000    0.000    6.000    0.000    0.000 
#    0.000    0.000    0.000    0.000    0.000    0.000 
#
# Total GULP energy -267796.096834 kJ/mol
# GULP energy per Si atom -5579.085351 kJ/mol
# Density = 2.091629 g / cm^3
# Si number density = 20.964003 Si / 1000 Ang^3
#
#
#
# Elastic Constant Matrix: (Units=GPa)
#
#
# Indices 1 2 3 4 5 6 
#
# 1 79.8124 -2.4904 24.6192 0.0000 0.0000 0.0000
# 2 -2.4904 78.9061 0.0804 0.0000 0.0000 0.0000
# 3 24.6192 0.0804 79.1188 0.0000 0.0000 0.0000
# 4 0.0000 0.0000 0.0000 33.9212 0.0000 0.0000
# 5 0.0000 0.0000 0.0000 0.0000 1.7777 0.0000
# 6 0.0000 0.0000 0.0000 0.0000 0.0000 26.5209
#
#
#
# Elastic Compliance Matrix: (Units=1/GPa)
#
#
# Indices 1 2 3 4 5 6 
#
# 1 0.013875 0.000442 -0.004318 0.000000 0.000000 0.000000
# 2 0.000442 0.012687 -0.000151 0.000000 0.000000 0.000000
# 3 -0.004318 -0.000151 0.013983 0.000000 0.000000 0.000000
# 4 0.000000 0.000000 0.000000 0.029480 0.000000 0.000000
# 5 0.000000 0.000000 0.000000 0.000000 0.562527 0.000000
# 6 0.000000 0.000000 0.000000 0.000000 0.000000 0.037706
#
#
# Mechanical properties :
#
#
# Convention : Reuss Voigt Hill
#
# Bulk Modulus (GPa) = 30.77566 31.36174 31.06870
# Shear Modulus (GPa) = 7.25540 26.81917 17.03728
#
# Velocity S-wave (km/s) = 1.86236 3.58061 2.85387
# Velocity P-wave (km/s) = 4.39734 5.66450 5.07066
#
# Compressibility (1/GPa) = 0.03249321
#
# Stress axis : x y z
#
# Youngs Moduli (GPa) = 72.07150 78.81832 71.51550
#
# Poissons Ratio (x) = -0.03486 0.30880
# Poissons Ratio (y) = -0.03188 0.01076
# Poissons Ratio (z) = 0.31120 0.01186
#
# Static dielectric constant tensor:
#      x y z
#    x 1.776370 0.000000 0.000000 
#    y 0.000000 1.627590 0.000000 
#    z 0.000000 0.000000 1.787300 
# 
# From -- ./inp_files/65046.got.cif
#   From: 2010.05.17/outbox.cif.g08.bks.cpg/sg63_33_cif.got.tgz:65046.got - 2010.06.03 15:47:04.
