data_PCOD9473664
_publ_section_title
;
Structure prediction by ZEFSAII (Michael W. Deem and Ramdas Pophale) SiO2 
 PCOD9473664
Probable space group: C M C M
;
_chemical_formula_sum "Si O2"
_cell_formula_units_Z 56
_cell_length_a 15.060646
_cell_length_b 12.071223
_cell_length_c 14.987093
_cell_angle_alpha 90.000000
_cell_angle_beta 90.000000
_cell_angle_gamma 90.000000
_cell_volume 2724.659748
_symmetry_space_group_name_H-M "C M C M"
_symmetry_group_IT_number 63
_symmetry_cell_setting 'orthorhombic'
loop_
_space_group_symop_operation_xyz
x,y,z
-x,-y,1/2+z
x,-y,-z
-x,y,1/2-z
-x,-y,-z
x,y,1/2-z
-x,y,z
x,-y,1/2+z
1/2+x,1/2+y,z
1/2-x,1/2-y,1/2+z
1/2+x,1/2-y,-z
1/2-x,1/2+y,1/2-z
1/2-x,1/2-y,-z
1/2+x,1/2+y,1/2-z
1/2-x,1/2+y,z
1/2+x,1/2-y,1/2+z
loop_
_atom_site_type_symbol
_atom_site_label
_atom_site_fract_x
_atom_site_fract_y
_atom_site_fract_z
Si Si1 0.396064 0.287099 0.750000
Si Si2 0.163496 0.604526 0.611767
Si Si3 0.808226 0.974912 0.250000
Si Si4 0.102145 0.242409 0.750000
Si Si5 0.397625 0.131512 0.079297
O O1 0.500000 0.314611 0.750000
O O2 0.373145 0.208278 0.833630
O O3 0.339015 0.399169 0.750000
O O4 0.250036 0.559426 0.663398
O O5 0.101352 0.495378 0.612729
O O6 0.164415 0.635594 0.507603
O O7 0.888817 0.888453 0.250000
O O8 0.139761 0.294261 0.659516
O O9 0.000000 0.278455 0.750000
O O10 0.500000 0.163466 0.056657
#
# Coordination Sequence:
#
# PCOD9473664 Si02
#       5
#     8  16   8   8  16
#     4  11  22  41  64  88 127 174 212 249 303 382
#     4  10  22  37  65  91 123 152 207 263 312 359
#     4  11  25  39  56  91 132 163 208 250 313 372
#     4  10  22  40  63  85 123 167 206 255 309 370
#     4  10  20  40  67  94 118 154 209 263 316 367
#
# _framework density 20.553024000000001
#
# number of rings (size 3 to 8) (size 9 to 14) (size 15 to 20)
#    0.000    1.714    0.000    5.571    8.000    2.286 
#    5.143    0.000    0.000    5.143    0.000    0.000 
#    0.000    0.000    0.000    0.000    0.000    0.000 
#
# Total GULP energy -156277.932189 kJ/mol
# GULP energy per Si atom -5581.354721 kJ/mol
# Density = 2.050624 g / cm^3
# Si number density = 20.553024 Si / 1000 Ang^3
#
#
#
# Elastic Constant Matrix: (Units=GPa)
#
#
# Indices 1 2 3 4 5 6 
#
# 1 74.8480 32.9089 42.8448 0.0000 0.0000 0.0000
# 2 32.9089 129.8082 82.7988 0.0000 0.0000 0.0000
# 3 42.8448 82.7988 156.9511 0.0000 0.0000 0.0000
# 4 0.0000 0.0000 0.0000 -141.4054 0.0000 0.0000
# 5 0.0000 0.0000 0.0000 0.0000 -1.3683 0.0000
# 6 0.0000 0.0000 0.0000 0.0000 0.0000 26.5893
#
#
#
# Elastic Compliance Matrix: (Units=1/GPa)
#
#
# Indices 1 2 3 4 5 6 
#
# 1 0.016150 -0.001933 -0.003389 0.000000 0.000000 0.000000
# 2 -0.001933 0.011842 -0.005720 0.000000 0.000000 0.000000
# 3 -0.003389 -0.005720 0.010314 0.000000 0.000000 0.000000
# 4 0.000000 0.000000 0.000000 -0.007072 0.000000 0.000000
# 5 0.000000 0.000000 0.000000 0.000000 -0.730840 0.000000
# 6 0.000000 0.000000 0.000000 0.000000 0.000000 0.037609
#
#
# Mechanical properties :
#
#
# Convention : Reuss Voigt Hill
#
# Bulk Modulus (GPa) = 61.63966 75.41248 68.52607
# Shear Modulus (GPa) = -7.88014 -9.69989 -8.79001
#
# Velocity S-wave (km/s) = -1.96020 -2.17479 -2.07027
# Velocity P-wave (km/s) = 4.99324 5.51952 5.26296
#
# Compressibility (1/GPa) = 0.01622332
#
# Stress axis : x y z
#
# Youngs Moduli (GPa) = 61.91886 84.44605 96.95627
#
# Poissons Ratio (x) = 0.16320 0.32860
# Poissons Ratio (y) = 0.11966 0.55455
# Poissons Ratio (z) = 0.20985 0.48300
#
# Static dielectric constant tensor:
#      x y z
#    x 1.771670 0.000000 0.000000 
#    y 0.000000 1.694510 0.000000 
#    z 0.000000 0.000000 1.774020 
# 
# From -- ./inp_files/30851.got.cif
#   From: 2010.05.17/outbox.cif.g08.bks.cpg/sg63_16_cif.got.tgz:30851.got - 2010.06.03 15:47:04.
