data_PCOD9473334
_publ_section_title
;
Structure prediction by ZEFSAII (Michael W. Deem and Ramdas Pophale) SiO2 
 PCOD9473334
Probable space group: C M C M
;
_chemical_formula_sum "Si O2"
_cell_formula_units_Z 96
_cell_length_a 8.625407
_cell_length_b 25.652866
_cell_length_c 24.295620
_cell_angle_alpha 90.000000
_cell_angle_beta 90.000000
_cell_angle_gamma 90.000000
_cell_volume 5375.804615
_symmetry_space_group_name_H-M "C M C M"
_symmetry_group_IT_number 63
_symmetry_cell_setting 'orthorhombic'
loop_
_space_group_symop_operation_xyz
x,y,z
-x,-y,1/2+z
x,-y,-z
-x,y,1/2-z
-x,-y,-z
x,y,1/2-z
-x,y,z
x,-y,1/2+z
1/2+x,1/2+y,z
1/2-x,1/2-y,1/2+z
1/2+x,1/2-y,-z
1/2-x,1/2+y,1/2-z
1/2-x,1/2-y,-z
1/2+x,1/2+y,1/2-z
1/2-x,1/2+y,z
1/2+x,1/2-y,1/2+z
loop_
_atom_site_type_symbol
_atom_site_label
_atom_site_fract_x
_atom_site_fract_y
_atom_site_fract_z
Si Si1 0.813291 0.735178 0.636600
Si Si2 0.316383 0.224671 0.250000
Si Si3 0.815510 0.107244 0.250000
Si Si4 0.314295 0.335642 0.562992
Si Si5 0.313844 0.069126 0.135009
Si Si6 0.187726 0.643814 0.556674
Si Si7 0.811222 0.524146 0.941491
O O1 0.737110 0.745556 0.695249
O O2 0.773528 0.783198 0.596101
O O3 0.767330 0.681824 0.606404
O O4 0.000000 0.735317 0.643492
O O5 0.500000 0.218120 0.250000
O O6 0.240956 0.167170 0.250000
O O7 0.753782 0.079742 0.304950
O O8 0.000000 0.107174 0.250000
O O9 0.500000 0.340765 0.563346
O O10 0.240885 0.384504 0.594911
O O11 0.253568 0.335272 0.500860
O O12 0.500000 0.070006 0.137888
O O13 0.263725 0.014736 0.107181
O O14 0.238602 0.583926 0.564197
O O15 0.000000 0.644520 0.552960
O O16 0.000000 0.524302 0.942252
O O17 0.760603 0.500000 0.000000
#
# Coordination Sequence:
#
# PCOD9473334 Si02
#       7
#    16   8   8  16  16  16  16
#     4  10  22  38  57  82 116 152 191 237 289 338
#     4  12  24  38  61  84 109 151 194 232 282 341
#     4  12  24  40  59  84 119 147 184 238 290 339
#     4  11  21  33  53  85 121 152 183 236 291 339
#     4  11  21  36  60  87 113 148 193 235 281 339
#     4  10  20  37  59  83 114 157 195 233 283 339
#     4   9  17  33  58  86 113 143 190 241 276 322
#
# _framework density 17.857793000000001
#
# number of rings (size 3 to 8) (size 9 to 14) (size 15 to 20)
#    0.000    1.500    3.333    3.000    0.000    1.333 
#    0.000    3.333    0.000    5.000    0.000    0.000 
#    0.000    0.000    0.000    0.000    0.000    0.000 
#
# Total GULP energy -268182.137156 kJ/mol
# GULP energy per Si atom -5587.127857 kJ/mol
# Density = 1.781715 g / cm^3
# Si number density = 17.857793 Si / 1000 Ang^3
#
#
#
# Elastic Constant Matrix: (Units=GPa)
#
#
# Indices 1 2 3 4 5 6 
#
# 1 45.5497 46.8100 48.6007 0.0000 0.0000 0.0000
# 2 46.8100 146.2051 95.1040 0.0000 0.0000 0.0000
# 3 48.6007 95.1040 173.5813 0.0000 0.0000 0.0000
# 4 0.0000 0.0000 0.0000 30.9211 0.0000 0.0000
# 5 0.0000 0.0000 0.0000 0.0000 32.2850 0.0000
# 6 0.0000 0.0000 0.0000 0.0000 0.0000 18.3939
#
#
#
# Elastic Compliance Matrix: (Units=1/GPa)
#
#
# Indices 1 2 3 4 5 6 
#
# 1 0.036214 -0.007767 -0.005884 0.000000 0.000000 0.000000
# 2 -0.007767 0.012293 -0.004561 0.000000 0.000000 0.000000
# 3 -0.005884 -0.004561 0.009907 0.000000 0.000000 0.000000
# 4 0.000000 0.000000 0.000000 0.032340 0.000000 0.000000
# 5 0.000000 0.000000 0.000000 0.000000 0.030974 0.000000
# 6 0.000000 0.000000 0.000000 0.000000 0.000000 0.054366
#
#
# Mechanical properties :
#
#
# Convention : Reuss Voigt Hill
#
# Bulk Modulus (GPa) = 45.47310 82.92950 64.20130
# Shear Modulus (GPa) = 22.74291 27.97474 25.35883
#
# Velocity S-wave (km/s) = 3.57256 3.96223 3.77243
# Velocity P-wave (km/s) = 6.52203 8.21414 7.41650
#
# Compressibility (1/GPa) = 0.02199102
#
# Stress axis : x y z
#
# Youngs Moduli (GPa) = 27.61343 81.34654 100.93722
#
# Poissons Ratio (x) = 0.63183 0.59391
# Poissons Ratio (y) = 0.21448 0.46033
# Poissons Ratio (z) = 0.16248 0.37099
#
# Static dielectric constant tensor:
#      x y z
#    x 1.607080 0.000000 0.000000 
#    y 0.000000 1.604290 0.000000 
#    z 0.000000 0.000000 1.581140 
# 
# From -- ./inp_files/59981.got.cif
#   From: 2010.05.17/outbox.cif.g08.bks.cpg/sg63_30_cif.got.tgz:59981.got - 2010.06.03 15:47:04.
