data_PCOD9473073
_publ_section_title
;
Structure prediction by ZEFSAII (Michael W. Deem and Ramdas Pophale) SiO2 
 PCOD9473073
Probable space group: C M C M
;
_chemical_formula_sum "Si O2"
_cell_formula_units_Z 112
_cell_length_a 24.905644
_cell_length_b 15.744842
_cell_length_c 14.989008
_cell_angle_alpha 90.000000
_cell_angle_beta 90.000000
_cell_angle_gamma 90.000000
_cell_volume 5877.721093
_symmetry_space_group_name_H-M "C M C M"
_symmetry_group_IT_number 63
_symmetry_cell_setting 'orthorhombic'
loop_
_space_group_symop_operation_xyz
x,y,z
-x,-y,1/2+z
x,-y,-z
-x,y,1/2-z
-x,-y,-z
x,y,1/2-z
-x,y,z
x,-y,1/2+z
1/2+x,1/2+y,z
1/2-x,1/2-y,1/2+z
1/2+x,1/2-y,-z
1/2-x,1/2+y,1/2-z
1/2-x,1/2-y,-z
1/2+x,1/2+y,1/2-z
1/2-x,1/2+y,z
1/2+x,1/2-y,1/2+z
loop_
_atom_site_type_symbol
_atom_site_label
_atom_site_fract_x
_atom_site_fract_y
_atom_site_fract_z
Si Si1 0.059494 0.683367 0.101351
Si Si2 0.139657 0.345449 0.150295
Si Si3 0.439535 0.987272 0.141051
Si Si4 0.278341 0.709359 0.143235
Si Si5 0.836321 0.218366 0.650770
Si Si6 0.651662 0.598993 0.481216
Si Si7 0.939369 0.215008 0.415281
O O1 0.065734 0.581979 0.103681
O O2 0.109533 0.726543 0.149291
O O3 0.000000 0.700993 0.139917
O O4 0.059851 0.725566 0.003635
O O5 0.156144 0.370679 0.250000
O O6 0.108576 0.426006 0.110291
O O7 0.190168 0.294983 0.109839
O O8 0.094344 0.272036 0.152626
O O9 0.437770 0.990955 0.250000
O O10 0.500000 0.955234 0.117582
O O11 0.288959 0.700628 0.250000
O O12 0.215344 0.723228 0.131480
O O13 0.303188 0.632507 0.087480
O O14 0.828539 0.181786 0.750000
O O15 0.840456 0.148700 0.574055
O O16 0.652712 0.500000 0.500000
O O17 0.595319 0.632412 0.440010
O O18 0.000000 0.197030 0.387959
#
# Coordination Sequence:
#
# PCOD9473073 Si02
#       7
#    16  16  16  16  16  16  16
#     4   9  18  32  50  75 106 137 171 214 263 317
#     4   9  17  30  48  71 102 137 172 213 261 311
#     4   9  16  26  43  69 101 133 165 204 252 308
#     4   9  19  37  58  78 105 140 179 221 263 317
#     4  10  20  36  58  79 104 141 181 218 263 322
#     4  10  21  37  56  78 108 139 173 226 274 312
#     4   9  18  32  51  73  99 137 179 216 262 317
#
# _framework density 19.055004
#
# number of rings (size 3 to 8) (size 9 to 14) (size 15 to 20)
#    0.000    2.714    0.000    1.286    0.000    3.143 
#    2.571    2.143    0.000    0.000    0.000    4.000 
#    0.000    0.000    0.000    0.000    0.000    0.000 
#
# Total GULP energy -312137.180155 kJ/mol
# GULP energy per Si atom -5573.878217 kJ/mol
# Density = 1.901163 g / cm^3
# Si number density = 19.055004 Si / 1000 Ang^3
#
#
#
# Elastic Constant Matrix: (Units=GPa)
#
#
# Indices 1 2 3 4 5 6 
#
# 1 127.3688 50.2523 27.1601 0.0000 0.0000 0.0000
# 2 50.2523 110.5944 17.7597 0.0000 0.0000 0.0000
# 3 27.1601 17.7597 47.5006 0.0000 0.0000 0.0000
# 4 0.0000 0.0000 0.0000 10.6010 0.0000 0.0000
# 5 0.0000 0.0000 0.0000 0.0000 14.9620 0.0000
# 6 0.0000 0.0000 0.0000 0.0000 0.0000 3.7054
#
#
#
# Elastic Compliance Matrix: (Units=1/GPa)
#
#
# Indices 1 2 3 4 5 6 
#
# 1 0.010376 -0.004002 -0.004437 0.000000 0.000000 0.000000
# 2 -0.004002 0.011163 -0.001885 0.000000 0.000000 0.000000
# 3 -0.004437 -0.001885 0.024294 0.000000 0.000000 0.000000
# 4 0.000000 0.000000 0.000000 0.094331 0.000000 0.000000
# 5 0.000000 0.000000 0.000000 0.000000 0.066836 0.000000
# 6 0.000000 0.000000 0.000000 0.000000 0.000000 0.269879
#
#
# Mechanical properties :
#
#
# Convention : Reuss Voigt Hill
#
# Bulk Modulus (GPa) = 39.70589 52.86755 46.28672
# Shear Modulus (GPa) = 9.88292 18.53979 14.21136
#
# Velocity S-wave (km/s) = 2.27986 3.12262 2.73391
# Velocity P-wave (km/s) = 5.27382 6.38795 5.85743
#
# Compressibility (1/GPa) = 0.02518518
#
# Stress axis : x y z
#
# Youngs Moduli (GPa) = 96.37246 89.57816 41.16240
#
# Poissons Ratio (x) = 0.35853 0.18262
# Poissons Ratio (y) = 0.38572 0.07760
# Poissons Ratio (z) = 0.42757 0.16888
#
# Static dielectric constant tensor:
#      x y z
#    x 1.687980 0.000000 0.000000 
#    y 0.000000 1.624510 0.000000 
#    z 0.000000 0.000000 1.713440 
# 
# From -- ./inp_files/36952.got.cif
#   From: 2010.05.17/outbox.cif.g08.bks.cpg/sg63_19_cif.got.tgz:36952.got - 2010.06.03 15:47:04.
