data_PCOD9473627
_publ_section_title
;
Structure prediction by ZEFSAII (Michael W. Deem and Ramdas Pophale) SiO2 
 PCOD9473627
Probable space group: C M C M
;
_chemical_formula_sum "Si O2"
_cell_formula_units_Z 88
_cell_length_a 22.837096
_cell_length_b 7.992328
_cell_length_c 21.558515
_cell_angle_alpha 90.000000
_cell_angle_beta 90.000000
_cell_angle_gamma 90.000000
_cell_volume 3934.893828
_symmetry_space_group_name_H-M "C M C M"
_symmetry_group_IT_number 63
_symmetry_cell_setting 'orthorhombic'
loop_
_space_group_symop_operation_xyz
x,y,z
-x,-y,1/2+z
x,-y,-z
-x,y,1/2-z
-x,-y,-z
x,y,1/2-z
-x,y,z
x,-y,1/2+z
1/2+x,1/2+y,z
1/2-x,1/2-y,1/2+z
1/2+x,1/2-y,-z
1/2-x,1/2+y,1/2-z
1/2-x,1/2-y,-z
1/2+x,1/2+y,1/2-z
1/2-x,1/2+y,z
1/2+x,1/2-y,1/2+z
loop_
_atom_site_type_symbol
_atom_site_label
_atom_site_fract_x
_atom_site_fract_y
_atom_site_fract_z
Si Si1 0.835153 0.074537 0.250000
Si Si2 0.362115 0.668335 0.463229
Si Si3 0.836262 0.667358 0.412535
Si Si4 0.067388 0.784817 0.842605
Si Si5 0.432231 0.891061 0.817028
Si Si6 0.229754 0.999086 0.624671
O O1 0.886285 0.107072 0.303888
O O2 0.785697 0.052244 0.194498
O O3 0.380307 0.500000 0.500000
O O4 0.347831 0.804804 0.515355
O O5 0.411351 0.715740 0.413741
O O6 0.304247 0.616013 0.425245
O O7 0.895803 0.674843 0.374235
O O8 0.798362 0.508148 0.391692
O O9 0.796920 0.819335 0.387329
O O10 0.070601 0.592870 0.819361
O O11 0.000000 0.840650 0.836072
O O12 0.407743 0.833607 0.750000
O O13 0.500000 0.842950 0.820488
#
# Coordination Sequence:
#
# PCOD9473627 Si02
#       6
#     8  16  16  16  16  16
#     4  10  21  38  60  92 131 162 216 268 326 390
#     4   9  21  42  60  93 137 167 215 266 325 395
#     4  11  24  42  66  93 132 176 215 275 323 389
#     4  10  20  39  68  95 127 174 222 275 324 389
#     4  10  23  42  64  92 129 170 220 273 328 385
#     4  10  24  39  64  95 131 168 216 265 331 390
#
# _framework density 22.36401
#
# number of rings (size 3 to 8) (size 9 to 14) (size 15 to 20)
#    0.000    2.000    0.909    0.818    7.636    1.818 
#    0.000   10.000    0.000    0.000    0.000    0.000 
#    0.000    0.000    0.000    0.000    0.000    0.000 
#
# Total GULP energy -245111.724337 kJ/mol
# GULP energy per Si atom -5570.721008 kJ/mol
# Density = 2.231311 g / cm^3
# Si number density = 22.364010 Si / 1000 Ang^3
#
#
#
# Elastic Constant Matrix: (Units=GPa)
#
#
# Indices 1 2 3 4 5 6 
#
# 1 62.7583 6.9792 43.6158 0.0000 0.0000 0.0000
# 2 6.9792 40.5749 16.1321 0.0000 0.0000 0.0000
# 3 43.6158 16.1321 195.8001 0.0000 0.0000 0.0000
# 4 0.0000 0.0000 0.0000 11.7538 0.0000 0.0000
# 5 0.0000 0.0000 0.0000 0.0000 24.7437 0.0000
# 6 0.0000 0.0000 0.0000 0.0000 0.0000 11.2754
#
#
#
# Elastic Compliance Matrix: (Units=1/GPa)
#
#
# Indices 1 2 3 4 5 6 
#
# 1 0.018957 -0.001635 -0.004088 0.000000 0.000000 0.000000
# 2 -0.001635 0.025622 -0.001747 0.000000 0.000000 0.000000
# 3 -0.004088 -0.001747 0.006162 0.000000 0.000000 0.000000
# 4 0.000000 0.000000 0.000000 0.085079 0.000000 0.000000
# 5 0.000000 0.000000 0.000000 0.000000 0.040414 0.000000
# 6 0.000000 0.000000 0.000000 0.000000 0.000000 0.088688
#
#
# Mechanical properties :
#
#
# Convention : Reuss Voigt Hill
#
# Bulk Modulus (GPa) = 27.93285 48.06527 37.99906
# Shear Modulus (GPa) = 17.13528 25.04834 21.09181
#
# Velocity S-wave (km/s) = 2.77103 3.35031 3.07435
# Velocity P-wave (km/s) = 4.77026 6.04194 5.44336
#
# Compressibility (1/GPa) = 0.03580014
#
# Stress axis : x y z
#
# Youngs Moduli (GPa) = 52.75050 39.02967 162.28999
#
# Poissons Ratio (x) = 0.06383 0.66346
# Poissons Ratio (y) = 0.08627 0.28347
# Poissons Ratio (z) = 0.21565 0.06817
#
# Static dielectric constant tensor:
#      x y z
#    x 1.786600 0.000000 0.000000 
#    y 0.000000 1.928450 0.000000 
#    z 0.000000 0.000000 1.808230 
# 
# From -- ./inp_files/57355.got.cif
#   From: 2010.05.17/outbox.cif.g08.bks.cpg/sg63_29_cif.got.tgz:57355.got - 2010.06.03 15:47:04.
