data_PCOD9473865
_publ_section_title
;
Structure prediction by ZEFSAII (Michael W. Deem and Ramdas Pophale) SiO2 
 PCOD9473865
Probable space group: C M C M
;
_chemical_formula_sum "Si O2"
_cell_formula_units_Z 116
_cell_length_a 8.001991
_cell_length_b 31.041649
_cell_length_c 24.351079
_cell_angle_alpha 90.000000
_cell_angle_beta 90.000000
_cell_angle_gamma 90.000000
_cell_volume 6048.686169
_symmetry_space_group_name_H-M "C M C M"
_symmetry_group_IT_number 63
_symmetry_cell_setting 'orthorhombic'
loop_
_space_group_symop_operation_xyz
x,y,z
-x,-y,1/2+z
x,-y,-z
-x,y,1/2-z
-x,-y,-z
x,y,1/2-z
-x,y,z
x,-y,1/2+z
1/2+x,1/2+y,z
1/2-x,1/2-y,1/2+z
1/2+x,1/2-y,-z
1/2-x,1/2+y,1/2-z
1/2-x,1/2-y,-z
1/2+x,1/2+y,1/2-z
1/2-x,1/2+y,z
1/2+x,1/2-y,1/2+z
loop_
_atom_site_type_symbol
_atom_site_label
_atom_site_fract_x
_atom_site_fract_y
_atom_site_fract_z
Si Si1 0.803987 0.666347 0.412325
Si Si2 0.000000 0.892280 0.750000
Si Si3 0.301607 0.911176 0.664167
Si Si4 0.197409 0.900704 0.312910
Si Si5 0.187067 0.310848 0.357931
Si Si6 0.694742 0.224378 0.311319
Si Si7 0.307555 0.296055 0.022132
Si Si8 0.199005 0.507038 0.686859
O O1 0.794873 0.618210 0.389519
O O2 0.736003 0.697389 0.363181
O O3 0.716537 0.672936 0.470271
O O4 0.000000 0.677961 0.420528
O O5 0.847474 0.894545 0.796833
O O6 0.500000 0.907602 0.683994
O O7 0.267944 0.962059 0.657039
O O8 0.260859 0.901957 0.250000
O O9 0.275495 0.859724 0.341902
O O10 0.230785 0.948364 0.336194
O O11 0.000000 0.893801 0.311979
O O12 0.295770 0.274713 0.327049
O O13 0.207853 0.306898 0.423117
O O14 0.000000 0.299616 0.341376
O O15 0.767536 0.216598 0.250000
O O16 0.500000 0.211537 0.308181
O O17 0.500000 0.294339 0.038715
O O18 0.250000 0.250000 0.000000
O O19 0.262886 0.501393 0.750000
O O20 0.000000 0.512212 0.689414
#
# Coordination Sequence:
#
# PCOD9473865 Si02
#       8
#    16   4  16  16  16  16  16  16
#     4  10  22  40  60  85 117 155 194 241 296 344
#     4  12  22  32  60  86 124 166 210 236 298 358
#     4  10  22  37  56  86 126 162 201 248 295 351
#     4  10  21  35  57  86 120 154 193 240 294 352
#     4  12  24  39  58  82 112 152 194 241 295 344
#     4  10  21  36  57  82 116 154 187 228 289 348
#     4  12  24  41  64  86 110 146 199 249 293 347
#     4   9  17  32  54  82 117 158 196 236 287 349
#
# _framework density 19.177719
#
# number of rings (size 3 to 8) (size 9 to 14) (size 15 to 20)
#    0.000    1.517    2.069    3.517    2.897    2.759 
#    0.000    0.000    0.000    0.828    0.000    5.793 
#    0.000    0.000    0.000    0.000    0.000    0.000 
#
# Total GULP energy -323079.967606 kJ/mol
# GULP energy per Si atom -5570.344269 kJ/mol
# Density = 1.913407 g / cm^3
# Si number density = 19.177719 Si / 1000 Ang^3
#
#
#
# Elastic Constant Matrix: (Units=GPa)
#
#
# Indices 1 2 3 4 5 6 
#
# 1 56.0920 -5.1382 -4.2996 0.0000 0.0000 0.0000
# 2 -5.1382 92.2242 23.0048 0.0000 0.0000 0.0000
# 3 -4.2996 23.0048 55.6741 0.0000 0.0000 0.0000
# 4 0.0000 0.0000 0.0000 20.0258 0.0000 0.0000
# 5 0.0000 0.0000 0.0000 0.0000 20.2803 0.0000
# 6 0.0000 0.0000 0.0000 0.0000 0.0000 19.8140
#
#
#
# Elastic Compliance Matrix: (Units=1/GPa)
#
#
# Indices 1 2 3 4 5 6 
#
# 1 0.017978 0.000731 0.001087 0.000000 0.000000 0.000000
# 2 0.000731 0.012119 -0.004951 0.000000 0.000000 0.000000
# 3 0.001087 -0.004951 0.020091 0.000000 0.000000 0.000000
# 4 0.000000 0.000000 0.000000 0.049936 0.000000 0.000000
# 5 0.000000 0.000000 0.000000 0.000000 0.049309 0.000000
# 6 0.000000 0.000000 0.000000 0.000000 0.000000 0.050469
#
#
# Mechanical properties :
#
#
# Convention : Reuss Voigt Hill
#
# Bulk Modulus (GPa) = 22.76850 25.68047 24.22448
# Shear Modulus (GPa) = 22.64386 24.71890 23.68138
#
# Velocity S-wave (km/s) = 3.43991 3.59407 3.51784
# Velocity P-wave (km/s) = 5.26075 5.53561 5.39993
#
# Compressibility (1/GPa) = 0.04392033
#
# Stress axis : x y z
#
# Youngs Moduli (GPa) = 55.62336 82.51584 49.77244
#
# Poissons Ratio (x) = -0.06029 -0.05408
# Poissons Ratio (y) = -0.04064 0.24643
# Poissons Ratio (z) = -0.06044 0.40855
#
# Static dielectric constant tensor:
#      x y z
#    x 1.712330 0.000000 0.000000 
#    y 0.000000 1.683160 0.000000 
#    z 0.000000 0.000000 1.688290 
# 
# From -- ./inp_files/60609.got.cif
#   From: 2010.05.17/outbox.cif.g08.bks.cpg/sg63_31_cif.got.tgz:60609.got - 2010.06.03 15:47:04.
