data_PCOD9473314
_publ_section_title
;
Structure prediction by ZEFSAII (Michael W. Deem and Ramdas Pophale) SiO2 
 PCOD9473314
Probable space group: C M C M
;
_chemical_formula_sum "Si O2"
_cell_formula_units_Z 116
_cell_length_a 31.701369
_cell_length_b 23.049767
_cell_length_c 7.533106
_cell_angle_alpha 90.000000
_cell_angle_beta 90.000000
_cell_angle_gamma 90.000000
_cell_volume 5504.509625
_symmetry_space_group_name_H-M "C M C M"
_symmetry_group_IT_number 63
_symmetry_cell_setting 'orthorhombic'
loop_
_space_group_symop_operation_xyz
x,y,z
-x,-y,1/2+z
x,-y,-z
-x,y,1/2-z
-x,-y,-z
x,y,1/2-z
-x,y,z
x,-y,1/2+z
1/2+x,1/2+y,z
1/2-x,1/2-y,1/2+z
1/2+x,1/2-y,-z
1/2-x,1/2+y,1/2-z
1/2-x,1/2-y,-z
1/2+x,1/2+y,1/2-z
1/2-x,1/2+y,z
1/2+x,1/2-y,1/2+z
loop_
_atom_site_type_symbol
_atom_site_label
_atom_site_fract_x
_atom_site_fract_y
_atom_site_fract_z
Si Si1 0.000000 0.583730 0.750000
Si Si2 0.183510 0.067284 0.963659
Si Si3 0.564184 0.871816 0.964122
Si Si4 0.131051 0.824569 0.457220
Si Si5 0.856036 0.438982 0.542442
Si Si6 0.547083 0.736996 0.534244
Si Si7 0.773801 0.608796 0.547882
Si Si8 0.797880 0.731075 0.960936
O O1 0.963890 0.589240 0.592116
O O2 0.184350 0.072051 0.750000
O O3 0.150723 0.115792 0.031660
O O4 0.230356 0.085279 0.031062
O O5 0.174384 0.000000 0.000000
O O6 0.557287 0.880588 0.750000
O O7 0.612552 0.887198 0.004267
O O8 0.553811 0.804958 0.007512
O O9 0.122688 0.835859 0.250000
O O10 0.087045 0.799935 0.532131
O O11 0.167288 0.775021 0.465224
O O12 0.877803 0.500000 0.500000
O O13 0.847713 0.436163 0.750000
O O14 0.811150 0.437034 0.448343
O O15 0.547306 0.734100 0.750000
O O16 0.500000 0.719609 0.474384
O O17 0.763084 0.626019 0.750000
O O18 0.796220 0.665461 0.466760
O O19 0.805619 0.731463 0.750000
O O20 0.750000 0.750000 0.000000
#
# Coordination Sequence:
#
# PCOD9473314 Si02
#       8
#     4  16  16  16  16  16  16  16
#     4  12  22  36  70  86 114 160 184 250 306 352
#     4  10  21  37  55  78 112 152 196 239 283 342
#     4  10  22  40  61  88 118 150 196 241 299 366
#     4  10  20  37  58  83 116 155 189 233 294 345
#     4  11  24  40  60  82 113 152 198 249 293 344
#     4   9  17  35  62  87 115 144 186 237 287 356
#     4  10  21  37  56  82 114 150 195 239 284 345
#     4  11  21  35  55  84 119 149 184 234 283 346
#
# _framework density 21.073632
#
# number of rings (size 3 to 8) (size 9 to 14) (size 15 to 20)
#    0.000    1.793    2.069    2.276    1.931    4.414 
#    1.241    0.345    0.000    0.414    0.000    0.000 
#    0.000    0.000    0.000    0.000    0.000    0.000 
#
# Total GULP energy -323115.843869 kJ/mol
# GULP energy per Si atom -5570.962825 kJ/mol
# Density = 2.102567 g / cm^3
# Si number density = 21.073632 Si / 1000 Ang^3
#
#
#
# Elastic Constant Matrix: (Units=GPa)
#
#
# Indices 1 2 3 4 5 6 
#
# 1 155.6003 52.0119 1.1076 0.0000 0.0000 0.0000
# 2 52.0119 105.4789 -7.0455 0.0000 0.0000 0.0000
# 3 1.1076 -7.0455 62.8218 0.0000 0.0000 0.0000
# 4 0.0000 0.0000 0.0000 8.8920 0.0000 0.0000
# 5 0.0000 0.0000 0.0000 0.0000 5.7045 0.0000
# 6 0.0000 0.0000 0.0000 0.0000 0.0000 -3.9834
#
#
#
# Elastic Compliance Matrix: (Units=1/GPa)
#
#
# Indices 1 2 3 4 5 6 
#
# 1 0.007715 -0.003842 -0.000567 0.000000 0.000000 0.000000
# 2 -0.003842 0.011466 0.001354 0.000000 0.000000 0.000000
# 3 -0.000567 0.001354 0.016080 0.000000 0.000000 0.000000
# 4 0.000000 0.000000 0.000000 0.112460 0.000000 0.000000
# 5 0.000000 0.000000 0.000000 0.000000 0.175299 0.000000
# 6 0.000000 0.000000 0.000000 0.000000 0.000000 -0.251041
#
#
# Mechanical properties :
#
#
# Convention : Reuss Voigt Hill
#
# Bulk Modulus (GPa) = 34.30593 46.22767 40.26680
# Shear Modulus (GPa) = 56.94355 20.64444 38.79400
#
# Velocity S-wave (km/s) = 5.20383 3.13331 4.29520
# Velocity P-wave (km/s) = 7.24023 5.92233 6.61419
#
# Compressibility (1/GPa) = 0.02914948
#
# Stress axis : x y z
#
# Youngs Moduli (GPa) = 129.61648 87.21762 62.18968
#
# Poissons Ratio (x) = 0.33511 0.03526
# Poissons Ratio (y) = 0.49801 -0.08418
# Poissons Ratio (z) = 0.07348 -0.11806
#
# Static dielectric constant tensor:
#      x y z
#    x 1.791470 0.000000 0.000000 
#    y 0.000000 1.822920 0.000000 
#    z 0.000000 0.000000 1.824330 
# 
# From -- ./inp_files/14722.got.cif
#   From: 2010.05.17/outbox.cif.g08.bks.cpg/sg63_8_cif.got.tgz:14722.got - 2010.06.03 15:47:04.
