data_PCOD9473115
_publ_section_title
;
Structure prediction by ZEFSAII (Michael W. Deem and Ramdas Pophale) SiO2 
 PCOD9473115
Probable space group: C M C M
;
_chemical_formula_sum "Si O2"
_cell_formula_units_Z 72
_cell_length_a 30.106082
_cell_length_b 14.166452
_cell_length_c 8.272872
_cell_angle_alpha 90.000000
_cell_angle_beta 90.000000
_cell_angle_gamma 90.000000
_cell_volume 3528.349841
_symmetry_space_group_name_H-M "C M C M"
_symmetry_group_IT_number 63
_symmetry_cell_setting 'orthorhombic'
loop_
_space_group_symop_operation_xyz
x,y,z
-x,-y,1/2+z
x,-y,-z
-x,y,1/2-z
-x,-y,-z
x,y,1/2-z
-x,y,z
x,-y,1/2+z
1/2+x,1/2+y,z
1/2-x,1/2-y,1/2+z
1/2+x,1/2-y,-z
1/2-x,1/2+y,1/2-z
1/2-x,1/2-y,-z
1/2+x,1/2+y,1/2-z
1/2-x,1/2+y,z
1/2+x,1/2-y,1/2+z
loop_
_atom_site_type_symbol
_atom_site_label
_atom_site_fract_x
_atom_site_fract_y
_atom_site_fract_z
Si Si1 0.772479 0.890386 0.554656
Si Si2 0.088058 0.712692 0.442548
Si Si3 0.823490 0.391117 0.945961
Si Si4 0.129957 0.107409 0.056535
Si Si5 0.000000 0.607658 0.940968
O O1 0.772752 0.885636 0.750000
O O2 0.724698 0.851207 0.497662
O O3 0.820992 0.857654 0.496280
O O4 0.771438 0.000000 0.500000
O O5 0.088778 0.706707 0.250000
O O6 0.132642 0.661193 0.506966
O O7 0.093097 0.821148 0.493500
O O8 0.043990 0.661612 0.501495
O O9 0.823547 0.388109 0.750000
O O10 0.825988 0.500000 0.000000
O O11 0.130255 0.108817 0.250000
O O12 0.123986 0.000000 0.000000
O O13 0.000000 0.606224 0.750000
O O14 0.000000 0.500000 0.000000
#
# Coordination Sequence:
#
# PCOD9473115 Si02
#       5
#    16  16  16  16   8
#     4   8  15  29  49  76 112 153 194 234 280 333
#     4  11  23  39  60  87 117 151 194 241 292 348
#     4   9  18  32  52  80 115 153 193 238 286 339
#     4  10  20  36  58  84 117 157 198 240 286 337
#     4  12  26  46  69  92 119 150 186 232 290 348
#
# _framework density 20.406140000000001
#
# number of rings (size 3 to 8) (size 9 to 14) (size 15 to 20)
#    0.000    2.222    0.000    3.000    0.000    5.333 
#    0.000    0.556    0.000    0.000    0.000    0.000 
#    0.000    0.000    0.000    0.000    0.000    0.000 
#
# Total GULP energy -200947.608206 kJ/mol
# GULP energy per Si atom -5581.878006 kJ/mol
# Density = 2.035969 g / cm^3
# Si number density = 20.406140 Si / 1000 Ang^3
#
#
#
# Elastic Constant Matrix: (Units=GPa)
#
#
# Indices 1 2 3 4 5 6 
#
# 1 164.5551 96.3111 35.1612 0.0000 0.0000 0.0000
# 2 96.3111 118.5902 17.7242 0.0000 0.0000 0.0000
# 3 35.1612 17.7242 49.5489 0.0000 0.0000 0.0000
# 4 0.0000 0.0000 0.0000 26.6962 0.0000 0.0000
# 5 0.0000 0.0000 0.0000 0.0000 19.0315 0.0000
# 6 0.0000 0.0000 0.0000 0.0000 0.0000 40.4719
#
#
#
# Elastic Compliance Matrix: (Units=1/GPa)
#
#
# Indices 1 2 3 4 5 6 
#
# 1 0.012963 -0.009670 -0.005740 0.000000 0.000000 0.000000
# 2 -0.009670 0.016122 0.001095 0.000000 0.000000 0.000000
# 3 -0.005740 0.001095 0.023864 0.000000 0.000000 0.000000
# 4 0.000000 0.000000 0.000000 0.037459 0.000000 0.000000
# 5 0.000000 0.000000 0.000000 0.000000 0.052544 0.000000
# 6 0.000000 0.000000 0.000000 0.000000 0.000000 0.024708
#
#
# Mechanical properties :
#
#
# Convention : Reuss Voigt Hill
#
# Bulk Modulus (GPa) = 41.12006 70.12080 55.62043
# Shear Modulus (GPa) = 24.46232 29.47309 26.96771
#
# Velocity S-wave (km/s) = 3.46609 3.80455 3.63925
# Velocity P-wave (km/s) = 6.01772 7.33053 6.70632
#
# Compressibility (1/GPa) = 0.02431903
#
# Stress axis : x y z
#
# Youngs Moduli (GPa) = 77.14226 62.02713 41.90483
#
# Poissons Ratio (x) = 0.59979 0.24053
# Poissons Ratio (y) = 0.74596 -0.04588
# Poissons Ratio (z) = 0.44279 -0.06792
#
# Static dielectric constant tensor:
#      x y z
#    x 1.850350 0.000000 0.000000 
#    y 0.000000 1.660400 0.000000 
#    z 0.000000 0.000000 1.689160 
# 
# From -- ./inp_files/11721.got.cif
#   From: 2010.05.17/outbox.cif.g08.bks.cpg/sg63_6_cif.got.tgz:11721.got - 2010.06.03 15:47:04.
