data_PCOD9473698
_publ_section_title
;
Structure prediction by ZEFSAII (Michael W. Deem and Ramdas Pophale) SiO2 
 PCOD9473698
Probable space group: C M C M
;
_chemical_formula_sum "Si O2"
_cell_formula_units_Z 52
_cell_length_a 9.923565
_cell_length_b 13.738726
_cell_length_c 19.882056
_cell_angle_alpha 90.000000
_cell_angle_beta 90.000000
_cell_angle_gamma 90.000000
_cell_volume 2710.662662
_symmetry_space_group_name_H-M "C M C M"
_symmetry_group_IT_number 63
_symmetry_cell_setting 'orthorhombic'
loop_
_space_group_symop_operation_xyz
x,y,z
-x,-y,1/2+z
x,-y,-z
-x,y,1/2-z
-x,-y,-z
x,y,1/2-z
-x,y,z
x,-y,1/2+z
1/2+x,1/2+y,z
1/2-x,1/2-y,1/2+z
1/2+x,1/2-y,-z
1/2-x,1/2+y,1/2-z
1/2-x,1/2-y,-z
1/2+x,1/2+y,1/2-z
1/2-x,1/2+y,z
1/2+x,1/2-y,1/2+z
loop_
_atom_site_type_symbol
_atom_site_label
_atom_site_fract_x
_atom_site_fract_y
_atom_site_fract_z
Si Si1 0.269476 0.350193 0.635192
Si Si2 0.500000 0.691433 0.750000
Si Si3 0.000000 0.230904 0.895114
Si Si4 0.000000 0.893248 0.970279
Si Si5 0.339585 0.011793 0.250000
Si Si6 0.301751 0.780149 0.250000
O O1 0.132861 0.297999 0.610190
O O2 0.367802 0.378947 0.575447
O O3 0.228401 0.439564 0.684298
O O4 0.347267 0.272308 0.682651
O O5 0.500000 0.656999 0.828964
O O6 0.358500 0.745858 0.750000
O O7 0.000000 0.177391 0.965680
O O8 0.000000 0.000000 0.000000
O O9 0.500000 0.031501 0.250000
O O10 0.318522 0.895347 0.250000
#
# Coordination Sequence:
#
# PCOD9473698 Si02
#       6
#    16   4   8   8   8   8
#     4  10  23  43  65  97 130 175 216 272 327 393
#     4   8  18  36  70  94 110 166 212 272 330 372
#     4  10  20  46  66  88 130 175 218 268 331 387
#     4  12  28  41  61  96 140 178 222 265 329 396
#     4  11  22  40  70 101 126 164 230 276 330 390
#     4   9  21  36  71  93 128 158 220 273 328 370
#
# _framework density 19.183499999999999
#
# number of rings (size 3 to 8) (size 9 to 14) (size 15 to 20)
#    0.000    1.846    1.538    1.846   12.923    1.846 
#    0.000    0.769    0.000    0.000    0.000    0.000 
#    0.000    0.000    0.000    0.000    0.000    0.000 
#
# Total GULP energy -144855.974494 kJ/mol
# GULP energy per Si atom -5571.383634 kJ/mol
# Density = 1.913984 g / cm^3
# Si number density = 19.183500 Si / 1000 Ang^3
#
#
#
# Elastic Constant Matrix: (Units=GPa)
#
#
# Indices 1 2 3 4 5 6 
#
# 1 141.1212 48.6210 82.2807 0.0000 0.0000 0.0000
# 2 48.6210 152.1089 93.6517 0.0000 0.0000 0.0000
# 3 82.2807 93.6517 198.9047 0.0000 0.0000 0.0000
# 4 0.0000 0.0000 0.0000 20.3262 0.0000 0.0000
# 5 0.0000 0.0000 0.0000 0.0000 33.0147 0.0000
# 6 0.0000 0.0000 0.0000 0.0000 0.0000 1.4008
#
#
#
# Elastic Compliance Matrix: (Units=1/GPa)
#
#
# Indices 1 2 3 4 5 6 
#
# 1 0.009418 -0.000861 -0.003490 0.000000 0.000000 0.000000
# 2 -0.000861 0.009337 -0.004040 0.000000 0.000000 0.000000
# 3 -0.003490 -0.004040 0.008373 0.000000 0.000000 0.000000
# 4 0.000000 0.000000 0.000000 0.049198 0.000000 0.000000
# 5 0.000000 0.000000 0.000000 0.000000 0.030290 0.000000
# 6 0.000000 0.000000 0.000000 0.000000 0.000000 0.713878
#
#
# Mechanical properties :
#
#
# Convention : Reuss Voigt Hill
#
# Bulk Modulus (GPa) = 96.66375 104.58240 100.62307
# Shear Modulus (GPa) = 5.94725 28.78710 17.36718
#
# Velocity S-wave (km/s) = 1.76265 3.87798 3.01212
# Velocity P-wave (km/s) = 7.39195 8.64216 8.04139
#
# Compressibility (1/GPa) = 0.01034514
#
# Stress axis : x y z
#
# Youngs Moduli (GPa) = 106.18046 107.10263 119.42543
#
# Poissons Ratio (x) = 0.09227 0.41683
# Poissons Ratio (y) = 0.09147 0.48245
# Poissons Ratio (z) = 0.37060 0.43267
#
# Static dielectric constant tensor:
#      x y z
#    x 1.678690 0.000000 0.000000 
#    y 0.000000 1.675370 0.000000 
#    z 0.000000 0.000000 1.700000 
# 
# From -- ./inp_files/28807.got.cif
#   From: 2010.05.17/outbox.cif.g08.bks.cpg/sg63_15_cif.got.tgz:28807.got - 2010.06.03 15:47:04.
