data_PCOD9473566
_publ_section_title
;
Structure prediction by ZEFSAII (Michael W. Deem and Ramdas Pophale) SiO2 
 PCOD9473566
Probable space group: C M C M
;
_chemical_formula_sum "Si O2"
_cell_formula_units_Z 72
_cell_length_a 10.777020
_cell_length_b 14.411315
_cell_length_c 23.030525
_cell_angle_alpha 90.000000
_cell_angle_beta 90.000000
_cell_angle_gamma 90.000000
_cell_volume 3576.894559
_symmetry_space_group_name_H-M "C M C M"
_symmetry_group_IT_number 63
_symmetry_cell_setting 'orthorhombic'
loop_
_space_group_symop_operation_xyz
x,y,z
-x,-y,1/2+z
x,-y,-z
-x,y,1/2-z
-x,-y,-z
x,y,1/2-z
-x,y,z
x,-y,1/2+z
1/2+x,1/2+y,z
1/2-x,1/2-y,1/2+z
1/2+x,1/2-y,-z
1/2-x,1/2+y,1/2-z
1/2-x,1/2-y,-z
1/2+x,1/2+y,1/2-z
1/2-x,1/2+y,z
1/2+x,1/2-y,1/2+z
loop_
_atom_site_type_symbol
_atom_site_label
_atom_site_fract_x
_atom_site_fract_y
_atom_site_fract_z
Si Si1 0.749587 0.475703 0.816785
Si Si2 0.748149 0.356391 0.094878
Si Si3 0.642097 0.783189 0.815095
Si Si4 0.500000 0.356290 0.682480
Si Si5 0.500000 0.229969 0.572388
Si Si6 0.500000 0.606309 0.979567
O O1 0.750051 0.510074 0.750000
O O2 0.767178 0.556420 0.862636
O O3 0.849143 0.393520 0.822538
O O4 0.619660 0.421723 0.826548
O O5 0.716441 0.269247 0.135913
O O6 0.875375 0.329836 0.062619
O O7 0.626628 0.375641 0.056286
O O8 0.690559 0.763508 0.750000
O O9 0.500000 0.751761 0.817745
O O10 0.500000 0.326371 0.750000
O O11 0.500000 0.270757 0.638152
O O12 0.500000 0.320431 0.532000
O O13 0.500000 0.500000 0.000000
#
# Coordination Sequence:
#
# PCOD9473566 Si02
#       6
#    16  16  16   8   8   8
#     4  10  21  37  61  99 136 171 209 259 323 395
#     4  12  24  43  70  95 130 174 221 272 333 394
#     4  10  21  38  63  97 137 175 214 260 318 393
#     4  10  20  38  66  95 133 171 212 264 321 393
#     4  12  26  44  66  99 132 158 226 278 342 383
#     4  12  28  50  70  89 122 180 230 286 326 391
#
# _framework density 20.129190999999999
#
# number of rings (size 3 to 8) (size 9 to 14) (size 15 to 20)
#    0.000    1.111    3.333    3.333    1.556    0.889 
#    0.000    0.556    0.000    0.000    0.000    0.000 
#    0.000    0.000    0.000    0.000    0.000    0.000 
#
# Total GULP energy -201198.176203 kJ/mol
# GULP energy per Si atom -5588.838228 kJ/mol
# Density = 2.008338 g / cm^3
# Si number density = 20.129191 Si / 1000 Ang^3
#
#
#
# Elastic Constant Matrix: (Units=GPa)
#
#
# Indices 1 2 3 4 5 6 
#
# 1 137.8346 44.8083 43.4438 0.0000 0.0000 0.0000
# 2 44.8083 76.6989 44.7305 0.0000 0.0000 0.0000
# 3 43.4438 44.7305 70.9622 0.0000 0.0000 0.0000
# 4 0.0000 0.0000 0.0000 33.0251 0.0000 0.0000
# 5 0.0000 0.0000 0.0000 0.0000 19.8532 0.0000
# 6 0.0000 0.0000 0.0000 0.0000 0.0000 22.9263
#
#
#
# Elastic Compliance Matrix: (Units=1/GPa)
#
#
# Indices 1 2 3 4 5 6 
#
# 1 0.009526 -0.003422 -0.003675 0.000000 0.000000 0.000000
# 2 -0.003422 0.021846 -0.011676 0.000000 0.000000 0.000000
# 3 -0.003675 -0.011676 0.023701 0.000000 0.000000 0.000000
# 4 0.000000 0.000000 0.000000 0.030280 0.000000 0.000000
# 5 0.000000 0.000000 0.000000 0.000000 0.050370 0.000000
# 6 0.000000 0.000000 0.000000 0.000000 0.000000 0.043618
#
#
# Mechanical properties :
#
#
# Convention : Reuss Voigt Hill
#
# Bulk Modulus (GPa) = 57.04938 61.27342 59.16140
# Shear Modulus (GPa) = 22.44880 25.32846 23.88863
#
# Velocity S-wave (km/s) = 3.34314 3.55109 3.44868
# Velocity P-wave (km/s) = 6.58067 6.87894 6.73146
#
# Compressibility (1/GPa) = 0.01752868
#
# Stress axis : x y z
#
# Youngs Moduli (GPa) = 104.97870 45.77422 42.19147
#
# Poissons Ratio (x) = 0.15664 0.15504
# Poissons Ratio (y) = 0.35923 0.49262
# Poissons Ratio (z) = 0.38577 0.53445
#
# Static dielectric constant tensor:
#      x y z
#    x 1.757410 0.000000 0.000000 
#    y 0.000000 1.675030 0.000000 
#    z 0.000000 0.000000 1.703100 
# 
# From -- ./inp_files/68010.got.cif
#   From: 2010.05.17/outbox.cif.g08.bks.cpg/sg63_35_cif.got.tgz:68010.got - 2010.06.03 15:47:04.
