data_PCOD9473937
_publ_section_title
;
Structure prediction by ZEFSAII (Michael W. Deem and Ramdas Pophale) SiO2 
 PCOD9473937
Probable space group: C M C M
;
_chemical_formula_sum "Si O2"
_cell_formula_units_Z 96
_cell_length_a 14.220539
_cell_length_b 15.982552
_cell_length_c 23.082110
_cell_angle_alpha 90.000000
_cell_angle_beta 90.000000
_cell_angle_gamma 90.000000
_cell_volume 5246.113595
_symmetry_space_group_name_H-M "C M C M"
_symmetry_group_IT_number 63
_symmetry_cell_setting 'orthorhombic'
loop_
_space_group_symop_operation_xyz
x,y,z
-x,-y,1/2+z
x,-y,-z
-x,y,1/2-z
-x,-y,-z
x,y,1/2-z
-x,y,z
x,-y,1/2+z
1/2+x,1/2+y,z
1/2-x,1/2-y,1/2+z
1/2+x,1/2-y,-z
1/2-x,1/2+y,1/2-z
1/2-x,1/2-y,-z
1/2+x,1/2+y,1/2-z
1/2-x,1/2+y,z
1/2+x,1/2-y,1/2+z
loop_
_atom_site_type_symbol
_atom_site_label
_atom_site_fract_x
_atom_site_fract_y
_atom_site_fract_z
Si Si1 0.304722 0.097435 0.511543
Si Si2 0.000000 0.138009 0.077032
Si Si3 0.000000 0.776245 0.392593
Si Si4 0.000000 0.957409 0.091655
Si Si5 0.787467 0.868048 0.611468
Si Si6 0.500000 0.189957 0.991896
Si Si7 0.706677 0.555340 0.870236
Si Si8 0.689006 0.276940 0.317462
O O1 0.251965 0.134978 0.454994
O O2 0.402675 0.143861 0.523631
O O3 0.236933 0.093907 0.567365
O O4 0.326015 0.000000 0.500000
O O5 0.900333 0.140015 0.109992
O O6 0.000000 0.219993 0.038092
O O7 0.000000 0.041741 0.053625
O O8 0.000000 0.862332 0.430199
O O9 0.000000 0.701977 0.438638
O O10 0.090592 0.775635 0.351954
O O11 0.905251 0.959185 0.128966
O O12 0.749178 0.793540 0.650358
O O13 0.755642 0.960478 0.634024
O O14 0.729801 0.628946 0.825765
O O15 0.677496 0.258882 0.250000
#
# Coordination Sequence:
#
# PCOD9473937 Si02
#       8
#    16   8   8   8  16   8  16  16
#     4  10  21  36  55  81 114 147 183 227 279 333
#     4  10  22  32  55  84 117 146 177 215 282 346
#     4  10  21  36  56  80 108 140 188 231 274 318
#     4   8  18  36  50  81 116 144 172 221 275 331
#     4  10  21  38  56  85 114 146 185 227 278 335
#     4  12  21  32  54  81 115 152 177 224 274 337
#     4   9  20  36  58  83 112 144 184 228 278 334
#     4  11  22  38  59  80 109 146 187 232 274 322
#
# _framework density 18.29926
#
# number of rings (size 3 to 8) (size 9 to 14) (size 15 to 20)
#    0.000    2.000    1.667    1.500    4.667    2.333 
#    0.000    0.417    0.000    3.000    0.000    0.000 
#    0.000    0.000    0.000    0.000    0.000    0.000 
#
# Total GULP energy -267301.490716 kJ/mol
# GULP energy per Si atom -5568.781057 kJ/mol
# Density = 1.825761 g / cm^3
# Si number density = 18.299260 Si / 1000 Ang^3
#
#
#
# Elastic Constant Matrix: (Units=GPa)
#
#
# Indices 1 2 3 4 5 6 
#
# 1 98.9195 57.8864 35.7332 0.0000 0.0000 0.0000
# 2 57.8864 99.4288 58.8781 0.0000 0.0000 0.0000
# 3 35.7332 58.8781 78.0935 0.0000 0.0000 0.0000
# 4 0.0000 0.0000 0.0000 18.9062 0.0000 0.0000
# 5 0.0000 0.0000 0.0000 0.0000 10.3104 0.0000
# 6 0.0000 0.0000 0.0000 0.0000 0.0000 15.1680
#
#
#
# Elastic Compliance Matrix: (Units=1/GPa)
#
#
# Indices 1 2 3 4 5 6 
#
# 1 0.015345 -0.008628 -0.000516 0.000000 0.000000 0.000000
# 2 -0.008628 0.023020 -0.013408 0.000000 0.000000 0.000000
# 3 -0.000516 -0.013408 0.023151 0.000000 0.000000 0.000000
# 4 0.000000 0.000000 0.000000 0.052893 0.000000 0.000000
# 5 0.000000 0.000000 0.000000 0.000000 0.096990 0.000000
# 6 0.000000 0.000000 0.000000 0.000000 0.000000 0.065928
#
#
# Mechanical properties :
#
#
# Convention : Reuss Voigt Hill
#
# Bulk Modulus (GPa) = 60.93581 64.60414 62.76997
# Shear Modulus (GPa) = 15.24851 17.13985 16.19418
#
# Velocity S-wave (km/s) = 2.88980 3.06378 2.97806
# Velocity P-wave (km/s) = 6.67132 6.92073 6.79717
#
# Compressibility (1/GPa) = 0.01641071
#
# Stress axis : x y z
#
# Youngs Moduli (GPa) = 65.16967 43.44009 43.19556
#
# Poissons Ratio (x) = 0.37478 0.02231
# Poissons Ratio (y) = 0.56226 0.57918
# Poissons Ratio (z) = 0.03366 0.58245
#
# Static dielectric constant tensor:
#      x y z
#    x 1.628640 0.000000 0.000000 
#    y 0.000000 1.676840 0.000000 
#    z 0.000000 0.000000 1.607490 
# 
# From -- ./inp_files/54299.got.cif
#   From: 2010.05.17/outbox.cif.g08.bks.cpg/sg63_28_cif.got.tgz:54299.got - 2010.06.03 15:47:04.
