data_PCOD9473805
_publ_section_title
;
Structure prediction by ZEFSAII (Michael W. Deem and Ramdas Pophale) SiO2 
 PCOD9473805
Probable space group: C M C M
;
_chemical_formula_sum "Si O2"
_cell_formula_units_Z 80
_cell_length_a 7.681003
_cell_length_b 32.231982
_cell_length_c 18.091192
_cell_angle_alpha 90.000000
_cell_angle_beta 90.000000
_cell_angle_gamma 90.000000
_cell_volume 4478.907872
_symmetry_space_group_name_H-M "C M C M"
_symmetry_group_IT_number 63
_symmetry_cell_setting 'orthorhombic'
loop_
_space_group_symop_operation_xyz
x,y,z
-x,-y,1/2+z
x,-y,-z
-x,y,1/2-z
-x,-y,-z
x,y,1/2-z
-x,y,z
x,-y,1/2+z
1/2+x,1/2+y,z
1/2-x,1/2-y,1/2+z
1/2+x,1/2-y,-z
1/2-x,1/2+y,1/2-z
1/2-x,1/2-y,-z
1/2+x,1/2+y,1/2-z
1/2-x,1/2+y,z
1/2+x,1/2-y,1/2+z
loop_
_atom_site_type_symbol
_atom_site_label
_atom_site_fract_x
_atom_site_fract_y
_atom_site_fract_z
Si Si1 0.500000 0.048657 0.513859
Si Si2 0.296574 0.653863 0.883674
Si Si3 0.296253 0.391565 0.959858
Si Si4 0.706942 0.745548 0.913430
Si Si5 0.293086 0.669456 0.332777
Si Si6 0.500000 0.093407 0.831525
O O1 0.330093 0.070554 0.478562
O O2 0.500000 0.061216 0.600620
O O3 0.500000 0.000000 0.500000
O O4 0.500000 0.651429 0.860250
O O5 0.231404 0.701282 0.882045
O O6 0.168686 0.622963 0.841370
O O7 0.290105 0.639217 0.969399
O O8 0.500000 0.403419 0.950431
O O9 0.229871 0.365602 0.889475
O O10 0.500000 0.744076 0.907928
O O11 0.768242 0.785395 0.868498
O O12 0.750000 0.750000 0.000000
O O13 0.220143 0.667466 0.250000
O O14 0.500000 0.662843 0.328490
O O15 0.500000 0.074531 0.750000
#
# Coordination Sequence:
#
# PCOD9473805 Si02
#       6
#     8  16  16  16  16   8
#     4  10  22  40  64  90 110 136 182 228 284 357
#     4   9  19  34  53  78 107 150 194 227 267 327
#     4   9  18  36  58  80 108 145 184 222 276 336
#     4  11  21  31  51  76 108 150 196 239 277 320
#     4  10  21  35  51  76 112 151 192 235 278 323
#     4  10  22  38  60  82 112 146 182 232 287 333
#
# _framework density 17.861495999999999
#
# number of rings (size 3 to 8) (size 9 to 14) (size 15 to 20)
#    0.000    2.200    2.000    0.600    4.200    2.000 
#    0.000    3.000    0.000    0.000    0.000    0.000 
#    0.000    0.000    0.000    0.000    0.000    0.000 
#
# Total GULP energy -223174.332003 kJ/mol
# GULP energy per Si atom -5579.358300 kJ/mol
# Density = 1.782084 g / cm^3
# Si number density = 17.861496 Si / 1000 Ang^3
#
#
#
# Elastic Constant Matrix: (Units=GPa)
#
#
# Indices 1 2 3 4 5 6 
#
# 1 71.4907 43.8424 31.0826 0.0000 0.0000 0.0000
# 2 43.8424 144.1722 59.9192 0.0000 0.0000 0.0000
# 3 31.0826 59.9192 118.2346 0.0000 0.0000 0.0000
# 4 0.0000 0.0000 0.0000 10.0890 0.0000 0.0000
# 5 0.0000 0.0000 0.0000 0.0000 12.7985 0.0000
# 6 0.0000 0.0000 0.0000 0.0000 0.0000 19.9298
#
#
#
# Elastic Compliance Matrix: (Units=1/GPa)
#
#
# Indices 1 2 3 4 5 6 
#
# 1 0.017735 -0.004377 -0.002444 0.000000 0.000000 0.000000
# 2 -0.004377 0.009867 -0.003850 0.000000 0.000000 0.000000
# 3 -0.002444 -0.003850 0.011051 0.000000 0.000000 0.000000
# 4 0.000000 0.000000 0.000000 0.099118 0.000000 0.000000
# 5 0.000000 0.000000 0.000000 0.000000 0.078134 0.000000
# 6 0.000000 0.000000 0.000000 0.000000 0.000000 0.050176
#
#
# Mechanical properties :
#
#
# Convention : Reuss Voigt Hill
#
# Bulk Modulus (GPa) = 57.76613 67.06512 62.41562
# Shear Modulus (GPa) = 17.05351 21.83367 19.44359
#
# Velocity S-wave (km/s) = 3.09328 3.50006 3.30294
# Velocity P-wave (km/s) = 6.72080 7.34593 7.04031
#
# Compressibility (1/GPa) = 0.01731118
#
# Stress axis : x y z
#
# Youngs Moduli (GPa) = 56.38602 101.34456 90.48747
#
# Poissons Ratio (x) = 0.44363 0.22114
# Poissons Ratio (y) = 0.24683 0.34836
# Poissons Ratio (z) = 0.13780 0.39016
#
# Static dielectric constant tensor:
#      x y z
#    x 1.628880 0.000000 0.000000 
#    y 0.000000 1.569880 0.000000 
#    z 0.000000 0.000000 1.627250 
# 
# From -- ./inp_files/40613.got.cif
#   From: 2010.05.17/outbox.cif.g08.bks.cpg/sg63_21_cif.got.tgz:40613.got - 2010.06.03 15:47:04.
