data_PCOD9473997
_publ_section_title
;
Structure prediction by ZEFSAII (Michael W. Deem and Ramdas Pophale) SiO2 
 PCOD9473997
Probable space group: C M C M
;
_chemical_formula_sum "Si O2"
_cell_formula_units_Z 112
_cell_length_a 15.230646
_cell_length_b 12.204575
_cell_length_c 29.551770
_cell_angle_alpha 90.000000
_cell_angle_beta 90.000000
_cell_angle_gamma 90.000000
_cell_volume 5493.188253
_symmetry_space_group_name_H-M "C M C M"
_symmetry_group_IT_number 63
_symmetry_cell_setting 'orthorhombic'
loop_
_space_group_symop_operation_xyz
x,y,z
-x,-y,1/2+z
x,-y,-z
-x,y,1/2-z
-x,-y,-z
x,y,1/2-z
-x,y,z
x,-y,1/2+z
1/2+x,1/2+y,z
1/2-x,1/2-y,1/2+z
1/2+x,1/2-y,-z
1/2-x,1/2+y,1/2-z
1/2-x,1/2-y,-z
1/2+x,1/2+y,1/2-z
1/2-x,1/2+y,z
1/2+x,1/2-y,1/2+z
loop_
_atom_site_type_symbol
_atom_site_label
_atom_site_fract_x
_atom_site_fract_y
_atom_site_fract_z
Si Si1 0.394587 0.450404 0.199259
Si Si2 0.399185 0.357181 0.629009
Si Si3 0.262678 0.038340 0.948725
Si Si4 0.789502 0.343648 0.622009
Si Si5 0.898272 0.700088 0.197399
Si Si6 0.897925 0.181639 0.940801
Si Si7 0.097730 0.272165 0.042234
O O1 0.364555 0.487876 0.250000
O O2 0.500000 0.441663 0.202570
O O3 0.380917 0.530280 0.156581
O O4 0.364408 0.325620 0.191867
O O5 0.500000 0.325107 0.643365
O O6 0.305544 0.297676 0.637556
O O7 0.401622 0.334467 0.574805
O O8 0.162507 0.075814 0.943600
O O9 0.327469 0.142512 0.943483
O O10 0.279377 0.943377 0.912808
O O11 0.277559 0.000000 0.000000
O O12 0.840761 0.377966 0.666747
O O13 0.852018 0.258247 0.596150
O O14 0.893448 0.673851 0.250000
O O15 0.000000 0.696505 0.183468
O O16 0.000000 0.160946 0.930745
O O17 0.890670 0.238022 0.990226
O O18 0.000000 0.322086 0.046983
#
# Coordination Sequence:
#
# PCOD9473997 Si02
#       7
#    16  16  16  16  16  16  16
#     4   8  16  34  62  93 122 156 202 258 315 370
#     4  10  21  36  58  88 126 166 208 260 319 376
#     4  12  24  40  63  90 129 168 218 266 313 374
#     4  12  24  38  65  92 126 167 210 259 320 380
#     4   9  20  41  66  93 127 164 208 262 314 374
#     4  11  24  43  64  91 126 168 216 268 316 370
#     4  10  21  40  61  85 127 175 215 257 316 377
#
# _framework density 20.388888999999999
#
# number of rings (size 3 to 8) (size 9 to 14) (size 15 to 20)
#    0.000    1.714    2.857    2.571    2.000    2.857 
#    0.000    0.000    0.000    0.857    0.000    2.000 
#    0.000    0.000    0.000    0.000    0.000    0.000 
#
# Total GULP energy -311961.438825 kJ/mol
# GULP energy per Si atom -5570.739979 kJ/mol
# Density = 2.034248 g / cm^3
# Si number density = 20.388889 Si / 1000 Ang^3
#
#
#
# Elastic Constant Matrix: (Units=GPa)
#
#
# Indices 1 2 3 4 5 6 
#
# 1 138.4202 35.8301 56.6443 0.0000 0.0000 0.0000
# 2 35.8301 54.4808 32.8384 0.0000 0.0000 0.0000
# 3 56.6443 32.8384 87.1720 0.0000 0.0000 0.0000
# 4 0.0000 0.0000 0.0000 33.0305 0.0000 0.0000
# 5 0.0000 0.0000 0.0000 0.0000 26.5556 0.0000
# 6 0.0000 0.0000 0.0000 0.0000 0.0000 11.8024
#
#
#
# Elastic Compliance Matrix: (Units=1/GPa)
#
#
# Indices 1 2 3 4 5 6 
#
# 1 0.010349 -0.003562 -0.005383 0.000000 0.000000 0.000000
# 2 -0.003562 0.024973 -0.007093 0.000000 0.000000 0.000000
# 3 -0.005383 -0.007093 0.017642 0.000000 0.000000 0.000000
# 4 0.000000 0.000000 0.000000 0.030275 0.000000 0.000000
# 5 0.000000 0.000000 0.000000 0.000000 0.037657 0.000000
# 6 0.000000 0.000000 0.000000 0.000000 0.000000 0.084728
#
#
# Mechanical properties :
#
#
# Convention : Reuss Voigt Hill
#
# Bulk Modulus (GPa) = 47.87494 58.96651 53.42072
# Shear Modulus (GPa) = 20.43630 24.59503 22.51567
#
# Velocity S-wave (km/s) = 3.16939 3.47694 3.32672
# Velocity P-wave (km/s) = 6.07661 6.71584 6.40421
#
# Compressibility (1/GPa) = 0.02088776
#
# Stress axis : x y z
#
# Youngs Moduli (GPa) = 96.62563 40.04350 56.68402
#
# Poissons Ratio (x) = 0.14262 0.30514
# Poissons Ratio (y) = 0.34414 0.40207
# Poissons Ratio (z) = 0.52016 0.28404
#
# Static dielectric constant tensor:
#      x y z
#    x 1.765810 0.000000 0.000000 
#    y 0.000000 1.735240 0.000000 
#    z 0.000000 0.000000 1.752120 
# 
# From -- ./inp_files/73401.got.cif
#   From: 2010.05.17/outbox.cif.g08.bks.cpg/sg63_37_cif.got.tgz:73401.got - 2010.06.03 15:47:04.
