data_PCOD9473503
_publ_section_title
;
Structure prediction by ZEFSAII (Michael W. Deem and Ramdas Pophale) SiO2 
 PCOD9473503
Probable space group: C M C M
;
_chemical_formula_sum "Si O2"
_cell_formula_units_Z 72
_cell_length_a 10.651135
_cell_length_b 27.767927
_cell_length_c 12.696679
_cell_angle_alpha 90.000000
_cell_angle_beta 90.000000
_cell_angle_gamma 90.000000
_cell_volume 3755.169008
_symmetry_space_group_name_H-M "C M C M"
_symmetry_group_IT_number 63
_symmetry_cell_setting 'orthorhombic'
loop_
_space_group_symop_operation_xyz
x,y,z
-x,-y,1/2+z
x,-y,-z
-x,y,1/2-z
-x,-y,-z
x,y,1/2-z
-x,y,z
x,-y,1/2+z
1/2+x,1/2+y,z
1/2-x,1/2-y,1/2+z
1/2+x,1/2-y,-z
1/2-x,1/2+y,1/2-z
1/2-x,1/2-y,-z
1/2+x,1/2+y,1/2-z
1/2-x,1/2+y,z
1/2+x,1/2-y,1/2+z
loop_
_atom_site_type_symbol
_atom_site_label
_atom_site_fract_x
_atom_site_fract_y
_atom_site_fract_z
Si Si1 0.643391 0.691213 0.084623
Si Si2 0.500000 0.526466 0.380860
Si Si3 0.754646 0.587933 0.368744
Si Si4 0.500000 0.057405 0.003647
Si Si5 0.746860 0.795712 0.129671
Si Si6 0.000000 0.646883 0.873682
O O1 0.500000 0.689380 0.120896
O O2 0.715552 0.643430 0.118313
O O3 0.708537 0.739710 0.125671
O O4 0.648877 0.694611 0.957525
O O5 0.500000 0.500000 0.500000
O O6 0.500000 0.508301 0.250000
O O7 0.627779 0.557326 0.386649
O O8 0.796357 0.579115 0.250000
O O9 0.871289 0.573404 0.440323
O O10 0.500000 0.090588 0.899596
O O11 0.500000 0.000000 0.000000
O O12 0.777406 0.809159 0.250000
O O13 0.625237 0.825794 0.089807
O O14 0.000000 0.654414 0.750000
#
# Coordination Sequence:
#
# PCOD9473503 Si02
#       6
#    16   8  16   8  16   8
#     4  11  21  36  62  90 124 162 203 252 310 378
#     4  10  22  43  67  93 124 162 207 262 321 388
#     4  11  23  40  64  92 124 162 209 260 320 383
#     4  12  25  43  63  88 124 163 217 276 323 371
#     4  10  21  37  58  87 123 161 200 246 306 380
#     4  10  20  38  62  85 115 161 206 246 308 381
#
# _framework density 19.173572
#
# number of rings (size 3 to 8) (size 9 to 14) (size 15 to 20)
#    0.000    1.333    4.444    1.667    0.000    2.222 
#    0.000    2.222    0.000    0.000    0.000    0.000 
#    0.000    0.000    0.000    0.000    0.000    0.000 
#
# Total GULP energy -200539.851643 kJ/mol
# GULP energy per Si atom -5570.551435 kJ/mol
# Density = 1.912993 g / cm^3
# Si number density = 19.173572 Si / 1000 Ang^3
#
#
#
# Elastic Constant Matrix: (Units=GPa)
#
#
# Indices 1 2 3 4 5 6 
#
# 1 85.1679 12.3650 3.4207 0.0000 0.0000 0.0000
# 2 12.3650 97.8539 -6.0509 0.0000 0.0000 0.0000
# 3 3.4207 -6.0509 65.4613 0.0000 0.0000 0.0000
# 4 0.0000 0.0000 0.0000 22.2481 0.0000 0.0000
# 5 0.0000 0.0000 0.0000 0.0000 -16.6306 0.0000
# 6 0.0000 0.0000 0.0000 0.0000 0.0000 26.6036
#
#
#
# Elastic Compliance Matrix: (Units=1/GPa)
#
#
# Indices 1 2 3 4 5 6 
#
# 1 0.012000 -0.001564 -0.000772 0.000000 0.000000 0.000000
# 2 -0.001564 0.010482 0.001051 0.000000 0.000000 0.000000
# 3 -0.000772 0.001051 0.015414 0.000000 0.000000 0.000000
# 4 0.000000 0.000000 0.000000 0.044948 0.000000 0.000000
# 5 0.000000 0.000000 0.000000 0.000000 -0.060130 0.000000
# 6 0.000000 0.000000 0.000000 0.000000 0.000000 0.037589
#
#
# Mechanical properties :
#
#
# Convention : Reuss Voigt Hill
#
# Bulk Modulus (GPa) = 28.30845 29.77252 29.04049
# Shear Modulus (GPa) = 66.98227 22.36076 44.67152
#
# Velocity S-wave (km/s) = 5.91697 3.41871 4.83209
# Velocity P-wave (km/s) = 7.84073 5.58078 6.80522
#
# Compressibility (1/GPa) = 0.03532514
#
# Stress axis : x y z
#
# Youngs Moduli (GPa) = 83.33632 95.40246 64.87758
#
# Poissons Ratio (x) = 0.14921 0.05006
# Poissons Ratio (y) = 0.13034 -0.06816
# Poissons Ratio (z) = 0.06430 -0.10023
#
# Static dielectric constant tensor:
#      x y z
#    x 1.661320 0.000000 0.000000 
#    y 0.000000 1.646790 0.000000 
#    z 0.000000 0.000000 1.720590 
# 
# From -- ./inp_files/27942.got.cif
#   From: 2010.05.17/outbox.cif.g08.bks.cpg/sg63_14_cif.got.tgz:27942.got - 2010.06.03 15:47:04.
