data_PCOD9473224
_publ_section_title
;
Structure prediction by ZEFSAII (Michael W. Deem and Ramdas Pophale) SiO2 
 PCOD9473224
Probable space group: C M C M
;
_chemical_formula_sum "Si O2"
_cell_formula_units_Z 84
_cell_length_a 15.155337
_cell_length_b 29.989035
_cell_length_c 10.251719
_cell_angle_alpha 90.000000
_cell_angle_beta 90.000000
_cell_angle_gamma 90.000000
_cell_volume 4659.344075
_symmetry_space_group_name_H-M "C M C M"
_symmetry_group_IT_number 63
_symmetry_cell_setting 'orthorhombic'
loop_
_space_group_symop_operation_xyz
x,y,z
-x,-y,1/2+z
x,-y,-z
-x,y,1/2-z
-x,-y,-z
x,y,1/2-z
-x,y,z
x,-y,1/2+z
1/2+x,1/2+y,z
1/2-x,1/2-y,1/2+z
1/2+x,1/2-y,-z
1/2-x,1/2+y,1/2-z
1/2-x,1/2-y,-z
1/2+x,1/2+y,1/2-z
1/2-x,1/2+y,z
1/2+x,1/2-y,1/2+z
loop_
_atom_site_type_symbol
_atom_site_label
_atom_site_fract_x
_atom_site_fract_y
_atom_site_fract_z
Si Si1 0.399508 0.034431 0.250000
Si Si2 0.697171 0.215551 0.405192
Si Si3 0.000000 0.817926 0.905807
Si Si4 0.500000 0.216033 0.989406
Si Si5 0.676049 0.363342 0.905465
Si Si6 0.500000 0.853319 0.250000
Si Si7 0.141896 0.431120 0.250000
Si Si8 0.735869 0.050809 0.016601
O O1 0.500000 0.051453 0.250000
O O2 0.342928 0.049240 0.376000
O O3 0.403314 0.980351 0.250000
O O4 0.712732 0.225209 0.250000
O O5 0.750000 0.250000 0.500000
O O6 0.592443 0.213658 0.432280
O O7 0.739985 0.167479 0.437688
O O8 0.088185 0.840587 0.960751
O O9 0.000000 0.824560 0.750000
O O10 0.000000 0.765438 0.928578
O O11 0.500000 0.178509 0.876690
O O12 0.669623 0.361658 0.750000
O O13 0.690755 0.414236 0.941948
O O14 0.581212 0.887800 0.250000
O O15 0.198575 0.432102 0.380392
O O16 0.766802 0.000000 0.000000
#
# Coordination Sequence:
#
# PCOD9473224 Si02
#       8
#     8  16   8   8  16   4   8  16
#     4  10  20  36  61  80 117 164 206 240 298 372
#     4  11  24  41  66  90 127 163 208 257 308 370
#     4  10  20  37  64  87 116 155 205 248 296 368
#     4  12  23  40  59  93 126 164 208 254 316 354
#     4  10  20  40  62  89 117 160 206 245 301 366
#     4  12  24  34  60  84 130 158 212 252 306 366
#     4  10  22  36  54  88 121 160 194 254 303 358
#     4  10  21  38  59  85 119 157 199 251 307 360
#
# _framework density 18.028288
#
# number of rings (size 3 to 8) (size 9 to 14) (size 15 to 20)
#    0.000    1.524    3.810    1.429    2.667    1.143 
#    3.429    0.476    0.000    0.000    0.000    0.000 
#    0.000    0.000    0.000    0.000    0.000    0.000 
#
# Total GULP energy -234192.863662 kJ/mol
# GULP energy per Si atom -5576.020563 kJ/mol
# Density = 1.798725 g / cm^3
# Si number density = 18.028288 Si / 1000 Ang^3
#
#
#
# Elastic Constant Matrix: (Units=GPa)
#
#
# Indices 1 2 3 4 5 6 
#
# 1 113.4905 56.3057 25.3516 0.0000 0.0000 0.0000
# 2 56.3057 131.4929 27.7988 0.0000 0.0000 0.0000
# 3 25.3516 27.7988 77.3855 0.0000 0.0000 0.0000
# 4 0.0000 0.0000 0.0000 42.2787 0.0000 0.0000
# 5 0.0000 0.0000 0.0000 0.0000 3.7730 0.0000
# 6 0.0000 0.0000 0.0000 0.0000 0.0000 18.8407
#
#
#
# Elastic Compliance Matrix: (Units=1/GPa)
#
#
# Indices 1 2 3 4 5 6 
#
# 1 0.011514 -0.004473 -0.002165 0.000000 0.000000 0.000000
# 2 -0.004473 0.009967 -0.002115 0.000000 0.000000 0.000000
# 3 -0.002165 -0.002115 0.014392 0.000000 0.000000 0.000000
# 4 0.000000 0.000000 0.000000 0.023653 0.000000 0.000000
# 5 0.000000 0.000000 0.000000 0.000000 0.265040 0.000000
# 6 0.000000 0.000000 0.000000 0.000000 0.000000 0.053077
#
#
# Mechanical properties :
#
#
# Convention : Reuss Voigt Hill
#
# Bulk Modulus (GPa) = 54.44704 60.14234 57.29469
# Shear Modulus (GPa) = 12.46042 27.17267 19.81654
#
# Velocity S-wave (km/s) = 2.63184 3.88651 3.31900
# Velocity P-wave (km/s) = 6.28505 7.31931 6.82181
#
# Compressibility (1/GPa) = 0.01836647
#
# Stress axis : x y z
#
# Youngs Moduli (GPa) = 86.85111 100.32786 69.48522
#
# Poissons Ratio (x) = 0.44872 0.15046
# Poissons Ratio (y) = 0.38845 0.14698
# Poissons Ratio (z) = 0.18806 0.21222
#
# Static dielectric constant tensor:
#      x y z
#    x 1.636740 0.000000 0.000000 
#    y 0.000000 1.614990 0.000000 
#    z 0.000000 0.000000 1.632920 
# 
# From -- ./inp_files/19572.got.cif
#   From: 2010.05.17/outbox.cif.g08.bks.cpg/sg63_10_cif.got.tgz:19572.got - 2010.06.03 15:47:04.
