data_PCOD9473051
_publ_section_title
;
Structure prediction by ZEFSAII (Michael W. Deem and Ramdas Pophale) SiO2 
 PCOD9473051
Probable space group: C M C M
;
_chemical_formula_sum "Si O2"
_cell_formula_units_Z 96
_cell_length_a 8.708807
_cell_length_b 25.565092
_cell_length_c 24.250466
_cell_angle_alpha 90.000000
_cell_angle_beta 90.000000
_cell_angle_gamma 90.000000
_cell_volume 5399.158966
_symmetry_space_group_name_H-M "C M C M"
_symmetry_group_IT_number 63
_symmetry_cell_setting 'orthorhombic'
loop_
_space_group_symop_operation_xyz
x,y,z
-x,-y,1/2+z
x,-y,-z
-x,y,1/2-z
-x,-y,-z
x,y,1/2-z
-x,y,z
x,-y,1/2+z
1/2+x,1/2+y,z
1/2-x,1/2-y,1/2+z
1/2+x,1/2-y,-z
1/2-x,1/2+y,1/2-z
1/2-x,1/2-y,-z
1/2+x,1/2+y,1/2-z
1/2-x,1/2+y,z
1/2+x,1/2-y,1/2+z
loop_
_atom_site_type_symbol
_atom_site_label
_atom_site_fract_x
_atom_site_fract_y
_atom_site_fract_z
Si Si1 0.815478 0.229388 0.557933
Si Si2 0.315332 0.146005 0.250000
Si Si3 0.313285 0.976055 0.750000
Si Si4 0.183906 0.483032 0.368467
Si Si5 0.184106 0.817900 0.634544
Si Si6 0.314834 0.608173 0.561335
Si Si7 0.815090 0.079210 0.437403
O O1 0.750000 0.250000 0.500000
O O2 0.752563 0.266918 0.605482
O O3 0.770220 0.168884 0.565969
O O4 0.000000 0.231797 0.555987
O O5 0.500000 0.147929 0.250000
O O6 0.266919 0.084842 0.250000
O O7 0.250951 0.172432 0.305004
O O8 0.500000 0.976576 0.750000
O O9 0.262177 0.003520 0.806422
O O10 0.246252 0.428788 0.392044
O O11 0.240891 0.529413 0.408370
O O12 0.000000 0.482394 0.368495
O O13 0.223735 0.868452 0.596856
O O14 0.000000 0.814222 0.636457
O O15 0.500000 0.605474 0.563598
O O16 0.267920 0.587012 0.500851
O O17 0.000000 0.073155 0.436218
#
# Coordination Sequence:
#
# PCOD9473051 Si02
#       7
#    16   8   8  16  16  16  16
#     4  11  22  39  62  87 118 156 198 245 297 355
#     4  11  21  39  62  87 120 157 194 248 301 345
#     4   9  20  37  56  81 116 149 188 240 293 341
#     4  11  22  37  57  85 115 151 197 244 291 348
#     4  11  22  38  60  91 121 154 198 243 294 354
#     4  10  22  40  57  82 119 158 191 233 294 355
#     4  10  20  36  57  83 120 155 185 234 295 352
#
# _framework density 17.780546000000001
#
# number of rings (size 3 to 8) (size 9 to 14) (size 15 to 20)
#    0.000    1.500    3.333    2.250    0.000    4.667 
#    0.000    2.500    0.000    4.000    0.000    0.000 
#    0.000    0.000    0.000    0.000    0.000    0.000 
#
# Total GULP energy -268233.336407 kJ/mol
# GULP energy per Si atom -5588.194508 kJ/mol
# Density = 1.774008 g / cm^3
# Si number density = 17.780546 Si / 1000 Ang^3
#
#
#
# Elastic Constant Matrix: (Units=GPa)
#
#
# Indices 1 2 3 4 5 6 
#
# 1 36.5688 49.0496 39.3997 0.0000 0.0000 0.0000
# 2 49.0496 171.1854 102.3626 0.0000 0.0000 0.0000
# 3 39.3997 102.3626 167.9561 0.0000 0.0000 0.0000
# 4 0.0000 0.0000 0.0000 37.0273 0.0000 0.0000
# 5 0.0000 0.0000 0.0000 0.0000 30.0746 0.0000
# 6 0.0000 0.0000 0.0000 0.0000 0.0000 32.7708
#
#
#
# Elastic Compliance Matrix: (Units=1/GPa)
#
#
# Indices 1 2 3 4 5 6 
#
# 1 0.046372 -0.010671 -0.004374 0.000000 0.000000 0.000000
# 2 -0.010671 0.011647 -0.004595 0.000000 0.000000 0.000000
# 3 -0.004374 -0.004595 0.009781 0.000000 0.000000 0.000000
# 4 0.000000 0.000000 0.000000 0.027007 0.000000 0.000000
# 5 0.000000 0.000000 0.000000 0.000000 0.033251 0.000000
# 6 0.000000 0.000000 0.000000 0.000000 0.000000 0.030515
#
#
# Mechanical properties :
#
#
# Convention : Reuss Voigt Hill
#
# Bulk Modulus (GPa) = 35.06531 84.14824 59.60678
# Shear Modulus (GPa) = 24.11269 32.30111 28.20690
#
# Velocity S-wave (km/s) = 3.68656 4.26685 3.98727
# Velocity P-wave (km/s) = 6.15507 8.46779 7.40231
#
# Compressibility (1/GPa) = 0.02851821
#
# Stress axis : x y z
#
# Youngs Moduli (GPa) = 21.56469 85.85986 102.24323
#
# Poissons Ratio (x) = 0.91623 0.44726
# Poissons Ratio (y) = 0.23012 0.46981
# Poissons Ratio (z) = 0.09433 0.39453
#
# Static dielectric constant tensor:
#      x y z
#    x 1.601450 0.000000 0.000000 
#    y 0.000000 1.585260 0.000000 
#    z 0.000000 0.000000 1.591520 
# 
# From -- ./inp_files/60037.got.cif
#   From: 2010.05.17/outbox.cif.g08.bks.cpg/sg63_31_cif.got.tgz:60037.got - 2010.06.03 15:47:04.
