data_PCOD9473569
_publ_section_title
;
Structure prediction by ZEFSAII (Michael W. Deem and Ramdas Pophale) SiO2 
 PCOD9473569
Probable space group: C M C M
;
_chemical_formula_sum "Si O2"
_cell_formula_units_Z 52
_cell_length_a 10.580238
_cell_length_b 30.164680
_cell_length_c 7.722577
_cell_angle_alpha 90.000000
_cell_angle_beta 90.000000
_cell_angle_gamma 90.000000
_cell_volume 2464.656539
_symmetry_space_group_name_H-M "C M C M"
_symmetry_group_IT_number 63
_symmetry_cell_setting 'orthorhombic'
loop_
_space_group_symop_operation_xyz
x,y,z
-x,-y,1/2+z
x,-y,-z
-x,y,1/2-z
-x,-y,-z
x,y,1/2-z
-x,y,z
x,-y,1/2+z
1/2+x,1/2+y,z
1/2-x,1/2-y,1/2+z
1/2+x,1/2-y,-z
1/2-x,1/2+y,1/2-z
1/2-x,1/2-y,-z
1/2+x,1/2+y,1/2-z
1/2-x,1/2+y,z
1/2+x,1/2-y,1/2+z
loop_
_atom_site_type_symbol
_atom_site_label
_atom_site_fract_x
_atom_site_fract_y
_atom_site_fract_z
Si Si1 0.638726 0.216122 0.956539
Si Si2 0.294072 0.635533 0.442680
Si Si3 0.354574 0.050784 0.542914
Si Si4 0.000000 0.851928 0.250000
O O1 0.634578 0.211666 0.750000
O O2 0.500000 0.231441 0.017206
O O3 0.750000 0.250000 0.000000
O O4 0.676805 0.169152 0.035416
O O5 0.347317 0.642061 0.250000
O O6 0.240509 0.585976 0.462361
O O7 0.390287 0.646173 0.596689
O O8 0.351179 0.056635 0.750000
O O9 0.500000 0.057976 0.484686
O O10 0.321867 0.000000 0.500000
#
# Coordination Sequence:
#
# PCOD9473569 Si02
#       4
#    16  16  16   4
#     4  11  25  44  68 102 141 184 230 283 340 404
#     4  12  25  44  71  98 134 181 229 280 346 405
#     4  10  20  38  67 101 136 173 221 285 345 405
#     4  12  26  48  68  94 138 184 230 284 338 408
#
# _framework density 21.098274
#
# number of rings (size 3 to 8) (size 9 to 14) (size 15 to 20)
#    0.000    0.923    3.077    3.231    2.154    8.000 
#    0.000    0.769    0.000    0.000    0.000    0.000 
#    0.000    0.000    0.000    0.000    0.000    0.000 
#
# Total GULP energy -144914.500976 kJ/mol
# GULP energy per Si atom -5573.634653 kJ/mol
# Density = 2.105025 g / cm^3
# Si number density = 21.098274 Si / 1000 Ang^3
#
#
#
# Elastic Constant Matrix: (Units=GPa)
#
#
# Indices 1 2 3 4 5 6 
#
# 1 136.6057 36.5057 42.0999 0.0000 0.0000 0.0000
# 2 36.5057 65.3456 4.0947 0.0000 0.0000 0.0000
# 3 42.0999 4.0947 165.3025 0.0000 0.0000 0.0000
# 4 0.0000 0.0000 0.0000 29.7813 0.0000 0.0000
# 5 0.0000 0.0000 0.0000 0.0000 19.1243 0.0000
# 6 0.0000 0.0000 0.0000 0.0000 0.0000 -4.6748
#
#
#
# Elastic Compliance Matrix: (Units=1/GPa)
#
#
# Indices 1 2 3 4 5 6 
#
# 1 0.009380 -0.005099 -0.002263 0.000000 0.000000 0.000000
# 2 -0.005099 0.018098 0.000850 0.000000 0.000000 0.000000
# 3 -0.002263 0.000850 0.006605 0.000000 0.000000 0.000000
# 4 0.000000 0.000000 0.000000 0.033578 0.000000 0.000000
# 5 0.000000 0.000000 0.000000 0.000000 0.052290 0.000000
# 6 0.000000 0.000000 0.000000 0.000000 0.000000 -0.213915
#
#
# Mechanical properties :
#
#
# Convention : Reuss Voigt Hill
#
# Bulk Modulus (GPa) = 47.48069 59.18383 53.33226
# Shear Modulus (GPa) = -67.63903 27.81640 -19.91132
#
# Velocity S-wave (km/s) = -5.66821 3.63495 -3.07537
# Velocity P-wave (km/s) = 4.50386 6.76236 3.56684
#
# Compressibility (1/GPa) = 0.02106119
#
# Stress axis : x y z
#
# Youngs Moduli (GPa) = 106.60799 55.25385 151.40683
#
# Poissons Ratio (x) = 0.28171 0.34259
# Poissons Ratio (y) = 0.54354 -0.12872
# Poissons Ratio (z) = 0.24122 -0.04698
#
# Static dielectric constant tensor:
#      x y z
#    x 1.832900 0.000000 0.000000 
#    y 0.000000 1.754390 0.000000 
#    z 0.000000 0.000000 1.755210 
# 
# From -- ./inp_files/2733.got.cif
#   From: 2010.05.17/outbox.cif.g08.bks.cpg/sg63_2_cif.got.tgz:2733.got - 2010.06.03 15:47:04.
