data_PCOD9473199
_publ_section_title
;
Structure prediction by ZEFSAII (Michael W. Deem and Ramdas Pophale) SiO2 
 PCOD9473199
Probable space group: C M C M
;
_chemical_formula_sum "Si O2"
_cell_formula_units_Z 80
_cell_length_a 8.014167
_cell_length_b 27.702009
_cell_length_c 18.369412
_cell_angle_alpha 90.000000
_cell_angle_beta 90.000000
_cell_angle_gamma 90.000000
_cell_volume 4078.166088
_symmetry_space_group_name_H-M "C M C M"
_symmetry_group_IT_number 63
_symmetry_cell_setting 'orthorhombic'
loop_
_space_group_symop_operation_xyz
x,y,z
-x,-y,1/2+z
x,-y,-z
-x,y,1/2-z
-x,-y,-z
x,y,1/2-z
-x,y,z
x,-y,1/2+z
1/2+x,1/2+y,z
1/2-x,1/2-y,1/2+z
1/2+x,1/2-y,-z
1/2-x,1/2+y,1/2-z
1/2-x,1/2-y,-z
1/2+x,1/2+y,1/2-z
1/2-x,1/2+y,z
1/2+x,1/2-y,1/2+z
loop_
_atom_site_type_symbol
_atom_site_label
_atom_site_fract_x
_atom_site_fract_y
_atom_site_fract_z
Si Si1 0.198607 0.643686 0.959160
Si Si2 0.000000 0.109885 0.330593
Si Si3 0.500000 0.513514 0.412889
Si Si4 0.300218 0.285451 0.168804
Si Si5 0.797025 0.323527 0.880190
Si Si6 0.313592 0.034615 0.570602
O O1 0.248435 0.675466 0.890457
O O2 0.249036 0.587756 0.952256
O O3 0.000000 0.642186 0.961853
O O4 0.248625 0.668026 0.035098
O O5 0.831136 0.141520 0.338657
O O6 0.000000 0.087582 0.250000
O O7 0.000000 0.069348 0.393006
O O8 0.500000 0.500000 0.500000
O O9 0.669199 0.489961 0.382653
O O10 0.232241 0.294233 0.250000
O O11 0.500000 0.287213 0.172662
O O12 0.259575 0.231217 0.143167
O O13 0.000000 0.332104 0.869967
O O14 0.500000 0.038362 0.602768
O O15 0.330497 0.000000 0.500000
#
# Coordination Sequence:
#
# PCOD9473199 Si02
#       6
#    16   8   8  16  16  16
#     4  10  21  36  62  94 117 158 211 258 307 370
#     4  12  26  40  64  98 122 162 213 255 320 379
#     4  10  20  36  60  86 116 158 196 243 306 359
#     4  10  22  38  57  85 125 170 206 248 314 371
#     4  10  22  41  63  89 125 162 207 258 311 370
#     4   9  18  34  57  86 117 146 192 247 303 354
#
# _framework density 19.616661000000001
#
# number of rings (size 3 to 8) (size 9 to 14) (size 15 to 20)
#    0.000    2.000    0.000    3.600    4.200    4.000 
#    0.000    1.000    0.000    1.200    0.000    0.000 
#    0.000    0.000    0.000    0.000    0.000    0.000 
#
# Total GULP energy -222950.992497 kJ/mol
# GULP energy per Si atom -5573.774812 kJ/mol
# Density = 1.957201 g / cm^3
# Si number density = 19.616661 Si / 1000 Ang^3
#
#
#
# Elastic Constant Matrix: (Units=GPa)
#
#
# Indices 1 2 3 4 5 6 
#
# 1 60.7802 20.3539 11.8751 0.0000 0.0000 0.0000
# 2 20.3539 92.1537 53.3707 0.0000 0.0000 0.0000
# 3 11.8751 53.3707 80.4621 0.0000 0.0000 0.0000
# 4 0.0000 0.0000 0.0000 44.8549 0.0000 0.0000
# 5 0.0000 0.0000 0.0000 0.0000 10.7457 0.0000
# 6 0.0000 0.0000 0.0000 0.0000 0.0000 36.3057
#
#
#
# Elastic Compliance Matrix: (Units=1/GPa)
#
#
# Indices 1 2 3 4 5 6 
#
# 1 0.017767 -0.003906 -0.000031 0.000000 0.000000 0.000000
# 2 -0.003906 0.018479 -0.011681 0.000000 0.000000 0.000000
# 3 -0.000031 -0.011681 0.020181 0.000000 0.000000 0.000000
# 4 0.000000 0.000000 0.000000 0.022294 0.000000 0.000000
# 5 0.000000 0.000000 0.000000 0.000000 0.093061 0.000000
# 6 0.000000 0.000000 0.000000 0.000000 0.000000 0.027544
#
#
# Mechanical properties :
#
#
# Convention : Reuss Voigt Hill
#
# Bulk Modulus (GPa) = 39.69742 44.95504 42.32623
# Shear Modulus (GPa) = 20.92419 28.23435 24.57927
#
# Velocity S-wave (km/s) = 3.26951 3.79793 3.54358
# Velocity P-wave (km/s) = 5.87652 6.49607 6.19404
#
# Compressibility (1/GPa) = 0.02519056
#
# Stress axis : x y z
#
# Youngs Moduli (GPa) = 56.28449 54.11550 49.55245
#
# Poissons Ratio (x) = 0.21138 0.00155
# Poissons Ratio (y) = 0.21985 0.57881
# Poissons Ratio (z) = 0.00176 0.63211
#
# Static dielectric constant tensor:
#      x y z
#    x 1.766320 0.000000 0.000000 
#    y 0.000000 1.745710 0.000000 
#    z 0.000000 0.000000 1.716170 
# 
# From -- ./inp_files/40579.got.cif
#   From: 2010.05.17/outbox.cif.g08.bks.cpg/sg63_21_cif.got.tgz:40579.got - 2010.06.03 15:47:04.
