data_PCOD9473311
_publ_section_title
;
Structure prediction by ZEFSAII (Michael W. Deem and Ramdas Pophale) SiO2 
 PCOD9473311
Probable space group: C M C M
;
_chemical_formula_sum "Si O2"
_cell_formula_units_Z 88
_cell_length_a 22.286642
_cell_length_b 23.759473
_cell_length_c 8.937234
_cell_angle_alpha 90.000000
_cell_angle_beta 90.000000
_cell_angle_gamma 90.000000
_cell_volume 4732.434038
_symmetry_space_group_name_H-M "C M C M"
_symmetry_group_IT_number 63
_symmetry_cell_setting 'orthorhombic'
loop_
_space_group_symop_operation_xyz
x,y,z
-x,-y,1/2+z
x,-y,-z
-x,y,1/2-z
-x,-y,-z
x,y,1/2-z
-x,y,z
x,-y,1/2+z
1/2+x,1/2+y,z
1/2-x,1/2-y,1/2+z
1/2+x,1/2-y,-z
1/2-x,1/2+y,1/2-z
1/2-x,1/2-y,-z
1/2+x,1/2+y,1/2-z
1/2-x,1/2+y,z
1/2+x,1/2-y,1/2+z
loop_
_atom_site_type_symbol
_atom_site_label
_atom_site_fract_x
_atom_site_fract_y
_atom_site_fract_z
Si Si1 0.500000 0.436964 0.432460
Si Si2 0.071737 0.443014 0.079842
Si Si3 0.154568 0.639402 0.073576
Si Si4 0.253237 0.440012 0.070928
Si Si5 0.125364 0.880053 0.431273
Si Si6 0.314577 0.263490 0.071453
O O1 0.500000 0.500000 0.500000
O O2 0.500000 0.441063 0.250000
O O3 0.560343 0.402991 0.479325
O O4 0.094157 0.440824 0.250000
O O5 0.000000 0.443432 0.083029
O O6 0.092316 0.500000 0.000000
O O7 0.096028 0.391626 0.985291
O O8 0.163181 0.630759 0.250000
O O9 0.150119 0.705634 0.045265
O O10 0.209629 0.609004 0.989105
O O11 0.248932 0.442740 0.250000
O O12 0.321401 0.423306 0.029533
O O13 0.237506 0.500000 0.000000
O O14 0.122570 0.876881 0.250000
O O15 0.149607 0.818696 0.483155
O O16 0.305437 0.270670 0.250000
O O17 0.250000 0.250000 0.000000
#
# Coordination Sequence:
#
# PCOD9473311 Si02
#       6
#     8  16  16  16  16  16
#     4  10  20  38  62  86 116 152 193 240 289 348
#     4  10  21  38  59  81 110 147 185 228 278 334
#     4  11  22  35  55  83 113 145 186 232 280 340
#     4  11  21  34  54  80 113 146 184 232 283 341
#     4   9  19  36  58  83 112 149 188 232 289 342
#     4  10  20  37  58  83 111 146 188 230 281 338
#
# _framework density 18.595082000000001
#
# number of rings (size 3 to 8) (size 9 to 14) (size 15 to 20)
#    0.000    1.818    1.818    2.727    0.000    1.818 
#    1.636    1.818    0.000    0.000    0.000    0.000 
#    0.000    0.000    0.000    0.000    0.000    0.000 
#
# Total GULP energy -245532.000916 kJ/mol
# GULP energy per Si atom -5580.272748 kJ/mol
# Density = 1.855276 g / cm^3
# Si number density = 18.595082 Si / 1000 Ang^3
#
#
#
# Elastic Constant Matrix: (Units=GPa)
#
#
# Indices 1 2 3 4 5 6 
#
# 1 95.4456 56.7897 16.9440 0.0000 0.0000 0.0000
# 2 56.7897 135.2815 40.8827 0.0000 0.0000 0.0000
# 3 16.9440 40.8827 36.1116 0.0000 0.0000 0.0000
# 4 0.0000 0.0000 0.0000 21.8987 0.0000 0.0000
# 5 0.0000 0.0000 0.0000 0.0000 20.8810 0.0000
# 6 0.0000 0.0000 0.0000 0.0000 0.0000 8.0159
#
#
#
# Elastic Compliance Matrix: (Units=1/GPa)
#
#
# Indices 1 2 3 4 5 6 
#
# 1 0.013966 -0.005901 0.000128 0.000000 0.000000 0.000000
# 2 -0.005901 0.013730 -0.012775 0.000000 0.000000 0.000000
# 3 0.000128 -0.012775 0.042095 0.000000 0.000000 0.000000
# 4 0.000000 0.000000 0.000000 0.045665 0.000000 0.000000
# 5 0.000000 0.000000 0.000000 0.000000 0.047890 0.000000
# 6 0.000000 0.000000 0.000000 0.000000 0.000000 0.124752
#
#
# Mechanical properties :
#
#
# Convention : Reuss Voigt Hill
#
# Bulk Modulus (GPa) = 30.58667 55.11904 42.85285
# Shear Modulus (GPa) = 14.87687 20.30729 17.59208
#
# Velocity S-wave (km/s) = 2.83157 3.30825 3.07915
# Velocity P-wave (km/s) = 5.21296 6.65573 5.97803
#
# Compressibility (1/GPa) = 0.03269399
#
# Stress axis : x y z
#
# Youngs Moduli (GPa) = 71.60393 72.83315 23.75597
#
# Poissons Ratio (x) = 0.42982 -0.00305
# Poissons Ratio (y) = 0.42256 0.30348
# Poissons Ratio (z) = -0.00918 0.93045
#
# Static dielectric constant tensor:
#      x y z
#    x 1.661390 0.000000 0.000000 
#    y 0.000000 1.632500 0.000000 
#    z 0.000000 0.000000 1.639050 
# 
# From -- ./inp_files/8203.got.cif
#   From: 2010.05.17/outbox.cif.g08.bks.cpg/sg63_5_cif.got.tgz:8203.got - 2010.06.03 15:47:04.
