data_PCOD9473137
_publ_section_title
;
Structure prediction by ZEFSAII (Michael W. Deem and Ramdas Pophale) SiO2 
 PCOD9473137
Probable space group: C M C M
;
_chemical_formula_sum "Si O2"
_cell_formula_units_Z 64
_cell_length_a 32.657420
_cell_length_b 8.724475
_cell_length_c 10.863492
_cell_angle_alpha 90.000000
_cell_angle_beta 90.000000
_cell_angle_gamma 90.000000
_cell_volume 3095.213586
_symmetry_space_group_name_H-M "C M C M"
_symmetry_group_IT_number 63
_symmetry_cell_setting 'orthorhombic'
loop_
_space_group_symop_operation_xyz
x,y,z
-x,-y,1/2+z
x,-y,-z
-x,y,1/2-z
-x,-y,-z
x,y,1/2-z
-x,y,z
x,-y,1/2+z
1/2+x,1/2+y,z
1/2-x,1/2-y,1/2+z
1/2+x,1/2-y,-z
1/2-x,1/2+y,1/2-z
1/2-x,1/2-y,-z
1/2+x,1/2+y,1/2-z
1/2-x,1/2+y,z
1/2+x,1/2-y,1/2+z
loop_
_atom_site_type_symbol
_atom_site_label
_atom_site_fract_x
_atom_site_fract_y
_atom_site_fract_z
Si Si1 0.319624 0.176675 0.510632
Si Si2 0.046922 0.184179 0.250000
Si Si3 0.548278 0.309697 0.250000
Si Si4 0.236472 0.890806 0.118904
Si Si5 0.407817 0.315876 0.996279
O O1 0.282706 0.172875 0.609334
O O2 0.295302 0.251773 0.396358
O O3 0.360735 0.271301 0.524539
O O4 0.331694 0.000000 0.500000
O O5 0.067958 0.238071 0.375565
O O6 0.000000 0.230024 0.250000
O O7 0.048638 0.996967 0.250000
O O8 0.500000 0.265143 0.250000
O O9 0.572165 0.260645 0.374677
O O10 0.230082 0.968189 0.250000
O O11 0.230710 0.000000 0.000000
O O12 0.410516 0.500000 0.000000
#
# Coordination Sequence:
#
# PCOD9473137 Si02
#       5
#    16   8   8  16  16
#     4  10  23  39  58  88 124 164 200 245 298 360
#     4   9  18  34  59  88 115 146 195 252 301 353
#     4   9  18  34  59  86 115 150 193 250 305 351
#     4  10  23  44  67  90 120 162 210 258 305 358
#     4  10  20  36  58  88 117 152 199 248 300 358
#
# _framework density 20.677088000000001
#
# number of rings (size 3 to 8) (size 9 to 14) (size 15 to 20)
#    0.000    2.250    0.000    1.500    3.500   13.000 
#    4.500    0.000    0.000    4.500    0.000    0.000 
#    0.000    0.000    0.000    0.000    0.000    0.000 
#
# Total GULP energy -178372.701767 kJ/mol
# GULP energy per Si atom -5574.146930 kJ/mol
# Density = 2.063003 g / cm^3
# Si number density = 20.677088 Si / 1000 Ang^3
#
#
#
# Elastic Constant Matrix: (Units=GPa)
#
#
# Indices 1 2 3 4 5 6 
#
# 1 123.9223 1.8189 58.7656 0.0000 0.0000 0.0000
# 2 1.8189 22.8036 37.0942 0.0000 0.0000 0.0000
# 3 58.7656 37.0942 186.7160 0.0000 0.0000 0.0000
# 4 0.0000 0.0000 0.0000 12.9296 0.0000 0.0000
# 5 0.0000 0.0000 0.0000 0.0000 -24.1403 0.0000
# 6 0.0000 0.0000 0.0000 0.0000 0.0000 17.4232
#
#
#
# Elastic Compliance Matrix: (Units=1/GPa)
#
#
# Indices 1 2 3 4 5 6 
#
# 1 0.010087 0.006442 -0.004455 0.000000 0.000000 0.000000
# 2 0.006442 0.068905 -0.015716 0.000000 0.000000 0.000000
# 3 -0.004455 -0.015716 0.009880 0.000000 0.000000 0.000000
# 4 0.000000 0.000000 0.000000 0.077342 0.000000 0.000000
# 5 0.000000 0.000000 0.000000 0.000000 -0.041425 0.000000
# 6 0.000000 0.000000 0.000000 0.000000 0.000000 0.057395
#
#
# Mechanical properties :
#
#
# Convention : Reuss Voigt Hill
#
# Bulk Modulus (GPa) = 16.28313 58.75547 37.51930
# Shear Modulus (GPa) = 21.72834 16.96004 19.34419
#
# Velocity S-wave (km/s) = 3.24518 2.86708 3.06197
# Velocity P-wave (km/s) = 4.68334 6.27994 5.53946
#
# Compressibility (1/GPa) = 0.06141326
#
# Stress axis : x y z
#
# Youngs Moduli (GPa) = 99.13321 14.51282 101.21413
#
# Poissons Ratio (x) = -0.09348 0.45086
# Poissons Ratio (y) = -0.63857 1.59072
# Poissons Ratio (z) = 0.44160 0.22809
#
# Static dielectric constant tensor:
#      x y z
#    x 1.697120 0.000000 0.000000 
#    y 0.000000 1.775040 0.000000 
#    z 0.000000 0.000000 1.766380 
# 
# From -- ./inp_files/25510.got.cif
#   From: 2010.05.17/outbox.cif.g08.bks.cpg/sg63_13_cif.got.tgz:25510.got - 2010.06.03 15:47:04.
