data_PCOD9473626
_publ_section_title
;
Structure prediction by ZEFSAII (Michael W. Deem and Ramdas Pophale) SiO2 
 PCOD9473626
Probable space group: C M C M
;
_chemical_formula_sum "Si O2"
_cell_formula_units_Z 96
_cell_length_a 19.863934
_cell_length_b 14.989640
_cell_length_c 14.165928
_cell_angle_alpha 90.000000
_cell_angle_beta 90.000000
_cell_angle_gamma 90.000000
_cell_volume 4217.950671
_symmetry_space_group_name_H-M "C M C M"
_symmetry_group_IT_number 63
_symmetry_cell_setting 'orthorhombic'
loop_
_space_group_symop_operation_xyz
x,y,z
-x,-y,1/2+z
x,-y,-z
-x,y,1/2-z
-x,-y,-z
x,y,1/2-z
-x,y,z
x,-y,1/2+z
1/2+x,1/2+y,z
1/2-x,1/2-y,1/2+z
1/2+x,1/2-y,-z
1/2-x,1/2+y,1/2-z
1/2-x,1/2-y,-z
1/2+x,1/2+y,1/2-z
1/2-x,1/2+y,z
1/2+x,1/2-y,1/2+z
loop_
_atom_site_type_symbol
_atom_site_label
_atom_site_fract_x
_atom_site_fract_y
_atom_site_fract_z
Si Si1 0.887489 0.318384 0.640158
Si Si2 0.000000 0.328259 0.101185
Si Si3 0.264230 0.274910 0.856850
Si Si4 0.244213 0.937010 0.359273
Si Si5 0.369859 0.500000 0.500000
Si Si6 0.897488 0.807125 0.533328
Si Si7 0.105958 0.517016 0.635947
O O1 0.902465 0.297204 0.750000
O O2 0.806393 0.325370 0.631860
O O3 0.909825 0.243933 0.566147
O O4 0.915995 0.415719 0.615992
O O5 0.941778 0.249991 0.104508
O O6 0.941767 0.406234 0.099329
O O7 0.289387 0.291943 0.750000
O O8 0.246212 0.170372 0.862954
O O9 0.320072 0.299015 0.933001
O O10 0.238709 0.964356 0.250000
O O11 0.317254 0.967804 0.394976
O O12 0.181201 0.974259 0.415668
O O13 0.411270 0.411497 0.524014
O O14 0.104877 0.525635 0.750000
#
# Coordination Sequence:
#
# PCOD9473626 Si02
#       7
#    16   8  16  16   8  16  16
#     4  10  22  41  66  96 133 171 217 281 346 401
#     4  12  27  44  63  90 132 176 224 271 318 392
#     4  10  20  39  67  99 135 171 214 277 348 403
#     4  10  21  39  66 101 135 169 217 283 347 400
#     4  12  26  41  70  99 132 180 226 284 336 398
#     4  12  26  42  64  95 132 182 230 273 326 393
#     4  10  22  40  64  95 131 171 214 270 338 405
#
# _framework density 22.759867
#
# number of rings (size 3 to 8) (size 9 to 14) (size 15 to 20)
#    0.000    1.333    3.333    1.750    2.333    5.000 
#    0.000    1.250    0.000    0.000    0.000    3.500 
#    0.000    0.000    0.000    0.000    0.000    0.000 
#
# Total GULP energy -267685.716776 kJ/mol
# GULP energy per Si atom -5576.785766 kJ/mol
# Density = 2.270806 g / cm^3
# Si number density = 22.759867 Si / 1000 Ang^3
#
#
#
# Elastic Constant Matrix: (Units=GPa)
#
#
# Indices 1 2 3 4 5 6 
#
# 1 34.3721 30.1266 11.9801 0.0000 0.0000 0.0000
# 2 30.1266 174.8192 24.8637 0.0000 0.0000 0.0000
# 3 11.9801 24.8637 68.8586 0.0000 0.0000 0.0000
# 4 0.0000 0.0000 0.0000 18.2842 0.0000 0.0000
# 5 0.0000 0.0000 0.0000 0.0000 5.3254 0.0000
# 6 0.0000 0.0000 0.0000 0.0000 0.0000 -7.0422
#
#
#
# Elastic Compliance Matrix: (Units=1/GPa)
#
#
# Indices 1 2 3 4 5 6 
#
# 1 0.035368 -0.005502 -0.004167 0.000000 0.000000 0.000000
# 2 -0.005502 0.006886 -0.001529 0.000000 0.000000 0.000000
# 3 -0.004167 -0.001529 0.015800 0.000000 0.000000 0.000000
# 4 0.000000 0.000000 0.000000 0.054692 0.000000 0.000000
# 5 0.000000 0.000000 0.000000 0.000000 0.187781 0.000000
# 6 0.000000 0.000000 0.000000 0.000000 0.000000 -0.142000
#
#
# Mechanical properties :
#
#
# Convention : Reuss Voigt Hill
#
# Bulk Modulus (GPa) = 28.04449 45.77676 36.91063
# Shear Modulus (GPa) = 25.93249 17.38542 21.65896
#
# Velocity S-wave (km/s) = 3.37916 2.76681 3.08820
# Velocity P-wave (km/s) = 5.25105 5.51031 5.38224
#
# Compressibility (1/GPa) = 0.03565763
#
# Stress axis : x y z
#
# Youngs Moduli (GPa) = 28.27379 145.22417 63.29297
#
# Poissons Ratio (x) = 0.79909 0.26372
# Poissons Ratio (y) = 0.15558 0.09678
# Poissons Ratio (z) = 0.11781 0.22206
#
# Static dielectric constant tensor:
#      x y z
#    x 1.792750 0.000000 0.000000 
#    y 0.000000 1.832860 0.000000 
#    z 0.000000 0.000000 1.916520 
# 
# From -- ./inp_files/35399.got.cif
#   From: 2010.05.17/outbox.cif.g08.bks.cpg/sg63_18_cif.got.tgz:35399.got - 2010.06.03 15:47:04.
