data_PCOD9473830
_publ_section_title
;
Structure prediction by ZEFSAII (Michael W. Deem and Ramdas Pophale) SiO2 
 PCOD9473830
Probable space group: C M C M
;
_chemical_formula_sum "Si O2"
_cell_formula_units_Z 68
_cell_length_a 14.561436
_cell_length_b 10.067538
_cell_length_c 25.071111
_cell_angle_alpha 90.000000
_cell_angle_beta 90.000000
_cell_angle_gamma 90.000000
_cell_volume 3675.369973
_symmetry_space_group_name_H-M "C M C M"
_symmetry_group_IT_number 63
_symmetry_cell_setting 'orthorhombic'
loop_
_space_group_symop_operation_xyz
x,y,z
-x,-y,1/2+z
x,-y,-z
-x,y,1/2-z
-x,-y,-z
x,y,1/2-z
-x,y,z
x,-y,1/2+z
1/2+x,1/2+y,z
1/2-x,1/2-y,1/2+z
1/2+x,1/2-y,-z
1/2-x,1/2+y,1/2-z
1/2-x,1/2-y,-z
1/2+x,1/2+y,1/2-z
1/2-x,1/2+y,z
1/2+x,1/2-y,1/2+z
loop_
_atom_site_type_symbol
_atom_site_label
_atom_site_fract_x
_atom_site_fract_y
_atom_site_fract_z
Si Si1 0.767098 0.632147 0.875337
Si Si2 0.106795 0.103585 0.548042
Si Si3 0.109455 0.644497 0.522698
Si Si4 0.187381 0.624755 0.191160
Si Si5 0.000000 0.328978 0.750000
O O1 0.675215 0.577838 0.903958
O O2 0.836023 0.669674 0.923107
O O3 0.808562 0.513753 0.840128
O O4 0.738417 0.759438 0.840860
O O5 0.129430 0.246555 0.522354
O O6 0.000000 0.100941 0.564058
O O7 0.118922 0.000000 0.500000
O O8 0.134003 0.500000 0.500000
O O9 0.000000 0.648824 0.532693
O O10 0.231296 0.606737 0.250000
O O11 0.082419 0.665017 0.204268
#
# Coordination Sequence:
#
# PCOD9473830 Si02
#       5
#    16  16  16  16   4
#     4  12  21  37  66  87 117 162 203 242 299 358
#     4  10  21  35  53  84 125 158 191 238 290 352
#     4  10  21  35  56  89 125 159 199 240 288 353
#     4  10  24  41  62  87 117 150 204 256 301 353
#     4   8  24  44  64  82 122 148 206 254 310 352
#
# _framework density 18.501536999999999
#
# number of rings (size 3 to 8) (size 9 to 14) (size 15 to 20)
#    0.706    0.941    0.000    4.941    3.294    0.000 
#    0.000    0.000    0.000    2.824    0.000    0.000 
#    0.000    0.000    0.000    0.000    0.000    0.000 
#
# Total GULP energy -189291.543711 kJ/mol
# GULP energy per Si atom -5567.398344 kJ/mol
# Density = 1.845943 g / cm^3
# Si number density = 18.501537 Si / 1000 Ang^3
#
#
#
# Elastic Constant Matrix: (Units=GPa)
#
#
# Indices 1 2 3 4 5 6 
#
# 1 66.1770 8.8276 36.2601 0.0000 0.0000 0.0000
# 2 8.8276 48.4558 -12.0093 0.0000 0.0000 0.0000
# 3 36.2601 -12.0093 65.9831 0.0000 0.0000 0.0000
# 4 0.0000 0.0000 0.0000 19.3792 0.0000 0.0000
# 5 0.0000 0.0000 0.0000 0.0000 37.2878 0.0000
# 6 0.0000 0.0000 0.0000 0.0000 0.0000 -25.8791
#
#
#
# Elastic Compliance Matrix: (Units=1/GPa)
#
#
# Indices 1 2 3 4 5 6 
#
# 1 0.024327 -0.008111 -0.014845 0.000000 0.000000 0.000000
# 2 -0.008111 0.024317 0.008883 0.000000 0.000000 0.000000
# 3 -0.014845 0.008883 0.024930 0.000000 0.000000 0.000000
# 4 0.000000 0.000000 0.000000 0.051602 0.000000 0.000000
# 5 0.000000 0.000000 0.000000 0.000000 0.026818 0.000000
# 6 0.000000 0.000000 0.000000 0.000000 0.000000 -0.038641
#
#
# Mechanical properties :
#
#
# Convention : Reuss Voigt Hill
#
# Bulk Modulus (GPa) = 22.01287 27.41918 24.71602
# Shear Modulus (GPa) = 31.92044 15.99341 23.95692
#
# Velocity S-wave (km/s) = 4.15816 2.94332 3.60232
# Velocity P-wave (km/s) = 5.91417 5.13838 5.53987
#
# Compressibility (1/GPa) = 0.04542797
#
# Stress axis : x y z
#
# Youngs Moduli (GPa) = 41.10723 41.12429 40.11271
#
# Poissons Ratio (x) = 0.33355 0.59546
# Poissons Ratio (y) = 0.33341 -0.35632
# Poissons Ratio (z) = 0.61022 -0.36530
#
# Static dielectric constant tensor:
#      x y z
#    x 1.637600 0.000000 0.000000 
#    y 0.000000 1.585510 0.000000 
#    z 0.000000 0.000000 1.626080 
# 
# From -- ./inp_files/68978.got.cif
#   From: 2010.05.17/outbox.cif.g08.bks.cpg/sg63_35_cif.got.tgz:68978.got - 2010.06.03 15:47:04.
