data_PCOD9473718
_publ_section_title
;
Structure prediction by ZEFSAII (Michael W. Deem and Ramdas Pophale) SiO2 
 PCOD9473718
Probable space group: C M C M
;
_chemical_formula_sum "Si O2"
_cell_formula_units_Z 116
_cell_length_a 7.573996
_cell_length_b 24.045315
_cell_length_c 27.042988
_cell_angle_alpha 90.000000
_cell_angle_beta 90.000000
_cell_angle_gamma 90.000000
_cell_volume 4925.045167
_symmetry_space_group_name_H-M "C M C M"
_symmetry_group_IT_number 63
_symmetry_cell_setting 'orthorhombic'
loop_
_space_group_symop_operation_xyz
x,y,z
-x,-y,1/2+z
x,-y,-z
-x,y,1/2-z
-x,-y,-z
x,y,1/2-z
-x,y,z
x,-y,1/2+z
1/2+x,1/2+y,z
1/2-x,1/2-y,1/2+z
1/2+x,1/2-y,-z
1/2-x,1/2+y,1/2-z
1/2-x,1/2-y,-z
1/2+x,1/2+y,1/2-z
1/2-x,1/2+y,z
1/2+x,1/2-y,1/2+z
loop_
_atom_site_type_symbol
_atom_site_label
_atom_site_fract_x
_atom_site_fract_y
_atom_site_fract_z
Si Si1 0.285256 0.292370 0.140710
Si Si2 0.300762 0.004188 0.905013
Si Si3 0.291065 0.306883 0.470737
Si Si4 0.206902 0.411572 0.331469
Si Si5 0.709848 0.895478 0.550542
Si Si6 0.708813 0.442956 0.804255
Si Si7 0.713736 0.168330 0.148523
Si Si8 0.000000 0.059654 0.750000
O O1 0.500000 0.293190 0.141702
O O2 0.220840 0.301156 0.084560
O O3 0.221948 0.345278 0.170748
O O4 0.227864 0.231148 0.157206
O O5 0.500000 0.014707 0.922616
O O6 0.217739 0.958333 0.941877
O O7 0.296388 0.970568 0.852297
O O8 0.234214 0.063720 0.885556
O O9 0.500000 0.309813 0.466800
O O10 0.250000 0.250000 0.500000
O O11 0.234502 0.361591 0.500535
O O12 0.343978 0.435506 0.292624
O O13 0.000000 0.426278 0.324285
O O14 0.500000 0.901335 0.558047
O O15 0.775168 0.855669 0.595162
O O16 0.780105 0.457055 0.750000
O O17 0.500000 0.456349 0.804101
O O18 0.726938 0.377083 0.812276
O O19 0.500000 0.168742 0.147596
#
# Coordination Sequence:
#
# PCOD9473718 Si02
#       8
#    16  16  16  16  16  16  16   4
#     4  10  21  41  61  84 127 170 209 266 325 373
#     4   9  21  39  60  85 120 156 204 259 316 381
#     4  11  21  34  58  91 126 166 214 261 311 381
#     4  11  25  45  70  97 123 171 218 262 328 384
#     4   9  17  35  57  86 122 158 200 257 312 370
#     4  10  21  33  51  81 114 148 192 249 316 374
#     4   9  18  35  56  77 114 159 194 245 317 374
#     4  12  26  48  72  94 130 160 222 284 308 374
#
# _framework density 23.553082
#
# number of rings (size 3 to 8) (size 9 to 14) (size 15 to 20)
#    0.000    2.069    2.069    1.862    1.931    4.966 
#    1.241    0.690    0.000    4.138    0.000    0.000 
#    0.000    0.000    0.000    0.000    0.000    0.000 
#
# Total GULP energy -323386.825177 kJ/mol
# GULP energy per Si atom -5575.634917 kJ/mol
# Density = 2.349947 g / cm^3
# Si number density = 23.553082 Si / 1000 Ang^3
#
#
#
# Elastic Constant Matrix: (Units=GPa)
#
#
# Indices 1 2 3 4 5 6 
#
# 1 87.4123 11.1824 3.2259 0.0000 0.0000 0.0000
# 2 11.1824 123.3995 2.2066 0.0000 0.0000 0.0000
# 3 3.2259 2.2066 35.3418 0.0000 0.0000 0.0000
# 4 0.0000 0.0000 0.0000 -9.1524 0.0000 0.0000
# 5 0.0000 0.0000 0.0000 0.0000 23.4948 0.0000
# 6 0.0000 0.0000 0.0000 0.0000 0.0000 25.2981
#
#
#
# Elastic Compliance Matrix: (Units=1/GPa)
#
#
# Indices 1 2 3 4 5 6 
#
# 1 0.011609 -0.001034 -0.000995 0.000000 0.000000 0.000000
# 2 -0.001034 0.008205 -0.000418 0.000000 0.000000 0.000000
# 3 -0.000995 -0.000418 0.028412 0.000000 0.000000 0.000000
# 4 0.000000 0.000000 0.000000 -0.109261 0.000000 0.000000
# 5 0.000000 0.000000 0.000000 0.000000 0.042563 0.000000
# 6 0.000000 0.000000 0.000000 0.000000 0.000000 0.039529
#
#
# Mechanical properties :
#
#
# Convention : Reuss Voigt Hill
#
# Bulk Modulus (GPa) = 23.07780 31.04260 27.06020
# Shear Modulus (GPa) = 123.77904 23.23069 73.50487
#
# Velocity S-wave (km/s) = 7.25722 3.14397 5.59249
# Velocity P-wave (km/s) = 8.94665 5.13691 7.29487
#
# Compressibility (1/GPa) = 0.04333169
#
# Stress axis : x y z
#
# Youngs Moduli (GPa) = 86.13958 121.87755 35.19640
#
# Poissons Ratio (x) = 0.12605 0.03502
# Poissons Ratio (y) = 0.08909 0.01471
# Poissons Ratio (z) = 0.08571 0.05093
#
# Static dielectric constant tensor:
#      x y z
#    x 1.877460 0.000000 0.000000 
#    y 0.000000 1.936970 0.000000 
#    z 0.000000 0.000000 1.657800 
# 
# From -- ./inp_files/72120.got.cif
#   From: 2010.05.17/outbox.cif.g08.bks.cpg/sg63_37_cif.got.tgz:72120.got - 2010.06.03 15:47:04.
