data_PCOD9473559
_publ_section_title
;
Structure prediction by ZEFSAII (Michael W. Deem and Ramdas Pophale) SiO2 
 PCOD9473559
Probable space group: C M C M
;
_chemical_formula_sum "Si O2"
_cell_formula_units_Z 96
_cell_length_a 23.053934
_cell_length_b 11.131714
_cell_length_c 18.391364
_cell_angle_alpha 90.000000
_cell_angle_beta 90.000000
_cell_angle_gamma 90.000000
_cell_volume 4719.772063
_symmetry_space_group_name_H-M "C M C M"
_symmetry_group_IT_number 63
_symmetry_cell_setting 'orthorhombic'
loop_
_space_group_symop_operation_xyz
x,y,z
-x,-y,1/2+z
x,-y,-z
-x,y,1/2-z
-x,-y,-z
x,y,1/2-z
-x,y,z
x,-y,1/2+z
1/2+x,1/2+y,z
1/2-x,1/2-y,1/2+z
1/2+x,1/2-y,-z
1/2-x,1/2+y,1/2-z
1/2-x,1/2-y,-z
1/2+x,1/2+y,1/2-z
1/2-x,1/2+y,z
1/2+x,1/2-y,1/2+z
loop_
_atom_site_type_symbol
_atom_site_label
_atom_site_fract_x
_atom_site_fract_y
_atom_site_fract_z
Si Si1 0.855674 0.102001 0.836724
Si Si2 0.568269 0.579768 0.426836
Si Si3 0.339051 0.224409 0.552375
Si Si4 0.562788 0.172720 0.162587
Si Si5 0.218094 0.297463 0.901192
Si Si6 0.657864 0.988029 0.166159
O O1 0.847990 0.089203 0.750000
O O2 0.900689 0.209662 0.854136
O O3 0.797910 0.163318 0.871355
O O4 0.888184 0.987324 0.870406
O O5 0.569321 0.500000 0.500000
O O6 0.500000 0.589376 0.404096
O O7 0.600414 0.705320 0.443615
O O8 0.284265 0.308358 0.573851
O O9 0.322442 0.181948 0.471645
O O10 0.335395 0.117838 0.609782
O O11 0.558166 0.175491 0.250000
O O12 0.500000 0.178017 0.128234
O O13 0.596918 0.051790 0.147557
O O14 0.202637 0.401307 0.844194
O O15 0.658997 0.948137 0.250000
#
# Coordination Sequence:
#
# PCOD9473559 Si02
#       6
#    16  16  16  16  16  16
#     4  10  20  38  65  93 120 161 216 267 313 369
#     4  11  24  42  63  93 134 173 213 262 320 388
#     4  11  24  40  64  88 124 171 210 256 326 389
#     4   8  15  31  56  83 114 153 194 240 293 353
#     4  10  22  41  64  87 122 165 216 262 316 384
#     4  10  22  38  58  91 124 153 201 261 316 373
#
# _framework density 20.339964999999999
#
# number of rings (size 3 to 8) (size 9 to 14) (size 15 to 20)
#    0.000    2.000    1.667    2.500    2.333    3.667 
#    0.000    0.000    0.000    3.000    0.000    0.000 
#    0.000    0.000    0.000    0.000    0.000    0.000 
#
# Total GULP energy -267668.404544 kJ/mol
# GULP energy per Si atom -5576.425095 kJ/mol
# Density = 2.029367 g / cm^3
# Si number density = 20.339965 Si / 1000 Ang^3
#
#
#
# Elastic Constant Matrix: (Units=GPa)
#
#
# Indices 1 2 3 4 5 6 
#
# 1 75.6729 12.9130 20.5296 0.0000 0.0000 0.0000
# 2 12.9130 52.2794 15.1609 0.0000 0.0000 0.0000
# 3 20.5296 15.1609 74.1618 0.0000 0.0000 0.0000
# 4 0.0000 0.0000 0.0000 33.5608 0.0000 0.0000
# 5 0.0000 0.0000 0.0000 0.0000 14.7721 0.0000
# 6 0.0000 0.0000 0.0000 0.0000 0.0000 -55.5490
#
#
#
# Elastic Compliance Matrix: (Units=1/GPa)
#
#
# Indices 1 2 3 4 5 6 
#
# 1 0.014610 -0.002589 -0.003515 0.000000 0.000000 0.000000
# 2 -0.002589 0.020792 -0.003534 0.000000 0.000000 0.000000
# 3 -0.003515 -0.003534 0.015179 0.000000 0.000000 0.000000
# 4 0.000000 0.000000 0.000000 0.029797 0.000000 0.000000
# 5 0.000000 0.000000 0.000000 0.000000 0.067695 0.000000
# 6 0.000000 0.000000 0.000000 0.000000 0.000000 -0.018002
#
#
# Mechanical properties :
#
#
# Convention : Reuss Voigt Hill
#
# Bulk Modulus (GPa) = 31.94319 33.25794 32.60056
# Shear Modulus (GPa) = 31.29234 8.79082 20.04158
#
# Velocity S-wave (km/s) = 3.92658 2.08118 3.14240
# Velocity P-wave (km/s) = 6.02463 4.70761 5.40637
#
# Compressibility (1/GPa) = 0.03130558
#
# Stress axis : x y z
#
# Youngs Moduli (GPa) = 68.44513 48.09463 65.87835
#
# Poissons Ratio (x) = 0.12453 0.23157
# Poissons Ratio (y) = 0.17723 0.23280
# Poissons Ratio (z) = 0.24059 0.16996
#
# Static dielectric constant tensor:
#      x y z
#    x 1.936210 0.000000 0.000000 
#    y 0.000000 1.710150 0.000000 
#    z 0.000000 0.000000 1.712710 
# 
# From -- ./inp_files/48044.got.cif
#   From: 2010.05.17/outbox.cif.g08.bks.cpg/sg63_25_cif.got.tgz:48044.got - 2010.06.03 15:47:04.
