data_PCOD9473919
_publ_section_title
;
Structure prediction by ZEFSAII (Michael W. Deem and Ramdas Pophale) SiO2 
 PCOD9473919
Probable space group: C M C M
;
_chemical_formula_sum "Si O2"
_cell_formula_units_Z 116
_cell_length_a 7.931218
_cell_length_b 25.661076
_cell_length_c 30.338015
_cell_angle_alpha 90.000000
_cell_angle_beta 90.000000
_cell_angle_gamma 90.000000
_cell_volume 6174.501662
_symmetry_space_group_name_H-M "C M C M"
_symmetry_group_IT_number 63
_symmetry_cell_setting 'orthorhombic'
loop_
_space_group_symop_operation_xyz
x,y,z
-x,-y,1/2+z
x,-y,-z
-x,y,1/2-z
-x,-y,-z
x,y,1/2-z
-x,y,z
x,-y,1/2+z
1/2+x,1/2+y,z
1/2-x,1/2-y,1/2+z
1/2+x,1/2-y,-z
1/2-x,1/2+y,1/2-z
1/2-x,1/2-y,-z
1/2+x,1/2+y,1/2-z
1/2-x,1/2+y,z
1/2+x,1/2-y,1/2+z
loop_
_atom_site_type_symbol
_atom_site_label
_atom_site_fract_x
_atom_site_fract_y
_atom_site_fract_z
Si Si1 0.805571 0.368552 0.946268
Si Si2 0.307041 0.262107 0.908682
Si Si3 0.192287 0.167090 0.538300
Si Si4 0.500000 0.270893 0.750000
Si Si5 0.705885 0.985032 0.950483
Si Si6 0.805104 0.238736 0.687389
Si Si7 0.201194 0.884714 0.201293
Si Si8 0.198606 0.583283 0.606479
O O1 0.710351 0.321913 0.922420
O O2 0.737468 0.426725 0.939095
O O3 0.000000 0.366591 0.931728
O O4 0.798699 0.356884 0.998566
O O5 0.500000 0.247798 0.900482
O O6 0.242394 0.225046 0.947753
O O7 0.206383 0.250201 0.864381
O O8 0.212759 0.131009 0.581417
O O9 0.000000 0.166501 0.523237
O O10 0.652757 0.267892 0.712121
O O11 0.500000 0.983491 0.951089
O O12 0.757107 0.029570 0.916108
O O13 0.760260 0.000000 0.000000
O O14 0.770545 0.177295 0.695816
O O15 0.000000 0.249164 0.701162
O O16 0.265327 0.900028 0.250000
O O17 0.274024 0.913208 0.158663
O O18 0.000000 0.892536 0.200680
O O19 0.000000 0.588740 0.597435
#
# Coordination Sequence:
#
# PCOD9473919 Si02
#       8
#    16  16  16   4  16  16  16  16
#     4  11  22  39  60  81 112 156 201 249 297 352
#     4  12  24  39  56  84 120 158 201 242 298 365
#     4  12  23  36  54  82 119 157 194 240 295 354
#     4  12  22  36  60  90 116 164 198 244 300 366
#     4   9  18  36  59  84 113 149 195 242 296 353
#     4  11  22  37  57  87 124 157 197 246 298 362
#     4  10  21  36  54  81 118 154 186 237 301 357
#     4  11  21  34  58  87 115 150 194 243 291 353
#
# _framework density 18.786940999999999
#
# number of rings (size 3 to 8) (size 9 to 14) (size 15 to 20)
#    0.000    1.103    4.138    3.931    0.966    0.276 
#    0.000    3.448    0.000    0.000    1.793    0.000 
#    0.000    0.000    0.000    0.000    0.000    0.000 
#
# Total GULP energy -323496.221187 kJ/mol
# GULP energy per Si atom -5577.521055 kJ/mol
# Density = 1.874418 g / cm^3
# Si number density = 18.786941 Si / 1000 Ang^3
#
#
#
# Elastic Constant Matrix: (Units=GPa)
#
#
# Indices 1 2 3 4 5 6 
#
# 1 69.2811 8.1914 5.7692 0.0000 0.0000 0.0000
# 2 8.1914 93.4279 25.7900 0.0000 0.0000 0.0000
# 3 5.7692 25.7900 101.9684 0.0000 0.0000 0.0000
# 4 0.0000 0.0000 0.0000 -0.8216 0.0000 0.0000
# 5 0.0000 0.0000 0.0000 0.0000 22.8705 0.0000
# 6 0.0000 0.0000 0.0000 0.0000 0.0000 16.5145
#
#
#
# Elastic Compliance Matrix: (Units=1/GPa)
#
#
# Indices 1 2 3 4 5 6 
#
# 1 0.014613 -0.001132 -0.000540 0.000000 0.000000 0.000000
# 2 -0.001132 0.011595 -0.002868 0.000000 0.000000 0.000000
# 3 -0.000540 -0.002868 0.010563 0.000000 0.000000 0.000000
# 4 0.000000 0.000000 0.000000 -1.217209 0.000000 0.000000
# 5 0.000000 0.000000 0.000000 0.000000 0.043724 0.000000
# 6 0.000000 0.000000 0.000000 0.000000 0.000000 0.060553
#
#
# Mechanical properties :
#
#
# Convention : Reuss Voigt Hill
#
# Bulk Modulus (GPa) = 36.11608 38.24207 37.17908
# Shear Modulus (GPa) = -4.72656 22.70782 8.99063
#
# Velocity S-wave (km/s) = -1.58787 3.48041 2.18997
# Velocity P-wave (km/s) = 3.98798 6.04573 5.12127
#
# Compressibility (1/GPa) = 0.02768850
#
# Stress axis : x y z
#
# Youngs Moduli (GPa) = 68.43317 86.24773 94.66981
#
# Poissons Ratio (x) = 0.09763 0.05117
# Poissons Ratio (y) = 0.07747 0.27156
# Poissons Ratio (z) = 0.03699 0.24740
#
# Static dielectric constant tensor:
#      x y z
#    x 1.680860 0.000000 0.000000 
#    y 0.000000 1.635430 0.000000 
#    z 0.000000 0.000000 1.683880 
# 
# From -- ./inp_files/72108.got.cif
#   From: 2010.05.17/outbox.cif.g08.bks.cpg/sg63_37_cif.got.tgz:72108.got - 2010.06.03 15:47:04.
