data_PCOD9473017
_publ_section_title
;
Structure prediction by ZEFSAII (Michael W. Deem and Ramdas Pophale) SiO2 
 PCOD9473017
Probable space group: C M C M
;
_chemical_formula_sum "Si O2"
_cell_formula_units_Z 64
_cell_length_a 12.949651
_cell_length_b 12.014545
_cell_length_c 18.954538
_cell_angle_alpha 90.000000
_cell_angle_beta 90.000000
_cell_angle_gamma 90.000000
_cell_volume 2949.025962
_symmetry_space_group_name_H-M "C M C M"
_symmetry_group_IT_number 63
_symmetry_cell_setting 'orthorhombic'
loop_
_space_group_symop_operation_xyz
x,y,z
-x,-y,1/2+z
x,-y,-z
-x,y,1/2-z
-x,-y,-z
x,y,1/2-z
-x,y,z
x,-y,1/2+z
1/2+x,1/2+y,z
1/2-x,1/2-y,1/2+z
1/2+x,1/2-y,-z
1/2-x,1/2+y,1/2-z
1/2-x,1/2-y,-z
1/2+x,1/2+y,1/2-z
1/2-x,1/2+y,z
1/2+x,1/2-y,1/2+z
loop_
_atom_site_type_symbol
_atom_site_label
_atom_site_fract_x
_atom_site_fract_y
_atom_site_fract_z
Si Si1 0.664194 0.661304 0.426245
Si Si2 0.113270 0.628923 0.669637
Si Si3 0.613507 0.746556 0.576227
Si Si4 0.836683 0.042800 0.831197
O O1 0.626401 0.771269 0.385266
O O2 0.626373 0.670594 0.506138
O O3 0.789210 0.671100 0.426372
O O4 0.628654 0.554220 0.383329
O O5 0.118406 0.674458 0.750000
O O6 0.211727 0.549765 0.663387
O O7 0.000000 0.576950 0.660674
O O8 0.500000 0.798318 0.575829
O O9 0.625089 0.662665 0.641929
O O10 0.864804 0.022355 0.750000
#
# Coordination Sequence:
#
# PCOD9473017 Si02
#       4
#    16  16  16  16
#     4  10  20  36  57  78 105 142 179 218 264 313
#     4   9  18  33  53  78 107 138 176 221 263 307
#     4  10  22  38  55  79 109 139 176 221 265 312
#     4  10  21  36  54  79 109 139 174 216 262 314
#
# _framework density 21.702079999999999
#
# number of rings (size 3 to 8) (size 9 to 14) (size 15 to 20)
#    0.000    2.250    0.000    2.250    0.000    5.500 
#    0.000    0.000    0.000    9.000    0.000    0.000 
#    0.000    0.000    0.000    0.000    0.000    0.000 
#
# Total GULP energy -178739.152698 kJ/mol
# GULP energy per Si atom -5585.598522 kJ/mol
# Density = 2.165268 g / cm^3
# Si number density = 21.702080 Si / 1000 Ang^3
#
#
#
# Elastic Constant Matrix: (Units=GPa)
#
#
# Indices 1 2 3 4 5 6 
#
# 1 137.3559 -13.7835 1.0811 0.0000 0.0000 0.0000
# 2 -13.7835 16.6934 13.4667 0.0000 0.0000 0.0000
# 3 1.0811 13.4667 88.5225 0.0000 0.0000 0.0000
# 4 0.0000 0.0000 0.0000 26.9741 0.0000 0.0000
# 5 0.0000 0.0000 0.0000 0.0000 12.7191 0.0000
# 6 0.0000 0.0000 0.0000 0.0000 0.0000 -6.0341
#
#
#
# Elastic Compliance Matrix: (Units=1/GPa)
#
#
# Indices 1 2 3 4 5 6 
#
# 1 0.008061 0.007677 -0.001266 0.000000 0.000000 0.000000
# 2 0.007677 0.075596 -0.011594 0.000000 0.000000 0.000000
# 3 -0.001266 -0.011594 0.013076 0.000000 0.000000 0.000000
# 4 0.000000 0.000000 0.000000 0.037073 0.000000 0.000000
# 5 0.000000 0.000000 0.000000 0.000000 0.078622 0.000000
# 6 0.000000 0.000000 0.000000 0.000000 0.000000 -0.165726
#
#
# Mechanical properties :
#
#
# Convention : Reuss Voigt Hill
#
# Bulk Modulus (GPa) = 11.57863 27.12229 19.35046
# Shear Modulus (GPa) = 58.23732 22.85234 40.54483
#
# Velocity S-wave (km/s) = 5.18586 3.24852 4.32701
# Velocity P-wave (km/s) = 6.41906 5.15705 5.82235
#
# Compressibility (1/GPa) = 0.08636603
#
# Stress axis : x y z
#
# Youngs Moduli (GPa) = 124.05838 13.22825 76.47721
#
# Poissons Ratio (x) = -0.10156 0.09685
# Poissons Ratio (y) = -0.95242 0.88668
# Poissons Ratio (z) = 0.15710 0.15337
#
# Static dielectric constant tensor:
#      x y z
#    x 1.848380 0.000000 0.000000 
#    y 0.000000 1.735720 0.000000 
#    z 0.000000 0.000000 1.758020 
# 
# From -- ./inp_files/31104.got.cif
#   From: 2010.05.17/outbox.cif.g08.bks.cpg/sg63_16_cif.got.tgz:31104.got - 2010.06.03 15:47:04.
