data_PCOD9473346
_publ_section_title
;
Structure prediction by ZEFSAII (Michael W. Deem and Ramdas Pophale) SiO2 
 PCOD9473346
Probable space group: C M C M
;
_chemical_formula_sum "Si O2"
_cell_formula_units_Z 96
_cell_length_a 20.665704
_cell_length_b 16.619921
_cell_length_c 13.747348
_cell_angle_alpha 90.000000
_cell_angle_beta 90.000000
_cell_angle_gamma 90.000000
_cell_volume 4721.696696
_symmetry_space_group_name_H-M "C M C M"
_symmetry_group_IT_number 63
_symmetry_cell_setting 'orthorhombic'
loop_
_space_group_symop_operation_xyz
x,y,z
-x,-y,1/2+z
x,-y,-z
-x,y,1/2-z
-x,-y,-z
x,y,1/2-z
-x,y,z
x,-y,1/2+z
1/2+x,1/2+y,z
1/2-x,1/2-y,1/2+z
1/2+x,1/2-y,-z
1/2-x,1/2+y,1/2-z
1/2-x,1/2-y,-z
1/2+x,1/2+y,1/2-z
1/2-x,1/2+y,z
1/2+x,1/2-y,1/2+z
loop_
_atom_site_type_symbol
_atom_site_label
_atom_site_fract_x
_atom_site_fract_y
_atom_site_fract_z
Si Si1 0.380008 0.130498 0.631908
Si Si2 0.293727 0.872029 0.866658
Si Si3 0.670620 0.413878 0.974859
Si Si4 0.428714 0.698522 0.133046
Si Si5 0.573368 0.953503 0.868968
Si Si6 0.734595 0.314951 0.365402
O O1 0.383295 0.127932 0.750000
O O2 0.419212 0.209191 0.600269
O O3 0.305542 0.150972 0.608353
O O4 0.407148 0.044362 0.600079
O O5 0.288929 0.883558 0.750000
O O6 0.239301 0.924983 0.919379
O O7 0.366794 0.895342 0.896170
O O8 0.274531 0.779537 0.887968
O O9 0.625707 0.358800 0.908749
O O10 0.642075 0.500000 0.000000
O O11 0.684270 0.365583 0.073235
O O12 0.423449 0.698811 0.250000
O O13 0.500000 0.670419 0.105213
O O14 0.572221 0.953009 0.750000
O O15 0.500000 0.933584 0.900443
O O16 0.726473 0.323987 0.250000
#
# Coordination Sequence:
#
# PCOD9473346 Si02
#       6
#    16  16  16  16  16  16
#     4   9  16  31  57  86 114 148 196 242 287 347
#     4  10  20  37  59  85 121 160 199 242 294 362
#     4  12  24  37  60  88 118 151 197 254 308 360
#     4  10  21  38  61  87 116 153 197 248 305 362
#     4   9  17  30  53  86 123 160 193 231 286 354
#     4  10  21  38  61  87 116 155 203 248 294 356
#
# _framework density 20.331674
#
# number of rings (size 3 to 8) (size 9 to 14) (size 15 to 20)
#    0.000    2.000    1.667    2.500    0.000    5.000 
#    0.000    0.833    0.000    3.000    0.000    0.000 
#    0.000    0.000    0.000    0.000    0.000    0.000 
#
# Total GULP energy -268359.271387 kJ/mol
# GULP energy per Si atom -5590.818154 kJ/mol
# Density = 2.028540 g / cm^3
# Si number density = 20.331674 Si / 1000 Ang^3
#
#
#
# Elastic Constant Matrix: (Units=GPa)
#
#
# Indices 1 2 3 4 5 6 
#
# 1 137.2895 46.4897 24.8945 0.0000 0.0000 0.0000
# 2 46.4897 84.6304 16.3349 0.0000 0.0000 0.0000
# 3 24.8945 16.3349 50.9480 0.0000 0.0000 0.0000
# 4 0.0000 0.0000 0.0000 24.6869 0.0000 0.0000
# 5 0.0000 0.0000 0.0000 0.0000 18.4939 0.0000
# 6 0.0000 0.0000 0.0000 0.0000 0.0000 22.8269
#
#
#
# Elastic Compliance Matrix: (Units=1/GPa)
#
#
# Indices 1 2 3 4 5 6 
#
# 1 0.009394 -0.004557 -0.003129 0.000000 0.000000 0.000000
# 2 -0.004557 0.014806 -0.002521 0.000000 0.000000 0.000000
# 3 -0.003129 -0.002521 0.021965 0.000000 0.000000 0.000000
# 4 0.000000 0.000000 0.000000 0.040507 0.000000 0.000000
# 5 0.000000 0.000000 0.000000 0.000000 0.054072 0.000000
# 6 0.000000 0.000000 0.000000 0.000000 0.000000 0.043808
#
#
# Mechanical properties :
#
#
# Convention : Reuss Voigt Hill
#
# Bulk Modulus (GPa) = 38.83173 49.81178 44.32175
# Shear Modulus (GPa) = 23.41383 25.54479 24.47931
#
# Velocity S-wave (km/s) = 3.39720 3.54842 3.47363
# Velocity P-wave (km/s) = 5.87610 6.42971 6.15913
#
# Compressibility (1/GPa) = 0.02575214
#
# Stress axis : x y z
#
# Youngs Moduli (GPa) = 106.44787 67.54204 45.52676
#
# Poissons Ratio (x) = 0.30776 0.14247
# Poissons Ratio (y) = 0.48503 0.11475
# Poissons Ratio (z) = 0.33312 0.17024
#
# Static dielectric constant tensor:
#      x y z
#    x 1.712600 0.000000 0.000000 
#    y 0.000000 1.705230 0.000000 
#    z 0.000000 0.000000 1.759150 
# 
# From -- ./inp_files/35295.got.cif
#   From: 2010.05.17/outbox.cif.g08.bks.cpg/sg63_18_cif.got.tgz:35295.got - 2010.06.03 15:47:04.
