data_PCOD9473958
_publ_section_title
;
Structure prediction by ZEFSAII (Michael W. Deem and Ramdas Pophale) SiO2 
 PCOD9473958
Probable space group: C M C M
;
_chemical_formula_sum "Si O2"
_cell_formula_units_Z 80
_cell_length_a 8.659035
_cell_length_b 19.621324
_cell_length_c 26.041910
_cell_angle_alpha 90.000000
_cell_angle_beta 90.000000
_cell_angle_gamma 90.000000
_cell_volume 4424.565594
_symmetry_space_group_name_H-M "C M C M"
_symmetry_group_IT_number 63
_symmetry_cell_setting 'orthorhombic'
loop_
_space_group_symop_operation_xyz
x,y,z
-x,-y,1/2+z
x,-y,-z
-x,y,1/2-z
-x,-y,-z
x,y,1/2-z
-x,y,z
x,-y,1/2+z
1/2+x,1/2+y,z
1/2-x,1/2-y,1/2+z
1/2+x,1/2-y,-z
1/2-x,1/2+y,1/2-z
1/2-x,1/2-y,-z
1/2+x,1/2+y,1/2-z
1/2-x,1/2+y,z
1/2+x,1/2-y,1/2+z
loop_
_atom_site_type_symbol
_atom_site_label
_atom_site_fract_x
_atom_site_fract_y
_atom_site_fract_z
Si Si1 0.315786 0.138068 0.531380
Si Si2 0.315925 0.267902 0.120928
Si Si3 0.815043 0.383265 0.309847
Si Si4 0.815285 0.133078 0.082792
Si Si5 0.315423 0.476349 0.397940
O O1 0.500000 0.144543 0.530579
O O2 0.245165 0.194788 0.569301
O O3 0.248171 0.143556 0.474656
O O4 0.266531 0.066175 0.556801
O O5 0.500000 0.271795 0.122176
O O6 0.245456 0.311906 0.167257
O O7 0.258945 0.190587 0.118518
O O8 0.777695 0.390597 0.250000
O O9 0.738714 0.441175 0.345274
O O10 0.000000 0.386139 0.316324
O O11 0.777827 0.055984 0.099380
O O12 0.000000 0.140925 0.082619
O O13 0.500000 0.468127 0.403784
#
# Coordination Sequence:
#
# PCOD9473958 Si02
#       5
#    16  16  16  16  16
#     4  11  21  34  54  79 111 149 185 220 261 315
#     4  11  22  36  56  81 109 142 182 224 266 317
#     4  10  21  39  62  83 105 136 175 221 271 323
#     4  11  22  36  53  78 114 148 180 221 267 315
#     4  10  21  36  56  81 109 143 181 221 265 316
#
# _framework density 18.080873
#
# number of rings (size 3 to 8) (size 9 to 14) (size 15 to 20)
#    0.000    1.400    0.000    9.000    0.000    7.200 
#    0.000    1.000    0.000    1.200    0.000    0.000 
#    0.000    0.000    0.000    0.000    0.000    0.000 
#
# Total GULP energy -223644.572239 kJ/mol
# GULP energy per Si atom -5591.114306 kJ/mol
# Density = 1.803972 g / cm^3
# Si number density = 18.080873 Si / 1000 Ang^3
#
#
#
# Elastic Constant Matrix: (Units=GPa)
#
#
# Indices 1 2 3 4 5 6 
#
# 1 57.0974 8.4989 0.2628 0.0000 0.0000 0.0000
# 2 8.4989 60.5355 -14.5936 0.0000 0.0000 0.0000
# 3 0.2628 -14.5936 44.5234 0.0000 0.0000 0.0000
# 4 0.0000 0.0000 0.0000 3.7470 0.0000 0.0000
# 5 0.0000 0.0000 0.0000 0.0000 29.3323 0.0000
# 6 0.0000 0.0000 0.0000 0.0000 0.0000 32.5055
#
#
#
# Elastic Compliance Matrix: (Units=1/GPa)
#
#
# Indices 1 2 3 4 5 6 
#
# 1 0.017930 -0.002761 -0.001011 0.000000 0.000000 0.000000
# 2 -0.002761 0.018362 0.006035 0.000000 0.000000 0.000000
# 3 -0.001011 0.006035 0.024444 0.000000 0.000000 0.000000
# 4 0.000000 0.000000 0.000000 0.266878 0.000000 0.000000
# 5 0.000000 0.000000 0.000000 0.000000 0.034092 0.000000
# 6 0.000000 0.000000 0.000000 0.000000 0.000000 0.030764
#
#
# Mechanical properties :
#
#
# Convention : Reuss Voigt Hill
#
# Bulk Modulus (GPa) = 15.32296 16.72138 16.02217
# Shear Modulus (GPa) = 12.20415 24.31619 18.26017
#
# Velocity S-wave (km/s) = 2.60085 3.67121 3.18137
# Velocity P-wave (km/s) = 4.18477 5.21906 4.73027
#
# Compressibility (1/GPa) = 0.06526154
#
# Stress axis : x y z
#
# Youngs Moduli (GPa) = 55.77384 54.46124 40.90965
#
# Poissons Ratio (x) = 0.15036 0.04135
# Poissons Ratio (y) = 0.15399 -0.24688
# Poissons Ratio (z) = 0.05637 -0.32866
#
# Static dielectric constant tensor:
#      x y z
#    x 1.603170 0.000000 0.000000 
#    y 0.000000 1.629400 0.000000 
#    z 0.000000 0.000000 1.589630 
# 
# From -- ./inp_files/66618.got.cif
#   From: 2010.05.17/outbox.cif.g08.bks.cpg/sg63_34_cif.got.tgz:66618.got - 2010.06.03 15:47:04.
