data_PCOD9473672
_publ_section_title
;
Structure prediction by ZEFSAII (Michael W. Deem and Ramdas Pophale) SiO2 
 PCOD9473672
Probable space group: C M C M
;
_chemical_formula_sum "Si O2"
_cell_formula_units_Z 64
_cell_length_a 12.042793
_cell_length_b 9.125767
_cell_length_c 28.320952
_cell_angle_alpha 90.000000
_cell_angle_beta 90.000000
_cell_angle_gamma 90.000000
_cell_volume 3112.464778
_symmetry_space_group_name_H-M "C M C M"
_symmetry_group_IT_number 63
_symmetry_cell_setting 'orthorhombic'
loop_
_space_group_symop_operation_xyz
x,y,z
-x,-y,1/2+z
x,-y,-z
-x,y,1/2-z
-x,-y,-z
x,y,1/2-z
-x,y,z
x,-y,1/2+z
1/2+x,1/2+y,z
1/2-x,1/2-y,1/2+z
1/2+x,1/2-y,-z
1/2-x,1/2+y,1/2-z
1/2-x,1/2-y,-z
1/2+x,1/2+y,1/2-z
1/2-x,1/2+y,z
1/2+x,1/2-y,1/2+z
loop_
_atom_site_type_symbol
_atom_site_label
_atom_site_fract_x
_atom_site_fract_y
_atom_site_fract_z
Si Si1 0.873770 0.793297 0.193567
Si Si2 0.127914 0.916559 0.933432
Si Si3 0.328624 0.906082 0.455685
Si Si4 0.211264 0.482005 0.642321
O O1 0.864367 0.799953 0.250000
O O2 0.855085 0.628120 0.175238
O O3 0.000000 0.840102 0.180435
O O4 0.778360 0.892997 0.170059
O O5 0.145749 0.763783 0.960409
O O6 0.189632 0.891782 0.883659
O O7 0.000000 0.950201 0.930095
O O8 0.197326 0.054180 0.952992
O O9 0.371538 0.000000 0.500000
O O10 0.360556 0.960399 0.402761
#
# Coordination Sequence:
#
# PCOD9473672 Si02
#       4
#    16  16  16  16
#     4  11  23  40  63  88 114 151 195 240 298 352
#     4  10  21  37  58  83 117 156 193 235 287 338
#     4  10  21  39  59  87 121 155 198 239 279 345
#     4  10  20  41  59  84 123 149 188 248 285 340
#
# _framework density 20.562480000000001
#
# number of rings (size 3 to 8) (size 9 to 14) (size 15 to 20)
#    1.500    0.250    2.500    2.250    0.000    2.000 
#    0.000    3.750    0.000    4.500    0.000    0.000 
#    0.000    0.000    0.000    0.000    0.000    0.000 
#
# Total GULP energy -178168.092354 kJ/mol
# GULP energy per Si atom -5567.752886 kJ/mol
# Density = 2.051568 g / cm^3
# Si number density = 20.562480 Si / 1000 Ang^3
#
#
#
# Elastic Constant Matrix: (Units=GPa)
#
#
# Indices 1 2 3 4 5 6 
#
# 1 81.4520 0.2164 15.0955 0.0000 0.0000 0.0000
# 2 0.2164 61.4840 33.1414 0.0000 0.0000 0.0000
# 3 15.0955 33.1414 111.6661 0.0000 0.0000 0.0000
# 4 0.0000 0.0000 0.0000 39.6881 0.0000 0.0000
# 5 0.0000 0.0000 0.0000 0.0000 -52.2291 0.0000
# 6 0.0000 0.0000 0.0000 0.0000 0.0000 60.1483
#
#
#
# Elastic Compliance Matrix: (Units=1/GPa)
#
#
# Indices 1 2 3 4 5 6 
#
# 1 0.012649 0.001044 -0.002020 0.000000 0.000000 0.000000
# 2 0.001044 0.019448 -0.005913 0.000000 0.000000 0.000000
# 3 -0.002020 -0.005913 0.010983 0.000000 0.000000 0.000000
# 4 0.000000 0.000000 0.000000 0.025196 0.000000 0.000000
# 5 0.000000 0.000000 0.000000 0.000000 -0.019146 0.000000
# 6 0.000000 0.000000 0.000000 0.000000 0.000000 0.016626
#
#
# Mechanical properties :
#
#
# Convention : Reuss Voigt Hill
#
# Bulk Modulus (GPa) = 34.12673 39.05652 36.59163
# Shear Modulus (GPa) = 55.99060 23.26471 39.62766
#
# Velocity S-wave (km/s) = 5.22385 3.36730 4.39473
# Velocity P-wave (km/s) = 7.28131 5.84411 6.60193
#
# Compressibility (1/GPa) = 0.02930254
#
# Stress axis : x y z
#
# Youngs Moduli (GPa) = 79.05936 51.41904 91.04754
#
# Poissons Ratio (x) = -0.05369 0.18390
# Poissons Ratio (y) = -0.08255 0.53838
# Poissons Ratio (z) = 0.15969 0.30405
#
# Static dielectric constant tensor:
#      x y z
#    x 1.731370 0.000000 0.000000 
#    y 0.000000 1.729100 0.000000 
#    z 0.000000 0.000000 1.798980 
# 
# From -- ./inp_files/72361.got.cif
#   From: 2010.05.17/outbox.cif.g08.bks.cpg/sg63_37_cif.got.tgz:72361.got - 2010.06.03 15:47:04.
