data_PCOD9473062
_publ_section_title
;
Structure prediction by ZEFSAII (Michael W. Deem and Ramdas Pophale) SiO2 
 PCOD9473062
Probable space group: C M C M
;
_chemical_formula_sum "Si O2"
_cell_formula_units_Z 96
_cell_length_a 16.553980
_cell_length_b 11.278281
_cell_length_c 26.125050
_cell_angle_alpha 90.000000
_cell_angle_beta 90.000000
_cell_angle_gamma 90.000000
_cell_volume 4877.558281
_symmetry_space_group_name_H-M "C M C M"
_symmetry_group_IT_number 63
_symmetry_cell_setting 'orthorhombic'
loop_
_space_group_symop_operation_xyz
x,y,z
-x,-y,1/2+z
x,-y,-z
-x,y,1/2-z
-x,-y,-z
x,y,1/2-z
-x,y,z
x,-y,1/2+z
1/2+x,1/2+y,z
1/2-x,1/2-y,1/2+z
1/2+x,1/2-y,-z
1/2-x,1/2+y,1/2-z
1/2-x,1/2-y,-z
1/2+x,1/2+y,1/2-z
1/2-x,1/2+y,z
1/2+x,1/2-y,1/2+z
loop_
_atom_site_type_symbol
_atom_site_label
_atom_site_fract_x
_atom_site_fract_y
_atom_site_fract_z
Si Si1 0.411477 0.549156 0.306643
Si Si2 0.352127 0.737873 0.382630
Si Si3 0.590843 0.013323 0.595743
Si Si4 0.095065 0.357563 0.808916
Si Si5 0.735056 0.532006 0.442049
Si Si6 0.802920 0.143451 0.649143
O O1 0.407138 0.600556 0.250000
O O2 0.500000 0.489250 0.311774
O O3 0.404466 0.650107 0.348682
O O4 0.338091 0.458065 0.314143
O O5 0.400595 0.845046 0.407629
O O6 0.304564 0.654246 0.422696
O O7 0.285384 0.800098 0.346161
O O8 0.500000 0.975799 0.580597
O O9 0.667875 0.961651 0.565805
O O10 0.603306 0.972745 0.654991
O O11 0.125218 0.367600 0.750000
O O12 0.138222 0.253394 0.840517
O O13 0.000000 0.331898 0.805884
O O14 0.716188 0.500000 0.500000
O O15 0.702504 0.425987 0.405157
#
# Coordination Sequence:
#
# PCOD9473062 Si02
#       6
#    16  16  16  16  16  16
#     4  10  21  36  56  82 115 156 194 233 286 345
#     4  10  21  39  57  85 117 152 192 242 292 344
#     4  10  21  38  60  87 120 153 195 242 289 352
#     4  10  20  36  59  87 123 162 193 232 291 353
#     4  10  22  41  65  83 114 155 199 246 304 350
#     4  10  20  36  57  86 114 149 194 242 286 342
#
# _framework density 19.681978999999998
#
# number of rings (size 3 to 8) (size 9 to 14) (size 15 to 20)
#    0.000    2.000    1.667    1.500    0.000    6.333 
#    0.000    4.167    0.000   17.000    0.000    0.000 
#    0.000    0.000    0.000    0.000    0.000    0.000 
#
# Total GULP energy -267443.967031 kJ/mol
# GULP energy per Si atom -5571.749313 kJ/mol
# Density = 1.963718 g / cm^3
# Si number density = 19.681979 Si / 1000 Ang^3
#
#
#
# Elastic Constant Matrix: (Units=GPa)
#
#
# Indices 1 2 3 4 5 6 
#
# 1 65.1921 16.0351 31.0228 0.0000 0.0000 0.0000
# 2 16.0351 72.8523 12.6826 0.0000 0.0000 0.0000
# 3 31.0228 12.6826 67.4201 0.0000 0.0000 0.0000
# 4 0.0000 0.0000 0.0000 3.2029 0.0000 0.0000
# 5 0.0000 0.0000 0.0000 0.0000 16.4843 0.0000
# 6 0.0000 0.0000 0.0000 0.0000 0.0000 25.3085
#
#
#
# Elastic Compliance Matrix: (Units=1/GPa)
#
#
# Indices 1 2 3 4 5 6 
#
# 1 0.020226 -0.002928 -0.008756 0.000000 0.000000 0.000000
# 2 -0.002928 0.014615 -0.001402 0.000000 0.000000 0.000000
# 3 -0.008756 -0.001402 0.019125 0.000000 0.000000 0.000000
# 4 0.000000 0.000000 0.000000 0.312217 0.000000 0.000000
# 5 0.000000 0.000000 0.000000 0.000000 0.060664 0.000000
# 6 0.000000 0.000000 0.000000 0.000000 0.000000 0.039512
#
#
# Mechanical properties :
#
#
# Convention : Reuss Voigt Hill
#
# Bulk Modulus (GPa) = 35.97838 36.10505 36.04171
# Shear Modulus (GPa) = 9.96421 18.71407 14.33914
#
# Velocity S-wave (km/s) = 2.25246 3.08689 2.70208
# Velocity P-wave (km/s) = 5.00843 5.57577 5.29969
#
# Compressibility (1/GPa) = 0.02779447
#
# Stress axis : x y z
#
# Youngs Moduli (GPa) = 49.44102 68.42352 52.28702
#
# Poissons Ratio (x) = 0.20031 0.45783
# Poissons Ratio (y) = 0.14474 0.07332
# Poissons Ratio (z) = 0.43291 0.09594
#
# Static dielectric constant tensor:
#      x y z
#    x 1.722100 0.000000 0.000000 
#    y 0.000000 1.706790 0.000000 
#    z 0.000000 0.000000 1.682910 
# 
# From -- ./inp_files/69858.got.cif
#   From: 2010.05.17/outbox.cif.g08.bks.cpg/sg63_35_cif.got.tgz:69858.got - 2010.06.03 15:47:04.
