data_PCOD9473746
_publ_section_title
;
Structure prediction by ZEFSAII (Michael W. Deem and Ramdas Pophale) SiO2 
 PCOD9473746
Probable space group: C M C M
;
_chemical_formula_sum "Si O2"
_cell_formula_units_Z 72
_cell_length_a 24.462075
_cell_length_b 7.636439
_cell_length_c 13.947906
_cell_angle_alpha 90.000000
_cell_angle_beta 90.000000
_cell_angle_gamma 90.000000
_cell_volume 2605.512687
_symmetry_space_group_name_H-M "C M C M"
_symmetry_group_IT_number 63
_symmetry_cell_setting 'orthorhombic'
loop_
_space_group_symop_operation_xyz
x,y,z
-x,-y,1/2+z
x,-y,-z
-x,y,1/2-z
-x,-y,-z
x,y,1/2-z
-x,y,z
x,-y,1/2+z
1/2+x,1/2+y,z
1/2-x,1/2-y,1/2+z
1/2+x,1/2-y,-z
1/2-x,1/2+y,1/2-z
1/2-x,1/2-y,-z
1/2+x,1/2+y,1/2-z
1/2-x,1/2+y,z
1/2+x,1/2-y,1/2+z
loop_
_atom_site_type_symbol
_atom_site_label
_atom_site_fract_x
_atom_site_fract_y
_atom_site_fract_z
Si Si1 0.346047 0.000000 0.000000
Si Si2 0.836210 0.120052 0.860586
Si Si3 0.560657 0.418830 0.866205
Si Si4 0.776166 0.255264 0.361711
Si Si5 0.437581 0.997708 0.135911
O O1 0.389690 0.087446 0.075537
O O2 0.311581 0.877364 0.070241
O O3 0.846241 0.169350 0.750000
O O4 0.893195 0.050203 0.901840
O O5 0.801855 0.936422 0.863880
O O6 0.787191 0.246605 0.893463
O O7 0.563184 0.427430 0.750000
O O8 0.500000 0.472274 0.894932
O O9 0.567725 0.211415 0.884993
O O10 0.778980 0.314898 0.250000
O O11 0.431061 0.021011 0.250000
O O12 0.500000 0.050525 0.111784
#
# Coordination Sequence:
#
# PCOD9473746 Si02
#       5
#     8  16  16  16  16
#     4  12  19  28  48  74 103 136 174 208 260 316
#     4   9  17  33  51  73 103 135 171 211 263 312
#     4   8  13  25  47  70  93 123 164 216 257 287
#     4  10  21  34  50  72 105 140 172 213 257 313
#     4   9  17  29  45  69 102 135 170 215 262 307
#
# _framework density 27.633716
#
# number of rings (size 3 to 8) (size 9 to 14) (size 15 to 20)
#    0.000    2.667    2.222    2.333    0.000    0.889 
#    0.000    0.000    0.000    0.000    0.000    5.444 
#    0.000   26.667    0.000    0.000    0.000    0.000 
#
# Total GULP energy -201665.948250 kJ/mol
# GULP energy per Si atom -5601.831896 kJ/mol
# Density = 2.757082 g / cm^3
# Si number density = 27.633716 Si / 1000 Ang^3
#
#
#
# Elastic Constant Matrix: (Units=GPa)
#
#
# Indices 1 2 3 4 5 6 
#
# 1 226.0558 16.2950 27.9193 0.0000 0.0000 0.0000
# 2 16.2950 81.6510 6.8264 0.0000 0.0000 0.0000
# 3 27.9193 6.8264 161.4712 0.0000 0.0000 0.0000
# 4 0.0000 0.0000 0.0000 32.9744 0.0000 0.0000
# 5 0.0000 0.0000 0.0000 0.0000 28.8136 0.0000
# 6 0.0000 0.0000 0.0000 0.0000 0.0000 -12.0606
#
#
#
# Elastic Compliance Matrix: (Units=1/GPa)
#
#
# Indices 1 2 3 4 5 6 
#
# 1 0.004578 -0.000851 -0.000756 0.000000 0.000000 0.000000
# 2 -0.000851 0.012449 -0.000379 0.000000 0.000000 0.000000
# 3 -0.000756 -0.000379 0.006340 0.000000 0.000000 0.000000
# 4 0.000000 0.000000 0.000000 0.030327 0.000000 0.000000
# 5 0.000000 0.000000 0.000000 0.000000 0.034706 0.000000
# 6 0.000000 0.000000 0.000000 0.000000 0.000000 -0.082914
#
#
# Mechanical properties :
#
#
# Convention : Reuss Voigt Hill
#
# Bulk Modulus (GPa) = 51.55715 63.47328 57.51521
# Shear Modulus (GPa) = 314.05235 37.82128 175.93682
#
# Velocity S-wave (km/s) = 10.67216 3.70356 7.98784
# Velocity P-wave (km/s) = 13.05978 6.42712 10.29237
#
# Compressibility (1/GPa) = 0.01939595
#
# Stress axis : x y z
#
# Youngs Moduli (GPa) = 218.42051 80.32972 157.73499
#
# Poissons Ratio (x) = 0.06832 0.11919
# Poissons Ratio (y) = 0.18577 0.05982
# Poissons Ratio (z) = 0.16505 0.03046
#
# Static dielectric constant tensor:
#      x y z
#    x 2.134490 0.000000 0.000000 
#    y 0.000000 2.253020 0.000000 
#    z 0.000000 0.000000 2.183630 
# 
# From -- ./inp_files/36353.got.cif
#   From: 2010.05.17/outbox.cif.g08.bks.cpg/sg63_19_cif.got.tgz:36353.got - 2010.06.03 15:47:04.
