data_PCOD9473075
_publ_section_title
;
Structure prediction by ZEFSAII (Michael W. Deem and Ramdas Pophale) SiO2 
 PCOD9473075
Probable space group: C M C M
;
_chemical_formula_sum "Si O2"
_cell_formula_units_Z 64
_cell_length_a 7.486373
_cell_length_b 20.629247
_cell_length_c 17.506970
_cell_angle_alpha 90.000000
_cell_angle_beta 90.000000
_cell_angle_gamma 90.000000
_cell_volume 2703.745595
_symmetry_space_group_name_H-M "C M C M"
_symmetry_group_IT_number 63
_symmetry_cell_setting 'orthorhombic'
loop_
_space_group_symop_operation_xyz
x,y,z
-x,-y,1/2+z
x,-y,-z
-x,y,1/2-z
-x,-y,-z
x,y,1/2-z
-x,y,z
x,-y,1/2+z
1/2+x,1/2+y,z
1/2-x,1/2-y,1/2+z
1/2+x,1/2-y,-z
1/2-x,1/2+y,1/2-z
1/2-x,1/2-y,-z
1/2+x,1/2+y,1/2-z
1/2-x,1/2+y,z
1/2+x,1/2-y,1/2+z
loop_
_atom_site_type_symbol
_atom_site_label
_atom_site_fract_x
_atom_site_fract_y
_atom_site_fract_z
Si Si1 0.206640 0.866268 0.546205
Si Si2 0.716730 0.977409 0.835272
Si Si3 0.703534 0.119604 0.873765
Si Si4 0.281216 0.738849 0.334285
O O1 0.217403 0.929255 0.599724
O O2 0.298182 0.877229 0.465476
O O3 0.279784 0.807229 0.597255
O O4 0.000000 0.852579 0.528429
O O5 0.768266 0.956068 0.750000
O O6 0.500000 0.977397 0.839810
O O7 0.781755 0.050915 0.848726
O O8 0.500000 0.118919 0.844716
O O9 0.781293 0.187366 0.844986
O O10 0.229644 0.715012 0.250000
O O11 0.500000 0.738408 0.337309
#
# Coordination Sequence:
#
# PCOD9473075 Si02
#       4
#    16  16  16  16
#     4  11  22  35  54  81 113 145 174 211 265 324
#     4  10  21  37  57  80 105 137 180 226 267 309
#     4  10  20  36  58  80 104 138 181 225 264 307
#     4   9  18  34  56  80 105 137 179 223 266 313
#
# _framework density 23.670867000000001
#
# number of rings (size 3 to 8) (size 9 to 14) (size 15 to 20)
#    0.000    2.000    0.000    3.750    0.000    8.500 
#    0.000    1.250    0.000    5.250    0.000    0.000 
#    0.000    0.000    0.000    0.000    0.000    0.000 
#
# Total GULP energy -179014.902991 kJ/mol
# GULP energy per Si atom -5594.215718 kJ/mol
# Density = 2.361699 g / cm^3
# Si number density = 23.670867 Si / 1000 Ang^3
#
#
#
# Elastic Constant Matrix: (Units=GPa)
#
#
# Indices 1 2 3 4 5 6 
#
# 1 72.5295 -7.5371 -3.9212 0.0000 0.0000 0.0000
# 2 -7.5371 100.5708 10.3083 0.0000 0.0000 0.0000
# 3 -3.9212 10.3083 126.7918 0.0000 0.0000 0.0000
# 4 0.0000 0.0000 0.0000 52.2578 0.0000 0.0000
# 5 0.0000 0.0000 0.0000 0.0000 6.2497 0.0000
# 6 0.0000 0.0000 0.0000 0.0000 0.0000 12.6208
#
#
#
# Elastic Compliance Matrix: (Units=1/GPa)
#
#
# Indices 1 2 3 4 5 6 
#
# 1 0.013911 0.001007 0.000348 0.000000 0.000000 0.000000
# 2 0.001007 0.010100 -0.000790 0.000000 0.000000 0.000000
# 3 0.000348 -0.000790 0.007962 0.000000 0.000000 0.000000
# 4 0.000000 0.000000 0.000000 0.019136 0.000000 0.000000
# 5 0.000000 0.000000 0.000000 0.000000 0.160008 0.000000
# 6 0.000000 0.000000 0.000000 0.000000 0.000000 0.079234
#
#
# Mechanical properties :
#
#
# Convention : Reuss Voigt Hill
#
# Bulk Modulus (GPa) = 30.20877 33.06579 31.63728
# Shear Modulus (GPa) = 16.65251 34.29513 25.47382
#
# Velocity S-wave (km/s) = 2.65524 3.81048 3.28406
# Velocity P-wave (km/s) = 4.71064 5.77573 5.27016
#
# Compressibility (1/GPa) = 0.03310297
#
# Stress axis : x y z
#
# Youngs Moduli (GPa) = 71.88584 99.01319 125.59741
#
# Poissons Ratio (x) = -0.09969 -0.04375
# Poissons Ratio (y) = -0.07238 0.09922
# Poissons Ratio (z) = -0.02504 0.07822
#
# Static dielectric constant tensor:
#      x y z
#    x 1.931850 0.000000 0.000000 
#    y 0.000000 1.876770 0.000000 
#    z 0.000000 0.000000 1.824470 
# 
# From -- ./inp_files/27497.got.cif
#   From: 2010.05.17/outbox.cif.g08.bks.cpg/sg63_14_cif.got.tgz:27497.got - 2010.06.03 15:47:04.
