data_PCOD9473048
_publ_section_title
;
Structure prediction by ZEFSAII (Michael W. Deem and Ramdas Pophale) SiO2 
 PCOD9473048
Probable space group: C M C M
;
_chemical_formula_sum "Si O2"
_cell_formula_units_Z 120
_cell_length_a 27.699643
_cell_length_b 28.261702
_cell_length_c 8.653742
_cell_angle_alpha 90.000000
_cell_angle_beta 90.000000
_cell_angle_gamma 90.000000
_cell_volume 6774.487218
_symmetry_space_group_name_H-M "C M C M"
_symmetry_group_IT_number 63
_symmetry_cell_setting 'orthorhombic'
loop_
_space_group_symop_operation_xyz
x,y,z
-x,-y,1/2+z
x,-y,-z
-x,y,1/2-z
-x,-y,-z
x,y,1/2-z
-x,y,z
x,-y,1/2+z
1/2+x,1/2+y,z
1/2-x,1/2-y,1/2+z
1/2+x,1/2-y,-z
1/2-x,1/2+y,1/2-z
1/2-x,1/2-y,-z
1/2+x,1/2+y,1/2-z
1/2-x,1/2+y,z
1/2+x,1/2-y,1/2+z
loop_
_atom_site_type_symbol
_atom_site_label
_atom_site_fract_x
_atom_site_fract_y
_atom_site_fract_z
Si Si1 0.353910 0.697841 0.932197
Si Si2 0.444458 0.647531 0.435557
Si Si3 0.604599 0.449439 0.565441
Si Si4 0.801690 0.106038 0.063386
Si Si5 0.500000 0.946746 0.436068
Si Si6 0.795828 0.278689 0.067150
Si Si7 0.806091 0.384063 0.934935
Si Si8 0.893313 0.446407 0.064232
O O1 0.348118 0.705170 0.750000
O O2 0.407240 0.680570 0.975596
O O3 0.318667 0.655289 0.987596
O O4 0.340265 0.744813 0.024303
O O5 0.436166 0.652029 0.250000
O O6 0.500000 0.657433 0.467880
O O7 0.430669 0.593556 0.478022
O O8 0.591457 0.500000 0.500000
O O9 0.604377 0.452631 0.750000
O O10 0.658465 0.432730 0.517285
O O11 0.804616 0.112103 0.250000
O O12 0.746626 0.094540 0.023197
O O13 0.500000 0.947604 0.250000
O O14 0.552898 0.927494 0.482793
O O15 0.500000 0.000000 0.500000
O O16 0.789996 0.283753 0.250000
O O17 0.750000 0.250000 0.000000
O O18 0.803192 0.329949 0.992275
O O19 0.810375 0.384585 0.750000
O O20 0.850361 0.413210 0.005165
O O21 0.891585 0.448529 0.250000
O O22 0.888179 0.500000 0.000000
#
# Coordination Sequence:
#
# PCOD9473048 Si02
#       8
#    16  16  16  16   8  16  16  16
#     4  11  21  34  56  83 109 139 179 227 277 333
#     4   9  19  37  58  77 103 143 188 233 284 339
#     4   9  18  32  49  73 103 141 183 226 276 329
#     4   9  19  35  52  71 104 145 182 221 270 333
#     4   8  16  32  56  80 104 140 184 226 270 322
#     4  12  23  37  58  85 114 147 184 226 272 328
#     4  11  22  36  56  84 115 148 186 231 277 327
#     4  10  20  36  57  83 114 149 189 232 277 332
#
# _framework density 17.713519000000002
#
# number of rings (size 3 to 8) (size 9 to 14) (size 15 to 20)
#    0.000    2.000    1.333    4.000    0.000    4.267 
#    0.000    1.333    1.467    0.000    0.000    0.000 
#    0.000    0.000    0.000    0.000    0.000    0.000 
#
# Total GULP energy -334740.507279 kJ/mol
# GULP energy per Si atom -5579.008455 kJ/mol
# Density = 1.767320 g / cm^3
# Si number density = 17.713519 Si / 1000 Ang^3
#
#
#
# Elastic Constant Matrix: (Units=GPa)
#
#
# Indices 1 2 3 4 5 6 
#
# 1 121.5847 24.0710 31.3437 0.0000 0.0000 0.0000
# 2 24.0710 50.5768 10.3327 0.0000 0.0000 0.0000
# 3 31.3437 10.3327 42.6756 0.0000 0.0000 0.0000
# 4 0.0000 0.0000 0.0000 30.1324 0.0000 0.0000
# 5 0.0000 0.0000 0.0000 0.0000 25.9729 0.0000
# 6 0.0000 0.0000 0.0000 0.0000 0.0000 17.4317
#
#
#
# Elastic Compliance Matrix: (Units=1/GPa)
#
#
# Indices 1 2 3 4 5 6 
#
# 1 0.010763 -0.003690 -0.007011 0.000000 0.000000 0.000000
# 2 -0.003690 0.022066 -0.002633 0.000000 0.000000 0.000000
# 3 -0.007011 -0.002633 0.029220 0.000000 0.000000 0.000000
# 4 0.000000 0.000000 0.000000 0.033187 0.000000 0.000000
# 5 0.000000 0.000000 0.000000 0.000000 0.038502 0.000000
# 6 0.000000 0.000000 0.000000 0.000000 0.000000 0.057367
#
#
# Mechanical properties :
#
#
# Convention : Reuss Voigt Hill
#
# Bulk Modulus (GPa) = 28.26416 38.48133 33.37275
# Shear Modulus (GPa) = 21.78034 24.64670 23.21352
#
# Velocity S-wave (km/s) = 3.51035 3.73420 3.62401
# Velocity P-wave (km/s) = 5.69394 6.35325 6.03261
#
# Compressibility (1/GPa) = 0.03538050
#
# Stress axis : x y z
#
# Youngs Moduli (GPa) = 92.91312 45.31884 34.22359
#
# Poissons Ratio (x) = 0.16722 0.23996
# Poissons Ratio (y) = 0.34284 0.09009
# Poissons Ratio (z) = 0.65145 0.11930
#
# Static dielectric constant tensor:
#      x y z
#    x 1.638190 0.000000 0.000000 
#    y 0.000000 1.581210 0.000000 
#    z 0.000000 0.000000 1.597800 
# 
# From -- ./inp_files/13165.got.cif
#   From: 2010.05.17/outbox.cif.g08.bks.cpg/sg63_7_cif.got.tgz:13165.got - 2010.06.03 15:47:04.
