data_PCOD9473563
_publ_section_title
;
Structure prediction by ZEFSAII (Michael W. Deem and Ramdas Pophale) SiO2 
 PCOD9473563
Probable space group: C M C M
;
_chemical_formula_sum "Si O2"
_cell_formula_units_Z 56
_cell_length_a 32.317981
_cell_length_b 5.035884
_cell_length_c 16.388130
_cell_angle_alpha 90.000000
_cell_angle_beta 90.000000
_cell_angle_gamma 90.000000
_cell_volume 2667.161658
_symmetry_space_group_name_H-M "C M C M"
_symmetry_group_IT_number 63
_symmetry_cell_setting 'orthorhombic'
loop_
_space_group_symop_operation_xyz
x,y,z
-x,-y,1/2+z
x,-y,-z
-x,y,1/2-z
-x,-y,-z
x,y,1/2-z
-x,y,z
x,-y,1/2+z
1/2+x,1/2+y,z
1/2-x,1/2-y,1/2+z
1/2+x,1/2-y,-z
1/2-x,1/2+y,1/2-z
1/2-x,1/2-y,-z
1/2+x,1/2+y,1/2-z
1/2-x,1/2+y,z
1/2+x,1/2-y,1/2+z
loop_
_atom_site_type_symbol
_atom_site_label
_atom_site_fract_x
_atom_site_fract_y
_atom_site_fract_z
Si Si1 0.365475 0.886405 0.156724
Si Si2 0.225115 0.513793 0.901412
Si Si3 0.089563 0.878737 0.409117
Si Si4 0.000000 0.753673 0.060780
O O1 0.370883 0.973056 0.250000
O O2 0.389702 0.611002 0.143772
O O3 0.317075 0.875931 0.135796
O O4 0.383885 0.113495 0.098741
O O5 0.261624 0.717378 0.877744
O O6 0.220967 0.500000 0.000000
O O7 0.042561 0.786873 0.389694
O O8 0.089869 0.000000 0.500000
O O9 0.000000 0.500000 0.000000
O O10 0.000000 0.000000 0.000000
#
# Coordination Sequence:
#
# PCOD9473563 Si02
#       4
#    16  16  16   8
#     4  12  25  40  60  93 131 164 202 254 321 382
#     4  10  21  38  61  87 116 157 210 260 307 367
#     4  11  22  41  66  90 121 164 212 259 307 370
#     4  10  20  38  65  96 119 152 211 264 299 348
#
# _framework density 20.996100999999999
#
# number of rings (size 3 to 8) (size 9 to 14) (size 15 to 20)
#    0.000    1.143    0.000    8.571    0.000    3.429 
#    0.000    4.286    0.000    0.000    0.000    0.000 
#    0.000    0.000    0.000    0.000    0.000    0.000 
#
# Total GULP energy -156398.609571 kJ/mol
# GULP energy per Si atom -5585.664628 kJ/mol
# Density = 2.094831 g / cm^3
# Si number density = 20.996101 Si / 1000 Ang^3
#
#
#
# Elastic Constant Matrix: (Units=GPa)
#
#
# Indices 1 2 3 4 5 6 
#
# 1 135.6039 36.9782 23.0575 0.0000 0.0000 0.0000
# 2 36.9782 131.6317 7.9968 0.0000 0.0000 0.0000
# 3 23.0575 7.9968 43.3004 0.0000 0.0000 0.0000
# 4 0.0000 0.0000 0.0000 22.1006 0.0000 0.0000
# 5 0.0000 0.0000 0.0000 0.0000 -21.0711 0.0000
# 6 0.0000 0.0000 0.0000 0.0000 0.0000 37.8152
#
#
#
# Elastic Compliance Matrix: (Units=1/GPa)
#
#
# Indices 1 2 3 4 5 6 
#
# 1 0.008688 -0.002184 -0.004223 0.000000 0.000000 0.000000
# 2 -0.002184 0.008232 -0.000357 0.000000 0.000000 0.000000
# 3 -0.004223 -0.000357 0.025409 0.000000 0.000000 0.000000
# 4 0.000000 0.000000 0.000000 0.045248 0.000000 0.000000
# 5 0.000000 0.000000 0.000000 0.000000 -0.047458 0.000000
# 6 0.000000 0.000000 0.000000 0.000000 0.000000 0.026444
#
#
# Mechanical properties :
#
#
# Convention : Reuss Voigt Hill
#
# Bulk Modulus (GPa) = 34.72147 49.62234 42.17191
# Shear Modulus (GPa) = 55.74616 23.93585 39.84100
#
# Velocity S-wave (km/s) = 5.15833 3.38007 4.36081
# Velocity P-wave (km/s) = 7.21463 6.23847 6.74423
#
# Compressibility (1/GPa) = 0.02880062
#
# Stress axis : x y z
#
# Youngs Moduli (GPa) = 115.10022 121.47379 39.35577
#
# Poissons Ratio (x) = 0.26531 0.16620
# Poissons Ratio (y) = 0.25139 0.01406
# Poissons Ratio (z) = 0.48607 0.04340
#
# Static dielectric constant tensor:
#      x y z
#    x 1.827730 0.000000 0.000000 
#    y 0.000000 1.722030 0.000000 
#    z 0.000000 0.000000 1.461080 
# 
# From -- ./inp_files/38228.got.cif
#   From: 2010.05.17/outbox.cif.g08.bks.cpg/sg63_20_cif.got.tgz:38228.got - 2010.06.03 15:47:04.
