data_PCOD9473790
_publ_section_title
;
Structure prediction by ZEFSAII (Michael W. Deem and Ramdas Pophale) SiO2 
 PCOD9473790
Probable space group: C M C M
;
_chemical_formula_sum "Si O2"
_cell_formula_units_Z 80
_cell_length_a 9.938292
_cell_length_b 26.123734
_cell_length_c 14.762261
_cell_angle_alpha 90.000000
_cell_angle_beta 90.000000
_cell_angle_gamma 90.000000
_cell_volume 3832.656391
_symmetry_space_group_name_H-M "C M C M"
_symmetry_group_IT_number 63
_symmetry_cell_setting 'orthorhombic'
loop_
_space_group_symop_operation_xyz
x,y,z
-x,-y,1/2+z
x,-y,-z
-x,y,1/2-z
-x,-y,-z
x,y,1/2-z
-x,y,z
x,-y,1/2+z
1/2+x,1/2+y,z
1/2-x,1/2-y,1/2+z
1/2+x,1/2-y,-z
1/2-x,1/2+y,1/2-z
1/2-x,1/2-y,-z
1/2+x,1/2+y,1/2-z
1/2-x,1/2+y,z
1/2+x,1/2-y,1/2+z
loop_
_atom_site_type_symbol
_atom_site_label
_atom_site_fract_x
_atom_site_fract_y
_atom_site_fract_z
Si Si1 0.345757 0.227718 0.360505
Si Si2 0.348273 0.592889 0.646191
Si Si3 0.346273 0.819714 0.361282
Si Si4 0.348742 0.481174 0.897405
Si Si5 0.153490 0.611644 0.359762
O O1 0.345816 0.228243 0.250000
O O2 0.500000 0.239832 0.387829
O O3 0.238135 0.269840 0.389441
O O4 0.312351 0.169650 0.388689
O O5 0.363002 0.610101 0.750000
O O6 0.500000 0.595142 0.605201
O O7 0.237367 0.630653 0.606364
O O8 0.303481 0.533905 0.649288
O O9 0.351474 0.820069 0.250000
O O10 0.500000 0.819513 0.393075
O O11 0.500000 0.468758 0.865245
O O12 0.253731 0.432723 0.889154
O O13 0.355284 0.500000 0.000000
O O14 0.154803 0.611766 0.250000
O O15 0.000000 0.600927 0.388692
#
# Coordination Sequence:
#
# PCOD9473790 Si02
#       5
#    16  16  16  16  16
#     4   8  14  26  44  67  96 126 153 185 231 286
#     4   9  17  30  48  68  92 125 160 192 233 285
#     4   9  16  25  41  69  99 122 149 190 236 278
#     4  10  21  35  50  70  97 129 165 204 245 289
#     4   9  18  32  51  75 100 127 161 199 239 286
#
# _framework density 20.873252000000001
#
# number of rings (size 3 to 8) (size 9 to 14) (size 15 to 20)
#    0.000    3.000    0.000    2.400    0.000    5.600 
#    0.000    4.000    0.000    1.200    0.000    0.000 
#    0.000    0.000    0.000    0.000    0.000    0.000 
#
# Total GULP energy -223119.892053 kJ/mol
# GULP energy per Si atom -5577.997301 kJ/mol
# Density = 2.082574 g / cm^3
# Si number density = 20.873252 Si / 1000 Ang^3
#
#
#
# Elastic Constant Matrix: (Units=GPa)
#
#
# Indices 1 2 3 4 5 6 
#
# 1 166.8856 151.7338 4.4796 0.0000 0.0000 0.0000
# 2 151.7338 188.7906 0.0362 0.0000 0.0000 0.0000
# 3 4.4796 0.0362 30.7503 0.0000 0.0000 0.0000
# 4 0.0000 0.0000 0.0000 -3.0422 0.0000 0.0000
# 5 0.0000 0.0000 0.0000 0.0000 4.3192 0.0000
# 6 0.0000 0.0000 0.0000 0.0000 0.0000 39.9151
#
#
#
# Elastic Compliance Matrix: (Units=1/GPa)
#
#
# Indices 1 2 3 4 5 6 
#
# 1 0.022578 -0.018146 -0.003268 0.000000 0.000000 0.000000
# 2 -0.018146 0.019880 0.002620 0.000000 0.000000 0.000000
# 3 -0.003268 0.002620 0.032993 0.000000 0.000000 0.000000
# 4 0.000000 0.000000 0.000000 -0.328707 0.000000 0.000000
# 5 0.000000 0.000000 0.000000 0.000000 0.231525 0.000000
# 6 0.000000 0.000000 0.000000 0.000000 0.000000 0.025053
#
#
# Mechanical properties :
#
#
# Convention : Reuss Voigt Hill
#
# Bulk Modulus (GPa) = 26.40996 77.65843 52.03420
# Shear Modulus (GPa) = 93.40402 23.58354 58.49378
#
# Velocity S-wave (km/s) = 6.69667 3.36496 5.29945
# Velocity P-wave (km/s) = 8.51315 7.23760 7.90116
#
# Compressibility (1/GPa) = 0.03786450
#
# Stress axis : x y z
#
# Youngs Moduli (GPa) = 44.29077 50.30095 30.30949
#
# Poissons Ratio (x) = 0.91275 0.09904
# Poissons Ratio (y) = 0.80369 -0.07941
# Poissons Ratio (z) = 0.14473 -0.13179
#
# Static dielectric constant tensor:
#      x y z
#    x 1.740700 0.000000 0.000000 
#    y 0.000000 1.729510 0.000000 
#    z 0.000000 0.000000 1.719480 
# 
# From -- ./inp_files/40409.got.cif
#   From: 2010.05.17/outbox.cif.g08.bks.cpg/sg63_21_cif.got.tgz:40409.got - 2010.06.03 15:47:04.
