data_PCOD9473368
_publ_section_title
;
Structure prediction by ZEFSAII (Michael W. Deem and Ramdas Pophale) SiO2 
 PCOD9473368
Probable space group: C M C M
;
_chemical_formula_sum "Si O2"
_cell_formula_units_Z 96
_cell_length_a 11.498626
_cell_length_b 26.453688
_cell_length_c 15.984865
_cell_angle_alpha 90.000000
_cell_angle_beta 90.000000
_cell_angle_gamma 90.000000
_cell_volume 4862.293254
_symmetry_space_group_name_H-M "C M C M"
_symmetry_group_IT_number 63
_symmetry_cell_setting 'orthorhombic'
loop_
_space_group_symop_operation_xyz
x,y,z
-x,-y,1/2+z
x,-y,-z
-x,y,1/2-z
-x,-y,-z
x,y,1/2-z
-x,y,z
x,-y,1/2+z
1/2+x,1/2+y,z
1/2-x,1/2-y,1/2+z
1/2+x,1/2-y,-z
1/2-x,1/2+y,1/2-z
1/2-x,1/2-y,-z
1/2+x,1/2+y,1/2-z
1/2-x,1/2+y,z
1/2+x,1/2-y,1/2+z
loop_
_atom_site_type_symbol
_atom_site_label
_atom_site_fract_x
_atom_site_fract_y
_atom_site_fract_z
Si Si1 0.138749 0.762977 0.750000
Si Si2 0.000000 0.187730 0.649670
Si Si3 0.734340 0.484435 0.098121
Si Si4 0.000000 0.930174 0.149983
Si Si5 0.132452 0.332733 0.750000
Si Si6 0.369575 0.110388 0.932318
Si Si7 0.251179 0.283267 0.085496
Si Si8 0.127742 0.576856 0.124579
O O1 0.248283 0.801865 0.750000
O O2 0.167581 0.734899 0.838231
O O3 0.000000 0.777378 0.750000
O O4 0.000000 0.128572 0.620925
O O5 0.883725 0.215000 0.618048
O O6 0.000000 0.187121 0.750000
O O7 0.610951 0.461228 0.119749
O O8 0.821971 0.438218 0.116492
O O9 0.775306 0.535325 0.143708
O O10 0.736332 0.500000 0.000000
O O11 0.000000 0.928442 0.250000
O O12 0.138395 0.370641 0.827984
O O13 0.000000 0.309345 0.750000
O O14 0.500000 0.124150 0.906463
O O15 0.287973 0.159089 0.929894
O O16 0.371442 0.090834 0.027409
O O17 0.250000 0.250000 0.000000
O O18 0.000000 0.555052 0.144368
#
# Coordination Sequence:
#
# PCOD9473368 Si02
#       8
#     8   8  16   8   8  16  16  16
#     4  12  28  48  67 100 137 167 216 287 347 392
#     4  11  24  47  69  94 132 181 226 282 332 409
#     4  10  20  37  60  88 122 163 204 257 315 377
#     4  11  23  39  59  89 130 166 214 259 318 386
#     4  10  22  42  65  90 129 169 210 255 321 400
#     4  10  20  38  61  90 120 157 210 265 321 379
#     4  12  26  44  70  97 130 175 225 278 338 403
#     4   9  19  37  62  91 123 164 210 256 313 387
#
# _framework density 19.743770000000001
#
# number of rings (size 3 to 8) (size 9 to 14) (size 15 to 20)
#    0.000    1.500    2.500    2.250    4.667    2.000 
#    1.500    0.000    0.000    0.000    0.000    0.000 
#    0.000    0.000    0.000    0.000    0.000    0.000 
#
# Total GULP energy -267629.721826 kJ/mol
# GULP energy per Si atom -5575.619205 kJ/mol
# Density = 1.969883 g / cm^3
# Si number density = 19.743770 Si / 1000 Ang^3
#
#
#
# Elastic Constant Matrix: (Units=GPa)
#
#
# Indices 1 2 3 4 5 6 
#
# 1 155.6286 49.3587 32.5633 0.0000 0.0000 0.0000
# 2 49.3587 84.8762 25.4223 0.0000 0.0000 0.0000
# 3 32.5633 25.4223 59.6318 0.0000 0.0000 0.0000
# 4 0.0000 0.0000 0.0000 17.2898 0.0000 0.0000
# 5 0.0000 0.0000 0.0000 0.0000 19.1307 0.0000
# 6 0.0000 0.0000 0.0000 0.0000 0.0000 40.2666
#
#
#
# Elastic Compliance Matrix: (Units=1/GPa)
#
#
# Indices 1 2 3 4 5 6 
#
# 1 0.008275 -0.003965 -0.002828 0.000000 0.000000 0.000000
# 2 -0.003965 0.015406 -0.004403 0.000000 0.000000 0.000000
# 3 -0.002828 -0.004403 0.020191 0.000000 0.000000 0.000000
# 4 0.000000 0.000000 0.000000 0.057837 0.000000 0.000000
# 5 0.000000 0.000000 0.000000 0.000000 0.052272 0.000000
# 6 0.000000 0.000000 0.000000 0.000000 0.000000 0.024834
#
#
# Mechanical properties :
#
#
# Convention : Reuss Voigt Hill
#
# Bulk Modulus (GPa) = 46.55506 57.20280 51.87893
# Shear Modulus (GPa) = 23.99592 28.19025 26.09308
#
# Velocity S-wave (km/s) = 3.48999 3.78273 3.63931
# Velocity P-wave (km/s) = 6.31434 6.93644 6.63269
#
# Compressibility (1/GPa) = 0.02147994
#
# Stress axis : x y z
#
# Youngs Moduli (GPa) = 120.84778 64.90792 49.52678
#
# Poissons Ratio (x) = 0.25736 0.14008
# Poissons Ratio (y) = 0.47916 0.21806
# Poissons Ratio (z) = 0.34180 0.28578
#
# Static dielectric constant tensor:
#      x y z
#    x 1.751540 0.000000 0.000000 
#    y 0.000000 1.689890 0.000000 
#    z 0.000000 0.000000 1.682240 
# 
# From -- ./inp_files/42597.got.cif
#   From: 2010.05.17/outbox.cif.g08.bks.cpg/sg63_22_cif.got.tgz:42597.got - 2010.06.03 15:47:04.
