data_PCOD9473395
_publ_section_title
;
Structure prediction by ZEFSAII (Michael W. Deem and Ramdas Pophale) SiO2 
 PCOD9473395
Probable space group: C M C M
;
_chemical_formula_sum "Si O2"
_cell_formula_units_Z 116
_cell_length_a 17.575063
_cell_length_b 12.070173
_cell_length_c 25.532070
_cell_angle_alpha 90.000000
_cell_angle_beta 90.000000
_cell_angle_gamma 90.000000
_cell_volume 5416.221437
_symmetry_space_group_name_H-M "C M C M"
_symmetry_group_IT_number 63
_symmetry_cell_setting 'orthorhombic'
loop_
_space_group_symop_operation_xyz
x,y,z
-x,-y,1/2+z
x,-y,-z
-x,y,1/2-z
-x,-y,-z
x,y,1/2-z
-x,y,z
x,-y,1/2+z
1/2+x,1/2+y,z
1/2-x,1/2-y,1/2+z
1/2+x,1/2-y,-z
1/2-x,1/2+y,1/2-z
1/2-x,1/2-y,-z
1/2+x,1/2+y,1/2-z
1/2-x,1/2+y,z
1/2+x,1/2-y,1/2+z
loop_
_atom_site_type_symbol
_atom_site_label
_atom_site_fract_x
_atom_site_fract_y
_atom_site_fract_z
Si Si1 0.408617 0.979051 0.189603
Si Si2 0.344258 0.538684 0.307845
Si Si3 0.706603 0.890695 0.875498
Si Si4 0.330695 0.368638 0.550680
Si Si5 0.117900 0.205014 0.835830
Si Si6 0.000000 0.716551 0.250000
Si Si7 0.412019 0.393047 0.446966
Si Si8 0.412985 0.744624 0.140871
O O1 0.382971 0.002058 0.250000
O O2 0.500000 0.995257 0.190285
O O3 0.393185 0.850607 0.175737
O O4 0.369666 0.046415 0.142021
O O5 0.318132 0.565367 0.250000
O O6 0.272764 0.544713 0.345670
O O7 0.376171 0.415739 0.310492
O O8 0.402921 0.632314 0.325947
O O9 0.741856 0.883943 0.933858
O O10 0.695442 0.771123 0.848052
O O11 0.355928 0.345377 0.491520
O O12 0.377976 0.483172 0.562849
O O13 0.360968 0.275027 0.590151
O O14 0.088475 0.178850 0.894346
O O15 0.065679 0.273192 0.796313
O O16 0.500000 0.399509 0.464784
O O17 0.500000 0.756655 0.123822
#
# Coordination Sequence:
#
# PCOD9473395 Si02
#       8
#    16  16  16  16  16   4  16  16
#     4  10  23  41  64  91 130 187 238 278 333 415
#     4  11  24  37  60  91 130 172 214 275 339 396
#     4  11  26  42  61  92 134 179 226 276 331 416
#     4  10  22  38  68  97 130 174 219 284 344 406
#     4  12  26  42  67  99 135 177 224 277 346 404
#     4  12  28  44  68 106 138 182 218 300 340 420
#     4  11  21  42  71 105 134 171 226 282 355 409
#     4  10  20  37  61  93 126 168 220 277 335 397
#
# _framework density 21.417145000000001
#
# number of rings (size 3 to 8) (size 9 to 14) (size 15 to 20)
#    0.000    1.241    4.138    2.483    7.724    1.379 
#    0.000    1.379    0.000    0.000    0.000    4.828 
#    0.000    0.000    0.000    0.000    0.000    0.000 
#
# Total GULP energy -323000.684899 kJ/mol
# GULP energy per Si atom -5568.977326 kJ/mol
# Density = 2.136840 g / cm^3
# Si number density = 21.417145 Si / 1000 Ang^3
#
#
#
# Elastic Constant Matrix: (Units=GPa)
#
#
# Indices 1 2 3 4 5 6 
#
# 1 79.5880 11.6315 43.5606 0.0000 0.0000 0.0000
# 2 11.6315 77.4629 17.3841 0.0000 0.0000 0.0000
# 3 43.5606 17.3841 127.3941 0.0000 0.0000 0.0000
# 4 0.0000 0.0000 0.0000 19.1876 0.0000 0.0000
# 5 0.0000 0.0000 0.0000 0.0000 -10.0119 0.0000
# 6 0.0000 0.0000 0.0000 0.0000 0.0000 30.9477
#
#
#
# Elastic Compliance Matrix: (Units=1/GPa)
#
#
# Indices 1 2 3 4 5 6 
#
# 1 0.015561 -0.001179 -0.005160 0.000000 0.000000 0.000000
# 2 -0.001179 0.013407 -0.001426 0.000000 0.000000 0.000000
# 3 -0.005160 -0.001426 0.009809 0.000000 0.000000 0.000000
# 4 0.000000 0.000000 0.000000 0.052117 0.000000 0.000000
# 5 0.000000 0.000000 0.000000 0.000000 -0.099881 0.000000
# 6 0.000000 0.000000 0.000000 0.000000 0.000000 0.032313
#
#
# Mechanical properties :
#
#
# Convention : Reuss Voigt Hill
#
# Bulk Modulus (GPa) = 43.01782 47.73305 45.37544
# Shear Modulus (GPa) = 107.28757 22.14927 64.71842
#
# Velocity S-wave (km/s) = 7.08541 3.21936 5.50306
# Velocity P-wave (km/s) = 9.33095 6.01288 7.84925
#
# Compressibility (1/GPa) = 0.02324618
#
# Stress axis : x y z
#
# Youngs Moduli (GPa) = 64.26234 74.59066 101.94990
#
# Poissons Ratio (x) = 0.08791 0.52607
# Poissons Ratio (y) = 0.07574 0.14543
# Poissons Ratio (z) = 0.33160 0.10640
#
# Static dielectric constant tensor:
#      x y z
#    x 1.795910 0.000000 0.000000 
#    y 0.000000 1.832260 0.000000 
#    z 0.000000 0.000000 1.823000 
# 
# From -- ./inp_files/70020.got.cif
#   From: 2010.05.17/outbox.cif.g08.bks.cpg/sg63_36_cif.got.tgz:70020.got - 2010.06.03 15:47:04.
