data_PCOD9473230
_publ_section_title
;
Structure prediction by ZEFSAII (Michael W. Deem and Ramdas Pophale) SiO2 
 PCOD9473230
Probable space group: C M C M
;
_chemical_formula_sum "Si O2"
_cell_formula_units_Z 116
_cell_length_a 26.985866
_cell_length_b 12.186454
_cell_length_c 15.863540
_cell_angle_alpha 90.000000
_cell_angle_beta 90.000000
_cell_angle_gamma 90.000000
_cell_volume 5216.915724
_symmetry_space_group_name_H-M "C M C M"
_symmetry_group_IT_number 63
_symmetry_cell_setting 'orthorhombic'
loop_
_space_group_symop_operation_xyz
x,y,z
-x,-y,1/2+z
x,-y,-z
-x,y,1/2-z
-x,-y,-z
x,y,1/2-z
-x,y,z
x,-y,1/2+z
1/2+x,1/2+y,z
1/2-x,1/2-y,1/2+z
1/2+x,1/2-y,-z
1/2-x,1/2+y,1/2-z
1/2-x,1/2-y,-z
1/2+x,1/2+y,1/2-z
1/2-x,1/2+y,z
1/2+x,1/2-y,1/2+z
loop_
_atom_site_type_symbol
_atom_site_label
_atom_site_fract_x
_atom_site_fract_y
_atom_site_fract_z
Si Si1 0.176566 0.172351 0.146983
Si Si2 0.910191 0.324803 0.119102
Si Si3 0.645672 0.032287 0.098592
Si Si4 0.338572 0.433815 0.151276
Si Si5 0.500000 0.794577 0.250000
Si Si6 0.554208 0.430268 0.414157
Si Si7 0.554208 0.831540 0.564881
Si Si8 0.215971 0.280154 0.851704
O O1 0.171161 0.175195 0.250000
O O2 0.126607 0.222117 0.108918
O O3 0.226857 0.234408 0.122951
O O4 0.183397 0.047075 0.117900
O O5 0.872094 0.421919 0.145286
O O6 0.955704 0.298241 0.178496
O O7 0.934760 0.361422 0.031564
O O8 0.599484 0.115101 0.114034
O O9 0.693356 0.102384 0.123357
O O10 0.650825 0.000000 0.000000
O O11 0.326483 0.430469 0.250000
O O12 0.397476 0.447274 0.141317
O O13 0.317285 0.320736 0.114501
O O14 0.558938 0.500000 0.500000
O O15 0.500000 0.459272 0.376810
O O16 0.553977 0.300026 0.431407
O O17 0.500000 0.871473 0.592507
O O18 0.214918 0.279351 0.750000
#
# Coordination Sequence:
#
# PCOD9473230 Si02
#       8
#    16  16  16  16   4  16  16  16
#     4  10  22  40  62  92 123 161 206 254 316 371
#     4  11  23  39  62  94 125 158 205 255 309 371
#     4  10  23  40  63  89 129 166 210 253 314 372
#     4  10  21  40  63  89 122 157 206 255 312 364
#     4  12  24  40  62 100 132 156 204 264 312 362
#     4  10  20  36  61  88 120 162 207 246 303 372
#     4  10  20  38  60  84 123 168 203 244 309 378
#     4  10  22  41  65  89 121 166 207 260 310 365
#
# _framework density 22.23536
#
# number of rings (size 3 to 8) (size 9 to 14) (size 15 to 20)
#    0.000    1.793    2.759    0.828    3.862    1.103 
#    1.241    4.828    0.000    0.000    0.000    0.000 
#    0.000    0.000    0.000    0.000    0.000    0.000 
#
# Total GULP energy -323235.375324 kJ/mol
# GULP energy per Si atom -5573.023712 kJ/mol
# Density = 2.218475 g / cm^3
# Si number density = 22.235360 Si / 1000 Ang^3
#
#
#
# Elastic Constant Matrix: (Units=GPa)
#
#
# Indices 1 2 3 4 5 6 
#
# 1 138.0976 31.3288 8.6720 0.0000 0.0000 0.0000
# 2 31.3288 85.0049 -5.2351 0.0000 0.0000 0.0000
# 3 8.6720 -5.2351 4.5039 0.0000 0.0000 0.0000
# 4 0.0000 0.0000 0.0000 17.1288 0.0000 0.0000
# 5 0.0000 0.0000 0.0000 0.0000 2.2235 0.0000
# 6 0.0000 0.0000 0.0000 0.0000 0.0000 20.1949
#
#
#
# Elastic Compliance Matrix: (Units=1/GPa)
#
#
# Indices 1 2 3 4 5 6 
#
# 1 0.010033 -0.005264 -0.025436 0.000000 0.000000 0.000000
# 2 -0.005264 0.015433 0.028075 0.000000 0.000000 0.000000
# 3 -0.025436 0.028075 0.303639 0.000000 0.000000 0.000000
# 4 0.000000 0.000000 0.000000 0.058381 0.000000 0.000000
# 5 0.000000 0.000000 0.000000 0.000000 0.449735 0.000000
# 6 0.000000 0.000000 0.000000 0.000000 0.000000 0.049517
#
#
# Mechanical properties :
#
#
# Convention : Reuss Voigt Hill
#
# Bulk Modulus (GPa) = 3.08782 33.01531 18.05157
# Shear Modulus (GPa) = 5.00029 20.76550 12.88289
#
# Velocity S-wave (km/s) = 1.50123 3.05929 2.40966
# Velocity P-wave (km/s) = 2.09681 5.23061 3.98472
#
# Compressibility (1/GPa) = 0.32385309
#
# Stress axis : x y z
#
# Youngs Moduli (GPa) = 99.67315 64.79563 3.29338
#
# Poissons Ratio (x) = 0.34109 0.08377
# Poissons Ratio (y) = 0.52469 -0.09246
# Poissons Ratio (z) = 2.53533 -1.81911
#
# Static dielectric constant tensor:
#      x y z
#    x 1.795420 0.000000 0.000000 
#    y 0.000000 1.886570 0.000000 
#    z 0.000000 0.000000 1.813180 
# 
# From -- ./inp_files/49090.got.cif
#   From: 2010.05.17/outbox.cif.g08.bks.cpg/sg63_25_cif.got.tgz:49090.got - 2010.06.03 15:47:04.
