data_PCOD9473972
_publ_section_title
;
Structure prediction by ZEFSAII (Michael W. Deem and Ramdas Pophale) SiO2 
 PCOD9473972
Probable space group: C M C M
;
_chemical_formula_sum "Si O2"
_cell_formula_units_Z 96
_cell_length_a 23.881672
_cell_length_b 25.725283
_cell_length_c 8.771250
_cell_angle_alpha 90.000000
_cell_angle_beta 90.000000
_cell_angle_gamma 90.000000
_cell_volume 5388.729453
_symmetry_space_group_name_H-M "C M C M"
_symmetry_group_IT_number 63
_symmetry_cell_setting 'orthorhombic'
loop_
_space_group_symop_operation_xyz
x,y,z
-x,-y,1/2+z
x,-y,-z
-x,y,1/2-z
-x,-y,-z
x,y,1/2-z
-x,y,z
x,-y,1/2+z
1/2+x,1/2+y,z
1/2-x,1/2-y,1/2+z
1/2+x,1/2-y,-z
1/2-x,1/2+y,1/2-z
1/2-x,1/2-y,-z
1/2+x,1/2+y,1/2-z
1/2-x,1/2+y,z
1/2+x,1/2-y,1/2+z
loop_
_atom_site_type_symbol
_atom_site_label
_atom_site_fract_x
_atom_site_fract_y
_atom_site_fract_z
Si Si1 0.365231 0.651395 0.568242
Si Si2 0.434110 0.243539 0.430936
Si Si3 0.863961 0.650544 0.930818
Si Si4 0.749626 0.691674 0.432080
Si Si5 0.065353 0.056826 0.432556
Si Si6 0.434961 0.942669 0.567516
O O1 0.357523 0.646947 0.750000
O O2 0.404987 0.701247 0.539564
O O3 0.306204 0.663217 0.489389
O O4 0.395243 0.600514 0.503599
O O5 0.427055 0.231828 0.250000
O O6 0.500000 0.245695 0.463413
O O7 0.403583 0.199026 0.525577
O O8 0.857116 0.647131 0.750000
O O9 0.804466 0.662036 0.008560
O O10 0.893685 0.599181 0.995031
O O11 0.750530 0.695105 0.250000
O O12 0.750000 0.750000 0.500000
O O13 0.071002 0.055908 0.250000
O O14 0.000000 0.068366 0.469399
O O15 0.077963 0.000000 0.500000
O O16 0.428584 0.943559 0.750000
O O17 0.500000 0.928468 0.533851
O O18 0.425419 0.000000 0.500000
#
# Coordination Sequence:
#
# PCOD9473972 Si02
#       6
#    16  16  16  16  16  16
#     4  11  22  38  61  88 119 157 199 245 299 356
#     4  10  21  36  56  84 119 156 193 240 297 354
#     4  12  24  38  59  87 119 158 201 245 295 353
#     4  12  24  41  62  86 117 158 202 246 297 354
#     4  10  21  38  61  89 122 160 202 247 297 354
#     4  10  21  39  63  90 122 159 199 245 298 355
#
# _framework density 17.814961
#
# number of rings (size 3 to 8) (size 9 to 14) (size 15 to 20)
#    0.000    1.167    1.667    5.500    0.000    5.667 
#    0.000    0.833    0.000    0.000    0.000    0.000 
#    0.000    0.000    0.000    0.000    0.000    0.000 
#
# Total GULP energy -268461.283166 kJ/mol
# GULP energy per Si atom -5592.943399 kJ/mol
# Density = 1.777441 g / cm^3
# Si number density = 17.814961 Si / 1000 Ang^3
#
#
#
# Elastic Constant Matrix: (Units=GPa)
#
#
# Indices 1 2 3 4 5 6 
#
# 1 152.4625 97.0646 94.3195 0.0000 0.0000 0.0000
# 2 97.0646 137.6040 87.0637 0.0000 0.0000 0.0000
# 3 94.3195 87.0637 133.8819 0.0000 0.0000 0.0000
# 4 0.0000 0.0000 0.0000 32.1587 0.0000 0.0000
# 5 0.0000 0.0000 0.0000 0.0000 31.8003 0.0000
# 6 0.0000 0.0000 0.0000 0.0000 0.0000 -15.4328
#
#
#
# Elastic Compliance Matrix: (Units=1/GPa)
#
#
# Indices 1 2 3 4 5 6 
#
# 1 0.014234 -0.006280 -0.005944 0.000000 0.000000 0.000000
# 2 -0.006280 0.015118 -0.005407 0.000000 0.000000 0.000000
# 3 -0.005944 -0.005407 0.015173 0.000000 0.000000 0.000000
# 4 0.000000 0.000000 0.000000 0.031096 0.000000 0.000000
# 5 0.000000 0.000000 0.000000 0.000000 0.031446 0.000000
# 6 0.000000 0.000000 0.000000 0.000000 0.000000 -0.064797
#
#
# Mechanical properties :
#
#
# Convention : Reuss Voigt Hill
#
# Bulk Modulus (GPa) = 107.95445 108.98268 108.46856
# Shear Modulus (GPa) = 62.01811 19.40529 40.71170
#
# Velocity S-wave (km/s) = 5.90660 3.30399 4.78562
# Velocity P-wave (km/s) = 10.35599 8.70992 9.56842
#
# Compressibility (1/GPa) = 0.00926317
#
# Stress axis : x y z
#
# Youngs Moduli (GPa) = 70.25248 66.14549 65.90453
#
# Poissons Ratio (x) = 0.41538 0.39176
# Poissons Ratio (y) = 0.44117 0.35637
# Poissons Ratio (z) = 0.41761 0.35767
#
# Static dielectric constant tensor:
#      x y z
#    x 1.587130 0.000000 0.000000 
#    y 0.000000 1.571620 0.000000 
#    z 0.000000 0.000000 1.591610 
# 
# From -- ./inp_files/10431.got.cif
#   From: 2010.05.17/outbox.cif.g08.bks.cpg/sg63_6_cif.got.tgz:10431.got - 2010.06.03 15:47:04.
