data_PCOD9473065
_publ_section_title
;
Structure prediction by ZEFSAII (Michael W. Deem and Ramdas Pophale) SiO2 
 PCOD9473065
Probable space group: C M C M
;
_chemical_formula_sum "Si O2"
_cell_formula_units_Z 80
_cell_length_a 23.301450
_cell_length_b 6.071210
_cell_length_c 23.337287
_cell_angle_alpha 90.000000
_cell_angle_beta 90.000000
_cell_angle_gamma 90.000000
_cell_volume 3301.479230
_symmetry_space_group_name_H-M "C M C M"
_symmetry_group_IT_number 63
_symmetry_cell_setting 'orthorhombic'
loop_
_space_group_symop_operation_xyz
x,y,z
-x,-y,1/2+z
x,-y,-z
-x,y,1/2-z
-x,-y,-z
x,y,1/2-z
-x,y,z
x,-y,1/2+z
1/2+x,1/2+y,z
1/2-x,1/2-y,1/2+z
1/2+x,1/2-y,-z
1/2-x,1/2+y,1/2-z
1/2-x,1/2-y,-z
1/2+x,1/2+y,1/2-z
1/2-x,1/2+y,z
1/2+x,1/2-y,1/2+z
loop_
_atom_site_type_symbol
_atom_site_label
_atom_site_fract_x
_atom_site_fract_y
_atom_site_fract_z
Si Si1 0.879065 0.529535 0.886353
Si Si2 0.438001 0.583472 0.339639
Si Si3 0.760360 0.639052 0.577303
Si Si4 0.064571 0.180562 0.541909
Si Si5 0.176408 0.153456 0.686002
O O1 0.930630 0.667256 0.860340
O O2 0.826777 0.676377 0.907895
O O3 0.899830 0.391941 0.941042
O O4 0.853493 0.376610 0.836451
O O5 0.500000 0.551166 0.311158
O O6 0.439866 0.439547 0.397163
O O7 0.377467 0.515392 0.311943
O O8 0.741424 0.882281 0.552728
O O9 0.722991 0.609967 0.636197
O O10 0.000000 0.230799 0.520539
O O11 0.091640 0.000000 0.500000
O O12 0.201149 0.170956 0.750000
#
# Coordination Sequence:
#
# PCOD9473065 Si02
#       5
#    16  16  16  16  16
#     4  10  20  36  57  87 121 158 201 257 320 370
#     4  10  20  37  59  85 120 157 197 253 317 378
#     4  10  20  37  60  87 118 159 206 258 305 361
#     4   9  19  36  61  92 122 157 205 258 316 385
#     4  10  22  38  56  83 117 159 209 259 307 367
#
# _framework density 24.231560999999999
#
# number of rings (size 3 to 8) (size 9 to 14) (size 15 to 20)
#    0.000    2.200    2.000    0.600    0.000    6.000 
#    0.000    3.000    0.000   10.800    0.000    0.000 
#    0.000    0.000    0.000    0.000    0.000    0.000 
#
# Total GULP energy -223066.521438 kJ/mol
# GULP energy per Si atom -5576.663036 kJ/mol
# Density = 2.417641 g / cm^3
# Si number density = 24.231561 Si / 1000 Ang^3
#
#
#
# Elastic Constant Matrix: (Units=GPa)
#
#
# Indices 1 2 3 4 5 6 
#
# 1 103.2469 25.5960 13.0408 0.0000 0.0000 0.0000
# 2 25.5960 103.3920 44.5488 0.0000 0.0000 0.0000
# 3 13.0408 44.5488 78.9270 0.0000 0.0000 0.0000
# 4 0.0000 0.0000 0.0000 8.1200 0.0000 0.0000
# 5 0.0000 0.0000 0.0000 0.0000 0.1404 0.0000
# 6 0.0000 0.0000 0.0000 0.0000 0.0000 81.8655
#
#
#
# Elastic Compliance Matrix: (Units=1/GPa)
#
#
# Indices 1 2 3 4 5 6 
#
# 1 0.010326 -0.002406 -0.000348 0.000000 0.000000 0.000000
# 2 -0.002406 0.013341 -0.007132 0.000000 0.000000 0.000000
# 3 -0.000348 -0.007132 0.016753 0.000000 0.000000 0.000000
# 4 0.000000 0.000000 0.000000 0.123153 0.000000 0.000000
# 5 0.000000 0.000000 0.000000 0.000000 7.120931 0.000000
# 6 0.000000 0.000000 0.000000 0.000000 0.000000 0.012215
#
#
# Mechanical properties :
#
#
# Convention : Reuss Voigt Hill
#
# Bulk Modulus (GPa) = 48.43399 50.21523 49.32461
# Shear Modulus (GPa) = 0.68275 31.51719 16.09997
#
# Velocity S-wave (km/s) = 0.53139 3.61039 2.58043
# Velocity P-wave (km/s) = 4.51751 6.17640 5.41091
#
# Compressibility (1/GPa) = 0.02064666
#
# Stress axis : x y z
#
# Youngs Moduli (GPa) = 96.84253 74.95791 59.69032
#
# Poissons Ratio (x) = 0.18038 0.02076
# Poissons Ratio (y) = 0.23305 0.42573
# Poissons Ratio (z) = 0.03369 0.53463
#
# Static dielectric constant tensor:
#      x y z
#    x 1.905290 0.000000 0.000000 
#    y 0.000000 2.045270 0.000000 
#    z 0.000000 0.000000 1.911530 
# 
# From -- ./inp_files/70899.got.cif
#   From: 2010.05.17/outbox.cif.g08.bks.cpg/sg63_36_cif.got.tgz:70899.got - 2010.06.03 15:47:04.
