data_PCOD9473167
_publ_section_title
;
Structure prediction by ZEFSAII (Michael W. Deem and Ramdas Pophale) SiO2 
 PCOD9473167
Probable space group: C M C M
;
_chemical_formula_sum "Si O2"
_cell_formula_units_Z 116
_cell_length_a 31.431535
_cell_length_b 23.230674
_cell_length_c 8.829980
_cell_angle_alpha 90.000000
_cell_angle_beta 90.000000
_cell_angle_gamma 90.000000
_cell_volume 6447.437206
_symmetry_space_group_name_H-M "C M C M"
_symmetry_group_IT_number 63
_symmetry_cell_setting 'orthorhombic'
loop_
_space_group_symop_operation_xyz
x,y,z
-x,-y,1/2+z
x,-y,-z
-x,y,1/2-z
-x,-y,-z
x,y,1/2-z
-x,y,z
x,-y,1/2+z
1/2+x,1/2+y,z
1/2-x,1/2-y,1/2+z
1/2+x,1/2-y,-z
1/2-x,1/2+y,1/2-z
1/2-x,1/2-y,-z
1/2+x,1/2+y,1/2-z
1/2-x,1/2+y,z
1/2+x,1/2-y,1/2+z
loop_
_atom_site_type_symbol
_atom_site_label
_atom_site_fract_x
_atom_site_fract_y
_atom_site_fract_z
Si Si1 0.049660 0.062636 0.568807
Si Si2 0.000000 0.442834 0.250000
Si Si3 0.808402 0.798917 0.431004
Si Si4 0.834935 0.440841 0.570227
Si Si5 0.418493 0.902359 0.418538
Si Si6 0.451133 0.778812 0.065291
Si Si7 0.718590 0.829174 0.932510
Si Si8 0.102870 0.166775 0.068116
O O1 0.054046 0.060919 0.750000
O O2 0.079379 0.111417 0.499132
O O3 0.000000 0.075534 0.532711
O O4 0.059296 0.000000 0.500000
O O5 0.037924 0.435765 0.119823
O O6 0.811200 0.804125 0.250000
O O7 0.764622 0.826446 0.490340
O O8 0.805144 0.730783 0.470085
O O9 0.849487 0.826379 0.507778
O O10 0.818428 0.500000 0.500000
O O11 0.832644 0.444582 0.750000
O O12 0.883807 0.432494 0.520675
O O13 0.808551 0.384598 0.521168
O O14 0.398536 0.893770 0.250000
O O15 0.431178 0.839648 0.482038
O O16 0.452394 0.781419 0.250000
O O17 0.500000 0.773926 0.014129
O O18 0.423490 0.723926 0.021171
O O19 0.723991 0.830172 0.750000
O O20 0.102567 0.163916 0.250000
#
# Coordination Sequence:
#
# PCOD9473167 Si02
#       8
#    16   4  16  16  16  16  16  16
#     4  10  21  38  57  76 105 144 189 234 277 325
#     4   8  16  32  60  76 110 148 184 236 272 310
#     4  10  20  36  59  86 115 142 176 222 281 341
#     4  11  23  38  58  83 110 144 186 230 271 321
#     4   9  16  33  57  76 109 144 185 225 272 313
#     4   9  15  28  50  78 110 144 184 227 269 319
#     4   9  20  39  60  83 113 143 179 228 281 336
#     4  11  21  31  52  84 115 147 182 222 273 332
#
# _framework density 17.991644000000001
#
# number of rings (size 3 to 8) (size 9 to 14) (size 15 to 20)
#    0.414    1.793    0.690    2.897    0.000    3.034 
#    0.000    2.069    0.000    3.310    0.000    0.000 
#    0.000    0.000    0.000    0.000    0.000    0.000 
#
# Total GULP energy -323041.623042 kJ/mol
# GULP energy per Si atom -5569.683156 kJ/mol
# Density = 1.795069 g / cm^3
# Si number density = 17.991644 Si / 1000 Ang^3
#
#
#
# Elastic Constant Matrix: (Units=GPa)
#
#
# Indices 1 2 3 4 5 6 
#
# 1 101.7006 74.9723 39.5298 0.0000 0.0000 0.0000
# 2 74.9723 90.9892 34.8426 0.0000 0.0000 0.0000
# 3 39.5298 34.8426 41.3545 0.0000 0.0000 0.0000
# 4 0.0000 0.0000 0.0000 24.6652 0.0000 0.0000
# 5 0.0000 0.0000 0.0000 0.0000 27.7440 0.0000
# 6 0.0000 0.0000 0.0000 0.0000 0.0000 13.6984
#
#
#
# Elastic Compliance Matrix: (Units=1/GPa)
#
#
# Indices 1 2 3 4 5 6 
#
# 1 0.027975 -0.018913 -0.010806 0.000000 0.000000 0.000000
# 2 -0.018913 0.029011 -0.006365 0.000000 0.000000 0.000000
# 3 -0.010806 -0.006365 0.039873 0.000000 0.000000 0.000000
# 4 0.000000 0.000000 0.000000 0.040543 0.000000 0.000000
# 5 0.000000 0.000000 0.000000 0.000000 0.036044 0.000000
# 6 0.000000 0.000000 0.000000 0.000000 0.000000 0.073001
#
#
# Mechanical properties :
#
#
# Convention : Reuss Voigt Hill
#
# Bulk Modulus (GPa) = 40.49873 59.19264 49.84568
# Shear Modulus (GPa) = 15.29779 18.86816 17.08297
#
# Velocity S-wave (km/s) = 2.91911 3.24190 3.08473
# Velocity P-wave (km/s) = 5.82410 6.85454 6.36023
#
# Compressibility (1/GPa) = 0.02469214
#
# Stress axis : x y z
#
# Youngs Moduli (GPa) = 35.74597 34.46979 25.07968
#
# Poissons Ratio (x) = 0.65191 0.27102
# Poissons Ratio (y) = 0.67605 0.15962
# Poissons Ratio (z) = 0.38628 0.21938
#
# Static dielectric constant tensor:
#      x y z
#    x 1.588080 0.000000 0.000000 
#    y 0.000000 1.634200 0.000000 
#    z 0.000000 0.000000 1.608140 
# 
# From -- ./inp_files/14739.got.cif
#   From: 2010.05.17/outbox.cif.g08.bks.cpg/sg63_8_cif.got.tgz:14739.got - 2010.06.03 15:47:04.
