data_PCOD9473295
_publ_section_title
;
Structure prediction by ZEFSAII (Michael W. Deem and Ramdas Pophale) SiO2 
 PCOD9473295
Probable space group: C M C M
;
_chemical_formula_sum "Si O2"
_cell_formula_units_Z 112
_cell_length_a 13.255216
_cell_length_b 13.266947
_cell_length_c 28.698565
_cell_angle_alpha 90.000000
_cell_angle_beta 90.000000
_cell_angle_gamma 90.000000
_cell_volume 5046.821968
_symmetry_space_group_name_H-M "C M C M"
_symmetry_group_IT_number 63
_symmetry_cell_setting 'orthorhombic'
loop_
_space_group_symop_operation_xyz
x,y,z
-x,-y,1/2+z
x,-y,-z
-x,y,1/2-z
-x,-y,-z
x,y,1/2-z
-x,y,z
x,-y,1/2+z
1/2+x,1/2+y,z
1/2-x,1/2-y,1/2+z
1/2+x,1/2-y,-z
1/2-x,1/2+y,1/2-z
1/2-x,1/2-y,-z
1/2+x,1/2+y,1/2-z
1/2-x,1/2+y,z
1/2+x,1/2-y,1/2+z
loop_
_atom_site_type_symbol
_atom_site_label
_atom_site_fract_x
_atom_site_fract_y
_atom_site_fract_z
Si Si1 0.824889 0.571112 0.543360
Si Si2 0.606175 0.551162 0.549967
Si Si3 0.323760 0.843308 0.360742
Si Si4 0.886371 0.287920 0.972082
Si Si5 0.183433 0.455071 0.695624
Si Si6 0.388853 0.347331 0.696334
Si Si7 0.383240 0.221172 0.370404
O O1 0.862191 0.500000 0.500000
O O2 0.720193 0.524958 0.563894
O O3 0.870999 0.614758 0.590922
O O4 0.814992 0.672403 0.512349
O O5 0.599704 0.500000 0.500000
O O6 0.500000 0.526522 0.575261
O O7 0.609012 0.670040 0.539694
O O8 0.375392 0.744356 0.339398
O O9 0.205701 0.805004 0.365899
O O10 0.334479 0.935624 0.325455
O O11 0.866703 0.332465 0.920722
O O12 0.000000 0.316253 0.987386
O O13 0.158095 0.452278 0.750000
O O14 0.301606 0.428281 0.689390
O O15 0.129001 0.364176 0.668527
O O16 0.377308 0.309379 0.750000
O O17 0.500000 0.391285 0.691789
O O18 0.500000 0.258400 0.369778
#
# Coordination Sequence:
#
# PCOD9473295 Si02
#       7
#    16  16  16  16  16  16  16
#     4  11  22  35  56  81 116 156 193 232 282 335
#     4   9  18  33  53  79 109 147 193 233 274 331
#     4  11  22  37  62  91 120 152 198 244 290 346
#     4  10  20  37  57  79 113 155 193 236 282 329
#     4  10  22  41  63  89 119 152 190 239 298 358
#     4   9  20  41  65  88 117 151 191 243 299 354
#     4  10  22  40  62  89 119 153 197 244 291 346
#
# _framework density 22.192183
#
# number of rings (size 3 to 8) (size 9 to 14) (size 15 to 20)
#    0.000    2.000    1.429    1.714    0.000    2.857 
#    2.571    0.000    0.000    0.000    0.000    0.000 
#    0.000    0.000    0.000    0.000    0.000    0.000 
#
# Total GULP energy -311796.099859 kJ/mol
# GULP energy per Si atom -5567.787497 kJ/mol
# Density = 2.214167 g / cm^3
# Si number density = 22.192183 Si / 1000 Ang^3
#
#
#
# Elastic Constant Matrix: (Units=GPa)
#
#
# Indices 1 2 3 4 5 6 
#
# 1 67.8669 -9.3673 -1.6338 0.0000 0.0000 0.0000
# 2 -9.3673 39.2113 11.7254 0.0000 0.0000 0.0000
# 3 -1.6338 11.7254 99.7526 0.0000 0.0000 0.0000
# 4 0.0000 0.0000 0.0000 30.2734 0.0000 0.0000
# 5 0.0000 0.0000 0.0000 0.0000 18.0202 0.0000
# 6 0.0000 0.0000 0.0000 0.0000 0.0000 9.0472
#
#
#
# Elastic Compliance Matrix: (Units=1/GPa)
#
#
# Indices 1 2 3 4 5 6 
#
# 1 0.015240 0.003696 -0.000185 0.000000 0.000000 0.000000
# 2 0.003696 0.027328 -0.003152 0.000000 0.000000 0.000000
# 3 -0.000185 -0.003152 0.010392 0.000000 0.000000 0.000000
# 4 0.000000 0.000000 0.000000 0.033032 0.000000 0.000000
# 5 0.000000 0.000000 0.000000 0.000000 0.055493 0.000000
# 6 0.000000 0.000000 0.000000 0.000000 0.000000 0.110531
#
#
# Mechanical properties :
#
#
# Convention : Reuss Voigt Hill
#
# Bulk Modulus (GPa) = 18.62893 23.14216 20.88555
# Shear Modulus (GPa) = 18.57410 25.20860 21.89135
#
# Velocity S-wave (km/s) = 2.89617 3.37400 3.14418
# Velocity P-wave (km/s) = 4.42678 5.06253 4.75529
#
# Compressibility (1/GPa) = 0.05367994
#
# Stress axis : x y z
#
# Youngs Moduli (GPa) = 65.61497 36.59215 96.22561
#
# Poissons Ratio (x) = -0.13525 0.01779
# Poissons Ratio (y) = -0.24252 0.30328
# Poissons Ratio (z) = 0.01213 0.11533
#
# Static dielectric constant tensor:
#      x y z
#    x 1.959510 0.000000 0.000000 
#    y 0.000000 1.852990 0.000000 
#    z 0.000000 0.000000 2.014270 
# 
# From -- ./inp_files/62988.got.cif
#   From: 2010.05.17/outbox.cif.g08.bks.cpg/sg63_32_cif.got.tgz:62988.got - 2010.06.03 15:47:04.
