data_PCOD9473747
_publ_section_title
;
Structure prediction by ZEFSAII (Michael W. Deem and Ramdas Pophale) SiO2 
 PCOD9473747
Probable space group: C M C M
;
_chemical_formula_sum "Si O2"
_cell_formula_units_Z 96
_cell_length_a 7.384547
_cell_length_b 31.551173
_cell_length_c 17.094358
_cell_angle_alpha 90.000000
_cell_angle_beta 90.000000
_cell_angle_gamma 90.000000
_cell_volume 3982.833615
_symmetry_space_group_name_H-M "C M C M"
_symmetry_group_IT_number 63
_symmetry_cell_setting 'orthorhombic'
loop_
_space_group_symop_operation_xyz
x,y,z
-x,-y,1/2+z
x,-y,-z
-x,y,1/2-z
-x,-y,-z
x,y,1/2-z
-x,y,z
x,-y,1/2+z
1/2+x,1/2+y,z
1/2-x,1/2-y,1/2+z
1/2+x,1/2-y,-z
1/2-x,1/2+y,1/2-z
1/2-x,1/2-y,-z
1/2+x,1/2+y,1/2-z
1/2-x,1/2+y,z
1/2+x,1/2-y,1/2+z
loop_
_atom_site_type_symbol
_atom_site_label
_atom_site_fract_x
_atom_site_fract_y
_atom_site_fract_z
Si Si1 0.721782 0.386885 0.160175
Si Si2 0.721097 0.205004 0.426263
Si Si3 0.720780 0.120915 0.160222
Si Si4 0.706928 0.705445 0.609598
Si Si5 0.798679 0.961706 0.055047
Si Si6 0.288324 0.030998 0.341790
O O1 0.772913 0.398595 0.250000
O O2 0.500000 0.388019 0.156662
O O3 0.782508 0.338428 0.143276
O O4 0.783798 0.418185 0.089230
O O5 0.500000 0.206573 0.428990
O O6 0.778457 0.161929 0.385699
O O7 0.783369 0.247109 0.379709
O O8 0.788388 0.203311 0.515128
O O9 0.780166 0.124214 0.250000
O O10 0.500000 0.119991 0.161058
O O11 0.774300 0.075838 0.122899
O O12 0.500000 0.706669 0.638255
O O13 0.000000 0.953154 0.024138
O O14 0.811270 0.989227 0.133847
O O15 0.718611 0.000000 0.000000
O O16 0.273146 0.037348 0.250000
O O17 0.500000 0.024975 0.359350
#
# Coordination Sequence:
#
# PCOD9473747 Si02
#       6
#    16  16  16  16  16  16
#     4   9  18  33  51  71  98 131 166 206 248 288
#     4   9  17  30  49  73  99 126 158 196 240 289
#     4   8  15  28  47  71  97 124 155 195 239 283
#     4   9  18  31  49  72  96 126 161 198 241 288
#     4  10  21  34  50  74 100 130 168 207 248 294
#     4   9  18  33  51  71  97 128 161 199 245 293
#
# _framework density 24.103444
#
# number of rings (size 3 to 8) (size 9 to 14) (size 15 to 20)
#    0.000    3.000    0.000    1.500    2.333    2.000 
#    0.000    4.167    0.000    3.000    0.000    4.667 
#    0.000    0.000    0.000    0.000    0.000    0.000 
#
# Total GULP energy -267500.194587 kJ/mol
# GULP energy per Si atom -5572.920721 kJ/mol
# Density = 2.404858 g / cm^3
# Si number density = 24.103444 Si / 1000 Ang^3
#
#
#
# Elastic Constant Matrix: (Units=GPa)
#
#
# Indices 1 2 3 4 5 6 
#
# 1 77.5603 11.5832 8.2373 0.0000 0.0000 0.0000
# 2 11.5832 118.3599 4.9492 0.0000 0.0000 0.0000
# 3 8.2373 4.9492 36.8235 0.0000 0.0000 0.0000
# 4 0.0000 0.0000 0.0000 47.5497 0.0000 0.0000
# 5 0.0000 0.0000 0.0000 0.0000 12.7193 0.0000
# 6 0.0000 0.0000 0.0000 0.0000 0.0000 -3.7061
#
#
#
# Elastic Compliance Matrix: (Units=1/GPa)
#
#
# Indices 1 2 3 4 5 6 
#
# 1 0.013372 -0.001190 -0.002831 0.000000 0.000000 0.000000
# 2 -0.001190 0.008603 -0.000890 0.000000 0.000000 0.000000
# 3 -0.002831 -0.000890 0.027910 0.000000 0.000000 0.000000
# 4 0.000000 0.000000 0.000000 0.021031 0.000000 0.000000
# 5 0.000000 0.000000 0.000000 0.000000 0.078621 0.000000
# 6 0.000000 0.000000 0.000000 0.000000 0.000000 -0.269827
#
#
# Mechanical properties :
#
#
# Convention : Reuss Voigt Hill
#
# Bulk Modulus (GPa) = 24.96204 31.36480 28.16342
# Shear Modulus (GPa) = -51.48477 25.17752 -13.15362
#
# Velocity S-wave (km/s) = -4.62669 3.23547 -2.33859
# Velocity P-wave (km/s) = 4.26181 5.19601 2.10185
#
# Compressibility (1/GPa) = 0.04006083
#
# Stress axis : x y z
#
# Youngs Moduli (GPa) = 74.78519 116.24526 35.83007
#
# Poissons Ratio (x) = 0.13836 0.10144
# Poissons Ratio (y) = 0.08901 0.03189
# Poissons Ratio (z) = 0.21173 0.10345
#
# Static dielectric constant tensor:
#      x y z
#    x 1.991330 0.000000 0.000000 
#    y 0.000000 1.962110 0.000000 
#    z 0.000000 0.000000 1.962850 
# 
# From -- ./inp_files/42712.got.cif
#   From: 2010.05.17/outbox.cif.g08.bks.cpg/sg63_22_cif.got.tgz:42712.got - 2010.06.03 15:47:04.
