data_PCOD9473363
_publ_section_title
;
Structure prediction by ZEFSAII (Michael W. Deem and Ramdas Pophale) SiO2 
 PCOD9473363
Probable space group: C M C M
;
_chemical_formula_sum "Si O2"
_cell_formula_units_Z 64
_cell_length_a 10.351332
_cell_length_b 17.579883
_cell_length_c 15.714006
_cell_angle_alpha 90.000000
_cell_angle_beta 90.000000
_cell_angle_gamma 90.000000
_cell_volume 2859.559470
_symmetry_space_group_name_H-M "C M C M"
_symmetry_group_IT_number 63
_symmetry_cell_setting 'orthorhombic'
loop_
_space_group_symop_operation_xyz
x,y,z
-x,-y,1/2+z
x,-y,-z
-x,y,1/2-z
-x,-y,-z
x,y,1/2-z
-x,y,z
x,-y,1/2+z
1/2+x,1/2+y,z
1/2-x,1/2-y,1/2+z
1/2+x,1/2-y,-z
1/2-x,1/2+y,1/2-z
1/2-x,1/2-y,-z
1/2+x,1/2+y,1/2-z
1/2-x,1/2+y,z
1/2+x,1/2-y,1/2+z
loop_
_atom_site_type_symbol
_atom_site_label
_atom_site_fract_x
_atom_site_fract_y
_atom_site_fract_z
Si Si1 0.281548 0.678320 0.647469
Si Si2 0.500000 0.396926 0.650792
Si Si3 0.000000 0.702665 0.353803
Si Si4 0.221712 0.011336 0.899540
Si Si5 0.500000 0.226259 0.854621
Si Si6 0.000000 0.471534 0.902310
O O1 0.281400 0.679366 0.750000
O O2 0.374856 0.747276 0.621495
O O3 0.328915 0.595494 0.619741
O O4 0.134128 0.688784 0.617144
O O5 0.500000 0.382178 0.750000
O O6 0.374729 0.446665 0.631380
O O7 0.500000 0.312987 0.611940
O O8 0.000000 0.693765 0.250000
O O9 0.000000 0.619696 0.394941
O O10 0.366131 0.001351 0.862651
O O11 0.229977 0.000000 0.000000
O O12 0.500000 0.223663 0.750000
O O13 0.000000 0.500000 0.000000
#
# Coordination Sequence:
#
# PCOD9473363 Si02
#       6
#    16   8   8  16   8   8
#     4  10  20  37  60  87 117 154 200 252 302 353
#     4  11  22  39  62  88 117 154 200 252 304 359
#     4  10  21  38  63  90 118 154 202 252 298 350
#     4  11  23  40  59  88 125 162 202 244 298 363
#     4   9  19  35  57  84 113 147 196 251 303 351
#     4  10  23  42  60  88 128 165 204 245 300 366
#
# _framework density 22.381070000000001
#
# number of rings (size 3 to 8) (size 9 to 14) (size 15 to 20)
#    0.000    1.750    0.000    4.125    0.000    5.000 
#    0.000   16.250    0.000    0.000    0.000    0.000 
#    0.000    0.000    0.000    0.000    0.000    0.000 
#
# Total GULP energy -178942.061391 kJ/mol
# GULP energy per Si atom -5591.939418 kJ/mol
# Density = 2.233013 g / cm^3
# Si number density = 22.381070 Si / 1000 Ang^3
#
#
#
# Elastic Constant Matrix: (Units=GPa)
#
#
# Indices 1 2 3 4 5 6 
#
# 1 93.5592 5.5131 3.4177 0.0000 0.0000 0.0000
# 2 5.5131 127.5155 -2.8336 0.0000 0.0000 0.0000
# 3 3.4177 -2.8336 18.5478 0.0000 0.0000 0.0000
# 4 0.0000 0.0000 0.0000 57.4984 0.0000 0.0000
# 5 0.0000 0.0000 0.0000 0.0000 -261.0928 0.0000
# 6 0.0000 0.0000 0.0000 0.0000 0.0000 56.6933
#
#
#
# Elastic Compliance Matrix: (Units=1/GPa)
#
#
# Indices 1 2 3 4 5 6 
#
# 1 0.010794 -0.000513 -0.002067 0.000000 0.000000 0.000000
# 2 -0.000513 0.007893 0.001300 0.000000 0.000000 0.000000
# 3 -0.002067 0.001300 0.054494 0.000000 0.000000 0.000000
# 4 0.000000 0.000000 0.000000 0.017392 0.000000 0.000000
# 5 0.000000 0.000000 0.000000 0.000000 -0.003830 0.000000
# 6 0.000000 0.000000 0.000000 0.000000 0.000000 0.017639
#
#
# Mechanical properties :
#
#
# Convention : Reuss Voigt Hill
#
# Bulk Modulus (GPa) = 14.15979 27.97965 21.06972
# Shear Modulus (GPa) = 38.31944 -13.81188 12.25378
#
# Velocity S-wave (km/s) = 4.14229 -2.48689 2.34242
# Velocity P-wave (km/s) = 5.40541 2.06941 4.09273
#
# Compressibility (1/GPa) = 0.07062250
#
# Stress axis : x y z
#
# Youngs Moduli (GPa) = 92.64281 126.69059 18.35057
#
# Poissons Ratio (x) = 0.06494 0.03794
# Poissons Ratio (y) = 0.04749 -0.02386
# Poissons Ratio (z) = 0.19152 -0.16474
#
# Static dielectric constant tensor:
#      x y z
#    x 1.852730 0.000000 0.000000 
#    y 0.000000 1.823340 0.000000 
#    z 0.000000 0.000000 1.800990 
# 
# From -- ./inp_files/41573.got.cif
#   From: 2010.05.17/outbox.cif.g08.bks.cpg/sg63_21_cif.got.tgz:41573.got - 2010.06.03 15:47:04.
