data_PCOD9473366
_publ_section_title
;
Structure prediction by ZEFSAII (Michael W. Deem and Ramdas Pophale) SiO2 
 PCOD9473366
Probable space group: C M C M
;
_chemical_formula_sum "Si O2"
_cell_formula_units_Z 80
_cell_length_a 28.634433
_cell_length_b 14.121992
_cell_length_c 9.957858
_cell_angle_alpha 90.000000
_cell_angle_beta 90.000000
_cell_angle_gamma 90.000000
_cell_volume 4026.711156
_symmetry_space_group_name_H-M "C M C M"
_symmetry_group_IT_number 63
_symmetry_cell_setting 'orthorhombic'
loop_
_space_group_symop_operation_xyz
x,y,z
-x,-y,1/2+z
x,-y,-z
-x,y,1/2-z
-x,-y,-z
x,y,1/2-z
-x,y,z
x,-y,1/2+z
1/2+x,1/2+y,z
1/2-x,1/2-y,1/2+z
1/2+x,1/2-y,-z
1/2-x,1/2+y,1/2-z
1/2-x,1/2-y,-z
1/2+x,1/2+y,1/2-z
1/2-x,1/2+y,z
1/2+x,1/2-y,1/2+z
loop_
_atom_site_type_symbol
_atom_site_label
_atom_site_fract_x
_atom_site_fract_y
_atom_site_fract_z
Si Si1 0.208642 0.607823 0.529865
Si Si2 0.639816 0.592891 0.411447
Si Si3 0.800598 0.790859 0.109010
Si Si4 0.052599 0.782792 0.587806
Si Si5 0.101322 0.588093 0.596043
O O1 0.222674 0.500000 0.500000
O O2 0.203133 0.677799 0.403086
O O3 0.249975 0.660257 0.607797
O O4 0.157350 0.603146 0.594385
O O5 0.648696 0.500000 0.500000
O O6 0.646158 0.582147 0.250000
O O7 0.673749 0.671448 0.476286
O O8 0.587775 0.631623 0.440712
O O9 0.824652 0.816531 0.250000
O O10 0.050614 0.777970 0.750000
O O11 0.076172 0.683606 0.546087
O O12 0.000000 0.793787 0.536272
O O13 0.090973 0.500000 0.500000
O O14 0.086986 0.569713 0.750000
#
# Coordination Sequence:
#
# PCOD9473366 Si02
#       5
#    16  16  16  16  16
#     4  10  22  38  58  88 124 163 198 243 290 348
#     4  11  23  41  63  88 120 157 200 250 305 364
#     4  11  23  38  61  91 124 162 205 247 294 354
#     4   9  19  38  62  86 116 156 198 245 305 365
#     4  10  20  37  60  87 120 158 197 241 291 351
#
# _framework density 19.867331
#
# number of rings (size 3 to 8) (size 9 to 14) (size 15 to 20)
#    0.000    1.800    2.000    1.800    0.000    8.000 
#    0.000    0.000    0.000    4.200    0.000    0.000 
#    0.000    0.000    0.000    0.000    0.000    0.000 
#
# Total GULP energy -223026.409620 kJ/mol
# GULP energy per Si atom -5575.660240 kJ/mol
# Density = 1.982211 g / cm^3
# Si number density = 19.867331 Si / 1000 Ang^3
#
#
#
# Elastic Constant Matrix: (Units=GPa)
#
#
# Indices 1 2 3 4 5 6 
#
# 1 62.8641 9.0725 15.3544 0.0000 0.0000 0.0000
# 2 9.0725 118.6917 41.8356 0.0000 0.0000 0.0000
# 3 15.3544 41.8356 108.3132 0.0000 0.0000 0.0000
# 4 0.0000 0.0000 0.0000 8.9821 0.0000 0.0000
# 5 0.0000 0.0000 0.0000 0.0000 25.0658 0.0000
# 6 0.0000 0.0000 0.0000 0.0000 0.0000 16.7431
#
#
#
# Elastic Compliance Matrix: (Units=1/GPa)
#
#
# Indices 1 2 3 4 5 6 
#
# 1 0.016504 -0.000506 -0.002144 0.000000 0.000000 0.000000
# 2 -0.000506 0.009768 -0.003701 0.000000 0.000000 0.000000
# 3 -0.002144 -0.003701 0.010966 0.000000 0.000000 0.000000
# 4 0.000000 0.000000 0.000000 0.111333 0.000000 0.000000
# 5 0.000000 0.000000 0.000000 0.000000 0.039895 0.000000
# 6 0.000000 0.000000 0.000000 0.000000 0.000000 0.059726
#
#
# Mechanical properties :
#
#
# Convention : Reuss Voigt Hill
#
# Bulk Modulus (GPa) = 40.75656 46.93266 43.84461
# Shear Modulus (GPa) = 18.58226 25.06531 21.82379
#
# Velocity S-wave (km/s) = 3.06161 3.55580 3.31792
# Velocity P-wave (km/s) = 5.74951 6.36652 6.06587
#
# Compressibility (1/GPa) = 0.02453593
#
# Stress axis : x y z
#
# Youngs Moduli (GPa) = 60.59116 102.37019 91.19024
#
# Poissons Ratio (x) = 0.05177 0.19554
# Poissons Ratio (y) = 0.03064 0.33753
# Poissons Ratio (z) = 0.12992 0.37891
#
# Static dielectric constant tensor:
#      x y z
#    x 1.712540 0.000000 0.000000 
#    y 0.000000 1.715720 0.000000 
#    z 0.000000 0.000000 1.494310 
# 
# From -- ./inp_files/25640.got.cif
#   From: 2010.05.17/outbox.cif.g08.bks.cpg/sg63_13_cif.got.tgz:25640.got - 2010.06.03 15:47:04.
