data_PCOD9473033
_publ_section_title
;
Structure prediction by ZEFSAII (Michael W. Deem and Ramdas Pophale) SiO2 
 PCOD9473033
Probable space group: C M C M
;
_chemical_formula_sum "Si O2"
_cell_formula_units_Z 96
_cell_length_a 8.664271
_cell_length_b 21.097833
_cell_length_c 29.180599
_cell_angle_alpha 90.000000
_cell_angle_beta 90.000000
_cell_angle_gamma 90.000000
_cell_volume 5334.135953
_symmetry_space_group_name_H-M "C M C M"
_symmetry_group_IT_number 63
_symmetry_cell_setting 'orthorhombic'
loop_
_space_group_symop_operation_xyz
x,y,z
-x,-y,1/2+z
x,-y,-z
-x,y,1/2-z
-x,-y,-z
x,y,1/2-z
-x,y,z
x,-y,1/2+z
1/2+x,1/2+y,z
1/2-x,1/2-y,1/2+z
1/2+x,1/2-y,-z
1/2-x,1/2+y,1/2-z
1/2-x,1/2-y,-z
1/2+x,1/2+y,1/2-z
1/2-x,1/2+y,z
1/2+x,1/2-y,1/2+z
loop_
_atom_site_type_symbol
_atom_site_label
_atom_site_fract_x
_atom_site_fract_y
_atom_site_fract_z
Si Si1 0.186376 0.196448 0.698855
Si Si2 0.686220 0.945418 0.301226
Si Si3 0.313554 0.617780 0.949718
Si Si4 0.684604 0.627291 0.443958
Si Si5 0.315041 0.996977 0.895835
Si Si6 0.813808 0.247295 0.602964
O O1 0.234712 0.217282 0.750000
O O2 0.247481 0.125119 0.691887
O O3 0.235489 0.239023 0.655954
O O4 0.000000 0.193947 0.698081
O O5 0.732181 0.966684 0.250000
O O6 0.500000 0.941179 0.302251
O O7 0.734598 0.989419 0.343364
O O8 0.500000 0.611351 0.947448
O O9 0.239658 0.557159 0.925474
O O10 0.271406 0.682474 0.923415
O O11 0.266749 0.622441 0.002809
O O12 0.500000 0.626906 0.443216
O O13 0.746314 0.566849 0.416504
O O14 0.744179 0.691877 0.421467
O O15 0.500000 0.993143 0.897064
O O16 0.000000 0.252441 0.601672
#
# Coordination Sequence:
#
# PCOD9473033 Si02
#       6
#    16  16  16  16  16  16
#     4   9  17  31  55  84 109 137 174 218 269 322
#     4   9  18  33  54  81 109 137 174 221 268 315
#     4  10  21  38  58  81 108 142 183 228 272 318
#     4  11  24  38  54  77 111 149 184 224 272 321
#     4  11  22  36  57  83 110 143 182 223 270 324
#     4  10  20  36  57  81 111 142 178 223 269 322
#
# _framework density 17.997291000000001
#
# number of rings (size 3 to 8) (size 9 to 14) (size 15 to 20)
#    0.000    2.000    1.667    2.000    0.000    5.333 
#    0.000    0.833    0.000    5.000    0.000    0.000 
#    0.000    0.000    0.000    0.000    0.000    0.000 
#
# Total GULP energy -267954.112942 kJ/mol
# GULP energy per Si atom -5582.377353 kJ/mol
# Density = 1.795633 g / cm^3
# Si number density = 17.997291 Si / 1000 Ang^3
#
#
#
# Elastic Constant Matrix: (Units=GPa)
#
#
# Indices 1 2 3 4 5 6 
#
# 1 11.4876 17.9011 24.4383 0.0000 0.0000 0.0000
# 2 17.9011 79.3890 36.0533 0.0000 0.0000 0.0000
# 3 24.4383 36.0533 137.8570 0.0000 0.0000 0.0000
# 4 0.0000 0.0000 0.0000 -9.8436 0.0000 0.0000
# 5 0.0000 0.0000 0.0000 0.0000 20.5743 0.0000
# 6 0.0000 0.0000 0.0000 0.0000 0.0000 33.0636
#
#
#
# Elastic Compliance Matrix: (Units=1/GPa)
#
#
# Indices 1 2 3 4 5 6 
#
# 1 0.190052 -0.031267 -0.025514 0.000000 0.000000 0.000000
# 2 -0.031267 0.019438 0.000459 0.000000 0.000000 0.000000
# 3 -0.025514 0.000459 0.011657 0.000000 0.000000 0.000000
# 4 0.000000 0.000000 0.000000 -0.101589 0.000000 0.000000
# 5 0.000000 0.000000 0.000000 0.000000 0.048604 0.000000
# 6 0.000000 0.000000 0.000000 0.000000 0.000000 0.030245
#
#
# Mechanical properties :
#
#
# Convention : Reuss Voigt Hill
#
# Bulk Modulus (GPa) = 9.21635 42.83544 26.02590
# Shear Modulus (GPa) = 14.40016 18.78158 16.59087
#
# Velocity S-wave (km/s) = 2.83172 3.23395 3.03950
# Velocity P-wave (km/s) = 3.97789 6.14795 5.17788
#
# Compressibility (1/GPa) = 0.10850284
#
# Stress axis : x y z
#
# Youngs Moduli (GPa) = 5.26172 51.44567 85.78768
#
# Poissons Ratio (x) = 1.60857 2.18877
# Poissons Ratio (y) = 0.16452 -0.03940
# Poissons Ratio (z) = 0.13425 -0.02363
#
# Static dielectric constant tensor:
#      x y z
#    x 1.609350 0.000000 0.000000 
#    y 0.000000 1.557920 0.000000 
#    z 0.000000 0.000000 1.647910 
# 
# From -- ./inp_files/66918.got.cif
#   From: 2010.05.17/outbox.cif.g08.bks.cpg/sg63_34_cif.got.tgz:66918.got - 2010.06.03 15:47:04.
