data_PCOD9473477
_publ_section_title
;
Structure prediction by ZEFSAII (Michael W. Deem and Ramdas Pophale) SiO2 
 PCOD9473477
Probable space group: C M C M
;
_chemical_formula_sum "Si O2"
_cell_formula_units_Z 72
_cell_length_a 14.350077
_cell_length_b 27.950279
_cell_length_c 9.827334
_cell_angle_alpha 90.000000
_cell_angle_beta 90.000000
_cell_angle_gamma 90.000000
_cell_volume 3941.632184
_symmetry_space_group_name_H-M "C M C M"
_symmetry_group_IT_number 63
_symmetry_cell_setting 'orthorhombic'
loop_
_space_group_symop_operation_xyz
x,y,z
-x,-y,1/2+z
x,-y,-z
-x,y,1/2-z
-x,-y,-z
x,y,1/2-z
-x,y,z
x,-y,1/2+z
1/2+x,1/2+y,z
1/2-x,1/2-y,1/2+z
1/2+x,1/2-y,-z
1/2-x,1/2+y,1/2-z
1/2-x,1/2-y,-z
1/2+x,1/2+y,1/2-z
1/2-x,1/2+y,z
1/2+x,1/2-y,1/2+z
loop_
_atom_site_type_symbol
_atom_site_label
_atom_site_fract_x
_atom_site_fract_y
_atom_site_fract_z
Si Si1 0.673015 0.452717 0.410476
Si Si2 0.000000 0.113482 0.588839
Si Si3 0.500000 0.717822 0.034407
Si Si4 0.000000 0.677488 0.590075
Si Si5 0.699979 0.868437 0.092355
Si Si6 0.711547 0.291628 0.903049
O O1 0.670998 0.500000 0.500000
O O2 0.658464 0.463713 0.250000
O O3 0.591312 0.415985 0.456587
O O4 0.769592 0.423323 0.421720
O O5 0.000000 0.169977 0.557946
O O6 0.000000 0.110178 0.750000
O O7 0.500000 0.774692 0.997140
O O8 0.600202 0.712722 0.104688
O O9 0.092798 0.646226 0.571924
O O10 0.000000 0.693760 0.750000
O O11 0.724690 0.854674 0.250000
O O12 0.758029 0.838947 0.982137
O O13 0.749630 0.288657 0.750000
O O14 0.750000 0.250000 0.000000
#
# Coordination Sequence:
#
# PCOD9473477 Si02
#       6
#    16   8   8   8  16  16
#     4  10  21  39  61  86 115 153 196 247 304 354
#     4  10  21  37  58  87 122 157 196 240 294 357
#     4  12  22  37  59  88 122 158 199 235 283 348
#     4  10  20  38  60  85 118 158 198 234 285 356
#     4  10  21  40  62  84 116 155 198 245 295 350
#     4  12  24  38  57  85 120 159 201 240 288 345
#
# _framework density 18.266544
#
# number of rings (size 3 to 8) (size 9 to 14) (size 15 to 20)
#    0.000    1.333    4.444    2.000    0.000    1.778 
#    0.000    1.111    0.000    0.000    0.000    0.000 
#    0.000    0.000    0.000    0.000    0.000    0.000 
#
# Total GULP energy -200553.628909 kJ/mol
# GULP energy per Si atom -5570.934136 kJ/mol
# Density = 1.822497 g / cm^3
# Si number density = 18.266544 Si / 1000 Ang^3
#
#
#
# Elastic Constant Matrix: (Units=GPa)
#
#
# Indices 1 2 3 4 5 6 
#
# 1 117.8638 53.7962 40.7484 0.0000 0.0000 0.0000
# 2 53.7962 130.6400 55.7376 0.0000 0.0000 0.0000
# 3 40.7484 55.7376 91.5805 0.0000 0.0000 0.0000
# 4 0.0000 0.0000 0.0000 21.7450 0.0000 0.0000
# 5 0.0000 0.0000 0.0000 0.0000 9.4491 0.0000
# 6 0.0000 0.0000 0.0000 0.0000 0.0000 20.9898
#
#
#
# Elastic Compliance Matrix: (Units=1/GPa)
#
#
# Indices 1 2 3 4 5 6 
#
# 1 0.010984 -0.003293 -0.002883 0.000000 0.000000 0.000000
# 2 -0.003293 0.011327 -0.005428 0.000000 0.000000 0.000000
# 3 -0.002883 -0.005428 0.015506 0.000000 0.000000 0.000000
# 4 0.000000 0.000000 0.000000 0.045988 0.000000 0.000000
# 5 0.000000 0.000000 0.000000 0.000000 0.105831 0.000000
# 6 0.000000 0.000000 0.000000 0.000000 0.000000 0.047642
#
#
# Mechanical properties :
#
#
# Convention : Reuss Voigt Hill
#
# Bulk Modulus (GPa) = 68.45719 71.18320 69.82019
# Shear Modulus (GPa) = 18.84262 23.09023 20.96643
#
# Velocity S-wave (km/s) = 3.21524 3.55924 3.39160
# Velocity P-wave (km/s) = 7.16532 7.47962 7.32416
#
# Compressibility (1/GPa) = 0.01460767
#
# Stress axis : x y z
#
# Youngs Moduli (GPa) = 91.03984 88.28694 64.49103
#
# Poissons Ratio (x) = 0.29074 0.18594
# Poissons Ratio (y) = 0.29980 0.35008
# Poissons Ratio (z) = 0.26248 0.47926
#
# Static dielectric constant tensor:
#      x y z
#    x 1.656370 0.000000 0.000000 
#    y 0.000000 1.635120 0.000000 
#    z 0.000000 0.000000 1.629920 
# 
# From -- ./inp_files/4716.got.cif
#   From: 2010.05.17/outbox.cif.g08.bks.cpg/sg63_3_cif.got.tgz:4716.got - 2010.06.03 15:47:04.
