data_PCOD9473119
_publ_section_title
;
Structure prediction by ZEFSAII (Michael W. Deem and Ramdas Pophale) SiO2 
 PCOD9473119
Probable space group: C M C M
;
_chemical_formula_sum "Si O2"
_cell_formula_units_Z 80
_cell_length_a 9.315218
_cell_length_b 19.242437
_cell_length_c 24.835946
_cell_angle_alpha 90.000000
_cell_angle_beta 90.000000
_cell_angle_gamma 90.000000
_cell_volume 4451.781119
_symmetry_space_group_name_H-M "C M C M"
_symmetry_group_IT_number 63
_symmetry_cell_setting 'orthorhombic'
loop_
_space_group_symop_operation_xyz
x,y,z
-x,-y,1/2+z
x,-y,-z
-x,y,1/2-z
-x,-y,-z
x,y,1/2-z
-x,y,z
x,-y,1/2+z
1/2+x,1/2+y,z
1/2-x,1/2-y,1/2+z
1/2+x,1/2-y,-z
1/2-x,1/2+y,1/2-z
1/2-x,1/2-y,-z
1/2+x,1/2+y,1/2-z
1/2-x,1/2+y,z
1/2+x,1/2-y,1/2+z
loop_
_atom_site_type_symbol
_atom_site_label
_atom_site_fract_x
_atom_site_fract_y
_atom_site_fract_z
Si Si1 0.327537 0.772659 0.156091
Si Si2 0.826798 0.856618 0.250000
Si Si3 0.674001 0.519651 0.250000
Si Si4 0.327175 0.608026 0.355177
Si Si5 0.833375 0.437705 0.536203
Si Si6 0.162538 0.301766 0.463807
O O1 0.500000 0.780462 0.165208
O O2 0.239524 0.815774 0.199505
O O3 0.296186 0.689778 0.155698
O O4 0.287714 0.802670 0.097501
O O5 0.000000 0.853287 0.250000
O O6 0.783955 0.938429 0.250000
O O7 0.500000 0.521109 0.250000
O O8 0.718396 0.561289 0.196101
O O9 0.500000 0.602299 0.361232
O O10 0.251566 0.582230 0.409869
O O11 0.772395 0.500000 0.500000
O O12 0.835286 0.373743 0.494955
O O13 0.000000 0.454213 0.550604
O O14 0.250000 0.250000 0.500000
O O15 0.000000 0.275171 0.460801
#
# Coordination Sequence:
#
# PCOD9473119 Si02
#       6
#    16   8   8  16  16  16
#     4  10  21  38  61  85 110 148 192 232 279 336
#     4  11  24  39  57  85 114 143 182 236 292 333
#     4   9  21  39  57  81 112 143 182 236 284 325
#     4  10  20  39  63  82 107 149 195 232 272 332
#     4  10  22  37  55  84 122 153 181 229 286 335
#     4  10  20  36  58  85 116 148 186 230 277 331
#
# _framework density 17.970334999999999
#
# number of rings (size 3 to 8) (size 9 to 14) (size 15 to 20)
#    0.000    2.000    2.000    0.900    2.800    3.600 
#    0.000    1.500    0.000    0.000    0.000    0.000 
#    0.000    0.000    0.000    0.000    0.000    0.000 
#
# Total GULP energy -223106.780677 kJ/mol
# GULP energy per Si atom -5577.669517 kJ/mol
# Density = 1.792943 g / cm^3
# Si number density = 17.970335 Si / 1000 Ang^3
#
#
#
# Elastic Constant Matrix: (Units=GPa)
#
#
# Indices 1 2 3 4 5 6 
#
# 1 37.4424 38.8697 61.4464 0.0000 0.0000 0.0000
# 2 38.8697 95.4828 78.7699 0.0000 0.0000 0.0000
# 3 61.4464 78.7699 197.6436 0.0000 0.0000 0.0000
# 4 0.0000 0.0000 0.0000 30.3001 0.0000 0.0000
# 5 0.0000 0.0000 0.0000 0.0000 35.5859 0.0000
# 6 0.0000 0.0000 0.0000 0.0000 0.0000 15.8848
#
#
#
# Elastic Compliance Matrix: (Units=1/GPa)
#
#
# Indices 1 2 3 4 5 6 
#
# 1 0.066171 -0.014848 -0.014655 0.000000 0.000000 0.000000
# 2 -0.014848 0.018935 -0.002930 0.000000 0.000000 0.000000
# 3 -0.014655 -0.002930 0.010784 0.000000 0.000000 0.000000
# 4 0.000000 0.000000 0.000000 0.033003 0.000000 0.000000
# 5 0.000000 0.000000 0.000000 0.000000 0.028101 0.000000
# 6 0.000000 0.000000 0.000000 0.000000 0.000000 0.062953
#
#
# Mechanical properties :
#
#
# Convention : Reuss Voigt Hill
#
# Bulk Modulus (GPa) = 32.23303 76.52675 54.37989
# Shear Modulus (GPa) = 16.94029 26.45301 21.69665
#
# Velocity S-wave (km/s) = 3.07364 3.84088 3.47848
# Velocity P-wave (km/s) = 5.52920 7.89603 6.81613
#
# Compressibility (1/GPa) = 0.03102408
#
# Stress axis : x y z
#
# Youngs Moduli (GPa) = 15.11227 52.81300 92.73341
#
# Poissons Ratio (x) = 0.78415 1.35900
# Poissons Ratio (y) = 0.22438 0.27174
# Poissons Ratio (z) = 0.22147 0.15476
#
# Static dielectric constant tensor:
#      x y z
#    x 1.612280 0.000000 0.000000 
#    y 0.000000 1.597680 0.000000 
#    z 0.000000 0.000000 1.658340 
# 
# From -- ./inp_files/66684.got.cif
#   From: 2010.05.17/outbox.cif.g08.bks.cpg/sg63_34_cif.got.tgz:66684.got - 2010.06.03 15:47:04.
