data_PCOD9473356
_publ_section_title
;
Structure prediction by ZEFSAII (Michael W. Deem and Ramdas Pophale) SiO2 
 PCOD9473356
Probable space group: C M C M
;
_chemical_formula_sum "Si O2"
_cell_formula_units_Z 96
_cell_length_a 8.976299
_cell_length_b 20.058411
_cell_length_c 29.413325
_cell_angle_alpha 90.000000
_cell_angle_beta 90.000000
_cell_angle_gamma 90.000000
_cell_volume 5295.877831
_symmetry_space_group_name_H-M "C M C M"
_symmetry_group_IT_number 63
_symmetry_cell_setting 'orthorhombic'
loop_
_space_group_symop_operation_xyz
x,y,z
-x,-y,1/2+z
x,-y,-z
-x,y,1/2-z
-x,-y,-z
x,y,1/2-z
-x,y,z
x,-y,1/2+z
1/2+x,1/2+y,z
1/2-x,1/2-y,1/2+z
1/2+x,1/2-y,-z
1/2-x,1/2+y,1/2-z
1/2-x,1/2-y,-z
1/2+x,1/2+y,1/2-z
1/2-x,1/2+y,z
1/2+x,1/2-y,1/2+z
loop_
_atom_site_type_symbol
_atom_site_label
_atom_site_fract_x
_atom_site_fract_y
_atom_site_fract_z
Si Si1 0.821926 0.258494 0.303454
Si Si2 0.827757 0.433971 0.969310
Si Si3 0.676001 0.882189 0.803635
Si Si4 0.179057 0.142534 0.623841
Si Si5 0.322660 0.684958 0.521819
Si Si6 0.679394 0.996564 0.872950
O O1 0.782928 0.269185 0.250000
O O2 0.765803 0.184327 0.315978
O O3 0.745721 0.311747 0.336384
O O4 0.000000 0.262570 0.307571
O O5 0.783553 0.456677 0.919010
O O6 0.000000 0.410380 0.968053
O O7 0.822535 0.500000 0.000000
O O8 0.727677 0.377888 0.991827
O O9 0.695529 0.893734 0.750000
O O10 0.500000 0.869708 0.812282
O O11 0.718777 0.947619 0.831633
O O12 0.223345 0.171359 0.574173
O O13 0.240648 0.067511 0.627972
O O14 0.000000 0.142307 0.626326
O O15 0.500000 0.691745 0.521244
O O16 0.250000 0.750000 0.500000
O O17 0.500000 0.007603 0.872848
#
# Coordination Sequence:
#
# PCOD9473356 Si02
#       6
#    16  16  16  16  16  16
#     4  10  22  40  62  87 116 152 194 240 290 345
#     4  10  20  37  60  84 115 155 194 236 288 342
#     4   9  19  37  60  86 117 151 188 234 288 345
#     4  11  24  40  59  86 119 154 195 241 290 345
#     4  11  25  41  59  85 118 155 197 243 290 346
#     4  10  21  37  59  86 117 154 195 238 287 348
#
# _framework density 18.127306999999998
#
# number of rings (size 3 to 8) (size 9 to 14) (size 15 to 20)
#    0.000    1.833    1.667    1.500    2.333    5.333 
#    0.000    1.667    0.000    0.000    0.000    0.000 
#    0.000    0.000    0.000    0.000    0.000    0.000 
#
# Total GULP energy -268106.045020 kJ/mol
# GULP energy per Si atom -5585.542605 kJ/mol
# Density = 1.808605 g / cm^3
# Si number density = 18.127307 Si / 1000 Ang^3
#
#
#
# Elastic Constant Matrix: (Units=GPa)
#
#
# Indices 1 2 3 4 5 6 
#
# 1 55.0094 63.4695 58.3460 0.0000 0.0000 0.0000
# 2 63.4695 139.2743 93.0023 0.0000 0.0000 0.0000
# 3 58.3460 93.0023 107.9624 0.0000 0.0000 0.0000
# 4 0.0000 0.0000 0.0000 34.2970 0.0000 0.0000
# 5 0.0000 0.0000 0.0000 0.0000 23.8226 0.0000
# 6 0.0000 0.0000 0.0000 0.0000 0.0000 40.3307
#
#
#
# Elastic Compliance Matrix: (Units=1/GPa)
#
#
# Indices 1 2 3 4 5 6 
#
# 1 0.048713 -0.010876 -0.016957 0.000000 0.000000 0.000000
# 2 -0.010876 0.019332 -0.010775 0.000000 0.000000 0.000000
# 3 -0.016957 -0.010775 0.027709 0.000000 0.000000 0.000000
# 4 0.000000 0.000000 0.000000 0.029157 0.000000 0.000000
# 5 0.000000 0.000000 0.000000 0.000000 0.041977 0.000000
# 6 0.000000 0.000000 0.000000 0.000000 0.000000 0.024795
#
#
# Mechanical properties :
#
#
# Convention : Reuss Voigt Hill
#
# Bulk Modulus (GPa) = 53.94651 81.32019 67.63335
# Shear Modulus (GPa) = 18.17669 25.51861 21.84765
#
# Velocity S-wave (km/s) = 3.17002 3.75606 3.47541
# Velocity P-wave (km/s) = 6.57443 7.98553 7.31409
#
# Compressibility (1/GPa) = 0.01853688
#
# Stress axis : x y z
#
# Youngs Moduli (GPa) = 20.52849 51.72809 36.08986
#
# Poissons Ratio (x) = 0.56260 0.61197
# Poissons Ratio (y) = 0.22327 0.38888
# Poissons Ratio (z) = 0.34810 0.55739
#
# Static dielectric constant tensor:
#      x y z
#    x 1.613110 0.000000 0.000000 
#    y 0.000000 1.502080 0.000000 
#    z 0.000000 0.000000 1.605220 
# 
# From -- ./inp_files/66876.got.cif
#   From: 2010.05.17/outbox.cif.g08.bks.cpg/sg63_34_cif.got.tgz:66876.got - 2010.06.03 15:47:04.
