data_PCOD9473848
_publ_section_title
;
Structure prediction by ZEFSAII (Michael W. Deem and Ramdas Pophale) SiO2 
 PCOD9473848
Probable space group: C M C M
;
_chemical_formula_sum "Si O2"
_cell_formula_units_Z 96
_cell_length_a 19.376413
_cell_length_b 10.107817
_cell_length_c 25.025864
_cell_angle_alpha 90.000000
_cell_angle_beta 90.000000
_cell_angle_gamma 90.000000
_cell_volume 4901.396466
_symmetry_space_group_name_H-M "C M C M"
_symmetry_group_IT_number 63
_symmetry_cell_setting 'orthorhombic'
loop_
_space_group_symop_operation_xyz
x,y,z
-x,-y,1/2+z
x,-y,-z
-x,y,1/2-z
-x,-y,-z
x,y,1/2-z
-x,y,z
x,-y,1/2+z
1/2+x,1/2+y,z
1/2-x,1/2-y,1/2+z
1/2+x,1/2-y,-z
1/2-x,1/2+y,1/2-z
1/2-x,1/2-y,-z
1/2+x,1/2+y,1/2-z
1/2-x,1/2+y,z
1/2+x,1/2-y,1/2+z
loop_
_atom_site_type_symbol
_atom_site_label
_atom_site_fract_x
_atom_site_fract_y
_atom_site_fract_z
Si Si1 0.416369 0.143662 0.087366
Si Si2 0.699850 0.504107 0.314505
Si Si3 0.584338 0.651884 0.003117
Si Si4 0.418147 0.692370 0.812213
Si Si5 0.582686 0.849068 0.404567
Si Si6 0.318072 0.197475 0.685710
O O1 0.500000 0.142292 0.083538
O O2 0.392723 0.256569 0.046443
O O3 0.399695 0.189519 0.147593
O O4 0.393858 0.994339 0.075470
O O5 0.702429 0.504847 0.250000
O O6 0.627154 0.434665 0.328159
O O7 0.705652 0.655526 0.330683
O O8 0.761472 0.409264 0.332029
O O9 0.500000 0.648873 0.002189
O O10 0.607836 0.500000 0.000000
O O11 0.605193 0.731007 0.056383
O O12 0.403409 0.724563 0.750000
O O13 0.500000 0.665718 0.817040
O O14 0.500000 0.849106 0.404129
O O15 0.611886 0.830090 0.345518
O O16 0.325583 0.192625 0.750000
#
# Coordination Sequence:
#
# PCOD9473848 Si02
#       6
#    16  16  16  16  16  16
#     4   9  18  32  53  82 115 150 182 224 281 335
#     4   9  20  37  55  77 109 151 191 224 268 335
#     4   9  18  33  54  80 111 148 192 235 278 337
#     4   9  18  32  55  87 115 141 181 232 283 331
#     4  10  21  35  55  86 117 146 187 238 286 331
#     4  10  22  38  57  82 113 153 192 228 278 337
#
# _framework density 19.586255000000001
#
# number of rings (size 3 to 8) (size 9 to 14) (size 15 to 20)
#    0.000    2.667    0.000    0.500    4.667    3.667 
#    0.000    3.333    0.000    1.000    0.000    0.000 
#    0.000    0.000    0.000    0.000    0.000    0.000 
#
# Total GULP energy -267619.029358 kJ/mol
# GULP energy per Si atom -5575.396445 kJ/mol
# Density = 1.954168 g / cm^3
# Si number density = 19.586255 Si / 1000 Ang^3
#
#
#
# Elastic Constant Matrix: (Units=GPa)
#
#
# Indices 1 2 3 4 5 6 
#
# 1 15.8103 24.1189 25.6881 0.0000 0.0000 0.0000
# 2 24.1189 170.0439 54.6220 0.0000 0.0000 0.0000
# 3 25.6881 54.6220 75.5908 0.0000 0.0000 0.0000
# 4 0.0000 0.0000 0.0000 25.0423 0.0000 0.0000
# 5 0.0000 0.0000 0.0000 0.0000 8.0936 0.0000
# 6 0.0000 0.0000 0.0000 0.0000 0.0000 20.2493
#
#
#
# Elastic Compliance Matrix: (Units=1/GPa)
#
#
# Indices 1 2 3 4 5 6 
#
# 1 0.146109 -0.006218 -0.045160 0.000000 0.000000 0.000000
# 2 -0.006218 0.007923 -0.003612 0.000000 0.000000 0.000000
# 3 -0.045160 -0.003612 0.031186 0.000000 0.000000 0.000000
# 4 0.000000 0.000000 0.000000 0.039932 0.000000 0.000000
# 5 0.000000 0.000000 0.000000 0.000000 0.123554 0.000000
# 6 0.000000 0.000000 0.000000 0.000000 0.000000 0.049384
#
#
# Mechanical properties :
#
#
# Convention : Reuss Voigt Hill
#
# Bulk Modulus (GPa) = 13.29093 52.25588 32.77341
# Shear Modulus (GPa) = 9.37826 21.14479 15.26153
#
# Velocity S-wave (km/s) = 2.19057 3.28925 2.79444
# Velocity P-wave (km/s) = 3.63300 6.41587 5.21354
#
# Compressibility (1/GPa) = 0.07523925
#
# Stress axis : x y z
#
# Youngs Moduli (GPa) = 6.84419 126.21338 32.06571
#
# Poissons Ratio (x) = 0.78476 1.44807
# Poissons Ratio (y) = 0.04256 0.11583
# Poissons Ratio (z) = 0.30908 0.45591
#
# Static dielectric constant tensor:
#      x y z
#    x 1.669760 0.000000 0.000000 
#    y 0.000000 1.701350 0.000000 
#    z 0.000000 0.000000 1.686060 
# 
# From -- ./inp_files/70318.got.cif
#   From: 2010.05.17/outbox.cif.g08.bks.cpg/sg63_36_cif.got.tgz:70318.got - 2010.06.03 15:47:04.
