data_PCOD9473257
_publ_section_title
;
Structure prediction by ZEFSAII (Michael W. Deem and Ramdas Pophale) SiO2 
 PCOD9473257
Probable space group: C M C M
;
_chemical_formula_sum "Si O2"
_cell_formula_units_Z 112
_cell_length_a 19.756471
_cell_length_b 12.831130
_cell_length_c 21.009061
_cell_angle_alpha 90.000000
_cell_angle_beta 90.000000
_cell_angle_gamma 90.000000
_cell_volume 5325.751747
_symmetry_space_group_name_H-M "C M C M"
_symmetry_group_IT_number 63
_symmetry_cell_setting 'orthorhombic'
loop_
_space_group_symop_operation_xyz
x,y,z
-x,-y,1/2+z
x,-y,-z
-x,y,1/2-z
-x,-y,-z
x,y,1/2-z
-x,y,z
x,-y,1/2+z
1/2+x,1/2+y,z
1/2-x,1/2-y,1/2+z
1/2+x,1/2-y,-z
1/2-x,1/2+y,1/2-z
1/2-x,1/2-y,-z
1/2+x,1/2+y,1/2-z
1/2-x,1/2+y,z
1/2+x,1/2-y,1/2+z
loop_
_atom_site_type_symbol
_atom_site_label
_atom_site_fract_x
_atom_site_fract_y
_atom_site_fract_z
Si Si1 0.145961 0.741759 0.897761
Si Si2 0.394414 0.116222 0.012362
Si Si3 0.576886 0.866466 0.846807
Si Si4 0.241006 0.076693 0.444949
Si Si5 0.576824 0.356717 0.175193
Si Si6 0.806835 0.465039 0.325193
Si Si7 0.581461 0.574891 0.321779
O O1 0.200352 0.817684 0.931538
O O2 0.177343 0.649545 0.854195
O O3 0.102819 0.822614 0.857538
O O4 0.099874 0.687165 0.951114
O O5 0.426638 0.149185 0.077754
O O6 0.314107 0.107773 0.026600
O O7 0.418870 0.000000 0.000000
O O8 0.500000 0.878749 0.821889
O O9 0.610192 0.756274 0.826850
O O10 0.624982 0.963168 0.829806
O O11 0.211219 0.000000 0.500000
O O12 0.256991 0.019528 0.377180
O O13 0.571367 0.380414 0.250000
O O14 0.500000 0.341871 0.150346
O O15 0.605614 0.464370 0.147892
O O16 0.786316 0.461703 0.250000
O O17 0.607909 0.584900 0.250000
O O18 0.500000 0.567334 0.320499
#
# Coordination Sequence:
#
# PCOD9473257 Si02
#       7
#    16  16  16  16  16  16  16
#     4  12  22  39  67  89 122 161 210 255 316 378
#     4  10  20  40  59  86 117 158 197 252 310 365
#     4  10  20  36  62  90 125 165 207 250 307 374
#     4  10  22  43  66  86 118 167 210 259 316 375
#     4   8  15  32  55  78 112 156 198 241 288 347
#     4  11  24  41  61  93 130 160 208 269 313 372
#     4   9  20  38  58  87 127 164 198 245 309 373
#
# _framework density 21.029893999999999
#
# number of rings (size 3 to 8) (size 9 to 14) (size 15 to 20)
#    0.000    2.000    4.286    2.143    0.000    4.571 
#    2.571    0.000    0.000    3.000    0.000    0.000 
#    0.000    0.000    0.000    0.000    0.000    0.000 
#
# Total GULP energy -312065.141264 kJ/mol
# GULP energy per Si atom -5572.591808 kJ/mol
# Density = 2.098203 g / cm^3
# Si number density = 21.029894 Si / 1000 Ang^3
#
#
#
# Elastic Constant Matrix: (Units=GPa)
#
#
# Indices 1 2 3 4 5 6 
#
# 1 40.0125 33.4087 5.8248 0.0000 0.0000 0.0000
# 2 33.4087 184.9958 60.8635 0.0000 0.0000 0.0000
# 3 5.8248 60.8635 131.5565 0.0000 0.0000 0.0000
# 4 0.0000 0.0000 0.0000 47.6726 0.0000 0.0000
# 5 0.0000 0.0000 0.0000 0.0000 18.0334 0.0000
# 6 0.0000 0.0000 0.0000 0.0000 0.0000 18.0005
#
#
#
# Elastic Compliance Matrix: (Units=1/GPa)
#
#
# Indices 1 2 3 4 5 6 
#
# 1 0.029639 -0.005804 0.001373 0.000000 0.000000 0.000000
# 2 -0.005804 0.007513 -0.003219 0.000000 0.000000 0.000000
# 3 0.001373 -0.003219 0.009030 0.000000 0.000000 0.000000
# 4 0.000000 0.000000 0.000000 0.020976 0.000000 0.000000
# 5 0.000000 0.000000 0.000000 0.000000 0.055453 0.000000
# 6 0.000000 0.000000 0.000000 0.000000 0.000000 0.055554
#
#
# Mechanical properties :
#
#
# Convention : Reuss Voigt Hill
#
# Bulk Modulus (GPa) = 32.38233 61.86209 47.12221
# Shear Modulus (GPa) = 24.53901 33.83916 29.18909
#
# Velocity S-wave (km/s) = 3.41964 4.01571 3.72960
# Velocity P-wave (km/s) = 5.56988 7.14012 6.40332
#
# Compressibility (1/GPa) = 0.03088104
#
# Stress axis : x y z
#
# Youngs Moduli (GPa) = 33.73983 133.10863 110.74685
#
# Poissons Ratio (x) = 0.77259 -0.15205
# Poissons Ratio (y) = 0.19583 0.35646
# Poissons Ratio (z) = -0.04632 0.42843
#
# Static dielectric constant tensor:
#      x y z
#    x 1.790130 0.000000 0.000000 
#    y 0.000000 1.795600 0.000000 
#    z 0.000000 0.000000 1.767110 
# 
# From -- ./inp_files/57644.got.cif
#   From: 2010.05.17/outbox.cif.g08.bks.cpg/sg63_29_cif.got.tgz:57644.got - 2010.06.03 15:47:04.
