data_PCOD9473013
_publ_section_title
;
Structure prediction by ZEFSAII (Michael W. Deem and Ramdas Pophale) SiO2 
 PCOD9473013
Probable space group: C M C M
;
_chemical_formula_sum "Si O2"
_cell_formula_units_Z 96
_cell_length_a 13.312160
_cell_length_b 23.292419
_cell_length_c 16.475748
_cell_angle_alpha 90.000000
_cell_angle_beta 90.000000
_cell_angle_gamma 90.000000
_cell_volume 5108.674864
_symmetry_space_group_name_H-M "C M C M"
_symmetry_group_IT_number 63
_symmetry_cell_setting 'orthorhombic'
loop_
_space_group_symop_operation_xyz
x,y,z
-x,-y,1/2+z
x,-y,-z
-x,y,1/2-z
-x,-y,-z
x,y,1/2-z
-x,y,z
x,-y,1/2+z
1/2+x,1/2+y,z
1/2-x,1/2-y,1/2+z
1/2+x,1/2-y,-z
1/2-x,1/2+y,1/2-z
1/2-x,1/2-y,-z
1/2+x,1/2+y,1/2-z
1/2-x,1/2+y,z
1/2+x,1/2-y,1/2+z
loop_
_atom_site_type_symbol
_atom_site_label
_atom_site_fract_x
_atom_site_fract_y
_atom_site_fract_z
Si Si1 0.198729 0.472705 0.581909
Si Si2 0.614397 0.595251 0.006559
Si Si3 0.611373 0.818217 0.152812
Si Si4 0.273908 0.586303 0.655451
Si Si5 0.612848 0.857908 0.652758
Si Si6 0.206290 0.211071 0.428545
O O1 0.152999 0.500000 0.500000
O O2 0.304392 0.444591 0.552297
O O3 0.222307 0.524353 0.643117
O O4 0.134303 0.421757 0.619542
O O5 0.500000 0.579632 0.024409
O O6 0.637591 0.590165 0.910500
O O7 0.638736 0.659694 0.036293
O O8 0.607965 0.821423 0.250000
O O9 0.500000 0.831202 0.120292
O O10 0.693790 0.865181 0.127788
O O11 0.644582 0.754838 0.127188
O O12 0.300638 0.595017 0.750000
O O13 0.619470 0.858333 0.750000
O O14 0.500000 0.839590 0.629384
O O15 0.699389 0.817337 0.617355
O O16 0.250000 0.250000 0.500000
#
# Coordination Sequence:
#
# PCOD9473013 Si02
#       6
#    16  16  16  16  16  16
#     4   9  20  37  58  85 115 150 190 235 282 330
#     4  10  21  38  58  82 111 148 192 235 280 330
#     4  10  21  37  58  83 112 148 188 230 278 335
#     4  10  20  36  56  83 116 149 185 230 284 338
#     4  10  22  39  60  86 116 150 189 236 289 342
#     4  11  21  39  58  82 113 150 187 236 282 336
#
# _framework density 18.791564999999999
#
# number of rings (size 3 to 8) (size 9 to 14) (size 15 to 20)
#    0.000    2.000    1.667    1.500    0.000    5.667 
#    0.000    1.667    0.000    9.500    0.000    0.000 
#    0.000    0.000    0.000    0.000    0.000    0.000 
#
# Total GULP energy -267928.857974 kJ/mol
# GULP energy per Si atom -5581.851208 kJ/mol
# Density = 1.874879 g / cm^3
# Si number density = 18.791565 Si / 1000 Ang^3
#
#
#
# Elastic Constant Matrix: (Units=GPa)
#
#
# Indices 1 2 3 4 5 6 
#
# 1 62.7173 -0.3017 21.5861 0.0000 0.0000 0.0000
# 2 -0.3017 81.4646 10.8315 0.0000 0.0000 0.0000
# 3 21.5861 10.8315 51.2130 0.0000 0.0000 0.0000
# 4 0.0000 0.0000 0.0000 35.4560 0.0000 0.0000
# 5 0.0000 0.0000 0.0000 0.0000 23.0418 0.0000
# 6 0.0000 0.0000 0.0000 0.0000 0.0000 9.8279
#
#
#
# Elastic Compliance Matrix: (Units=1/GPa)
#
#
# Indices 1 2 3 4 5 6 
#
# 1 0.018755 0.001153 -0.008149 0.000000 0.000000 0.000000
# 2 0.001153 0.012701 -0.003172 0.000000 0.000000 0.000000
# 3 -0.008149 -0.003172 0.023632 0.000000 0.000000 0.000000
# 4 0.000000 0.000000 0.000000 0.028204 0.000000 0.000000
# 5 0.000000 0.000000 0.000000 0.000000 0.043399 0.000000
# 6 0.000000 0.000000 0.000000 0.000000 0.000000 0.101751
#
#
# Mechanical properties :
#
#
# Convention : Reuss Voigt Hill
#
# Bulk Modulus (GPa) = 28.77567 28.84740 28.81154
# Shear Modulus (GPa) = 19.20397 24.55043 21.87720
#
# Velocity S-wave (km/s) = 3.20026 3.61842 3.41574
# Velocity P-wave (km/s) = 5.38534 5.73078 5.56074
#
# Compressibility (1/GPa) = 0.03475158
#
# Stress axis : x y z
#
# Youngs Moduli (GPa) = 53.31966 78.73198 42.31555
#
# Poissons Ratio (x) = -0.09077 0.34483
# Poissons Ratio (y) = -0.06147 0.13424
# Poissons Ratio (z) = 0.43450 0.24976
#
# Static dielectric constant tensor:
#      x y z
#    x 1.653540 0.000000 0.000000 
#    y 0.000000 1.646450 0.000000 
#    z 0.000000 0.000000 1.645870 
# 
# From -- ./inp_files/42485.got.cif
#   From: 2010.05.17/outbox.cif.g08.bks.cpg/sg63_22_cif.got.tgz:42485.got - 2010.06.03 15:47:04.
