data_PCOD9473719
_publ_section_title
;
Structure prediction by ZEFSAII (Michael W. Deem and Ramdas Pophale) SiO2 
 PCOD9473719
Probable space group: C M C M
;
_chemical_formula_sum "Si O2"
_cell_formula_units_Z 84
_cell_length_a 14.197910
_cell_length_b 13.598976
_cell_length_c 24.286162
_cell_angle_alpha 90.000000
_cell_angle_beta 90.000000
_cell_angle_gamma 90.000000
_cell_volume 4689.100207
_symmetry_space_group_name_H-M "C M C M"
_symmetry_group_IT_number 63
_symmetry_cell_setting 'orthorhombic'
loop_
_space_group_symop_operation_xyz
x,y,z
-x,-y,1/2+z
x,-y,-z
-x,y,1/2-z
-x,-y,-z
x,y,1/2-z
-x,y,z
x,-y,1/2+z
1/2+x,1/2+y,z
1/2-x,1/2-y,1/2+z
1/2+x,1/2-y,-z
1/2-x,1/2+y,1/2-z
1/2-x,1/2-y,-z
1/2+x,1/2+y,1/2-z
1/2-x,1/2+y,z
1/2+x,1/2-y,1/2+z
loop_
_atom_site_type_symbol
_atom_site_label
_atom_site_fract_x
_atom_site_fract_y
_atom_site_fract_z
Si Si1 0.714756 0.104349 0.613390
Si Si2 0.392084 0.591041 0.958586
Si Si3 0.613355 0.901053 0.895252
Si Si4 0.500000 0.331754 0.250000
Si Si5 0.112000 0.304116 0.489877
Si Si6 0.180793 0.762598 0.190000
O O1 0.817218 0.077032 0.589315
O O2 0.665356 0.167661 0.565382
O O3 0.737099 0.168105 0.667072
O O4 0.653617 0.006877 0.620708
O O5 0.500000 0.598980 0.938973
O O6 0.385597 0.500000 0.000000
O O7 0.370258 0.692922 0.990233
O O8 0.500000 0.898393 0.890620
O O9 0.656980 0.818860 0.855457
O O10 0.637755 0.874598 0.958674
O O11 0.584381 0.321669 0.203012
O O12 0.000000 0.314955 0.480806
O O13 0.205462 0.718167 0.250000
#
# Coordination Sequence:
#
# PCOD9473719 Si02
#       6
#    16  16  16   4  16  16
#     4  12  23  33  61  91 120 149 199 251 298 349
#     4  10  21  33  51  83 123 162 196 232 287 355
#     4  11  21  39  63  91 124 162 197 242 299 361
#     4   8  20  44  64  84 106 158 212 252 290 352
#     4  10  21  37  58  87 129 164 195 236 299 369
#     4  10  22  40  63  85 113 151 206 254 292 342
#
# _framework density 17.913885000000001
#
# number of rings (size 3 to 8) (size 9 to 14) (size 15 to 20)
#    0.571    0.952    2.857    2.857    4.000    2.286 
#    0.000    0.000    0.000    1.714    0.000    0.000 
#    0.000    0.000    0.000    0.000    0.000    0.000 
#
# Total GULP energy -233822.177076 kJ/mol
# GULP energy per Si atom -5567.194692 kJ/mol
# Density = 1.787311 g / cm^3
# Si number density = 17.913885 Si / 1000 Ang^3
#
#
#
# Elastic Constant Matrix: (Units=GPa)
#
#
# Indices 1 2 3 4 5 6 
#
# 1 41.9478 23.7612 22.5175 0.0000 0.0000 0.0000
# 2 23.7612 58.6374 9.2884 0.0000 0.0000 0.0000
# 3 22.5175 9.2884 72.4080 0.0000 0.0000 0.0000
# 4 0.0000 0.0000 0.0000 3.8349 0.0000 0.0000
# 5 0.0000 0.0000 0.0000 0.0000 33.5955 0.0000
# 6 0.0000 0.0000 0.0000 0.0000 0.0000 30.6469
#
#
#
# Elastic Compliance Matrix: (Units=1/GPa)
#
#
# Indices 1 2 3 4 5 6 
#
# 1 0.036548 -0.013279 -0.009662 0.000000 0.000000 0.000000
# 2 -0.013279 0.022233 0.001278 0.000000 0.000000 0.000000
# 3 -0.009662 0.001278 0.016651 0.000000 0.000000 0.000000
# 4 0.000000 0.000000 0.000000 0.260763 0.000000 0.000000
# 5 0.000000 0.000000 0.000000 0.000000 0.029766 0.000000
# 6 0.000000 0.000000 0.000000 0.000000 0.000000 0.032630
#
#
# Mechanical properties :
#
#
# Convention : Reuss Voigt Hill
#
# Bulk Modulus (GPa) = 31.14871 31.56971 31.35921
# Shear Modulus (GPa) = 11.04679 21.44386 16.24533
#
# Velocity S-wave (km/s) = 2.48596 3.46360 3.01467
# Velocity P-wave (km/s) = 5.06614 5.80143 5.44621
#
# Compressibility (1/GPa) = 0.03210406
#
# Stress axis : x y z
#
# Youngs Moduli (GPa) = 27.36137 44.97875 60.05475
#
# Poissons Ratio (x) = 0.59729 0.58026
# Poissons Ratio (y) = 0.36335 -0.07673
# Poissons Ratio (z) = 0.26437 -0.05747
#
# Static dielectric constant tensor:
#      x y z
#    x 1.619530 0.000000 0.000000 
#    y 0.000000 1.617060 0.000000 
#    z 0.000000 0.000000 1.623680 
# 
# From -- ./inp_files/62681.got.cif
#   From: 2010.05.17/outbox.cif.g08.bks.cpg/sg63_32_cif.got.tgz:62681.got - 2010.06.03 15:47:04.
