data_PCOD9473543
_publ_section_title
;
Structure prediction by ZEFSAII (Michael W. Deem and Ramdas Pophale) SiO2 
 PCOD9473543
Probable space group: C M C M
;
_chemical_formula_sum "Si O2"
_cell_formula_units_Z 80
_cell_length_a 9.109824
_cell_length_b 20.690644
_cell_length_c 23.120933
_cell_angle_alpha 90.000000
_cell_angle_beta 90.000000
_cell_angle_gamma 90.000000
_cell_volume 4358.021316
_symmetry_space_group_name_H-M "C M C M"
_symmetry_group_IT_number 63
_symmetry_cell_setting 'orthorhombic'
loop_
_space_group_symop_operation_xyz
x,y,z
-x,-y,1/2+z
x,-y,-z
-x,y,1/2-z
-x,-y,-z
x,y,1/2-z
-x,y,z
x,-y,1/2+z
1/2+x,1/2+y,z
1/2-x,1/2-y,1/2+z
1/2+x,1/2-y,-z
1/2-x,1/2+y,1/2-z
1/2-x,1/2-y,-z
1/2+x,1/2+y,1/2-z
1/2-x,1/2+y,z
1/2+x,1/2-y,1/2+z
loop_
_atom_site_type_symbol
_atom_site_label
_atom_site_fract_x
_atom_site_fract_y
_atom_site_fract_z
Si Si1 0.324171 0.889544 0.551081
Si Si2 0.675099 0.631845 0.572246
Si Si3 0.175320 0.512335 0.871134
Si Si4 0.324426 0.767261 0.867534
Si Si5 0.324977 0.696766 0.250000
Si Si6 0.325054 0.057089 0.250000
O O1 0.500000 0.889299 0.541610
O O2 0.244284 0.879500 0.490646
O O3 0.289778 0.830823 0.594684
O O4 0.286046 0.956909 0.582148
O O5 0.500000 0.626322 0.568865
O O6 0.739570 0.577303 0.614361
O O7 0.710840 0.703014 0.596365
O O8 0.205736 0.483555 0.807750
O O9 0.000000 0.523519 0.875256
O O10 0.500000 0.768218 0.856193
O O11 0.238676 0.770202 0.807523
O O12 0.500000 0.697497 0.250000
O O13 0.264167 0.623403 0.250000
O O14 0.500000 0.072992 0.250000
#
# Coordination Sequence:
#
# PCOD9473543 Si02
#       6
#    16  16  16  16   8   8
#     4  10  20  38  64  86 113 159 207 241 281 353
#     4  11  24  38  57  88 125 157 191 247 302 341
#     4  10  21  38  63  88 115 158 201 238 288 353
#     4  10  22  42  63  84 118 163 199 234 292 357
#     4  12  24  37  62  95 119 145 191 253 298 340
#     4  10  20  41  66  85 113 157 201 239 286 356
#
# _framework density 18.356954000000002
#
# number of rings (size 3 to 8) (size 9 to 14) (size 15 to 20)
#    0.000    1.600    2.000    2.700    0.000    7.200 
#    0.000    2.000    0.000    0.000    0.000    0.000 
#    0.000    0.000    0.000    0.000    0.000    0.000 
#
# Total GULP energy -223603.200240 kJ/mol
# GULP energy per Si atom -5590.080006 kJ/mol
# Density = 1.831517 g / cm^3
# Si number density = 18.356954 Si / 1000 Ang^3
#
#
#
# Elastic Constant Matrix: (Units=GPa)
#
#
# Indices 1 2 3 4 5 6 
#
# 1 22.0375 10.2180 20.9338 0.0000 0.0000 0.0000
# 2 10.2180 50.6445 -19.5331 0.0000 0.0000 0.0000
# 3 20.9338 -19.5331 67.0814 0.0000 0.0000 0.0000
# 4 0.0000 0.0000 0.0000 -5.7128 0.0000 0.0000
# 5 0.0000 0.0000 0.0000 0.0000 20.6218 0.0000
# 6 0.0000 0.0000 0.0000 0.0000 0.0000 25.7964
#
#
#
# Elastic Compliance Matrix: (Units=1/GPa)
#
#
# Indices 1 2 3 4 5 6 
#
# 1 0.104330 -0.037859 -0.043582 0.000000 0.000000 0.000000
# 2 -0.037859 0.035981 0.022292 0.000000 0.000000 0.000000
# 3 -0.043582 0.022292 0.034999 0.000000 0.000000 0.000000
# 4 0.000000 0.000000 0.000000 -0.175045 0.000000 0.000000
# 5 0.000000 0.000000 0.000000 0.000000 0.048492 0.000000
# 6 0.000000 0.000000 0.000000 0.000000 0.000000 0.038765
#
#
# Mechanical properties :
#
#
# Convention : Reuss Voigt Hill
#
# Bulk Modulus (GPa) = 17.53990 18.11119 17.82555
# Shear Modulus (GPa) = 22.23959 16.68403 19.46181
#
# Velocity S-wave (km/s) = 3.48445 3.01801 3.25958
# Velocity P-wave (km/s) = 5.07584 4.69383 4.88857
#
# Compressibility (1/GPa) = 0.05701286
#
# Stress axis : x y z
#
# Youngs Moduli (GPa) = 9.58498 27.79208 28.57255
#
# Poissons Ratio (x) = 1.05217 1.24524
# Poissons Ratio (y) = 0.36287 -0.63693
# Poissons Ratio (z) = 0.41773 -0.61953
#
# Static dielectric constant tensor:
#      x y z
#    x 1.610150 0.000000 0.000000 
#    y 0.000000 1.609980 0.000000 
#    z 0.000000 0.000000 1.607590 
# 
# From -- ./inp_files/59530.got.cif
#   From: 2010.05.17/outbox.cif.g08.bks.cpg/sg63_30_cif.got.tgz:59530.got - 2010.06.03 15:47:04.
