data_PCOD9473024
_publ_section_title
;
Structure prediction by ZEFSAII (Michael W. Deem and Ramdas Pophale) SiO2 
 PCOD9473024
Probable space group: C M C M
;
_chemical_formula_sum "Si O2"
_cell_formula_units_Z 88
_cell_length_a 17.463869
_cell_length_b 30.977071
_cell_length_c 7.673270
_cell_angle_alpha 90.000000
_cell_angle_beta 90.000000
_cell_angle_gamma 90.000000
_cell_volume 4151.081844
_symmetry_space_group_name_H-M "C M C M"
_symmetry_group_IT_number 63
_symmetry_cell_setting 'orthorhombic'
loop_
_space_group_symop_operation_xyz
x,y,z
-x,-y,1/2+z
x,-y,-z
-x,y,1/2-z
-x,-y,-z
x,y,1/2-z
-x,y,z
x,-y,1/2+z
1/2+x,1/2+y,z
1/2-x,1/2-y,1/2+z
1/2+x,1/2-y,-z
1/2-x,1/2+y,1/2-z
1/2-x,1/2-y,-z
1/2+x,1/2+y,1/2-z
1/2-x,1/2+y,z
1/2+x,1/2-y,1/2+z
loop_
_atom_site_type_symbol
_atom_site_label
_atom_site_fract_x
_atom_site_fract_y
_atom_site_fract_z
Si Si1 0.000000 0.449093 0.459501
Si Si2 0.796995 0.879779 0.949172
Si Si3 0.626887 0.882440 0.047488
Si Si4 0.914891 0.050280 0.957776
Si Si5 0.407928 0.789150 0.449557
Si Si6 0.411300 0.694259 0.035843
O O1 0.000000 0.500000 0.500000
O O2 0.925978 0.421295 0.522276
O O3 0.000000 0.448422 0.250000
O O4 0.778282 0.868529 0.750000
O O5 0.849937 0.841195 0.022412
O O6 0.717093 0.890118 0.039505
O O7 0.850561 0.921413 0.954980
O O8 0.603044 0.878033 0.250000
O O9 0.614187 0.834767 0.967289
O O10 0.910331 0.056023 0.750000
O O11 0.000000 0.063937 0.016308
O O12 0.906670 0.000000 0.000000
O O13 0.377751 0.789102 0.250000
O O14 0.500000 0.788761 0.441794
O O15 0.387653 0.742318 0.524774
O O16 0.411974 0.694331 0.250000
O O17 0.500000 0.685452 0.983615
#
# Coordination Sequence:
#
# PCOD9473024 Si02
#       6
#     8  16  16  16  16  16
#     4  10  22  40  62  84 104 134 180 234 291 346
#     4  11  22  34  51  81 119 152 182 220 271 330
#     4  10  20  36  57  80 105 138 184 235 284 334
#     4  10  21  38  60  83 107 141 183 225 270 320
#     4   8  13  27  53  78 101 137 187 234 276 328
#     4   8  15  28  49  78 110 146 186 226 268 320
#
# _framework density 21.199293000000001
#
# number of rings (size 3 to 8) (size 9 to 14) (size 15 to 20)
#    0.000    2.545    0.909    2.727    0.000    4.000 
#    0.000    1.818    0.000    1.091    0.000    5.091 
#    0.000    0.000    0.000    0.000    0.000    0.000 
#
# Total GULP energy -245373.657400 kJ/mol
# GULP energy per Si atom -5576.674032 kJ/mol
# Density = 2.115104 g / cm^3
# Si number density = 21.199293 Si / 1000 Ang^3
#
#
#
# Elastic Constant Matrix: (Units=GPa)
#
#
# Indices 1 2 3 4 5 6 
#
# 1 123.7539 93.4220 4.9772 0.0000 0.0000 0.0000
# 2 93.4220 132.3574 2.9742 0.0000 0.0000 0.0000
# 3 4.9772 2.9742 43.7410 0.0000 0.0000 0.0000
# 4 0.0000 0.0000 0.0000 5.3432 0.0000 0.0000
# 5 0.0000 0.0000 0.0000 0.0000 -7.5533 0.0000
# 6 0.0000 0.0000 0.0000 0.0000 0.0000 32.7923
#
#
#
# Elastic Compliance Matrix: (Units=1/GPa)
#
#
# Indices 1 2 3 4 5 6 
#
# 1 0.017354 -0.012223 -0.001144 0.000000 0.000000 0.000000
# 2 -0.012223 0.016176 0.000291 0.000000 0.000000 0.000000
# 3 -0.001144 0.000291 0.022972 0.000000 0.000000 0.000000
# 4 0.000000 0.000000 0.000000 0.187153 0.000000 0.000000
# 5 0.000000 0.000000 0.000000 0.000000 -0.132393 0.000000
# 6 0.000000 0.000000 0.000000 0.000000 0.000000 0.030495
#
#
# Mechanical properties :
#
#
# Convention : Reuss Voigt Hill
#
# Bulk Modulus (GPa) = 32.94816 55.84434 44.39625
# Shear Modulus (GPa) = 28.08573 19.34836 23.71705
#
# Velocity S-wave (km/s) = 3.64379 3.02435 3.34842
# Velocity P-wave (km/s) = 5.76878 6.21252 5.99475
#
# Compressibility (1/GPa) = 0.03035070
#
# Stress axis : x y z
#
# Youngs Moduli (GPa) = 57.62409 61.81893 43.53094
#
# Poissons Ratio (x) = 0.75562 0.04978
# Poissons Ratio (y) = 0.70435 -0.01266
# Poissons Ratio (z) = 0.06589 -0.01799
#
# Static dielectric constant tensor:
#      x y z
#    x 1.732530 0.000000 0.000000 
#    y 0.000000 1.781430 0.000000 
#    z 0.000000 0.000000 1.848220 
# 
# From -- ./inp_files/6900.got.cif
#   From: 2010.05.17/outbox.cif.g08.bks.cpg/sg63_4_cif.got.tgz:6900.got - 2010.06.03 15:47:04.
