data_PCOD9473166
_publ_section_title
;
Structure prediction by ZEFSAII (Michael W. Deem and Ramdas Pophale) SiO2 
 PCOD9473166
Probable space group: C M C M
;
_chemical_formula_sum "Si O2"
_cell_formula_units_Z 96
_cell_length_a 15.227238
_cell_length_b 16.645988
_cell_length_c 19.973217
_cell_angle_alpha 90.000000
_cell_angle_beta 90.000000
_cell_angle_gamma 90.000000
_cell_volume 5062.659669
_symmetry_space_group_name_H-M "C M C M"
_symmetry_group_IT_number 63
_symmetry_cell_setting 'orthorhombic'
loop_
_space_group_symop_operation_xyz
x,y,z
-x,-y,1/2+z
x,-y,-z
-x,y,1/2-z
-x,-y,-z
x,y,1/2-z
-x,y,z
x,-y,1/2+z
1/2+x,1/2+y,z
1/2-x,1/2-y,1/2+z
1/2+x,1/2-y,-z
1/2-x,1/2+y,1/2-z
1/2-x,1/2-y,-z
1/2+x,1/2+y,1/2-z
1/2-x,1/2+y,z
1/2+x,1/2-y,1/2+z
loop_
_atom_site_type_symbol
_atom_site_label
_atom_site_fract_x
_atom_site_fract_y
_atom_site_fract_z
Si Si1 0.357259 0.391821 0.456960
Si Si2 0.901410 0.289139 0.919439
Si Si3 0.399440 0.962407 0.324687
Si Si4 0.147640 0.587973 0.967224
Si Si5 0.772225 0.616240 0.326835
Si Si6 0.596938 0.555391 0.104953
O O1 0.384767 0.303467 0.435775
O O2 0.252535 0.400339 0.466025
O O3 0.398071 0.411519 0.529156
O O4 0.386611 0.460092 0.404589
O O5 0.825175 0.319944 0.870611
O O6 0.000000 0.299915 0.891833
O O7 0.892891 0.343975 0.985803
O O8 0.387108 0.925900 0.250000
O O9 0.500000 0.992378 0.327238
O O10 0.385033 0.909514 0.390751
O O11 0.331238 0.035415 0.330927
O O12 0.128804 0.500000 0.000000
O O13 0.766779 0.641180 0.250000
O O14 0.676694 0.595174 0.355271
O O15 0.500000 0.570036 0.132990
#
# Coordination Sequence:
#
# PCOD9473166 Si02
#       6
#    16  16  16  16  16  16
#     4  11  20  40  62  92 123 156 199 259 314 362
#     4  12  24  37  61  94 125 159 202 256 311 368
#     4  10  20  36  59  85 118 159 200 244 299 363
#     4  12  20  37  62  90 124 161 203 254 304 366
#     4  11  23  40  59  86 122 163 202 248 307 365
#     4  11  21  40  66  90 118 158 209 257 306 366
#
# _framework density 18.962364999999998
#
# number of rings (size 3 to 8) (size 9 to 14) (size 15 to 20)
#    0.000    0.833    6.667    3.500    0.000    2.000 
#    0.000    1.667    0.000    2.000    0.000    0.000 
#    0.000    0.000    0.000    0.000    0.000    0.000 
#
# Total GULP energy -268167.625948 kJ/mol
# GULP energy per Si atom -5586.825541 kJ/mol
# Density = 1.891921 g / cm^3
# Si number density = 18.962365 Si / 1000 Ang^3
#
#
#
# Elastic Constant Matrix: (Units=GPa)
#
#
# Indices 1 2 3 4 5 6 
#
# 1 155.2814 43.2716 38.2583 0.0000 0.0000 0.0000
# 2 43.2716 108.9943 55.7987 0.0000 0.0000 0.0000
# 3 38.2583 55.7987 117.8492 0.0000 0.0000 0.0000
# 4 0.0000 0.0000 0.0000 8.0718 0.0000 0.0000
# 5 0.0000 0.0000 0.0000 0.0000 16.9378 0.0000
# 6 0.0000 0.0000 0.0000 0.0000 0.0000 -5.8321
#
#
#
# Elastic Compliance Matrix: (Units=1/GPa)
#
#
# Indices 1 2 3 4 5 6 
#
# 1 0.007397 -0.002253 -0.001334 0.000000 0.000000 0.000000
# 2 -0.002253 0.012797 -0.005327 0.000000 0.000000 0.000000
# 3 -0.001334 -0.005327 0.011441 0.000000 0.000000 0.000000
# 4 0.000000 0.000000 0.000000 0.123887 0.000000 0.000000
# 5 0.000000 0.000000 0.000000 0.000000 0.059039 0.000000
# 6 0.000000 0.000000 0.000000 0.000000 0.000000 -0.171464
#
#
# Mechanical properties :
#
#
# Convention : Reuss Voigt Hill
#
# Bulk Modulus (GPa) = 72.44221 72.97581 72.70901
# Shear Modulus (GPa) = 76.30277 20.15526 48.22901
#
# Velocity S-wave (km/s) = 6.35031 3.26376 5.04869
# Velocity P-wave (km/s) = 9.59451 7.26436 8.50957
#
# Compressibility (1/GPa) = 0.01380411
#
# Stress axis : x y z
#
# Youngs Moduli (GPa) = 135.19689 78.14486 87.40522
#
# Poissons Ratio (x) = 0.17610 0.11662
# Poissons Ratio (y) = 0.30466 0.46564
# Poissons Ratio (z) = 0.18039 0.41631
#
# Static dielectric constant tensor:
#      x y z
#    x 1.677100 0.000000 0.000000 
#    y 0.000000 1.635140 0.000000 
#    z 0.000000 0.000000 1.658600 
# 
# From -- ./inp_files/54212.got.cif
#   From: 2010.05.17/outbox.cif.g08.bks.cpg/sg63_28_cif.got.tgz:54212.got - 2010.06.03 15:47:04.
