data_PCOD9473085
_publ_section_title
;
Structure prediction by ZEFSAII (Michael W. Deem and Ramdas Pophale) SiO2 
 PCOD9473085
Probable space group: C M C M
;
_chemical_formula_sum "Si O2"
_cell_formula_units_Z 64
_cell_length_a 7.625700
_cell_length_b 18.548231
_cell_length_c 20.996166
_cell_angle_alpha 90.000000
_cell_angle_beta 90.000000
_cell_angle_gamma 90.000000
_cell_volume 2969.765854
_symmetry_space_group_name_H-M "C M C M"
_symmetry_group_IT_number 63
_symmetry_cell_setting 'orthorhombic'
loop_
_space_group_symop_operation_xyz
x,y,z
-x,-y,1/2+z
x,-y,-z
-x,y,1/2-z
-x,-y,-z
x,y,1/2-z
-x,y,z
x,-y,1/2+z
1/2+x,1/2+y,z
1/2-x,1/2-y,1/2+z
1/2+x,1/2-y,-z
1/2-x,1/2+y,1/2-z
1/2-x,1/2-y,-z
1/2+x,1/2+y,1/2-z
1/2-x,1/2+y,z
1/2+x,1/2-y,1/2+z
loop_
_atom_site_type_symbol
_atom_site_label
_atom_site_fract_x
_atom_site_fract_y
_atom_site_fract_z
Si Si1 0.796250 0.579766 0.494382
Si Si2 0.289793 0.920584 0.250000
Si Si3 0.785089 0.327284 0.875812
Si Si4 0.206623 0.162430 0.620439
Si Si5 0.714133 0.913700 0.750000
O O1 0.716355 0.500000 0.500000
O O2 0.723539 0.630690 0.438790
O O3 0.788803 0.619175 0.561961
O O4 0.000000 0.569130 0.476086
O O5 0.500000 0.922417 0.250000
O O6 0.232433 0.878727 0.313232
O O7 0.226700 0.003370 0.250000
O O8 0.726352 0.244385 0.875165
O O9 0.730855 0.370971 0.813114
O O10 0.000000 0.325288 0.875445
O O11 0.000000 0.165687 0.606771
O O12 0.500000 0.914685 0.750000
#
# Coordination Sequence:
#
# PCOD9473085 Si02
#       5
#    16   8  16  16   8
#     4  10  20  36  58  82 109 145 189 230 267 318
#     4  11  22  37  59  83 108 143 186 228 268 321
#     4   9  18  33  55  82 110 142 180 222 273 327
#     4  11  22  36  56  82 113 145 177 223 280 331
#     4   9  17  33  57  81 104 137 184 230 268 315
#
# _framework density 21.550519999999999
#
# number of rings (size 3 to 8) (size 9 to 14) (size 15 to 20)
#    0.000    2.000    0.000    4.125    0.000    6.500 
#    0.000    1.250    0.000   12.000    0.000    0.000 
#    0.000    0.000    0.000    0.000    0.000    0.000 
#
# Total GULP energy -178883.160586 kJ/mol
# GULP energy per Si atom -5590.098768 kJ/mol
# Density = 2.150147 g / cm^3
# Si number density = 21.550520 Si / 1000 Ang^3
#
#
#
# Elastic Constant Matrix: (Units=GPa)
#
#
# Indices 1 2 3 4 5 6 
#
# 1 42.8101 -7.2611 -26.2809 0.0000 0.0000 0.0000
# 2 -7.2611 243.2747 109.5070 0.0000 0.0000 0.0000
# 3 -26.2809 109.5070 174.9877 0.0000 0.0000 0.0000
# 4 0.0000 0.0000 0.0000 44.3712 0.0000 0.0000
# 5 0.0000 0.0000 0.0000 0.0000 2086.3297 0.0000
# 6 0.0000 0.0000 0.0000 0.0000 0.0000 8.0732
#
#
#
# Elastic Compliance Matrix: (Units=1/GPa)
#
#
# Indices 1 2 3 4 5 6 
#
# 1 0.026055 -0.001370 0.004770 0.000000 0.000000 0.000000
# 2 -0.001370 0.005795 -0.003832 0.000000 0.000000 0.000000
# 3 0.004770 -0.003832 0.008829 0.000000 0.000000 0.000000
# 4 0.000000 0.000000 0.000000 0.022537 0.000000 0.000000
# 5 0.000000 0.000000 0.000000 0.000000 0.000479 0.000000
# 6 0.000000 0.000000 0.000000 0.000000 0.000000 0.123867
#
#
# Mechanical properties :
#
#
# Convention : Reuss Voigt Hill
#
# Bulk Modulus (GPa) = 25.11540 68.11140 46.61340
# Shear Modulus (GPa) = 24.78966 453.42863 239.10914
#
# Velocity S-wave (km/s) = 3.39529 14.52100 10.54484
# Velocity P-wave (km/s) = 5.20098 17.68672 13.03591
#
# Compressibility (1/GPa) = 0.03981621
#
# Stress axis : x y z
#
# Youngs Moduli (GPa) = 38.38023 172.57435 113.26129
#
# Poissons Ratio (x) = 0.23635 -0.54028
# Poissons Ratio (y) = 0.05256 0.43401
# Poissons Ratio (z) = -0.18308 0.66130
#
# Static dielectric constant tensor:
#      x y z
#    x 1.840460 0.000000 0.000000 
#    y 0.000000 1.762700 0.000000 
#    z 0.000000 0.000000 1.679600 
# 
# From -- ./inp_files/50363.got.cif
#   From: 2010.05.17/outbox.cif.g08.bks.cpg/sg63_26_cif.got.tgz:50363.got - 2010.06.03 15:47:04.
