data_PCOD9473061
_publ_section_title
;
Structure prediction by ZEFSAII (Michael W. Deem and Ramdas Pophale) SiO2 
 PCOD9473061
Probable space group: C M C M
;
_chemical_formula_sum "Si O2"
_cell_formula_units_Z 112
_cell_length_a 13.053648
_cell_length_b 13.252689
_cell_length_c 28.010301
_cell_angle_alpha 90.000000
_cell_angle_beta 90.000000
_cell_angle_gamma 90.000000
_cell_volume 4845.668274
_symmetry_space_group_name_H-M "C M C M"
_symmetry_group_IT_number 63
_symmetry_cell_setting 'orthorhombic'
loop_
_space_group_symop_operation_xyz
x,y,z
-x,-y,1/2+z
x,-y,-z
-x,y,1/2-z
-x,-y,-z
x,y,1/2-z
-x,y,z
x,-y,1/2+z
1/2+x,1/2+y,z
1/2-x,1/2-y,1/2+z
1/2+x,1/2-y,-z
1/2-x,1/2+y,1/2-z
1/2-x,1/2-y,-z
1/2+x,1/2+y,1/2-z
1/2-x,1/2+y,z
1/2+x,1/2-y,1/2+z
loop_
_atom_site_type_symbol
_atom_site_label
_atom_site_fract_x
_atom_site_fract_y
_atom_site_fract_z
Si Si1 0.878266 0.239038 0.040380
Si Si2 0.117948 0.867055 0.865368
Si Si3 0.665181 0.169839 0.804396
Si Si4 0.329327 0.954488 0.651909
Si Si5 0.114109 0.771106 0.334745
Si Si6 0.684770 0.965857 0.052525
Si Si7 0.117921 0.141539 0.558851
O O1 0.843424 0.163580 0.081669
O O2 0.850455 0.350604 0.056671
O O3 0.000000 0.232298 0.041364
O O4 0.849940 0.210543 0.986256
O O5 0.121718 0.761353 0.836220
O O6 0.205483 0.939424 0.844163
O O7 0.000000 0.904436 0.865817
O O8 0.632926 0.182389 0.750000
O O9 0.788776 0.181384 0.808544
O O10 0.638847 0.058135 0.822985
O O11 0.376316 0.850004 0.669861
O O12 0.355982 0.968863 0.595989
O O13 0.126890 0.801470 0.390733
O O14 0.000000 0.803352 0.319883
O O15 0.807267 0.953319 0.057250
O O16 0.655270 0.000000 0.000000
O O17 0.000000 0.111823 0.552707
#
# Coordination Sequence:
#
# PCOD9473061 Si02
#       7
#    16  16  16  16  16  16  16
#     4  10  20  36  57  85 125 167 202 242 295 359
#     4  10  22  42  65  89 125 164 202 250 306 366
#     4  11  24  44  65  88 122 159 204 258 310 365
#     4  11  22  38  61  96 123 156 204 258 306 356
#     4  10  22  42  65  89 125 164 202 250 306 366
#     4  12  21  32  56  88 124 163 203 245 299 360
#     4  10  20  36  57  85 125 167 202 242 295 359
#
# _framework density 23.113426
#
# number of rings (size 3 to 8) (size 9 to 14) (size 15 to 20)
#    0.000    1.429    2.857    3.000    0.000    5.714 
#    0.000    0.000    0.000    0.000    0.000    0.000 
#    0.000    0.000    0.000    0.000    0.000    0.000 
#
# Total GULP energy -313293.609165 kJ/mol
# GULP energy per Si atom -5594.528735 kJ/mol
# Density = 2.306082 g / cm^3
# Si number density = 23.113426 Si / 1000 Ang^3
#
#
#
# Elastic Constant Matrix: (Units=GPa)
#
#
# Indices 1 2 3 4 5 6 
#
# 1 37.9874 -17.4608 -3.1974 0.0000 0.0000 0.0000
# 2 -17.4608 88.9923 22.9779 0.0000 0.0000 0.0000
# 3 -3.1974 22.9779 77.8201 0.0000 0.0000 0.0000
# 4 0.0000 0.0000 0.0000 16.6694 0.0000 0.0000
# 5 0.0000 0.0000 0.0000 0.0000 0.9023 0.0000
# 6 0.0000 0.0000 0.0000 0.0000 0.0000 0.1010
#
#
#
# Elastic Compliance Matrix: (Units=1/GPa)
#
#
# Indices 1 2 3 4 5 6 
#
# 1 0.028954 0.005817 -0.000528 0.000000 0.000000 0.000000
# 2 0.005817 0.013333 -0.003698 0.000000 0.000000 0.000000
# 3 -0.000528 -0.003698 0.013920 0.000000 0.000000 0.000000
# 4 0.000000 0.000000 0.000000 0.059990 0.000000 0.000000
# 5 0.000000 0.000000 0.000000 0.000000 1.108321 0.000000
# 6 0.000000 0.000000 0.000000 0.000000 0.000000 9.896516
#
#
# Mechanical properties :
#
#
# Convention : Reuss Voigt Hill
#
# Bulk Modulus (GPa) = 16.83780 23.27103 20.05441
# Shear Modulus (GPa) = 0.44893 17.03320 8.74107
#
# Velocity S-wave (km/s) = 0.44119 2.71761 1.94680
# Velocity P-wave (km/s) = 2.74958 4.46511 3.70793
#
# Compressibility (1/GPa) = 0.05939018
#
# Stress axis : x y z
#
# Youngs Moduli (GPa) = 34.53755 75.00134 71.83740
#
# Poissons Ratio (x) = -0.43630 0.03793
# Poissons Ratio (y) = -0.20091 0.26564
# Poissons Ratio (z) = 0.01824 0.27734
#
# Static dielectric constant tensor:
#      x y z
#    x 1.923650 0.000000 0.000000 
#    y 0.000000 1.824620 0.000000 
#    z 0.000000 0.000000 1.888840 
# 
# From -- ./inp_files/73452.got.cif
#   From: 2010.05.17/outbox.cif.g08.bks.cpg/sg63_37_cif.got.tgz:73452.got - 2010.06.03 15:47:04.
