data_PCOD9473723
_publ_section_title
;
Structure prediction by ZEFSAII (Michael W. Deem and Ramdas Pophale) SiO2 
 PCOD9473723
Probable space group: C M C M
;
_chemical_formula_sum "Si O2"
_cell_formula_units_Z 116
_cell_length_a 23.000827
_cell_length_b 15.602353
_cell_length_c 16.162921
_cell_angle_alpha 90.000000
_cell_angle_beta 90.000000
_cell_angle_gamma 90.000000
_cell_volume 5800.339328
_symmetry_space_group_name_H-M "C M C M"
_symmetry_group_IT_number 63
_symmetry_cell_setting 'orthorhombic'
loop_
_space_group_symop_operation_xyz
x,y,z
-x,-y,1/2+z
x,-y,-z
-x,y,1/2-z
-x,-y,-z
x,y,1/2-z
-x,y,z
x,-y,1/2+z
1/2+x,1/2+y,z
1/2-x,1/2-y,1/2+z
1/2+x,1/2-y,-z
1/2-x,1/2+y,1/2-z
1/2-x,1/2-y,-z
1/2+x,1/2+y,1/2-z
1/2-x,1/2+y,z
1/2+x,1/2-y,1/2+z
loop_
_atom_site_type_symbol
_atom_site_label
_atom_site_fract_x
_atom_site_fract_y
_atom_site_fract_z
Si Si1 0.935074 0.437729 0.078595
Si Si2 0.775251 0.689331 0.849335
Si Si3 0.903179 0.748699 0.604055
Si Si4 0.000000 0.759510 0.750000
Si Si5 0.319991 0.822280 0.850994
Si Si6 0.569607 0.596356 0.512861
Si Si7 0.815177 0.488376 0.152070
Si Si8 0.434197 0.275406 0.348436
O O1 0.923507 0.338291 0.057501
O O2 0.882998 0.465115 0.138808
O O3 0.000000 0.444370 0.115421
O O4 0.932259 0.500000 0.000000
O O5 0.767615 0.683817 0.750000
O O6 0.837868 0.731131 0.865753
O O7 0.724144 0.749724 0.881816
O O8 0.778755 0.591872 0.882261
O O9 0.904821 0.833007 0.548454
O O10 0.948835 0.758717 0.678143
O O11 0.316332 0.824852 0.750000
O O12 0.385365 0.793547 0.870742
O O13 0.305377 0.916949 0.883039
O O14 0.591556 0.500000 0.500000
O O15 0.500000 0.594770 0.497600
O O16 0.578135 0.636084 0.603914
O O17 0.803949 0.492332 0.250000
O O18 0.431583 0.288474 0.250000
O O19 0.500000 0.248153 0.370178
#
# Coordination Sequence:
#
# PCOD9473723 Si02
#       8
#    16  16  16   4  16  16  16  16
#     4  10  21  33  53  84 117 154 189 231 298 353
#     4   9  18  35  57  81 117 154 196 243 295 347
#     4  11  21  37  60  88 121 155 199 249 295 359
#     4  12  20  36  64  96 118 154 202 244 302 354
#     4   9  18  35  57  83 115 152 196 242 290 347
#     4  10  21  39  58  84 121 157 194 247 305 342
#     4   9  19  33  55  81 109 147 192 239 284 346
#     4   9  19  37  61  85 114 155 198 241 294 354
#
# _framework density 19.998830000000002
#
# number of rings (size 3 to 8) (size 9 to 14) (size 15 to 20)
#    0.000    2.345    2.069    0.000    2.897    0.828 
#    3.724    2.069    0.000    0.000    0.000    0.000 
#    0.000    0.000    0.000    0.000    0.000    0.000 
#
# Total GULP energy -323006.236708 kJ/mol
# GULP energy per Si atom -5569.073047 kJ/mol
# Density = 1.995331 g / cm^3
# Si number density = 19.998830 Si / 1000 Ang^3
#
#
#
# Elastic Constant Matrix: (Units=GPa)
#
#
# Indices 1 2 3 4 5 6 
#
# 1 89.0806 65.3346 15.4642 0.0000 0.0000 0.0000
# 2 65.3346 185.8733 29.8842 0.0000 0.0000 0.0000
# 3 15.4642 29.8842 41.3825 0.0000 0.0000 0.0000
# 4 0.0000 0.0000 0.0000 15.3009 0.0000 0.0000
# 5 0.0000 0.0000 0.0000 0.0000 4.4599 0.0000
# 6 0.0000 0.0000 0.0000 0.0000 0.0000 18.3247
#
#
#
# Elastic Compliance Matrix: (Units=1/GPa)
#
#
# Indices 1 2 3 4 5 6 
#
# 1 0.015280 -0.005038 -0.002072 0.000000 0.000000 0.000000
# 2 -0.005038 0.007748 -0.003712 0.000000 0.000000 0.000000
# 3 -0.002072 -0.003712 0.027620 0.000000 0.000000 0.000000
# 4 0.000000 0.000000 0.000000 0.065356 0.000000 0.000000
# 5 0.000000 0.000000 0.000000 0.000000 0.224221 0.000000
# 6 0.000000 0.000000 0.000000 0.000000 0.000000 0.054571
#
#
# Mechanical properties :
#
#
# Convention : Reuss Voigt Hill
#
# Bulk Modulus (GPa) = 34.47858 59.74470 47.11164
# Shear Modulus (GPa) = 11.73411 21.32734 16.53072
#
# Velocity S-wave (km/s) = 2.42490 3.26917 2.87816
# Velocity P-wave (km/s) = 5.01178 6.64747 5.88671
#
# Compressibility (1/GPa) = 0.02900351
#
# Stress axis : x y z
#
# Youngs Moduli (GPa) = 65.44290 129.07026 36.20573
#
# Poissons Ratio (x) = 0.65025 0.07502
# Poissons Ratio (y) = 0.32970 0.13441
# Poissons Ratio (z) = 0.13560 0.47915
#
# Static dielectric constant tensor:
#      x y z
#    x 1.694220 0.000000 0.000000 
#    y 0.000000 1.727500 0.000000 
#    z 0.000000 0.000000 1.707770 
# 
# From -- ./inp_files/48283.got.cif
#   From: 2010.05.17/outbox.cif.g08.bks.cpg/sg63_25_cif.got.tgz:48283.got - 2010.06.03 15:47:04.
