data_PCOD9473385
_publ_section_title
;
Structure prediction by ZEFSAII (Michael W. Deem and Ramdas Pophale) SiO2 
 PCOD9473385
Probable space group: C M C M
;
_chemical_formula_sum "Si O2"
_cell_formula_units_Z 96
_cell_length_a 11.715130
_cell_length_b 24.844500
_cell_length_c 18.445869
_cell_angle_alpha 90.000000
_cell_angle_beta 90.000000
_cell_angle_gamma 90.000000
_cell_volume 5368.790943
_symmetry_space_group_name_H-M "C M C M"
_symmetry_group_IT_number 63
_symmetry_cell_setting 'orthorhombic'
loop_
_space_group_symop_operation_xyz
x,y,z
-x,-y,1/2+z
x,-y,-z
-x,y,1/2-z
-x,-y,-z
x,y,1/2-z
-x,y,z
x,-y,1/2+z
1/2+x,1/2+y,z
1/2-x,1/2-y,1/2+z
1/2+x,1/2-y,-z
1/2-x,1/2+y,1/2-z
1/2-x,1/2-y,-z
1/2+x,1/2+y,1/2-z
1/2-x,1/2+y,z
1/2+x,1/2-y,1/2+z
loop_
_atom_site_type_symbol
_atom_site_label
_atom_site_fract_x
_atom_site_fract_y
_atom_site_fract_z
Si Si1 0.500000 0.828203 0.167402
Si Si2 0.236620 0.720080 0.837627
Si Si3 0.500000 0.043350 0.666678
Si Si4 0.364253 0.325919 0.899004
Si Si5 0.133370 0.140090 0.564366
Si Si6 0.729892 0.027988 0.922746
Si Si7 0.363500 0.441944 0.831872
O O1 0.500000 0.807012 0.250000
O O2 0.618160 0.807744 0.135983
O O3 0.500000 0.891953 0.169465
O O4 0.246480 0.718248 0.750000
O O5 0.217740 0.780623 0.865681
O O6 0.333568 0.684406 0.875451
O O7 0.500000 0.023461 0.750000
O O8 0.386463 0.028316 0.623141
O O9 0.500000 0.314255 0.883259
O O10 0.335737 0.383551 0.864168
O O11 0.351774 0.332827 0.985292
O O12 0.213647 0.087268 0.570264
O O13 0.000000 0.124122 0.570644
O O14 0.816638 0.989530 0.880470
O O15 0.709484 0.000000 0.000000
O O16 0.319933 0.446707 0.750000
O O17 0.500000 0.445128 0.830719
#
# Coordination Sequence:
#
# PCOD9473385 Si02
#       7
#     8  16   8  16  16  16  16
#     4   9  18  33  57  87 109 142 190 245 297 337
#     4  11  21  37  62  89 119 153 198 252 300 352
#     4  11  23  41  63  89 119 153 200 253 301 354
#     4  10  20  37  61  88 119 155 200 247 295 354
#     4  11  24  39  60  90 123 161 198 244 304 360
#     4  12  23  40  63  88 122 161 202 248 302 360
#     4  10  21  36  59  92 124 159 203 249 297 354
#
# _framework density 17.881119999999999
#
# number of rings (size 3 to 8) (size 9 to 14) (size 15 to 20)
#    0.000    1.333    4.167    2.250    0.000    2.333 
#    0.000    0.000    1.833    0.000    0.000    0.000 
#    0.000    0.000    0.000    0.000    0.000    0.000 
#
# Total GULP energy -267814.753944 kJ/mol
# GULP energy per Si atom -5579.474040 kJ/mol
# Density = 1.784042 g / cm^3
# Si number density = 17.881120 Si / 1000 Ang^3
#
#
#
# Elastic Constant Matrix: (Units=GPa)
#
#
# Indices 1 2 3 4 5 6 
#
# 1 59.9719 24.1969 36.2172 0.0000 0.0000 0.0000
# 2 24.1969 90.8193 47.6133 0.0000 0.0000 0.0000
# 3 36.2172 47.6133 128.6842 0.0000 0.0000 0.0000
# 4 0.0000 0.0000 0.0000 85.6984 0.0000 0.0000
# 5 0.0000 0.0000 0.0000 0.0000 226.7444 0.0000
# 6 0.0000 0.0000 0.0000 0.0000 0.0000 18.6973
#
#
#
# Elastic Compliance Matrix: (Units=1/GPa)
#
#
# Indices 1 2 3 4 5 6 
#
# 1 0.020753 -0.003061 -0.004708 0.000000 0.000000 0.000000
# 2 -0.003061 0.014112 -0.004360 0.000000 0.000000 0.000000
# 3 -0.004708 -0.004360 0.010709 0.000000 0.000000 0.000000
# 4 0.000000 0.000000 0.000000 0.011669 0.000000 0.000000
# 5 0.000000 0.000000 0.000000 0.000000 0.004410 0.000000
# 6 0.000000 0.000000 0.000000 0.000000 0.000000 0.053484
#
#
# Mechanical properties :
#
#
# Convention : Reuss Voigt Hill
#
# Bulk Modulus (GPa) = 46.91304 55.05892 50.98598
# Shear Modulus (GPa) = 34.12962 77.65790 55.89376
#
# Velocity S-wave (km/s) = 4.37360 6.59730 5.59700
# Velocity P-wave (km/s) = 7.19705 9.42820 8.38715
#
# Compressibility (1/GPa) = 0.02131603
#
# Stress axis : x y z
#
# Youngs Moduli (GPa) = 48.18651 70.86066 93.37682
#
# Poissons Ratio (x) = 0.21689 0.43964
# Poissons Ratio (y) = 0.14749 0.40713
# Poissons Ratio (z) = 0.22687 0.30896
#
# Static dielectric constant tensor:
#      x y z
#    x 1.614360 0.000000 0.000000 
#    y 0.000000 1.592200 0.000000 
#    z 0.000000 0.000000 1.617490 
# 
# From -- ./inp_files/42570.got.cif
#   From: 2010.05.17/outbox.cif.g08.bks.cpg/sg63_22_cif.got.tgz:42570.got - 2010.06.03 15:47:04.
