data_PCOD9473562
_publ_section_title
;
Structure prediction by ZEFSAII (Michael W. Deem and Ramdas Pophale) SiO2 
 PCOD9473562
Probable space group: C M C M
;
_chemical_formula_sum "Si O2"
_cell_formula_units_Z 112
_cell_length_a 22.389302
_cell_length_b 15.110107
_cell_length_c 16.575754
_cell_angle_alpha 90.000000
_cell_angle_beta 90.000000
_cell_angle_gamma 90.000000
_cell_volume 5607.656294
_symmetry_space_group_name_H-M "C M C M"
_symmetry_group_IT_number 63
_symmetry_cell_setting 'orthorhombic'
loop_
_space_group_symop_operation_xyz
x,y,z
-x,-y,1/2+z
x,-y,-z
-x,y,1/2-z
-x,-y,-z
x,y,1/2-z
-x,y,z
x,-y,1/2+z
1/2+x,1/2+y,z
1/2-x,1/2-y,1/2+z
1/2+x,1/2-y,-z
1/2-x,1/2+y,1/2-z
1/2-x,1/2-y,-z
1/2+x,1/2+y,1/2-z
1/2-x,1/2+y,z
1/2+x,1/2-y,1/2+z
loop_
_atom_site_type_symbol
_atom_site_label
_atom_site_fract_x
_atom_site_fract_y
_atom_site_fract_z
Si Si1 0.067533 0.742524 0.079713
Si Si2 0.147617 0.390019 0.156943
Si Si3 0.430987 0.063999 0.154161
Si Si4 0.245741 0.844611 0.041334
Si Si5 0.851212 0.117783 0.657175
Si Si6 0.647325 0.559048 0.430301
Si Si7 0.930948 0.227596 0.390480
O O1 0.095494 0.651637 0.112400
O O2 0.096456 0.833209 0.109150
O O3 0.000000 0.740960 0.110559
O O4 0.067737 0.741597 0.983670
O O5 0.172410 0.397577 0.250000
O O6 0.107726 0.476672 0.141095
O O7 0.193761 0.380910 0.081800
O O8 0.105227 0.303518 0.155489
O O9 0.432219 0.080384 0.250000
O O10 0.500000 0.049540 0.127023
O O11 0.205889 0.833520 0.121204
O O12 0.293896 0.597056 0.022416
O O13 0.250000 0.750000 0.000000
O O14 0.860812 0.131517 0.750000
O O15 0.840720 0.014747 0.636998
O O16 0.615405 0.500000 0.500000
O O17 0.607171 0.637076 0.394632
O O18 0.000000 0.216280 0.363745
#
# Coordination Sequence:
#
# PCOD9473562 Si02
#       7
#    16  16  16  16  16  16  16
#     4  10  20  38  65  94 128 171 217 261 311 380
#     4  11  23  41  64  93 129 168 210 267 328 382
#     4   9  19  37  60  91 131 167 204 258 319 379
#     4  11  21  44  67  85 119 167 217 260 316 377
#     4  11  23  41  63  94 129 163 210 268 323 374
#     4  10  21  42  63  91 121 166 210 264 316 373
#     4  11  22  39  65  96 127 167 213 258 319 389
#
# _framework density 19.972694000000001
#
# number of rings (size 3 to 8) (size 9 to 14) (size 15 to 20)
#    0.000    1.571    4.286    1.286    0.000    3.714 
#   15.429    2.143    0.000    0.000    0.000    0.000 
#    0.000    0.000    0.000    0.000    0.000    0.000 
#
# Total GULP energy -312108.437488 kJ/mol
# GULP energy per Si atom -5573.364955 kJ/mol
# Density = 1.992723 g / cm^3
# Si number density = 19.972694 Si / 1000 Ang^3
#
#
#
# Elastic Constant Matrix: (Units=GPa)
#
#
# Indices 1 2 3 4 5 6 
#
# 1 74.9052 38.2694 21.1434 0.0000 0.0000 0.0000
# 2 38.2694 132.0810 25.4733 0.0000 0.0000 0.0000
# 3 21.1434 25.4733 53.0320 0.0000 0.0000 0.0000
# 4 0.0000 0.0000 0.0000 24.1980 0.0000 0.0000
# 5 0.0000 0.0000 0.0000 0.0000 14.7712 0.0000
# 6 0.0000 0.0000 0.0000 0.0000 0.0000 28.6857
#
#
#
# Elastic Compliance Matrix: (Units=1/GPa)
#
#
# Indices 1 2 3 4 5 6 
#
# 1 0.016700 -0.003917 -0.004776 0.000000 0.000000 0.000000
# 2 -0.003917 0.009263 -0.002888 0.000000 0.000000 0.000000
# 3 -0.004776 -0.002888 0.022148 0.000000 0.000000 0.000000
# 4 0.000000 0.000000 0.000000 0.041326 0.000000 0.000000
# 5 0.000000 0.000000 0.000000 0.000000 0.067699 0.000000
# 6 0.000000 0.000000 0.000000 0.000000 0.000000 0.034861
#
#
# Mechanical properties :
#
#
# Convention : Reuss Voigt Hill
#
# Bulk Modulus (GPa) = 40.08339 47.75449 43.91894
# Shear Modulus (GPa) = 22.37386 25.20647 23.79017
#
# Velocity S-wave (km/s) = 3.35060 3.55638 3.45503
# Velocity P-wave (km/s) = 5.92295 6.38949 6.16064
#
# Compressibility (1/GPa) = 0.02494799
#
# Stress axis : x y z
#
# Youngs Moduli (GPa) = 59.88068 107.95569 45.15112
#
# Poissons Ratio (x) = 0.42291 0.21566
# Poissons Ratio (y) = 0.23458 0.13038
# Poissons Ratio (z) = 0.28601 0.31173
#
# Static dielectric constant tensor:
#      x y z
#    x 1.743200 0.000000 0.000000 
#    y 0.000000 1.670230 0.000000 
#    z 0.000000 0.000000 1.783570 
# 
# From -- ./inp_files/36953.got.cif
#   From: 2010.05.17/outbox.cif.g08.bks.cpg/sg63_19_cif.got.tgz:36953.got - 2010.06.03 15:47:04.
