data_PCOD9473390
_publ_section_title
;
Structure prediction by ZEFSAII (Michael W. Deem and Ramdas Pophale) SiO2 
 PCOD9473390
Probable space group: C M C M
;
_chemical_formula_sum "Si O2"
_cell_formula_units_Z 116
_cell_length_a 9.044027
_cell_length_b 23.787251
_cell_length_c 26.415596
_cell_angle_alpha 90.000000
_cell_angle_beta 90.000000
_cell_angle_gamma 90.000000
_cell_volume 5682.854271
_symmetry_space_group_name_H-M "C M C M"
_symmetry_group_IT_number 63
_symmetry_cell_setting 'orthorhombic'
loop_
_space_group_symop_operation_xyz
x,y,z
-x,-y,1/2+z
x,-y,-z
-x,y,1/2-z
-x,-y,-z
x,y,1/2-z
-x,y,z
x,-y,1/2+z
1/2+x,1/2+y,z
1/2-x,1/2-y,1/2+z
1/2+x,1/2-y,-z
1/2-x,1/2+y,1/2-z
1/2-x,1/2-y,-z
1/2+x,1/2+y,1/2-z
1/2-x,1/2+y,z
1/2+x,1/2-y,1/2+z
loop_
_atom_site_type_symbol
_atom_site_label
_atom_site_fract_x
_atom_site_fract_y
_atom_site_fract_z
Si Si1 0.676695 0.856591 0.968945
Si Si2 0.672266 0.970269 0.804075
Si Si3 0.500000 0.334485 0.250000
Si Si4 0.321539 0.024374 0.416064
Si Si5 0.839158 0.831016 0.144194
Si Si6 0.673621 0.413378 0.059948
Si Si7 0.828306 0.224968 0.393908
Si Si8 0.333150 0.835047 0.692924
O O1 0.500000 0.853676 0.974222
O O2 0.737553 0.802269 0.940021
O O3 0.712974 0.913176 0.936103
O O4 0.754764 0.868202 0.022180
O O5 0.739363 0.988735 0.750000
O O6 0.500000 0.988484 0.804071
O O7 0.736571 0.984149 0.858602
O O8 0.669180 0.902269 0.804088
O O9 0.372478 0.334088 0.204027
O O10 0.500000 0.020516 0.416079
O O11 0.255052 0.972634 0.446703
O O12 0.806231 0.889852 0.116931
O O13 0.722914 0.785756 0.125227
O O14 0.000000 0.812813 0.122211
O O15 0.500000 0.419910 0.049708
O O16 0.786803 0.186230 0.345727
O O17 0.000000 0.223693 0.406014
O O18 0.314427 0.812689 0.750000
O O19 0.500000 0.818257 0.676019
#
# Coordination Sequence:
#
# PCOD9473390 Si02
#       8
#    16  16   4  16  16  16  16  16
#     4  11  23  41  65  91 125 172 218 255 312 393
#     4   8  14  29  52  81 114 153 201 250 298 364
#     4   8  20  48  78  88 114 172 228 252 286 398
#     4  10  20  37  61  89 122 166 219 263 309 383
#     4   9  22  44  68  89 118 164 217 248 306 381
#     4  11  24  42  62  91 121 161 209 272 322 368
#     4  12  24  36  58  95 132 161 199 266 328 372
#     4   9  17  31  55  80 114 163 205 243 300 380
#
# _framework density 20.412278000000001
#
# number of rings (size 3 to 8) (size 9 to 14) (size 15 to 20)
#    0.414    1.655    1.379    3.310    0.966    4.690 
#    1.241    0.000    0.000    0.000    0.000    0.000 
#    0.000    0.000    0.000    0.000    0.000    0.000 
#
# Total GULP energy -322882.350606 kJ/mol
# GULP energy per Si atom -5566.937079 kJ/mol
# Density = 2.036582 g / cm^3
# Si number density = 20.412278 Si / 1000 Ang^3
#
#
#
# Elastic Constant Matrix: (Units=GPa)
#
#
# Indices 1 2 3 4 5 6 
#
# 1 43.7234 23.7473 18.8691 0.0000 0.0000 0.0000
# 2 23.7473 49.0731 28.7111 0.0000 0.0000 0.0000
# 3 18.8691 28.7111 95.1910 0.0000 0.0000 0.0000
# 4 0.0000 0.0000 0.0000 10.6436 0.0000 0.0000
# 5 0.0000 0.0000 0.0000 0.0000 30.9897 0.0000
# 6 0.0000 0.0000 0.0000 0.0000 0.0000 13.5371
#
#
#
# Elastic Compliance Matrix: (Units=1/GPa)
#
#
# Indices 1 2 3 4 5 6 
#
# 1 0.031332 -0.013999 -0.001989 0.000000 0.000000 0.000000
# 2 -0.013999 0.030999 -0.006575 0.000000 0.000000 0.000000
# 3 -0.001989 -0.006575 0.012882 0.000000 0.000000 0.000000
# 4 0.000000 0.000000 0.000000 0.093953 0.000000 0.000000
# 5 0.000000 0.000000 0.000000 0.000000 0.032269 0.000000
# 6 0.000000 0.000000 0.000000 0.000000 0.000000 0.073871
#
#
# Mechanical properties :
#
#
# Convention : Reuss Voigt Hill
#
# Bulk Modulus (GPa) = 33.23453 36.73805 34.98629
# Shear Modulus (GPa) = 15.13037 18.81139 16.97088
#
# Velocity S-wave (km/s) = 2.72552 3.03903 2.88654
# Velocity P-wave (km/s) = 5.12071 5.50921 5.31851
#
# Compressibility (1/GPa) = 0.03008918
#
# Stress axis : x y z
#
# Youngs Moduli (GPa) = 31.91588 32.25936 77.62506
#
# Poissons Ratio (x) = 0.45159 0.15436
# Poissons Ratio (y) = 0.44678 0.51037
# Poissons Ratio (z) = 0.06347 0.21210
#
# Static dielectric constant tensor:
#      x y z
#    x 1.686080 0.000000 0.000000 
#    y 0.000000 1.740520 0.000000 
#    z 0.000000 0.000000 1.791530 
# 
# From -- ./inp_files/67468.got.cif
#   From: 2010.05.17/outbox.cif.g08.bks.cpg/sg63_34_cif.got.tgz:67468.got - 2010.06.03 15:47:04.
