data_PCOD9473782
_publ_section_title
;
Structure prediction by ZEFSAII (Michael W. Deem and Ramdas Pophale) SiO2 
 PCOD9473782
Probable space group: C M C M
;
_chemical_formula_sum "Si O2"
_cell_formula_units_Z 112
_cell_length_a 14.211737
_cell_length_b 29.584108
_cell_length_c 13.593089
_cell_angle_alpha 90.000000
_cell_angle_beta 90.000000
_cell_angle_gamma 90.000000
_cell_volume 5715.099575
_symmetry_space_group_name_H-M "C M C M"
_symmetry_group_IT_number 63
_symmetry_cell_setting 'orthorhombic'
loop_
_space_group_symop_operation_xyz
x,y,z
-x,-y,1/2+z
x,-y,-z
-x,y,1/2-z
-x,-y,-z
x,y,1/2-z
-x,y,z
x,-y,1/2+z
1/2+x,1/2+y,z
1/2-x,1/2-y,1/2+z
1/2+x,1/2-y,-z
1/2-x,1/2+y,1/2-z
1/2-x,1/2-y,-z
1/2+x,1/2+y,1/2-z
1/2-x,1/2+y,z
1/2+x,1/2-y,1/2+z
loop_
_atom_site_type_symbol
_atom_site_label
_atom_site_fract_x
_atom_site_fract_y
_atom_site_fract_z
Si Si1 0.294346 0.220301 0.366726
Si Si2 0.113080 0.030522 0.644751
Si Si3 0.601489 0.232742 0.866082
Si Si4 0.108912 0.187345 0.865274
Si Si5 0.887832 0.931581 0.930621
Si Si6 0.391313 0.123539 0.637476
Si Si7 0.251383 0.363448 0.986309
O O1 0.289687 0.211100 0.250000
O O2 0.194608 0.242184 0.400650
O O3 0.371588 0.259356 0.379872
O O4 0.305596 0.174872 0.427562
O O5 0.151048 0.046629 0.750000
O O6 0.134515 0.056904 0.545177
O O7 0.000000 0.033289 0.649181
O O8 0.133440 0.977461 0.628129
O O9 0.597373 0.243287 0.750000
O O10 0.500000 0.245828 0.909933
O O11 0.611673 0.178554 0.870092
O O12 0.131694 0.177976 0.750000
O O13 0.177196 0.160077 0.936521
O O14 0.000000 0.175771 0.881925
O O15 0.000000 0.921897 0.920438
O O16 0.817347 0.890832 0.910622
O O17 0.364238 0.112080 0.750000
O O18 0.500000 0.110108 0.623331
O O19 0.321521 0.107878 0.552196
#
# Coordination Sequence:
#
# PCOD9473782 Si02
#       7
#    16  16  16  16  16  16  16
#     4  10  21  35  45  62  94 132 173 209 244 289
#     4   8  15  32  55  73  97 136 166 186 228 292
#     4   8  14  27  45  60  79 114 162 209 241 270
#     4  10  21  35  48  65  95 133 170 210 256 303
#     4   9  19  32  47  76 110 129 156 198 236 292
#     4   9  18  32  49  68  91 121 162 212 255 288
#     4  12  21  31  49  76  99 129 163 210 257 295
#
# _framework density 19.597207999999998
#
# number of rings (size 3 to 8) (size 9 to 14) (size 15 to 20)
#    0.000    2.571    1.429    3.000    0.000    3.429 
#    0.000    1.429    0.000    0.000    0.000    2.000 
#    0.000    1.143    0.000    0.000    0.000    0.000 
#
# Total GULP energy -312359.815533 kJ/mol
# GULP energy per Si atom -5577.853849 kJ/mol
# Density = 1.955260 g / cm^3
# Si number density = 19.597208 Si / 1000 Ang^3
#
#
#
# Elastic Constant Matrix: (Units=GPa)
#
#
# Indices 1 2 3 4 5 6 
#
# 1 63.0834 1.3782 9.9570 0.0000 0.0000 0.0000
# 2 1.3782 21.2051 -8.0419 0.0000 0.0000 0.0000
# 3 9.9570 -8.0419 56.1894 0.0000 0.0000 0.0000
# 4 0.0000 0.0000 0.0000 -1.5047 0.0000 0.0000
# 5 0.0000 0.0000 0.0000 0.0000 19.1116 0.0000
# 6 0.0000 0.0000 0.0000 0.0000 0.0000 20.6003
#
#
#
# Elastic Compliance Matrix: (Units=1/GPa)
#
#
# Indices 1 2 3 4 5 6 
#
# 1 0.016413 -0.002294 -0.003237 0.000000 0.000000 0.000000
# 2 -0.002294 0.050186 0.007589 0.000000 0.000000 0.000000
# 3 -0.003237 0.007589 0.019457 0.000000 0.000000 0.000000
# 4 0.000000 0.000000 0.000000 -0.664602 0.000000 0.000000
# 5 0.000000 0.000000 0.000000 0.000000 0.052324 0.000000
# 6 0.000000 0.000000 0.000000 0.000000 0.000000 0.048543
#
#
# Mechanical properties :
#
#
# Convention : Reuss Voigt Hill
#
# Bulk Modulus (GPa) = 11.08999 16.34052 13.71525
# Shear Modulus (GPa) = -11.06835 16.78708 2.85936
#
# Velocity S-wave (km/s) = -2.37911 2.92996 1.20923
# Velocity P-wave (km/s) = 1.36955 4.45000 2.99390
#
# Compressibility (1/GPa) = 0.09017144
#
# Stress axis : x y z
#
# Youngs Moduli (GPa) = 60.92711 19.92602 51.39617
#
# Poissons Ratio (x) = 0.04572 0.16636
# Poissons Ratio (y) = 0.13978 -0.39005
# Poissons Ratio (z) = 0.19721 -0.15122
#
# Static dielectric constant tensor:
#      x y z
#    x 1.703630 0.000000 0.000000 
#    y 0.000000 1.698880 0.000000 
#    z 0.000000 0.000000 1.757740 
# 
# From -- ./inp_files/32744.got.cif
#   From: 2010.05.17/outbox.cif.g08.bks.cpg/sg63_17_cif.got.tgz:32744.got - 2010.06.03 15:47:04.
