data_PCOD9473182
_publ_section_title
;
Structure prediction by ZEFSAII (Michael W. Deem and Ramdas Pophale) SiO2 
 PCOD9473182
Probable space group: C M C M
;
_chemical_formula_sum "Si O2"
_cell_formula_units_Z 88
_cell_length_a 17.239085
_cell_length_b 31.094463
_cell_length_c 8.319324
_cell_angle_alpha 90.000000
_cell_angle_beta 90.000000
_cell_angle_gamma 90.000000
_cell_volume 4459.491191
_symmetry_space_group_name_H-M "C M C M"
_symmetry_group_IT_number 63
_symmetry_cell_setting 'orthorhombic'
loop_
_space_group_symop_operation_xyz
x,y,z
-x,-y,1/2+z
x,-y,-z
-x,y,1/2-z
-x,-y,-z
x,y,1/2-z
-x,y,z
x,-y,1/2+z
1/2+x,1/2+y,z
1/2-x,1/2-y,1/2+z
1/2+x,1/2-y,-z
1/2-x,1/2+y,1/2-z
1/2-x,1/2-y,-z
1/2+x,1/2+y,1/2-z
1/2-x,1/2+y,z
1/2+x,1/2-y,1/2+z
loop_
_atom_site_type_symbol
_atom_site_label
_atom_site_fract_x
_atom_site_fract_y
_atom_site_fract_z
Si Si1 0.088964 0.938591 0.250000
Si Si2 0.763586 0.953560 0.431047
Si Si3 0.587446 0.335694 0.250000
Si Si4 0.346678 0.706113 0.430251
Si Si5 0.679997 0.801143 0.064262
Si Si6 0.500000 0.951069 0.943616
Si Si7 0.642754 0.891599 0.560393
O O1 0.143426 0.951650 0.098383
O O2 0.088643 0.887133 0.250000
O O3 0.000000 0.954031 0.250000
O O4 0.731604 0.949388 0.250000
O O5 0.725283 0.914950 0.528939
O O6 0.742747 0.000000 0.500000
O O7 0.500000 0.319647 0.250000
O O8 0.623536 0.319878 0.417147
O O9 0.370477 0.692408 0.250000
O O10 0.366768 0.756680 0.451351
O O11 0.253397 0.702739 0.446072
O O12 0.707653 0.802225 0.250000
O O13 0.638559 0.845798 0.026342
O O14 0.500000 0.951757 0.750000
O O15 0.423678 0.924704 0.995149
O O16 0.500000 0.000000 0.000000
O O17 0.633228 0.884463 0.750000
#
# Coordination Sequence:
#
# PCOD9473182 Si02
#       7
#     8  16   8  16  16   8  16
#     4   9  22  40  62  88 121 157 193 247 312 384
#     4  10  21  37  61  87 116 153 195 250 300 368
#     4  11  22  40  62  87 123 165 201 246 312 364
#     4  10  21  37  61  90 121 163 208 258 309 373
#     4  10  20  36  59  89 121 155 207 256 311 363
#     4  10  24  42  58  84 118 166 212 264 322 380
#     4  11  22  37  60  89 122 162 209 260 310 374
#
# _framework density 19.733193
#
# number of rings (size 3 to 8) (size 9 to 14) (size 15 to 20)
#    0.545    1.273    0.909    3.273    2.545    3.636 
#    1.636    0.909    0.000    2.182    0.000    0.000 
#    0.000    0.000    0.000    0.000    0.000    0.000 
#
# Total GULP energy -245286.484324 kJ/mol
# GULP energy per Si atom -5574.692826 kJ/mol
# Density = 1.968828 g / cm^3
# Si number density = 19.733193 Si / 1000 Ang^3
#
#
#
# Elastic Constant Matrix: (Units=GPa)
#
#
# Indices 1 2 3 4 5 6 
#
# 1 47.0531 -1.1771 -0.7886 0.0000 0.0000 0.0000
# 2 -1.1771 91.8299 15.2678 0.0000 0.0000 0.0000
# 3 -0.7886 15.2678 80.1128 0.0000 0.0000 0.0000
# 4 0.0000 0.0000 0.0000 25.2352 0.0000 0.0000
# 5 0.0000 0.0000 0.0000 0.0000 13.0000 0.0000
# 6 0.0000 0.0000 0.0000 0.0000 0.0000 21.3098
#
#
#
# Elastic Compliance Matrix: (Units=1/GPa)
#
#
# Indices 1 2 3 4 5 6 
#
# 1 0.021261 0.000246 0.000162 0.000000 0.000000 0.000000
# 2 0.000246 0.011249 -0.002141 0.000000 0.000000 0.000000
# 3 0.000162 -0.002141 0.012892 0.000000 0.000000 0.000000
# 4 0.000000 0.000000 0.000000 0.039627 0.000000 0.000000
# 5 0.000000 0.000000 0.000000 0.000000 0.076923 0.000000
# 6 0.000000 0.000000 0.000000 0.000000 0.000000 0.046927
#
#
# Mechanical properties :
#
#
# Convention : Reuss Voigt Hill
#
# Bulk Modulus (GPa) = 23.84604 27.28889 25.56747
# Shear Modulus (GPa) = 22.09212 25.62191 23.85702
#
# Velocity S-wave (km/s) = 3.34958 3.60726 3.48081
# Velocity P-wave (km/s) = 5.20289 5.58648 5.39809
#
# Compressibility (1/GPa) = 0.04193569
#
# Stress axis : x y z
#
# Youngs Moduli (GPa) = 47.03348 88.89783 77.56694
#
# Poissons Ratio (x) = -0.02183 -0.01260
# Poissons Ratio (y) = -0.01155 0.16610
# Poissons Ratio (z) = -0.00764 0.19036
#
# Static dielectric constant tensor:
#      x y z
#    x 1.737870 0.000000 0.000000 
#    y 0.000000 1.680050 0.000000 
#    z 0.000000 0.000000 1.710970 
# 
# From -- ./inp_files/6926.got.cif
#   From: 2010.05.17/outbox.cif.g08.bks.cpg/sg63_4_cif.got.tgz:6926.got - 2010.06.03 15:47:04.
