data_PCOD9473288
_publ_section_title
;
Structure prediction by ZEFSAII (Michael W. Deem and Ramdas Pophale) SiO2 
 PCOD9473288
Probable space group: C M C M
;
_chemical_formula_sum "Si O2"
_cell_formula_units_Z 88
_cell_length_a 21.477683
_cell_length_b 11.817180
_cell_length_c 19.640334
_cell_angle_alpha 90.000000
_cell_angle_beta 90.000000
_cell_angle_gamma 90.000000
_cell_volume 4984.827658
_symmetry_space_group_name_H-M "C M C M"
_symmetry_group_IT_number 63
_symmetry_cell_setting 'orthorhombic'
loop_
_space_group_symop_operation_xyz
x,y,z
-x,-y,1/2+z
x,-y,-z
-x,y,1/2-z
-x,-y,-z
x,y,1/2-z
-x,y,z
x,-y,1/2+z
1/2+x,1/2+y,z
1/2-x,1/2-y,1/2+z
1/2+x,1/2-y,-z
1/2-x,1/2+y,1/2-z
1/2-x,1/2-y,-z
1/2+x,1/2+y,1/2-z
1/2-x,1/2+y,z
1/2+x,1/2-y,1/2+z
loop_
_atom_site_type_symbol
_atom_site_label
_atom_site_fract_x
_atom_site_fract_y
_atom_site_fract_z
Si Si1 0.168416 0.920727 0.100304
Si Si2 0.500000 0.771597 0.328951
Si Si3 0.716951 0.389920 0.250000
Si Si4 0.723708 0.000000 0.000000
Si Si5 0.000000 0.373898 0.026909
Si Si6 0.864453 0.713057 0.493414
Si Si7 0.374276 0.650864 0.374058
Si Si8 0.278934 0.358720 0.750000
O O1 0.179472 0.895501 0.179470
O O2 0.147267 0.808750 0.062012
O O3 0.231164 0.964141 0.062188
O O4 0.120446 0.025207 0.094936
O O5 0.500000 0.810358 0.250000
O O6 0.500000 0.863334 0.390430
O O7 0.438258 0.697820 0.343363
O O8 0.752985 0.514528 0.250000
O O9 0.746608 0.264319 0.250000
O O10 0.679221 0.894990 0.981547
O O11 0.937054 0.317625 0.999206
O O12 0.000000 0.500000 0.000000
O O13 0.849523 0.766825 0.567077
O O14 0.322911 0.642701 0.315865
#
# Coordination Sequence:
#
# PCOD9473288 Si02
#       8
#    16   8   8   8   8  16  16   8
#     4  11  23  38  58  90 122 159 201 244 310 367
#     4  10  20  37  65  89 115 156 206 257 311 357
#     4  10  24  36  56  82 126 160 198 251 305 378
#     4  12  22  35  64  89 126 156 200 250 296 376
#     4  10  22  43  63  89 123 157 210 254 302 362
#     4  11  22  38  62  87 120 161 201 247 304 358
#     4  10  20  37  58  87 118 154 200 254 295 365
#     4  10  20  37  54  82 124 151 200 247 309 362
#
# _framework density 17.653569999999998
#
# number of rings (size 3 to 8) (size 9 to 14) (size 15 to 20)
#    0.000    1.455    3.636    1.636    5.091    0.727 
#    0.000    2.727    2.000    0.000    0.000    0.000 
#    0.000    0.000    0.000    0.000    0.000    0.000 
#
# Total GULP energy -245251.303681 kJ/mol
# GULP energy per Si atom -5573.893265 kJ/mol
# Density = 1.761339 g / cm^3
# Si number density = 17.653570 Si / 1000 Ang^3
#
#
#
# Elastic Constant Matrix: (Units=GPa)
#
#
# Indices 1 2 3 4 5 6 
#
# 1 49.9852 38.0728 49.6279 0.0000 0.0000 0.0000
# 2 38.0728 149.0170 57.5983 0.0000 0.0000 0.0000
# 3 49.6279 57.5983 121.8669 0.0000 0.0000 0.0000
# 4 0.0000 0.0000 0.0000 21.7220 0.0000 0.0000
# 5 0.0000 0.0000 0.0000 0.0000 17.7861 0.0000
# 6 0.0000 0.0000 0.0000 0.0000 0.0000 14.4444
#
#
#
# Elastic Compliance Matrix: (Units=1/GPa)
#
#
# Indices 1 2 3 4 5 6 
#
# 1 0.035688 -0.004283 -0.012509 0.000000 0.000000 0.000000
# 2 -0.004283 0.008725 -0.002379 0.000000 0.000000 0.000000
# 3 -0.012509 -0.002379 0.014424 0.000000 0.000000 0.000000
# 4 0.000000 0.000000 0.000000 0.046036 0.000000 0.000000
# 5 0.000000 0.000000 0.000000 0.000000 0.056224 0.000000
# 6 0.000000 0.000000 0.000000 0.000000 0.000000 0.069231
#
#
# Mechanical properties :
#
#
# Convention : Reuss Voigt Hill
#
# Bulk Modulus (GPa) = 48.79463 67.94079 58.36771
# Shear Modulus (GPa) = 18.14876 22.49517 20.32197
#
# Velocity S-wave (km/s) = 3.20980 3.57355 3.39655
# Velocity P-wave (km/s) = 6.43717 7.45628 6.96539
#
# Compressibility (1/GPa) = 0.02049406
#
# Stress axis : x y z
#
# Youngs Moduli (GPa) = 28.02099 114.61849 69.32799
#
# Poissons Ratio (x) = 0.49091 0.86721
# Poissons Ratio (y) = 0.12001 0.16496
# Poissons Ratio (z) = 0.35051 0.27272
#
# Static dielectric constant tensor:
#      x y z
#    x 1.596760 0.000000 0.000000 
#    y 0.000000 1.648460 0.000000 
#    z 0.000000 0.000000 1.608530 
# 
# From -- ./inp_files/57438.got.cif
#   From: 2010.05.17/outbox.cif.g08.bks.cpg/sg63_29_cif.got.tgz:57438.got - 2010.06.03 15:47:04.
