data_PCOD9473758
_publ_section_title
;
Structure prediction by ZEFSAII (Michael W. Deem and Ramdas Pophale) SiO2 
 PCOD9473758
Probable space group: C M C M
;
_chemical_formula_sum "Si O2"
_cell_formula_units_Z 68
_cell_length_a 22.055797
_cell_length_b 17.562198
_cell_length_c 7.466094
_cell_angle_alpha 90.000000
_cell_angle_beta 90.000000
_cell_angle_gamma 90.000000
_cell_volume 2891.978624
_symmetry_space_group_name_H-M "C M C M"
_symmetry_group_IT_number 63
_symmetry_cell_setting 'orthorhombic'
loop_
_space_group_symop_operation_xyz
x,y,z
-x,-y,1/2+z
x,-y,-z
-x,y,1/2-z
-x,-y,-z
x,y,1/2-z
-x,y,z
x,-y,1/2+z
1/2+x,1/2+y,z
1/2-x,1/2-y,1/2+z
1/2+x,1/2-y,-z
1/2-x,1/2+y,1/2-z
1/2-x,1/2-y,-z
1/2+x,1/2+y,1/2-z
1/2-x,1/2+y,z
1/2+x,1/2-y,1/2+z
loop_
_atom_site_type_symbol
_atom_site_label
_atom_site_fract_x
_atom_site_fract_y
_atom_site_fract_z
Si Si1 0.770743 0.416448 0.536619
Si Si2 0.607105 0.149279 0.541761
Si Si3 0.672938 0.699196 0.452322
Si Si4 0.932553 0.089353 0.962911
Si Si5 0.000000 0.626596 0.250000
O O1 0.743691 0.500000 0.500000
O O2 0.773773 0.408300 0.750000
O O3 0.838228 0.411289 0.460113
O O4 0.729445 0.346638 0.465885
O O5 0.587586 0.160823 0.750000
O O6 0.641302 0.225865 0.470895
O O7 0.553201 0.129028 0.408357
O O8 0.690331 0.720209 0.250000
O O9 0.619874 0.636842 0.448312
O O10 0.928688 0.101674 0.750000
O O11 0.000000 0.113378 0.022102
O O12 0.926746 0.000000 0.000000
#
# Coordination Sequence:
#
# PCOD9473758 Si02
#       5
#    16  16  16  16   4
#     4  11  23  44  70 101 142 182 232 292 350 414
#     4  11  25  46  73 105 141 181 233 290 351 413
#     4  10  23  39  64  99 135 179 225 277 342 409
#     4  10  21  34  52  80 123 173 225 278 335 402
#     4  12  26  48  74 102 144 180 236 286 354 420
#
# _framework density 23.513313
#
# number of rings (size 3 to 8) (size 9 to 14) (size 15 to 20)
#    0.000    1.412    1.176    3.176    3.294    5.176 
#    0.000    0.588    0.000    0.000    0.000    0.000 
#    0.000    0.000    0.000    0.000    0.000    0.000 
#
# Total GULP energy -189575.238912 kJ/mol
# GULP energy per Si atom -5575.742321 kJ/mol
# Density = 2.345980 g / cm^3
# Si number density = 23.513313 Si / 1000 Ang^3
#
#
#
# Elastic Constant Matrix: (Units=GPa)
#
#
# Indices 1 2 3 4 5 6 
#
# 1 112.1617 2.7075 24.9788 0.0000 0.0000 0.0000
# 2 2.7075 26.5986 0.5911 0.0000 0.0000 0.0000
# 3 24.9788 0.5911 135.7566 0.0000 0.0000 0.0000
# 4 0.0000 0.0000 0.0000 18.7302 0.0000 0.0000
# 5 0.0000 0.0000 0.0000 0.0000 81.7113 0.0000
# 6 0.0000 0.0000 0.0000 0.0000 0.0000 17.5583
#
#
#
# Elastic Compliance Matrix: (Units=1/GPa)
#
#
# Indices 1 2 3 4 5 6 
#
# 1 0.009319 -0.000911 -0.001711 0.000000 0.000000 0.000000
# 2 -0.000911 0.037689 0.000003 0.000000 0.000000 0.000000
# 3 -0.001711 0.000003 0.007681 0.000000 0.000000 0.000000
# 4 0.000000 0.000000 0.000000 0.053390 0.000000 0.000000
# 5 0.000000 0.000000 0.000000 0.000000 0.012238 0.000000
# 6 0.000000 0.000000 0.000000 0.000000 0.000000 0.056953
#
#
# Mechanical properties :
#
#
# Convention : Reuss Voigt Hill
#
# Bulk Modulus (GPa) = 20.22139 36.78575 28.50357
# Shear Modulus (GPa) = 25.12705 40.01593 32.57149
#
# Velocity S-wave (km/s) = 3.27254 4.12981 3.72591
# Velocity P-wave (km/s) = 4.78518 6.19831 5.53702
#
# Compressibility (1/GPa) = 0.04945258
#
# Stress axis : x y z
#
# Youngs Moduli (GPa) = 107.31178 26.53326 130.19375
#
# Poissons Ratio (x) = 0.02416 0.22271
# Poissons Ratio (y) = 0.09771 -0.00045
# Poissons Ratio (z) = 0.18357 -0.00009
#
# Static dielectric constant tensor:
#      x y z
#    x 1.872370 0.000000 0.000000 
#    y 0.000000 1.912630 0.000000 
#    z 0.000000 0.000000 1.758950 
# 
# From -- ./inp_files/7616.got.cif
#   From: 2010.05.17/outbox.cif.g08.bks.cpg/sg63_4_cif.got.tgz:7616.got - 2010.06.03 15:47:04.
