data_PCOD9473484
_publ_section_title
;
Structure prediction by ZEFSAII (Michael W. Deem and Ramdas Pophale) SiO2 
 PCOD9473484
Probable space group: C M C M
;
_chemical_formula_sum "Si O2"
_cell_formula_units_Z 72
_cell_length_a 27.662986
_cell_length_b 14.240076
_cell_length_c 10.206728
_cell_angle_alpha 90.000000
_cell_angle_beta 90.000000
_cell_angle_gamma 90.000000
_cell_volume 4020.665149
_symmetry_space_group_name_H-M "C M C M"
_symmetry_group_IT_number 63
_symmetry_cell_setting 'orthorhombic'
loop_
_space_group_symop_operation_xyz
x,y,z
-x,-y,1/2+z
x,-y,-z
-x,y,1/2-z
-x,-y,-z
x,y,1/2-z
-x,y,z
x,-y,1/2+z
1/2+x,1/2+y,z
1/2-x,1/2-y,1/2+z
1/2+x,1/2-y,-z
1/2-x,1/2+y,1/2-z
1/2-x,1/2-y,-z
1/2+x,1/2+y,1/2-z
1/2-x,1/2+y,z
1/2+x,1/2-y,1/2+z
loop_
_atom_site_type_symbol
_atom_site_label
_atom_site_fract_x
_atom_site_fract_y
_atom_site_fract_z
Si Si1 0.096693 0.794525 0.591979
Si Si2 0.610842 0.080912 0.903365
Si Si3 0.199955 0.151801 0.399154
Si Si4 0.000000 0.909989 0.907261
Si Si5 0.277292 0.124366 0.606240
O O1 0.102558 0.790138 0.750000
O O2 0.095594 0.685450 0.551030
O O3 0.145237 0.847646 0.545819
O O4 0.047817 0.849159 0.563806
O O5 0.597025 0.067910 0.750000
O O6 0.669458 0.081377 0.907750
O O7 0.592773 0.000000 0.000000
O O8 0.201350 0.116094 0.250000
O O9 0.239542 0.105404 0.491775
O O10 0.213095 0.262981 0.393748
O O11 0.000000 0.931607 0.750000
O O12 0.000000 0.000000 0.000000
O O13 0.257959 0.099205 0.750000
#
# Coordination Sequence:
#
# PCOD9473484 Si02
#       5
#    16  16  16   8  16
#     4   8  16  32  53  73  96 129 163 198 246 299
#     4   9  17  30  47  70 101 135 168 197 231 282
#     4   8  13  24  43  65  89 121 161 196 227 272
#     4  10  20  38  61  78  94 120 157 202 253 302
#     4   8  14  24  39  62  93 126 159 194 229 266
#
# _framework density 17.907485999999999
#
# number of rings (size 3 to 8) (size 9 to 14) (size 15 to 20)
#    0.000    3.556    0.000    2.667    0.000    0.889 
#    0.000    7.222    0.000    5.333    0.000    0.000 
#    0.000    0.000    0.000    0.000    0.000    0.000 
#
# Total GULP energy -200460.388706 kJ/mol
# GULP energy per Si atom -5568.344131 kJ/mol
# Density = 1.786673 g / cm^3
# Si number density = 17.907486 Si / 1000 Ang^3
#
#
#
# Elastic Constant Matrix: (Units=GPa)
#
#
# Indices 1 2 3 4 5 6 
#
# 1 94.2723 34.4786 41.3774 0.0000 0.0000 0.0000
# 2 34.4786 74.0190 39.4577 0.0000 0.0000 0.0000
# 3 41.3774 39.4577 72.7605 0.0000 0.0000 0.0000
# 4 0.0000 0.0000 0.0000 21.1084 0.0000 0.0000
# 5 0.0000 0.0000 0.0000 0.0000 17.7864 0.0000
# 6 0.0000 0.0000 0.0000 0.0000 0.0000 9.8869
#
#
#
# Elastic Compliance Matrix: (Units=1/GPa)
#
#
# Indices 1 2 3 4 5 6 
#
# 1 0.014709 -0.003365 -0.006539 0.000000 0.000000 0.000000
# 2 -0.003365 0.019774 -0.008809 0.000000 0.000000 0.000000
# 3 -0.006539 -0.008809 0.022240 0.000000 0.000000 0.000000
# 4 0.000000 0.000000 0.000000 0.047374 0.000000 0.000000
# 5 0.000000 0.000000 0.000000 0.000000 0.056223 0.000000
# 6 0.000000 0.000000 0.000000 0.000000 0.000000 0.101144
#
#
# Mechanical properties :
#
#
# Convention : Reuss Voigt Hill
#
# Bulk Modulus (GPa) = 51.83017 52.40881 52.11949
# Shear Modulus (GPa) = 16.37608 18.13888 17.25748
#
# Velocity S-wave (km/s) = 3.02732 3.18610 3.10772
# Velocity P-wave (km/s) = 6.42072 6.54713 6.48423
#
# Compressibility (1/GPa) = 0.01929378
#
# Stress axis : x y z
#
# Youngs Moduli (GPa) = 67.98707 50.57216 44.96423
#
# Poissons Ratio (x) = 0.17019 0.29404
# Poissons Ratio (y) = 0.22880 0.39611
# Poissons Ratio (z) = 0.44460 0.44551
#
# Static dielectric constant tensor:
#      x y z
#    x 1.615230 0.000000 0.000000 
#    y 0.000000 1.626260 0.000000 
#    z 0.000000 0.000000 1.614980 
# 
# From -- ./inp_files/13934.got.cif
#   From: 2010.05.17/outbox.cif.g08.bks.cpg/sg63_7_cif.got.tgz:13934.got - 2010.06.03 15:47:04.
