data_PCOD9473057
_publ_section_title
;
Structure prediction by ZEFSAII (Michael W. Deem and Ramdas Pophale) SiO2 
 PCOD9473057
Probable space group: C M C M
;
_chemical_formula_sum "Si O2"
_cell_formula_units_Z 104
_cell_length_a 32.739640
_cell_length_b 20.209610
_cell_length_c 8.660216
_cell_angle_alpha 90.000000
_cell_angle_beta 90.000000
_cell_angle_gamma 90.000000
_cell_volume 5730.078300
_symmetry_space_group_name_H-M "C M C M"
_symmetry_group_IT_number 63
_symmetry_cell_setting 'orthorhombic'
loop_
_space_group_symop_operation_xyz
x,y,z
-x,-y,1/2+z
x,-y,-z
-x,y,1/2-z
-x,-y,-z
x,y,1/2-z
-x,y,z
x,-y,1/2+z
1/2+x,1/2+y,z
1/2-x,1/2-y,1/2+z
1/2+x,1/2-y,-z
1/2-x,1/2+y,1/2-z
1/2-x,1/2-y,-z
1/2+x,1/2+y,1/2-z
1/2-x,1/2+y,z
1/2+x,1/2-y,1/2+z
loop_
_atom_site_type_symbol
_atom_site_label
_atom_site_fract_x
_atom_site_fract_y
_atom_site_fract_z
Si Si1 0.500000 0.425553 0.563695
Si Si2 0.770903 0.847220 0.064371
Si Si3 0.152537 0.927923 0.435360
Si Si4 0.402240 0.199093 0.062742
Si Si5 0.691715 0.794805 0.935589
Si Si6 0.047335 0.570401 0.436075
Si Si7 0.579444 0.340813 0.935411
O O1 0.500000 0.500000 0.500000
O O2 0.500000 0.429384 0.750000
O O3 0.459765 0.384430 0.516475
O O4 0.768210 0.847025 0.250000
O O5 0.801928 0.904907 0.017325
O O6 0.792735 0.778228 0.016248
O O7 0.725512 0.845706 0.997096
O O8 0.150541 0.927923 0.250000
O O9 0.119793 0.875737 0.498155
O O10 0.142962 0.000000 0.500000
O O11 0.403151 0.203182 0.250000
O O12 0.354768 0.195082 0.013654
O O13 0.426375 0.133457 0.014360
O O14 0.421716 0.266031 0.996795
O O15 0.692222 0.796647 0.750000
O O16 0.062092 0.500000 0.500000
O O17 0.048343 0.567855 0.250000
O O18 0.000000 0.578605 0.484372
O O19 0.581137 0.340313 0.750000
#
# Coordination Sequence:
#
# PCOD9473057 Si02
#       7
#     8  16  16  16  16  16  16
#     4  10  24  42  56  78 111 148 189 230 279 330
#     4   9  18  33  52  76 106 140 179 223 269 322
#     4  11  22  38  57  81 113 148 190 236 280 329
#     4  10  20  36  57  85 115 145 185 232 279 330
#     4   9  17  32  53  77 107 140 175 221 272 322
#     4   9  19  36  58  83 111 145 183 221 272 334
#     4  11  23  38  57  83 113 147 189 233 279 333
#
# _framework density 18.149839
#
# number of rings (size 3 to 8) (size 9 to 14) (size 15 to 20)
#    0.000    2.154    1.538    1.385    1.077    4.923 
#    0.000    0.769    0.000    3.692    0.000    0.000 
#    0.000    0.000    0.000    0.000    0.000    0.000 
#
# Total GULP energy -290194.043484 kJ/mol
# GULP energy per Si atom -5580.654682 kJ/mol
# Density = 1.810853 g / cm^3
# Si number density = 18.149839 Si / 1000 Ang^3
#
#
#
# Elastic Constant Matrix: (Units=GPa)
#
#
# Indices 1 2 3 4 5 6 
#
# 1 110.2932 70.8459 24.2953 0.0000 0.0000 0.0000
# 2 70.8459 146.4219 27.6601 0.0000 0.0000 0.0000
# 3 24.2953 27.6601 18.7171 0.0000 0.0000 0.0000
# 4 0.0000 0.0000 0.0000 29.3614 0.0000 0.0000
# 5 0.0000 0.0000 0.0000 0.0000 22.5589 0.0000
# 6 0.0000 0.0000 0.0000 0.0000 0.0000 25.5412
#
#
#
# Elastic Compliance Matrix: (Units=1/GPa)
#
#
# Indices 1 2 3 4 5 6 
#
# 1 0.014883 -0.004927 -0.012037 0.000000 0.000000 0.000000
# 2 -0.004927 0.011106 -0.010016 0.000000 0.000000 0.000000
# 3 -0.012037 -0.010016 0.083854 0.000000 0.000000 0.000000
# 4 0.000000 0.000000 0.000000 0.034058 0.000000 0.000000
# 5 0.000000 0.000000 0.000000 0.000000 0.044328 0.000000
# 6 0.000000 0.000000 0.000000 0.000000 0.000000 0.039152
#
#
# Mechanical properties :
#
#
# Convention : Reuss Voigt Hill
#
# Bulk Modulus (GPa) = 17.89517 57.89277 37.89397
# Shear Modulus (GPa) = 16.66827 25.66770 21.16799
#
# Velocity S-wave (km/s) = 3.03375 3.76468 3.41880
# Velocity P-wave (km/s) = 4.70666 7.13186 6.04219
#
# Compressibility (1/GPa) = 0.05588100
#
# Stress axis : x y z
#
# Youngs Moduli (GPa) = 67.18922 90.04286 11.92551
#
# Poissons Ratio (x) = 0.44367 0.14355
# Poissons Ratio (y) = 0.33106 0.11945
# Poissons Ratio (z) = 0.80878 0.90190
#
# Static dielectric constant tensor:
#      x y z
#    x 1.629850 0.000000 0.000000 
#    y 0.000000 1.602270 0.000000 
#    z 0.000000 0.000000 1.614800 
# 
# From -- ./inp_files/14482.got.cif
#   From: 2010.05.17/outbox.cif.g08.bks.cpg/sg63_8_cif.got.tgz:14482.got - 2010.06.03 15:47:04.
