data_PCOD9473203
_publ_section_title
;
Structure prediction by ZEFSAII (Michael W. Deem and Ramdas Pophale) SiO2 
 PCOD9473203
Probable space group: C M C M
;
_chemical_formula_sum "Si O2"
_cell_formula_units_Z 96
_cell_length_a 14.371561
_cell_length_b 14.297047
_cell_length_c 21.558708
_cell_angle_alpha 90.000000
_cell_angle_beta 90.000000
_cell_angle_gamma 90.000000
_cell_volume 4429.686771
_symmetry_space_group_name_H-M "C M C M"
_symmetry_group_IT_number 63
_symmetry_cell_setting 'orthorhombic'
loop_
_space_group_symop_operation_xyz
x,y,z
-x,-y,1/2+z
x,-y,-z
-x,y,1/2-z
-x,-y,-z
x,y,1/2-z
-x,y,z
x,-y,1/2+z
1/2+x,1/2+y,z
1/2-x,1/2-y,1/2+z
1/2+x,1/2-y,-z
1/2-x,1/2+y,1/2-z
1/2-x,1/2-y,-z
1/2+x,1/2+y,1/2-z
1/2-x,1/2+y,z
1/2+x,1/2-y,1/2+z
loop_
_atom_site_type_symbol
_atom_site_label
_atom_site_fract_x
_atom_site_fract_y
_atom_site_fract_z
Si Si1 0.651750 0.264025 0.966376
Si Si2 0.607897 0.947806 0.436902
Si Si3 0.889234 0.735619 0.320857
Si Si4 0.110790 0.924920 0.877054
Si Si5 0.103163 0.120274 0.581845
Si Si6 0.293098 0.966385 0.681317
O O1 0.613095 0.162297 0.951039
O O2 0.648074 0.329453 0.906548
O O3 0.750000 0.250000 0.000000
O O4 0.598965 0.324808 0.018057
O O5 0.500000 0.975387 0.426359
O O6 0.640180 0.000000 0.500000
O O7 0.667472 0.974303 0.376417
O O8 0.879855 0.768874 0.250000
O O9 0.847962 0.811862 0.368495
O O10 0.839026 0.636204 0.326423
O O11 0.000000 0.719327 0.332848
O O12 0.181634 0.953435 0.822888
O O13 0.000000 0.915916 0.864718
O O14 0.129871 0.012411 0.923819
O O15 0.000000 0.111787 0.609212
O O16 0.318708 0.002142 0.750000
#
# Coordination Sequence:
#
# PCOD9473203 Si02
#       6
#    16  16  16  16  16  16
#     4  12  23  38  62  91 128 169 213 261 320 393
#     4  11  23  40  66 100 135 170 213 270 333 393
#     4   9  18  35  61  91 121 156 205 266 326 384
#     4  11  24  41  61  89 126 168 216 270 328 388
#     4  10  20  36  60  87 118 158 203 254 315 380
#     4  11  24  42  64  91 126 171 220 269 326 394
#
# _framework density 21.671961
#
# number of rings (size 3 to 8) (size 9 to 14) (size 15 to 20)
#    0.000    1.333    0.000    6.500    0.000    6.000 
#    0.000    4.167    0.000    2.000    0.000    0.000 
#    0.000    0.000    0.000    0.000    0.000    0.000 
#
# Total GULP energy -267842.836629 kJ/mol
# GULP energy per Si atom -5580.059096 kJ/mol
# Density = 2.162263 g / cm^3
# Si number density = 21.671961 Si / 1000 Ang^3
#
#
#
# Elastic Constant Matrix: (Units=GPa)
#
#
# Indices 1 2 3 4 5 6 
#
# 1 112.1910 3.6773 24.7701 0.0000 0.0000 0.0000
# 2 3.6773 115.4805 42.0301 0.0000 0.0000 0.0000
# 3 24.7701 42.0301 104.8233 0.0000 0.0000 0.0000
# 4 0.0000 0.0000 0.0000 22.2110 0.0000 0.0000
# 5 0.0000 0.0000 0.0000 0.0000 25.9960 0.0000
# 6 0.0000 0.0000 0.0000 0.0000 0.0000 16.2255
#
#
#
# Elastic Compliance Matrix: (Units=1/GPa)
#
#
# Indices 1 2 3 4 5 6 
#
# 1 0.009439 0.000599 -0.002471 0.000000 0.000000 0.000000
# 2 0.000599 0.010177 -0.004222 0.000000 0.000000 0.000000
# 3 -0.002471 -0.004222 0.011817 0.000000 0.000000 0.000000
# 4 0.000000 0.000000 0.000000 0.045023 0.000000 0.000000
# 5 0.000000 0.000000 0.000000 0.000000 0.038467 0.000000
# 6 0.000000 0.000000 0.000000 0.000000 0.000000 0.061631
#
#
# Mechanical properties :
#
#
# Convention : Reuss Voigt Hill
#
# Bulk Modulus (GPa) = 51.96205 52.60555 52.28380
# Shear Modulus (GPa) = 25.62035 30.35432 27.98733
#
# Velocity S-wave (km/s) = 3.44203 3.74655 3.59751
# Velocity P-wave (km/s) = 6.31074 6.56063 6.43689
#
# Compressibility (1/GPa) = 0.01924481
#
# Stress axis : x y z
#
# Youngs Moduli (GPa) = 105.94113 98.26022 84.62719
#
# Poissons Ratio (x) = -0.05882 0.20907
# Poissons Ratio (y) = -0.06342 0.35730
# Poissons Ratio (z) = 0.26173 0.41486
#
# Static dielectric constant tensor:
#      x y z
#    x 1.888830 0.000000 0.000000 
#    y 0.000000 1.799490 0.000000 
#    z 0.000000 0.000000 1.798130 
# 
# From -- ./inp_files/54177.got.cif
#   From: 2010.05.17/outbox.cif.g08.bks.cpg/sg63_28_cif.got.tgz:54177.got - 2010.06.03 15:47:04.
