data_PCOD9473104
_publ_section_title
;
Structure prediction by ZEFSAII (Michael W. Deem and Ramdas Pophale) SiO2 
 PCOD9473104
Probable space group: C M C M
;
_chemical_formula_sum "Si O2"
_cell_formula_units_Z 80
_cell_length_a 18.493214
_cell_length_b 9.596818
_cell_length_c 24.708926
_cell_angle_alpha 90.000000
_cell_angle_beta 90.000000
_cell_angle_gamma 90.000000
_cell_volume 4385.241573
_symmetry_space_group_name_H-M "C M C M"
_symmetry_group_IT_number 63
_symmetry_cell_setting 'orthorhombic'
loop_
_space_group_symop_operation_xyz
x,y,z
-x,-y,1/2+z
x,-y,-z
-x,y,1/2-z
-x,-y,-z
x,y,1/2-z
-x,y,z
x,-y,1/2+z
1/2+x,1/2+y,z
1/2-x,1/2-y,1/2+z
1/2+x,1/2-y,-z
1/2-x,1/2+y,1/2-z
1/2-x,1/2-y,-z
1/2+x,1/2+y,1/2-z
1/2-x,1/2+y,z
1/2+x,1/2-y,1/2+z
loop_
_atom_site_type_symbol
_atom_site_label
_atom_site_fract_x
_atom_site_fract_y
_atom_site_fract_z
Si Si1 0.782668 0.867138 0.461977
Si Si2 0.084453 0.140186 0.614165
Si Si3 0.666451 0.563067 0.188281
Si Si4 0.914645 0.586973 0.187130
Si Si5 0.703906 0.124914 0.651744
O O1 0.750000 0.750000 0.500000
O O2 0.861413 0.840049 0.435979
O O3 0.730328 0.884172 0.410183
O O4 0.787224 0.000000 0.500000
O O5 0.097492 0.270538 0.654407
O O6 0.000000 0.136394 0.599824
O O7 0.108211 0.001709 0.646924
O O8 0.639936 0.570495 0.250000
O O9 0.693211 0.715407 0.169504
O O10 0.733410 0.455364 0.184629
O O11 0.894156 0.605903 0.250000
O O12 0.868351 0.462588 0.162108
O O13 0.000000 0.556158 0.184821
#
# Coordination Sequence:
#
# PCOD9473104 Si02
#       5
#    16  16  16  16  16
#     4  11  22  39  60  80 106 146 193 243 291 327
#     4  10  22  39  58  84 115 149 191 232 278 341
#     4  11  21  34  57  85 116 151 183 226 280 340
#     4  10  20  36  58  83 116 152 180 218 278 345
#     4  11  22  37  56  84 115 146 193 239 281 337
#
# _framework density 18.243008
#
# number of rings (size 3 to 8) (size 9 to 14) (size 15 to 20)
#    0.000    1.400    0.000    8.400    0.000    2.400 
#    0.000    1.000    0.000    3.600    0.000    0.000 
#    0.000    0.000    0.000    0.000    0.000    0.000 
#
# Total GULP energy -223454.042118 kJ/mol
# GULP energy per Si atom -5586.351053 kJ/mol
# Density = 1.820149 g / cm^3
# Si number density = 18.243008 Si / 1000 Ang^3
#
#
#
# Elastic Constant Matrix: (Units=GPa)
#
#
# Indices 1 2 3 4 5 6 
#
# 1 106.0412 81.9717 70.8187 0.0000 0.0000 0.0000
# 2 81.9717 123.7707 53.7471 0.0000 0.0000 0.0000
# 3 70.8187 53.7471 136.7588 0.0000 0.0000 0.0000
# 4 0.0000 0.0000 0.0000 28.4456 0.0000 0.0000
# 5 0.0000 0.0000 0.0000 0.0000 23.9742 0.0000
# 6 0.0000 0.0000 0.0000 0.0000 0.0000 19.1769
#
#
#
# Elastic Compliance Matrix: (Units=1/GPa)
#
#
# Indices 1 2 3 4 5 6 
#
# 1 0.024501 -0.012923 -0.007609 0.000000 0.000000 0.000000
# 2 -0.012923 0.016558 0.000185 0.000000 0.000000 0.000000
# 3 -0.007609 0.000185 0.011180 0.000000 0.000000 0.000000
# 4 0.000000 0.000000 0.000000 0.035155 0.000000 0.000000
# 5 0.000000 0.000000 0.000000 0.000000 0.041711 0.000000
# 6 0.000000 0.000000 0.000000 0.000000 0.000000 0.052146
#
#
# Mechanical properties :
#
#
# Convention : Reuss Voigt Hill
#
# Bulk Modulus (GPa) = 86.62007 86.62730 86.62369
# Shear Modulus (GPa) = 22.14404 24.98822 23.56613
#
# Velocity S-wave (km/s) = 3.48780 3.70502 3.59805
# Velocity P-wave (km/s) = 7.98774 8.11734 8.05280
#
# Compressibility (1/GPa) = 0.01154467
#
# Stress axis : x y z
#
# Youngs Moduli (GPa) = 40.81390 60.39404 89.44661
#
# Poissons Ratio (x) = 0.78046 0.68060
# Poissons Ratio (y) = 0.52743 -0.01651
# Poissons Ratio (z) = 0.31055 -0.01114
#
# Static dielectric constant tensor:
#      x y z
#    x 1.636650 0.000000 0.000000 
#    y 0.000000 1.600640 0.000000 
#    z 0.000000 0.000000 1.659350 
# 
# From -- ./inp_files/69707.got.cif
#   From: 2010.05.17/outbox.cif.g08.bks.cpg/sg63_35_cif.got.tgz:69707.got - 2010.06.03 15:47:04.
