data_PCOD9473924
_publ_section_title
;
Structure prediction by ZEFSAII (Michael W. Deem and Ramdas Pophale) SiO2 
 PCOD9473924
Probable space group: C M C M
;
_chemical_formula_sum "Si O2"
_cell_formula_units_Z 104
_cell_length_a 22.602503
_cell_length_b 31.065232
_cell_length_c 8.830543
_cell_angle_alpha 90.000000
_cell_angle_beta 90.000000
_cell_angle_gamma 90.000000
_cell_volume 6200.383424
_symmetry_space_group_name_H-M "C M C M"
_symmetry_group_IT_number 63
_symmetry_cell_setting 'orthorhombic'
loop_
_space_group_symop_operation_xyz
x,y,z
-x,-y,1/2+z
x,-y,-z
-x,y,1/2-z
-x,-y,-z
x,y,1/2-z
-x,y,z
x,-y,1/2+z
1/2+x,1/2+y,z
1/2-x,1/2-y,1/2+z
1/2+x,1/2-y,-z
1/2-x,1/2+y,1/2-z
1/2-x,1/2-y,-z
1/2+x,1/2+y,1/2-z
1/2-x,1/2+y,z
1/2+x,1/2-y,1/2+z
loop_
_atom_site_type_symbol
_atom_site_label
_atom_site_fract_x
_atom_site_fract_y
_atom_site_fract_z
Si Si1 0.071823 0.217119 0.573683
Si Si2 0.931394 0.305811 0.068473
Si Si3 0.147403 0.046377 0.069680
Si Si4 0.213435 0.453408 0.568983
Si Si5 0.930773 0.122072 0.566648
Si Si6 0.389490 0.899144 0.067385
Si Si7 0.000000 0.548101 0.067618
O O1 0.087655 0.220235 0.750000
O O2 0.092221 0.260344 0.491688
O O3 0.090030 0.169877 0.516099
O O4 0.000000 0.216635 0.564277
O O5 0.931799 0.304003 0.250000
O O6 0.897638 0.349120 0.023596
O O7 0.000000 0.310478 0.017737
O O8 0.139865 0.044712 0.250000
O O9 0.217079 0.053952 0.037528
O O10 0.108244 0.084198 0.000503
O O11 0.131534 0.000000 0.000000
O O12 0.197749 0.500000 0.500000
O O13 0.204670 0.453978 0.750000
O O14 0.171665 0.418476 0.491820
O O15 0.927908 0.121530 0.750000
O O16 0.000000 0.116794 0.525176
O O17 0.393697 0.902480 0.250000
O O18 0.442565 0.926546 0.993431
O O19 0.000000 0.546615 0.250000
O O20 0.000000 0.500000 0.000000
#
# Coordination Sequence:
#
# PCOD9473924 Si02
#       7
#    16  16  16  16  16  16   8
#     4   8  15  28  47  72 101 133 166 201 244 298
#     4   9  17  30  47  70 101 132 164 206 253 301
#     4  10  21  36  55  77 103 134 171 211 249 299
#     4  10  21  37  54  74  97 129 173 214 254 303
#     4   9  18  33  53  79 110 138 166 203 249 301
#     4  11  21  35  52  73 102 133 169 214 260 308
#     4  12  24  36  50  70 100 136 170 212 265 312
#
# _framework density 16.773156
#
# number of rings (size 3 to 8) (size 9 to 14) (size 15 to 20)
#    0.000    2.308    0.769    3.462    0.000    4.308 
#    0.000    1.538    0.000    0.923    0.000    0.000 
#    0.000    0.000    0.000    0.000    0.000    0.000 
#
# Total GULP energy -290014.025020 kJ/mol
# GULP energy per Si atom -5577.192789 kJ/mol
# Density = 1.673498 g / cm^3
# Si number density = 16.773156 Si / 1000 Ang^3
#
#
#
# Elastic Constant Matrix: (Units=GPa)
#
#
# Indices 1 2 3 4 5 6 
#
# 1 53.2283 77.7509 35.4236 0.0000 0.0000 0.0000
# 2 77.7509 204.1417 63.0153 0.0000 0.0000 0.0000
# 3 35.4236 63.0153 55.2008 0.0000 0.0000 0.0000
# 4 0.0000 0.0000 0.0000 34.2581 0.0000 0.0000
# 5 0.0000 0.0000 0.0000 0.0000 23.9275 0.0000
# 6 0.0000 0.0000 0.0000 0.0000 0.0000 10.7740
#
#
#
# Elastic Compliance Matrix: (Units=1/GPa)
#
#
# Indices 1 2 3 4 5 6 
#
# 1 0.050087 -0.014136 -0.016005 0.000000 0.000000 0.000000
# 2 -0.014136 0.011554 -0.004118 0.000000 0.000000 0.000000
# 3 -0.016005 -0.004118 0.033087 0.000000 0.000000 0.000000
# 4 0.000000 0.000000 0.000000 0.029190 0.000000 0.000000
# 5 0.000000 0.000000 0.000000 0.000000 0.041793 0.000000
# 6 0.000000 0.000000 0.000000 0.000000 0.000000 0.092816
#
#
# Mechanical properties :
#
#
# Convention : Reuss Voigt Hill
#
# Bulk Modulus (GPa) = 38.15278 73.88338 56.01808
# Shear Modulus (GPa) = 14.89072 22.88398 18.88735
#
# Velocity S-wave (km/s) = 2.98278 3.69768 3.35930
# Velocity P-wave (km/s) = 5.88713 7.89776 6.96538
#
# Compressibility (1/GPa) = 0.02621041
#
# Stress axis : x y z
#
# Youngs Moduli (GPa) = 19.96545 86.55314 30.22347
#
# Poissons Ratio (x) = 1.22351 0.48371
# Poissons Ratio (y) = 0.28223 0.12445
# Poissons Ratio (z) = 0.31954 0.35641
#
# Static dielectric constant tensor:
#      x y z
#    x 1.548250 0.000000 0.000000 
#    y 0.000000 1.567220 0.000000 
#    z 0.000000 0.000000 1.564180 
# 
# From -- ./inp_files/9142.got.cif
#   From: 2010.05.17/outbox.cif.g08.bks.cpg/sg63_5_cif.got.tgz:9142.got - 2010.06.03 15:47:04.
