data_PCOD9473147
_publ_section_title
;
Structure prediction by ZEFSAII (Michael W. Deem and Ramdas Pophale) SiO2 
 PCOD9473147
Probable space group: C M C M
;
_chemical_formula_sum "Si O2"
_cell_formula_units_Z 112
_cell_length_a 23.993740
_cell_length_b 15.305609
_cell_length_c 15.699537
_cell_angle_alpha 90.000000
_cell_angle_beta 90.000000
_cell_angle_gamma 90.000000
_cell_volume 5765.479174
_symmetry_space_group_name_H-M "C M C M"
_symmetry_group_IT_number 63
_symmetry_cell_setting 'orthorhombic'
loop_
_space_group_symop_operation_xyz
x,y,z
-x,-y,1/2+z
x,-y,-z
-x,y,1/2-z
-x,-y,-z
x,y,1/2-z
-x,y,z
x,-y,1/2+z
1/2+x,1/2+y,z
1/2-x,1/2-y,1/2+z
1/2+x,1/2-y,-z
1/2-x,1/2+y,1/2-z
1/2-x,1/2-y,-z
1/2+x,1/2+y,1/2-z
1/2-x,1/2+y,z
1/2+x,1/2-y,1/2+z
loop_
_atom_site_type_symbol
_atom_site_label
_atom_site_fract_x
_atom_site_fract_y
_atom_site_fract_z
Si Si1 0.634658 0.496898 0.840293
Si Si2 0.124685 0.350979 0.654771
Si Si3 0.065234 0.533700 0.848864
Si Si4 0.564045 0.331171 0.372592
Si Si5 0.371987 0.339020 0.967335
Si Si6 0.848357 0.646843 0.544297
Si Si7 0.771133 0.921374 0.066415
O O1 0.630090 0.452442 0.750000
O O2 0.593547 0.579479 0.844023
O O3 0.623423 0.425074 0.911157
O O4 0.696278 0.536041 0.855017
O O5 0.153027 0.360510 0.750000
O O6 0.081318 0.431158 0.649922
O O7 0.095305 0.256516 0.656359
O O8 0.154270 0.355497 0.560651
O O9 0.074693 0.562826 0.750000
O O10 0.105233 0.582980 0.915676
O O11 0.000000 0.545688 0.868920
O O12 0.500000 0.328860 0.349061
O O13 0.573901 0.332083 0.473868
O O14 0.363041 0.244961 0.926985
O O15 0.317011 0.356368 0.025721
O O16 0.788050 0.621516 0.580305
O O17 0.761992 0.000000 0.000000
#
# Coordination Sequence:
#
# PCOD9473147 Si02
#       7
#    16  16  16  16  16  16  16
#     4  10  21  37  56  81 114 147 183 233 288 337
#     4  10  21  36  56  86 118 145 182 237 296 344
#     4  10  22  38  54  78 115 153 189 233 281 332
#     4  10  20  36  59  83 108 144 190 237 287 342
#     4   9  21  37  55  79 113 149 181 225 283 340
#     4  11  21  36  61  85 110 152 195 229 275 343
#     4   9  18  36  57  79 106 140 181 228 278 326
#
# _framework density 19.425964
#
# number of rings (size 3 to 8) (size 9 to 14) (size 15 to 20)
#    0.000    2.143    0.000    3.857    0.000    7.429 
#    0.000    4.286    0.000    1.714    0.000    0.000 
#    0.000    0.000    0.000    0.000    0.000    0.000 
#
# Total GULP energy -311988.391098 kJ/mol
# GULP energy per Si atom -5571.221270 kJ/mol
# Density = 1.938175 g / cm^3
# Si number density = 19.425964 Si / 1000 Ang^3
#
#
#
# Elastic Constant Matrix: (Units=GPa)
#
#
# Indices 1 2 3 4 5 6 
#
# 1 49.5862 16.1817 4.7347 0.0000 0.0000 0.0000
# 2 16.1817 104.0836 27.0279 0.0000 0.0000 0.0000
# 3 4.7347 27.0279 50.8942 0.0000 0.0000 0.0000
# 4 0.0000 0.0000 0.0000 -24.1167 0.0000 0.0000
# 5 0.0000 0.0000 0.0000 0.0000 -3.2526 0.0000
# 6 0.0000 0.0000 0.0000 0.0000 0.0000 13.5710
#
#
#
# Elastic Compliance Matrix: (Units=1/GPa)
#
#
# Indices 1 2 3 4 5 6 
#
# 1 0.021248 -0.003236 -0.000258 0.000000 0.000000 0.000000
# 2 -0.003236 0.011637 -0.005879 0.000000 0.000000 0.000000
# 3 -0.000258 -0.005879 0.022795 0.000000 0.000000 0.000000
# 4 0.000000 0.000000 0.000000 -0.041465 0.000000 0.000000
# 5 0.000000 0.000000 0.000000 0.000000 -0.307442 0.000000
# 6 0.000000 0.000000 0.000000 0.000000 0.000000 0.073687
#
#
# Mechanical properties :
#
#
# Convention : Reuss Voigt Hill
#
# Bulk Modulus (GPa) = 27.07603 33.38361 30.22982
# Shear Modulus (GPa) = -26.52763 7.68165 -9.42299
#
# Velocity S-wave (km/s) = -3.69938 1.99070 -2.20482
# Velocity P-wave (km/s) = 2.06855 4.74407 3.01889
#
# Compressibility (1/GPa) = 0.03693303
#
# Stress axis : x y z
#
# Youngs Moduli (GPa) = 47.06405 85.92928 43.86967
#
# Poissons Ratio (x) = 0.27810 0.01132
# Poissons Ratio (y) = 0.15232 0.25792
# Poissons Ratio (z) = 0.01214 0.50519
#
# Static dielectric constant tensor:
#      x y z
#    x 1.651010 0.000000 0.000000 
#    y 0.000000 1.662130 0.000000 
#    z 0.000000 0.000000 1.954480 
# 
# From -- ./inp_files/36928.got.cif
#   From: 2010.05.17/outbox.cif.g08.bks.cpg/sg63_19_cif.got.tgz:36928.got - 2010.06.03 15:47:04.
