data_PCOD9473588
_publ_section_title
;
Structure prediction by ZEFSAII (Michael W. Deem and Ramdas Pophale) SiO2 
 PCOD9473588
Probable space group: C M C M
;
_chemical_formula_sum "Si O2"
_cell_formula_units_Z 80
_cell_length_a 7.597419
_cell_length_b 25.180900
_cell_length_c 18.474605
_cell_angle_alpha 90.000000
_cell_angle_beta 90.000000
_cell_angle_gamma 90.000000
_cell_volume 3534.373876
_symmetry_space_group_name_H-M "C M C M"
_symmetry_group_IT_number 63
_symmetry_cell_setting 'orthorhombic'
loop_
_space_group_symop_operation_xyz
x,y,z
-x,-y,1/2+z
x,-y,-z
-x,y,1/2-z
-x,-y,-z
x,y,1/2-z
-x,y,z
x,-y,1/2+z
1/2+x,1/2+y,z
1/2-x,1/2-y,1/2+z
1/2+x,1/2-y,-z
1/2-x,1/2+y,1/2-z
1/2-x,1/2-y,-z
1/2+x,1/2+y,1/2-z
1/2-x,1/2+y,z
1/2+x,1/2-y,1/2+z
loop_
_atom_site_type_symbol
_atom_site_label
_atom_site_fract_x
_atom_site_fract_y
_atom_site_fract_z
Si Si1 0.798124 0.820670 0.058761
Si Si2 0.213152 0.015122 0.081746
Si Si3 0.287486 0.364816 0.907797
Si Si4 0.790060 0.262153 0.670918
Si Si5 0.793751 0.411060 0.167893
O O1 0.716161 0.772674 0.104680
O O2 0.797181 0.870914 0.112522
O O3 0.000000 0.805562 0.042466
O O4 0.718336 0.839403 0.983012
O O5 0.273599 0.074681 0.099758
O O6 0.000000 0.014312 0.082368
O O7 0.273875 0.970399 0.137378
O O8 0.268745 0.000000 0.000000
O O9 0.500000 0.367480 0.912604
O O10 0.239869 0.323849 0.845244
O O11 0.719872 0.246937 0.750000
O O12 0.000000 0.252404 0.672305
O O13 0.727003 0.406596 0.250000
O O14 0.000000 0.397351 0.167731
#
# Coordination Sequence:
#
# PCOD9473588 Si02
#       5
#    16  16  16  16  16
#     4  10  20  39  63  85 113 152 198 241 285 344
#     4  10  20  39  62  84 113 150 195 240 283 341
#     4  10  21  37  61  88 113 147 194 243 289 340
#     4  10  22  38  57  84 118 156 194 234 288 348
#     4  11  24  38  56  88 123 153 190 238 293 345
#
# _framework density 22.634844000000001
#
# number of rings (size 3 to 8) (size 9 to 14) (size 15 to 20)
#    0.000    1.800    2.000    1.800    0.000    6.400 
#    0.000    4.000    0.000    0.000    0.000    0.000 
#    0.000    0.000    0.000    0.000    0.000    0.000 
#
# Total GULP energy -223625.804997 kJ/mol
# GULP energy per Si atom -5590.645125 kJ/mol
# Density = 2.258333 g / cm^3
# Si number density = 22.634844 Si / 1000 Ang^3
#
#
#
# Elastic Constant Matrix: (Units=GPa)
#
#
# Indices 1 2 3 4 5 6 
#
# 1 54.8970 -10.9828 -4.0257 0.0000 0.0000 0.0000
# 2 -10.9828 106.6690 0.5170 0.0000 0.0000 0.0000
# 3 -4.0257 0.5170 65.9634 0.0000 0.0000 0.0000
# 4 0.0000 0.0000 0.0000 355.6078 0.0000 0.0000
# 5 0.0000 0.0000 0.0000 0.0000 14.6474 0.0000
# 6 0.0000 0.0000 0.0000 0.0000 0.0000 19.6567
#
#
#
# Elastic Compliance Matrix: (Units=1/GPa)
#
#
# Indices 1 2 3 4 5 6 
#
# 1 0.018682 0.001918 0.001125 0.000000 0.000000 0.000000
# 2 0.001918 0.009572 0.000042 0.000000 0.000000 0.000000
# 3 0.001125 0.000042 0.015228 0.000000 0.000000 0.000000
# 4 0.000000 0.000000 0.000000 0.002812 0.000000 0.000000
# 5 0.000000 0.000000 0.000000 0.000000 0.068271 0.000000
# 6 0.000000 0.000000 0.000000 0.000000 0.000000 0.050873
#
#
# Mechanical properties :
#
#
# Convention : Reuss Voigt Hill
#
# Bulk Modulus (GPa) = 20.13978 22.06073 21.10026
# Shear Modulus (GPa) = 28.43824 94.11712 61.27768
#
# Velocity S-wave (km/s) = 3.54841 6.45530 5.20875
# Velocity P-wave (km/s) = 5.07004 8.08262 6.74663
#
# Compressibility (1/GPa) = 0.04965297
#
# Stress axis : x y z
#
# Youngs Moduli (GPa) = 53.52700 104.47053 65.66743
#
# Poissons Ratio (x) = -0.20038 -0.07388
# Poissons Ratio (y) = -0.10267 -0.00276
# Poissons Ratio (z) = -0.06022 -0.00439
#
# Static dielectric constant tensor:
#      x y z
#    x 1.868260 0.000000 0.000000 
#    y 0.000000 1.820920 0.000000 
#    z 0.000000 0.000000 1.825230 
# 
# From -- ./inp_files/40457.got.cif
#   From: 2010.05.17/outbox.cif.g08.bks.cpg/sg63_21_cif.got.tgz:40457.got - 2010.06.03 15:47:04.
