data_PCOD9473406
_publ_section_title
;
Structure prediction by ZEFSAII (Michael W. Deem and Ramdas Pophale) SiO2 
 PCOD9473406
Probable space group: C M C M
;
_chemical_formula_sum "Si O2"
_cell_formula_units_Z 116
_cell_length_a 27.702403
_cell_length_b 10.442826
_cell_length_c 22.572303
_cell_angle_alpha 90.000000
_cell_angle_beta 90.000000
_cell_angle_gamma 90.000000
_cell_volume 6529.972556
_symmetry_space_group_name_H-M "C M C M"
_symmetry_group_IT_number 63
_symmetry_cell_setting 'orthorhombic'
loop_
_space_group_symop_operation_xyz
x,y,z
-x,-y,1/2+z
x,-y,-z
-x,y,1/2-z
-x,-y,-z
x,y,1/2-z
-x,y,z
x,-y,1/2+z
1/2+x,1/2+y,z
1/2-x,1/2-y,1/2+z
1/2+x,1/2-y,-z
1/2-x,1/2+y,1/2-z
1/2-x,1/2-y,-z
1/2+x,1/2+y,1/2-z
1/2-x,1/2+y,z
1/2+x,1/2-y,1/2+z
loop_
_atom_site_type_symbol
_atom_site_label
_atom_site_fract_x
_atom_site_fract_y
_atom_site_fract_z
Si Si1 0.552272 0.733726 0.131543
Si Si2 0.802257 0.866000 0.320908
Si Si3 0.851496 0.367154 0.882793
Si Si4 0.208759 0.355204 0.497169
Si Si5 0.056991 0.499642 0.070300
Si Si6 0.500000 0.797031 0.250000
Si Si7 0.307171 0.864933 0.363462
Si Si8 0.639982 0.380366 0.818640
O O1 0.500000 0.683829 0.110134
O O2 0.541031 0.788568 0.197271
O O3 0.593073 0.628588 0.139945
O O4 0.566627 0.855571 0.092906
O O5 0.796437 0.855851 0.250000
O O6 0.838240 0.756363 0.344353
O O7 0.749791 0.854539 0.350719
O O8 0.824468 0.004717 0.335296
O O9 0.906851 0.405129 0.895786
O O10 0.826442 0.491762 0.852887
O O11 0.826732 0.345990 0.947070
O O12 0.229301 0.500000 0.500000
O O13 0.250000 0.250000 0.500000
O O14 0.183901 0.341387 0.433352
O O15 0.000000 0.526458 0.081030
O O16 0.065777 0.500000 0.000000
O O17 0.333823 0.755855 0.326531
O O18 0.626442 0.400979 0.750000
#
# Coordination Sequence:
#
# PCOD9473406 Si02
#       8
#    16  16  16  16  16   4  16  16
#     4   9  17  34  58  85 108 138 187 243 278 330
#     4  11  25  39  52  81 120 155 189 237 292 348
#     4  11  22  39  57  86 120 151 192 240 294 347
#     4  10  21  35  57  80 112 145 187 233 276 337
#     4  10  20  37  62  90 118 150 191 242 298 349
#     4   8  16  32  58  88 110 134 192 252 276 320
#     4  11  21  36  58  82 109 150 196 234 280 336
#     4  11  21  36  57  80 108 147 192 231 282 339
#
# _framework density 17.764240999999998
#
# number of rings (size 3 to 8) (size 9 to 14) (size 15 to 20)
#    0.414    1.241    3.448    2.483    1.931    2.207 
#    1.241    0.690    0.000    0.828    0.000    2.897 
#    0.000    0.000    0.000    0.000    0.000    0.000 
#
# Total GULP energy -322870.133317 kJ/mol
# GULP energy per Si atom -5566.726437 kJ/mol
# Density = 1.772381 g / cm^3
# Si number density = 17.764241 Si / 1000 Ang^3
#
#
#
# Elastic Constant Matrix: (Units=GPa)
#
#
# Indices 1 2 3 4 5 6 
#
# 1 100.7205 21.6627 2.7456 0.0000 0.0000 0.0000
# 2 21.6627 51.2537 13.6861 0.0000 0.0000 0.0000
# 3 2.7456 13.6861 44.8584 0.0000 0.0000 0.0000
# 4 0.0000 0.0000 0.0000 21.8461 0.0000 0.0000
# 5 0.0000 0.0000 0.0000 0.0000 16.1988 0.0000
# 6 0.0000 0.0000 0.0000 0.0000 0.0000 12.8778
#
#
#
# Elastic Compliance Matrix: (Units=1/GPa)
#
#
# Indices 1 2 3 4 5 6 
#
# 1 0.010948 -0.004843 0.000807 0.000000 0.000000 0.000000
# 2 -0.004843 0.023384 -0.006838 0.000000 0.000000 0.000000
# 3 0.000807 -0.006838 0.024329 0.000000 0.000000 0.000000
# 4 0.000000 0.000000 0.000000 0.045775 0.000000 0.000000
# 5 0.000000 0.000000 0.000000 0.000000 0.061733 0.000000
# 6 0.000000 0.000000 0.000000 0.000000 0.000000 0.077653
#
#
# Mechanical properties :
#
#
# Convention : Reuss Voigt Hill
#
# Bulk Modulus (GPa) = 27.08979 30.33570 28.71275
# Shear Modulus (GPa) = 17.99388 20.76710 19.38049
#
# Velocity S-wave (km/s) = 3.18610 3.42283 3.30659
# Velocity P-wave (km/s) = 5.36822 5.72145 5.54764
#
# Compressibility (1/GPa) = 0.03691427
#
# Stress axis : x y z
#
# Youngs Moduli (GPa) = 91.34047 42.76510 41.10302
#
# Poissons Ratio (x) = 0.20711 -0.03319
# Poissons Ratio (y) = 0.44235 0.28105
# Poissons Ratio (z) = -0.07375 0.29242
#
# Static dielectric constant tensor:
#      x y z
#    x 1.648640 0.000000 0.000000 
#    y 0.000000 1.587460 0.000000 
#    z 0.000000 0.000000 1.622680 
# 
# From -- ./inp_files/65476.got.cif
#   From: 2010.05.17/outbox.cif.g08.bks.cpg/sg63_33_cif.got.tgz:65476.got - 2010.06.03 15:47:04.
