data_PCOD9473373
_publ_section_title
;
Structure prediction by ZEFSAII (Michael W. Deem and Ramdas Pophale) SiO2 
 PCOD9473373
Probable space group: C M C M
;
_chemical_formula_sum "Si O2"
_cell_formula_units_Z 84
_cell_length_a 16.645159
_cell_length_b 24.985760
_cell_length_c 10.765596
_cell_angle_alpha 90.000000
_cell_angle_beta 90.000000
_cell_angle_gamma 90.000000
_cell_volume 4477.324691
_symmetry_space_group_name_H-M "C M C M"
_symmetry_group_IT_number 63
_symmetry_cell_setting 'orthorhombic'
loop_
_space_group_symop_operation_xyz
x,y,z
-x,-y,1/2+z
x,-y,-z
-x,y,1/2-z
-x,-y,-z
x,y,1/2-z
-x,y,z
x,-y,1/2+z
1/2+x,1/2+y,z
1/2-x,1/2-y,1/2+z
1/2+x,1/2-y,-z
1/2-x,1/2+y,1/2-z
1/2-x,1/2-y,-z
1/2+x,1/2+y,1/2-z
1/2-x,1/2+y,z
1/2+x,1/2-y,1/2+z
loop_
_atom_site_type_symbol
_atom_site_label
_atom_site_fract_x
_atom_site_fract_y
_atom_site_fract_z
Si Si1 0.594823 0.468214 0.615849
Si Si2 0.096288 0.457825 0.107021
Si Si3 0.199321 0.648374 0.602078
Si Si4 0.500000 0.377862 0.250000
Si Si5 0.590804 0.753477 0.397517
Si Si6 0.879970 0.860959 0.017009
O O1 0.631095 0.500000 0.500000
O O2 0.630187 0.481669 0.750000
O O3 0.500000 0.483029 0.621811
O O4 0.600413 0.405797 0.585482
O O5 0.114659 0.474983 0.250000
O O6 0.141756 0.402356 0.083283
O O7 0.000000 0.449747 0.100715
O O8 0.118463 0.500000 0.000000
O O9 0.211302 0.653996 0.750000
O O10 0.154632 0.702396 0.559086
O O11 0.285215 0.639158 0.541630
O O12 0.430207 0.375967 0.139815
O O13 0.602755 0.743708 0.250000
O O14 0.500000 0.774899 0.412320
O O15 0.597333 0.697996 0.470191
#
# Coordination Sequence:
#
# PCOD9473373 Si02
#       6
#    16  16  16   4  16  16
#     4  10  22  37  59  83 110 146 194 240 285 335
#     4   9  18  36  62  87 116 149 187 229 286 347
#     4  10  21  35  57  87 113 146 191 241 286 340
#     4  12  24  36  60  80 112 168 196 232 288 354
#     4  10  20  37  61  83 109 145 191 241 294 349
#     4  12  22  38  57  81 118 152 199 232 292 342
#
# _framework density 18.761202999999998
#
# number of rings (size 3 to 8) (size 9 to 14) (size 15 to 20)
#    0.000    1.714    2.857    1.714    1.333    4.571 
#    0.000    3.810    2.095    0.000    0.000    0.000 
#    0.000    0.000    0.000    0.000    0.000    0.000 
#
# Total GULP energy -233936.895834 kJ/mol
# GULP energy per Si atom -5569.926091 kJ/mol
# Density = 1.871850 g / cm^3
# Si number density = 18.761203 Si / 1000 Ang^3
#
#
#
# Elastic Constant Matrix: (Units=GPa)
#
#
# Indices 1 2 3 4 5 6 
#
# 1 50.3021 13.5102 28.6656 0.0000 0.0000 0.0000
# 2 13.5102 53.3404 39.4891 0.0000 0.0000 0.0000
# 3 28.6656 39.4891 109.0972 0.0000 0.0000 0.0000
# 4 0.0000 0.0000 0.0000 15.1109 0.0000 0.0000
# 5 0.0000 0.0000 0.0000 0.0000 15.4021 0.0000
# 6 0.0000 0.0000 0.0000 0.0000 0.0000 -66.7307
#
#
#
# Elastic Compliance Matrix: (Units=1/GPa)
#
#
# Indices 1 2 3 4 5 6 
#
# 1 0.023519 -0.001888 -0.005496 0.000000 0.000000 0.000000
# 2 -0.001888 0.025762 -0.008829 0.000000 0.000000 0.000000
# 3 -0.005496 -0.008829 0.013806 0.000000 0.000000 0.000000
# 4 0.000000 0.000000 0.000000 0.066177 0.000000 0.000000
# 5 0.000000 0.000000 0.000000 0.000000 0.064926 0.000000
# 6 0.000000 0.000000 0.000000 0.000000 0.000000 -0.014986
#
#
# Mechanical properties :
#
#
# Convention : Reuss Voigt Hill
#
# Bulk Modulus (GPa) = 32.61481 41.78550 37.20015
# Shear Modulus (GPa) = 22.53760 1.49478 12.01619
#
# Velocity S-wave (km/s) = 3.46972 0.89357 2.53352
# Velocity P-wave (km/s) = 5.78566 4.83583 5.33194
#
# Compressibility (1/GPa) = 0.03066092
#
# Stress axis : x y z
#
# Youngs Moduli (GPa) = 42.51854 38.81710 72.43221
#
# Poissons Ratio (x) = 0.07328 0.39812
# Poissons Ratio (y) = 0.08027 0.63949
# Poissons Ratio (z) = 0.23370 0.34271
#
# Static dielectric constant tensor:
#      x y z
#    x 1.643640 0.000000 0.000000 
#    y 0.000000 1.642850 0.000000 
#    z 0.000000 0.000000 1.655570 
# 
# From -- ./inp_files/19519.got.cif
#   From: 2010.05.17/outbox.cif.g08.bks.cpg/sg63_10_cif.got.tgz:19519.got - 2010.06.03 15:47:04.
