data_PCOD9473505
_publ_section_title
;
Structure prediction by ZEFSAII (Michael W. Deem and Ramdas Pophale) SiO2 
 PCOD9473505
Probable space group: C M C M
;
_chemical_formula_sum "Si O2"
_cell_formula_units_Z 96
_cell_length_a 15.838684
_cell_length_b 14.195846
_cell_length_c 19.139649
_cell_angle_alpha 90.000000
_cell_angle_beta 90.000000
_cell_angle_gamma 90.000000
_cell_volume 4303.426032
_symmetry_space_group_name_H-M "C M C M"
_symmetry_group_IT_number 63
_symmetry_cell_setting 'orthorhombic'
loop_
_space_group_symop_operation_xyz
x,y,z
-x,-y,1/2+z
x,-y,-z
-x,y,1/2-z
-x,-y,-z
x,y,1/2-z
-x,y,z
x,-y,1/2+z
1/2+x,1/2+y,z
1/2-x,1/2-y,1/2+z
1/2+x,1/2-y,-z
1/2-x,1/2+y,1/2-z
1/2-x,1/2-y,-z
1/2+x,1/2+y,1/2-z
1/2-x,1/2+y,z
1/2+x,1/2-y,1/2+z
loop_
_atom_site_type_symbol
_atom_site_label
_atom_site_fract_x
_atom_site_fract_y
_atom_site_fract_z
Si Si1 0.500000 0.563890 0.664100
Si Si2 0.278212 0.500000 0.500000
Si Si3 0.171026 0.196458 0.531837
Si Si4 0.341132 0.433082 0.672510
Si Si5 0.500000 0.248701 0.434605
Si Si6 0.235488 0.262743 0.169116
Si Si7 0.175340 0.458392 0.362862
Si Si8 0.000000 0.531679 0.415472
O O1 0.500000 0.580027 0.750000
O O2 0.415364 0.502296 0.644882
O O3 0.500000 0.661731 0.619472
O O4 0.334041 0.407075 0.501086
O O5 0.215895 0.469493 0.439179
O O6 0.250000 0.250000 0.500000
O O7 0.189688 0.208102 0.615568
O O8 0.083213 0.245344 0.518927
O O9 0.372663 0.410526 0.750000
O O10 0.312374 0.331349 0.643681
O O11 0.251135 0.487253 0.676687
O O12 0.500000 0.144090 0.405490
O O13 0.263221 0.249861 0.250000
O O14 0.174629 0.352416 0.164226
O O15 0.082541 0.496793 0.374072
O O16 0.000000 0.500000 0.500000
#
# Coordination Sequence:
#
# PCOD9473505 Si02
#       8
#     8   8  16  16   8  16  16   8
#     4  10  22  43  70 102 138 173 218 281 351 419
#     4  10  20  38  62  86 126 166 212 276 332 394
#     4  11  24  42  66  97 134 178 226 281 341 410
#     4  10  21  40  67  98 136 176 215 271 342 407
#     4  12  26  41  68 100 128 173 231 274 348 410
#     4  10  22  41  68 100 136 182 230 280 343 410
#     4  11  22  40  65  92 127 176 225 275 335 408
#     4  12  26  45  64  90 126 174 228 279 343 412
#
# _framework density 22.307808000000001
#
# number of rings (size 3 to 8) (size 9 to 14) (size 15 to 20)
#    0.000    1.333    0.833    5.500    2.333    3.000 
#    0.000    7.500    0.000    0.000    0.000    0.000 
#    0.000    0.000    0.000    0.000    0.000    0.000 
#
# Total GULP energy -267444.800768 kJ/mol
# GULP energy per Si atom -5571.766683 kJ/mol
# Density = 2.225703 g / cm^3
# Si number density = 22.307808 Si / 1000 Ang^3
#
#
#
# Elastic Constant Matrix: (Units=GPa)
#
#
# Indices 1 2 3 4 5 6 
#
# 1 161.3308 52.6194 3.8840 0.0000 0.0000 0.0000
# 2 52.6194 154.0701 25.5459 0.0000 0.0000 0.0000
# 3 3.8840 25.5459 77.2202 0.0000 0.0000 0.0000
# 4 0.0000 0.0000 0.0000 30.7590 0.0000 0.0000
# 5 0.0000 0.0000 0.0000 0.0000 18.5773 0.0000
# 6 0.0000 0.0000 0.0000 0.0000 0.0000 38.7323
#
#
#
# Elastic Compliance Matrix: (Units=1/GPa)
#
#
# Indices 1 2 3 4 5 6 
#
# 1 0.006991 -0.002465 0.000464 0.000000 0.000000 0.000000
# 2 -0.002465 0.007736 -0.002435 0.000000 0.000000 0.000000
# 3 0.000464 -0.002435 0.013732 0.000000 0.000000 0.000000
# 4 0.000000 0.000000 0.000000 0.032511 0.000000 0.000000
# 5 0.000000 0.000000 0.000000 0.000000 0.053829 0.000000
# 6 0.000000 0.000000 0.000000 0.000000 0.000000 0.025818
#
#
# Mechanical properties :
#
#
# Convention : Reuss Voigt Hill
#
# Bulk Modulus (GPa) = 51.05378 61.85774 56.45576
# Shear Modulus (GPa) = 32.04737 38.31851 35.18294
#
# Velocity S-wave (km/s) = 3.79436 4.14903 3.97565
# Velocity P-wave (km/s) = 6.49092 7.12334 6.81447
#
# Compressibility (1/GPa) = 0.01958719
#
# Stress axis : x y z
#
# Youngs Moduli (GPa) = 143.03865 129.26487 72.82107
#
# Poissons Ratio (x) = 0.31858 -0.03377
# Poissons Ratio (y) = 0.35253 0.17734
# Poissons Ratio (z) = -0.06633 0.31479
#
# Static dielectric constant tensor:
#      x y z
#    x 1.925170 0.000000 0.000000 
#    y 0.000000 1.914510 0.000000 
#    z 0.000000 0.000000 1.994210 
# 
# From -- ./inp_files/54286.got.cif
#   From: 2010.05.17/outbox.cif.g08.bks.cpg/sg63_28_cif.got.tgz:54286.got - 2010.06.03 15:47:04.
