data_PCOD9473651
_publ_section_title
;
Structure prediction by ZEFSAII (Michael W. Deem and Ramdas Pophale) SiO2 
 PCOD9473651
Probable space group: C M C M
;
_chemical_formula_sum "Si O2"
_cell_formula_units_Z 112
_cell_length_a 14.005678
_cell_length_b 28.428687
_cell_length_c 14.581140
_cell_angle_alpha 90.000000
_cell_angle_beta 90.000000
_cell_angle_gamma 90.000000
_cell_volume 5805.670972
_symmetry_space_group_name_H-M "C M C M"
_symmetry_group_IT_number 63
_symmetry_cell_setting 'orthorhombic'
loop_
_space_group_symop_operation_xyz
x,y,z
-x,-y,1/2+z
x,-y,-z
-x,y,1/2-z
-x,-y,-z
x,y,1/2-z
-x,y,z
x,-y,1/2+z
1/2+x,1/2+y,z
1/2-x,1/2-y,1/2+z
1/2+x,1/2-y,-z
1/2-x,1/2+y,1/2-z
1/2-x,1/2-y,-z
1/2+x,1/2+y,1/2-z
1/2-x,1/2+y,z
1/2+x,1/2-y,1/2+z
loop_
_atom_site_type_symbol
_atom_site_label
_atom_site_fract_x
_atom_site_fract_y
_atom_site_fract_z
Si Si1 0.781463 0.613008 0.858017
Si Si2 0.613198 0.841838 0.514467
Si Si3 0.889511 0.484824 0.106289
Si Si4 0.806709 0.582953 0.348808
Si Si5 0.611854 0.658275 0.946482
Si Si6 0.383805 0.757541 0.854972
Si Si7 0.390495 0.628932 0.352632
O O1 0.776726 0.621862 0.750000
O O2 0.832336 0.562967 0.875265
O O3 0.677423 0.617440 0.904427
O O4 0.841107 0.651761 0.915048
O O5 0.500000 0.838841 0.505910
O O6 0.641315 0.888347 0.571650
O O7 0.648791 0.798309 0.575827
O O8 0.838282 0.529348 0.151177
O O9 0.000000 0.479492 0.135615
O O10 0.890351 0.500000 0.000000
O O11 0.834618 0.604276 0.250000
O O12 0.693132 0.590323 0.358811
O O13 0.500000 0.649947 0.928843
O O14 0.639544 0.706716 0.896746
O O15 0.624098 0.660594 0.056878
O O16 0.350034 0.762908 0.750000
O O17 0.500000 0.760366 0.852574
O O18 0.380997 0.650614 0.250000
O O19 0.500000 0.611195 0.358469
#
# Coordination Sequence:
#
# PCOD9473651 Si02
#       7
#    16  16  16  16  16  16  16
#     4  12  25  40  58  86 121 159 201 244 296 357
#     4  11  22  38  58  84 118 154 196 247 297 347
#     4  11  22  39  61  85 119 161 200 243 294 351
#     4  11  21  36  60  89 117 152 199 244 290 351
#     4  10  20  40  65  87 117 157 199 245 298 355
#     4   9  19  36  60  89 118 152 198 251 300 345
#     4   9  18  35  60  89 121 156 194 244 303 353
#
# _framework density 19.291481999999998
#
# number of rings (size 3 to 8) (size 9 to 14) (size 15 to 20)
#    0.000    1.571    2.857    2.143    0.000    4.857 
#    0.000    1.429    0.000    6.857    0.000    0.000 
#    0.000    0.000    0.000    0.000    0.000    0.000 
#
# Total GULP energy -312388.493917 kJ/mol
# GULP energy per Si atom -5578.365963 kJ/mol
# Density = 1.924757 g / cm^3
# Si number density = 19.291482 Si / 1000 Ang^3
#
#
#
# Elastic Constant Matrix: (Units=GPa)
#
#
# Indices 1 2 3 4 5 6 
#
# 1 86.8810 34.9781 42.4743 0.0000 0.0000 0.0000
# 2 34.9781 77.7226 34.6008 0.0000 0.0000 0.0000
# 3 42.4743 34.6008 156.6762 0.0000 0.0000 0.0000
# 4 0.0000 0.0000 0.0000 25.8348 0.0000 0.0000
# 5 0.0000 0.0000 0.0000 0.0000 16.8477 0.0000
# 6 0.0000 0.0000 0.0000 0.0000 0.0000 25.3905
#
#
#
# Elastic Compliance Matrix: (Units=1/GPa)
#
#
# Indices 1 2 3 4 5 6 
#
# 1 0.015148 -0.005533 -0.002885 0.000000 0.000000 0.000000
# 2 -0.005533 0.016290 -0.002098 0.000000 0.000000 0.000000
# 3 -0.002885 -0.002098 0.007628 0.000000 0.000000 0.000000
# 4 0.000000 0.000000 0.000000 0.038708 0.000000 0.000000
# 5 0.000000 0.000000 0.000000 0.000000 0.059355 0.000000
# 6 0.000000 0.000000 0.000000 0.000000 0.000000 0.039385
#
#
# Mechanical properties :
#
#
# Convention : Reuss Voigt Hill
#
# Bulk Modulus (GPa) = 55.44621 60.59847 58.02234
# Shear Modulus (GPa) = 24.56333 27.56302 26.06318
#
# Velocity S-wave (km/s) = 3.57217 3.78400 3.67961
# Velocity P-wave (km/s) = 6.76886 7.11139 6.94224
#
# Compressibility (1/GPa) = 0.01803550
#
# Stress axis : x y z
#
# Youngs Moduli (GPa) = 66.01641 61.38696 131.09885
#
# Poissons Ratio (x) = 0.33965 0.37817
# Poissons Ratio (y) = 0.36526 0.27499
# Poissons Ratio (z) = 0.19043 0.12877
#
# Static dielectric constant tensor:
#      x y z
#    x 1.693330 0.000000 0.000000 
#    y 0.000000 1.648420 0.000000 
#    z 0.000000 0.000000 1.724000 
# 
# From -- ./inp_files/32539.got.cif
#   From: 2010.05.17/outbox.cif.g08.bks.cpg/sg63_17_cif.got.tgz:32539.got - 2010.06.03 15:47:04.
