data_PCOD9473118
_publ_section_title
;
Structure prediction by ZEFSAII (Michael W. Deem and Ramdas Pophale) SiO2 
 PCOD9473118
Probable space group: C M C M
;
_chemical_formula_sum "Si O2"
_cell_formula_units_Z 80
_cell_length_a 15.778217
_cell_length_b 14.762317
_cell_length_c 17.556048
_cell_angle_alpha 90.000000
_cell_angle_beta 90.000000
_cell_angle_gamma 90.000000
_cell_volume 4089.208089
_symmetry_space_group_name_H-M "C M C M"
_symmetry_group_IT_number 63
_symmetry_cell_setting 'orthorhombic'
loop_
_space_group_symop_operation_xyz
x,y,z
-x,-y,1/2+z
x,-y,-z
-x,y,1/2-z
-x,-y,-z
x,y,1/2-z
-x,y,z
x,-y,1/2+z
1/2+x,1/2+y,z
1/2-x,1/2-y,1/2+z
1/2+x,1/2-y,-z
1/2-x,1/2+y,1/2-z
1/2-x,1/2-y,-z
1/2+x,1/2+y,1/2-z
1/2-x,1/2+y,z
1/2+x,1/2-y,1/2+z
loop_
_atom_site_type_symbol
_atom_site_label
_atom_site_fract_x
_atom_site_fract_y
_atom_site_fract_z
Si Si1 0.837932 0.327007 0.836434
Si Si2 0.686793 0.530555 0.165651
Si Si3 0.906939 0.102999 0.467859
Si Si4 0.904798 0.609381 0.004345
Si Si5 0.265530 0.345246 0.419232
O O1 0.873738 0.315760 0.750000
O O2 0.769392 0.406917 0.832230
O O3 0.896136 0.355538 0.908309
O O4 0.788603 0.236718 0.863502
O O5 0.657098 0.508986 0.250000
O O6 0.617331 0.586968 0.119180
O O7 0.713396 0.439001 0.123285
O O8 0.832135 0.155055 0.510591
O O9 0.000000 0.142717 0.480187
O O10 0.908046 0.000000 0.500000
O O11 0.828708 0.650264 0.953669
O O12 0.000000 0.629338 0.976706
O O13 0.893284 0.500000 0.000000
#
# Coordination Sequence:
#
# PCOD9473118 Si02
#       5
#    16  16  16  16  16
#     4  11  23  39  61  89 120 157 203 254 307 358
#     4  10  20  36  58  84 120 156 196 248 305 361
#     4   9  18  33  56  83 113 150 195 245 297 356
#     4  11  22  40  65  92 125 167 208 251 306 370
#     4  11  20  40  62  88 118 163 206 252 303 364
#
# _framework density 19.563690000000001
#
# number of rings (size 3 to 8) (size 9 to 14) (size 15 to 20)
#    0.000    1.600    4.000    1.800    0.000    1.600 
#    0.000    0.000    0.000    7.200    0.000    0.000 
#    0.000    0.000    0.000    0.000    0.000    0.000 
#
# Total GULP energy -223176.809645 kJ/mol
# GULP energy per Si atom -5579.420241 kJ/mol
# Density = 1.951916 g / cm^3
# Si number density = 19.563690 Si / 1000 Ang^3
#
#
#
# Elastic Constant Matrix: (Units=GPa)
#
#
# Indices 1 2 3 4 5 6 
#
# 1 100.6626 17.2343 35.4637 0.0000 0.0000 0.0000
# 2 17.2343 107.6297 26.3225 0.0000 0.0000 0.0000
# 3 35.4637 26.3225 130.3140 0.0000 0.0000 0.0000
# 4 0.0000 0.0000 0.0000 12.3599 0.0000 0.0000
# 5 0.0000 0.0000 0.0000 0.0000 11.1624 0.0000
# 6 0.0000 0.0000 0.0000 0.0000 0.0000 -10.6045
#
#
#
# Elastic Compliance Matrix: (Units=1/GPa)
#
#
# Indices 1 2 3 4 5 6 
#
# 1 0.011109 -0.001093 -0.002802 0.000000 0.000000 0.000000
# 2 -0.001093 0.009882 -0.001698 0.000000 0.000000 0.000000
# 3 -0.002802 -0.001698 0.008779 0.000000 0.000000 0.000000
# 4 0.000000 0.000000 0.000000 0.080907 0.000000 0.000000
# 5 0.000000 0.000000 0.000000 0.000000 0.089586 0.000000
# 6 0.000000 0.000000 0.000000 0.000000 0.000000 -0.094300
#
#
# Mechanical properties :
#
#
# Convention : Reuss Voigt Hill
#
# Bulk Modulus (GPa) = 53.81724 55.18304 54.50014
# Shear Modulus (GPa) = 40.53668 19.88929 30.21298
#
# Velocity S-wave (km/s) = 4.55690 3.19194 3.93407
# Velocity P-wave (km/s) = 7.43341 6.46937 6.96808
#
# Compressibility (1/GPa) = 0.01858141
#
# Stress axis : x y z
#
# Youngs Moduli (GPa) = 90.02020 101.19833 113.90241
#
# Poissons Ratio (x) = 0.11065 0.31918
# Poissons Ratio (y) = 0.09843 0.19346
# Poissons Ratio (z) = 0.25226 0.17188
#
# Static dielectric constant tensor:
#      x y z
#    x 1.676410 0.000000 0.000000 
#    y 0.000000 1.704940 0.000000 
#    z 0.000000 0.000000 1.715500 
# 
# From -- ./inp_files/47019.got.cif
#   From: 2010.05.17/outbox.cif.g08.bks.cpg/sg63_24_cif.got.tgz:47019.got - 2010.06.03 15:47:04.
