data_PCOD9473152
_publ_section_title
;
Structure prediction by ZEFSAII (Michael W. Deem and Ramdas Pophale) SiO2 
 PCOD9473152
Probable space group: C M C M
;
_chemical_formula_sum "Si O2"
_cell_formula_units_Z 96
_cell_length_a 8.637463
_cell_length_b 22.577490
_cell_length_c 24.053261
_cell_angle_alpha 90.000000
_cell_angle_beta 90.000000
_cell_angle_gamma 90.000000
_cell_volume 4690.680175
_symmetry_space_group_name_H-M "C M C M"
_symmetry_group_IT_number 63
_symmetry_cell_setting 'orthorhombic'
loop_
_space_group_symop_operation_xyz
x,y,z
-x,-y,1/2+z
x,-y,-z
-x,y,1/2-z
-x,-y,-z
x,y,1/2-z
-x,y,z
x,-y,1/2+z
1/2+x,1/2+y,z
1/2-x,1/2-y,1/2+z
1/2+x,1/2-y,-z
1/2-x,1/2+y,1/2-z
1/2-x,1/2-y,-z
1/2+x,1/2+y,1/2-z
1/2-x,1/2+y,z
1/2+x,1/2-y,1/2+z
loop_
_atom_site_type_symbol
_atom_site_label
_atom_site_fract_x
_atom_site_fract_y
_atom_site_fract_z
Si Si1 0.316925 0.219555 0.123209
Si Si2 0.315252 0.832696 0.186204
Si Si3 0.815635 0.966403 0.915928
Si Si4 0.684549 0.095317 0.185817
Si Si5 0.187236 0.153639 0.477664
Si Si6 0.813043 0.902067 0.088175
O O1 0.500000 0.231259 0.121305
O O2 0.235304 0.273100 0.154559
O O3 0.288100 0.160233 0.159601
O O4 0.258487 0.204025 0.061241
O O5 0.259103 0.832941 0.250000
O O6 0.500000 0.836436 0.186872
O O7 0.248559 0.885086 0.148356
O O8 0.773010 0.951103 0.852654
O O9 0.761120 0.909653 0.950962
O O10 0.000000 0.967387 0.923772
O O11 0.759097 0.032245 0.929543
O O12 0.730722 0.093754 0.250000
O O13 0.500000 0.084312 0.182109
O O14 0.232396 0.146778 0.542016
O O15 0.000000 0.157864 0.474189
O O16 0.000000 0.902644 0.089207
#
# Coordination Sequence:
#
# PCOD9473152 Si02
#       6
#    16  16  16  16  16  16
#     4  10  20  36  59  84 109 140 180 227 277 327
#     4  11  25  42  58  78 107 145 186 227 272 321
#     4   9  18  33  54  81 111 143 181 223 267 317
#     4   9  18  32  51  77 108 141 178 223 275 326
#     4   9  18  35  59  86 114 142 176 222 273 322
#     4  10  21  37  58  82 110 147 185 221 265 319
#
# _framework density 20.466114000000001
#
# number of rings (size 3 to 8) (size 9 to 14) (size 15 to 20)
#    0.000    2.333    0.000    2.000    0.000    7.667 
#    0.000    3.333    0.000    5.000    0.000    0.000 
#    0.000    0.000    0.000    0.000    0.000    0.000 
#
# Total GULP energy -267987.606951 kJ/mol
# GULP energy per Si atom -5583.075145 kJ/mol
# Density = 2.041953 g / cm^3
# Si number density = 20.466114 Si / 1000 Ang^3
#
#
#
# Elastic Constant Matrix: (Units=GPa)
#
#
# Indices 1 2 3 4 5 6 
#
# 1 7.0361 5.7390 14.2158 0.0000 0.0000 0.0000
# 2 5.7390 51.7893 16.5826 0.0000 0.0000 0.0000
# 3 14.2158 16.5826 108.9149 0.0000 0.0000 0.0000
# 4 0.0000 0.0000 0.0000 23.6233 0.0000 0.0000
# 5 0.0000 0.0000 0.0000 0.0000 27.4074 0.0000
# 6 0.0000 0.0000 0.0000 0.0000 0.0000 24.3334
#
#
#
# Elastic Compliance Matrix: (Units=1/GPa)
#
#
# Indices 1 2 3 4 5 6 
#
# 1 0.203199 -0.014744 -0.024277 0.000000 0.000000 0.000000
# 2 -0.014744 0.021368 -0.001329 0.000000 0.000000 0.000000
# 3 -0.024277 -0.001329 0.012553 0.000000 0.000000 0.000000
# 4 0.000000 0.000000 0.000000 0.042331 0.000000 0.000000
# 5 0.000000 0.000000 0.000000 0.000000 0.036486 0.000000
# 6 0.000000 0.000000 0.000000 0.000000 0.000000 0.041096
#
#
# Mechanical properties :
#
#
# Convention : Reuss Voigt Hill
#
# Bulk Modulus (GPa) = 6.39307 26.75723 16.57515
# Shear Modulus (GPa) = 10.20673 23.81971 17.01322
#
# Velocity S-wave (km/s) = 2.23561 3.41524 2.88633
# Velocity P-wave (km/s) = 3.12961 5.35296 4.38455
#
# Compressibility (1/GPa) = 0.15641937
#
# Stress axis : x y z
#
# Youngs Moduli (GPa) = 4.92129 46.79811 79.66533
#
# Poissons Ratio (x) = 0.68999 1.93404
# Poissons Ratio (y) = 0.07256 0.10587
# Poissons Ratio (z) = 0.11947 0.06219
#
# Static dielectric constant tensor:
#      x y z
#    x 1.693860 0.000000 0.000000 
#    y 0.000000 1.754290 0.000000 
#    z 0.000000 0.000000 1.738630 
# 
# From -- ./inp_files/59949.got.cif
#   From: 2010.05.17/outbox.cif.g08.bks.cpg/sg63_30_cif.got.tgz:59949.got - 2010.06.03 15:47:04.
