data_PCOD9473552
_publ_section_title
;
Structure prediction by ZEFSAII (Michael W. Deem and Ramdas Pophale) SiO2 
 PCOD9473552
Probable space group: C M C M
;
_chemical_formula_sum "Si O2"
_cell_formula_units_Z 96
_cell_length_a 20.753659
_cell_length_b 15.169175
_cell_length_c 13.897289
_cell_angle_alpha 90.000000
_cell_angle_beta 90.000000
_cell_angle_gamma 90.000000
_cell_volume 4375.087339
_symmetry_space_group_name_H-M "C M C M"
_symmetry_group_IT_number 63
_symmetry_cell_setting 'orthorhombic'
loop_
_space_group_symop_operation_xyz
x,y,z
-x,-y,1/2+z
x,-y,-z
-x,y,1/2-z
-x,-y,-z
x,y,1/2-z
-x,y,z
x,-y,1/2+z
1/2+x,1/2+y,z
1/2-x,1/2-y,1/2+z
1/2+x,1/2-y,-z
1/2-x,1/2+y,1/2-z
1/2-x,1/2-y,-z
1/2+x,1/2+y,1/2-z
1/2-x,1/2+y,z
1/2+x,1/2-y,1/2+z
loop_
_atom_site_type_symbol
_atom_site_label
_atom_site_fract_x
_atom_site_fract_y
_atom_site_fract_z
Si Si1 0.394739 0.265082 0.865965
Si Si2 0.180662 0.813727 0.134230
Si Si3 0.279582 0.961738 0.362260
Si Si4 0.072777 0.567637 0.590078
Si Si5 0.254909 0.652698 0.133531
Si Si6 0.927973 0.901828 0.486290
O O1 0.403088 0.255589 0.750000
O O2 0.417774 0.174299 0.916094
O O3 0.320719 0.294455 0.885207
O O4 0.429877 0.347948 0.914144
O O5 0.175689 0.814485 0.250000
O O6 0.196567 0.714813 0.102642
O O7 0.240270 0.876481 0.103232
O O8 0.117024 0.849751 0.086178
O O9 0.262671 0.963688 0.250000
O O10 0.253952 0.053983 0.403954
O O11 0.357104 0.956583 0.365930
O O12 0.070840 0.500000 0.500000
O O13 0.000000 0.557069 0.634188
O O14 0.252402 0.647462 0.250000
O O15 0.000000 0.910262 0.447433
O O16 0.901540 0.000000 0.500000
#
# Coordination Sequence:
#
# PCOD9473552 Si02
#       6
#    16  16  16  16  16  16
#     4  11  23  45  73  99 131 180 236 289 339 400
#     4  10  21  41  65  92 129 170 215 275 342 404
#     4  10  20  38  64  94 128 169 217 272 335 406
#     4  11  25  41  61  95 136 176 221 279 344 410
#     4   9  19  36  62  94 124 160 217 276 328 396
#     4  11  26  43  62  96 134 172 226 283 340 408
#
# _framework density 21.942419000000001
#
# number of rings (size 3 to 8) (size 9 to 14) (size 15 to 20)
#    0.000    1.667    1.667    2.000    2.333    7.333 
#    0.000    1.667    0.000    3.000    0.000    0.000 
#    0.000    0.000    0.000    0.000    0.000    0.000 
#
# Total GULP energy -267715.091012 kJ/mol
# GULP energy per Si atom -5577.397729 kJ/mol
# Density = 2.189248 g / cm^3
# Si number density = 21.942419 Si / 1000 Ang^3
#
#
#
# Elastic Constant Matrix: (Units=GPa)
#
#
# Indices 1 2 3 4 5 6 
#
# 1 98.3405 23.8852 0.1999 0.0000 0.0000 0.0000
# 2 23.8852 150.4131 29.8444 0.0000 0.0000 0.0000
# 3 0.1999 29.8444 56.1283 0.0000 0.0000 0.0000
# 4 0.0000 0.0000 0.0000 24.2778 0.0000 0.0000
# 5 0.0000 0.0000 0.0000 0.0000 15.0207 0.0000
# 6 0.0000 0.0000 0.0000 0.0000 0.0000 78.3752
#
#
#
# Elastic Compliance Matrix: (Units=1/GPa)
#
#
# Indices 1 2 3 4 5 6 
#
# 1 0.010623 -0.001877 0.000960 0.000000 0.000000 0.000000
# 2 -0.001877 0.007764 -0.004122 0.000000 0.000000 0.000000
# 3 0.000960 -0.004122 0.020005 0.000000 0.000000 0.000000
# 4 0.000000 0.000000 0.000000 0.041190 0.000000 0.000000
# 5 0.000000 0.000000 0.000000 0.000000 0.066575 0.000000
# 6 0.000000 0.000000 0.000000 0.000000 0.000000 0.012759
#
#
# Mechanical properties :
#
#
# Convention : Reuss Voigt Hill
#
# Bulk Modulus (GPa) = 35.31807 45.86012 40.58909
# Shear Modulus (GPa) = 28.02209 40.26492 34.14350
#
# Velocity S-wave (km/s) = 3.57749 4.28837 3.94896
# Velocity P-wave (km/s) = 5.76154 6.74283 6.27141
#
# Compressibility (1/GPa) = 0.02831412
#
# Stress axis : x y z
#
# Youngs Moduli (GPa) = 94.13721 128.79440 49.98874
#
# Poissons Ratio (x) = 0.24180 -0.04801
# Poissons Ratio (y) = 0.17674 0.20604
# Poissons Ratio (z) = -0.09041 0.53086
#
# Static dielectric constant tensor:
#      x y z
#    x 1.821070 0.000000 0.000000 
#    y 0.000000 1.825850 0.000000 
#    z 0.000000 0.000000 1.840770 
# 
# From -- ./inp_files/35377.got.cif
#   From: 2010.05.17/outbox.cif.g08.bks.cpg/sg63_18_cif.got.tgz:35377.got - 2010.06.03 15:47:04.
