data_PCOD9473585
_publ_section_title
;
Structure prediction by ZEFSAII (Michael W. Deem and Ramdas Pophale) SiO2 
 PCOD9473585
Probable space group: C M C M
;
_chemical_formula_sum "Si O2"
_cell_formula_units_Z 116
_cell_length_a 22.232154
_cell_length_b 14.638378
_cell_length_c 18.037966
_cell_angle_alpha 90.000000
_cell_angle_beta 90.000000
_cell_angle_gamma 90.000000
_cell_volume 5870.323889
_symmetry_space_group_name_H-M "C M C M"
_symmetry_group_IT_number 63
_symmetry_cell_setting 'orthorhombic'
loop_
_space_group_symop_operation_xyz
x,y,z
-x,-y,1/2+z
x,-y,-z
-x,y,1/2-z
-x,-y,-z
x,y,1/2-z
-x,y,z
x,-y,1/2+z
1/2+x,1/2+y,z
1/2-x,1/2-y,1/2+z
1/2+x,1/2-y,-z
1/2-x,1/2+y,1/2-z
1/2-x,1/2-y,-z
1/2+x,1/2+y,1/2-z
1/2-x,1/2+y,z
1/2+x,1/2-y,1/2+z
loop_
_atom_site_type_symbol
_atom_site_label
_atom_site_fract_x
_atom_site_fract_y
_atom_site_fract_z
Si Si1 0.735074 0.976705 0.585776
Si Si2 0.569935 0.572216 0.064897
Si Si3 0.755481 0.340527 0.165300
Si Si4 0.383988 0.917503 0.666971
Si Si5 0.820182 0.799050 0.566641
Si Si6 0.000000 0.522253 0.250000
Si Si7 0.646536 0.738910 0.903112
Si Si8 0.429514 0.589917 0.666913
O O1 0.764034 0.065133 0.625290
O O2 0.725341 0.000000 0.500000
O O3 0.671747 0.967603 0.628320
O O4 0.775203 0.884188 0.585407
O O5 0.500000 0.595644 0.051868
O O6 0.613632 0.657309 0.071435
O O7 0.575263 0.513662 0.140076
O O8 0.587817 0.500000 0.000000
O O9 0.772199 0.357288 0.250000
O O10 0.806489 0.286231 0.119731
O O11 0.698371 0.274189 0.157763
O O12 0.364399 0.887889 0.750000
O O13 0.445892 0.969579 0.685682
O O14 0.391108 0.828774 0.615342
O O15 0.819041 0.764573 0.481410
O O16 0.602952 0.653893 0.891738
O O17 0.405612 0.603300 0.750000
O O18 0.500000 0.613292 0.667244
#
# Coordination Sequence:
#
# PCOD9473585 Si02
#       8
#    16  16  16  16  16   4  16  16
#     4  12  23  42  68  94 132 176 218 275 339 392
#     4  10  20  39  61  87 126 178 221 261 321 397
#     4  12  26  40  62  97 129 171 228 273 330 403
#     4  10  22  41  66  92 127 170 213 274 340 387
#     4  12  24  41  64  96 138 175 217 278 336 391
#     4   8  24  44  66  96 124 178 214 280 346 380
#     4  12  21  37  60  93 130 166 207 266 334 398
#     4  10  21  33  56  91 124 162 214 272 323 389
#
# _framework density 19.760408999999999
#
# number of rings (size 3 to 8) (size 9 to 14) (size 15 to 20)
#    0.414    0.552    4.138    4.138    0.966    1.103 
#    0.000    0.345    1.517    0.000    0.000    0.000 
#    0.000    0.000    0.000    0.000    0.000    0.000 
#
# Total GULP energy -322931.202073 kJ/mol
# GULP energy per Si atom -5567.779346 kJ/mol
# Density = 1.971543 g / cm^3
# Si number density = 19.760409 Si / 1000 Ang^3
#
#
#
# Elastic Constant Matrix: (Units=GPa)
#
#
# Indices 1 2 3 4 5 6 
#
# 1 39.4087 -2.1981 14.4449 0.0000 0.0000 0.0000
# 2 -2.1981 41.6649 15.3891 0.0000 0.0000 0.0000
# 3 14.4449 15.3891 111.9318 0.0000 0.0000 0.0000
# 4 0.0000 0.0000 0.0000 15.9447 0.0000 0.0000
# 5 0.0000 0.0000 0.0000 0.0000 34.0012 0.0000
# 6 0.0000 0.0000 0.0000 0.0000 0.0000 28.2992
#
#
#
# Elastic Compliance Matrix: (Units=1/GPa)
#
#
# Indices 1 2 3 4 5 6 
#
# 1 0.026953 0.002851 -0.003870 0.000000 0.000000 0.000000
# 2 0.002851 0.025587 -0.003886 0.000000 0.000000 0.000000
# 3 -0.003870 -0.003886 0.009968 0.000000 0.000000 0.000000
# 4 0.000000 0.000000 0.000000 0.062717 0.000000 0.000000
# 5 0.000000 0.000000 0.000000 0.000000 0.029411 0.000000
# 6 0.000000 0.000000 0.000000 0.000000 0.000000 0.035337
#
#
# Mechanical properties :
#
#
# Convention : Reuss Voigt Hill
#
# Bulk Modulus (GPa) = 18.97610 27.58636 23.28123
# Shear Modulus (GPa) = 23.00472 26.67364 24.83918
#
# Velocity S-wave (km/s) = 3.41571 3.67802 3.54929
# Velocity P-wave (km/s) = 5.01797 5.65931 5.34827
#
# Compressibility (1/GPa) = 0.05269786
#
# Stress axis : x y z
#
# Youngs Moduli (GPa) = 37.10188 39.08282 100.32371
#
# Poissons Ratio (x) = -0.11144 0.38829
# Poissons Ratio (y) = -0.10579 0.38984
# Poissons Ratio (z) = 0.14360 0.15187
#
# Static dielectric constant tensor:
#      x y z
#    x 1.724430 0.000000 0.000000 
#    y 0.000000 1.747300 0.000000 
#    z 0.000000 0.000000 1.715780 
# 
# From -- ./inp_files/48256.got.cif
#   From: 2010.05.17/outbox.cif.g08.bks.cpg/sg63_25_cif.got.tgz:48256.got - 2010.06.03 15:47:04.
