data_PCOD9473077
_publ_section_title
;
Structure prediction by ZEFSAII (Michael W. Deem and Ramdas Pophale) SiO2 
 PCOD9473077
Probable space group: C M C M
;
_chemical_formula_sum "Si O2"
_cell_formula_units_Z 72
_cell_length_a 14.855227
_cell_length_b 30.887947
_cell_length_c 8.525367
_cell_angle_alpha 90.000000
_cell_angle_beta 90.000000
_cell_angle_gamma 90.000000
_cell_volume 3911.843030
_symmetry_space_group_name_H-M "C M C M"
_symmetry_group_IT_number 63
_symmetry_cell_setting 'orthorhombic'
loop_
_space_group_symop_operation_xyz
x,y,z
-x,-y,1/2+z
x,-y,-z
-x,y,1/2-z
-x,-y,-z
x,y,1/2-z
-x,y,z
x,-y,1/2+z
1/2+x,1/2+y,z
1/2-x,1/2-y,1/2+z
1/2+x,1/2-y,-z
1/2-x,1/2+y,1/2-z
1/2-x,1/2-y,-z
1/2+x,1/2+y,1/2-z
1/2-x,1/2+y,z
1/2+x,1/2-y,1/2+z
loop_
_atom_site_type_symbol
_atom_site_label
_atom_site_fract_x
_atom_site_fract_y
_atom_site_fract_z
Si Si1 0.500000 0.166923 0.939996
Si Si2 0.191878 0.370305 0.439860
Si Si3 0.000000 0.049195 0.561075
Si Si4 0.000000 0.765177 0.436845
Si Si5 0.307533 0.709308 0.437012
Si Si6 0.197198 0.048871 0.939501
O O1 0.500000 0.170899 0.750000
O O2 0.409336 0.142011 0.987429
O O3 0.500000 0.215048 0.009523
O O4 0.195106 0.369009 0.250000
O O5 0.258773 0.333801 0.503579
O O6 0.227120 0.417314 0.491072
O O7 0.097726 0.066519 0.510863
O O8 0.000000 0.049705 0.750000
O O9 0.000000 0.000000 0.500000
O O10 0.090867 0.786629 0.501428
O O11 0.000000 0.767401 0.250000
O O12 0.307566 0.710880 0.250000
O O13 0.250000 0.750000 0.500000
O O14 0.197965 0.047026 0.750000
O O15 0.208435 0.000000 0.000000
#
# Coordination Sequence:
#
# PCOD9473077 Si02
#       6
#     8  16   8   8  16  16
#     4  10  20  36  58  80 111 153 199 242 291 351
#     4  10  21  37  58  84 114 152 197 245 296 351
#     4   8  14  27  48  73 101 136 176 220 275 342
#     4  12  24  39  61  87 117 155 197 240 292 351
#     4  12  24  39  59  86 118 152 192 241 293 348
#     4   9  18  33  54  80 111 148 190 238 294 350
#
# _framework density 18.405645
#
# number of rings (size 3 to 8) (size 9 to 14) (size 15 to 20)
#    0.000    1.778    2.222    3.000    0.000    1.778 
#    0.000    2.778    0.000    2.667    0.000    0.000 
#    0.000    0.000    0.000    0.000    0.000    0.000 
#
# Total GULP energy -200938.129551 kJ/mol
# GULP energy per Si atom -5581.614710 kJ/mol
# Density = 1.836375 g / cm^3
# Si number density = 18.405645 Si / 1000 Ang^3
#
#
#
# Elastic Constant Matrix: (Units=GPa)
#
#
# Indices 1 2 3 4 5 6 
#
# 1 194.9397 86.9184 39.9090 0.0000 0.0000 0.0000
# 2 86.9184 115.2970 23.7842 0.0000 0.0000 0.0000
# 3 39.9090 23.7842 27.8948 0.0000 0.0000 0.0000
# 4 0.0000 0.0000 0.0000 25.5187 0.0000 0.0000
# 5 0.0000 0.0000 0.0000 0.0000 22.2950 0.0000
# 6 0.0000 0.0000 0.0000 0.0000 0.0000 23.7410
#
#
#
# Elastic Compliance Matrix: (Units=1/GPa)
#
#
# Indices 1 2 3 4 5 6 
#
# 1 0.009225 -0.005135 -0.008820 0.000000 0.000000 0.000000
# 2 -0.005135 0.013383 -0.004064 0.000000 0.000000 0.000000
# 3 -0.008820 -0.004064 0.051933 0.000000 0.000000 0.000000
# 4 0.000000 0.000000 0.000000 0.039187 0.000000 0.000000
# 5 0.000000 0.000000 0.000000 0.000000 0.044853 0.000000
# 6 0.000000 0.000000 0.000000 0.000000 0.000000 0.042121
#
#
# Mechanical properties :
#
#
# Convention : Reuss Voigt Hill
#
# Bulk Modulus (GPa) = 25.97222 71.03941 48.50581
# Shear Modulus (GPa) = 20.03417 26.81228 23.42322
#
# Velocity S-wave (km/s) = 3.30279 3.82087 3.57124
# Velocity P-wave (km/s) = 5.35595 7.62533 6.58908
#
# Compressibility (1/GPa) = 0.03850268
#
# Stress axis : x y z
#
# Youngs Moduli (GPa) = 108.40114 74.72341 19.25566
#
# Poissons Ratio (x) = 0.38370 0.16983
# Poissons Ratio (y) = 0.55664 0.07826
# Poissons Ratio (z) = 0.95609 0.30368
#
# Static dielectric constant tensor:
#      x y z
#    x 1.652490 0.000000 0.000000 
#    y 0.000000 1.602960 0.000000 
#    z 0.000000 0.000000 1.628430 
# 
# From -- ./inp_files/4953.got.cif
#   From: 2010.05.17/outbox.cif.g08.bks.cpg/sg63_3_cif.got.tgz:4953.got - 2010.06.03 15:47:04.
