data_PCOD9473221
_publ_section_title
;
Structure prediction by ZEFSAII (Michael W. Deem and Ramdas Pophale) SiO2 
 PCOD9473221
Probable space group: C M C M
;
_chemical_formula_sum "Si O2"
_cell_formula_units_Z 116
_cell_length_a 25.558282
_cell_length_b 29.747011
_cell_length_c 7.990412
_cell_angle_alpha 90.000000
_cell_angle_beta 90.000000
_cell_angle_gamma 90.000000
_cell_volume 6074.970378
_symmetry_space_group_name_H-M "C M C M"
_symmetry_group_IT_number 63
_symmetry_cell_setting 'orthorhombic'
loop_
_space_group_symop_operation_xyz
x,y,z
-x,-y,1/2+z
x,-y,-z
-x,y,1/2-z
-x,-y,-z
x,y,1/2-z
-x,y,z
x,-y,1/2+z
1/2+x,1/2+y,z
1/2-x,1/2-y,1/2+z
1/2+x,1/2-y,-z
1/2-x,1/2+y,1/2-z
1/2-x,1/2-y,-z
1/2+x,1/2+y,1/2-z
1/2-x,1/2+y,z
1/2+x,1/2-y,1/2+z
loop_
_atom_site_type_symbol
_atom_site_label
_atom_site_fract_x
_atom_site_fract_y
_atom_site_fract_z
Si Si1 0.940714 0.377374 0.452431
Si Si2 0.584358 0.303363 0.443091
Si Si3 0.627671 0.203713 0.445695
Si Si4 0.741253 0.800889 0.441609
Si Si5 0.828061 0.865718 0.561385
Si Si6 0.736212 0.551328 0.550273
Si Si7 0.854200 0.551629 0.548066
Si Si8 0.500000 0.690177 0.250000
O O1 0.941117 0.378875 0.250000
O O2 0.919959 0.328564 0.505467
O O3 0.898707 0.414270 0.513106
O O4 0.000000 0.385464 0.510794
O O5 0.563622 0.301239 0.250000
O O6 0.613512 0.255651 0.474456
O O7 0.626882 0.343228 0.451450
O O8 0.544854 0.309022 0.597869
O O9 0.639253 0.198428 0.250000
O O10 0.679761 0.189476 0.542956
O O11 0.757953 0.805676 0.250000
O O12 0.750000 0.750000 0.500000
O O13 0.777180 0.833964 0.546466
O O14 0.847537 0.865906 0.750000
O O15 0.807318 0.914703 0.513963
O O16 0.726197 0.500000 0.500000
O O17 0.737401 0.554760 0.750000
O O18 0.795242 0.562911 0.488116
O O19 0.865051 0.500000 0.500000
O O20 0.853633 0.554203 0.750000
#
# Coordination Sequence:
#
# PCOD9473221 Si02
#       8
#    16  16  16  16  16  16  16   4
#     4  10  22  37  56  79 109 153 208 262 314 367
#     4  11  25  43  64  93 126 164 214 265 312 371
#     4  11  24  39  56  83 118 158 207 257 316 373
#     4  12  23  36  57  85 121 162 202 253 310 377
#     4  12  23  39  62  93 129 167 209 254 315 380
#     4  10  20  36  60  91 127 163 201 251 314 379
#     4   9  19  36  56  81 112 152 197 250 313 376
#     4  12  26  44  68  90 122 172 214 260 314 366
#
# _framework density 19.094743000000001
#
# number of rings (size 3 to 8) (size 9 to 14) (size 15 to 20)
#    0.000    1.241    2.069    4.345    2.897    2.759 
#    0.000    0.000    0.000    0.000    0.000    0.483 
#    0.000    0.000    0.000    0.000    0.000    0.000 
#
# Total GULP energy -323527.371015 kJ/mol
# GULP energy per Si atom -5578.058121 kJ/mol
# Density = 1.905128 g / cm^3
# Si number density = 19.094743 Si / 1000 Ang^3
#
#
#
# Elastic Constant Matrix: (Units=GPa)
#
#
# Indices 1 2 3 4 5 6 
#
# 1 68.9108 18.7847 23.8210 0.0000 0.0000 0.0000
# 2 18.7847 61.3591 5.2498 0.0000 0.0000 0.0000
# 3 23.8210 5.2498 77.9223 0.0000 0.0000 0.0000
# 4 0.0000 0.0000 0.0000 22.8155 0.0000 0.0000
# 5 0.0000 0.0000 0.0000 0.0000 24.0836 0.0000
# 6 0.0000 0.0000 0.0000 0.0000 0.0000 -25.8230
#
#
#
# Elastic Compliance Matrix: (Units=1/GPa)
#
#
# Indices 1 2 3 4 5 6 
#
# 1 0.017609 -0.004959 -0.005049 0.000000 0.000000 0.000000
# 2 -0.004959 0.017788 0.000317 0.000000 0.000000 0.000000
# 3 -0.005049 0.000317 0.014355 0.000000 0.000000 0.000000
# 4 0.000000 0.000000 0.000000 0.043830 0.000000 0.000000
# 5 0.000000 0.000000 0.000000 0.000000 0.041522 0.000000
# 6 0.000000 0.000000 0.000000 0.000000 0.000000 -0.038725
#
#
# Mechanical properties :
#
#
# Convention : Reuss Voigt Hill
#
# Bulk Modulus (GPa) = 32.92511 33.76701 33.34606
# Shear Modulus (GPa) = 39.71931 14.90434 27.31183
#
# Velocity S-wave (km/s) = 4.56578 2.79686 3.78608
# Velocity P-wave (km/s) = 6.71383 5.30587 6.05094
#
# Compressibility (1/GPa) = 0.03037196
#
# Stress axis : x y z
#
# Youngs Moduli (GPa) = 56.79064 56.21635 69.66041
#
# Poissons Ratio (x) = 0.27876 0.35171
# Poissons Ratio (y) = 0.28161 -0.02211
# Poissons Ratio (z) = 0.28673 -0.01785
#
# Static dielectric constant tensor:
#      x y z
#    x 1.658050 0.000000 0.000000 
#    y 0.000000 1.639000 0.000000 
#    z 0.000000 0.000000 1.702790 
# 
# From -- ./inp_files/10952.got.cif
#   From: 2010.05.17/outbox.cif.g08.bks.cpg/sg63_6_cif.got.tgz:10952.got - 2010.06.03 15:47:04.
