data_PCOD9473676
_publ_section_title
;
Structure prediction by ZEFSAII (Michael W. Deem and Ramdas Pophale) SiO2 
 PCOD9473676
Probable space group: C M C M
;
_chemical_formula_sum "Si O2"
_cell_formula_units_Z 96
_cell_length_a 8.990798
_cell_length_b 20.349233
_cell_length_c 28.693163
_cell_angle_alpha 90.000000
_cell_angle_beta 90.000000
_cell_angle_gamma 90.000000
_cell_volume 5249.581835
_symmetry_space_group_name_H-M "C M C M"
_symmetry_group_IT_number 63
_symmetry_cell_setting 'orthorhombic'
loop_
_space_group_symop_operation_xyz
x,y,z
-x,-y,1/2+z
x,-y,-z
-x,y,1/2-z
-x,-y,-z
x,y,1/2-z
-x,y,z
x,-y,1/2+z
1/2+x,1/2+y,z
1/2-x,1/2-y,1/2+z
1/2+x,1/2-y,-z
1/2-x,1/2+y,1/2-z
1/2-x,1/2-y,-z
1/2+x,1/2+y,1/2-z
1/2-x,1/2+y,z
1/2+x,1/2-y,1/2+z
loop_
_atom_site_type_symbol
_atom_site_label
_atom_site_fract_x
_atom_site_fract_y
_atom_site_fract_z
Si Si1 0.820932 0.816462 0.481339
Si Si2 0.827018 0.055675 0.460399
Si Si3 0.679256 0.753762 0.195240
Si Si4 0.824352 0.498913 0.369939
Si Si5 0.326869 0.603396 0.194155
Si Si6 0.321203 0.356377 0.375902
O O1 0.750000 0.750000 0.500000
O O2 0.780692 0.876511 0.515464
O O3 0.777315 0.833823 0.428262
O O4 0.000000 0.811196 0.481900
O O5 0.000000 0.061098 0.444961
O O6 0.822279 0.000000 0.500000
O O7 0.726780 0.033414 0.417787
O O8 0.717090 0.763350 0.250000
O O9 0.500000 0.759988 0.191435
O O10 0.717015 0.678360 0.181924
O O11 0.758214 0.805368 0.161789
O O12 0.771548 0.548311 0.329714
O O13 0.743005 0.428806 0.366901
O O14 0.000000 0.488913 0.368789
O O15 0.319588 0.598821 0.250000
O O16 0.500000 0.594338 0.180431
O O17 0.500000 0.358546 0.373904
#
# Coordination Sequence:
#
# PCOD9473676 Si02
#       6
#    16  16  16  16  16  16
#     4  10  23  40  60  86 118 155 195 242 290 347
#     4  10  20  41  64  82 114 159 199 239 290 346
#     4   9  20  40  64  90 119 152 193 242 296 351
#     4  12  25  38  59  91 122 155 197 248 297 347
#     4   9  20  41  66  89 117 156 198 239 292 358
#     4  11  23  41  61  86 120 158 201 241 290 353
#
# _framework density 18.287171000000001
#
# number of rings (size 3 to 8) (size 9 to 14) (size 15 to 20)
#    0.000    1.833    1.667    3.000    2.333    4.333 
#    0.000    1.667    0.000    0.000    0.000    0.000 
#    0.000    0.000    0.000    0.000    0.000    0.000 
#
# Total GULP energy -268155.691816 kJ/mol
# GULP energy per Si atom -5586.576913 kJ/mol
# Density = 1.824555 g / cm^3
# Si number density = 18.287171 Si / 1000 Ang^3
#
#
#
# Elastic Constant Matrix: (Units=GPa)
#
#
# Indices 1 2 3 4 5 6 
#
# 1 59.2334 62.0362 41.1811 0.0000 0.0000 0.0000
# 2 62.0362 177.8524 74.5513 0.0000 0.0000 0.0000
# 3 41.1811 74.5513 72.5631 0.0000 0.0000 0.0000
# 4 0.0000 0.0000 0.0000 35.3180 0.0000 0.0000
# 5 0.0000 0.0000 0.0000 0.0000 26.8356 0.0000
# 6 0.0000 0.0000 0.0000 0.0000 0.0000 36.2338
#
#
#
# Elastic Compliance Matrix: (Units=1/GPa)
#
#
# Indices 1 2 3 4 5 6 
#
# 1 0.031231 -0.006084 -0.011473 0.000000 0.000000 0.000000
# 2 -0.006084 0.011061 -0.007911 0.000000 0.000000 0.000000
# 3 -0.011473 -0.007911 0.028420 0.000000 0.000000 0.000000
# 4 0.000000 0.000000 0.000000 0.028314 0.000000 0.000000
# 5 0.000000 0.000000 0.000000 0.000000 0.037264 0.000000
# 6 0.000000 0.000000 0.000000 0.000000 0.000000 0.027599
#
#
# Mechanical properties :
#
#
# Convention : Reuss Voigt Hill
#
# Bulk Modulus (GPa) = 50.56880 73.90958 62.23919
# Shear Modulus (GPa) = 22.58164 28.46951 25.52558
#
# Velocity S-wave (km/s) = 3.51783 3.94991 3.74012
# Velocity P-wave (km/s) = 6.64927 7.82983 7.26358
#
# Compressibility (1/GPa) = 0.01977504
#
# Stress axis : x y z
#
# Youngs Moduli (GPa) = 32.01912 90.40731 35.18600
#
# Poissons Ratio (x) = 0.55007 0.40370
# Poissons Ratio (y) = 0.19482 0.27836
# Poissons Ratio (z) = 0.36737 0.71522
#
# Static dielectric constant tensor:
#      x y z
#    x 1.613450 0.000000 0.000000 
#    y 0.000000 1.605300 0.000000 
#    z 0.000000 0.000000 1.775540 
# 
# From -- ./inp_files/66944.got.cif
#   From: 2010.05.17/outbox.cif.g08.bks.cpg/sg63_34_cif.got.tgz:66944.got - 2010.06.03 15:47:04.
