data_PCOD9473473
_publ_section_title
;
Structure prediction by ZEFSAII (Michael W. Deem and Ramdas Pophale) SiO2 
 PCOD9473473
Probable space group: C M C M
;
_chemical_formula_sum "Si O2"
_cell_formula_units_Z 116
_cell_length_a 17.001526
_cell_length_b 16.620269
_cell_length_c 20.587089
_cell_angle_alpha 90.000000
_cell_angle_beta 90.000000
_cell_angle_gamma 90.000000
_cell_volume 5817.292411
_symmetry_space_group_name_H-M "C M C M"
_symmetry_group_IT_number 63
_symmetry_cell_setting 'orthorhombic'
loop_
_space_group_symop_operation_xyz
x,y,z
-x,-y,1/2+z
x,-y,-z
-x,y,1/2-z
-x,-y,-z
x,y,1/2-z
-x,y,z
x,-y,1/2+z
1/2+x,1/2+y,z
1/2-x,1/2-y,1/2+z
1/2+x,1/2-y,-z
1/2-x,1/2+y,1/2-z
1/2-x,1/2-y,-z
1/2+x,1/2+y,1/2-z
1/2-x,1/2+y,z
1/2+x,1/2-y,1/2+z
loop_
_atom_site_type_symbol
_atom_site_label
_atom_site_fract_x
_atom_site_fract_y
_atom_site_fract_z
Si Si1 0.500000 0.502947 0.750000
Si Si2 0.135821 0.478741 0.069840
Si Si3 0.587124 0.672465 0.044427
Si Si4 0.241837 0.218717 0.677550
Si Si5 0.305281 0.602096 0.937316
Si Si6 0.913545 0.681573 0.633264
Si Si7 0.625693 0.534585 0.360029
Si Si8 0.297016 0.093423 0.324337
O O1 0.432035 0.497885 0.806385
O O2 0.219920 0.436967 0.051910
O O3 0.092371 0.410641 0.111490
O O4 0.151758 0.553545 0.118292
O O5 0.099417 0.500000 0.000000
O O6 0.500000 0.659318 0.015459
O O7 0.592713 0.763589 0.068709
O O8 0.594729 0.616850 0.108222
O O9 0.657751 0.648194 0.997679
O O10 0.215666 0.195933 0.750000
O O11 0.204523 0.162290 0.623132
O O12 0.336276 0.205927 0.673399
O O13 0.218591 0.311546 0.666293
O O14 0.362671 0.529909 0.917149
O O15 0.000000 0.698049 0.662425
O O16 0.712036 0.551098 0.331027
O O17 0.326299 0.081000 0.250000
#
# Coordination Sequence:
#
# PCOD9473473 Si02
#       8
#     4  16  16  16  16  16  16  16
#     4  12  24  32  58  84 124 168 184 242 292 352
#     4  10  22  37  61  87 115 154 202 248 298 351
#     4  11  22  38  56  86 123 157 198 241 296 352
#     4  10  22  39  62  89 116 154 194 249 302 356
#     4  10  23  36  59  84 119 153 201 246 291 351
#     4  10  23  39  59  89 119 153 193 249 304 357
#     4  11  21  36  55  85 118 158 199 233 289 358
#     4  10  20  38  60  83 116 152 197 242 296 354
#
# _framework density 19.940548
#
# number of rings (size 3 to 8) (size 9 to 14) (size 15 to 20)
#    0.000    1.655    2.759    2.069    3.862    5.517 
#    0.000    0.000    0.000    0.000    0.000    1.931 
#    0.000    0.000    0.000    0.000    0.000    0.000 
#
# Total GULP energy -323298.890246 kJ/mol
# GULP energy per Si atom -5574.118797 kJ/mol
# Density = 1.989516 g / cm^3
# Si number density = 19.940548 Si / 1000 Ang^3
#
#
#
# Elastic Constant Matrix: (Units=GPa)
#
#
# Indices 1 2 3 4 5 6 
#
# 1 39.5148 1.1396 6.5973 0.0000 0.0000 0.0000
# 2 1.1396 69.6710 18.9333 0.0000 0.0000 0.0000
# 3 6.5973 18.9333 68.7243 0.0000 0.0000 0.0000
# 4 0.0000 0.0000 0.0000 19.4265 0.0000 0.0000
# 5 0.0000 0.0000 0.0000 0.0000 10.6945 0.0000
# 6 0.0000 0.0000 0.0000 0.0000 0.0000 -2.7915
#
#
#
# Elastic Compliance Matrix: (Units=1/GPa)
#
#
# Indices 1 2 3 4 5 6 
#
# 1 0.025724 0.000271 -0.002544 0.000000 0.000000 0.000000
# 2 0.000271 0.015518 -0.004301 0.000000 0.000000 0.000000
# 3 -0.002544 -0.004301 0.015980 0.000000 0.000000 0.000000
# 4 0.000000 0.000000 0.000000 0.051476 0.000000 0.000000
# 5 0.000000 0.000000 0.000000 0.000000 0.093506 0.000000
# 6 0.000000 0.000000 0.000000 0.000000 0.000000 -0.358231
#
#
# Mechanical properties :
#
#
# Convention : Reuss Voigt Hill
#
# Bulk Modulus (GPa) = 22.68981 25.69452 24.19216
# Shear Modulus (GPa) = -39.00540 15.54855 -11.72842
#
# Velocity S-wave (km/s) = -4.42756 2.79542 -2.42785
# Velocity P-wave (km/s) = 3.83853 4.83039 2.07345
#
# Compressibility (1/GPa) = 0.04407265
#
# Stress axis : x y z
#
# Youngs Moduli (GPa) = 38.87437 64.44317 62.57820
#
# Poissons Ratio (x) = -0.01743 0.15920
# Poissons Ratio (y) = -0.01052 0.26915
# Poissons Ratio (z) = 0.09889 0.27717
#
# Static dielectric constant tensor:
#      x y z
#    x 1.712010 0.000000 0.000000 
#    y 0.000000 1.716520 0.000000 
#    z 0.000000 0.000000 1.698850 
# 
# From -- ./inp_files/45924.got.cif
#   From: 2010.05.17/outbox.cif.g08.bks.cpg/sg63_23_cif.got.tgz:45924.got - 2010.06.03 15:47:04.
