data_PCOD9473315
_publ_section_title
;
Structure prediction by ZEFSAII (Michael W. Deem and Ramdas Pophale) SiO2 
 PCOD9473315
Probable space group: C M C M
;
_chemical_formula_sum "Si O2"
_cell_formula_units_Z 96
_cell_length_a 7.634485
_cell_length_b 22.891349
_cell_length_c 24.157882
_cell_angle_alpha 90.000000
_cell_angle_beta 90.000000
_cell_angle_gamma 90.000000
_cell_volume 4221.919890
_symmetry_space_group_name_H-M "C M C M"
_symmetry_group_IT_number 63
_symmetry_cell_setting 'orthorhombic'
loop_
_space_group_symop_operation_xyz
x,y,z
-x,-y,1/2+z
x,-y,-z
-x,y,1/2-z
-x,-y,-z
x,y,1/2-z
-x,y,z
x,-y,1/2+z
1/2+x,1/2+y,z
1/2-x,1/2-y,1/2+z
1/2+x,1/2-y,-z
1/2-x,1/2+y,1/2-z
1/2-x,1/2-y,-z
1/2+x,1/2+y,1/2-z
1/2-x,1/2+y,z
1/2+x,1/2-y,1/2+z
loop_
_atom_site_type_symbol
_atom_site_label
_atom_site_fract_x
_atom_site_fract_y
_atom_site_fract_z
Si Si1 0.287973 0.142013 0.750000
Si Si2 0.700860 0.223176 0.850221
Si Si3 0.296184 0.951678 0.457837
Si Si4 0.802025 0.177578 0.532326
Si Si5 0.209270 0.996464 0.250000
Si Si6 0.715113 0.333674 0.908549
Si Si7 0.212576 0.039258 0.366869
O O1 0.500000 0.141644 0.750000
O O2 0.225676 0.178241 0.695385
O O3 0.239960 0.073530 0.750000
O O4 0.500000 0.232207 0.832911
O O5 0.703648 0.196945 0.912319
O O6 0.776086 0.287785 0.861836
O O7 0.500000 0.939680 0.470463
O O8 0.194804 0.892326 0.463289
O O9 0.227603 0.000000 0.500000
O O10 0.279524 0.982861 0.399407
O O11 0.730471 0.187487 0.470175
O O12 0.000000 0.199988 0.535357
O O13 0.000000 0.003003 0.250000
O O14 0.273582 0.029304 0.304538
O O15 0.500000 0.333029 0.909624
O O16 0.770001 0.399728 0.894675
O O17 0.000000 0.038989 0.368896
#
# Coordination Sequence:
#
# PCOD9473315 Si02
#       7
#     8  16  16  16   8  16  16
#     4  10  22  39  59  79 107 146 189 232 277 328
#     4  10  21  38  58  82 111 148 189 232 276 328
#     4  11  22  35  54  82 113 147 186 231 279 332
#     4  11  21  35  57  85 114 149 185 229 283 336
#     4  10  22  37  59  85 111 144 187 234 279 330
#     4   9  19  35  57  83 114 146 184 228 278 333
#     4  10  20  37  58  84 115 149 186 230 281 336
#
# _framework density 22.73847
#
# number of rings (size 3 to 8) (size 9 to 14) (size 15 to 20)
#    0.000    1.833    1.667    2.500    0.000    5.333 
#    0.000    5.000    0.000    0.000    0.000    3.500 
#    0.000    0.000    0.000    0.000    0.000    0.000 
#
# Total GULP energy -268060.144979 kJ/mol
# GULP energy per Si atom -5584.586354 kJ/mol
# Density = 2.268672 g / cm^3
# Si number density = 22.738470 Si / 1000 Ang^3
#
#
#
# Elastic Constant Matrix: (Units=GPa)
#
#
# Indices 1 2 3 4 5 6 
#
# 1 53.8423 11.5928 -0.6740 0.0000 0.0000 0.0000
# 2 11.5928 84.7051 17.3178 0.0000 0.0000 0.0000
# 3 -0.6740 17.3178 122.1245 0.0000 0.0000 0.0000
# 4 0.0000 0.0000 0.0000 39.6432 0.0000 0.0000
# 5 0.0000 0.0000 0.0000 0.0000 15.2139 0.0000
# 6 0.0000 0.0000 0.0000 0.0000 0.0000 65.0113
#
#
#
# Elastic Compliance Matrix: (Units=1/GPa)
#
#
# Indices 1 2 3 4 5 6 
#
# 1 0.019165 -0.002724 0.000492 0.000000 0.000000 0.000000
# 2 -0.002724 0.012545 -0.001794 0.000000 0.000000 0.000000
# 3 0.000492 -0.001794 0.008445 0.000000 0.000000 0.000000
# 4 0.000000 0.000000 0.000000 0.025225 0.000000 0.000000
# 5 0.000000 0.000000 0.000000 0.000000 0.065729 0.000000
# 6 0.000000 0.000000 0.000000 0.000000 0.000000 0.015382
#
#
# Mechanical properties :
#
#
# Convention : Reuss Voigt Hill
#
# Bulk Modulus (GPa) = 31.14795 35.23835 33.19315
# Shear Modulus (GPa) = 30.25810 39.46936 34.86373
#
# Velocity S-wave (km/s) = 3.65183 4.17081 3.91992
# Velocity P-wave (km/s) = 5.61331 6.22295 5.92598
#
# Compressibility (1/GPa) = 0.03210485
#
# Stress axis : x y z
#
# Youngs Moduli (GPa) = 52.17758 79.71185 118.40660
#
# Poissons Ratio (x) = 0.21710 -0.05825
# Poissons Ratio (y) = 0.14211 0.21242
# Poissons Ratio (z) = -0.02567 0.14300
#
# Static dielectric constant tensor:
#      x y z
#    x 1.868860 0.000000 0.000000 
#    y 0.000000 1.843880 0.000000 
#    z 0.000000 0.000000 1.903800 
# 
# From -- ./inp_files/60016.got.cif
#   From: 2010.05.17/outbox.cif.g08.bks.cpg/sg63_31_cif.got.tgz:60016.got - 2010.06.03 15:47:04.
