data_PCOD9473728
_publ_section_title
;
Structure prediction by ZEFSAII (Michael W. Deem and Ramdas Pophale) SiO2 
 PCOD9473728
Probable space group: C M C M
;
_chemical_formula_sum "Si O2"
_cell_formula_units_Z 80
_cell_length_a 7.471100
_cell_length_b 27.295616
_cell_length_c 20.817958
_cell_angle_alpha 90.000000
_cell_angle_beta 90.000000
_cell_angle_gamma 90.000000
_cell_volume 4245.370299
_symmetry_space_group_name_H-M "C M C M"
_symmetry_group_IT_number 63
_symmetry_cell_setting 'orthorhombic'
loop_
_space_group_symop_operation_xyz
x,y,z
-x,-y,1/2+z
x,-y,-z
-x,y,1/2-z
-x,-y,-z
x,y,1/2-z
-x,y,z
x,-y,1/2+z
1/2+x,1/2+y,z
1/2-x,1/2-y,1/2+z
1/2+x,1/2-y,-z
1/2-x,1/2+y,1/2-z
1/2-x,1/2-y,-z
1/2+x,1/2+y,1/2-z
1/2-x,1/2+y,z
1/2+x,1/2-y,1/2+z
loop_
_atom_site_type_symbol
_atom_site_label
_atom_site_fract_x
_atom_site_fract_y
_atom_site_fract_z
Si Si1 0.216940 0.305462 0.250000
Si Si2 0.000000 0.058558 0.577126
Si Si3 0.500000 0.442053 0.578054
Si Si4 0.790665 0.631146 0.121589
Si Si5 0.283015 0.133043 0.623365
Si Si6 0.785197 0.808239 0.750000
Si Si7 0.287658 0.806857 0.501121
O O1 0.266696 0.336898 0.187311
O O2 0.279568 0.248631 0.250000
O O3 0.000000 0.302799 0.250000
O O4 0.172555 0.083662 0.610530
O O5 0.000000 0.067918 0.499468
O O6 0.000000 0.000330 0.585717
O O7 0.329591 0.416798 0.612146
O O8 0.771517 0.660997 0.187562
O O9 0.000000 0.619502 0.112346
O O10 0.721772 0.667186 0.065263
O O11 0.500000 0.125707 0.623350
O O12 0.227052 0.166903 0.563343
O O13 0.000000 0.806289 0.750000
O O14 0.500000 0.812865 0.502118
O O15 0.250000 0.750000 0.500000
#
# Coordination Sequence:
#
# PCOD9473728 Si02
#       7
#     8   8   8  16  16   8  16
#     4   9  20  38  62  91 130 174 201 243 316 376
#     4  11  24  41  69  95 117 165 219 271 326 361
#     4  11  24  43  67  93 121 165 217 273 326 359
#     4  11  23  41  60  90 128 162 207 261 311 374
#     4  10  21  40  59  89 128 160 205 261 310 375
#     4  11  21  39  65  91 129 173 205 246 305 378
#     4  10  21  33  56  86 119 163 204 249 311 372
#
# _framework density 18.844056999999999
#
# number of rings (size 3 to 8) (size 9 to 14) (size 15 to 20)
#    0.000    1.600    3.000    1.500    2.800    2.800 
#    3.600    4.000    0.000    2.400    0.000    0.000 
#    0.000    0.000    0.000    0.000    0.000    0.000 
#
# Total GULP energy -223277.879838 kJ/mol
# GULP energy per Si atom -5581.946996 kJ/mol
# Density = 1.880117 g / cm^3
# Si number density = 18.844057 Si / 1000 Ang^3
#
#
#
# Elastic Constant Matrix: (Units=GPa)
#
#
# Indices 1 2 3 4 5 6 
#
# 1 106.0930 57.3914 35.5402 0.0000 0.0000 0.0000
# 2 57.3914 174.7731 86.8714 0.0000 0.0000 0.0000
# 3 35.5402 86.8714 167.1836 0.0000 0.0000 0.0000
# 4 0.0000 0.0000 0.0000 26.6504 0.0000 0.0000
# 5 0.0000 0.0000 0.0000 0.0000 2.0947 0.0000
# 6 0.0000 0.0000 0.0000 0.0000 0.0000 25.6147
#
#
#
# Elastic Compliance Matrix: (Units=1/GPa)
#
#
# Indices 1 2 3 4 5 6 
#
# 1 0.011514 -0.003457 -0.000651 0.000000 0.000000 0.000000
# 2 -0.003457 0.008752 -0.003813 0.000000 0.000000 0.000000
# 3 -0.000651 -0.003813 0.008101 0.000000 0.000000 0.000000
# 4 0.000000 0.000000 0.000000 0.037523 0.000000 0.000000
# 5 0.000000 0.000000 0.000000 0.000000 0.477398 0.000000
# 6 0.000000 0.000000 0.000000 0.000000 0.000000 0.039040
#
#
# Mechanical properties :
#
#
# Convention : Reuss Voigt Hill
#
# Bulk Modulus (GPa) = 79.84222 89.73952 84.79087
# Shear Modulus (GPa) = 8.30088 28.75506 18.52797
#
# Velocity S-wave (km/s) = 2.10109 3.91058 3.13905
# Velocity P-wave (km/s) = 6.95328 8.25322 7.63098
#
# Compressibility (1/GPa) = 0.01252470
#
# Stress axis : x y z
#
# Youngs Moduli (GPa) = 86.85030 114.25760 123.44018
#
# Poissons Ratio (x) = 0.39502 0.08039
# Poissons Ratio (y) = 0.30026 0.47065
# Poissons Ratio (z) = 0.05656 0.43564
#
# Static dielectric constant tensor:
#      x y z
#    x 1.654690 0.000000 0.000000 
#    y 0.000000 1.559970 0.000000 
#    z 0.000000 0.000000 1.654820 
# 
# From -- ./inp_files/51008.got.cif
#   From: 2010.05.17/outbox.cif.g08.bks.cpg/sg63_26_cif.got.tgz:51008.got - 2010.06.03 15:47:04.
