data_PCOD9473122
_publ_section_title
;
Structure prediction by ZEFSAII (Michael W. Deem and Ramdas Pophale) SiO2 
 PCOD9473122
Probable space group: C M C M
;
_chemical_formula_sum "Si O2"
_cell_formula_units_Z 116
_cell_length_a 7.424788
_cell_length_b 29.484933
_cell_length_c 24.087890
_cell_angle_alpha 90.000000
_cell_angle_beta 90.000000
_cell_angle_gamma 90.000000
_cell_volume 5273.305865
_symmetry_space_group_name_H-M "C M C M"
_symmetry_group_IT_number 63
_symmetry_cell_setting 'orthorhombic'
loop_
_space_group_symop_operation_xyz
x,y,z
-x,-y,1/2+z
x,-y,-z
-x,y,1/2-z
-x,-y,-z
x,y,1/2-z
-x,y,z
x,-y,1/2+z
1/2+x,1/2+y,z
1/2-x,1/2-y,1/2+z
1/2+x,1/2-y,-z
1/2-x,1/2+y,1/2-z
1/2-x,1/2-y,-z
1/2+x,1/2+y,1/2-z
1/2-x,1/2+y,z
1/2+x,1/2-y,1/2+z
loop_
_atom_site_type_symbol
_atom_site_label
_atom_site_fract_x
_atom_site_fract_y
_atom_site_fract_z
Si Si1 0.287380 0.078427 0.402224
Si Si2 0.222210 0.921367 0.154694
Si Si3 0.500000 0.946827 0.250000
Si Si4 0.291493 0.228130 0.097951
Si Si5 0.206686 0.826845 0.114378
Si Si6 0.780886 0.654958 0.011557
Si Si7 0.285228 0.347313 0.812986
Si Si8 0.297026 0.515918 0.557621
O O1 0.500000 0.071696 0.408604
O O2 0.225405 0.111111 0.452628
O O3 0.257015 0.106732 0.346246
O O4 0.200057 0.029484 0.405356
O O5 0.340026 0.944544 0.201818
O O6 0.275386 0.868199 0.151460
O O7 0.000000 0.925124 0.160510
O O8 0.275219 0.944339 0.095922
O O9 0.500000 0.236914 0.083361
O O10 0.208940 0.276700 0.112904
O O11 0.217454 0.199241 0.046179
O O12 0.286313 0.194048 0.149929
O O13 0.000000 0.821236 0.132454
O O14 0.213263 0.843439 0.050696
O O15 0.000000 0.655265 0.010950
O O16 0.218152 0.347523 0.750000
O O17 0.500000 0.342445 0.811915
O O18 0.208350 0.500000 0.500000
O O19 0.500000 0.530353 0.543031
#
# Coordination Sequence:
#
# PCOD9473122 Si02
#       8
#    16  16   4  16  16  16  16  16
#     4  10  21  36  57  87 119 153 194 235 288 361
#     4  10  24  45  67  95 128 165 219 271 315 382
#     4  12  26  48  70  86 120 180 218 274 332 354
#     4   9  19  35  54  82 117 155 197 241 303 370
#     4  10  20  36  58  85 117 157 200 249 309 366
#     4   9  18  31  52  85 124 154 189 243 297 368
#     4  10  21  38  56  80 112 149 193 247 297 346
#     4  10  21  40  66  97 130 160 195 250 319 385
#
# _framework density 21.997585999999998
#
# number of rings (size 3 to 8) (size 9 to 14) (size 15 to 20)
#    0.000    2.207    0.000    3.103    1.931    5.793 
#    2.483    0.000    0.000    0.000    0.000    0.000 
#    0.000    0.000    0.000    0.000    0.000    0.000 
#
# Total GULP energy -323260.982647 kJ/mol
# GULP energy per Si atom -5573.465218 kJ/mol
# Density = 2.194752 g / cm^3
# Si number density = 21.997586 Si / 1000 Ang^3
#
#
#
# Elastic Constant Matrix: (Units=GPa)
#
#
# Indices 1 2 3 4 5 6 
#
# 1 93.4936 -1.1644 -3.6866 0.0000 0.0000 0.0000
# 2 -1.1644 90.7207 -5.2456 0.0000 0.0000 0.0000
# 3 -3.6866 -5.2456 78.9851 0.0000 0.0000 0.0000
# 4 0.0000 0.0000 0.0000 1.4214 0.0000 0.0000
# 5 0.0000 0.0000 0.0000 0.0000 25.8144 0.0000
# 6 0.0000 0.0000 0.0000 0.0000 0.0000 31.4097
#
#
#
# Elastic Compliance Matrix: (Units=1/GPa)
#
#
# Indices 1 2 3 4 5 6 
#
# 1 0.010718 0.000167 0.000511 0.000000 0.000000 0.000000
# 2 0.000167 0.011068 0.000743 0.000000 0.000000 0.000000
# 3 0.000511 0.000743 0.012734 0.000000 0.000000 0.000000
# 4 0.000000 0.000000 0.000000 0.703542 0.000000 0.000000
# 5 0.000000 0.000000 0.000000 0.000000 0.038738 0.000000
# 6 0.000000 0.000000 0.000000 0.000000 0.000000 0.031837
#
#
# Mechanical properties :
#
#
# Convention : Reuss Voigt Hill
#
# Bulk Modulus (GPa) = 26.76470 27.00068 26.88269
# Shear Modulus (GPa) = 6.11061 29.94882 18.02971
#
# Velocity S-wave (km/s) = 1.66850 3.69380 2.86601
# Velocity P-wave (km/s) = 3.98815 5.52207 4.81657
#
# Compressibility (1/GPa) = 0.03736264
#
# Stress axis : x y z
#
# Youngs Moduli (GPa) = 93.29958 90.35100 78.53099
#
# Poissons Ratio (x) = -0.01510 -0.04016
# Poissons Ratio (y) = -0.01559 -0.05834
# Poissons Ratio (z) = -0.04771 -0.06712
#
# Static dielectric constant tensor:
#      x y z
#    x 1.856950 0.000000 0.000000 
#    y 0.000000 1.831070 0.000000 
#    z 0.000000 0.000000 1.780850 
# 
# From -- ./inp_files/60477.got.cif
#   From: 2010.05.17/outbox.cif.g08.bks.cpg/sg63_31_cif.got.tgz:60477.got - 2010.06.03 15:47:04.
