data_PCOD9473766
_publ_section_title
;
Structure prediction by ZEFSAII (Michael W. Deem and Ramdas Pophale) SiO2 
 PCOD9473766
Probable space group: C M C M
;
_chemical_formula_sum "Si O2"
_cell_formula_units_Z 80
_cell_length_a 18.813225
_cell_length_b 30.370041
_cell_length_c 7.760628
_cell_angle_alpha 90.000000
_cell_angle_beta 90.000000
_cell_angle_gamma 90.000000
_cell_volume 4434.100110
_symmetry_space_group_name_H-M "C M C M"
_symmetry_group_IT_number 63
_symmetry_cell_setting 'orthorhombic'
loop_
_space_group_symop_operation_xyz
x,y,z
-x,-y,1/2+z
x,-y,-z
-x,y,1/2-z
-x,-y,-z
x,y,1/2-z
-x,y,z
x,-y,1/2+z
1/2+x,1/2+y,z
1/2-x,1/2-y,1/2+z
1/2+x,1/2-y,-z
1/2-x,1/2+y,1/2-z
1/2-x,1/2-y,-z
1/2+x,1/2+y,1/2-z
1/2-x,1/2+y,z
1/2+x,1/2-y,1/2+z
loop_
_atom_site_type_symbol
_atom_site_label
_atom_site_fract_x
_atom_site_fract_y
_atom_site_fract_z
Si Si1 0.914891 0.391900 0.250000
Si Si2 0.819475 0.048905 0.046294
Si Si3 0.086671 0.226021 0.948336
Si Si4 0.413326 0.209353 0.750000
Si Si5 0.079964 0.129252 0.544665
Si Si6 0.845299 0.449891 0.957046
O O1 0.890027 0.341157 0.250000
O O2 0.887639 0.416701 0.421118
O O3 0.000000 0.392390 0.250000
O O4 0.816770 0.051167 0.250000
O O5 0.737787 0.053237 0.987107
O O6 0.869178 0.088318 0.986418
O O7 0.845814 0.000000 0.000000
O O8 0.109941 0.232859 0.750000
O O9 0.107097 0.177168 0.014828
O O10 0.000000 0.225443 0.946101
O O11 0.109457 0.263714 0.080313
O O12 0.500000 0.209403 0.750000
O O13 0.074103 0.134596 0.750000
O O14 0.000000 0.121335 0.475977
O O15 0.851675 0.442451 0.750000
O O16 0.867784 0.500000 0.000000
#
# Coordination Sequence:
#
# PCOD9473766 Si02
#       6
#     8  16  16   8  16  16
#     4  11  24  38  60  91 111 137 173 220 289 331
#     4  10  21  34  54  78 104 149 192 222 268 322
#     4   8  15  29  49  74 107 143 179 223 268 313
#     4   9  18  32  52  79 108 137 175 218 268 331
#     4   9  18  31  50  81 112 144 189 234 274 307
#     4  10  21  40  60  82 111 146 185 217 262 338
#
# _framework density 18.041992
#
# number of rings (size 3 to 8) (size 9 to 14) (size 15 to 20)
#    0.000    2.600    1.000    1.800    4.200    2.400 
#    0.000    2.000    0.000    1.200    0.000    0.000 
#    0.000    0.000    0.000    0.000    0.000    0.000 
#
# Total GULP energy -222924.767637 kJ/mol
# GULP energy per Si atom -5573.119191 kJ/mol
# Density = 1.800093 g / cm^3
# Si number density = 18.041992 Si / 1000 Ang^3
#
#
#
# Elastic Constant Matrix: (Units=GPa)
#
#
# Indices 1 2 3 4 5 6 
#
# 1 33.0792 55.2800 25.2316 0.0000 0.0000 0.0000
# 2 55.2800 191.8018 70.7801 0.0000 0.0000 0.0000
# 3 25.2316 70.7801 89.2608 0.0000 0.0000 0.0000
# 4 0.0000 0.0000 0.0000 32.2355 0.0000 0.0000
# 5 0.0000 0.0000 0.0000 0.0000 22.2734 0.0000
# 6 0.0000 0.0000 0.0000 0.0000 0.0000 -42.2891
#
#
#
# Elastic Compliance Matrix: (Units=1/GPa)
#
#
# Indices 1 2 3 4 5 6 
#
# 1 0.059606 -0.015496 -0.004561 0.000000 0.000000 0.000000
# 2 -0.015496 0.011399 -0.004659 0.000000 0.000000 0.000000
# 3 -0.004561 -0.004659 0.016187 0.000000 0.000000 0.000000
# 4 0.000000 0.000000 0.000000 0.031022 0.000000 0.000000
# 5 0.000000 0.000000 0.000000 0.000000 0.044897 0.000000
# 6 0.000000 0.000000 0.000000 0.000000 0.000000 -0.023647
#
#
# Mechanical properties :
#
#
# Convention : Reuss Voigt Hill
#
# Bulk Modulus (GPa) = 26.48342 68.52501 47.50421
# Shear Modulus (GPa) = 24.81624 13.30064 19.05844
#
# Velocity S-wave (km/s) = 3.71276 2.71810 3.25366
# Velocity P-wave (km/s) = 5.75240 6.92200 6.36412
#
# Compressibility (1/GPa) = 0.03775947
#
# Stress axis : x y z
#
# Youngs Moduli (GPa) = 16.77695 87.72673 61.77942
#
# Poissons Ratio (x) = 1.35941 0.28179
# Poissons Ratio (y) = 0.25997 0.28781
# Poissons Ratio (z) = 0.07652 0.40869
#
# Static dielectric constant tensor:
#      x y z
#    x 1.647760 0.000000 0.000000 
#    y 0.000000 1.572220 0.000000 
#    z 0.000000 0.000000 1.626620 
# 
# From -- ./inp_files/8106.got.cif
#   From: 2010.05.17/outbox.cif.g08.bks.cpg/sg63_5_cif.got.tgz:8106.got - 2010.06.03 15:47:04.
