data_PCOD9473633
_publ_section_title
;
Structure prediction by ZEFSAII (Michael W. Deem and Ramdas Pophale) SiO2 
 PCOD9473633
Probable space group: C M C M
;
_chemical_formula_sum "Si O2"
_cell_formula_units_Z 52
_cell_length_a 13.106453
_cell_length_b 7.723085
_cell_length_c 19.430533
_cell_angle_alpha 90.000000
_cell_angle_beta 90.000000
_cell_angle_gamma 90.000000
_cell_volume 1966.802280
_symmetry_space_group_name_H-M "C M C M"
_symmetry_group_IT_number 63
_symmetry_cell_setting 'orthorhombic'
loop_
_space_group_symop_operation_xyz
x,y,z
-x,-y,1/2+z
x,-y,-z
-x,y,1/2-z
-x,-y,-z
x,y,1/2-z
-x,y,z
x,-y,1/2+z
1/2+x,1/2+y,z
1/2-x,1/2-y,1/2+z
1/2+x,1/2-y,-z
1/2-x,1/2+y,1/2-z
1/2-x,1/2-y,-z
1/2+x,1/2+y,1/2-z
1/2-x,1/2+y,z
1/2+x,1/2-y,1/2+z
loop_
_atom_site_type_symbol
_atom_site_label
_atom_site_fract_x
_atom_site_fract_y
_atom_site_fract_z
Si Si1 0.332407 0.677504 0.846095
Si Si2 0.000000 0.331961 0.750000
Si Si3 0.617593 0.807024 0.991671
Si Si4 0.612426 0.288552 0.648874
O O1 0.408765 0.810380 0.809419
O O2 0.333300 0.709629 0.928051
O O3 0.375886 0.488065 0.830333
O O4 0.213752 0.692770 0.826101
O O5 0.500000 0.827443 0.970493
O O6 0.615706 0.717624 0.065707
O O7 0.660817 0.000000 0.000000
O O8 0.500000 0.221499 0.670250
#
# Coordination Sequence:
#
# PCOD9473633 Si02
#       4
#    16   4  16  16
#     4  12  24  47  72 104 148 190 236 290 358 425
#     4  12  28  48  74  98 142 208 238 282 346 432
#     4  10  20  39  74 114 145 177 232 301 367 424
#     4  11  24  44  75 107 141 182 234 298 364 412
#
# _framework density 26.438853000000002
#
# number of rings (size 3 to 8) (size 9 to 14) (size 15 to 20)
#    0.000    0.923    3.077    3.692    0.000    3.692 
#    2.769    0.000    0.000    3.692    0.000    0.000 
#    0.000    0.000    0.000    0.000    0.000    0.000 
#
# Total GULP energy -145207.476704 kJ/mol
# GULP energy per Si atom -5584.902950 kJ/mol
# Density = 2.637868 g / cm^3
# Si number density = 26.438853 Si / 1000 Ang^3
#
#
#
# Elastic Constant Matrix: (Units=GPa)
#
#
# Indices 1 2 3 4 5 6 
#
# 1 273.7929 19.0639 23.1896 0.0000 0.0000 0.0000
# 2 19.0639 66.4592 1.1359 0.0000 0.0000 0.0000
# 3 23.1896 1.1359 182.1759 0.0000 0.0000 0.0000
# 4 0.0000 0.0000 0.0000 454.5474 0.0000 0.0000
# 5 0.0000 0.0000 0.0000 0.0000 -35.6156 0.0000
# 6 0.0000 0.0000 0.0000 0.0000 0.0000 31.3820
#
#
#
# Elastic Compliance Matrix: (Units=1/GPa)
#
#
# Indices 1 2 3 4 5 6 
#
# 1 0.003767 -0.001073 -0.000473 0.000000 0.000000 0.000000
# 2 -0.001073 0.015354 0.000041 0.000000 0.000000 0.000000
# 3 -0.000473 0.000041 0.005549 0.000000 0.000000 0.000000
# 4 0.000000 0.000000 0.000000 0.002200 0.000000 0.000000
# 5 0.000000 0.000000 0.000000 0.000000 -0.028078 0.000000
# 6 0.000000 0.000000 0.000000 0.000000 0.000000 0.031865
#
#
# Mechanical properties :
#
#
# Convention : Reuss Voigt Hill
#
# Bulk Modulus (GPa) = 46.16610 67.68963 56.92786
# Shear Modulus (GPa) = 122.28736 121.99866 122.14301
#
# Velocity S-wave (km/s) = 6.80833 6.80029 6.80431
# Velocity P-wave (km/s) = 8.90527 9.34433 9.12744
#
# Compressibility (1/GPa) = 0.02166091
#
# Stress axis : x y z
#
# Youngs Moduli (GPa) = 265.45457 65.13048 180.20825
#
# Poissons Ratio (x) = 0.06985 0.08521
# Poissons Ratio (y) = 0.28471 -0.00735
# Poissons Ratio (z) = 0.12552 -0.00266
#
# Static dielectric constant tensor:
#      x y z
#    x 2.060760 0.000000 0.000000 
#    y 0.000000 2.069160 0.000000 
#    z 0.000000 0.000000 2.021870 
# 
# From -- ./inp_files/53602.got.cif
#   From: 2010.05.17/outbox.cif.g08.bks.cpg/sg63_27_cif.got.tgz:53602.got - 2010.06.03 15:47:04.
