data_PCOD9473870
_publ_section_title
;
Structure prediction by ZEFSAII (Michael W. Deem and Ramdas Pophale) SiO2 
 PCOD9473870
Probable space group: C M C M
;
_chemical_formula_sum "Si O2"
_cell_formula_units_Z 116
_cell_length_a 28.850101
_cell_length_b 8.769235
_cell_length_c 24.527153
_cell_angle_alpha 90.000000
_cell_angle_beta 90.000000
_cell_angle_gamma 90.000000
_cell_volume 6205.205756
_symmetry_space_group_name_H-M "C M C M"
_symmetry_group_IT_number 63
_symmetry_cell_setting 'orthorhombic'
loop_
_space_group_symop_operation_xyz
x,y,z
-x,-y,1/2+z
x,-y,-z
-x,y,1/2-z
-x,-y,-z
x,y,1/2-z
-x,y,z
x,-y,1/2+z
1/2+x,1/2+y,z
1/2-x,1/2-y,1/2+z
1/2+x,1/2-y,-z
1/2-x,1/2+y,1/2-z
1/2-x,1/2-y,-z
1/2+x,1/2+y,1/2-z
1/2-x,1/2+y,z
1/2+x,1/2-y,1/2+z
loop_
_atom_site_type_symbol
_atom_site_label
_atom_site_fract_x
_atom_site_fract_y
_atom_site_fract_z
Si Si1 0.368125 0.700607 0.905130
Si Si2 0.143228 0.840815 0.890256
Si Si3 0.053078 0.398071 0.551307
Si Si4 0.812382 0.343493 0.815134
Si Si5 0.450621 0.165008 0.862964
Si Si6 0.500000 0.867663 0.250000
Si Si7 0.283653 0.810442 0.184974
Si Si8 0.801195 0.183424 0.001248
O O1 0.366236 0.520347 0.895454
O O2 0.414837 0.756749 0.933835
O O3 0.356264 0.789700 0.849725
O O4 0.327695 0.739478 0.947839
O O5 0.094900 0.760145 0.876114
O O6 0.180734 0.802594 0.843966
O O7 0.167495 0.780861 0.945777
O O8 0.069626 0.500000 0.500000
O O9 0.053377 0.508529 0.603704
O O10 0.000000 0.353243 0.539527
O O11 0.820138 0.335755 0.750000
O O12 0.769017 0.233524 0.829446
O O13 0.797111 0.516031 0.829087
O O14 0.500000 0.238506 0.882243
O O15 0.460154 0.137162 0.799047
O O16 0.287286 0.793796 0.250000
O O17 0.750000 0.250000 0.000000
O O18 0.797989 0.000000 0.000000
#
# Coordination Sequence:
#
# PCOD9473870 Si02
#       8
#    16  16  16  16  16   4  16  16
#     4  11  23  38  58  86 123 149 194 247 293 357
#     4  11  22  37  59  88 116 158 198 241 305 356
#     4  10  21  40  64  90 116 152 194 241 297 357
#     4  10  21  38  53  82 112 154 196 243 294 344
#     4   9  20  38  61  85 117 155 201 250 305 367
#     4   8  20  40  62  86 118 156 200 260 308 364
#     4  10  21  35  58  78 114 153 200 244 289 351
#     4  10  23  39  56  84 120 156 192 239 292 351
#
# _framework density 18.693981000000001
#
# number of rings (size 3 to 8) (size 9 to 14) (size 15 to 20)
#    0.414    1.517    0.000    3.310    0.966    7.172 
#    1.241    0.000    0.000    5.793    0.000    0.000 
#    0.000    0.000    0.000    0.000    0.000    0.000 
#
# Total GULP energy -323090.319982 kJ/mol
# GULP energy per Si atom -5570.522758 kJ/mol
# Density = 1.865143 g / cm^3
# Si number density = 18.693981 Si / 1000 Ang^3
#
#
#
# Elastic Constant Matrix: (Units=GPa)
#
#
# Indices 1 2 3 4 5 6 
#
# 1 69.7209 11.6053 35.2459 0.0000 0.0000 0.0000
# 2 11.6053 42.9705 34.1590 0.0000 0.0000 0.0000
# 3 35.2459 34.1590 82.0058 0.0000 0.0000 0.0000
# 4 0.0000 0.0000 0.0000 24.6713 0.0000 0.0000
# 5 0.0000 0.0000 0.0000 0.0000 31.8735 0.0000
# 6 0.0000 0.0000 0.0000 0.0000 0.0000 25.6643
#
#
#
# Elastic Compliance Matrix: (Units=1/GPa)
#
#
# Indices 1 2 3 4 5 6 
#
# 1 0.018436 0.001973 -0.008745 0.000000 0.000000 0.000000
# 2 0.001973 0.035004 -0.015429 0.000000 0.000000 0.000000
# 3 -0.008745 -0.015429 0.022380 0.000000 0.000000 0.000000
# 4 0.000000 0.000000 0.000000 0.040533 0.000000 0.000000
# 5 0.000000 0.000000 0.000000 0.000000 0.031374 0.000000
# 6 0.000000 0.000000 0.000000 0.000000 0.000000 0.038965
#
#
# Mechanical properties :
#
#
# Convention : Reuss Voigt Hill
#
# Bulk Modulus (GPa) = 31.82982 39.63529 35.73256
# Shear Modulus (GPa) = 20.69840 24.02097 22.35968
#
# Velocity S-wave (km/s) = 3.33111 3.58852 3.46221
# Velocity P-wave (km/s) = 5.64436 6.19824 5.92777
#
# Compressibility (1/GPa) = 0.03141708
#
# Stress axis : x y z
#
# Youngs Moduli (GPa) = 54.24304 28.56843 44.68331
#
# Poissons Ratio (x) = -0.05637 0.39078
# Poissons Ratio (y) = -0.10703 0.68940
# Poissons Ratio (z) = 0.47438 0.44077
#
# Static dielectric constant tensor:
#      x y z
#    x 1.653140 0.000000 0.000000 
#    y 0.000000 1.649520 0.000000 
#    z 0.000000 0.000000 1.673380 
# 
# From -- ./inp_files/65816.got.cif
#   From: 2010.05.17/outbox.cif.g08.bks.cpg/sg63_33_cif.got.tgz:65816.got - 2010.06.03 15:47:04.
