data_PCOD9473096
_publ_section_title
;
Structure prediction by ZEFSAII (Michael W. Deem and Ramdas Pophale) SiO2 
 PCOD9473096
Probable space group: C M C M
;
_chemical_formula_sum "Si O2"
_cell_formula_units_Z 96
_cell_length_a 12.003190
_cell_length_b 32.852148
_cell_length_c 14.278685
_cell_angle_alpha 90.000000
_cell_angle_beta 90.000000
_cell_angle_gamma 90.000000
_cell_volume 5630.522057
_symmetry_space_group_name_H-M "C M C M"
_symmetry_group_IT_number 63
_symmetry_cell_setting 'orthorhombic'
loop_
_space_group_symop_operation_xyz
x,y,z
-x,-y,1/2+z
x,-y,-z
-x,y,1/2-z
-x,-y,-z
x,y,1/2-z
-x,y,z
x,-y,1/2+z
1/2+x,1/2+y,z
1/2-x,1/2-y,1/2+z
1/2+x,1/2-y,-z
1/2-x,1/2+y,1/2-z
1/2-x,1/2-y,-z
1/2+x,1/2+y,1/2-z
1/2-x,1/2+y,z
1/2+x,1/2-y,1/2+z
loop_
_atom_site_type_symbol
_atom_site_label
_atom_site_fract_x
_atom_site_fract_y
_atom_site_fract_z
Si Si1 0.367938 0.990784 0.250000
Si Si2 0.801570 0.765148 0.361239
Si Si3 0.868457 0.301467 0.007986
Si Si4 0.000000 0.079119 0.636432
Si Si5 0.634864 0.106709 0.043622
Si Si6 0.269496 0.461514 0.068657
Si Si7 0.630335 0.911308 0.750000
Si Si8 0.000000 0.173650 0.636964
O O1 0.500000 0.979745 0.250000
O O2 0.303353 0.974715 0.341269
O O3 0.361932 0.039844 0.250000
O O4 0.805717 0.759280 0.250000
O O5 0.826573 0.724165 0.418441
O O6 0.686375 0.782543 0.399960
O O7 0.893092 0.799313 0.389358
O O8 0.841507 0.348892 0.997303
O O9 0.000000 0.297373 0.010853
O O10 0.888231 0.056986 0.600148
O O11 0.000000 0.078008 0.750000
O O12 0.000000 0.126786 0.605206
O O13 0.500000 0.099734 0.041314
O O14 0.674624 0.104883 0.151597
O O15 0.698276 0.072348 0.986123
O O16 0.285310 0.500000 0.000000
O O17 0.500000 0.899895 0.750000
O O18 0.000000 0.171741 0.750000
#
# Coordination Sequence:
#
# PCOD9473096 Si02
#       8
#     8  16  16   8  16  16   8   8
#     4  11  22  37  61  85 113 152 191 234 291 347
#     4  10  20  36  58  83 111 149 190 234 284 338
#     4  10  21  36  56  85 115 146 186 235 288 343
#     4  11  23  39  57  82 113 155 200 238 280 329
#     4  10  21  36  58  88 117 146 185 236 289 344
#     4  12  23  39  60  84 117 153 194 238 282 340
#     4   9  18  34  55  85 115 149 186 224 285 345
#     4   9  18  35  59  81 105 146 193 234 270 326
#
# _framework density 17.049928999999999
#
# number of rings (size 3 to 8) (size 9 to 14) (size 15 to 20)
#    0.000    1.667    3.333    1.750    1.167    1.000 
#    1.500    0.000    0.000    0.000    0.000    0.000 
#    0.000    0.000    0.000    0.000    0.000    0.000 
#
# Total GULP energy -267783.083538 kJ/mol
# GULP energy per Si atom -5578.814240 kJ/mol
# Density = 1.701112 g / cm^3
# Si number density = 17.049929 Si / 1000 Ang^3
#
#
#
# Elastic Constant Matrix: (Units=GPa)
#
#
# Indices 1 2 3 4 5 6 
#
# 1 22.5256 23.0232 16.9579 0.0000 0.0000 0.0000
# 2 23.0232 86.3693 12.6783 0.0000 0.0000 0.0000
# 3 16.9579 12.6783 43.3360 0.0000 0.0000 0.0000
# 4 0.0000 0.0000 0.0000 14.1098 0.0000 0.0000
# 5 0.0000 0.0000 0.0000 0.0000 16.3676 0.0000
# 6 0.0000 0.0000 0.0000 0.0000 0.0000 20.8215
#
#
#
# Elastic Compliance Matrix: (Units=1/GPa)
#
#
# Indices 1 2 3 4 5 6 
#
# 1 0.083730 -0.018296 -0.027412 0.000000 0.000000 0.000000
# 2 -0.018296 0.016096 0.002451 0.000000 0.000000 0.000000
# 3 -0.027412 0.002451 0.033085 0.000000 0.000000 0.000000
# 4 0.000000 0.000000 0.000000 0.070873 0.000000 0.000000
# 5 0.000000 0.000000 0.000000 0.000000 0.061096 0.000000
# 6 0.000000 0.000000 0.000000 0.000000 0.000000 0.048027
#
#
# Mechanical properties :
#
#
# Convention : Reuss Voigt Hill
#
# Bulk Modulus (GPa) = 21.55344 28.61664 25.08504
# Shear Modulus (GPa) = 12.05145 16.89788 14.47466
#
# Velocity S-wave (km/s) = 2.66152 3.15156 2.91685
# Velocity P-wave (km/s) = 4.70252 5.48303 5.10770
#
# Compressibility (1/GPa) = 0.04639631
#
# Stress axis : x y z
#
# Youngs Moduli (GPa) = 11.94308 62.12889 30.22493
#
# Poissons Ratio (x) = 1.13671 0.82853
# Poissons Ratio (y) = 0.21851 -0.07407
# Poissons Ratio (z) = 0.32738 -0.15225
#
# Static dielectric constant tensor:
#      x y z
#    x 1.569910 0.000000 0.000000 
#    y 0.000000 1.565390 0.000000 
#    z 0.000000 0.000000 1.567820 
# 
# From -- ./inp_files/30380.got.cif
#   From: 2010.05.17/outbox.cif.g08.bks.cpg/sg63_16_cif.got.tgz:30380.got - 2010.06.03 15:47:04.
