data_PCOD9473614
_publ_section_title
;
Structure prediction by ZEFSAII (Michael W. Deem and Ramdas Pophale) SiO2 
 PCOD9473614
Probable space group: C M C M
;
_chemical_formula_sum "Si O2"
_cell_formula_units_Z 112
_cell_length_a 15.308627
_cell_length_b 22.886863
_cell_length_c 14.826515
_cell_angle_alpha 90.000000
_cell_angle_beta 90.000000
_cell_angle_gamma 90.000000
_cell_volume 5194.713410
_symmetry_space_group_name_H-M "C M C M"
_symmetry_group_IT_number 63
_symmetry_cell_setting 'orthorhombic'
loop_
_space_group_symop_operation_xyz
x,y,z
-x,-y,1/2+z
x,-y,-z
-x,y,1/2-z
-x,-y,-z
x,y,1/2-z
-x,y,z
x,-y,1/2+z
1/2+x,1/2+y,z
1/2-x,1/2-y,1/2+z
1/2+x,1/2-y,-z
1/2-x,1/2+y,1/2-z
1/2-x,1/2-y,-z
1/2+x,1/2+y,1/2-z
1/2-x,1/2+y,z
1/2+x,1/2-y,1/2+z
loop_
_atom_site_type_symbol
_atom_site_label
_atom_site_fract_x
_atom_site_fract_y
_atom_site_fract_z
Si Si1 0.400814 0.811482 0.500075
Si Si2 0.598337 0.316466 0.549478
Si Si3 0.271650 0.145705 0.354970
Si Si4 0.288140 0.015406 0.400465
Si Si5 0.133599 0.858133 0.350094
Si Si6 0.336512 0.889714 0.346571
Si Si7 0.594160 0.494997 0.145006
O O1 0.500000 0.810339 0.533727
O O2 0.386640 0.752896 0.441848
O O3 0.332913 0.814958 0.581770
O O4 0.386626 0.865758 0.432805
O O5 0.500000 0.331496 0.579521
O O6 0.674650 0.349785 0.602139
O O7 0.604057 0.327492 0.441555
O O8 0.270108 0.161773 0.250000
O O9 0.308949 0.079711 0.365633
O O10 0.319540 0.000000 0.500000
O O11 0.321471 0.959398 0.346372
O O12 0.182289 0.015039 0.401456
O O13 0.109675 0.834773 0.250000
O O14 0.238689 0.863269 0.353581
O O15 0.098562 0.924577 0.355056
O O16 0.375223 0.872163 0.250000
O O17 0.600057 0.513376 0.250000
O O18 0.500000 0.514279 0.108439
#
# Coordination Sequence:
#
# PCOD9473614 Si02
#       7
#    16  16  16  16  16  16  16
#     4  11  25  46  68  92 125 169 225 279 327 379
#     4  11  24  42  64  95 135 174 217 262 317 391
#     4  12  25  43  66  95 136 176 214 266 335 395
#     4  11  20  37  62  88 124 168 212 262 324 392
#     4   9  17  32  59  91 125 166 212 260 315 380
#     4  10  20  39  66  93 122 159 212 270 325 378
#     4   9  17  29  47  79 121 161 206 254 300 366
#
# _framework density 21.560379999999999
#
# number of rings (size 3 to 8) (size 9 to 14) (size 15 to 20)
#    0.000    1.571    2.857    3.857    0.000    3.714 
#    0.000    4.286    0.000    1.714    0.000    0.000 
#    0.000    0.000    0.000    0.000    0.000    0.000 
#
# Total GULP energy -312719.427726 kJ/mol
# GULP energy per Si atom -5584.275495 kJ/mol
# Density = 2.151131 g / cm^3
# Si number density = 21.560380 Si / 1000 Ang^3
#
#
#
# Elastic Constant Matrix: (Units=GPa)
#
#
# Indices 1 2 3 4 5 6 
#
# 1 52.6580 15.9988 26.2558 0.0000 0.0000 0.0000
# 2 15.9988 63.3992 7.1116 0.0000 0.0000 0.0000
# 3 26.2558 7.1116 117.0493 0.0000 0.0000 0.0000
# 4 0.0000 0.0000 0.0000 12.7775 0.0000 0.0000
# 5 0.0000 0.0000 0.0000 0.0000 -2.0195 0.0000
# 6 0.0000 0.0000 0.0000 0.0000 0.0000 -3.0847
#
#
#
# Elastic Compliance Matrix: (Units=1/GPa)
#
#
# Indices 1 2 3 4 5 6 
#
# 1 0.023002 -0.005262 -0.004840 0.000000 0.000000 0.000000
# 2 -0.005262 0.017085 0.000142 0.000000 0.000000 0.000000
# 3 -0.004840 0.000142 0.009620 0.000000 0.000000 0.000000
# 4 0.000000 0.000000 0.000000 0.078263 0.000000 0.000000
# 5 0.000000 0.000000 0.000000 0.000000 -0.495162 0.000000
# 6 0.000000 0.000000 0.000000 0.000000 0.000000 -0.324184
#
#
# Mechanical properties :
#
#
# Convention : Reuss Voigt Hill
#
# Bulk Modulus (GPa) = 33.56982 36.87098 35.22040
# Shear Modulus (GPa) = -7.55827 13.78400 3.11287
#
# Velocity S-wave (km/s) = -1.87436 2.53122 1.20288
# Velocity P-wave (km/s) = 3.30449 5.06766 4.27790
#
# Compressibility (1/GPa) = 0.02978867
#
# Stress axis : x y z
#
# Youngs Moduli (GPa) = 43.47370 58.53116 103.94503
#
# Poissons Ratio (x) = 0.30798 0.50310
# Poissons Ratio (y) = 0.22875 -0.01479
# Poissons Ratio (z) = 0.21042 -0.00833
#
# Static dielectric constant tensor:
#      x y z
#    x 1.781670 0.000000 0.000000 
#    y 0.000000 1.793390 0.000000 
#    z 0.000000 0.000000 2.268200 
# 
# From -- ./inp_files/32281.got.cif
#   From: 2010.05.17/outbox.cif.g08.bks.cpg/sg63_17_cif.got.tgz:32281.got - 2010.06.03 15:47:04.
