data_PCOD9473666
_publ_section_title
;
Structure prediction by ZEFSAII (Michael W. Deem and Ramdas Pophale) SiO2 
 PCOD9473666
Probable space group: C M C M
;
_chemical_formula_sum "Si O2"
_cell_formula_units_Z 88
_cell_length_a 12.136725
_cell_length_b 13.901704
_cell_length_c 27.971310
_cell_angle_alpha 90.000000
_cell_angle_beta 90.000000
_cell_angle_gamma 90.000000
_cell_volume 4719.351827
_symmetry_space_group_name_H-M "C M C M"
_symmetry_group_IT_number 63
_symmetry_cell_setting 'orthorhombic'
loop_
_space_group_symop_operation_xyz
x,y,z
-x,-y,1/2+z
x,-y,-z
-x,y,1/2-z
-x,-y,-z
x,y,1/2-z
-x,y,z
x,-y,1/2+z
1/2+x,1/2+y,z
1/2-x,1/2-y,1/2+z
1/2+x,1/2-y,-z
1/2-x,1/2+y,1/2-z
1/2-x,1/2-y,-z
1/2+x,1/2+y,1/2-z
1/2-x,1/2+y,z
1/2+x,1/2-y,1/2+z
loop_
_atom_site_type_symbol
_atom_site_label
_atom_site_fract_x
_atom_site_fract_y
_atom_site_fract_z
Si Si1 0.265800 0.525432 0.444370
Si Si2 0.000000 0.045735 0.552856
Si Si3 0.766807 0.963054 0.804868
Si Si4 0.368287 0.098618 0.871881
Si Si5 0.000000 0.930723 0.196825
Si Si6 0.500000 0.719601 0.889893
Si Si7 0.241070 0.700021 0.383781
O O1 0.257848 0.500000 0.500000
O O2 0.384609 0.488482 0.425397
O O3 0.171384 0.469309 0.415670
O O4 0.265261 0.637565 0.431269
O O5 0.000000 0.159760 0.560403
O O6 0.000000 0.000000 0.500000
O O7 0.739302 0.940207 0.750000
O O8 0.684812 0.043914 0.826352
O O9 0.889971 0.005905 0.806281
O O10 0.762248 0.870632 0.839135
O O11 0.500000 0.105872 0.869068
O O12 0.311194 0.202595 0.879043
O O13 0.000000 0.884334 0.250000
O O14 0.000000 0.855960 0.153750
O O15 0.388077 0.777379 0.885546
#
# Coordination Sequence:
#
# PCOD9473666 Si02
#       7
#    16   8  16  16   8   8  16
#     4  10  23  43  62  88 123 161 202 252 302 359
#     4  10  20  42  66  86 117 161 208 256 302 350
#     4  10  23  42  63  90 124 162 202 249 301 359
#     4  11  24  41  60  90 125 161 198 246 309 362
#     4  10  20  40  68  88 116 163 208 253 301 350
#     4  12  20  42  63  90 121 159 208 264 290 358
#     4  11  24  38  65  89 122 160 207 247 304 360
#
# _framework density 18.646629000000001
#
# number of rings (size 3 to 8) (size 9 to 14) (size 15 to 20)
#    0.000    1.455    3.636    1.091    7.636    2.909 
#    0.000    0.000    0.000    0.000    0.000    0.000 
#    0.000    0.000    0.000    0.000    0.000    0.000 
#
# Total GULP energy -245529.131283 kJ/mol
# GULP energy per Si atom -5580.207529 kJ/mol
# Density = 1.860419 g / cm^3
# Si number density = 18.646629 Si / 1000 Ang^3
#
#
#
# Elastic Constant Matrix: (Units=GPa)
#
#
# Indices 1 2 3 4 5 6 
#
# 1 144.0983 14.7117 3.0707 0.0000 0.0000 0.0000
# 2 14.7117 65.9222 12.0406 0.0000 0.0000 0.0000
# 3 3.0707 12.0406 100.7309 0.0000 0.0000 0.0000
# 4 0.0000 0.0000 0.0000 14.0953 0.0000 0.0000
# 5 0.0000 0.0000 0.0000 0.0000 -65.8067 0.0000
# 6 0.0000 0.0000 0.0000 0.0000 0.0000 102.5886
#
#
#
# Elastic Compliance Matrix: (Units=1/GPa)
#
#
# Indices 1 2 3 4 5 6 
#
# 1 0.007102 -0.001580 -0.000028 0.000000 0.000000 0.000000
# 2 -0.001580 0.015859 -0.001848 0.000000 0.000000 0.000000
# 3 -0.000028 -0.001848 0.010149 0.000000 0.000000 0.000000
# 4 0.000000 0.000000 0.000000 0.070946 0.000000 0.000000
# 5 0.000000 0.000000 0.000000 0.000000 -0.015196 0.000000
# 6 0.000000 0.000000 0.000000 0.000000 0.000000 0.009748
#
#
# Mechanical properties :
#
#
# Convention : Reuss Voigt Hill
#
# Bulk Modulus (GPa) = 38.16775 41.15527 39.66151
# Shear Modulus (GPa) = 43.76336 28.90399 36.33367
#
# Velocity S-wave (km/s) = 4.84982 3.94139 4.41901
# Velocity P-wave (km/s) = 7.20239 6.54460 6.88136
#
# Compressibility (1/GPa) = 0.02620013
#
# Stress axis : x y z
#
# Youngs Moduli (GPa) = 140.81359 63.05402 98.53066
#
# Poissons Ratio (x) = 0.09961 0.00272
# Poissons Ratio (y) = 0.22246 0.18204
# Poissons Ratio (z) = 0.00389 0.11650
#
# Static dielectric constant tensor:
#      x y z
#    x 1.932730 0.000000 0.000000 
#    y 0.000000 1.635880 0.000000 
#    z 0.000000 0.000000 1.669390 
# 
# From -- ./inp_files/72637.got.cif
#   From: 2010.05.17/outbox.cif.g08.bks.cpg/sg63_37_cif.got.tgz:72637.got - 2010.06.03 15:47:04.
