data_PCOD9473049
_publ_section_title
;
Structure prediction by ZEFSAII (Michael W. Deem and Ramdas Pophale) SiO2 
 PCOD9473049
Probable space group: C M C M
;
_chemical_formula_sum "Si O2"
_cell_formula_units_Z 96
_cell_length_a 24.021324
_cell_length_b 26.015860
_cell_length_c 8.655593
_cell_angle_alpha 90.000000
_cell_angle_beta 90.000000
_cell_angle_gamma 90.000000
_cell_volume 5409.186493
_symmetry_space_group_name_H-M "C M C M"
_symmetry_group_IT_number 63
_symmetry_cell_setting 'orthorhombic'
loop_
_space_group_symop_operation_xyz
x,y,z
-x,-y,1/2+z
x,-y,-z
-x,y,1/2-z
-x,-y,-z
x,y,1/2-z
-x,y,z
x,-y,1/2+z
1/2+x,1/2+y,z
1/2-x,1/2-y,1/2+z
1/2+x,1/2-y,-z
1/2-x,1/2+y,1/2-z
1/2-x,1/2-y,-z
1/2+x,1/2+y,1/2-z
1/2-x,1/2+y,z
1/2+x,1/2-y,1/2+z
loop_
_atom_site_type_symbol
_atom_site_label
_atom_site_fract_x
_atom_site_fract_y
_atom_site_fract_z
Si Si1 0.616492 0.347079 0.434586
Si Si2 0.189432 0.556102 0.435675
Si Si3 0.121228 0.655511 0.063110
Si Si4 0.818260 0.056671 0.435771
Si Si5 0.000000 0.808986 0.565577
Si Si6 0.500000 0.806611 0.564363
Si Si7 0.312116 0.747316 0.434501
O O1 0.615357 0.345972 0.250000
O O2 0.641630 0.400544 0.494256
O O3 0.555217 0.335588 0.499462
O O4 0.656154 0.301728 0.496466
O O5 0.175216 0.500000 0.500000
O O6 0.187815 0.553510 0.250000
O O7 0.148307 0.601517 0.485597
O O8 0.253635 0.568118 0.479427
O O9 0.126830 0.659552 0.250000
O O10 0.056320 0.663021 0.024802
O O11 0.154875 0.702029 0.987091
O O12 0.822019 0.057011 0.250000
O O13 0.830917 0.000000 0.500000
O O14 0.000000 0.811555 0.750000
O O15 0.000000 0.749282 0.513730
O O16 0.500000 0.798285 0.750000
O O17 0.311029 0.743402 0.250000
O O18 0.250000 0.750000 0.500000
#
# Coordination Sequence:
#
# PCOD9473049 Si02
#       7
#    16  16  16  16   8   8  16
#     4  12  24  40  61  87 119 156 197 242 296 354
#     4   9  19  35  57  83 115 153 194 241 294 349
#     4  10  20  36  57  83 115 153 197 244 294 350
#     4  10  20  37  60  87 118 155 198 245 298 355
#     4  12  24  40  61  86 117 156 201 244 292 349
#     4  10  20  36  59  82 114 158 200 240 293 349
#     4  12  24  37  56  85 118 152 190 241 298 357
#
# _framework density 17.747585999999998
#
# number of rings (size 3 to 8) (size 9 to 14) (size 15 to 20)
#    0.000    1.333    1.667    5.250    0.000    2.667 
#    0.000    0.833    0.000    0.000    0.000    0.000 
#    0.000    0.000    0.000    0.000    0.000    0.000 
#
# Total GULP energy -268316.913810 kJ/mol
# GULP energy per Si atom -5589.935704 kJ/mol
# Density = 1.770719 g / cm^3
# Si number density = 17.747586 Si / 1000 Ang^3
#
#
#
# Elastic Constant Matrix: (Units=GPa)
#
#
# Indices 1 2 3 4 5 6 
#
# 1 181.5155 116.0539 72.9618 0.0000 0.0000 0.0000
# 2 116.0539 164.5019 64.5232 0.0000 0.0000 0.0000
# 3 72.9618 64.5232 94.3435 0.0000 0.0000 0.0000
# 4 0.0000 0.0000 0.0000 34.9694 0.0000 0.0000
# 5 0.0000 0.0000 0.0000 0.0000 23.9768 0.0000
# 6 0.0000 0.0000 0.0000 0.0000 0.0000 -40.1182
#
#
#
# Elastic Compliance Matrix: (Units=1/GPa)
#
#
# Indices 1 2 3 4 5 6 
#
# 1 0.011270 -0.006194 -0.004480 0.000000 0.000000 0.000000
# 2 -0.006194 0.011711 -0.003220 0.000000 0.000000 0.000000
# 3 -0.004480 -0.003220 0.016266 0.000000 0.000000 0.000000
# 4 0.000000 0.000000 0.000000 0.028596 0.000000 0.000000
# 5 0.000000 0.000000 0.000000 0.000000 0.041707 0.000000
# 6 0.000000 0.000000 0.000000 0.000000 0.000000 -0.024926
#
#
# Mechanical properties :
#
#
# Convention : Reuss Voigt Hill
#
# Bulk Modulus (GPa) = 87.25155 105.27099 96.26127
# Shear Modulus (GPa) = 43.01796 16.22040 29.61918
#
# Velocity S-wave (km/s) = 4.92863 3.02644 4.08967
# Velocity P-wave (km/s) = 9.03647 8.46504 8.75542
#
# Compressibility (1/GPa) = 0.01146111
#
# Stress axis : x y z
#
# Youngs Moduli (GPa) = 88.73292 85.38755 61.47782
#
# Poissons Ratio (x) = 0.52885 0.27540
# Poissons Ratio (y) = 0.54957 0.19794
# Poissons Ratio (z) = 0.39750 0.27492
#
# Static dielectric constant tensor:
#      x y z
#    x 1.592610 0.000000 0.000000 
#    y 0.000000 1.575510 0.000000 
#    z 0.000000 0.000000 1.595830 
# 
# From -- ./inp_files/10540.got.cif
#   From: 2010.05.17/outbox.cif.g08.bks.cpg/sg63_6_cif.got.tgz:10540.got - 2010.06.03 15:47:04.
