data_PCOD9473287
_publ_section_title
;
Structure prediction by ZEFSAII (Michael W. Deem and Ramdas Pophale) SiO2 
 PCOD9473287
Probable space group: C M C M
;
_chemical_formula_sum "Si O2"
_cell_formula_units_Z 96
_cell_length_a 18.567762
_cell_length_b 18.995062
_cell_length_c 15.915505
_cell_angle_alpha 90.000000
_cell_angle_beta 90.000000
_cell_angle_gamma 90.000000
_cell_volume 5613.331615
_symmetry_space_group_name_H-M "C M C M"
_symmetry_group_IT_number 63
_symmetry_cell_setting 'orthorhombic'
loop_
_space_group_symop_operation_xyz
x,y,z
-x,-y,1/2+z
x,-y,-z
-x,y,1/2-z
-x,-y,-z
x,y,1/2-z
-x,y,z
x,-y,1/2+z
1/2+x,1/2+y,z
1/2-x,1/2-y,1/2+z
1/2+x,1/2-y,-z
1/2-x,1/2+y,1/2-z
1/2-x,1/2-y,-z
1/2+x,1/2+y,1/2-z
1/2-x,1/2+y,z
1/2+x,1/2-y,1/2+z
loop_
_atom_site_type_symbol
_atom_site_label
_atom_site_fract_x
_atom_site_fract_y
_atom_site_fract_z
Si Si1 0.917834 0.129952 0.750000
Si Si2 0.311750 0.429009 0.388029
Si Si3 0.823787 0.091526 0.088464
Si Si4 0.082414 0.298618 0.750000
Si Si5 0.307899 0.188324 0.100471
Si Si6 0.298571 0.180897 0.595460
Si Si7 0.419722 0.714069 0.151372
O O1 0.873040 0.105174 0.669118
O O2 0.920293 0.214026 0.750000
O O3 0.000000 0.103095 0.750000
O O4 0.319622 0.512652 0.377054
O O5 0.321244 0.413583 0.487221
O O6 0.234321 0.391937 0.369427
O O7 0.754641 0.133302 0.122737
O O8 0.889859 0.142549 0.110158
O O9 0.127403 0.317777 0.666048
O O10 0.000000 0.325152 0.750000
O O11 0.269482 0.265075 0.102238
O O12 0.322512 0.174453 0.002003
O O13 0.364396 0.221624 0.638006
O O14 0.422438 0.700448 0.250000
O O15 0.500000 0.730855 0.120253
#
# Coordination Sequence:
#
# PCOD9473287 Si02
#       7
#     8  16  16   8  16  16  16
#     4  11  24  33  48  80 114 142 173 214 267 325
#     4  10  20  37  54  81 106 140 180 218 264 317
#     4   9  21  36  57  77 106 141 179 219 265 314
#     4  11  22  33  52  80 110 138 169 220 277 319
#     4   9  18  34  53  79 101 134 180 218 257 316
#     4   9  18  34  56  75 101 140 180 220 257 308
#     4  10  22  35  51  78 107 141 181 219 263 314
#
# _framework density 17.102143000000002
#
# number of rings (size 3 to 8) (size 9 to 14) (size 15 to 20)
#    0.000    2.333    1.667    1.000    7.000    2.000 
#    0.000    1.667    0.000    1.000    0.000    4.667 
#    0.000    0.000    0.000    0.000    0.000    0.000 
#
# Total GULP energy -267348.662711 kJ/mol
# GULP energy per Si atom -5569.763806 kJ/mol
# Density = 1.706322 g / cm^3
# Si number density = 17.102143 Si / 1000 Ang^3
#
#
#
# Elastic Constant Matrix: (Units=GPa)
#
#
# Indices 1 2 3 4 5 6 
#
# 1 114.9209 40.1731 45.0149 0.0000 0.0000 0.0000
# 2 40.1731 66.1827 15.9833 0.0000 0.0000 0.0000
# 3 45.0149 15.9833 50.7514 0.0000 0.0000 0.0000
# 4 0.0000 0.0000 0.0000 9.1687 0.0000 0.0000
# 5 0.0000 0.0000 0.0000 0.0000 -14.7587 0.0000
# 6 0.0000 0.0000 0.0000 0.0000 0.0000 9.6239
#
#
#
# Elastic Compliance Matrix: (Units=1/GPa)
#
#
# Indices 1 2 3 4 5 6 
#
# 1 0.015639 -0.006649 -0.011778 0.000000 0.000000 0.000000
# 2 -0.006649 0.019180 -0.000143 0.000000 0.000000 0.000000
# 3 -0.011778 -0.000143 0.030195 0.000000 0.000000 0.000000
# 4 0.000000 0.000000 0.000000 0.109067 0.000000 0.000000
# 5 0.000000 0.000000 0.000000 0.000000 -0.067756 0.000000
# 6 0.000000 0.000000 0.000000 0.000000 0.000000 0.103908
#
#
# Mechanical properties :
#
#
# Convention : Reuss Voigt Hill
#
# Bulk Modulus (GPa) = 35.87373 48.24417 42.05895
# Shear Modulus (GPa) = 19.48076 9.51902 14.49989
#
# Velocity S-wave (km/s) = 3.37869 2.36179 2.91493
# Velocity P-wave (km/s) = 6.02017 5.97562 5.99794
#
# Compressibility (1/GPa) = 0.02787555
#
# Stress axis : x y z
#
# Youngs Moduli (GPa) = 63.94226 52.13745 33.11774
#
# Poissons Ratio (x) = 0.34665 0.39004
# Poissons Ratio (y) = 0.42513 0.00474
# Poissons Ratio (z) = 0.75308 0.00747
#
# Static dielectric constant tensor:
#      x y z
#    x 1.588300 0.000000 0.000000 
#    y 0.000000 1.602440 0.000000 
#    z 0.000000 0.000000 1.611830 
# 
# From -- ./inp_files/45804.got.cif
#   From: 2010.05.17/outbox.cif.g08.bks.cpg/sg63_23_cif.got.tgz:45804.got - 2010.06.03 15:47:04.
