data_PCOD9473088
_publ_section_title
;
Structure prediction by ZEFSAII (Michael W. Deem and Ramdas Pophale) SiO2 
 PCOD9473088
Probable space group: C M C M
;
_chemical_formula_sum "Si O2"
_cell_formula_units_Z 96
_cell_length_a 8.473999
_cell_length_b 29.825393
_cell_length_c 21.080536
_cell_angle_alpha 90.000000
_cell_angle_beta 90.000000
_cell_angle_gamma 90.000000
_cell_volume 5327.902056
_symmetry_space_group_name_H-M "C M C M"
_symmetry_group_IT_number 63
_symmetry_cell_setting 'orthorhombic'
loop_
_space_group_symop_operation_xyz
x,y,z
-x,-y,1/2+z
x,-y,-z
-x,y,1/2-z
-x,-y,-z
x,y,1/2-z
-x,y,z
x,-y,1/2+z
1/2+x,1/2+y,z
1/2-x,1/2-y,1/2+z
1/2+x,1/2-y,-z
1/2-x,1/2+y,1/2-z
1/2-x,1/2-y,-z
1/2+x,1/2+y,1/2-z
1/2-x,1/2+y,z
1/2+x,1/2-y,1/2+z
loop_
_atom_site_type_symbol
_atom_site_label
_atom_site_fract_x
_atom_site_fract_y
_atom_site_fract_z
Si Si1 0.309183 0.781531 0.678655
Si Si2 0.810388 0.626842 0.980391
Si Si3 0.307634 0.029024 0.561239
Si Si4 0.308955 0.968865 0.678233
Si Si5 0.311919 0.625122 0.375242
Si Si6 0.810601 0.778171 0.060287
O O1 0.259520 0.769477 0.750000
O O2 0.500000 0.782914 0.677171
O O3 0.247857 0.830678 0.660573
O O4 0.257380 0.746734 0.624470
O O5 0.758136 0.580393 0.947777
O O6 0.749663 0.671277 0.946065
O O7 0.000000 0.627701 0.981947
O O8 0.750317 0.626916 0.052697
O O9 0.500000 0.028705 0.561254
O O10 0.257623 0.000000 0.500000
O O11 0.255115 0.004624 0.625467
O O12 0.257913 0.979070 0.750000
O O13 0.500000 0.968418 0.677125
O O14 0.251430 0.919836 0.657562
O O15 0.500000 0.624609 0.375642
O O16 0.000000 0.778112 0.058649
O O17 0.750000 0.750000 0.000000
#
# Coordination Sequence:
#
# PCOD9473088 Si02
#       6
#    16  16  16  16  16  16
#     4  10  22  40  60  81 110 152 193 226 273 340
#     4  11  21  36  59  84 113 147 189 235 280 332
#     4   9  17  33  57  81 107 142 186 229 268 320
#     4  10  20  36  58  82 110 147 188 228 277 337
#     4  12  23  34  54  85 119 147 180 232 289 338
#     4  11  22  37  59  85 115 148 188 234 280 334
#
# _framework density 18.018349000000001
#
# number of rings (size 3 to 8) (size 9 to 14) (size 15 to 20)
#    0.000    1.500    3.333    3.000    0.000    3.333 
#    0.000    3.333    0.000    1.000    0.000    0.000 
#    0.000    0.000    0.000    0.000    0.000    0.000 
#
# Total GULP energy -268161.193811 kJ/mol
# GULP energy per Si atom -5586.691538 kJ/mol
# Density = 1.797734 g / cm^3
# Si number density = 18.018349 Si / 1000 Ang^3
#
#
#
# Elastic Constant Matrix: (Units=GPa)
#
#
# Indices 1 2 3 4 5 6 
#
# 1 17.5893 17.6772 30.3655 0.0000 0.0000 0.0000
# 2 17.6772 167.5294 105.2479 0.0000 0.0000 0.0000
# 3 30.3655 105.2479 189.3193 0.0000 0.0000 0.0000
# 4 0.0000 0.0000 0.0000 11.2129 0.0000 0.0000
# 5 0.0000 0.0000 0.0000 0.0000 14.0061 0.0000
# 6 0.0000 0.0000 0.0000 0.0000 0.0000 21.0070
#
#
#
# Elastic Compliance Matrix: (Units=1/GPa)
#
#
# Indices 1 2 3 4 5 6 
#
# 1 0.078659 -0.000574 -0.012297 0.000000 0.000000 0.000000
# 2 -0.000574 0.009177 -0.005010 0.000000 0.000000 0.000000
# 3 -0.012297 -0.005010 0.010039 0.000000 0.000000 0.000000
# 4 0.000000 0.000000 0.000000 0.089183 0.000000 0.000000
# 5 0.000000 0.000000 0.000000 0.000000 0.071397 0.000000
# 6 0.000000 0.000000 0.000000 0.000000 0.000000 0.047603
#
#
# Mechanical properties :
#
#
# Convention : Reuss Voigt Hill
#
# Bulk Modulus (GPa) = 16.09955 75.66879 45.88417
# Shear Modulus (GPa) = 13.79212 23.98838 18.89025
#
# Velocity S-wave (km/s) = 2.76968 3.65270 3.24140
# Velocity P-wave (km/s) = 4.37980 7.73797 6.28724
#
# Compressibility (1/GPa) = 0.06211355
#
# Stress axis : x y z
#
# Youngs Moduli (GPa) = 12.71304 108.96939 99.60773
#
# Poissons Ratio (x) = 0.06260 1.22488
# Poissons Ratio (y) = 0.00730 0.49899
# Poissons Ratio (z) = 0.15633 0.54589
#
# Static dielectric constant tensor:
#      x y z
#    x 1.621260 0.000000 0.000000 
#    y 0.000000 1.590500 0.000000 
#    z 0.000000 0.000000 1.612640 
# 
# From -- ./inp_files/51317.got.cif
#   From: 2010.05.17/outbox.cif.g08.bks.cpg/sg63_26_cif.got.tgz:51317.got - 2010.06.03 15:47:04.
