data_PCOD9473948
_publ_section_title
;
Structure prediction by ZEFSAII (Michael W. Deem and Ramdas Pophale) SiO2 
 PCOD9473948
Probable space group: C M C M
;
_chemical_formula_sum "Si O2"
_cell_formula_units_Z 116
_cell_length_a 29.206354
_cell_length_b 23.571122
_cell_length_c 7.892128
_cell_angle_alpha 90.000000
_cell_angle_beta 90.000000
_cell_angle_gamma 90.000000
_cell_volume 5433.150319
_symmetry_space_group_name_H-M "C M C M"
_symmetry_group_IT_number 63
_symmetry_cell_setting 'orthorhombic'
loop_
_space_group_symop_operation_xyz
x,y,z
-x,-y,1/2+z
x,-y,-z
-x,y,1/2-z
-x,-y,-z
x,y,1/2-z
-x,y,z
x,-y,1/2+z
1/2+x,1/2+y,z
1/2-x,1/2-y,1/2+z
1/2+x,1/2-y,-z
1/2-x,1/2+y,1/2-z
1/2-x,1/2-y,-z
1/2+x,1/2+y,1/2-z
1/2-x,1/2+y,z
1/2+x,1/2-y,1/2+z
loop_
_atom_site_type_symbol
_atom_site_label
_atom_site_fract_x
_atom_site_fract_y
_atom_site_fract_z
Si Si1 0.152675 0.060854 0.056774
Si Si2 0.302088 0.744254 0.058737
Si Si3 0.570301 0.096784 0.044497
Si Si4 0.253850 0.064177 0.557345
Si Si5 0.667053 0.862501 0.558879
Si Si6 0.881888 0.826175 0.443607
Si Si7 0.000000 0.560299 0.750000
Si Si8 0.949160 0.729778 0.455095
O O1 0.167456 0.055127 0.250000
O O2 0.199535 0.072974 0.956252
O O3 0.119385 0.113759 0.035253
O O4 0.133772 0.000000 0.000000
O O5 0.302847 0.722857 0.250000
O O6 0.250000 0.750000 0.000000
O O7 0.326487 0.805567 0.047844
O O8 0.331303 0.700719 0.949532
O O9 0.560713 0.085389 0.250000
O O10 0.625172 0.095421 0.015055
O O11 0.560089 0.163729 0.009503
O O12 0.540064 0.064109 0.904566
O O13 0.268709 0.072671 0.750000
O O14 0.284837 0.105564 0.447859
O O15 0.262131 0.000000 0.500000
O O16 0.656648 0.842462 0.750000
O O17 0.895313 0.836708 0.250000
O O18 0.913825 0.776700 0.518690
O O19 0.948049 0.732948 0.250000
O O20 0.000000 0.743166 0.515448
#
# Coordination Sequence:
#
# PCOD9473948 Si02
#       8
#    16  16  16  16  16  16   4  16
#     4  11  22  39  59  82 110 147 192 240 288 339
#     4  12  24  36  52  77 114 155 195 230 281 348
#     4  10  21  36  55  83 118 154 192 241 291 349
#     4  11  22  38  60  85 114 148 194 239 284 340
#     4  11  22  38  57  81 119 153 189 239 290 341
#     4  11  21  36  57  82 113 149 189 232 287 346
#     4  12  22  32  60  82 118 152 202 236 292 350
#     4   9  17  34  56  79 112 150 188 231 287 343
#
# _framework density 21.350411000000001
#
# number of rings (size 3 to 8) (size 9 to 14) (size 15 to 20)
#    0.000    1.241    2.069    6.414    1.931    0.000 
#    1.241    0.000    0.000    0.414    0.000    0.483 
#    0.000    0.000    0.000    0.000    0.000    0.000 
#
# Total GULP energy -323467.541615 kJ/mol
# GULP energy per Si atom -5577.026580 kJ/mol
# Density = 2.130182 g / cm^3
# Si number density = 21.350411 Si / 1000 Ang^3
#
#
#
# Elastic Constant Matrix: (Units=GPa)
#
#
# Indices 1 2 3 4 5 6 
#
# 1 40.7110 -3.0448 5.2473 0.0000 0.0000 0.0000
# 2 -3.0448 60.7579 -2.6285 0.0000 0.0000 0.0000
# 3 5.2473 -2.6285 90.0717 0.0000 0.0000 0.0000
# 4 0.0000 0.0000 0.0000 20.2846 0.0000 0.0000
# 5 0.0000 0.0000 0.0000 0.0000 -58.1883 0.0000
# 6 0.0000 0.0000 0.0000 0.0000 0.0000 4.5318
#
#
#
# Elastic Compliance Matrix: (Units=1/GPa)
#
#
# Indices 1 2 3 4 5 6 
#
# 1 0.024834 0.001183 -0.001412 0.000000 0.000000 0.000000
# 2 0.001183 0.016536 0.000414 0.000000 0.000000 0.000000
# 3 -0.001412 0.000414 0.011197 0.000000 0.000000 0.000000
# 4 0.000000 0.000000 0.000000 0.049299 0.000000 0.000000
# 5 0.000000 0.000000 0.000000 0.000000 -0.017186 0.000000
# 6 0.000000 0.000000 0.000000 0.000000 0.000000 0.220663
#
#
# Mechanical properties :
#
#
# Convention : Reuss Voigt Hill
#
# Bulk Modulus (GPa) = 18.89069 21.18762 20.03916
# Shear Modulus (GPa) = 15.49818 6.12339 10.81079
#
# Velocity S-wave (km/s) = 2.69717 1.69537 2.25266
# Velocity P-wave (km/s) = 4.30892 3.71183 4.02147
#
# Compressibility (1/GPa) = 0.05293612
#
# Stress axis : x y z
#
# Youngs Moduli (GPa) = 40.26754 60.47429 89.31271
#
# Poissons Ratio (x) = -0.07157 0.12613
# Poissons Ratio (y) = -0.04765 -0.03694
# Poissons Ratio (z) = 0.05687 -0.02501
#
# Static dielectric constant tensor:
#      x y z
#    x 1.793550 0.000000 0.000000 
#    y 0.000000 1.787360 0.000000 
#    z 0.000000 0.000000 1.740170 
# 
# From -- ./inp_files/14728.got.cif
#   From: 2010.05.17/outbox.cif.g08.bks.cpg/sg63_8_cif.got.tgz:14728.got - 2010.06.03 15:47:04.
