data_PCOD9473764
_publ_section_title
;
Structure prediction by ZEFSAII (Michael W. Deem and Ramdas Pophale) SiO2 
 PCOD9473764
Probable space group: C M C M
;
_chemical_formula_sum "Si O2"
_cell_formula_units_Z 64
_cell_length_a 7.663861
_cell_length_b 21.707439
_cell_length_c 21.896153
_cell_angle_alpha 90.000000
_cell_angle_beta 90.000000
_cell_angle_gamma 90.000000
_cell_volume 3642.705216
_symmetry_space_group_name_H-M "C M C M"
_symmetry_group_IT_number 63
_symmetry_cell_setting 'orthorhombic'
loop_
_space_group_symop_operation_xyz
x,y,z
-x,-y,1/2+z
x,-y,-z
-x,y,1/2-z
-x,-y,-z
x,y,1/2-z
-x,y,z
x,-y,1/2+z
1/2+x,1/2+y,z
1/2-x,1/2-y,1/2+z
1/2+x,1/2-y,-z
1/2-x,1/2+y,1/2-z
1/2-x,1/2-y,-z
1/2+x,1/2+y,1/2-z
1/2-x,1/2+y,z
1/2+x,1/2-y,1/2+z
loop_
_atom_site_type_symbol
_atom_site_label
_atom_site_fract_x
_atom_site_fract_y
_atom_site_fract_z
Si Si1 0.000000 0.475009 0.676923
Si Si2 0.290417 0.728037 0.412221
Si Si3 0.000000 0.448408 0.446209
Si Si4 0.300766 0.623634 0.322166
Si Si5 0.800162 0.850136 0.032334
O O1 0.169039 0.431946 0.666107
O O2 0.000000 0.493403 0.750000
O O3 0.000000 0.524664 0.622698
O O4 0.500000 0.736430 0.413627
O O5 0.243111 0.686221 0.354912
O O6 0.209803 0.795436 0.417758
O O7 0.243414 0.686046 0.470795
O O8 0.000000 0.500000 0.500000
O O9 0.830980 0.405086 0.454629
O O10 0.303098 0.633265 0.250000
O O11 0.500000 0.609981 0.342758
O O12 0.000000 0.870671 0.025244
#
# Coordination Sequence:
#
# PCOD9473764 Si02
#       5
#     8  16   8  16  16
#     4  10  22  38  56  78 110 148 184 221 263 317
#     4   9  17  33  55  80 111 135 166 223 279 323
#     4  12  24  38  56  80 110 148 190 221 258 321
#     4   9  18  33  55  82 105 135 178 222 268 316
#     4  10  21  34  53  81 108 140 177 219 273 321
#
# _framework density 17.569361000000001
#
# number of rings (size 3 to 8) (size 9 to 14) (size 15 to 20)
#    0.000    2.250    1.250    1.500    3.500    1.500 
#    0.000    1.250    0.000    1.500    0.000    0.000 
#    0.000    0.000    0.000    0.000    0.000    0.000 
#
# Total GULP energy -178423.442735 kJ/mol
# GULP energy per Si atom -5575.732585 kJ/mol
# Density = 1.752937 g / cm^3
# Si number density = 17.569361 Si / 1000 Ang^3
#
#
#
# Elastic Constant Matrix: (Units=GPa)
#
#
# Indices 1 2 3 4 5 6 
#
# 1 93.2022 66.9687 39.0428 0.0000 0.0000 0.0000
# 2 66.9687 119.1143 53.6619 0.0000 0.0000 0.0000
# 3 39.0428 53.6619 43.0969 0.0000 0.0000 0.0000
# 4 0.0000 0.0000 0.0000 35.2706 0.0000 0.0000
# 5 0.0000 0.0000 0.0000 0.0000 14.8391 0.0000
# 6 0.0000 0.0000 0.0000 0.0000 0.0000 33.6993
#
#
#
# Elastic Compliance Matrix: (Units=1/GPa)
#
#
# Indices 1 2 3 4 5 6 
#
# 1 0.019459 -0.006829 -0.009125 0.000000 0.000000 0.000000
# 2 -0.006829 0.021518 -0.020606 0.000000 0.000000 0.000000
# 3 -0.009125 -0.020606 0.057128 0.000000 0.000000 0.000000
# 4 0.000000 0.000000 0.000000 0.028352 0.000000 0.000000
# 5 0.000000 0.000000 0.000000 0.000000 0.067389 0.000000
# 6 0.000000 0.000000 0.000000 0.000000 0.000000 0.029674
#
#
# Mechanical properties :
#
#
# Convention : Reuss Voigt Hill
#
# Bulk Modulus (GPa) = 40.02581 63.86223 51.94402
# Shear Modulus (GPa) = 16.39504 23.14447 19.76975
#
# Velocity S-wave (km/s) = 3.05808 3.63343 3.35810
# Velocity P-wave (km/s) = 5.94140 7.35051 6.68319
#
# Compressibility (1/GPa) = 0.02498388
#
# Stress axis : x y z
#
# Youngs Moduli (GPa) = 51.39016 46.47200 17.50457
#
# Poissons Ratio (x) = 0.31738 0.15973
# Poissons Ratio (y) = 0.35097 0.36071
# Poissons Ratio (z) = 0.46892 0.95762
#
# Static dielectric constant tensor:
#      x y z
#    x 1.638540 0.000000 0.000000 
#    y 0.000000 1.573550 0.000000 
#    z 0.000000 0.000000 1.616110 
# 
# From -- ./inp_files/50342.got.cif
#   From: 2010.05.17/outbox.cif.g08.bks.cpg/sg63_26_cif.got.tgz:50342.got - 2010.06.03 15:47:04.
