data_PCOD9473707
_publ_section_title
;
Structure prediction by ZEFSAII (Michael W. Deem and Ramdas Pophale) SiO2 
 PCOD9473707
Probable space group: C M C M
;
_chemical_formula_sum "Si O2"
_cell_formula_units_Z 88
_cell_length_a 11.204817
_cell_length_b 14.995466
_cell_length_c 28.093512
_cell_angle_alpha 90.000000
_cell_angle_beta 90.000000
_cell_angle_gamma 90.000000
_cell_volume 4720.312688
_symmetry_space_group_name_H-M "C M C M"
_symmetry_group_IT_number 63
_symmetry_cell_setting 'orthorhombic'
loop_
_space_group_symop_operation_xyz
x,y,z
-x,-y,1/2+z
x,-y,-z
-x,y,1/2-z
-x,-y,-z
x,y,1/2-z
-x,y,z
x,-y,1/2+z
1/2+x,1/2+y,z
1/2-x,1/2-y,1/2+z
1/2+x,1/2-y,-z
1/2-x,1/2+y,1/2-z
1/2-x,1/2-y,-z
1/2+x,1/2+y,1/2-z
1/2-x,1/2+y,z
1/2+x,1/2-y,1/2+z
loop_
_atom_site_type_symbol
_atom_site_label
_atom_site_fract_x
_atom_site_fract_y
_atom_site_fract_z
Si Si1 0.765962 0.883643 0.808063
Si Si2 0.758533 0.763788 0.380295
Si Si3 0.645225 0.113329 0.449201
Si Si4 0.000000 0.387925 0.696163
Si Si5 0.000000 0.987485 0.804829
Si Si6 0.500000 0.686456 0.834431
Si Si7 0.641735 0.911964 0.441387
O O1 0.761506 0.876521 0.750000
O O2 0.787299 0.788672 0.833598
O O3 0.630770 0.912919 0.824042
O O4 0.874893 0.947295 0.823491
O O5 0.788332 0.687906 0.419015
O O6 0.678564 0.840247 0.402609
O O7 0.882806 0.808790 0.366149
O O8 0.500000 0.122539 0.443194
O O9 0.675223 0.119507 0.505284
O O10 0.683871 0.013502 0.434095
O O11 0.000000 0.279516 0.694722
O O12 0.000000 0.421249 0.750000
O O13 0.000000 0.959188 0.750000
O O14 0.000000 0.093825 0.807200
O O15 0.500000 0.919335 0.442377
#
# Coordination Sequence:
#
# PCOD9473707 Si02
#       7
#    16  16  16   8   8   8  16
#     4   9  20  35  56  82 115 151 187 231 282 332
#     4  11  20  34  58  82 113 143 188 233 273 332
#     4   9  18  37  57  79 110 144 182 225 279 340
#     4   8  15  34  56  77 101 141 190 225 268 326
#     4  10  21  38  56  79 114 151 188 237 290 332
#     4  10  21  32  52  82 104 148 187 223 270 339
#     4   9  20  35  57  83 108 143 183 226 283 340
#
# _framework density 18.642831999999999
#
# number of rings (size 3 to 8) (size 9 to 14) (size 15 to 20)
#    0.000    2.545    0.909    1.909    3.818    0.727 
#    0.000    0.000    0.000    1.091    0.000    8.909 
#    0.000    0.000    0.000    0.000    0.000    0.000 
#
# Total GULP energy -245069.929458 kJ/mol
# GULP energy per Si atom -5569.771124 kJ/mol
# Density = 1.860040 g / cm^3
# Si number density = 18.642832 Si / 1000 Ang^3
#
#
#
# Elastic Constant Matrix: (Units=GPa)
#
#
# Indices 1 2 3 4 5 6 
#
# 1 73.2992 31.8389 10.5168 0.0000 0.0000 0.0000
# 2 31.8389 45.5040 4.9757 0.0000 0.0000 0.0000
# 3 10.5168 4.9757 39.3136 0.0000 0.0000 0.0000
# 4 0.0000 0.0000 0.0000 29.7297 0.0000 0.0000
# 5 0.0000 0.0000 0.0000 0.0000 22.5326 0.0000
# 6 0.0000 0.0000 0.0000 0.0000 0.0000 9.1087
#
#
#
# Elastic Compliance Matrix: (Units=1/GPa)
#
#
# Indices 1 2 3 4 5 6 
#
# 1 0.020102 -0.013667 -0.003648 0.000000 0.000000 0.000000
# 2 -0.013667 0.031576 -0.000340 0.000000 0.000000 0.000000
# 3 -0.003648 -0.000340 0.026455 0.000000 0.000000 0.000000
# 4 0.000000 0.000000 0.000000 0.033636 0.000000 0.000000
# 5 0.000000 0.000000 0.000000 0.000000 0.044380 0.000000
# 6 0.000000 0.000000 0.000000 0.000000 0.000000 0.109785
#
#
# Mechanical properties :
#
#
# Convention : Reuss Voigt Hill
#
# Bulk Modulus (GPa) = 23.35154 28.08662 25.71908
# Shear Modulus (GPa) = 15.84685 19.65989 17.75337
#
# Velocity S-wave (km/s) = 2.91868 3.25091 3.08927
# Velocity P-wave (km/s) = 4.88991 5.40274 5.15271
#
# Compressibility (1/GPa) = 0.04282372
#
# Stress axis : x y z
#
# Youngs Moduli (GPa) = 49.74512 31.66983 37.79939
#
# Poissons Ratio (x) = 0.43282 0.13789
# Poissons Ratio (y) = 0.67985 0.01287
# Poissons Ratio (z) = 0.18147 0.01078
#
# Static dielectric constant tensor:
#      x y z
#    x 1.667180 0.000000 0.000000 
#    y 0.000000 1.622820 0.000000 
#    z 0.000000 0.000000 1.684450 
# 
# From -- ./inp_files/72641.got.cif
#   From: 2010.05.17/outbox.cif.g08.bks.cpg/sg63_37_cif.got.tgz:72641.got - 2010.06.03 15:47:04.
