data_PCOD9473157
_publ_section_title
;
Structure prediction by ZEFSAII (Michael W. Deem and Ramdas Pophale) SiO2 
 PCOD9473157
Probable space group: C M C M
;
_chemical_formula_sum "Si O2"
_cell_formula_units_Z 56
_cell_length_a 12.466870
_cell_length_b 13.270540
_cell_length_c 14.058117
_cell_angle_alpha 90.000000
_cell_angle_beta 90.000000
_cell_angle_gamma 90.000000
_cell_volume 2325.804356
_symmetry_space_group_name_H-M "C M C M"
_symmetry_group_IT_number 63
_symmetry_cell_setting 'orthorhombic'
loop_
_space_group_symop_operation_xyz
x,y,z
-x,-y,1/2+z
x,-y,-z
-x,y,1/2-z
-x,-y,-z
x,y,1/2-z
-x,y,z
x,-y,1/2+z
1/2+x,1/2+y,z
1/2-x,1/2-y,1/2+z
1/2+x,1/2-y,-z
1/2-x,1/2+y,1/2-z
1/2-x,1/2-y,-z
1/2+x,1/2+y,1/2-z
1/2-x,1/2+y,z
1/2+x,1/2-y,1/2+z
loop_
_atom_site_type_symbol
_atom_site_label
_atom_site_fract_x
_atom_site_fract_y
_atom_site_fract_z
Si Si1 0.370572 0.730230 0.750000
Si Si2 0.658369 0.513037 0.250000
Si Si3 0.113020 0.455016 0.250000
Si Si4 0.117277 0.643344 0.543525
Si Si5 0.787158 0.843303 0.899814
O O1 0.500000 0.753086 0.750000
O O2 0.365064 0.605943 0.750000
O O3 0.299340 0.776276 0.662696
O O4 0.787240 0.525628 0.250000
O O5 0.636619 0.579734 0.342579
O O6 0.120326 0.392070 0.346907
O O7 0.000000 0.509443 0.250000
O O8 0.137299 0.762446 0.549267
O O9 0.211202 0.603988 0.476730
O O10 0.000000 0.618559 0.504371
#
# Coordination Sequence:
#
# PCOD9473157 Si02
#       5
#     8   8   8  16  16
#     4  11  22  41  63  91 127 164 205 254 306 368
#     4  11  22  39  60  91 123 158 203 251 310 365
#     4  10  20  36  59  84 118 156 204 253 302 361
#     4  10  20  39  63  87 118 161 205 252 305 361
#     4  10  22  39  63  88 125 162 203 254 306 369
#
# _framework density 24.077691999999999
#
# number of rings (size 3 to 8) (size 9 to 14) (size 15 to 20)
#    0.000    1.714    2.857    1.714    0.000    5.714 
#    0.000    2.857    0.000    5.143    0.000    0.000 
#    0.000    0.000    0.000    0.000    0.000    0.000 
#
# Total GULP energy -156208.196701 kJ/mol
# GULP energy per Si atom -5578.864168 kJ/mol
# Density = 2.402289 g / cm^3
# Si number density = 24.077692 Si / 1000 Ang^3
#
#
#
# Elastic Constant Matrix: (Units=GPa)
#
#
# Indices 1 2 3 4 5 6 
#
# 1 94.4550 15.5468 2.7163 0.0000 0.0000 0.0000
# 2 15.5468 158.0676 37.0209 0.0000 0.0000 0.0000
# 3 2.7163 37.0209 103.3859 0.0000 0.0000 0.0000
# 4 0.0000 0.0000 0.0000 -45.7812 0.0000 0.0000
# 5 0.0000 0.0000 0.0000 0.0000 23.2969 0.0000
# 6 0.0000 0.0000 0.0000 0.0000 0.0000 0.4465
#
#
#
# Elastic Compliance Matrix: (Units=1/GPa)
#
#
# Indices 1 2 3 4 5 6 
#
# 1 0.010762 -0.001083 0.000105 0.000000 0.000000 0.000000
# 2 -0.001083 0.007015 -0.002483 0.000000 0.000000 0.000000
# 3 0.000105 -0.002483 0.010559 0.000000 0.000000 0.000000
# 4 0.000000 0.000000 0.000000 -0.021843 0.000000 0.000000
# 5 0.000000 0.000000 0.000000 0.000000 0.042924 0.000000
# 6 0.000000 0.000000 0.000000 0.000000 0.000000 2.239794
#
#
# Mechanical properties :
#
#
# Convention : Reuss Voigt Hill
#
# Bulk Modulus (GPa) = 46.70047 51.83071 49.26559
# Shear Modulus (GPa) = 2.17083 15.63408 8.90246
#
# Velocity S-wave (km/s) = 0.95055 2.55094 1.92495
# Velocity P-wave (km/s) = 4.54341 5.49996 5.04441
#
# Compressibility (1/GPa) = 0.02141306
#
# Stress axis : x y z
#
# Youngs Moduli (GPa) = 92.91690 142.56055 94.70609
#
# Poissons Ratio (x) = 0.15441 -0.00995
# Poissons Ratio (y) = 0.10064 0.23519
# Poissons Ratio (z) = -0.00976 0.35403
#
# Static dielectric constant tensor:
#      x y z
#    x 1.914390 0.000000 0.000000 
#    y 0.000000 1.920960 0.000000 
#    z 0.000000 0.000000 2.362580 
# 
# From -- ./inp_files/30874.got.cif
#   From: 2010.05.17/outbox.cif.g08.bks.cpg/sg63_16_cif.got.tgz:30874.got - 2010.06.03 15:47:04.
