data_PCOD9473601
_publ_section_title
;
Structure prediction by ZEFSAII (Michael W. Deem and Ramdas Pophale) SiO2 
 PCOD9473601
Probable space group: C M C M
;
_chemical_formula_sum "Si O2"
_cell_formula_units_Z 64
_cell_length_a 8.802878
_cell_length_b 22.437095
_cell_length_c 14.322476
_cell_angle_alpha 90.000000
_cell_angle_beta 90.000000
_cell_angle_gamma 90.000000
_cell_volume 2828.846700
_symmetry_space_group_name_H-M "C M C M"
_symmetry_group_IT_number 63
_symmetry_cell_setting 'orthorhombic'
loop_
_space_group_symop_operation_xyz
x,y,z
-x,-y,1/2+z
x,-y,-z
-x,y,1/2-z
-x,-y,-z
x,y,1/2-z
-x,y,z
x,-y,1/2+z
1/2+x,1/2+y,z
1/2-x,1/2-y,1/2+z
1/2+x,1/2-y,-z
1/2-x,1/2+y,1/2-z
1/2-x,1/2-y,-z
1/2+x,1/2+y,1/2-z
1/2-x,1/2+y,z
1/2+x,1/2-y,1/2+z
loop_
_atom_site_type_symbol
_atom_site_label
_atom_site_fract_x
_atom_site_fract_y
_atom_site_fract_z
Si Si1 0.500000 0.176698 0.250000
Si Si2 0.500000 0.666089 0.950999
Si Si3 0.000000 0.721135 0.585195
Si Si4 0.768997 0.942094 0.043820
Si Si5 0.500000 0.889400 0.944069
Si Si6 0.681998 0.916342 0.250000
Si Si7 0.000000 0.839573 0.250000
Si Si8 0.669460 0.739090 0.250000
O O1 0.500000 0.137371 0.342649
O O2 0.331275 0.207915 0.250000
O O3 0.362650 0.619485 0.958105
O O4 0.500000 0.694348 0.847756
O O5 0.500000 0.718277 0.025818
O O6 0.000000 0.665314 0.518153
O O7 0.143609 0.722925 0.655669
O O8 0.705540 0.948838 0.149727
O O9 0.640377 0.929869 0.968624
O O10 0.846925 0.000000 0.000000
O O11 0.500000 0.895684 0.250000
O O12 0.840237 0.876397 0.250000
O O13 0.500000 0.704794 0.250000
#
# Coordination Sequence:
#
# PCOD9473601 Si02
#       8
#     4   8   8  16   8   8   4   8
#     4  12  24  41  68 102 130 178 214 271 332 400
#     4  10  20  41  67  92 133 170 221 277 327 392
#     4   9  22  45  66  96 134 177 210 276 335 385
#     4  11  24  42  65  96 129 176 223 272 331 391
#     4  12  26  41  67  98 134 171 220 266 334 398
#     4  10  20  39  65  90 128 167 220 272 321 380
#     4   8  20  35  60 100 122 166 220 269 320 382
#     4   8  22  44  65  95 138 168 224 265 327 400
#
# _framework density 22.62406
#
# number of rings (size 3 to 8) (size 9 to 14) (size 15 to 20)
#    0.750    1.000    1.250    2.250    0.000    7.500 
#    0.000    5.000    0.000    0.000    0.000    0.000 
#    0.000    0.000    0.000    0.000    0.000    0.000 
#
# Total GULP energy -178295.591470 kJ/mol
# GULP energy per Si atom -5571.737233 kJ/mol
# Density = 2.257257 g / cm^3
# Si number density = 22.624060 Si / 1000 Ang^3
#
#
#
# Elastic Constant Matrix: (Units=GPa)
#
#
# Indices 1 2 3 4 5 6 
#
# 1 176.0482 44.0482 54.0349 0.0000 0.0000 0.0000
# 2 44.0482 102.3361 62.8945 0.0000 0.0000 0.0000
# 3 54.0349 62.8945 184.7828 0.0000 0.0000 0.0000
# 4 0.0000 0.0000 0.0000 109.7335 0.0000 0.0000
# 5 0.0000 0.0000 0.0000 0.0000 36.2998 0.0000
# 6 0.0000 0.0000 0.0000 0.0000 0.0000 11.7953
#
#
#
# Elastic Compliance Matrix: (Units=1/GPa)
#
#
# Indices 1 2 3 4 5 6 
#
# 1 0.006574 -0.002084 -0.001213 0.000000 0.000000 0.000000
# 2 -0.002084 0.013017 -0.003821 0.000000 0.000000 0.000000
# 3 -0.001213 -0.003821 0.007067 0.000000 0.000000 0.000000
# 4 0.000000 0.000000 0.000000 0.009113 0.000000 0.000000
# 5 0.000000 0.000000 0.000000 0.000000 0.027548 0.000000
# 6 0.000000 0.000000 0.000000 0.000000 0.000000 0.084779
#
#
# Mechanical properties :
#
#
# Convention : Reuss Voigt Hill
#
# Bulk Modulus (GPa) = 80.50476 87.23583 83.87029
# Shear Modulus (GPa) = 30.03428 51.71170 40.87299
#
# Velocity S-wave (km/s) = 3.64749 4.78608 4.25504
# Velocity P-wave (km/s) = 7.30752 8.31773 7.82894
#
# Compressibility (1/GPa) = 0.01242163
#
# Stress axis : x y z
#
# Youngs Moduli (GPa) = 152.11342 76.82101 141.50056
#
# Poissons Ratio (x) = 0.16011 0.17164
# Poissons Ratio (y) = 0.31702 0.54071
# Poissons Ratio (z) = 0.18452 0.29355
#
# Static dielectric constant tensor:
#      x y z
#    x 2.674140 0.000000 0.000000 
#    y 0.000000 1.827120 0.000000 
#    z 0.000000 0.000000 1.809850 
# 
# From -- ./inp_files/27680.got.cif
#   From: 2010.05.17/outbox.cif.g08.bks.cpg/sg63_14_cif.got.tgz:27680.got - 2010.06.03 15:47:04.
