data_PCOD9473663
_publ_section_title
;
Structure prediction by ZEFSAII (Michael W. Deem and Ramdas Pophale) SiO2 
 PCOD9473663
Probable space group: C M C M
;
_chemical_formula_sum "Si O2"
_cell_formula_units_Z 80
_cell_length_a 8.883191
_cell_length_b 19.456299
_cell_length_c 24.739473
_cell_angle_alpha 90.000000
_cell_angle_beta 90.000000
_cell_angle_gamma 90.000000
_cell_volume 4275.822575
_symmetry_space_group_name_H-M "C M C M"
_symmetry_group_IT_number 63
_symmetry_cell_setting 'orthorhombic'
loop_
_space_group_symop_operation_xyz
x,y,z
-x,-y,1/2+z
x,-y,-z
-x,y,1/2-z
-x,-y,-z
x,y,1/2-z
-x,y,z
x,-y,1/2+z
1/2+x,1/2+y,z
1/2-x,1/2-y,1/2+z
1/2+x,1/2-y,-z
1/2-x,1/2+y,1/2-z
1/2-x,1/2-y,-z
1/2+x,1/2+y,1/2-z
1/2-x,1/2+y,z
1/2+x,1/2-y,1/2+z
loop_
_atom_site_type_symbol
_atom_site_label
_atom_site_fract_x
_atom_site_fract_y
_atom_site_fract_z
Si Si1 0.317300 0.894095 0.750000
Si Si2 0.329919 0.434840 0.539109
Si Si3 0.318494 0.265696 0.250000
Si Si4 0.179305 0.315885 0.471675
Si Si5 0.318069 0.148482 0.848752
Si Si6 0.818143 0.512462 0.351267
O O1 0.500000 0.893044 0.750000
O O2 0.268971 0.814548 0.750000
O O3 0.271600 0.937966 0.697705
O O4 0.337948 0.500000 0.500000
O O5 0.500000 0.408360 0.547898
O O6 0.230651 0.379469 0.508080
O O7 0.256764 0.459394 0.594627
O O8 0.500000 0.267488 0.250000
O O9 0.256750 0.305084 0.302763
O O10 0.250000 0.250000 0.500000
O O11 0.226835 0.327839 0.409270
O O12 0.000000 0.310330 0.471501
O O13 0.500000 0.153790 0.844213
O O14 0.278645 0.067685 0.841953
O O15 0.000000 0.514972 0.356491
#
# Coordination Sequence:
#
# PCOD9473663 Si02
#       6
#     8  16   8  16  16  16
#     4   9  21  39  61  91 116 149 198 254 309 359
#     4  11  23  39  61  93 130 161 199 251 306 365
#     4  11  24  39  59  89 124 157 198 252 311 365
#     4  11  24  41  63  92 126 164 208 252 308 368
#     4  10  22  41  64  88 117 160 209 252 297 363
#     4  10  20  40  67  88 116 158 209 255 300 361
#
# _framework density 18.709851
#
# number of rings (size 3 to 8) (size 9 to 14) (size 15 to 20)
#    0.000    1.600    2.000    2.100    2.800    4.800 
#    0.000    1.500    0.000    0.000    0.000    0.000 
#    0.000    0.000    0.000    0.000    0.000    0.000 
#
# Total GULP energy -223448.442502 kJ/mol
# GULP energy per Si atom -5586.211063 kJ/mol
# Density = 1.866727 g / cm^3
# Si number density = 18.709851 Si / 1000 Ang^3
#
#
#
# Elastic Constant Matrix: (Units=GPa)
#
#
# Indices 1 2 3 4 5 6 
#
# 1 43.4101 44.5887 55.0588 0.0000 0.0000 0.0000
# 2 44.5887 159.4331 115.8412 0.0000 0.0000 0.0000
# 3 55.0588 115.8412 198.7170 0.0000 0.0000 0.0000
# 4 0.0000 0.0000 0.0000 31.0982 0.0000 0.0000
# 5 0.0000 0.0000 0.0000 0.0000 135.6783 0.0000
# 6 0.0000 0.0000 0.0000 0.0000 0.0000 32.7872
#
#
#
# Elastic Compliance Matrix: (Units=1/GPa)
#
#
# Indices 1 2 3 4 5 6 
#
# 1 0.037797 -0.005138 -0.007478 0.000000 0.000000 0.000000
# 2 -0.005138 0.011579 -0.005327 0.000000 0.000000 0.000000
# 3 -0.007478 -0.005327 0.010209 0.000000 0.000000 0.000000
# 4 0.000000 0.000000 0.000000 0.032156 0.000000 0.000000
# 5 0.000000 0.000000 0.000000 0.000000 0.007370 0.000000
# 6 0.000000 0.000000 0.000000 0.000000 0.000000 0.030500
#
#
# Mechanical properties :
#
#
# Convention : Reuss Voigt Hill
#
# Bulk Modulus (GPa) = 42.19029 92.50417 67.34723
# Shear Modulus (GPa) = 28.83565 52.31752 40.57658
#
# Velocity S-wave (km/s) = 3.93007 5.29370 4.66201
# Velocity P-wave (km/s) = 6.57211 9.32272 8.06554
#
# Compressibility (1/GPa) = 0.02370214
#
# Stress axis : x y z
#
# Youngs Moduli (GPa) = 26.45686 86.36114 97.95100
#
# Poissons Ratio (x) = 0.44370 0.73243
# Poissons Ratio (y) = 0.13593 0.52174
# Poissons Ratio (z) = 0.19783 0.46001
#
# Static dielectric constant tensor:
#      x y z
#    x 1.638680 0.000000 0.000000 
#    y 0.000000 1.608750 0.000000 
#    z 0.000000 0.000000 1.631180 
# 
# From -- ./inp_files/59556.got.cif
#   From: 2010.05.17/outbox.cif.g08.bks.cpg/sg63_30_cif.got.tgz:59556.got - 2010.06.03 15:47:04.
