data_PCOD9473162
_publ_section_title
;
Structure prediction by ZEFSAII (Michael W. Deem and Ramdas Pophale) SiO2 
 PCOD9473162
Probable space group: C M C M
;
_chemical_formula_sum "Si O2"
_cell_formula_units_Z 80
_cell_length_a 12.106875
_cell_length_b 20.634419
_cell_length_c 15.922273
_cell_angle_alpha 90.000000
_cell_angle_beta 90.000000
_cell_angle_gamma 90.000000
_cell_volume 3977.675675
_symmetry_space_group_name_H-M "C M C M"
_symmetry_group_IT_number 63
_symmetry_cell_setting 'orthorhombic'
loop_
_space_group_symop_operation_xyz
x,y,z
-x,-y,1/2+z
x,-y,-z
-x,y,1/2-z
-x,-y,-z
x,y,1/2-z
-x,y,z
x,-y,1/2+z
1/2+x,1/2+y,z
1/2-x,1/2-y,1/2+z
1/2+x,1/2-y,-z
1/2-x,1/2+y,1/2-z
1/2-x,1/2-y,-z
1/2+x,1/2+y,1/2-z
1/2-x,1/2+y,z
1/2+x,1/2-y,1/2+z
loop_
_atom_site_type_symbol
_atom_site_label
_atom_site_fract_x
_atom_site_fract_y
_atom_site_fract_z
Si Si1 0.500000 0.664496 0.150390
Si Si2 0.000000 0.990886 0.849275
Si Si3 0.721935 0.266676 0.594821
Si Si4 0.743652 0.490754 0.146448
Si Si5 0.125265 0.381258 0.649144
Si Si6 0.124707 0.365527 0.150422
O O1 0.500000 0.682210 0.250000
O O2 0.500000 0.587058 0.145141
O O3 0.391066 0.693631 0.108733
O O4 0.117172 0.014983 0.883586
O O5 0.000000 0.007409 0.750000
O O6 0.750000 0.250000 0.500000
O O7 0.818003 0.313009 0.628934
O O8 0.699189 0.197613 0.637554
O O9 0.741199 0.491239 0.250000
O O10 0.799397 0.558483 0.120036
O O11 0.816763 0.430195 0.117378
O O12 0.120831 0.386811 0.750000
O O13 0.000000 0.385605 0.616719
O O14 0.114419 0.374995 0.250000
O O15 0.000000 0.355776 0.116519
#
# Coordination Sequence:
#
# PCOD9473162 Si02
#       6
#     8   8  16  16  16  16
#     4  11  20  40  71  91 111 162 227 261 288 367
#     4   9  16  30  59  91 115 144 199 259 301 347
#     4  12  25  38  59  87 126 157 203 256 311 356
#     4   9  17  32  57  91 119 147 197 261 306 351
#     4  10  20  36  59  85 116 155 202 252 305 365
#     4  10  20  37  63  90 117 154 205 254 301 363
#
# _framework density 20.112248000000001
#
# number of rings (size 3 to 8) (size 9 to 14) (size 15 to 20)
#    0.000    1.800    3.000    2.400    1.400    2.400 
#    1.800    1.000    0.000    3.600    0.000    0.000 
#    0.000    0.000    0.000    0.000    0.000    0.000 
#
# Total GULP energy -223295.939457 kJ/mol
# GULP energy per Si atom -5582.398486 kJ/mol
# Density = 2.006647 g / cm^3
# Si number density = 20.112248 Si / 1000 Ang^3
#
#
#
# Elastic Constant Matrix: (Units=GPa)
#
#
# Indices 1 2 3 4 5 6 
#
# 1 143.2997 62.9081 -1.1490 0.0000 0.0000 0.0000
# 2 62.9081 122.0161 -9.4807 0.0000 0.0000 0.0000
# 3 -1.1490 -9.4807 -16.0115 0.0000 0.0000 0.0000
# 4 0.0000 0.0000 0.0000 -34.8345 0.0000 0.0000
# 5 0.0000 0.0000 0.0000 0.0000 7.9247 0.0000
# 6 0.0000 0.0000 0.0000 0.0000 0.0000 43.8621
#
#
#
# Elastic Compliance Matrix: (Units=1/GPa)
#
#
# Indices 1 2 3 4 5 6 
#
# 1 0.008952 -0.004460 0.001999 0.000000 0.000000 0.000000
# 2 -0.004460 0.010057 -0.005635 0.000000 0.000000 0.000000
# 3 0.001999 -0.005635 -0.059262 0.000000 0.000000 0.000000
# 4 0.000000 0.000000 0.000000 -0.028707 0.000000 0.000000
# 5 0.000000 0.000000 0.000000 0.000000 0.126188 0.000000
# 6 0.000000 0.000000 0.000000 0.000000 0.000000 0.022799
#
#
# Mechanical properties :
#
#
# Convention : Reuss Voigt Hill
#
# Bulk Modulus (GPa) = -17.71614 39.31791 10.80088
# Shear Modulus (GPa) = 64.59484 16.52551 40.56018
#
# Velocity S-wave (km/s) = 5.67335 2.86958 4.49563
# Velocity P-wave (km/s) = 5.83850 5.52910 5.68591
#
# Compressibility (1/GPa) = -0.05644569
#
# Stress axis : x y z
#
# Youngs Moduli (GPa) = 111.70079 99.42900 -16.87424
#
# Poissons Ratio (x) = 0.44349 0.03373
# Poissons Ratio (y) = 0.49823 -0.09509
# Poissons Ratio (z) = -0.22325 0.56029
#
# Static dielectric constant tensor:
#      x y z
#    x 1.688420 0.000000 0.000000 
#    y 0.000000 1.695620 0.000000 
#    z 0.000000 0.000000 1.685020 
# 
# From -- ./inp_files/42194.got.cif
#   From: 2010.05.17/outbox.cif.g08.bks.cpg/sg63_22_cif.got.tgz:42194.got - 2010.06.03 15:47:04.
