data_PCOD9473186
_publ_section_title
;
Structure prediction by ZEFSAII (Michael W. Deem and Ramdas Pophale) SiO2 
 PCOD9473186
Probable space group: C M C M
;
_chemical_formula_sum "Si O2"
_cell_formula_units_Z 88
_cell_length_a 14.948264
_cell_length_b 21.273873
_cell_length_c 13.501313
_cell_angle_alpha 90.000000
_cell_angle_beta 90.000000
_cell_angle_gamma 90.000000
_cell_volume 4293.518388
_symmetry_space_group_name_H-M "C M C M"
_symmetry_group_IT_number 63
_symmetry_cell_setting 'orthorhombic'
loop_
_space_group_symop_operation_xyz
x,y,z
-x,-y,1/2+z
x,-y,-z
-x,y,1/2-z
-x,-y,-z
x,y,1/2-z
-x,y,z
x,-y,1/2+z
1/2+x,1/2+y,z
1/2-x,1/2-y,1/2+z
1/2+x,1/2-y,-z
1/2-x,1/2+y,1/2-z
1/2-x,1/2-y,-z
1/2+x,1/2+y,1/2-z
1/2-x,1/2+y,z
1/2+x,1/2-y,1/2+z
loop_
_atom_site_type_symbol
_atom_site_label
_atom_site_fract_x
_atom_site_fract_y
_atom_site_fract_z
Si Si1 0.369104 0.139144 0.536815
Si Si2 0.500000 0.765248 0.135357
Si Si3 0.204526 0.969706 0.862972
Si Si4 0.401832 0.004419 0.633027
Si Si5 0.500000 0.172663 0.135392
Si Si6 0.168759 0.895904 0.049857
Si Si7 0.000000 0.811476 0.062938
O O1 0.415292 0.190312 0.608598
O O2 0.396227 0.070152 0.575940
O O3 0.413893 0.151960 0.429819
O O4 0.262286 0.141282 0.543009
O O5 0.500000 0.746554 0.250000
O O6 0.500000 0.711003 0.052440
O O7 0.190319 0.951801 0.750000
O O8 0.310921 0.966724 0.888206
O O9 0.154133 0.926538 0.941296
O O10 0.180740 0.042839 0.880673
O O11 0.397369 0.017880 0.750000
O O12 0.500000 0.975890 0.614202
O O13 0.500000 0.151915 0.250000
O O14 0.500000 0.248318 0.127408
O O15 0.087796 0.852522 0.081098
#
# Coordination Sequence:
#
# PCOD9473186 Si02
#       7
#    16   8  16  16   8  16   8
#     4   9  18  34  57  83 113 146 175 220 278 334
#     4  10  20  36  59  90 110 134 183 230 277 340
#     4   9  20  35  55  85 114 144 187 226 266 325
#     4   9  14  27  53  85 116 146 176 212 262 329
#     4  10  22  38  55  84 114 142 181 226 277 338
#     4  10  21  40  57  80 112 150 185 228 276 321
#     4  10  24  41  58  76 108 147 194 238 276 318
#
# _framework density 20.496012
#
# number of rings (size 3 to 8) (size 9 to 14) (size 15 to 20)
#    0.000    2.727    1.818    0.545    0.000    7.273 
#    3.273    4.545    0.000    0.000    0.000    0.000 
#    0.000    0.000    0.000    0.000    0.000    0.000 
#
# Total GULP energy -245792.634549 kJ/mol
# GULP energy per Si atom -5586.196240 kJ/mol
# Density = 2.044936 g / cm^3
# Si number density = 20.496012 Si / 1000 Ang^3
#
#
#
# Elastic Constant Matrix: (Units=GPa)
#
#
# Indices 1 2 3 4 5 6 
#
# 1 109.0530 37.7975 -2.3370 0.0000 0.0000 0.0000
# 2 37.7975 61.2875 -7.9267 0.0000 0.0000 0.0000
# 3 -2.3370 -7.9267 80.0990 0.0000 0.0000 0.0000
# 4 0.0000 0.0000 0.0000 9.8029 0.0000 0.0000
# 5 0.0000 0.0000 0.0000 0.0000 7.2810 0.0000
# 6 0.0000 0.0000 0.0000 0.0000 0.0000 30.0439
#
#
#
# Elastic Compliance Matrix: (Units=1/GPa)
#
#
# Indices 1 2 3 4 5 6 
#
# 1 0.011674 -0.007248 -0.000377 0.000000 0.000000 0.000000
# 2 -0.007248 0.021029 0.001870 0.000000 0.000000 0.000000
# 3 -0.000377 0.001870 0.012659 0.000000 0.000000 0.000000
# 4 0.000000 0.000000 0.000000 0.102011 0.000000 0.000000
# 5 0.000000 0.000000 0.000000 0.000000 0.137345 0.000000
# 6 0.000000 0.000000 0.000000 0.000000 0.000000 0.033285
#
#
# Mechanical properties :
#
#
# Convention : Reuss Voigt Hill
#
# Bulk Modulus (GPa) = 29.54200 33.94522 31.74361
# Shear Modulus (GPa) = 14.67155 24.28593 19.47874
#
# Velocity S-wave (km/s) = 2.67839 3.44599 3.08615
# Velocity P-wave (km/s) = 4.89999 5.69482 5.31229
#
# Compressibility (1/GPa) = 0.03385011
#
# Stress axis : x y z
#
# Youngs Moduli (GPa) = 85.66006 47.55427 78.99788
#
# Poissons Ratio (x) = 0.34469 0.02976
# Poissons Ratio (y) = 0.62090 -0.14769
# Poissons Ratio (z) = 0.03227 -0.08890
#
# Static dielectric constant tensor:
#      x y z
#    x 1.725880 0.000000 0.000000 
#    y 0.000000 1.726530 0.000000 
#    z 0.000000 0.000000 1.737830 
# 
# From -- ./inp_files/31815.got.cif
#   From: 2010.05.17/outbox.cif.g08.bks.cpg/sg63_16_cif.got.tgz:31815.got - 2010.06.03 15:47:04.
