data_PCOD9473394
_publ_section_title
;
Structure prediction by ZEFSAII (Michael W. Deem and Ramdas Pophale) SiO2 
 PCOD9473394
Probable space group: C M C M
;
_chemical_formula_sum "Si O2"
_cell_formula_units_Z 100
_cell_length_a 7.392901
_cell_length_b 19.529887
_cell_length_c 28.292862
_cell_angle_alpha 90.000000
_cell_angle_beta 90.000000
_cell_angle_gamma 90.000000
_cell_volume 4084.994746
_symmetry_space_group_name_H-M "C M C M"
_symmetry_group_IT_number 63
_symmetry_cell_setting 'orthorhombic'
loop_
_space_group_symop_operation_xyz
x,y,z
-x,-y,1/2+z
x,-y,-z
-x,y,1/2-z
-x,-y,-z
x,y,1/2-z
-x,y,z
x,-y,1/2+z
1/2+x,1/2+y,z
1/2-x,1/2-y,1/2+z
1/2+x,1/2-y,-z
1/2-x,1/2+y,1/2-z
1/2-x,1/2-y,-z
1/2+x,1/2+y,1/2-z
1/2-x,1/2+y,z
1/2+x,1/2-y,1/2+z
loop_
_atom_site_type_symbol
_atom_site_label
_atom_site_fract_x
_atom_site_fract_y
_atom_site_fract_z
Si Si1 0.720612 0.668142 0.198017
Si Si2 0.718037 0.578446 0.109843
Si Si3 0.779318 0.694091 0.651199
Si Si4 0.289779 0.039885 0.827878
Si Si5 0.699496 0.210933 0.952155
Si Si6 0.500000 0.501090 0.250000
Si Si7 0.281203 0.420609 0.505065
O O1 0.781920 0.646331 0.250000
O O2 0.500000 0.662739 0.198586
O O3 0.783628 0.624859 0.153147
O O4 0.768305 0.746877 0.188002
O O5 0.500000 0.580753 0.109031
O O6 0.774423 0.501531 0.123038
O O7 0.776697 0.601056 0.057928
O O8 0.725470 0.617991 0.665881
O O9 0.709506 0.714825 0.599064
O O10 0.000000 0.691636 0.649318
O O11 0.500000 0.039732 0.813065
O O12 0.157832 0.003159 0.791193
O O13 0.500000 0.237984 0.942688
O O14 0.750000 0.250000 0.000000
O O15 0.703925 0.131324 0.966881
O O16 0.232179 0.500000 0.500000
O O17 0.500000 0.415872 0.501478
#
# Coordination Sequence:
#
# PCOD9473394 Si02
#       7
#    16  16  16  16  16   4  16
#     4   9  18  32  57  84 116 159 206 256 322 385
#     4  10  20  37  61  91 128 167 210 262 322 387
#     4   9  20  39  61  90 123 165 214 263 322 383
#     4  11  24  42  69  95 128 169 216 270 323 385
#     4  11  22  38  61  90 126 167 215 268 323 387
#     4  12  26  44  64  98 130 168 222 262 330 382
#     4  10  21  37  60  90 125 167 210 259 323 394
#
# _framework density 24.479834
#
# number of rings (size 3 to 8) (size 9 to 14) (size 15 to 20)
#    0.000    1.920    0.800    2.640    2.240    3.520 
#    2.880    0.000    1.760    0.000    0.000    0.000 
#    0.000    0.000    0.000    0.000    0.000    0.000 
#
# Total GULP energy -279151.537473 kJ/mol
# GULP energy per Si atom -5583.030749 kJ/mol
# Density = 2.442412 g / cm^3
# Si number density = 24.479834 Si / 1000 Ang^3
#
#
#
# Elastic Constant Matrix: (Units=GPa)
#
#
# Indices 1 2 3 4 5 6 
#
# 1 101.3647 -14.7356 7.6909 0.0000 0.0000 0.0000
# 2 -14.7356 85.6187 7.9234 0.0000 0.0000 0.0000
# 3 7.6909 7.9234 120.9903 0.0000 0.0000 0.0000
# 4 0.0000 0.0000 0.0000 23.5402 0.0000 0.0000
# 5 0.0000 0.0000 0.0000 0.0000 53.7569 0.0000
# 6 0.0000 0.0000 0.0000 0.0000 0.0000 10.7274
#
#
#
# Elastic Compliance Matrix: (Units=1/GPa)
#
#
# Indices 1 2 3 4 5 6 
#
# 1 0.010189 0.001825 -0.000767 0.000000 0.000000 0.000000
# 2 0.001825 0.012078 -0.000907 0.000000 0.000000 0.000000
# 3 -0.000767 -0.000907 0.008373 0.000000 0.000000 0.000000
# 4 0.000000 0.000000 0.000000 0.042480 0.000000 0.000000
# 5 0.000000 0.000000 0.000000 0.000000 0.018602 0.000000
# 6 0.000000 0.000000 0.000000 0.000000 0.000000 0.093219
#
#
# Mechanical properties :
#
#
# Convention : Reuss Voigt Hill
#
# Bulk Modulus (GPa) = 32.31986 34.41456 33.36721
# Shear Modulus (GPa) = 25.64707 38.07791 31.86249
#
# Velocity S-wave (km/s) = 3.24030 3.94824 3.61166
# Velocity P-wave (km/s) = 5.21831 5.90539 5.57245
#
# Compressibility (1/GPa) = 0.03094073
#
# Stress axis : x y z
#
# Youngs Moduli (GPa) = 98.14682 82.79761 119.42743
#
# Poissons Ratio (x) = -0.15107 0.09162
# Poissons Ratio (y) = -0.17908 0.10831
# Poissons Ratio (z) = 0.07529 0.07509
#
# Static dielectric constant tensor:
#      x y z
#    x 1.963910 0.000000 0.000000 
#    y 0.000000 1.954250 0.000000 
#    z 0.000000 0.000000 1.938020 
# 
# From -- ./inp_files/67116.got.cif
#   From: 2010.05.17/outbox.cif.g08.bks.cpg/sg63_34_cif.got.tgz:67116.got - 2010.06.03 15:47:04.
