data_PCOD9473557
_publ_section_title
;
Structure prediction by ZEFSAII (Michael W. Deem and Ramdas Pophale) SiO2 
 PCOD9473557
Probable space group: C M C M
;
_chemical_formula_sum "Si O2"
_cell_formula_units_Z 72
_cell_length_a 27.867062
_cell_length_b 15.230918
_cell_length_c 8.386142
_cell_angle_alpha 90.000000
_cell_angle_beta 90.000000
_cell_angle_gamma 90.000000
_cell_volume 3559.421962
_symmetry_space_group_name_H-M "C M C M"
_symmetry_group_IT_number 63
_symmetry_cell_setting 'orthorhombic'
loop_
_space_group_symop_operation_xyz
x,y,z
-x,-y,1/2+z
x,-y,-z
-x,y,1/2-z
-x,-y,-z
x,y,1/2-z
-x,y,z
x,-y,1/2+z
1/2+x,1/2+y,z
1/2-x,1/2-y,1/2+z
1/2+x,1/2-y,-z
1/2-x,1/2+y,1/2-z
1/2-x,1/2-y,-z
1/2+x,1/2+y,1/2-z
1/2-x,1/2+y,z
1/2+x,1/2-y,1/2+z
loop_
_atom_site_type_symbol
_atom_site_label
_atom_site_fract_x
_atom_site_fract_y
_atom_site_fract_z
Si Si1 0.910537 0.720443 0.556184
Si Si2 0.767766 0.155948 0.061284
Si Si3 0.000000 0.399031 0.443554
Si Si4 0.171182 0.589163 0.940361
Si Si5 0.373222 0.402975 0.942998
O O1 0.912605 0.721301 0.750000
O O2 0.953919 0.658213 0.502957
O O3 0.860997 0.672125 0.512180
O O4 0.907180 0.821863 0.504911
O O5 0.772949 0.162892 0.250000
O O6 0.819019 0.121401 0.999998
O O7 0.750000 0.250000 0.000000
O O8 0.723404 0.094571 0.017042
O O9 0.000000 0.500000 0.500000
O O10 0.000000 0.401320 0.250000
O O11 0.175434 0.588729 0.750000
O O12 0.146757 0.500000 0.000000
O O13 0.372870 0.403908 0.750000
O O14 0.386397 0.500000 0.000000
#
# Coordination Sequence:
#
# PCOD9473557 Si02
#       5
#    16  16   8  16  16
#     4   9  19  37  58  81 112 147 184 230 285 342
#     4  11  21  35  55  79 112 151 191 233 279 332
#     4  10  20  38  65  88 112 146 181 226 287 346
#     4  11  21  35  53  79 114 148 188 233 279 337
#     4  10  21  38  56  79 111 149 190 231 275 328
#
# _framework density 20.228002
#
# number of rings (size 3 to 8) (size 9 to 14) (size 15 to 20)
#    0.000    1.778    2.222    2.667    0.000    3.556 
#    0.000    2.778    0.000    0.000    0.000    0.000 
#    0.000    0.000    0.000    0.000    0.000    0.000 
#
# Total GULP energy -200920.704255 kJ/mol
# GULP energy per Si atom -5581.130674 kJ/mol
# Density = 2.018196 g / cm^3
# Si number density = 20.228002 Si / 1000 Ang^3
#
#
#
# Elastic Constant Matrix: (Units=GPa)
#
#
# Indices 1 2 3 4 5 6 
#
# 1 90.1611 57.1014 6.2270 0.0000 0.0000 0.0000
# 2 57.1014 206.8899 13.9863 0.0000 0.0000 0.0000
# 3 6.2270 13.9863 17.2391 0.0000 0.0000 0.0000
# 4 0.0000 0.0000 0.0000 36.6574 0.0000 0.0000
# 5 0.0000 0.0000 0.0000 0.0000 14.4455 0.0000
# 6 0.0000 0.0000 0.0000 0.0000 0.0000 44.8037
#
#
#
# Elastic Compliance Matrix: (Units=1/GPa)
#
#
# Indices 1 2 3 4 5 6 
#
# 1 0.013503 -0.003594 -0.001961 0.000000 0.000000 0.000000
# 2 -0.003594 0.006071 -0.003627 0.000000 0.000000 0.000000
# 3 -0.001961 -0.003627 0.061659 0.000000 0.000000 0.000000
# 4 0.000000 0.000000 0.000000 0.027280 0.000000 0.000000
# 5 0.000000 0.000000 0.000000 0.000000 0.069226 0.000000
# 6 0.000000 0.000000 0.000000 0.000000 0.000000 0.022320
#
#
# Mechanical properties :
#
#
# Convention : Reuss Voigt Hill
#
# Bulk Modulus (GPa) = 15.90655 52.10216 34.00435
# Shear Modulus (GPa) = 20.88743 34.97967 27.93355
#
# Velocity S-wave (km/s) = 3.21689 4.16296 3.72012
# Velocity P-wave (km/s) = 4.65603 6.99431 5.94134
#
# Compressibility (1/GPa) = 0.06286720
#
# Stress axis : x y z
#
# Youngs Moduli (GPa) = 74.05736 164.72609 16.21832
#
# Poissons Ratio (x) = 0.59206 0.03181
# Poissons Ratio (y) = 0.26618 0.05882
# Poissons Ratio (z) = 0.14526 0.59745
#
# Static dielectric constant tensor:
#      x y z
#    x 1.676710 0.000000 0.000000 
#    y 0.000000 1.765100 0.000000 
#    z 0.000000 0.000000 1.700260 
# 
# From -- ./inp_files/11680.got.cif
#   From: 2010.05.17/outbox.cif.g08.bks.cpg/sg63_6_cif.got.tgz:11680.got - 2010.06.03 15:47:04.
