data_PCOD9473595
_publ_section_title
;
Structure prediction by ZEFSAII (Michael W. Deem and Ramdas Pophale) SiO2 
 PCOD9473595
Probable space group: C M C M
;
_chemical_formula_sum "Si O2"
_cell_formula_units_Z 72
_cell_length_a 14.687429
_cell_length_b 8.749395
_cell_length_c 26.808747
_cell_angle_alpha 90.000000
_cell_angle_beta 90.000000
_cell_angle_gamma 90.000000
_cell_volume 3445.088002
_symmetry_space_group_name_H-M "C M C M"
_symmetry_group_IT_number 63
_symmetry_cell_setting 'orthorhombic'
loop_
_space_group_symop_operation_xyz
x,y,z
-x,-y,1/2+z
x,-y,-z
-x,y,1/2-z
-x,-y,-z
x,y,1/2-z
-x,y,z
x,-y,1/2+z
1/2+x,1/2+y,z
1/2-x,1/2-y,1/2+z
1/2+x,1/2-y,-z
1/2-x,1/2+y,1/2-z
1/2-x,1/2-y,-z
1/2+x,1/2+y,1/2-z
1/2-x,1/2+y,z
1/2+x,1/2-y,1/2+z
loop_
_atom_site_type_symbol
_atom_site_label
_atom_site_fract_x
_atom_site_fract_y
_atom_site_fract_z
Si Si1 0.668594 0.303586 0.309952
Si Si2 0.180046 0.876255 0.865690
Si Si3 0.500000 0.818549 0.126367
Si Si4 0.303820 0.140945 0.463262
Si Si5 0.000000 0.399940 0.950049
Si Si6 0.500000 0.090131 0.308892
O O1 0.665811 0.327493 0.250000
O O2 0.762948 0.227177 0.326955
O O3 0.658572 0.462718 0.339411
O O4 0.589583 0.183641 0.325182
O O5 0.244191 0.895852 0.914408
O O6 0.089089 0.784387 0.880069
O O7 0.500000 0.967237 0.091127
O O8 0.500000 0.911264 0.178147
O O9 0.250000 0.250000 0.500000
O O10 0.405662 0.192933 0.448006
O O11 0.317325 0.000000 0.500000
O O12 0.000000 0.500000 0.000000
O O13 0.500000 0.102514 0.250000
#
# Coordination Sequence:
#
# PCOD9473595 Si02
#       6
#    16  16   8  16   8   8
#     4  11  23  41  64  94 129 167 210 264 323 384
#     4  12  24  41  64  94 129 169 215 263 317 381
#     4  12  25  41  64  91 124 171 218 263 316 374
#     4  11  23  41  65  93 125 165 210 260 316 378
#     4  10  20  39  63  88 121 158 203 256 310 368
#     4  10  23  42  65  91 123 163 212 267 325 380
#
# _framework density 20.899321
#
# number of rings (size 3 to 8) (size 9 to 14) (size 15 to 20)
#    0.000    0.889    0.000    9.333    0.000    3.556 
#    0.000    4.444    0.000    0.000    0.000    0.000 
#    0.000    0.000    0.000    0.000    0.000    0.000 
#
# Total GULP energy -201111.322038 kJ/mol
# GULP energy per Si atom -5586.425612 kJ/mol
# Density = 2.085175 g / cm^3
# Si number density = 20.899321 Si / 1000 Ang^3
#
#
#
# Elastic Constant Matrix: (Units=GPa)
#
#
# Indices 1 2 3 4 5 6 
#
# 1 179.5192 35.0751 35.2809 0.0000 0.0000 0.0000
# 2 35.0751 63.9949 8.5607 0.0000 0.0000 0.0000
# 3 35.2809 8.5607 106.6770 0.0000 0.0000 0.0000
# 4 0.0000 0.0000 0.0000 45.4841 0.0000 0.0000
# 5 0.0000 0.0000 0.0000 0.0000 45.3971 0.0000
# 6 0.0000 0.0000 0.0000 0.0000 0.0000 37.3414
#
#
#
# Elastic Compliance Matrix: (Units=1/GPa)
#
#
# Indices 1 2 3 4 5 6 
#
# 1 0.006604 -0.003363 -0.001914 0.000000 0.000000 0.000000
# 2 -0.003363 0.017509 -0.000293 0.000000 0.000000 0.000000
# 3 -0.001914 -0.000293 0.010031 0.000000 0.000000 0.000000
# 4 0.000000 0.000000 0.000000 0.021986 0.000000 0.000000
# 5 0.000000 0.000000 0.000000 0.000000 0.022028 0.000000
# 6 0.000000 0.000000 0.000000 0.000000 0.000000 0.026780
#
#
# Mechanical properties :
#
#
# Convention : Reuss Voigt Hill
#
# Bulk Modulus (GPa) = 43.47301 56.44717 49.96009
# Shear Modulus (GPa) = 40.40574 43.72950 42.06762
#
# Velocity S-wave (km/s) = 4.40176 4.57923 4.49137
# Velocity P-wave (km/s) = 6.83230 7.41801 7.13117
#
# Compressibility (1/GPa) = 0.02300278
#
# Stress axis : x y z
#
# Youngs Moduli (GPa) = 151.42846 57.11393 99.69457
#
# Poissons Ratio (x) = 0.19210 0.19083
# Poissons Ratio (y) = 0.50932 0.02918
# Poissons Ratio (z) = 0.28985 0.01672
#
# Static dielectric constant tensor:
#      x y z
#    x 1.907790 0.000000 0.000000 
#    y 0.000000 1.672820 0.000000 
#    z 0.000000 0.000000 1.669720 
# 
# From -- ./inp_files/69093.got.cif
#   From: 2010.05.17/outbox.cif.g08.bks.cpg/sg63_35_cif.got.tgz:69093.got - 2010.06.03 15:47:04.
