data_PCOD9473340
_publ_section_title
;
Structure prediction by ZEFSAII (Michael W. Deem and Ramdas Pophale) SiO2 
 PCOD9473340
Probable space group: C M C M
;
_chemical_formula_sum "Si O2"
_cell_formula_units_Z 72
_cell_length_a 16.333648
_cell_length_b 8.774772
_cell_length_c 24.272202
_cell_angle_alpha 90.000000
_cell_angle_beta 90.000000
_cell_angle_gamma 90.000000
_cell_volume 3478.789981
_symmetry_space_group_name_H-M "C M C M"
_symmetry_group_IT_number 63
_symmetry_cell_setting 'orthorhombic'
loop_
_space_group_symop_operation_xyz
x,y,z
-x,-y,1/2+z
x,-y,-z
-x,y,1/2-z
-x,-y,-z
x,y,1/2-z
-x,y,z
x,-y,1/2+z
1/2+x,1/2+y,z
1/2-x,1/2-y,1/2+z
1/2+x,1/2-y,-z
1/2-x,1/2+y,1/2-z
1/2-x,1/2-y,-z
1/2+x,1/2+y,1/2-z
1/2-x,1/2+y,z
1/2+x,1/2-y,1/2+z
loop_
_atom_site_type_symbol
_atom_site_label
_atom_site_fract_x
_atom_site_fract_y
_atom_site_fract_z
Si Si1 0.500000 0.213188 0.654358
Si Si2 0.500000 0.564667 0.683241
Si Si3 0.500000 0.828818 0.024095
Si Si4 0.837733 0.251530 0.685821
Si Si5 0.327281 0.907979 0.152384
Si Si6 0.172733 0.331344 0.024476
O O1 0.500000 0.395306 0.658893
O O2 0.500000 0.161251 0.590429
O O3 0.586166 0.150043 0.677488
O O4 0.500000 0.549696 0.750000
O O5 0.417540 0.656002 0.667717
O O6 0.586038 0.754972 0.008268
O O7 0.500000 0.000000 0.000000
O O8 0.850017 0.292482 0.750000
O O9 0.754631 0.153824 0.681121
O O10 0.828780 0.409126 0.653102
O O11 0.322481 0.844635 0.090242
O O12 0.171607 0.500000 0.000000
O O13 0.250000 0.250000 0.000000
#
# Coordination Sequence:
#
# PCOD9473340 Si02
#       6
#     8   8   8  16  16  16
#     4  10  21  37  61  90 120 158 200 248 304 360
#     4  10  23  40  59  86 123 160 203 253 302 357
#     4   8  18  37  59  82 114 152 191 233 290 357
#     4  11  23  40  60  87 122 162 204 251 301 358
#     4  11  22  38  61  89 119 159 203 246 300 363
#     4  10  20  37  59  84 114 149 190 241 294 350
#
# _framework density 20.696852
#
# number of rings (size 3 to 8) (size 9 to 14) (size 15 to 20)
#    0.000    1.778    0.000    4.000    0.000    5.333 
#    0.000    3.889    0.000    0.000    0.000    0.000 
#    0.000    0.000    0.000    0.000    0.000    0.000 
#
# Total GULP energy -200988.948928 kJ/mol
# GULP energy per Si atom -5583.026359 kJ/mol
# Density = 2.064975 g / cm^3
# Si number density = 20.696852 Si / 1000 Ang^3
#
#
#
# Elastic Constant Matrix: (Units=GPa)
#
#
# Indices 1 2 3 4 5 6 
#
# 1 215.8342 63.4322 23.3795 0.0000 0.0000 0.0000
# 2 63.4322 105.8084 11.0455 0.0000 0.0000 0.0000
# 3 23.3795 11.0455 49.2613 0.0000 0.0000 0.0000
# 4 0.0000 0.0000 0.0000 22.4008 0.0000 0.0000
# 5 0.0000 0.0000 0.0000 0.0000 22.8278 0.0000
# 6 0.0000 0.0000 0.0000 0.0000 0.0000 35.6727
#
#
#
# Elastic Compliance Matrix: (Units=1/GPa)
#
#
# Indices 1 2 3 4 5 6 
#
# 1 0.005815 -0.003275 -0.002026 0.000000 0.000000 0.000000
# 2 -0.003275 0.011522 -0.001029 0.000000 0.000000 0.000000
# 3 -0.002026 -0.001029 0.021492 0.000000 0.000000 0.000000
# 4 0.000000 0.000000 0.000000 0.044641 0.000000 0.000000
# 5 0.000000 0.000000 0.000000 0.000000 0.043806 0.000000
# 6 0.000000 0.000000 0.000000 0.000000 0.000000 0.028033
#
#
# Mechanical properties :
#
#
# Convention : Reuss Voigt Hill
#
# Bulk Modulus (GPa) = 38.21209 62.95760 50.58485
# Shear Modulus (GPa) = 28.29799 34.38337 31.34068
#
# Velocity S-wave (km/s) = 3.70166 4.08031 3.89559
# Velocity P-wave (km/s) = 6.06404 7.25834 6.68790
#
# Compressibility (1/GPa) = 0.02616973
#
# Stress axis : x y z
#
# Youngs Moduli (GPa) = 171.96929 86.79322 46.52890
#
# Poissons Ratio (x) = 0.28422 0.09425
# Poissons Ratio (y) = 0.56314 0.04789
# Poissons Ratio (z) = 0.34833 0.08933
#
# Static dielectric constant tensor:
#      x y z
#    x 1.797780 0.000000 0.000000 
#    y 0.000000 1.699100 0.000000 
#    z 0.000000 0.000000 1.857890 
# 
# From -- ./inp_files/69078.got.cif
#   From: 2010.05.17/outbox.cif.g08.bks.cpg/sg63_35_cif.got.tgz:69078.got - 2010.06.03 15:47:04.
