data_PCOD9473238
_publ_section_title
;
Structure prediction by ZEFSAII (Michael W. Deem and Ramdas Pophale) SiO2 
 PCOD9473238
Probable space group: C M C M
;
_chemical_formula_sum "Si O2"
_cell_formula_units_Z 64
_cell_length_a 14.197382
_cell_length_b 11.995050
_cell_length_c 15.847654
_cell_angle_alpha 90.000000
_cell_angle_beta 90.000000
_cell_angle_gamma 90.000000
_cell_volume 2698.828645
_symmetry_space_group_name_H-M "C M C M"
_symmetry_group_IT_number 63
_symmetry_cell_setting 'orthorhombic'
loop_
_space_group_symop_operation_xyz
x,y,z
-x,-y,1/2+z
x,-y,-z
-x,y,1/2-z
-x,-y,-z
x,y,1/2-z
-x,y,z
x,-y,1/2+z
1/2+x,1/2+y,z
1/2-x,1/2-y,1/2+z
1/2+x,1/2-y,-z
1/2-x,1/2+y,1/2-z
1/2-x,1/2-y,-z
1/2+x,1/2+y,1/2-z
1/2-x,1/2+y,z
1/2+x,1/2-y,1/2+z
loop_
_atom_site_type_symbol
_atom_site_label
_atom_site_fract_x
_atom_site_fract_y
_atom_site_fract_z
Si Si1 0.606819 0.414218 0.421286
Si Si2 0.249980 0.062311 0.156894
Si Si3 0.389970 0.227515 0.843228
Si Si4 0.890827 0.657111 0.023915
O O1 0.613588 0.500000 0.500000
O O2 0.500000 0.423495 0.387415
O O3 0.686628 0.453157 0.357295
O O4 0.620457 0.287906 0.451851
O O5 0.293746 0.064570 0.250000
O O6 0.175290 0.164427 0.153420
O O7 0.322992 0.087349 0.082965
O O8 0.379600 0.176348 0.750000
O O9 0.500000 0.261533 0.852374
O O10 0.369863 0.152440 0.924362
O O11 0.000000 0.627024 0.037674
#
# Coordination Sequence:
#
# PCOD9473238 Si02
#       4
#    16  16  16  16
#     4  10  20  36  61  91 120 153 199 256 310 360
#     4  11  22  35  57  88 124 165 204 249 303 360
#     4   9  17  31  54  86 119 152 196 250 306 361
#     4  10  21  38  62  89 122 164 205 249 303 364
#
# _framework density 23.713992999999999
#
# number of rings (size 3 to 8) (size 9 to 14) (size 15 to 20)
#    0.000    2.000    2.500    1.500    0.000    3.000 
#    0.000    2.500    0.000    5.250    0.000    7.000 
#    0.000    0.000    0.000    0.000    0.000    0.500 
#
# Total GULP energy -179282.026322 kJ/mol
# GULP energy per Si atom -5602.563323 kJ/mol
# Density = 2.366002 g / cm^3
# Si number density = 23.713993 Si / 1000 Ang^3
#
#
#
# Elastic Constant Matrix: (Units=GPa)
#
#
# Indices 1 2 3 4 5 6 
#
# 1 120.5030 57.5007 87.4794 0.0000 0.0000 0.0000
# 2 57.5007 121.1178 33.3544 0.0000 0.0000 0.0000
# 3 87.4794 33.3544 198.6675 0.0000 0.0000 0.0000
# 4 0.0000 0.0000 0.0000 5.8762 0.0000 0.0000
# 5 0.0000 0.0000 0.0000 0.0000 37.0500 0.0000
# 6 0.0000 0.0000 0.0000 0.0000 0.0000 25.7107
#
#
#
# Elastic Compliance Matrix: (Units=1/GPa)
#
#
# Indices 1 2 3 4 5 6 
#
# 1 0.015125 -0.005606 -0.005719 0.000000 0.000000 0.000000
# 2 -0.005606 0.010734 0.000666 0.000000 0.000000 0.000000
# 3 -0.005719 0.000666 0.007440 0.000000 0.000000 0.000000
# 4 0.000000 0.000000 0.000000 0.170179 0.000000 0.000000
# 5 0.000000 0.000000 0.000000 0.000000 0.026991 0.000000
# 6 0.000000 0.000000 0.000000 0.000000 0.000000 0.038894
#
#
# Mechanical properties :
#
#
# Convention : Reuss Voigt Hill
#
# Bulk Modulus (GPa) = 83.45567 88.55080 86.00323
# Shear Modulus (GPa) = 16.96787 31.19095 24.07941
#
# Velocity S-wave (km/s) = 2.67783 3.63064 3.19001
# Velocity P-wave (km/s) = 6.69552 7.41604 7.06497
#
# Compressibility (1/GPa) = 0.01198241
#
# Stress axis : x y z
#
# Youngs Moduli (GPa) = 66.11530 93.15947 134.41042
#
# Poissons Ratio (x) = 0.52223 0.76868
# Poissons Ratio (y) = 0.37062 -0.08954
# Poissons Ratio (z) = 0.37811 -0.06206
#
# Static dielectric constant tensor:
#      x y z
#    x 1.886600 0.000000 0.000000 
#    y 0.000000 1.878710 0.000000 
#    z 0.000000 0.000000 1.902820 
# 
# From -- ./inp_files/31108.got.cif
#   From: 2010.05.17/outbox.cif.g08.bks.cpg/sg63_16_cif.got.tgz:31108.got - 2010.06.03 15:47:04.
