data_PCOD9473045
_publ_section_title
;
Structure prediction by ZEFSAII (Michael W. Deem and Ramdas Pophale) SiO2 
 PCOD9473045
Probable space group: C M C M
;
_chemical_formula_sum "Si O2"
_cell_formula_units_Z 112
_cell_length_a 15.409040
_cell_length_b 24.137370
_cell_length_c 14.589646
_cell_angle_alpha 90.000000
_cell_angle_beta 90.000000
_cell_angle_gamma 90.000000
_cell_volume 5426.381016
_symmetry_space_group_name_H-M "C M C M"
_symmetry_group_IT_number 63
_symmetry_cell_setting 'orthorhombic'
loop_
_space_group_symop_operation_xyz
x,y,z
-x,-y,1/2+z
x,-y,-z
-x,y,1/2-z
-x,-y,-z
x,y,1/2-z
-x,y,z
x,-y,1/2+z
1/2+x,1/2+y,z
1/2-x,1/2-y,1/2+z
1/2+x,1/2-y,-z
1/2-x,1/2+y,1/2-z
1/2-x,1/2-y,-z
1/2+x,1/2+y,1/2-z
1/2-x,1/2+y,z
1/2+x,1/2-y,1/2+z
loop_
_atom_site_type_symbol
_atom_site_label
_atom_site_fract_x
_atom_site_fract_y
_atom_site_fract_z
Si Si1 0.902239 0.684781 0.855755
Si Si2 0.714558 0.965820 0.856972
Si Si3 0.905345 0.047554 0.421239
Si Si4 0.602092 0.138092 0.360152
Si Si5 0.096571 0.132390 0.922942
Si Si6 0.776808 0.587509 0.858533
Si Si7 0.851312 0.746403 0.023552
O O1 0.881358 0.699483 0.750000
O O2 0.835789 0.638222 0.891108
O O3 0.000000 0.662248 0.857061
O O4 0.896581 0.735233 0.925882
O O5 0.690076 0.968769 0.750000
O O6 0.817863 0.956428 0.864148
O O7 0.660744 0.913599 0.893457
O O8 0.700236 0.027200 0.897994
O O9 0.903295 0.105326 0.476049
O O10 0.000000 0.041573 0.375425
O O11 0.901585 0.000000 0.500000
O O12 0.614227 0.144816 0.250000
O O13 0.500000 0.127224 0.376519
O O14 0.628405 0.194328 0.411420
O O15 0.176157 0.102132 0.873369
O O16 0.116330 0.197241 0.930188
O O17 0.000000 0.122586 0.884014
O O18 0.792541 0.585002 0.750000
O O19 0.750000 0.750000 0.000000
#
# Coordination Sequence:
#
# PCOD9473045 Si02
#       7
#    16  16  16  16  16  16  16
#     4  10  22  41  62  87 122 160 202 255 310 366
#     4  10  21  37  60  87 118 159 205 253 308 368
#     4  10  20  36  57  82 115 154 197 250 311 365
#     4  10  23  42  63  93 132 169 210 260 314 377
#     4  11  22  37  58  87 119 156 201 251 308 370
#     4  10  21  37  58  87 118 155 203 253 308 362
#     4  12  23  40  66  90 124 168 205 256 310 375
#
# _framework density 20.639907000000001
#
# number of rings (size 3 to 8) (size 9 to 14) (size 15 to 20)
#    0.000    1.571    2.857    2.143    0.000    2.286 
#    0.000    5.000    0.000    3.000    0.000    0.000 
#    0.000    0.000    0.000    0.000    0.000    0.000 
#
# Total GULP energy -312614.977663 kJ/mol
# GULP energy per Si atom -5582.410315 kJ/mol
# Density = 2.059293 g / cm^3
# Si number density = 20.639907 Si / 1000 Ang^3
#
#
#
# Elastic Constant Matrix: (Units=GPa)
#
#
# Indices 1 2 3 4 5 6 
#
# 1 96.5745 24.1693 9.0675 0.0000 0.0000 0.0000
# 2 24.1693 128.9623 21.6433 0.0000 0.0000 0.0000
# 3 9.0675 21.6433 44.9235 0.0000 0.0000 0.0000
# 4 0.0000 0.0000 0.0000 20.6089 0.0000 0.0000
# 5 0.0000 0.0000 0.0000 0.0000 30.4660 0.0000
# 6 0.0000 0.0000 0.0000 0.0000 0.0000 4.7466
#
#
#
# Elastic Compliance Matrix: (Units=1/GPa)
#
#
# Indices 1 2 3 4 5 6 
#
# 1 0.010937 -0.001827 -0.001327 0.000000 0.000000 0.000000
# 2 -0.001827 0.008742 -0.003843 0.000000 0.000000 0.000000
# 3 -0.001327 -0.003843 0.024379 0.000000 0.000000 0.000000
# 4 0.000000 0.000000 0.000000 0.048523 0.000000 0.000000
# 5 0.000000 0.000000 0.000000 0.000000 0.032823 0.000000
# 6 0.000000 0.000000 0.000000 0.000000 0.000000 0.210677
#
#
# Mechanical properties :
#
#
# Convention : Reuss Voigt Hill
#
# Bulk Modulus (GPa) = 33.26297 42.24674 37.75485
# Shear Modulus (GPa) = 13.88519 25.53630 19.71075
#
# Velocity S-wave (km/s) = 2.59653 3.52124 3.09363
# Velocity P-wave (km/s) = 5.01399 6.08647 5.57607
#
# Compressibility (1/GPa) = 0.03006346
#
# Stress axis : x y z
#
# Youngs Moduli (GPa) = 91.43660 114.39677 41.01837
#
# Poissons Ratio (x) = 0.20899 0.05444
# Poissons Ratio (y) = 0.16705 0.15762
# Poissons Ratio (z) = 0.12136 0.43960
#
# Static dielectric constant tensor:
#      x y z
#    x 1.757480 0.000000 0.000000 
#    y 0.000000 1.757120 0.000000 
#    z 0.000000 0.000000 1.754840 
# 
# From -- ./inp_files/32336.got.cif
#   From: 2010.05.17/outbox.cif.g08.bks.cpg/sg63_17_cif.got.tgz:32336.got - 2010.06.03 15:47:04.
