data_PCOD9473037
_publ_section_title
;
Structure prediction by ZEFSAII (Michael W. Deem and Ramdas Pophale) SiO2 
 PCOD9473037
Probable space group: C M C M
;
_chemical_formula_sum "Si O2"
_cell_formula_units_Z 96
_cell_length_a 22.536350
_cell_length_b 25.697206
_cell_length_c 8.142205
_cell_angle_alpha 90.000000
_cell_angle_beta 90.000000
_cell_angle_gamma 90.000000
_cell_volume 4715.323762
_symmetry_space_group_name_H-M "C M C M"
_symmetry_group_IT_number 63
_symmetry_cell_setting 'orthorhombic'
loop_
_space_group_symop_operation_xyz
x,y,z
-x,-y,1/2+z
x,-y,-z
-x,y,1/2-z
-x,-y,-z
x,y,1/2-z
-x,y,z
x,-y,1/2+z
1/2+x,1/2+y,z
1/2-x,1/2-y,1/2+z
1/2+x,1/2-y,-z
1/2-x,1/2+y,1/2-z
1/2-x,1/2-y,-z
1/2+x,1/2+y,1/2-z
1/2-x,1/2+y,z
1/2+x,1/2-y,1/2+z
loop_
_atom_site_type_symbol
_atom_site_label
_atom_site_fract_x
_atom_site_fract_y
_atom_site_fract_z
Si Si1 0.902129 0.664803 0.559960
Si Si2 0.773937 0.694850 0.444457
Si Si3 0.099774 0.056497 0.947857
Si Si4 0.500000 0.362593 0.451550
Si Si5 0.639785 0.943283 0.051815
Si Si6 0.500000 0.755795 0.942264
Si Si7 0.228546 0.088929 0.551354
O O1 0.919114 0.661380 0.750000
O O2 0.834570 0.683052 0.539866
O O3 0.899471 0.605652 0.491489
O O4 0.943928 0.708177 0.483841
O O5 0.785241 0.693971 0.250000
O O6 0.750000 0.750000 0.500000
O O7 0.729728 0.648440 0.492326
O O8 0.100826 0.058038 0.750000
O O9 0.057530 0.103731 0.002697
O O10 0.167777 0.062848 0.007353
O O11 0.076875 0.000000 0.000000
O O12 0.500000 0.362091 0.250000
O O13 0.500000 0.302930 0.513708
O O14 0.640675 0.940306 0.250000
O O15 0.708505 0.935408 0.994542
O O16 0.618868 0.000000 0.000000
O O17 0.500000 0.747531 0.750000
O O18 0.229086 0.087732 0.750000
#
# Coordination Sequence:
#
# PCOD9473037 Si02
#       7
#    16  16  16   8  16   8  16
#     4  10  22  41  60  85 119 156 193 241 298 345
#     4  11  22  36  57  85 117 152 193 242 291 352
#     4  10  20  36  57  81 115 153 193 243 292 345
#     4   9  21  38  56  81 111 150 195 245 299 342
#     4   9  18  33  55  83 115 148 187 233 288 349
#     4  11  23  40  63  89 114 154 206 249 297 353
#     4   9  19  34  53  81 116 154 190 233 292 348
#
# _framework density 20.359152999999999
#
# number of rings (size 3 to 8) (size 9 to 14) (size 15 to 20)
#    0.000    2.167    0.000    4.000    2.333    4.000 
#    0.000    2.083    0.000    0.000    0.000    0.000 
#    0.000    0.000    0.000    0.000    0.000    0.000 
#
# Total GULP energy -267859.305599 kJ/mol
# GULP energy per Si atom -5580.402200 kJ/mol
# Density = 2.031281 g / cm^3
# Si number density = 20.359153 Si / 1000 Ang^3
#
#
#
# Elastic Constant Matrix: (Units=GPa)
#
#
# Indices 1 2 3 4 5 6 
#
# 1 66.7123 57.0253 3.8715 0.0000 0.0000 0.0000
# 2 57.0253 201.4398 1.9865 0.0000 0.0000 0.0000
# 3 3.8715 1.9865 13.2509 0.0000 0.0000 0.0000
# 4 0.0000 0.0000 0.0000 30.3902 0.0000 0.0000
# 5 0.0000 0.0000 0.0000 0.0000 18.7973 0.0000
# 6 0.0000 0.0000 0.0000 0.0000 0.0000 16.7577
#
#
#
# Elastic Compliance Matrix: (Units=1/GPa)
#
#
# Indices 1 2 3 4 5 6 
#
# 1 0.020104 -0.005642 -0.005028 0.000000 0.000000 0.000000
# 2 -0.005642 0.006555 0.000666 0.000000 0.000000 0.000000
# 3 -0.005028 0.000666 0.076836 0.000000 0.000000 0.000000
# 4 0.000000 0.000000 0.000000 0.032905 0.000000 0.000000
# 5 0.000000 0.000000 0.000000 0.000000 0.053199 0.000000
# 6 0.000000 0.000000 0.000000 0.000000 0.000000 0.059674
#
#
# Mechanical properties :
#
#
# Convention : Reuss Voigt Hill
#
# Bulk Modulus (GPa) = 11.97797 45.24108 28.60952
# Shear Modulus (GPa) = 16.82880 27.75703 22.29291
#
# Velocity S-wave (km/s) = 2.87818 3.69639 3.31264
# Velocity P-wave (km/s) = 4.11598 6.36297 5.35858
#
# Compressibility (1/GPa) = 0.08348662
#
# Stress axis : x y z
#
# Youngs Moduli (GPa) = 49.74151 152.56061 13.01477
#
# Poissons Ratio (x) = 0.86069 0.06544
# Poissons Ratio (y) = 0.28062 -0.00866
# Poissons Ratio (z) = 0.25010 -0.10155
#
# Static dielectric constant tensor:
#      x y z
#    x 1.733520 0.000000 0.000000 
#    y 0.000000 1.773610 0.000000 
#    z 0.000000 0.000000 1.720340 
# 
# From -- ./inp_files/10553.got.cif
#   From: 2010.05.17/outbox.cif.g08.bks.cpg/sg63_6_cif.got.tgz:10553.got - 2010.06.03 15:47:04.
