data_PCOD9473596
_publ_section_title
;
Structure prediction by ZEFSAII (Michael W. Deem and Ramdas Pophale) SiO2 
 PCOD9473596
Probable space group: C M C M
;
_chemical_formula_sum "Si O2"
_cell_formula_units_Z 80
_cell_length_a 12.273288
_cell_length_b 30.266902
_cell_length_c 11.120596
_cell_angle_alpha 90.000000
_cell_angle_beta 90.000000
_cell_angle_gamma 90.000000
_cell_volume 4131.016784
_symmetry_space_group_name_H-M "C M C M"
_symmetry_group_IT_number 63
_symmetry_cell_setting 'orthorhombic'
loop_
_space_group_symop_operation_xyz
x,y,z
-x,-y,1/2+z
x,-y,-z
-x,y,1/2-z
-x,-y,-z
x,y,1/2-z
-x,y,z
x,-y,1/2+z
1/2+x,1/2+y,z
1/2-x,1/2-y,1/2+z
1/2+x,1/2-y,-z
1/2-x,1/2+y,1/2-z
1/2-x,1/2-y,-z
1/2+x,1/2+y,1/2-z
1/2-x,1/2+y,z
1/2+x,1/2-y,1/2+z
loop_
_atom_site_type_symbol
_atom_site_label
_atom_site_fract_x
_atom_site_fract_y
_atom_site_fract_z
Si Si1 0.000000 0.652542 0.392491
Si Si2 0.623787 0.826962 0.250000
Si Si3 0.214658 0.300838 0.504053
Si Si4 0.731995 0.951756 0.507038
Si Si5 0.627945 0.372526 0.893239
Si Si6 0.376748 0.931975 0.250000
Si Si7 0.500000 0.050291 0.439667
O O1 0.106380 0.681785 0.425143
O O2 0.000000 0.641376 0.250000
O O3 0.000000 0.605182 0.465525
O O4 0.500000 0.808832 0.250000
O O5 0.687214 0.813059 0.367765
O O6 0.615956 0.879496 0.250000
O O7 0.250000 0.250000 0.500000
O O8 0.313248 0.329089 0.557718
O O9 0.813578 0.913843 0.544213
O O10 0.680981 0.944164 0.374456
O O11 0.627452 0.951303 0.597835
O O12 0.783573 0.000000 0.500000
O O13 0.643665 0.375572 0.750000
O O14 0.500000 0.371998 0.918649
O O15 0.500000 0.950785 0.250000
O O16 0.500000 0.000000 0.500000
#
# Coordination Sequence:
#
# PCOD9473596 Si02
#       7
#     8   8  16  16  16   8   8
#     4  12  24  45  73 106 142 180 235 296 348 414
#     4  11  22  44  72  97 136 178 221 279 346 414
#     4  12  27  45  69 103 135 178 229 284 348 406
#     4  11  23  40  65 101 135 177 220 272 336 406
#     4  11  26  48  69  92 130 179 230 281 333 401
#     4  11  20  38  64  97 138 172 213 269 342 414
#     4  10  20  39  64 105 140 170 218 271 352 412
#
# _framework density 19.365691000000002
#
# number of rings (size 3 to 8) (size 9 to 14) (size 15 to 20)
#    0.000    0.800    6.000    0.600    5.600    0.400 
#    5.400    2.000    0.000    0.000    0.000    0.000 
#    0.000    0.000    0.000    0.000    0.000    0.000 
#
# Total GULP energy -222863.919777 kJ/mol
# GULP energy per Si atom -5571.597994 kJ/mol
# Density = 1.932161 g / cm^3
# Si number density = 19.365691 Si / 1000 Ang^3
#
#
#
# Elastic Constant Matrix: (Units=GPa)
#
#
# Indices 1 2 3 4 5 6 
#
# 1 140.5737 84.0245 67.9662 0.0000 0.0000 0.0000
# 2 84.0245 193.6238 40.2779 0.0000 0.0000 0.0000
# 3 67.9662 40.2779 119.8107 0.0000 0.0000 0.0000
# 4 0.0000 0.0000 0.0000 18.7433 0.0000 0.0000
# 5 0.0000 0.0000 0.0000 0.0000 29.7155 0.0000
# 6 0.0000 0.0000 0.0000 0.0000 0.0000 -1.0777
#
#
#
# Elastic Compliance Matrix: (Units=1/GPa)
#
#
# Indices 1 2 3 4 5 6 
#
# 1 0.012310 -0.004182 -0.005577 0.000000 0.000000 0.000000
# 2 -0.004182 0.006974 0.000028 0.000000 0.000000 0.000000
# 3 -0.005577 0.000028 0.011501 0.000000 0.000000 0.000000
# 4 0.000000 0.000000 0.000000 0.053352 0.000000 0.000000
# 5 0.000000 0.000000 0.000000 0.000000 0.033652 0.000000
# 6 0.000000 0.000000 0.000000 0.000000 0.000000 -0.927913
#
#
# Mechanical properties :
#
#
# Convention : Reuss Voigt Hill
#
# Bulk Modulus (GPa) = 88.32339 93.17170 90.74754
# Shear Modulus (GPa) = -6.35414 26.92555 10.28570
#
# Velocity S-wave (km/s) = -1.81336 3.73282 2.30713
# Velocity P-wave (km/s) = 6.42828 8.17280 7.35247
#
# Compressibility (1/GPa) = 0.01132203
#
# Stress axis : x y z
#
# Youngs Moduli (GPa) = 81.23601 143.39882 86.94875
#
# Poissons Ratio (x) = 0.59966 0.48494
# Poissons Ratio (y) = 0.33971 -0.00242
# Poissons Ratio (z) = 0.45308 -0.00399
#
# Static dielectric constant tensor:
#      x y z
#    x 1.628800 0.000000 0.000000 
#    y 0.000000 1.685110 0.000000 
#    z 0.000000 0.000000 1.737600 
# 
# From -- ./inp_files/17923.got.cif
#   From: 2010.05.17/outbox.cif.g08.bks.cpg/sg63_9_cif.got.tgz:17923.got - 2010.06.03 15:47:04.
