data_PCOD9473942
_publ_section_title
;
Structure prediction by ZEFSAII (Michael W. Deem and Ramdas Pophale) SiO2 
 PCOD9473942
Probable space group: C M C M
;
_chemical_formula_sum "Si O2"
_cell_formula_units_Z 96
_cell_length_a 8.708545
_cell_length_b 27.678586
_cell_length_c 19.266031
_cell_angle_alpha 90.000000
_cell_angle_beta 90.000000
_cell_angle_gamma 90.000000
_cell_volume 4643.888191
_symmetry_space_group_name_H-M "C M C M"
_symmetry_group_IT_number 63
_symmetry_cell_setting 'orthorhombic'
loop_
_space_group_symop_operation_xyz
x,y,z
-x,-y,1/2+z
x,-y,-z
-x,y,1/2-z
-x,-y,-z
x,y,1/2-z
-x,y,z
x,-y,1/2+z
1/2+x,1/2+y,z
1/2-x,1/2-y,1/2+z
1/2+x,1/2-y,-z
1/2-x,1/2+y,1/2-z
1/2-x,1/2-y,-z
1/2+x,1/2+y,1/2-z
1/2-x,1/2+y,z
1/2+x,1/2-y,1/2+z
loop_
_atom_site_type_symbol
_atom_site_label
_atom_site_fract_x
_atom_site_fract_y
_atom_site_fract_z
Si Si1 0.677643 0.153464 0.833128
Si Si2 0.814739 0.041694 0.170907
Si Si3 0.681007 0.296233 0.538450
Si Si4 0.816293 0.447616 0.096266
Si Si5 0.819957 0.744855 0.331411
Si Si6 0.814340 0.096431 0.035817
O O1 0.682643 0.147540 0.750000
O O2 0.500000 0.164046 0.852564
O O3 0.724865 0.103246 0.867134
O O4 0.780600 0.199618 0.850560
O O5 0.760456 0.049214 0.250000
O O6 0.770448 0.082075 0.114241
O O7 0.000000 0.040173 0.172351
O O8 0.754905 0.991437 0.139246
O O9 0.500000 0.295608 0.527287
O O10 0.750000 0.250000 0.500000
O O11 0.720491 0.288748 0.619251
O O12 0.739858 0.349316 0.517616
O O13 0.000000 0.452372 0.095910
O O14 0.754071 0.441609 0.018383
O O15 0.784463 0.738897 0.250000
O O16 0.000000 0.736029 0.342510
O O17 0.000000 0.095220 0.030975
#
# Coordination Sequence:
#
# PCOD9473942 Si02
#       6
#    16  16  16  16  16  16
#     4   9  18  33  53  79 113 152 193 237 285 339
#     4  10  22  41  63  85 112 149 192 235 279 332
#     4  11  23  39  61  87 116 152 195 243 292 344
#     4  11  22  36  58  88 119 150 186 232 288 345
#     4  10  21  36  55  82 116 152 193 241 291 346
#     4  10  23  41  60  84 114 150 193 238 283 338
#
# _framework density 20.672332000000001
#
# number of rings (size 3 to 8) (size 9 to 14) (size 15 to 20)
#    0.000    1.833    0.000    3.500    0.000   10.667 
#    0.000    3.333    0.000    0.000    0.000    0.000 
#    0.000    0.000    0.000    0.000    0.000    0.000 
#
# Total GULP energy -268262.150242 kJ/mol
# GULP energy per Si atom -5588.794797 kJ/mol
# Density = 2.062528 g / cm^3
# Si number density = 20.672332 Si / 1000 Ang^3
#
#
#
# Elastic Constant Matrix: (Units=GPa)
#
#
# Indices 1 2 3 4 5 6 
#
# 1 7.8619 8.5145 12.0246 0.0000 0.0000 0.0000
# 2 8.5145 70.0537 24.7640 0.0000 0.0000 0.0000
# 3 12.0246 24.7640 90.4336 0.0000 0.0000 0.0000
# 4 0.0000 0.0000 0.0000 36.1889 0.0000 0.0000
# 5 0.0000 0.0000 0.0000 0.0000 27.4982 0.0000
# 6 0.0000 0.0000 0.0000 0.0000 0.0000 25.4535
#
#
#
# Elastic Compliance Matrix: (Units=1/GPa)
#
#
# Indices 1 2 3 4 5 6 
#
# 1 0.171465 -0.014151 -0.018924 0.000000 0.000000 0.000000
# 2 -0.014151 0.016972 -0.002766 0.000000 0.000000 0.000000
# 3 -0.018924 -0.002766 0.014332 0.000000 0.000000 0.000000
# 4 0.000000 0.000000 0.000000 0.027633 0.000000 0.000000
# 5 0.000000 0.000000 0.000000 0.000000 0.036366 0.000000
# 6 0.000000 0.000000 0.000000 0.000000 0.000000 0.039287
#
#
# Mechanical properties :
#
#
# Convention : Reuss Voigt Hill
#
# Bulk Modulus (GPa) = 7.62849 28.77281 18.20065
# Shear Modulus (GPa) = 11.86428 26.03119 18.94773
#
# Velocity S-wave (km/s) = 2.39826 3.55241 3.03078
# Velocity P-wave (km/s) = 3.37151 5.54751 4.59031
#
# Compressibility (1/GPa) = 0.13108762
#
# Stress axis : x y z
#
# Youngs Moduli (GPa) = 5.83208 58.91891 69.77598
#
# Poissons Ratio (x) = 0.83374 1.32045
# Poissons Ratio (y) = 0.08253 0.19301
# Poissons Ratio (z) = 0.11037 0.16298
#
# Static dielectric constant tensor:
#      x y z
#    x 1.695760 0.000000 0.000000 
#    y 0.000000 1.729690 0.000000 
#    z 0.000000 0.000000 1.766650 
# 
# From -- ./inp_files/51405.got.cif
#   From: 2010.05.17/outbox.cif.g08.bks.cpg/sg63_26_cif.got.tgz:51405.got - 2010.06.03 15:47:04.
