data_PCOD9473914
_publ_section_title
;
Structure prediction by ZEFSAII (Michael W. Deem and Ramdas Pophale) SiO2 
 PCOD9473914
Probable space group: C M C M
;
_chemical_formula_sum "Si O2"
_cell_formula_units_Z 80
_cell_length_a 17.974513
_cell_length_b 23.759597
_cell_length_c 9.777728
_cell_angle_alpha 90.000000
_cell_angle_beta 90.000000
_cell_angle_gamma 90.000000
_cell_volume 4175.746774
_symmetry_space_group_name_H-M "C M C M"
_symmetry_group_IT_number 63
_symmetry_cell_setting 'orthorhombic'
loop_
_space_group_symop_operation_xyz
x,y,z
-x,-y,1/2+z
x,-y,-z
-x,y,1/2-z
-x,-y,-z
x,y,1/2-z
-x,y,z
x,-y,1/2+z
1/2+x,1/2+y,z
1/2-x,1/2-y,1/2+z
1/2+x,1/2-y,-z
1/2-x,1/2+y,1/2-z
1/2-x,1/2-y,-z
1/2+x,1/2+y,1/2-z
1/2-x,1/2+y,z
1/2+x,1/2-y,1/2+z
loop_
_atom_site_type_symbol
_atom_site_label
_atom_site_fract_x
_atom_site_fract_y
_atom_site_fract_z
Si Si1 0.411272 0.347772 0.911169
Si Si2 0.644566 0.127627 0.098225
Si Si3 0.086943 0.453747 0.100896
Si Si4 0.823646 0.757735 0.091313
Si Si5 0.204715 0.943903 0.590219
O O1 0.395772 0.333694 0.750000
O O2 0.500000 0.352146 0.927676
O O3 0.368487 0.406372 0.938749
O O4 0.376817 0.301022 0.011878
O O5 0.619845 0.107953 0.250000
O O6 0.644833 0.194482 0.097798
O O7 0.725920 0.099758 0.073633
O O8 0.594789 0.104432 0.976993
O O9 0.122062 0.454019 0.250000
O O10 0.000000 0.466819 0.115205
O O11 0.120540 0.500000 0.000000
O O12 0.809150 0.775133 0.250000
O O13 0.750000 0.750000 0.000000
O O14 0.204178 0.960005 0.750000
O O15 0.208960 0.000000 0.500000
#
# Coordination Sequence:
#
# PCOD9473914 Si02
#       5
#    16  16  16  16  16
#     4  10  22  42  64  87 122 163 200 246 303 358
#     4  10  21  37  58  84 116 151 193 241 291 350
#     4  10  21  36  54  79 113 152 194 238 287 344
#     4  11  22  39  63  89 119 154 195 243 294 351
#     4  10  21  38  58  86 119 155 200 245 295 352
#
# _framework density 19.158249999999999
#
# number of rings (size 3 to 8) (size 9 to 14) (size 15 to 20)
#    0.000    1.800    2.000    1.800    0.000    7.600 
#    0.000    4.000    0.000    0.000    0.000    0.000 
#    0.000    0.000    0.000    0.000    0.000    0.000 
#
# Total GULP energy -223142.140200 kJ/mol
# GULP energy per Si atom -5578.553505 kJ/mol
# Density = 1.911464 g / cm^3
# Si number density = 19.158250 Si / 1000 Ang^3
#
#
#
# Elastic Constant Matrix: (Units=GPa)
#
#
# Indices 1 2 3 4 5 6 
#
# 1 73.0445 29.1831 44.6602 0.0000 0.0000 0.0000
# 2 29.1831 107.6643 68.0970 0.0000 0.0000 0.0000
# 3 44.6602 68.0970 149.6414 0.0000 0.0000 0.0000
# 4 0.0000 0.0000 0.0000 36.0685 0.0000 0.0000
# 5 0.0000 0.0000 0.0000 0.0000 22.6550 0.0000
# 6 0.0000 0.0000 0.0000 0.0000 0.0000 29.7583
#
#
#
# Elastic Compliance Matrix: (Units=1/GPa)
#
#
# Indices 1 2 3 4 5 6 
#
# 1 0.017038 -0.001969 -0.004189 0.000000 0.000000 0.000000
# 2 -0.001969 0.013269 -0.005451 0.000000 0.000000 0.000000
# 3 -0.004189 -0.005451 0.010413 0.000000 0.000000 0.000000
# 4 0.000000 0.000000 0.000000 0.027725 0.000000 0.000000
# 5 0.000000 0.000000 0.000000 0.000000 0.044140 0.000000
# 6 0.000000 0.000000 0.000000 0.000000 0.000000 0.033604
#
#
# Mechanical properties :
#
#
# Convention : Reuss Voigt Hill
#
# Bulk Modulus (GPa) = 57.13150 68.24785 62.68967
# Shear Modulus (GPa) = 28.53190 30.25701 29.39445
#
# Velocity S-wave (km/s) = 3.86330 3.97838 3.92126
# Velocity P-wave (km/s) = 7.05590 7.53683 7.30033
#
# Compressibility (1/GPa) = 0.01750348
#
# Stress axis : x y z
#
# Youngs Moduli (GPa) = 58.69204 75.36105 96.02999
#
# Poissons Ratio (x) = 0.14836 0.40228
# Poissons Ratio (y) = 0.11555 0.52345
# Poissons Ratio (z) = 0.24587 0.41079
#
# Static dielectric constant tensor:
#      x y z
#    x 1.697690 0.000000 0.000000 
#    y 0.000000 1.685180 0.000000 
#    z 0.000000 0.000000 1.703060 
# 
# From -- ./inp_files/6438.got.cif
#   From: 2010.05.17/outbox.cif.g08.bks.cpg/sg63_4_cif.got.tgz:6438.got - 2010.06.03 15:47:04.
