data_PCOD9473629
_publ_section_title
;
Structure prediction by ZEFSAII (Michael W. Deem and Ramdas Pophale) SiO2 
 PCOD9473629
Probable space group: C M C M
;
_chemical_formula_sum "Si O2"
_cell_formula_units_Z 116
_cell_length_a 12.373886
_cell_length_b 27.326994
_cell_length_c 17.931431
_cell_angle_alpha 90.000000
_cell_angle_beta 90.000000
_cell_angle_gamma 90.000000
_cell_volume 6063.353955
_symmetry_space_group_name_H-M "C M C M"
_symmetry_group_IT_number 63
_symmetry_cell_setting 'orthorhombic'
loop_
_space_group_symop_operation_xyz
x,y,z
-x,-y,1/2+z
x,-y,-z
-x,y,1/2-z
-x,-y,-z
x,y,1/2-z
-x,y,z
x,-y,1/2+z
1/2+x,1/2+y,z
1/2-x,1/2-y,1/2+z
1/2+x,1/2-y,-z
1/2-x,1/2+y,1/2-z
1/2-x,1/2-y,-z
1/2+x,1/2+y,1/2-z
1/2-x,1/2+y,z
1/2+x,1/2-y,1/2+z
loop_
_atom_site_type_symbol
_atom_site_label
_atom_site_fract_x
_atom_site_fract_y
_atom_site_fract_z
Si Si1 0.622493 0.619540 0.042135
Si Si2 0.698685 0.601919 0.626701
Si Si3 0.118462 0.681341 0.663581
Si Si4 0.121232 0.476171 0.339189
Si Si5 0.000000 0.901061 0.250000
Si Si6 0.792385 0.584163 0.163078
Si Si7 0.189511 0.770777 0.928350
Si Si8 0.885777 0.310643 0.662806
O O1 0.500000 0.603539 0.053092
O O2 0.698334 0.593659 0.103401
O O3 0.631008 0.678257 0.054017
O O4 0.658775 0.608541 0.957883
O O5 0.780147 0.646579 0.646637
O O6 0.778752 0.555222 0.630709
O O7 0.597655 0.599183 0.684138
O O8 0.126053 0.696672 0.750000
O O9 0.122284 0.728021 0.609972
O O10 0.000000 0.656679 0.654495
O O11 0.119916 0.467159 0.250000
O O12 0.147006 0.533403 0.350522
O O13 0.000000 0.464930 0.367834
O O14 0.754059 0.583965 0.250000
O O15 0.869807 0.631164 0.155224
O O16 0.284772 0.784491 0.871841
O O17 0.250000 0.750000 0.000000
O O18 0.888004 0.299507 0.750000
O O19 0.000000 0.295449 0.628225
#
# Coordination Sequence:
#
# PCOD9473629 Si02
#       8
#    16  16  16  16   4  16  16  16
#     4  11  24  42  61  88 128 167 210 264 313 381
#     4  12  23  42  64  95 126 169 212 257 319 371
#     4  11  23  41  64  91 122 160 210 263 314 378
#     4  10  20  39  68  98 126 163 212 265 315 377
#     4  12  24  44  66  90 134 176 212 258 304 380
#     4   9  20  40  63  91 124 161 208 254 318 377
#     4  11  22  39  58  85 120 158 206 254 313 374
#     4   9  18  35  58  86 117 152 194 248 302 368
#
# _framework density 19.131325
#
# number of rings (size 3 to 8) (size 9 to 14) (size 15 to 20)
#    0.000    1.517    3.448    1.655    0.000    5.241 
#    2.483    3.448    0.000    0.000    0.000    0.000 
#    0.000    0.000    0.000    0.000    0.000    0.000 
#
# Total GULP energy -323096.201080 kJ/mol
# GULP energy per Si atom -5570.624157 kJ/mol
# Density = 1.908778 g / cm^3
# Si number density = 19.131325 Si / 1000 Ang^3
#
#
#
# Elastic Constant Matrix: (Units=GPa)
#
#
# Indices 1 2 3 4 5 6 
#
# 1 154.5169 22.7281 57.4428 0.0000 0.0000 0.0000
# 2 22.7281 51.9463 15.0766 0.0000 0.0000 0.0000
# 3 57.4428 15.0766 91.3176 0.0000 0.0000 0.0000
# 4 0.0000 0.0000 0.0000 18.3944 0.0000 0.0000
# 5 0.0000 0.0000 0.0000 0.0000 17.1558 0.0000
# 6 0.0000 0.0000 0.0000 0.0000 0.0000 -30.9547
#
#
#
# Elastic Compliance Matrix: (Units=1/GPa)
#
#
# Indices 1 2 3 4 5 6 
#
# 1 0.008708 -0.002332 -0.005093 0.000000 0.000000 0.000000
# 2 -0.002332 0.020844 -0.001974 0.000000 0.000000 0.000000
# 3 -0.005093 -0.001974 0.014480 0.000000 0.000000 0.000000
# 4 0.000000 0.000000 0.000000 0.054364 0.000000 0.000000
# 5 0.000000 0.000000 0.000000 0.000000 0.058289 0.000000
# 6 0.000000 0.000000 0.000000 0.000000 0.000000 -0.032305
#
#
# Mechanical properties :
#
#
# Convention : Reuss Voigt Hill
#
# Bulk Modulus (GPa) = 39.62891 54.25284 46.94087
# Shear Modulus (GPa) = 32.98363 14.42134 23.70249
#
# Velocity S-wave (km/s) = 4.15669 2.74853 3.52367
# Velocity P-wave (km/s) = 6.61790 6.20421 6.41439
#
# Compressibility (1/GPa) = 0.02523410
#
# Stress axis : x y z
#
# Youngs Moduli (GPa) = 114.83616 47.97542 69.05924
#
# Poissons Ratio (x) = 0.11188 0.35170
# Poissons Ratio (y) = 0.26779 0.13635
# Poissons Ratio (z) = 0.58483 0.09472
#
# Static dielectric constant tensor:
#      x y z
#    x 1.679330 0.000000 0.000000 
#    y 0.000000 1.674040 0.000000 
#    z 0.000000 0.000000 1.646650 
# 
# From -- ./inp_files/42875.got.cif
#   From: 2010.05.17/outbox.cif.g08.bks.cpg/sg63_22_cif.got.tgz:42875.got - 2010.06.03 15:47:04.
