data_PCOD9473802
_publ_section_title
;
Structure prediction by ZEFSAII (Michael W. Deem and Ramdas Pophale) SiO2 
 PCOD9473802
Probable space group: C M C M
;
_chemical_formula_sum "Si O2"
_cell_formula_units_Z 64
_cell_length_a 12.736130
_cell_length_b 19.466820
_cell_length_c 14.031931
_cell_angle_alpha 90.000000
_cell_angle_beta 90.000000
_cell_angle_gamma 90.000000
_cell_volume 3478.964018
_symmetry_space_group_name_H-M "C M C M"
_symmetry_group_IT_number 63
_symmetry_cell_setting 'orthorhombic'
loop_
_space_group_symop_operation_xyz
x,y,z
-x,-y,1/2+z
x,-y,-z
-x,y,1/2-z
-x,-y,-z
x,y,1/2-z
-x,y,z
x,-y,1/2+z
1/2+x,1/2+y,z
1/2-x,1/2-y,1/2+z
1/2+x,1/2-y,-z
1/2-x,1/2+y,1/2-z
1/2-x,1/2-y,-z
1/2+x,1/2+y,1/2-z
1/2-x,1/2+y,z
1/2+x,1/2-y,1/2+z
loop_
_atom_site_type_symbol
_atom_site_label
_atom_site_fract_x
_atom_site_fract_y
_atom_site_fract_z
Si Si1 0.229648 0.294841 0.864209
Si Si2 0.293106 0.069411 0.474750
Si Si3 0.500000 0.778322 0.643433
Si Si4 0.123248 0.665649 0.861943
Si Si5 0.000000 0.443689 0.856887
O O1 0.218527 0.305637 0.750000
O O2 0.253579 0.367963 0.912525
O O3 0.315795 0.236753 0.879665
O O4 0.115411 0.266064 0.899500
O O5 0.330679 0.107554 0.570134
O O6 0.394203 0.042315 0.414652
O O7 0.230547 0.000000 0.500000
O O8 0.500000 0.747226 0.750000
O O9 0.500000 0.860992 0.650882
O O10 0.135821 0.649008 0.750000
O O11 0.000000 0.672890 0.882626
O O12 0.000000 0.473284 0.750000
#
# Coordination Sequence:
#
# PCOD9473802 Si02
#       5
#    16  16   8  16   8
#     4   9  18  34  54  76 102 135 177 218 257 307
#     4  11  20  32  49  76 107 137 170 215 262 314
#     4   7  12  25  47  72  93 118 165 212 244 285
#     4  10  21  35  51  76 108 139 171 212 262 315
#     4   9  17  29  46  70 101 136 167 200 252 313
#
# _framework density 18.396280999999998
#
# number of rings (size 3 to 8) (size 9 to 14) (size 15 to 20)
#    0.000    2.500    1.250    3.375    0.000    2.000 
#    0.000    0.000    0.000    0.750    0.000    0.000 
#    0.000    0.000    0.000    0.000    0.000    0.000 
#
# Total GULP energy -178311.723451 kJ/mol
# GULP energy per Si atom -5572.241358 kJ/mol
# Density = 1.835441 g / cm^3
# Si number density = 18.396281 Si / 1000 Ang^3
#
#
#
# Elastic Constant Matrix: (Units=GPa)
#
#
# Indices 1 2 3 4 5 6 
#
# 1 27.6966 33.7054 26.6438 0.0000 0.0000 0.0000
# 2 33.7054 126.6540 58.8568 0.0000 0.0000 0.0000
# 3 26.6438 58.8568 95.5384 0.0000 0.0000 0.0000
# 4 0.0000 0.0000 0.0000 13.4861 0.0000 0.0000
# 5 0.0000 0.0000 0.0000 0.0000 15.7531 0.0000
# 6 0.0000 0.0000 0.0000 0.0000 0.0000 6.7922
#
#
#
# Elastic Compliance Matrix: (Units=1/GPa)
#
#
# Indices 1 2 3 4 5 6 
#
# 1 0.058967 -0.011280 -0.009496 0.000000 0.000000 0.000000
# 2 -0.011280 0.013220 -0.004999 0.000000 0.000000 0.000000
# 3 -0.009496 -0.004999 0.016195 0.000000 0.000000 0.000000
# 4 0.000000 0.000000 0.000000 0.074151 0.000000 0.000000
# 5 0.000000 0.000000 0.000000 0.000000 0.063479 0.000000
# 6 0.000000 0.000000 0.000000 0.000000 0.000000 0.147227
#
#
# Mechanical properties :
#
#
# Convention : Reuss Voigt Hill
#
# Bulk Modulus (GPa) = 27.14917 54.25569 40.70243
# Shear Modulus (GPa) = 11.43993 15.91849 13.67921
#
# Velocity S-wave (km/s) = 2.49642 2.94481 2.72984
# Velocity P-wave (km/s) = 4.80619 6.41243 5.66651
#
# Compressibility (1/GPa) = 0.03683353
#
# Stress axis : x y z
#
# Youngs Moduli (GPa) = 16.95858 75.64189 61.74866
#
# Poissons Ratio (x) = 0.85321 0.58636
# Poissons Ratio (y) = 0.19129 0.30866
# Poissons Ratio (z) = 0.16104 0.37811
#
# Static dielectric constant tensor:
#      x y z
#    x 1.665830 0.000000 0.000000 
#    y 0.000000 1.620530 0.000000 
#    z 0.000000 0.000000 1.712930 
# 
# From -- ./inp_files/31584.got.cif
#   From: 2010.05.17/outbox.cif.g08.bks.cpg/sg63_16_cif.got.tgz:31584.got - 2010.06.03 15:47:04.
