data_PCOD9473687
_publ_section_title
;
Structure prediction by ZEFSAII (Michael W. Deem and Ramdas Pophale) SiO2 
 PCOD9473687
Probable space group: C M C M
;
_chemical_formula_sum "Si O2"
_cell_formula_units_Z 112
_cell_length_a 15.219782
_cell_length_b 23.816112
_cell_length_c 15.019282
_cell_angle_alpha 90.000000
_cell_angle_beta 90.000000
_cell_angle_gamma 90.000000
_cell_volume 5444.129754
_symmetry_space_group_name_H-M "C M C M"
_symmetry_group_IT_number 63
_symmetry_cell_setting 'orthorhombic'
loop_
_space_group_symop_operation_xyz
x,y,z
-x,-y,1/2+z
x,-y,-z
-x,y,1/2-z
-x,-y,-z
x,y,1/2-z
-x,y,z
x,-y,1/2+z
1/2+x,1/2+y,z
1/2-x,1/2-y,1/2+z
1/2+x,1/2-y,-z
1/2-x,1/2+y,1/2-z
1/2-x,1/2-y,-z
1/2+x,1/2+y,1/2-z
1/2-x,1/2+y,z
1/2+x,1/2-y,1/2+z
loop_
_atom_site_type_symbol
_atom_site_label
_atom_site_fract_x
_atom_site_fract_y
_atom_site_fract_z
Si Si1 0.897245 0.749430 0.344821
Si Si2 0.598277 0.936057 0.472126
Si Si3 0.398328 0.496132 0.106977
Si Si4 0.105356 0.125621 0.351809
Si Si5 0.892541 0.378455 0.651877
Si Si6 0.250288 0.904082 0.352864
Si Si7 0.696828 0.308509 0.010721
O O1 0.863603 0.772672 0.250000
O O2 0.862448 0.686144 0.354867
O O3 0.883569 0.788073 0.428512
O O4 0.000000 0.741308 0.336586
O O5 0.500000 0.912850 0.454931
O O6 0.637086 0.907604 0.561507
O O7 0.660223 0.932434 0.387188
O O8 0.590247 0.000000 0.500000
O O9 0.500000 0.483736 0.133151
O O10 0.375504 0.558801 0.140481
O O11 0.330498 0.447962 0.135979
O O12 0.395402 0.500000 0.000000
O O13 0.122003 0.143397 0.250000
O O14 0.161604 0.161146 0.422417
O O15 0.000000 0.131525 0.369772
O O16 0.864722 0.399921 0.750000
O O17 0.000000 0.381772 0.651152
O O18 0.255543 0.887445 0.250000
O O19 0.241676 0.852708 0.422255
O O20 0.750000 0.250000 0.000000
#
# Coordination Sequence:
#
# PCOD9473687 Si02
#       7
#    16  16  16  16  16  16  16
#     4   9  18  35  59  84 112 149 200 257 307 360
#     4  10  22  40  62  87 121 164 212 263 316 378
#     4  10  20  41  72 103 136 170 210 265 337 411
#     4  10  22  42  69  99 130 170 219 269 331 407
#     4   8  15  32  59  87 112 147 202 266 324 373
#     4  12  26  42  63  95 134 171 215 269 329 392
#     4  12  25  40  60  88 129 174 215 265 315 378
#
# _framework density 20.572619
#
# number of rings (size 3 to 8) (size 9 to 14) (size 15 to 20)
#    0.000    1.857    1.429    3.429    0.000    3.429 
#    0.000    2.857    0.000    0.000    0.000    0.000 
#    0.000    0.000    0.000    0.000    0.000    0.000 
#
# Total GULP energy -312339.982173 kJ/mol
# GULP energy per Si atom -5577.499682 kJ/mol
# Density = 2.052579 g / cm^3
# Si number density = 20.572619 Si / 1000 Ang^3
#
#
#
# Elastic Constant Matrix: (Units=GPa)
#
#
# Indices 1 2 3 4 5 6 
#
# 1 73.4020 40.0591 48.4975 0.0000 0.0000 0.0000
# 2 40.0591 87.6459 57.9263 0.0000 0.0000 0.0000
# 3 48.4975 57.9263 155.7489 0.0000 0.0000 0.0000
# 4 0.0000 0.0000 0.0000 24.3373 0.0000 0.0000
# 5 0.0000 0.0000 0.0000 0.0000 13.4948 0.0000
# 6 0.0000 0.0000 0.0000 0.0000 0.0000 46.8998
#
#
#
# Elastic Compliance Matrix: (Units=1/GPa)
#
#
# Indices 1 2 3 4 5 6 
#
# 1 0.019622 -0.006537 -0.003679 0.000000 0.000000 0.000000
# 2 -0.006537 0.017306 -0.004401 0.000000 0.000000 0.000000
# 3 -0.003679 -0.004401 0.009203 0.000000 0.000000 0.000000
# 4 0.000000 0.000000 0.000000 0.041089 0.000000 0.000000
# 5 0.000000 0.000000 0.000000 0.000000 0.074103 0.000000
# 6 0.000000 0.000000 0.000000 0.000000 0.000000 0.021322
#
#
# Mechanical properties :
#
#
# Convention : Reuss Voigt Hill
#
# Bulk Modulus (GPa) = 59.18065 67.75140 63.46603
# Shear Modulus (GPa) = 22.98747 28.30063 25.64405
#
# Velocity S-wave (km/s) = 3.34635 3.71299 3.53443
# Velocity P-wave (km/s) = 6.61513 7.16841 6.89732
#
# Compressibility (1/GPa) = 0.01689741
#
# Stress axis : x y z
#
# Youngs Moduli (GPa) = 50.96418 57.78358 108.66193
#
# Poissons Ratio (x) = 0.37773 0.39972
# Poissons Ratio (y) = 0.33315 0.47822
# Poissons Ratio (z) = 0.18748 0.25430
#
# Static dielectric constant tensor:
#      x y z
#    x 1.793020 0.000000 0.000000 
#    y 0.000000 1.831590 0.000000 
#    z 0.000000 0.000000 1.752400 
# 
# From -- ./inp_files/32316.got.cif
#   From: 2010.05.17/outbox.cif.g08.bks.cpg/sg63_17_cif.got.tgz:32316.got - 2010.06.03 15:47:04.
