data_PCOD9473786
_publ_section_title
;
Structure prediction by ZEFSAII (Michael W. Deem and Ramdas Pophale) SiO2 
 PCOD9473786
Probable space group: C M C M
;
_chemical_formula_sum "Si O2"
_cell_formula_units_Z 80
_cell_length_a 7.655483
_cell_length_b 18.951154
_cell_length_c 27.492148
_cell_angle_alpha 90.000000
_cell_angle_beta 90.000000
_cell_angle_gamma 90.000000
_cell_volume 3988.567355
_symmetry_space_group_name_H-M "C M C M"
_symmetry_group_IT_number 63
_symmetry_cell_setting 'orthorhombic'
loop_
_space_group_symop_operation_xyz
x,y,z
-x,-y,1/2+z
x,-y,-z
-x,y,1/2-z
-x,-y,-z
x,y,1/2-z
-x,y,z
x,-y,1/2+z
1/2+x,1/2+y,z
1/2-x,1/2-y,1/2+z
1/2+x,1/2-y,-z
1/2-x,1/2+y,1/2-z
1/2-x,1/2-y,-z
1/2+x,1/2+y,1/2-z
1/2-x,1/2+y,z
1/2+x,1/2-y,1/2+z
loop_
_atom_site_type_symbol
_atom_site_label
_atom_site_fract_x
_atom_site_fract_y
_atom_site_fract_z
Si Si1 0.791334 0.920984 0.995995
Si Si2 0.211753 0.335407 0.407122
Si Si3 0.703119 0.151816 0.697502
Si Si4 0.291305 0.183780 0.197574
Si Si5 0.708505 0.326379 0.591971
O O1 0.761702 0.879383 0.045899
O O2 0.000000 0.926714 0.988523
O O3 0.720747 0.876391 0.950310
O O4 0.719748 0.000000 0.000000
O O5 0.276665 0.367344 0.355528
O O6 0.275162 0.254312 0.411994
O O7 0.000000 0.333437 0.404185
O O8 0.781375 0.130545 0.750000
O O9 0.500000 0.130290 0.698349
O O10 0.710850 0.237506 0.696409
O O11 0.240921 0.151539 0.250000
O O12 0.500000 0.192166 0.197394
O O13 0.241833 0.147733 0.146985
O O14 0.500000 0.321923 0.585834
#
# Coordination Sequence:
#
# PCOD9473786 Si02
#       5
#    16  16  16  16  16
#     4  10  21  35  49  66  91 123 157 194 235 276
#     4   9  17  29  48  73  95 119 154 190 226 271
#     4   8  14  26  44  67  96 125 151 182 223 273
#     4   9  16  25  41  69  99 121 146 185 230 270
#     4   9  18  32  49  69  93 123 157 188 225 276
#
# _framework density 20.057327000000001
#
# number of rings (size 3 to 8) (size 9 to 14) (size 15 to 20)
#    0.000    3.000    0.000    2.400    0.000    5.600 
#    0.000    0.000    0.000    1.200    0.000    5.600 
#    0.000    0.000    0.000    0.000    0.000    0.000 
#
# Total GULP energy -222742.995383 kJ/mol
# GULP energy per Si atom -5568.574885 kJ/mol
# Density = 2.001168 g / cm^3
# Si number density = 20.057327 Si / 1000 Ang^3
#
#
#
# Elastic Constant Matrix: (Units=GPa)
#
#
# Indices 1 2 3 4 5 6 
#
# 1 32.7195 3.0414 -14.8204 0.0000 0.0000 0.0000
# 2 3.0414 62.4007 73.7318 0.0000 0.0000 0.0000
# 3 -14.8204 73.7318 224.2496 0.0000 0.0000 0.0000
# 4 0.0000 0.0000 0.0000 -7.1185 0.0000 0.0000
# 5 0.0000 0.0000 0.0000 0.0000 21.4730 0.0000
# 6 0.0000 0.0000 0.0000 0.0000 0.0000 20.8799
#
#
#
# Elastic Compliance Matrix: (Units=1/GPa)
#
#
# Indices 1 2 3 4 5 6 
#
# 1 0.033224 -0.006891 0.004461 0.000000 0.000000 0.000000
# 2 -0.006891 0.027636 -0.009542 0.000000 0.000000 0.000000
# 3 0.004461 -0.009542 0.007891 0.000000 0.000000 0.000000
# 4 0.000000 0.000000 0.000000 -0.140478 0.000000 0.000000
# 5 0.000000 0.000000 0.000000 0.000000 0.046570 0.000000
# 6 0.000000 0.000000 0.000000 0.000000 0.000000 0.047893
#
#
# Mechanical properties :
#
#
# Convention : Reuss Voigt Hill
#
# Bulk Modulus (GPa) = 22.31708 49.25283 35.78495
# Shear Modulus (GPa) = 81.14862 24.20800 52.67831
#
# Velocity S-wave (km/s) = 6.36759 3.47787 5.13039
# Velocity P-wave (km/s) = 8.07542 6.38254 7.27836
#
# Compressibility (1/GPa) = 0.04480872
#
# Stress axis : x y z
#
# Youngs Moduli (GPa) = 30.09860 36.18474 126.71873
#
# Poissons Ratio (x) = 0.24935 -0.56535
# Poissons Ratio (y) = 0.20741 1.20914
# Poissons Ratio (z) = -0.13428 0.34527
#
# Static dielectric constant tensor:
#      x y z
#    x 1.749940 0.000000 0.000000 
#    y 0.000000 1.663890 0.000000 
#    z 0.000000 0.000000 1.777880 
# 
# From -- ./inp_files/66573.got.cif
#   From: 2010.05.17/outbox.cif.g08.bks.cpg/sg63_34_cif.got.tgz:66573.got - 2010.06.03 15:47:04.
