data_PCOD9473927
_publ_section_title
;
Structure prediction by ZEFSAII (Michael W. Deem and Ramdas Pophale) SiO2 
 PCOD9473927
Probable space group: C M C M
;
_chemical_formula_sum "Si O2"
_cell_formula_units_Z 80
_cell_length_a 18.912660
_cell_length_b 26.436188
_cell_length_c 7.946194
_cell_angle_alpha 90.000000
_cell_angle_beta 90.000000
_cell_angle_gamma 90.000000
_cell_volume 3972.927232
_symmetry_space_group_name_H-M "C M C M"
_symmetry_group_IT_number 63
_symmetry_cell_setting 'orthorhombic'
loop_
_space_group_symop_operation_xyz
x,y,z
-x,-y,1/2+z
x,-y,-z
-x,y,1/2-z
-x,-y,-z
x,y,1/2-z
-x,y,z
x,-y,1/2+z
1/2+x,1/2+y,z
1/2-x,1/2-y,1/2+z
1/2+x,1/2-y,-z
1/2-x,1/2+y,1/2-z
1/2-x,1/2-y,-z
1/2+x,1/2+y,1/2-z
1/2-x,1/2+y,z
1/2+x,1/2-y,1/2+z
loop_
_atom_site_type_symbol
_atom_site_label
_atom_site_fract_x
_atom_site_fract_y
_atom_site_fract_z
Si Si1 0.329433 0.848382 0.453354
Si Si2 0.331005 0.653819 0.951277
Si Si3 0.419237 0.750059 0.546650
Si Si4 0.919034 0.443686 0.047283
Si Si5 0.919199 0.056664 0.450885
O O1 0.326609 0.851390 0.250000
O O2 0.249121 0.844492 0.517330
O O3 0.375138 0.799502 0.498988
O O4 0.368844 0.898970 0.515063
O O5 0.326794 0.660240 0.750000
O O6 0.378955 0.699953 0.016556
O O7 0.368463 0.600542 0.984928
O O8 0.421874 0.747526 0.750000
O O9 0.500000 0.752536 0.484793
O O10 0.920976 0.440842 0.250000
O O11 0.000000 0.437250 0.985634
O O12 0.895094 0.500000 0.000000
O O13 0.920969 0.059607 0.250000
O O14 0.000000 0.063897 0.515112
O O15 0.896699 0.000000 0.500000
#
# Coordination Sequence:
#
# PCOD9473927 Si02
#       5
#    16  16  16  16  16
#     4  10  21  36  55  80 109 141 178 222 272 324
#     4  10  21  37  56  80 112 145 178 222 276 329
#     4  10  21  36  55  79 107 142 182 223 271 326
#     4   9  18  33  52  74 101 134 173 216 260 308
#     4  10  21  37  58  83 110 144 186 228 271 321
#
# _framework density 20.136285999999998
#
# number of rings (size 3 to 8) (size 9 to 14) (size 15 to 20)
#    0.000    2.200    0.000    2.400    0.000    6.400 
#    0.000    4.000    0.000    0.000    0.000    0.000 
#    0.000    0.000    0.000    0.000    0.000    0.000 
#
# Total GULP energy -223428.918476 kJ/mol
# GULP energy per Si atom -5585.722962 kJ/mol
# Density = 2.009045 g / cm^3
# Si number density = 20.136286 Si / 1000 Ang^3
#
#
#
# Elastic Constant Matrix: (Units=GPa)
#
#
# Indices 1 2 3 4 5 6 
#
# 1 186.5291 139.4540 7.6257 0.0000 0.0000 0.0000
# 2 139.4540 195.5721 -4.9540 0.0000 0.0000 0.0000
# 3 7.6257 -4.9540 11.1205 0.0000 0.0000 0.0000
# 4 0.0000 0.0000 0.0000 21.3824 0.0000 0.0000
# 5 0.0000 0.0000 0.0000 0.0000 14.7918 0.0000
# 6 0.0000 0.0000 0.0000 0.0000 0.0000 3.2531
#
#
#
# Elastic Compliance Matrix: (Units=1/GPa)
#
#
# Indices 1 2 3 4 5 6 
#
# 1 0.013198 -0.009751 -0.013394 0.000000 0.000000 0.000000
# 2 -0.009751 0.012375 0.012199 0.000000 0.000000 0.000000
# 3 -0.013394 0.012199 0.104543 0.000000 0.000000 0.000000
# 4 0.000000 0.000000 0.000000 0.046767 0.000000 0.000000
# 5 0.000000 0.000000 0.000000 0.000000 0.067605 0.000000
# 6 0.000000 0.000000 0.000000 0.000000 0.000000 0.307401
#
#
# Mechanical properties :
#
#
# Convention : Reuss Voigt Hill
#
# Bulk Modulus (GPa) = 9.23999 75.27479 42.25739
# Shear Modulus (GPa) = 8.19865 24.62519 16.41192
#
# Velocity S-wave (km/s) = 2.02001 3.50083 2.85799
# Velocity P-wave (km/s) = 3.16848 7.33518 5.64996
#
# Compressibility (1/GPa) = 0.10822525
#
# Stress axis : x y z
#
# Youngs Moduli (GPa) = 75.76660 80.80879 9.56540
#
# Poissons Ratio (x) = 0.78793 0.12812
# Poissons Ratio (y) = 0.73876 -0.11669
# Poissons Ratio (z) = 1.01484 -0.98579
#
# Static dielectric constant tensor:
#      x y z
#    x 1.710540 0.000000 0.000000 
#    y 0.000000 1.670460 0.000000 
#    z 0.000000 0.000000 1.720460 
# 
# From -- ./inp_files/6391.got.cif
#   From: 2010.05.17/outbox.cif.g08.bks.cpg/sg63_4_cif.got.tgz:6391.got - 2010.06.03 15:47:04.
