data_PCOD9473335
_publ_section_title
;
Structure prediction by ZEFSAII (Michael W. Deem and Ramdas Pophale) SiO2 
 PCOD9473335
Probable space group: C M C M
;
_chemical_formula_sum "Si O2"
_cell_formula_units_Z 116
_cell_length_a 7.504873
_cell_length_b 24.232076
_cell_length_c 30.735373
_cell_angle_alpha 90.000000
_cell_angle_beta 90.000000
_cell_angle_gamma 90.000000
_cell_volume 5589.493530
_symmetry_space_group_name_H-M "C M C M"
_symmetry_group_IT_number 63
_symmetry_cell_setting 'orthorhombic'
loop_
_space_group_symop_operation_xyz
x,y,z
-x,-y,1/2+z
x,-y,-z
-x,y,1/2-z
-x,-y,-z
x,y,1/2-z
-x,y,z
x,-y,1/2+z
1/2+x,1/2+y,z
1/2-x,1/2-y,1/2+z
1/2+x,1/2-y,-z
1/2-x,1/2+y,1/2-z
1/2-x,1/2-y,-z
1/2+x,1/2+y,1/2-z
1/2-x,1/2+y,z
1/2+x,1/2-y,1/2+z
loop_
_atom_site_type_symbol
_atom_site_label
_atom_site_fract_x
_atom_site_fract_y
_atom_site_fract_z
Si Si1 0.283334 0.787727 0.700018
Si Si2 0.205089 0.897099 0.421159
Si Si3 0.500000 0.553835 0.250000
Si Si4 0.707117 0.981127 0.907175
Si Si5 0.216120 0.586784 0.177493
Si Si6 0.787749 0.221210 0.046353
Si Si7 0.795355 0.794710 0.128312
Si Si8 0.284710 0.601831 0.019301
O O1 0.222475 0.783973 0.750000
O O2 0.500000 0.785333 0.700486
O O3 0.239769 0.848183 0.681421
O O4 0.215979 0.739554 0.668402
O O5 0.286108 0.852227 0.388438
O O6 0.283321 0.897329 0.469795
O O7 0.000000 0.878675 0.426940
O O8 0.203772 0.959404 0.404588
O O9 0.341706 0.557289 0.212351
O O10 0.500000 0.992580 0.901391
O O11 0.759333 0.938386 0.869605
O O12 0.734251 0.951632 0.953338
O O13 0.000000 0.581166 0.185182
O O14 0.706721 0.254873 0.086206
O O15 0.724922 0.158018 0.042901
O O16 0.000000 0.221309 0.052836
O O17 0.750000 0.250000 0.000000
O O18 0.000000 0.806108 0.141310
O O19 0.500000 0.602553 0.018044
#
# Coordination Sequence:
#
# PCOD9473335 Si02
#       8
#    16  16   4  16  16  16  16  16
#     4   9  17  35  62  87 119 151 185 239 298 353
#     4  10  21  38  57  79 118 163 205 249 291 351
#     4  12  22  36  72  94 118 164 186 240 322 380
#     4  11  24  39  59  85 117 155 200 253 299 354
#     4  10  22  40  61  95 127 150 194 252 306 365
#     4  11  21  35  55  83 116 149 190 239 289 352
#     4  10  20  37  59  83 116 161 198 236 298 354
#     4  10  21  37  56  83 118 157 201 249 297 345
#
# _framework density 20.753221
#
# number of rings (size 3 to 8) (size 9 to 14) (size 15 to 20)
#    0.000    1.793    2.069    2.276    1.931    4.966 
#    1.241    0.000    1.517    0.000    0.000    0.000 
#    0.000    0.000    0.000    0.000    0.000    0.000 
#
# Total GULP energy -323367.794026 kJ/mol
# GULP energy per Si atom -5575.306794 kJ/mol
# Density = 2.070599 g / cm^3
# Si number density = 20.753221 Si / 1000 Ang^3
#
#
#
# Elastic Constant Matrix: (Units=GPa)
#
#
# Indices 1 2 3 4 5 6 
#
# 1 66.8071 2.2790 3.5119 0.0000 0.0000 0.0000
# 2 2.2790 121.0870 74.7647 0.0000 0.0000 0.0000
# 3 3.5119 74.7647 115.1086 0.0000 0.0000 0.0000
# 4 0.0000 0.0000 0.0000 3.8288 0.0000 0.0000
# 5 0.0000 0.0000 0.0000 0.0000 24.8518 0.0000
# 6 0.0000 0.0000 0.0000 0.0000 0.0000 13.3133
#
#
#
# Elastic Compliance Matrix: (Units=1/GPa)
#
#
# Indices 1 2 3 4 5 6 
#
# 1 0.014993 0.000000 -0.000458 0.000000 0.000000 0.000000
# 2 0.000000 0.013788 -0.008956 0.000000 0.000000 0.000000
# 3 -0.000458 -0.008956 0.014518 0.000000 0.000000 0.000000
# 4 0.000000 0.000000 0.000000 0.261182 0.000000 0.000000
# 5 0.000000 0.000000 0.000000 0.000000 0.040239 0.000000
# 6 0.000000 0.000000 0.000000 0.000000 0.000000 0.075113
#
#
# Mechanical properties :
#
#
# Convention : Reuss Voigt Hill
#
# Bulk Modulus (GPa) = 40.86118 51.56821 46.21470
# Shear Modulus (GPa) = 11.19030 23.22857 17.20944
#
# Velocity S-wave (km/s) = 2.32460 3.34919 2.88278
# Velocity P-wave (km/s) = 5.19007 6.31334 5.77906
#
# Compressibility (1/GPa) = 0.02447311
#
# Stress axis : x y z
#
# Youngs Moduli (GPa) = 66.69995 72.52626 68.87911
#
# Poissons Ratio (x) = -0.00003 0.03153
# Poissons Ratio (y) = -0.00003 0.61685
# Poissons Ratio (z) = 0.03053 0.64952
#
# Static dielectric constant tensor:
#      x y z
#    x 1.761910 0.000000 0.000000 
#    y 0.000000 1.747630 0.000000 
#    z 0.000000 0.000000 1.732640 
# 
# From -- ./inp_files/72124.got.cif
#   From: 2010.05.17/outbox.cif.g08.bks.cpg/sg63_37_cif.got.tgz:72124.got - 2010.06.03 15:47:04.
