data_PCOD9473703
_publ_section_title
;
Structure prediction by ZEFSAII (Michael W. Deem and Ramdas Pophale) SiO2 
 PCOD9473703
Probable space group: C M C M
;
_chemical_formula_sum "Si O2"
_cell_formula_units_Z 88
_cell_length_a 13.369145
_cell_length_b 14.602951
_cell_length_c 24.787387
_cell_angle_alpha 90.000000
_cell_angle_beta 90.000000
_cell_angle_gamma 90.000000
_cell_volume 4839.216017
_symmetry_space_group_name_H-M "C M C M"
_symmetry_group_IT_number 63
_symmetry_cell_setting 'orthorhombic'
loop_
_space_group_symop_operation_xyz
x,y,z
-x,-y,1/2+z
x,-y,-z
-x,y,1/2-z
-x,-y,-z
x,y,1/2-z
-x,y,z
x,-y,1/2+z
1/2+x,1/2+y,z
1/2-x,1/2-y,1/2+z
1/2+x,1/2-y,-z
1/2-x,1/2+y,1/2-z
1/2-x,1/2-y,-z
1/2+x,1/2+y,1/2-z
1/2-x,1/2+y,z
1/2+x,1/2-y,1/2+z
loop_
_atom_site_type_symbol
_atom_site_label
_atom_site_fract_x
_atom_site_fract_y
_atom_site_fract_z
Si Si1 0.000000 0.397251 0.978559
Si Si2 0.172212 0.280143 0.104881
Si Si3 0.500000 0.935372 0.812736
Si Si4 0.500000 0.274947 0.961623
Si Si5 0.278076 0.460783 0.061839
Si Si6 0.000000 0.924283 0.452579
Si Si7 0.668841 0.127926 0.110078
Si Si8 0.000000 0.346048 0.314678
O O1 0.903825 0.373245 0.942330
O O2 0.000000 0.500000 0.000000
O O3 0.000000 0.333452 0.030191
O O4 0.210630 0.370428 0.072676
O O5 0.269474 0.220382 0.117966
O O6 0.102870 0.210687 0.069564
O O7 0.098835 0.308228 0.154214
O O8 0.500000 0.918996 0.750000
O O9 0.596619 0.892560 0.840490
O O10 0.500000 0.044500 0.822662
O O11 0.500000 0.327080 0.017458
O O12 0.393369 0.436833 0.075208
O O13 0.240329 0.541497 0.100119
O O14 0.271908 0.500000 0.000000
O O15 0.000000 0.000000 0.500000
O O16 0.000000 0.327008 0.250000
#
# Coordination Sequence:
#
# PCOD9473703 Si02
#       8
#     8  16   8   8  16   8  16   8
#     4  11  22  33  53  82 121 159 198 238 271 327
#     4  11  22  36  59  88 115 152 198 244 292 348
#     4  10  22  43  66  87 110 143 194 252 305 357
#     4  11  21  33  49  79 118 152 195 228 267 328
#     4  11  21  35  54  80 122 162 196 231 279 336
#     4  10  21  32  46  71 113 159 187 222 266 329
#     4  11  22  36  59  88 115 154 197 243 293 343
#     4  10  22  43  66  87 112 145 194 252 309 363
#
# _framework density 18.184764999999999
#
# number of rings (size 3 to 8) (size 9 to 14) (size 15 to 20)
#    0.000    1.273    1.818    6.000    2.545    4.364 
#    0.000    0.455    0.000    0.000    0.000    2.545 
#    0.000    0.000    0.000    0.000    0.000    0.000 
#
# Total GULP energy -245567.731505 kJ/mol
# GULP energy per Si atom -5581.084807 kJ/mol
# Density = 1.814338 g / cm^3
# Si number density = 18.184765 Si / 1000 Ang^3
#
#
#
# Elastic Constant Matrix: (Units=GPa)
#
#
# Indices 1 2 3 4 5 6 
#
# 1 154.3119 56.9718 57.8877 0.0000 0.0000 0.0000
# 2 56.9718 98.0578 37.2927 0.0000 0.0000 0.0000
# 3 57.8877 37.2927 73.9851 0.0000 0.0000 0.0000
# 4 0.0000 0.0000 0.0000 20.8910 0.0000 0.0000
# 5 0.0000 0.0000 0.0000 0.0000 7.4096 0.0000
# 6 0.0000 0.0000 0.0000 0.0000 0.0000 -15.7544
#
#
#
# Elastic Compliance Matrix: (Units=1/GPa)
#
#
# Indices 1 2 3 4 5 6 
#
# 1 0.010073 -0.003532 -0.006101 0.000000 0.000000 0.000000
# 2 -0.003532 0.013855 -0.004220 0.000000 0.000000 0.000000
# 3 -0.006101 -0.004220 0.020417 0.000000 0.000000 0.000000
# 4 0.000000 0.000000 0.000000 0.047868 0.000000 0.000000
# 5 0.000000 0.000000 0.000000 0.000000 0.134960 0.000000
# 6 0.000000 0.000000 0.000000 0.000000 0.000000 -0.063475
#
#
# Mechanical properties :
#
#
# Convention : Reuss Voigt Hill
#
# Bulk Modulus (GPa) = 60.10110 70.07328 65.08719
# Shear Modulus (GPa) = 25.38687 14.12274 19.75480
#
# Velocity S-wave (km/s) = 3.74043 2.78982 3.29954
# Velocity P-wave (km/s) = 7.19558 6.99966 7.09830
#
# Compressibility (1/GPa) = 0.01663863
#
# Stress axis : x y z
#
# Youngs Moduli (GPa) = 99.27328 72.17462 48.97867
#
# Poissons Ratio (x) = 0.25494 0.29882
# Poissons Ratio (y) = 0.35066 0.20670
# Poissons Ratio (z) = 0.60567 0.30459
#
# Static dielectric constant tensor:
#      x y z
#    x 1.906100 0.000000 0.000000 
#    y 0.000000 1.474120 0.000000 
#    z 0.000000 0.000000 1.603820 
# 
# From -- ./inp_files/61339.got.cif
#   From: 2010.05.17/outbox.cif.g08.bks.cpg/sg63_31_cif.got.tgz:61339.got - 2010.06.03 15:47:04.
