data_PCOD9473812
_publ_section_title
;
Structure prediction by ZEFSAII (Michael W. Deem and Ramdas Pophale) SiO2 
 PCOD9473812
Probable space group: C M C M
;
_chemical_formula_sum "Si O2"
_cell_formula_units_Z 112
_cell_length_a 16.164137
_cell_length_b 23.306484
_cell_length_c 14.442207
_cell_angle_alpha 90.000000
_cell_angle_beta 90.000000
_cell_angle_gamma 90.000000
_cell_volume 5440.801095
_symmetry_space_group_name_H-M "C M C M"
_symmetry_group_IT_number 63
_symmetry_cell_setting 'orthorhombic'
loop_
_space_group_symop_operation_xyz
x,y,z
-x,-y,1/2+z
x,-y,-z
-x,y,1/2-z
-x,-y,-z
x,y,1/2-z
-x,y,z
x,-y,1/2+z
1/2+x,1/2+y,z
1/2-x,1/2-y,1/2+z
1/2+x,1/2-y,-z
1/2-x,1/2+y,1/2-z
1/2-x,1/2-y,-z
1/2+x,1/2+y,1/2-z
1/2-x,1/2+y,z
1/2+x,1/2-y,1/2+z
loop_
_atom_site_type_symbol
_atom_site_label
_atom_site_fract_x
_atom_site_fract_y
_atom_site_fract_z
Si Si1 0.409782 0.558128 0.859812
Si Si2 0.589352 0.749604 0.407694
Si Si3 0.092525 0.547626 0.142132
Si Si4 0.766771 0.282988 0.651061
Si Si5 0.345773 0.139960 0.500209
Si Si6 0.729588 0.950346 0.139368
Si Si7 0.092032 0.806322 0.396136
O O1 0.414021 0.547254 0.750000
O O2 0.500000 0.541321 0.899440
O O3 0.322462 0.531841 0.890533
O O4 0.400196 0.626729 0.873905
O O5 0.500000 0.743099 0.361284
O O6 0.673657 0.739969 0.353119
O O7 0.596700 0.812869 0.451831
O O8 0.592198 0.705745 0.494243
O O9 0.098703 0.566059 0.250000
O O10 0.106126 0.598679 0.070186
O O11 0.163199 0.500639 0.125568
O O12 0.000000 0.523116 0.129621
O O13 0.780011 0.312645 0.750000
O O14 0.783063 0.323991 0.564210
O O15 0.833378 0.231602 0.643127
O O16 0.299776 0.102978 0.577885
O O17 0.730873 0.936730 0.250000
O O18 0.000000 0.787663 0.362879
#
# Coordination Sequence:
#
# PCOD9473812 Si02
#       7
#    16  16  16  16  16  16  16
#     4   9  16  28  50  78 105 135 173 220 274 327
#     4  10  21  35  52  76 107 146 188 226 269 328
#     4  10  22  40  61  85 113 146 187 236 290 345
#     4  11  22  35  53  80 116 153 187 226 275 333
#     4  11  21  37  58  82 112 148 190 237 283 331
#     4  10  21  36  56  82 111 144 186 238 291 339
#     4   9  17  31  51  75 104 136 176 230 284 328
#
# _framework density 20.585204000000001
#
# number of rings (size 3 to 8) (size 9 to 14) (size 15 to 20)
#    0.000    2.000    0.000    5.143    0.000    5.143 
#    0.000    0.000    0.000    2.571    0.000    2.000 
#    0.000    0.000    0.000    0.000    0.000    0.000 
#
# Total GULP energy -312535.650892 kJ/mol
# GULP energy per Si atom -5580.993766 kJ/mol
# Density = 2.053835 g / cm^3
# Si number density = 20.585204 Si / 1000 Ang^3
#
#
#
# Elastic Constant Matrix: (Units=GPa)
#
#
# Indices 1 2 3 4 5 6 
#
# 1 199.5623 38.3967 27.0660 0.0000 0.0000 0.0000
# 2 38.3967 39.6197 18.3314 0.0000 0.0000 0.0000
# 3 27.0660 18.3314 69.8239 0.0000 0.0000 0.0000
# 4 0.0000 0.0000 0.0000 -15.2313 0.0000 0.0000
# 5 0.0000 0.0000 0.0000 0.0000 -5.1749 0.0000
# 6 0.0000 0.0000 0.0000 0.0000 0.0000 -62.1471
#
#
#
# Elastic Compliance Matrix: (Units=1/GPa)
#
#
# Indices 1 2 3 4 5 6 
#
# 1 0.006213 -0.005586 -0.000942 0.000000 0.000000 0.000000
# 2 -0.005586 0.033751 -0.006696 0.000000 0.000000 0.000000
# 3 -0.000942 -0.006696 0.016445 0.000000 0.000000 0.000000
# 4 0.000000 0.000000 0.000000 -0.065654 0.000000 0.000000
# 5 0.000000 0.000000 0.000000 0.000000 -0.193239 0.000000
# 6 0.000000 0.000000 0.000000 0.000000 0.000000 -0.016091
#
#
# Mechanical properties :
#
#
# Convention : Reuss Voigt Hill
#
# Bulk Modulus (GPa) = 33.37516 52.95490 43.16503
# Shear Modulus (GPa) = -27.45146 -1.49655 -14.47401
#
# Velocity S-wave (km/s) = -3.65575 -0.85357 -2.65453
# Velocity P-wave (km/s) = 1.25337 4.98088 3.40868
#
# Compressibility (1/GPa) = 0.02996241
#
# Stress axis : x y z
#
# Youngs Moduli (GPa) = 160.94063 29.62837 60.80944
#
# Poissons Ratio (x) = 0.16550 0.05729
# Poissons Ratio (y) = 0.89898 0.40717
# Poissons Ratio (z) = 0.15161 0.19839
#
# Static dielectric constant tensor:
#      x y z
#    x 1.779230 0.000000 0.000000 
#    y 0.000000 1.694600 0.000000 
#    z 0.000000 0.000000 1.733050 
# 
# From -- ./inp_files/32326.got.cif
#   From: 2010.05.17/outbox.cif.g08.bks.cpg/sg63_17_cif.got.tgz:32326.got - 2010.06.03 15:47:04.
