data_PCOD9473198
_publ_section_title
;
Structure prediction by ZEFSAII (Michael W. Deem and Ramdas Pophale) SiO2 
 PCOD9473198
Probable space group: C M C M
;
_chemical_formula_sum "Si O2"
_cell_formula_units_Z 96
_cell_length_a 25.772821
_cell_length_b 24.163009
_cell_length_c 8.719726
_cell_angle_alpha 90.000000
_cell_angle_beta 90.000000
_cell_angle_gamma 90.000000
_cell_volume 5430.199825
_symmetry_space_group_name_H-M "C M C M"
_symmetry_group_IT_number 63
_symmetry_cell_setting 'orthorhombic'
loop_
_space_group_symop_operation_xyz
x,y,z
-x,-y,1/2+z
x,-y,-z
-x,y,1/2-z
-x,-y,-z
x,y,1/2-z
-x,y,z
x,-y,1/2+z
1/2+x,1/2+y,z
1/2-x,1/2-y,1/2+z
1/2+x,1/2-y,-z
1/2-x,1/2+y,1/2-z
1/2-x,1/2-y,-z
1/2+x,1/2+y,1/2-z
1/2-x,1/2+y,z
1/2+x,1/2-y,1/2+z
loop_
_atom_site_type_symbol
_atom_site_label
_atom_site_fract_x
_atom_site_fract_y
_atom_site_fract_z
Si Si1 0.307732 0.060344 0.933165
Si Si2 0.438793 0.754046 0.434775
Si Si3 0.899069 0.367794 0.933919
Si Si4 0.905256 0.131372 0.065391
Si Si5 0.806337 0.059851 0.434145
Si Si6 0.500000 0.938576 0.565497
Si Si7 0.500000 0.561388 0.932186
O O1 0.307207 0.057418 0.750000
O O2 0.348353 0.105541 0.991282
O O3 0.249941 0.072099 0.995241
O O4 0.322795 0.000000 0.000000
O O5 0.435513 0.759553 0.250000
O O6 0.500000 0.753807 0.475798
O O7 0.410731 0.805732 0.512106
O O8 0.413867 0.695190 0.478499
O O9 0.894669 0.369855 0.750000
O O10 0.948785 0.404850 0.981512
O O11 0.911702 0.128083 0.250000
O O12 0.849371 0.105601 0.027633
O O13 0.949711 0.094409 0.989946
O O14 0.801747 0.055776 0.250000
O O15 0.822877 0.000000 0.500000
O O16 0.500000 0.941511 0.750000
O O17 0.500000 0.000000 0.500000
O O18 0.500000 0.558354 0.750000
O O19 0.500000 0.500000 0.000000
#
# Coordination Sequence:
#
# PCOD9473198 Si02
#       7
#    16  16  16  16  16   8   8
#     4  11  22  38  60  86 116 151 191 234 288 344
#     4  10  20  37  60  83 113 154 193 233 285 342
#     4  11  22  38  57  83 116 149 192 237 282 338
#     4  10  21  39  60  84 116 151 193 239 288 343
#     4  10  20  36  60  86 115 151 189 235 289 343
#     4  10  22  35  52  79 111 142 176 226 279 332
#     4  12  24  35  54  83 117 152 190 236 291 346
#
# _framework density 17.678906999999999
#
# number of rings (size 3 to 8) (size 9 to 14) (size 15 to 20)
#    0.000    1.500    1.667    5.250    0.000    6.000 
#    0.000    0.833    0.000    0.000    0.000    0.000 
#    0.000    0.000    0.000    0.000    0.000    0.000 
#
# Total GULP energy -268261.927399 kJ/mol
# GULP energy per Si atom -5588.790154 kJ/mol
# Density = 1.763867 g / cm^3
# Si number density = 17.678907 Si / 1000 Ang^3
#
#
#
# Elastic Constant Matrix: (Units=GPa)
#
#
# Indices 1 2 3 4 5 6 
#
# 1 114.8370 99.7804 57.2304 0.0000 0.0000 0.0000
# 2 99.7804 181.2697 64.9496 0.0000 0.0000 0.0000
# 3 57.2304 64.9496 69.8114 0.0000 0.0000 0.0000
# 4 0.0000 0.0000 0.0000 30.2383 0.0000 0.0000
# 5 0.0000 0.0000 0.0000 0.0000 14.6088 0.0000
# 6 0.0000 0.0000 0.0000 0.0000 0.0000 17.3298
#
#
#
# Elastic Compliance Matrix: (Units=1/GPa)
#
#
# Indices 1 2 3 4 5 6 
#
# 1 0.020000 -0.007702 -0.009230 0.000000 0.000000 0.000000
# 2 -0.007702 0.011241 -0.004144 0.000000 0.000000 0.000000
# 3 -0.009230 -0.004144 0.025747 0.000000 0.000000 0.000000
# 4 0.000000 0.000000 0.000000 0.033071 0.000000 0.000000
# 5 0.000000 0.000000 0.000000 0.000000 0.068452 0.000000
# 6 0.000000 0.000000 0.000000 0.000000 0.000000 0.057704
#
#
# Mechanical properties :
#
#
# Convention : Reuss Voigt Hill
#
# Bulk Modulus (GPa) = 67.40795 89.98213 78.69504
# Shear Modulus (GPa) = 18.98883 22.03255 20.51069
#
# Velocity S-wave (km/s) = 3.28089 3.53407 3.40983
# Velocity P-wave (km/s) = 7.25011 8.22566 7.75324
#
# Compressibility (1/GPa) = 0.01483505
#
# Stress axis : x y z
#
# Youngs Moduli (GPa) = 49.99983 88.95932 38.83955
#
# Poissons Ratio (x) = 0.68515 0.35850
# Poissons Ratio (y) = 0.38509 0.16097
# Poissons Ratio (z) = 0.46151 0.36868
#
# Static dielectric constant tensor:
#      x y z
#    x 1.586160 0.000000 0.000000 
#    y 0.000000 1.576400 0.000000 
#    z 0.000000 0.000000 1.593290 
# 
# From -- ./inp_files/10516.got.cif
#   From: 2010.05.17/outbox.cif.g08.bks.cpg/sg63_6_cif.got.tgz:10516.got - 2010.06.03 15:47:04.
