data_PCOD9473990
_publ_section_title
;
Structure prediction by ZEFSAII (Michael W. Deem and Ramdas Pophale) SiO2 
 PCOD9473990
Probable space group: C M C M
;
_chemical_formula_sum "Si O2"
_cell_formula_units_Z 68
_cell_length_a 8.691566
_cell_length_b 24.539966
_cell_length_c 14.602502
_cell_angle_alpha 90.000000
_cell_angle_beta 90.000000
_cell_angle_gamma 90.000000
_cell_volume 3114.578372
_symmetry_space_group_name_H-M "C M C M"
_symmetry_group_IT_number 63
_symmetry_cell_setting 'orthorhombic'
loop_
_space_group_symop_operation_xyz
x,y,z
-x,-y,1/2+z
x,-y,-z
-x,y,1/2-z
-x,-y,-z
x,y,1/2-z
-x,y,z
x,-y,1/2+z
1/2+x,1/2+y,z
1/2-x,1/2-y,1/2+z
1/2+x,1/2-y,-z
1/2-x,1/2+y,1/2-z
1/2-x,1/2-y,-z
1/2+x,1/2+y,1/2-z
1/2-x,1/2+y,z
1/2+x,1/2-y,1/2+z
loop_
_atom_site_type_symbol
_atom_site_label
_atom_site_fract_x
_atom_site_fract_y
_atom_site_fract_z
Si Si1 0.682647 0.645077 0.353464
Si Si2 0.000000 0.017853 0.250000
Si Si3 0.180194 0.634721 0.954974
Si Si4 0.822112 0.763567 0.144420
Si Si5 0.172410 0.030585 0.912919
O O1 0.732243 0.629125 0.250000
O O2 0.500000 0.634293 0.357751
O O3 0.767648 0.621125 0.441303
O O4 0.718050 0.709778 0.361154
O O5 0.867417 0.009425 0.330244
O O6 0.267232 0.688692 0.921373
O O7 0.229644 0.583841 0.892228
O O8 0.000000 0.644335 0.951263
O O9 0.814688 0.782981 0.250000
O O10 0.000000 0.748504 0.125085
O O11 0.000000 0.051671 0.940463
O O12 0.239699 0.000000 0.000000
#
# Coordination Sequence:
#
# PCOD9473990 Si02
#       5
#    16   4  16  16  16
#     4  10  21  39  58  81 112 154 202 245 286 342
#     4   8  18  40  70  86 116 144 188 244 292 338
#     4  12  24  36  56  85 121 155 190 237 288 347
#     4  10  21  36  58  83 116 155 197 243 291 338
#     4   9  20  40  63  89 113 147 191 237 291 346
#
# _framework density 21.832811
#
# number of rings (size 3 to 8) (size 9 to 14) (size 15 to 20)
#    0.706    1.176    0.000    4.235    1.647    3.294 
#    2.118    0.000    0.000    0.000    0.000    0.000 
#    0.000    0.000    0.000    0.000    0.000    0.000 
#
# Total GULP energy -189331.757505 kJ/mol
# GULP energy per Si atom -5568.581103 kJ/mol
# Density = 2.178312 g / cm^3
# Si number density = 21.832811 Si / 1000 Ang^3
#
#
#
# Elastic Constant Matrix: (Units=GPa)
#
#
# Indices 1 2 3 4 5 6 
#
# 1 43.5811 -0.9200 5.4171 0.0000 0.0000 0.0000
# 2 -0.9200 55.8908 16.6981 0.0000 0.0000 0.0000
# 3 5.4171 16.6981 89.6021 0.0000 0.0000 0.0000
# 4 0.0000 0.0000 0.0000 10.3790 0.0000 0.0000
# 5 0.0000 0.0000 0.0000 0.0000 27.6068 0.0000
# 6 0.0000 0.0000 0.0000 0.0000 0.0000 19.5672
#
#
#
# Elastic Compliance Matrix: (Units=1/GPa)
#
#
# Indices 1 2 3 4 5 6 
#
# 1 0.023157 0.000847 -0.001558 0.000000 0.000000 0.000000
# 2 0.000847 0.018978 -0.003588 0.000000 0.000000 0.000000
# 3 -0.001558 -0.003588 0.011923 0.000000 0.000000 0.000000
# 4 0.000000 0.000000 0.000000 0.096348 0.000000 0.000000
# 5 0.000000 0.000000 0.000000 0.000000 0.036223 0.000000
# 6 0.000000 0.000000 0.000000 0.000000 0.000000 0.051106
#
#
# Mechanical properties :
#
#
# Convention : Reuss Voigt Hill
#
# Bulk Modulus (GPa) = 21.99726 25.71828 23.85777
# Shear Modulus (GPa) = 19.12139 22.70252 20.91196
#
# Velocity S-wave (km/s) = 2.96262 3.22815 3.09823
# Velocity P-wave (km/s) = 4.66905 5.06950 4.87339
#
# Compressibility (1/GPa) = 0.04546020
#
# Stress axis : x y z
#
# Youngs Moduli (GPa) = 43.18310 52.69293 83.86970
#
# Poissons Ratio (x) = -0.04461 0.13065
# Poissons Ratio (y) = -0.03656 0.30091
# Poissons Ratio (z) = 0.06727 0.18906
#
# Static dielectric constant tensor:
#      x y z
#    x 1.746390 0.000000 0.000000 
#    y 0.000000 1.856060 0.000000 
#    z 0.000000 0.000000 1.840920 
# 
# From -- ./inp_files/27750.got.cif
#   From: 2010.05.17/outbox.cif.g08.bks.cpg/sg63_14_cif.got.tgz:27750.got - 2010.06.03 15:47:04.
