data_PCOD9473930
_publ_section_title
;
Structure prediction by ZEFSAII (Michael W. Deem and Ramdas Pophale) SiO2 
 PCOD9473930
Probable space group: C M C M
;
_chemical_formula_sum "Si O2"
_cell_formula_units_Z 80
_cell_length_a 14.803534
_cell_length_b 27.758763
_cell_length_c 11.721404
_cell_angle_alpha 90.000000
_cell_angle_beta 90.000000
_cell_angle_gamma 90.000000
_cell_volume 4816.650663
_symmetry_space_group_name_H-M "C M C M"
_symmetry_group_IT_number 63
_symmetry_cell_setting 'orthorhombic'
loop_
_space_group_symop_operation_xyz
x,y,z
-x,-y,1/2+z
x,-y,-z
-x,y,1/2-z
-x,-y,-z
x,y,1/2-z
-x,y,z
x,-y,1/2+z
1/2+x,1/2+y,z
1/2-x,1/2-y,1/2+z
1/2+x,1/2-y,-z
1/2-x,1/2+y,1/2-z
1/2-x,1/2-y,-z
1/2+x,1/2+y,1/2-z
1/2-x,1/2+y,z
1/2+x,1/2-y,1/2+z
loop_
_atom_site_type_symbol
_atom_site_label
_atom_site_fract_x
_atom_site_fract_y
_atom_site_fract_z
Si Si1 0.000000 0.290076 0.620628
Si Si2 0.608904 0.388332 0.750000
Si Si3 0.607639 0.557098 0.486775
Si Si4 0.328818 0.213474 0.962157
Si Si5 0.500000 0.324445 0.120662
Si Si6 0.606142 0.277165 0.750000
Si Si7 0.311526 0.362463 0.385514
O O1 0.907941 0.299576 0.551044
O O2 0.000000 0.232338 0.629901
O O3 0.000000 0.309819 0.750000
O O4 0.500000 0.385569 0.750000
O O5 0.631316 0.419011 0.635987
O O6 0.644787 0.332534 0.750000
O O7 0.617881 0.500000 0.500000
O O8 0.500000 0.566995 0.508641
O O9 0.672452 0.583073 0.577422
O O10 0.369878 0.243681 0.857385
O O11 0.275724 0.164879 0.930182
O O12 0.250000 0.250000 0.000000
O O13 0.500000 0.345496 0.250000
O O14 0.595165 0.338687 0.065898
O O15 0.500000 0.284309 0.750000
O O16 0.311088 0.356095 0.250000
#
# Coordination Sequence:
#
# PCOD9473930 Si02
#       7
#     8   8  16  16   8   8  16
#     4  11  24  39  55  78 117 158 200 239 288 345
#     4   9  20  34  49  74 105 147 196 229 286 343
#     4  10  21  36  55  79 113 153 196 244 291 344
#     4  12  23  35  56  82 116 154 199 237 283 345
#     4   9  18  32  48  76 112 149 189 229 271 331
#     4  11  22  38  55  79 119 161 190 236 288 344
#     4  11  21  35  56  82 113 153 197 237 284 337
#
# _framework density 16.609051000000001
#
# number of rings (size 3 to 8) (size 9 to 14) (size 15 to 20)
#    0.000    1.400    5.000    1.200    2.800    0.000 
#    1.800    0.000    0.000    0.000    0.000    0.700 
#    0.000    0.000    0.000    0.000    0.000    0.000 
#
# Total GULP energy -222813.613625 kJ/mol
# GULP energy per Si atom -5570.340341 kJ/mol
# Density = 1.657125 g / cm^3
# Si number density = 16.609051 Si / 1000 Ang^3
#
#
#
# Elastic Constant Matrix: (Units=GPa)
#
#
# Indices 1 2 3 4 5 6 
#
# 1 102.0459 46.7922 57.5606 0.0000 0.0000 0.0000
# 2 46.7922 101.1014 29.6963 0.0000 0.0000 0.0000
# 3 57.5606 29.6963 80.6289 0.0000 0.0000 0.0000
# 4 0.0000 0.0000 0.0000 -175.3077 0.0000 0.0000
# 5 0.0000 0.0000 0.0000 0.0000 13.4216 0.0000
# 6 0.0000 0.0000 0.0000 0.0000 0.0000 24.4664
#
#
#
# Elastic Compliance Matrix: (Units=1/GPa)
#
#
# Indices 1 2 3 4 5 6 
#
# 1 0.018626 -0.005287 -0.011350 0.000000 0.000000 0.000000
# 2 -0.005287 0.012591 -0.000863 0.000000 0.000000 0.000000
# 3 -0.011350 -0.000863 0.020823 0.000000 0.000000 0.000000
# 4 0.000000 0.000000 0.000000 -0.005704 0.000000 0.000000
# 5 0.000000 0.000000 0.000000 0.000000 0.074507 0.000000
# 6 0.000000 0.000000 0.000000 0.000000 0.000000 0.040872
#
#
# Mechanical properties :
#
#
# Convention : Reuss Voigt Hill
#
# Bulk Modulus (GPa) = 58.68334 61.31940 60.00137
# Shear Modulus (GPa) = 24.70425 -17.50214 3.60106
#
# Velocity S-wave (km/s) = 3.86086 -3.24971 1.47405
# Velocity P-wave (km/s) = 7.43531 4.78734 6.25310
#
# Compressibility (1/GPa) = 0.01704061
#
# Stress axis : x y z
#
# Youngs Moduli (GPa) = 53.68954 79.41875 48.02402
#
# Poissons Ratio (x) = 0.41986 0.54505
# Poissons Ratio (y) = 0.28384 0.04146
# Poissons Ratio (z) = 0.60935 0.06857
#
# Static dielectric constant tensor:
#      x y z
#    x 1.513110 0.000000 0.000000 
#    y 0.000000 1.566060 0.000000 
#    z 0.000000 0.000000 1.635260 
# 
# From -- ./inp_files/19738.got.cif
#   From: 2010.05.17/outbox.cif.g08.bks.cpg/sg63_10_cif.got.tgz:19738.got - 2010.06.03 15:47:04.
