data_PCOD9473738
_publ_section_title
;
Structure prediction by ZEFSAII (Michael W. Deem and Ramdas Pophale) SiO2 
 PCOD9473738
Probable space group: C M C M
;
_chemical_formula_sum "Si O2"
_cell_formula_units_Z 112
_cell_length_a 23.714748
_cell_length_b 15.329809
_cell_length_c 17.948939
_cell_angle_alpha 90.000000
_cell_angle_beta 90.000000
_cell_angle_gamma 90.000000
_cell_volume 6525.203185
_symmetry_space_group_name_H-M "C M C M"
_symmetry_group_IT_number 63
_symmetry_cell_setting 'orthorhombic'
loop_
_space_group_symop_operation_xyz
x,y,z
-x,-y,1/2+z
x,-y,-z
-x,y,1/2-z
-x,-y,-z
x,y,1/2-z
-x,y,z
x,-y,1/2+z
1/2+x,1/2+y,z
1/2-x,1/2-y,1/2+z
1/2+x,1/2-y,-z
1/2-x,1/2+y,1/2-z
1/2-x,1/2-y,-z
1/2+x,1/2+y,1/2-z
1/2-x,1/2+y,z
1/2+x,1/2-y,1/2+z
loop_
_atom_site_type_symbol
_atom_site_label
_atom_site_fract_x
_atom_site_fract_y
_atom_site_fract_z
Si Si1 0.435616 0.025815 0.661465
Si Si2 0.152650 0.982294 0.162743
Si Si3 0.433898 0.647363 0.904915
Si Si4 0.066057 0.652777 0.076897
Si Si5 0.861911 0.659455 0.571629
Si Si6 0.260152 0.413033 0.046554
Si Si7 0.364007 0.643182 0.052701
O O1 0.433398 0.025385 0.750000
O O2 0.500000 0.048824 0.638113
O O3 0.391790 0.094601 0.628806
O O4 0.424508 0.928437 0.631179
O O5 0.160840 0.999266 0.250000
O O6 0.102906 0.912717 0.148753
O O7 0.207478 0.942149 0.121539
O O8 0.137347 0.067963 0.114323
O O9 0.500000 0.629371 0.898913
O O10 0.424236 0.750551 0.890265
O O11 0.411868 0.630163 0.989461
O O12 0.000000 0.650710 0.053621
O O13 0.106773 0.642824 0.006774
O O14 0.796037 0.639270 0.563608
O O15 0.870273 0.761604 0.587875
O O16 0.245112 0.500000 0.000000
O O17 0.306005 0.362981 0.995344
#
# Coordination Sequence:
#
# PCOD9473738 Si02
#       7
#    16  16  16  16  16  16  16
#     4  10  21  34  47  71 110 144 166 200 251 300
#     4  10  21  36  51  72 105 138 167 204 254 307
#     4   9  18  34  57  80  99 127 171 217 257 297
#     4   9  18  33  54  79 103 130 168 214 257 294
#     4  11  19  32  57  80  98 130 177 212 242 299
#     4   9  18  34  54  75  98 128 167 215 260 293
#     4   9  20  35  53  76 105 134 162 208 261 301
#
# _framework density 17.164217000000001
#
# number of rings (size 3 to 8) (size 9 to 14) (size 15 to 20)
#    0.000    2.429    0.000    3.429    0.000    4.857 
#    0.000    1.429    0.000    0.000    0.000    0.000 
#    0.000    0.000    0.000    0.000    0.000    0.000 
#
# Total GULP energy -312357.191477 kJ/mol
# GULP energy per Si atom -5577.806991 kJ/mol
# Density = 1.712515 g / cm^3
# Si number density = 17.164217 Si / 1000 Ang^3
#
#
#
# Elastic Constant Matrix: (Units=GPa)
#
#
# Indices 1 2 3 4 5 6 
#
# 1 44.7198 35.3932 15.5028 0.0000 0.0000 0.0000
# 2 35.3932 84.9483 46.0067 0.0000 0.0000 0.0000
# 3 15.5028 46.0067 65.2958 0.0000 0.0000 0.0000
# 4 0.0000 0.0000 0.0000 2.8503 0.0000 0.0000
# 5 0.0000 0.0000 0.0000 0.0000 13.4877 0.0000
# 6 0.0000 0.0000 0.0000 0.0000 0.0000 23.4817
#
#
#
# Elastic Compliance Matrix: (Units=1/GPa)
#
#
# Indices 1 2 3 4 5 6 
#
# 1 0.033737 -0.015715 0.003063 0.000000 0.000000 0.000000
# 2 -0.015715 0.026356 -0.014839 0.000000 0.000000 0.000000
# 3 0.003063 -0.014839 0.025043 0.000000 0.000000 0.000000
# 4 0.000000 0.000000 0.000000 0.350844 0.000000 0.000000
# 5 0.000000 0.000000 0.000000 0.000000 0.074142 0.000000
# 6 0.000000 0.000000 0.000000 0.000000 0.000000 0.042586
#
#
# Mechanical properties :
#
#
# Convention : Reuss Voigt Hill
#
# Bulk Modulus (GPa) = 33.16352 43.19659 38.18006
# Shear Modulus (GPa) = 8.09399 14.50135 11.29767
#
# Velocity S-wave (km/s) = 2.17390 2.90980 2.56834
# Velocity P-wave (km/s) = 5.06600 6.04240 5.57561
#
# Compressibility (1/GPa) = 0.03015361
#
# Stress axis : x y z
#
# Youngs Moduli (GPa) = 29.64066 37.94182 39.93093
#
# Poissons Ratio (x) = 0.59626 -0.12230
# Poissons Ratio (y) = 0.46581 0.59254
# Poissons Ratio (z) = -0.09078 0.56302
#
# Static dielectric constant tensor:
#      x y z
#    x 1.574800 0.000000 0.000000 
#    y 0.000000 1.587990 0.000000 
#    z 0.000000 0.000000 1.548120 
# 
# From -- ./inp_files/36925.got.cif
#   From: 2010.05.17/outbox.cif.g08.bks.cpg/sg63_19_cif.got.tgz:36925.got - 2010.06.03 15:47:04.
