data_PCOD9473993
_publ_section_title
;
Structure prediction by ZEFSAII (Michael W. Deem and Ramdas Pophale) SiO2 
 PCOD9473993
Probable space group: C M C M
;
_chemical_formula_sum "Si O2"
_cell_formula_units_Z 96
_cell_length_a 24.721676
_cell_length_b 13.995361
_cell_length_c 13.937135
_cell_angle_alpha 90.000000
_cell_angle_beta 90.000000
_cell_angle_gamma 90.000000
_cell_volume 4822.092337
_symmetry_space_group_name_H-M "C M C M"
_symmetry_group_IT_number 63
_symmetry_cell_setting 'orthorhombic'
loop_
_space_group_symop_operation_xyz
x,y,z
-x,-y,1/2+z
x,-y,-z
-x,y,1/2-z
-x,-y,-z
x,y,1/2-z
-x,y,z
x,-y,1/2+z
1/2+x,1/2+y,z
1/2-x,1/2-y,1/2+z
1/2+x,1/2-y,-z
1/2-x,1/2+y,1/2-z
1/2-x,1/2-y,-z
1/2+x,1/2+y,1/2-z
1/2-x,1/2+y,z
1/2+x,1/2-y,1/2+z
loop_
_atom_site_type_symbol
_atom_site_label
_atom_site_fract_x
_atom_site_fract_y
_atom_site_fract_z
Si Si1 0.125562 0.347521 0.362949
Si Si2 0.560545 0.233284 0.482315
Si Si3 0.939226 0.462585 0.861922
Si Si4 0.742256 0.870791 0.426664
Si Si5 0.656314 0.254530 0.143159
Si Si6 0.266727 0.912207 0.640610
O O1 0.132303 0.334916 0.250000
O O2 0.079394 0.282288 0.409185
O O3 0.104817 0.455905 0.380522
O O4 0.182285 0.327721 0.415313
O O5 0.500000 0.271063 0.472811
O O6 0.562078 0.129137 0.429900
O O7 0.609353 0.285301 0.428402
O O8 0.934789 0.433379 0.750000
O O9 0.000000 0.505643 0.873248
O O10 0.788332 0.811708 0.374162
O O11 0.758307 0.877047 0.539118
O O12 0.734287 0.974348 0.377028
O O13 0.636482 0.271872 0.250000
O O14 0.675637 0.143289 0.137757
O O15 0.245927 0.892951 0.750000
#
# Coordination Sequence:
#
# PCOD9473993 Si02
#       6
#    16  16  16  16  16  16
#     4  11  21  32  49  72 106 147 184 223 275 335
#     4  11  22  34  50  74 105 144 189 231 275 330
#     4   9  18  32  49  71 102 141 182 222 267 325
#     4  11  22  38  56  84 119 149 188 232 283 343
#     4  11  22  38  59  82 115 149 185 234 286 339
#     4  10  21  36  58  84 114 152 189 226 279 342
#
# _framework density 19.908370000000001
#
# number of rings (size 3 to 8) (size 9 to 14) (size 15 to 20)
#    0.000    1.500    1.667    4.500    2.333    6.000 
#    0.000    0.000    0.000    0.000    0.000    2.333 
#    0.000    1.333    0.000    0.000    0.000    0.167 
#
# Total GULP energy -267792.710411 kJ/mol
# GULP energy per Si atom -5579.014800 kJ/mol
# Density = 1.986306 g / cm^3
# Si number density = 19.908370 Si / 1000 Ang^3
#
#
#
# Elastic Constant Matrix: (Units=GPa)
#
#
# Indices 1 2 3 4 5 6 
#
# 1 111.1267 27.0866 3.1103 0.0000 0.0000 0.0000
# 2 27.0866 30.1696 1.8357 0.0000 0.0000 0.0000
# 3 3.1103 1.8357 100.9000 0.0000 0.0000 0.0000
# 4 0.0000 0.0000 0.0000 15.9847 0.0000 0.0000
# 5 0.0000 0.0000 0.0000 0.0000 23.3253 0.0000
# 6 0.0000 0.0000 0.0000 0.0000 0.0000 21.7677
#
#
#
# Elastic Compliance Matrix: (Units=1/GPa)
#
#
# Indices 1 2 3 4 5 6 
#
# 1 0.011522 -0.010335 -0.000167 0.000000 0.000000 0.000000
# 2 -0.010335 0.042452 -0.000454 0.000000 0.000000 0.000000
# 3 -0.000167 -0.000454 0.009924 0.000000 0.000000 0.000000
# 4 0.000000 0.000000 0.000000 0.062560 0.000000 0.000000
# 5 0.000000 0.000000 0.000000 0.000000 0.042872 0.000000
# 6 0.000000 0.000000 0.000000 0.000000 0.000000 0.045940
#
#
# Mechanical properties :
#
#
# Convention : Reuss Voigt Hill
#
# Bulk Modulus (GPa) = 23.81667 34.02907 28.92287
# Shear Modulus (GPa) = 19.90622 26.22644 23.06633
#
# Velocity S-wave (km/s) = 3.16554 3.63348 3.40755
# Velocity P-wave (km/s) = 5.03487 5.89346 5.48100
#
# Compressibility (1/GPa) = 0.04198741
#
# Stress axis : x y z
#
# Youngs Moduli (GPa) = 86.78681 23.55586 100.76365
#
# Poissons Ratio (x) = 0.24345 0.01684
# Poissons Ratio (y) = 0.89693 0.04572
# Poissons Ratio (z) = 0.01451 0.01069
#
# Static dielectric constant tensor:
#      x y z
#    x 1.713310 0.000000 0.000000 
#    y 0.000000 1.724740 0.000000 
#    z 0.000000 0.000000 1.750700 
# 
# From -- ./inp_files/35369.got.cif
#   From: 2010.05.17/outbox.cif.g08.bks.cpg/sg63_18_cif.got.tgz:35369.got - 2010.06.03 15:47:04.
