data_PCOD9473987
_publ_section_title
;
Structure prediction by ZEFSAII (Michael W. Deem and Ramdas Pophale) SiO2 
 PCOD9473987
Probable space group: C M C M
;
_chemical_formula_sum "Si O2"
_cell_formula_units_Z 80
_cell_length_a 14.827068
_cell_length_b 18.921750
_cell_length_c 13.580486
_cell_angle_alpha 90.000000
_cell_angle_beta 90.000000
_cell_angle_gamma 90.000000
_cell_volume 3810.060673
_symmetry_space_group_name_H-M "C M C M"
_symmetry_group_IT_number 63
_symmetry_cell_setting 'orthorhombic'
loop_
_space_group_symop_operation_xyz
x,y,z
-x,-y,1/2+z
x,-y,-z
-x,y,1/2-z
-x,-y,-z
x,y,1/2-z
-x,y,z
x,-y,1/2+z
1/2+x,1/2+y,z
1/2-x,1/2-y,1/2+z
1/2+x,1/2-y,-z
1/2-x,1/2+y,1/2-z
1/2-x,1/2-y,-z
1/2+x,1/2+y,1/2-z
1/2-x,1/2+y,z
1/2+x,1/2-y,1/2+z
loop_
_atom_site_type_symbol
_atom_site_label
_atom_site_fract_x
_atom_site_fract_y
_atom_site_fract_z
Si Si1 0.894466 0.672655 0.134008
Si Si2 0.104847 0.756346 0.550553
Si Si3 0.212425 0.892609 0.932087
Si Si4 0.401270 0.101496 0.633387
Si Si5 0.714553 0.456800 0.138430
O O1 0.879553 0.683435 0.250000
O O2 0.818260 0.619654 0.092649
O O3 0.000000 0.650415 0.121411
O O4 0.883319 0.742416 0.066388
O O5 0.165121 0.818768 0.591943
O O6 0.125545 0.679246 0.595412
O O7 0.000000 0.771034 0.570364
O O8 0.182975 0.962764 0.874259
O O9 0.185279 0.909689 0.045596
O O10 0.409106 0.108587 0.750000
O O11 0.500000 0.083078 0.592898
O O12 0.322615 0.045422 0.619593
O O13 0.696821 0.431807 0.250000
#
# Coordination Sequence:
#
# PCOD9473987 Si02
#       5
#    16  16  16  16  16
#     4  10  21  36  57  89 124 155 190 237 297 358
#     4  10  21  39  60  87 117 152 200 248 292 342
#     4  11  22  38  59  86 118 159 200 239 294 352
#     4   9  18  34  57  85 115 148 189 240 296 350
#     4  10  22  37  55  83 118 155 198 243 293 352
#
# _framework density 20.997040999999999
#
# number of rings (size 3 to 8) (size 9 to 14) (size 15 to 20)
#    0.000    2.000    2.000    1.200    0.000    3.200 
#    0.000    6.000    0.000    1.200    0.000    0.000 
#    0.000    0.000    0.000    0.000    0.000    0.000 
#
# Total GULP energy -222854.098104 kJ/mol
# GULP energy per Si atom -5571.352453 kJ/mol
# Density = 2.094925 g / cm^3
# Si number density = 20.997041 Si / 1000 Ang^3
#
#
#
# Elastic Constant Matrix: (Units=GPa)
#
#
# Indices 1 2 3 4 5 6 
#
# 1 27.8285 32.0785 6.9556 0.0000 0.0000 0.0000
# 2 32.0785 62.7452 -1.8206 0.0000 0.0000 0.0000
# 3 6.9556 -1.8206 54.9646 0.0000 0.0000 0.0000
# 4 0.0000 0.0000 0.0000 11.3111 0.0000 0.0000
# 5 0.0000 0.0000 0.0000 0.0000 16.4879 0.0000
# 6 0.0000 0.0000 0.0000 0.0000 0.0000 9.2016
#
#
#
# Elastic Compliance Matrix: (Units=1/GPa)
#
#
# Indices 1 2 3 4 5 6 
#
# 1 0.097128 -0.050061 -0.013949 0.000000 0.000000 0.000000
# 2 -0.050061 0.041755 0.007718 0.000000 0.000000 0.000000
# 3 -0.013949 0.007718 0.020214 0.000000 0.000000 0.000000
# 4 0.000000 0.000000 0.000000 0.088409 0.000000 0.000000
# 5 0.000000 0.000000 0.000000 0.000000 0.060651 0.000000
# 6 0.000000 0.000000 0.000000 0.000000 0.000000 0.108677
#
#
# Mechanical properties :
#
#
# Convention : Reuss Voigt Hill
#
# Bulk Modulus (GPa) = 21.49968 24.44059 22.97013
# Shear Modulus (GPa) = 9.17560 14.62176 11.89868
#
# Velocity S-wave (km/s) = 2.09271 2.64175 2.38309
# Velocity P-wave (km/s) = 4.01259 4.57935 4.30530
#
# Compressibility (1/GPa) = 0.04651232
#
# Stress axis : x y z
#
# Youngs Moduli (GPa) = 10.29571 23.94906 49.46956
#
# Poissons Ratio (x) = 1.19892 0.69007
# Poissons Ratio (y) = 0.51542 -0.38182
# Poissons Ratio (z) = 0.14362 -0.18484
#
# Static dielectric constant tensor:
#      x y z
#    x 1.811420 0.000000 0.000000 
#    y 0.000000 1.721650 0.000000 
#    z 0.000000 0.000000 1.815060 
# 
# From -- ./inp_files/31663.got.cif
#   From: 2010.05.17/outbox.cif.g08.bks.cpg/sg63_16_cif.got.tgz:31663.got - 2010.06.03 15:47:04.
