data_PCOD9473480
_publ_section_title
;
Structure prediction by ZEFSAII (Michael W. Deem and Ramdas Pophale) SiO2 
 PCOD9473480
Probable space group: C M C M
;
_chemical_formula_sum "Si O2"
_cell_formula_units_Z 96
_cell_length_a 22.245728
_cell_length_b 11.067033
_cell_length_c 22.098462
_cell_angle_alpha 90.000000
_cell_angle_beta 90.000000
_cell_angle_gamma 90.000000
_cell_volume 5440.513303
_symmetry_space_group_name_H-M "C M C M"
_symmetry_group_IT_number 63
_symmetry_cell_setting 'orthorhombic'
loop_
_space_group_symop_operation_xyz
x,y,z
-x,-y,1/2+z
x,-y,-z
-x,y,1/2-z
-x,-y,-z
x,y,1/2-z
-x,y,z
x,-y,1/2+z
1/2+x,1/2+y,z
1/2-x,1/2-y,1/2+z
1/2+x,1/2-y,-z
1/2-x,1/2+y,1/2-z
1/2-x,1/2-y,-z
1/2+x,1/2+y,1/2-z
1/2-x,1/2+y,z
1/2+x,1/2-y,1/2+z
loop_
_atom_site_type_symbol
_atom_site_label
_atom_site_fract_x
_atom_site_fract_y
_atom_site_fract_z
Si Si1 0.863260 0.528250 0.876561
Si Si2 0.206959 0.480500 0.250000
Si Si3 0.500000 0.973609 0.100127
Si Si4 0.802271 0.238486 0.750000
Si Si5 0.792112 0.259769 0.060168
Si Si6 0.388066 0.366298 0.489666
Si Si7 0.000000 0.308643 0.981872
Si Si8 0.328228 0.758870 0.618937
O O1 0.831842 0.536757 0.811080
O O2 0.827896 0.617629 0.922694
O O3 0.853802 0.390197 0.898680
O O4 0.934753 0.552581 0.870818
O O5 0.225603 0.623862 0.250000
O O6 0.257649 0.376385 0.250000
O O7 0.500000 0.113213 0.079184
O O8 0.500000 0.897112 0.038718
O O9 0.841066 0.232858 0.688692
O O10 0.744240 0.234594 0.112602
O O11 0.750000 0.250000 0.000000
O O12 0.843400 0.163861 0.045038
O O13 0.410455 0.500000 0.500000
O O14 0.441786 0.273070 0.487008
O O15 0.351921 0.341994 0.427256
#
# Coordination Sequence:
#
# PCOD9473480 Si02
#       8
#    16   8   8   8  16  16   8  16
#     4  11  21  40  60  85 118 158 202 248 295 359
#     4  10  22  37  62  88 120 155 206 246 304 356
#     4  11  22  37  62  80 118 153 208 242 293 351
#     4  10  20  38  60  88 118 160 194 248 294 366
#     4  10  22  32  54  86 119 148 188 240 300 352
#     4  11  23  36  55  85 118 155 192 243 300 359
#     4  11  21  38  56  84 109 159 196 245 289 358
#     4  10  22  37  58  86 120 150 196 242 302 353
#
# _framework density 17.645395000000001
#
# number of rings (size 3 to 8) (size 9 to 14) (size 15 to 20)
#    0.000    1.500    5.000    0.250    4.667    2.333 
#    0.000    0.000    0.000    0.500    0.000    0.000 
#    0.000    1.333    0.000    0.000    0.000    0.000 
#
# Total GULP energy -267322.801092 kJ/mol
# GULP energy per Si atom -5569.225023 kJ/mol
# Density = 1.760523 g / cm^3
# Si number density = 17.645395 Si / 1000 Ang^3
#
#
#
# Elastic Constant Matrix: (Units=GPa)
#
#
# Indices 1 2 3 4 5 6 
#
# 1 84.0906 22.7245 2.6007 0.0000 0.0000 0.0000
# 2 22.7245 90.4146 25.8494 0.0000 0.0000 0.0000
# 3 2.6007 25.8494 65.8170 0.0000 0.0000 0.0000
# 4 0.0000 0.0000 0.0000 25.5305 0.0000 0.0000
# 5 0.0000 0.0000 0.0000 0.0000 -13.2782 0.0000
# 6 0.0000 0.0000 0.0000 0.0000 0.0000 21.7713
#
#
#
# Elastic Compliance Matrix: (Units=1/GPa)
#
#
# Indices 1 2 3 4 5 6 
#
# 1 0.012801 -0.003461 0.000854 0.000000 0.000000 0.000000
# 2 -0.003461 0.013395 -0.005124 0.000000 0.000000 0.000000
# 3 0.000854 -0.005124 0.017172 0.000000 0.000000 0.000000
# 4 0.000000 0.000000 0.000000 0.039169 0.000000 0.000000
# 5 0.000000 0.000000 0.000000 0.000000 -0.075311 0.000000
# 6 0.000000 0.000000 0.000000 0.000000 0.000000 0.045932
#
#
# Mechanical properties :
#
#
# Convention : Reuss Voigt Hill
#
# Bulk Modulus (GPa) = 35.83626 38.07459 36.95543
# Shear Modulus (GPa) = 64.16574 19.41456 41.79015
#
# Velocity S-wave (km/s) = 6.03680 3.32062 4.87183
# Velocity P-wave (km/s) = 8.30324 6.02715 7.25501
#
# Compressibility (1/GPa) = 0.02790470
#
# Stress axis : x y z
#
# Youngs Moduli (GPa) = 78.11924 74.65410 58.23304
#
# Poissons Ratio (x) = 0.25841 -0.04971
# Poissons Ratio (y) = 0.27040 0.29839
# Poissons Ratio (z) = -0.06669 0.38254
#
# Static dielectric constant tensor:
#      x y z
#    x 1.615000 0.000000 0.000000 
#    y 0.000000 1.613040 0.000000 
#    z 0.000000 0.000000 1.621230 
# 
# From -- ./inp_files/56622.got.cif
#   From: 2010.05.17/outbox.cif.g08.bks.cpg/sg63_29_cif.got.tgz:56622.got - 2010.06.03 15:47:04.
