data_PCOD9473023
_publ_section_title
;
Structure prediction by ZEFSAII (Michael W. Deem and Ramdas Pophale) SiO2 
 PCOD9473023
Probable space group: C M C M
;
_chemical_formula_sum "Si O2"
_cell_formula_units_Z 112
_cell_length_a 30.627395
_cell_length_b 11.723682
_cell_length_c 16.482102
_cell_angle_alpha 90.000000
_cell_angle_beta 90.000000
_cell_angle_gamma 90.000000
_cell_volume 5918.159791
_symmetry_space_group_name_H-M "C M C M"
_symmetry_group_IT_number 63
_symmetry_cell_setting 'orthorhombic'
loop_
_space_group_symop_operation_xyz
x,y,z
-x,-y,1/2+z
x,-y,-z
-x,y,1/2-z
-x,-y,-z
x,y,1/2-z
-x,y,z
x,-y,1/2+z
1/2+x,1/2+y,z
1/2-x,1/2-y,1/2+z
1/2+x,1/2-y,-z
1/2-x,1/2+y,1/2-z
1/2-x,1/2-y,-z
1/2+x,1/2+y,1/2-z
1/2-x,1/2+y,z
1/2+x,1/2-y,1/2+z
loop_
_atom_site_type_symbol
_atom_site_label
_atom_site_fract_x
_atom_site_fract_y
_atom_site_fract_z
Si Si1 0.692326 0.827442 0.401910
Si Si2 0.917490 0.887479 0.962379
Si Si3 0.549591 0.803774 0.345270
Si Si4 0.859272 0.721030 0.065795
Si Si5 0.160651 0.085598 0.342109
Si Si6 0.213335 0.861899 0.344645
Si Si7 0.621500 0.006293 0.845020
O O1 0.671726 0.815516 0.490904
O O2 0.678355 0.712785 0.354904
O O3 0.744062 0.838771 0.397887
O O4 0.668203 0.934084 0.360400
O O5 0.944365 0.805430 0.902682
O O6 0.877252 0.932029 0.907216
O O7 0.895557 0.806868 0.030510
O O8 0.939245 0.000000 0.000000
O O9 0.557463 0.774916 0.250000
O O10 0.500000 0.846623 0.352002
O O11 0.585149 0.899376 0.368466
O O12 0.827509 0.784675 0.128802
O O13 0.880435 0.608893 0.104120
O O14 0.144482 0.072228 0.250000
O O15 0.198038 0.992287 0.355032
O O16 0.224009 0.842242 0.250000
O O17 0.615938 0.982068 0.750000
#
# Coordination Sequence:
#
# PCOD9473023 Si02
#       7
#    16  16  16  16  16  16  16
#     4  11  23  37  59  81 118 158 210 258 300 350
#     4  11  21  39  62  88 124 157 200 240 304 360
#     4  10  22  42  70  96 118 153 201 250 304 374
#     4  11  23  39  57  87 122 161 203 249 303 358
#     4  10  20  36  57  79 112 159 206 248 290 350
#     4  11  23  37  54  84 121 164 212 254 298 350
#     4  11  22  40  62  87 120 159 200 251 309 367
#
# _framework density 18.924800999999999
#
# number of rings (size 3 to 8) (size 9 to 14) (size 15 to 20)
#    0.000    1.286    4.286    3.000    2.000    0.286 
#    5.143    1.429    0.000    0.000    0.000    2.000 
#    0.000    0.000    0.000    0.000    0.000    0.000 
#
# Total GULP energy -312883.934530 kJ/mol
# GULP energy per Si atom -5587.213117 kJ/mol
# Density = 1.888173 g / cm^3
# Si number density = 18.924801 Si / 1000 Ang^3
#
#
#
# Elastic Constant Matrix: (Units=GPa)
#
#
# Indices 1 2 3 4 5 6 
#
# 1 51.2326 21.9155 3.7020 0.0000 0.0000 0.0000
# 2 21.9155 110.0672 49.9936 0.0000 0.0000 0.0000
# 3 3.7020 49.9936 58.4760 0.0000 0.0000 0.0000
# 4 0.0000 0.0000 0.0000 23.2252 0.0000 0.0000
# 5 0.0000 0.0000 0.0000 0.0000 9.3449 0.0000
# 6 0.0000 0.0000 0.0000 0.0000 0.0000 5.9413
#
#
#
# Elastic Compliance Matrix: (Units=1/GPa)
#
#
# Indices 1 2 3 4 5 6 
#
# 1 0.021845 -0.006084 0.003819 0.000000 0.000000 0.000000
# 2 -0.006084 0.016548 -0.013762 0.000000 0.000000 0.000000
# 3 0.003819 -0.013762 0.028625 0.000000 0.000000 0.000000
# 4 0.000000 0.000000 0.000000 0.043057 0.000000 0.000000
# 5 0.000000 0.000000 0.000000 0.000000 0.107010 0.000000
# 6 0.000000 0.000000 0.000000 0.000000 0.000000 0.168314
#
#
# Mechanical properties :
#
#
# Convention : Reuss Voigt Hill
#
# Bulk Modulus (GPa) = 28.60175 41.22201 34.91188
# Shear Modulus (GPa) = 11.65207 17.31325 14.48266
#
# Velocity S-wave (km/s) = 2.48403 3.02792 2.76936
# Velocity P-wave (km/s) = 4.83460 5.83555 5.35850
#
# Compressibility (1/GPa) = 0.03496290
#
# Stress axis : x y z
#
# Youngs Moduli (GPa) = 45.77612 60.43157 34.93440
#
# Poissons Ratio (x) = 0.36767 -0.13340
# Poissons Ratio (y) = 0.27851 0.48077
# Poissons Ratio (z) = -0.17480 0.83167
#
# Static dielectric constant tensor:
#      x y z
#    x 1.626710 0.000000 0.000000 
#    y 0.000000 1.647870 0.000000 
#    z 0.000000 0.000000 1.670760 
# 
# From -- ./inp_files/38577.got.cif
#   From: 2010.05.17/outbox.cif.g08.bks.cpg/sg63_20_cif.got.tgz:38577.got - 2010.06.03 15:47:04.
