data_PCOD9473018
_publ_section_title
;
Structure prediction by ZEFSAII (Michael W. Deem and Ramdas Pophale) SiO2 
 PCOD9473018
Probable space group: C M C M
;
_chemical_formula_sum "Si O2"
_cell_formula_units_Z 80
_cell_length_a 8.781853
_cell_length_b 29.505440
_cell_length_c 17.443159
_cell_angle_alpha 90.000000
_cell_angle_beta 90.000000
_cell_angle_gamma 90.000000
_cell_volume 4519.739434
_symmetry_space_group_name_H-M "C M C M"
_symmetry_group_IT_number 63
_symmetry_cell_setting 'orthorhombic'
loop_
_space_group_symop_operation_xyz
x,y,z
-x,-y,1/2+z
x,-y,-z
-x,y,1/2-z
-x,-y,-z
x,y,1/2-z
-x,y,z
x,-y,1/2+z
1/2+x,1/2+y,z
1/2-x,1/2-y,1/2+z
1/2+x,1/2-y,-z
1/2-x,1/2+y,1/2-z
1/2-x,1/2-y,-z
1/2+x,1/2+y,1/2-z
1/2-x,1/2+y,z
1/2+x,1/2-y,1/2+z
loop_
_atom_site_type_symbol
_atom_site_label
_atom_site_fract_x
_atom_site_fract_y
_atom_site_fract_z
Si Si1 0.185507 0.231725 0.838353
Si Si2 0.317430 0.645654 0.939621
Si Si3 0.820178 0.430250 0.335443
Si Si4 0.316131 0.830528 0.603443
Si Si5 0.319024 0.491422 0.750000
Si Si6 0.316686 0.108325 0.250000
O O1 0.236314 0.229214 0.750000
O O2 0.233833 0.188639 0.888119
O O3 0.232679 0.279214 0.876339
O O4 0.000000 0.231835 0.837125
O O5 0.500000 0.644758 0.940194
O O6 0.255793 0.600500 0.899154
O O7 0.255537 0.652443 0.024833
O O8 0.797344 0.408572 0.250000
O O9 0.746548 0.479698 0.322073
O O10 0.000000 0.434532 0.348344
O O11 0.500000 0.830589 0.596532
O O12 0.275835 0.862742 0.674778
O O13 0.500000 0.493413 0.750000
O O14 0.259871 0.440586 0.750000
O O15 0.500000 0.102729 0.250000
#
# Coordination Sequence:
#
# PCOD9473018 Si02
#       6
#    16  16  16  16   8   8
#     4   9  17  32  54  81 111 150 194 229 269 325
#     4  11  21  32  53  85 120 151 182 229 285 327
#     4   9  19  36  58  83 112 144 184 225 267 330
#     4  10  20  36  57  78 109 150 196 234 269 328
#     4  10  20  36  61  86 111 141 174 227 289 340
#     4  10  20  38  61  80 101 145 194 233 277 330
#
# _framework density 17.700135
#
# number of rings (size 3 to 8) (size 9 to 14) (size 15 to 20)
#    0.600    1.600    1.000    3.000    0.000    1.600 
#    0.000    2.000    0.000    8.400    0.000    0.000 
#    0.000    0.000    0.000    0.000    0.000    0.000 
#
# Total GULP energy -223060.586499 kJ/mol
# GULP energy per Si atom -5576.514662 kJ/mol
# Density = 1.765985 g / cm^3
# Si number density = 17.700135 Si / 1000 Ang^3
#
#
#
# Elastic Constant Matrix: (Units=GPa)
#
#
# Indices 1 2 3 4 5 6 
#
# 1 41.8775 33.2072 34.9281 0.0000 0.0000 0.0000
# 2 33.2072 102.8615 23.0436 0.0000 0.0000 0.0000
# 3 34.9281 23.0436 76.0462 0.0000 0.0000 0.0000
# 4 0.0000 0.0000 0.0000 -0.1757 0.0000 0.0000
# 5 0.0000 0.0000 0.0000 0.0000 22.1537 0.0000
# 6 0.0000 0.0000 0.0000 0.0000 0.0000 22.8016
#
#
#
# Elastic Compliance Matrix: (Units=1/GPa)
#
#
# Indices 1 2 3 4 5 6 
#
# 1 0.048788 -0.011512 -0.018920 0.000000 0.000000 0.000000
# 2 -0.011512 0.013146 0.001304 0.000000 0.000000 0.000000
# 3 -0.018920 0.001304 0.021445 0.000000 0.000000 0.000000
# 4 0.000000 0.000000 0.000000 -5.690171 0.000000 0.000000
# 5 0.000000 0.000000 0.000000 0.000000 0.045139 0.000000
# 6 0.000000 0.000000 0.000000 0.000000 0.000000 0.043857
#
#
# Mechanical properties :
#
#
# Convention : Reuss Voigt Hill
#
# Bulk Modulus (GPa) = 39.80446 44.79368 42.29907
# Shear Modulus (GPa) = -0.91724 17.59633 8.33955
#
# Velocity S-wave (km/s) = -0.72065 3.15641 2.17297
# Velocity P-wave (km/s) = 4.67382 6.21658 5.49956
#
# Compressibility (1/GPa) = 0.02512282
#
# Stress axis : x y z
#
# Youngs Moduli (GPa) = 20.49686 76.06800 46.63135
#
# Poissons Ratio (x) = 0.87568 0.88227
# Poissons Ratio (y) = 0.23596 -0.06080
# Poissons Ratio (z) = 0.38780 -0.09918
#
# Static dielectric constant tensor:
#      x y z
#    x 1.588840 0.000000 0.000000 
#    y 0.000000 1.585620 0.000000 
#    z 0.000000 0.000000 1.583520 
# 
# From -- ./inp_files/40748.got.cif
#   From: 2010.05.17/outbox.cif.g08.bks.cpg/sg63_21_cif.got.tgz:40748.got - 2010.06.03 15:47:04.
