data_PCOD9473400
_publ_section_title
;
Structure prediction by ZEFSAII (Michael W. Deem and Ramdas Pophale) SiO2 
 PCOD9473400
Probable space group: C M C M
;
_chemical_formula_sum "Si O2"
_cell_formula_units_Z 112
_cell_length_a 10.577082
_cell_length_b 25.505614
_cell_length_c 21.736237
_cell_angle_alpha 90.000000
_cell_angle_beta 90.000000
_cell_angle_gamma 90.000000
_cell_volume 5863.892701
_symmetry_space_group_name_H-M "C M C M"
_symmetry_group_IT_number 63
_symmetry_cell_setting 'orthorhombic'
loop_
_space_group_symop_operation_xyz
x,y,z
-x,-y,1/2+z
x,-y,-z
-x,y,1/2-z
-x,-y,-z
x,y,1/2-z
-x,y,z
x,-y,1/2+z
1/2+x,1/2+y,z
1/2-x,1/2-y,1/2+z
1/2+x,1/2-y,-z
1/2-x,1/2+y,1/2-z
1/2-x,1/2-y,-z
1/2+x,1/2+y,1/2-z
1/2-x,1/2+y,z
1/2+x,1/2-y,1/2+z
loop_
_atom_site_type_symbol
_atom_site_label
_atom_site_fract_x
_atom_site_fract_y
_atom_site_fract_z
Si Si1 0.347229 0.931956 0.869540
Si Si2 0.652016 0.707018 0.683235
Si Si3 0.146085 0.679599 0.347762
Si Si4 0.359610 0.559467 0.475411
Si Si5 0.360233 0.792396 0.990806
Si Si6 0.849239 0.546919 0.681639
Si Si7 0.247550 0.872210 0.081341
O O1 0.500000 0.928673 0.883359
O O2 0.309087 0.878887 0.833526
O O3 0.257426 0.933615 0.929155
O O4 0.326049 0.985848 0.833346
O O5 0.692157 0.686006 0.750000
O O6 0.500000 0.709912 0.682573
O O7 0.703934 0.766387 0.676548
O O8 0.688854 0.671037 0.626500
O O9 0.149710 0.685229 0.421829
O O10 0.000000 0.680480 0.327624
O O11 0.354104 0.500000 0.500000
O O12 0.500000 0.567470 0.447541
O O13 0.342714 0.599281 0.532308
O O14 0.500000 0.768155 0.996906
O O15 0.345016 0.839473 0.039318
O O16 0.250000 0.750000 0.000000
O O17 0.798965 0.559610 0.750000
O O18 0.799119 0.583039 0.626749
O O19 0.000000 0.554016 0.682962
#
# Coordination Sequence:
#
# PCOD9473400 Si02
#       7
#    16  16  16  16  16  16  16
#     4  10  20  37  62  88 116 153 194 238 294 356
#     4  10  21  36  55  82 116 155 198 243 288 340
#     4   9  18  34  55  84 115 145 189 242 287 342
#     4  11  23  37  55  85 122 155 191 242 299 353
#     4  11  22  36  57  86 120 154 191 238 296 353
#     4  10  22  38  57  85 117 151 197 246 288 342
#     4  12  21  36  59  84 117 158 196 239 296 356
#
# _framework density 19.099941000000001
#
# number of rings (size 3 to 8) (size 9 to 14) (size 15 to 20)
#    0.000    1.571    4.286    1.286    0.000    2.000 
#    0.000    2.857    0.000    1.286    0.000    0.000 
#    0.000    0.000    0.000    0.000    0.000    0.000 
#
# Total GULP energy -312151.312597 kJ/mol
# GULP energy per Si atom -5574.130582 kJ/mol
# Density = 1.905647 g / cm^3
# Si number density = 19.099941 Si / 1000 Ang^3
#
#
#
# Elastic Constant Matrix: (Units=GPa)
#
#
# Indices 1 2 3 4 5 6 
#
# 1 64.8324 26.3060 21.6030 0.0000 0.0000 0.0000
# 2 26.3060 111.7489 17.5611 0.0000 0.0000 0.0000
# 3 21.6030 17.5611 88.5083 0.0000 0.0000 0.0000
# 4 0.0000 0.0000 0.0000 3.5128 0.0000 0.0000
# 5 0.0000 0.0000 0.0000 0.0000 14.4008 0.0000
# 6 0.0000 0.0000 0.0000 0.0000 0.0000 19.3384
#
#
#
# Elastic Compliance Matrix: (Units=1/GPa)
#
#
# Indices 1 2 3 4 5 6 
#
# 1 0.018155 -0.003693 -0.003699 0.000000 0.000000 0.000000
# 2 -0.003693 0.009988 -0.001080 0.000000 0.000000 0.000000
# 3 -0.003699 -0.001080 0.012415 0.000000 0.000000 0.000000
# 4 0.000000 0.000000 0.000000 0.284670 0.000000 0.000000
# 5 0.000000 0.000000 0.000000 0.000000 0.069440 0.000000
# 6 0.000000 0.000000 0.000000 0.000000 0.000000 0.051711
#
#
# Mechanical properties :
#
#
# Convention : Reuss Voigt Hill
#
# Bulk Modulus (GPa) = 42.34576 44.00331 43.17453
# Shear Modulus (GPa) = 10.61133 20.75838 15.68486
#
# Velocity S-wave (km/s) = 2.35961 3.30029 2.86877
# Velocity P-wave (km/s) = 5.44448 6.13278 5.79885
#
# Compressibility (1/GPa) = 0.02361512
#
# Stress axis : x y z
#
# Youngs Moduli (GPa) = 55.08107 100.12371 80.54449
#
# Poissons Ratio (x) = 0.36971 0.29790
# Poissons Ratio (y) = 0.20339 0.08702
# Poissons Ratio (z) = 0.20372 0.10817
#
# Static dielectric constant tensor:
#      x y z
#    x 1.654070 0.000000 0.000000 
#    y 0.000000 1.697650 0.000000 
#    z 0.000000 0.000000 1.744670 
# 
# From -- ./inp_files/61810.got.cif
#   From: 2010.05.17/outbox.cif.g08.bks.cpg/sg63_31_cif.got.tgz:61810.got - 2010.06.03 15:47:04.
