data_PCOD9473517
_publ_section_title
;
Structure prediction by ZEFSAII (Michael W. Deem and Ramdas Pophale) SiO2 
 PCOD9473517
Probable space group: C M C M
;
_chemical_formula_sum "Si O2"
_cell_formula_units_Z 112
_cell_length_a 14.248133
_cell_length_b 23.974592
_cell_length_c 14.991244
_cell_angle_alpha 90.000000
_cell_angle_beta 90.000000
_cell_angle_gamma 90.000000
_cell_volume 5120.906642
_symmetry_space_group_name_H-M "C M C M"
_symmetry_group_IT_number 63
_symmetry_cell_setting 'orthorhombic'
loop_
_space_group_symop_operation_xyz
x,y,z
-x,-y,1/2+z
x,-y,-z
-x,y,1/2-z
-x,-y,-z
x,y,1/2-z
-x,y,z
x,-y,1/2+z
1/2+x,1/2+y,z
1/2-x,1/2-y,1/2+z
1/2+x,1/2-y,-z
1/2-x,1/2+y,1/2-z
1/2-x,1/2-y,-z
1/2+x,1/2+y,1/2-z
1/2-x,1/2+y,z
1/2+x,1/2-y,1/2+z
loop_
_atom_site_type_symbol
_atom_site_label
_atom_site_fract_x
_atom_site_fract_y
_atom_site_fract_z
Si Si1 0.605890 0.249925 0.350832
Si Si2 0.720460 0.826600 0.972205
Si Si3 0.886696 0.335287 0.148808
Si Si4 0.391337 0.631315 0.580300
Si Si5 0.893184 0.993441 0.393279
Si Si6 0.603906 0.036212 0.643287
Si Si7 0.722005 0.066825 0.146146
O O1 0.611330 0.229598 0.250000
O O2 0.500000 0.235948 0.386143
O O3 0.689441 0.223016 0.407098
O O4 0.611526 0.317035 0.352077
O O5 0.693538 0.881885 0.915962
O O6 0.664063 0.811587 0.062617
O O7 0.825206 0.844609 0.002019
O O8 0.858608 0.318154 0.250000
O O9 0.862926 0.400711 0.136332
O O10 0.000000 0.329441 0.144306
O O11 0.500000 0.623426 0.551490
O O12 0.360853 0.571238 0.619918
O O13 0.000000 0.997946 0.360581
O O14 0.892998 0.000000 0.500000
O O15 0.828079 0.042781 0.357095
O O16 0.598224 0.026976 0.750000
O O17 0.500000 0.033029 0.604923
O O18 0.667446 0.987113 0.609304
O O19 0.700185 0.079192 0.250000
#
# Coordination Sequence:
#
# PCOD9473517 Si02
#       7
#    16  16  16  16  16  16  16
#     4  10  23  43  64  90 124 162 211 264 308 367
#     4  12  22  37  62  90 123 165 203 252 319 380
#     4   9  19  35  55  83 118 156 205 261 314 374
#     4  10  22  40  64  89 119 163 214 265 316 365
#     4  10  20  38  62  89 123 162 207 263 318 374
#     4   8  16  31  48  72 112 156 198 247 296 354
#     4  11  23  35  54  88 126 163 205 249 309 385
#
# _framework density 21.871127000000001
#
# number of rings (size 3 to 8) (size 9 to 14) (size 15 to 20)
#    0.000    2.000    1.429    3.000    0.000    2.571 
#    0.000    4.286    0.000    1.286    0.000    2.000 
#    0.000    0.000    0.000    0.000    0.000    0.000 
#
# Total GULP energy -312232.001060 kJ/mol
# GULP energy per Si atom -5575.571447 kJ/mol
# Density = 2.182135 g / cm^3
# Si number density = 21.871127 Si / 1000 Ang^3
#
#
#
# Elastic Constant Matrix: (Units=GPa)
#
#
# Indices 1 2 3 4 5 6 
#
# 1 30.6638 6.6714 20.9723 0.0000 0.0000 0.0000
# 2 6.6714 75.8833 17.5994 0.0000 0.0000 0.0000
# 3 20.9723 17.5994 101.6252 0.0000 0.0000 0.0000
# 4 0.0000 0.0000 0.0000 24.0240 0.0000 0.0000
# 5 0.0000 0.0000 0.0000 0.0000 6.2173 0.0000
# 6 0.0000 0.0000 0.0000 0.0000 0.0000 -16.3869
#
#
#
# Elastic Compliance Matrix: (Units=1/GPa)
#
#
# Indices 1 2 3 4 5 6 
#
# 1 0.038155 -0.001592 -0.007598 0.000000 0.000000 0.000000
# 2 -0.001592 0.013796 -0.002061 0.000000 0.000000 0.000000
# 3 -0.007598 -0.002061 0.011765 0.000000 0.000000 0.000000
# 4 0.000000 0.000000 0.000000 0.041625 0.000000 0.000000
# 5 0.000000 0.000000 0.000000 0.000000 0.160842 0.000000
# 6 0.000000 0.000000 0.000000 0.000000 0.000000 -0.061024
#
#
# Mechanical properties :
#
#
# Convention : Reuss Voigt Hill
#
# Bulk Modulus (GPa) = 24.26373 33.18428 28.72400
# Shear Modulus (GPa) = 20.71264 13.63282 17.17273
#
# Velocity S-wave (km/s) = 3.08073 2.49936 2.80514
# Velocity P-wave (km/s) = 4.87571 4.85125 4.86349
#
# Compressibility (1/GPa) = 0.04121378
#
# Stress axis : x y z
#
# Youngs Moduli (GPa) = 26.20891 72.48462 84.99793
#
# Poissons Ratio (x) = 0.11541 0.64584
# Poissons Ratio (y) = 0.04173 0.17515
# Poissons Ratio (z) = 0.19914 0.14936
#
# Static dielectric constant tensor:
#      x y z
#    x 1.892530 0.000000 0.000000 
#    y 0.000000 1.814300 0.000000 
#    z 0.000000 0.000000 1.813290 
# 
# From -- ./inp_files/32331.got.cif
#   From: 2010.05.17/outbox.cif.g08.bks.cpg/sg63_17_cif.got.tgz:32331.got - 2010.06.03 15:47:04.
