data_PCOD9473148
_publ_section_title
;
Structure prediction by ZEFSAII (Michael W. Deem and Ramdas Pophale) SiO2 
 PCOD9473148
Probable space group: C M C M
;
_chemical_formula_sum "Si O2"
_cell_formula_units_Z 64
_cell_length_a 7.826657
_cell_length_b 14.122760
_cell_length_c 28.734785
_cell_angle_alpha 90.000000
_cell_angle_beta 90.000000
_cell_angle_gamma 90.000000
_cell_volume 3176.170680
_symmetry_space_group_name_H-M "C M C M"
_symmetry_group_IT_number 63
_symmetry_cell_setting 'orthorhombic'
loop_
_space_group_symop_operation_xyz
x,y,z
-x,-y,1/2+z
x,-y,-z
-x,y,1/2-z
-x,-y,-z
x,y,1/2-z
-x,y,z
x,-y,1/2+z
1/2+x,1/2+y,z
1/2-x,1/2-y,1/2+z
1/2+x,1/2-y,-z
1/2-x,1/2+y,1/2-z
1/2-x,1/2-y,-z
1/2+x,1/2+y,1/2-z
1/2-x,1/2+y,z
1/2+x,1/2-y,1/2+z
loop_
_atom_site_type_symbol
_atom_site_label
_atom_site_fract_x
_atom_site_fract_y
_atom_site_fract_z
Si Si1 0.500000 0.368791 0.455101
Si Si2 0.198739 0.349553 0.387073
Si Si3 0.000000 0.901991 0.940217
Si Si4 0.190855 0.425379 0.875108
Si Si5 0.793828 0.213776 0.302417
O O1 0.331619 0.332406 0.428614
O O2 0.500000 0.483912 0.449149
O O3 0.500000 0.351632 0.510110
O O4 0.207312 0.461563 0.375963
O O5 0.250871 0.292743 0.340776
O O6 0.000000 0.328014 0.398480
O O7 0.833395 0.882812 0.909221
O O8 0.223017 0.382961 0.824194
O O9 0.000000 0.400756 0.890679
O O10 0.734379 0.232263 0.250000
O O11 0.000000 0.208577 0.301582
#
# Coordination Sequence:
#
# PCOD9473148 Si02
#       5
#     8  16   8  16  16
#     4   9  18  34  61  83 110 149 187 229 281 331
#     4   9  20  37  57  82 114 148 186 231 277 332
#     4   9  18  36  57  85 114 145 185 233 281 329
#     4  10  20  36  59  83 113 149 186 230 277 333
#     4  10  21  38  59  81 113 150 185 234 286 332
#
# _framework density 20.150051999999999
#
# number of rings (size 3 to 8) (size 9 to 14) (size 15 to 20)
#    0.000    2.500    1.250    0.000    1.750    2.500 
#    0.000    8.750    0.000    0.000    0.000    0.000 
#    0.000    0.000    0.000    0.000    0.000    0.000 
#
# Total GULP energy -178690.449536 kJ/mol
# GULP energy per Si atom -5584.076548 kJ/mol
# Density = 2.010419 g / cm^3
# Si number density = 20.150052 Si / 1000 Ang^3
#
#
#
# Elastic Constant Matrix: (Units=GPa)
#
#
# Indices 1 2 3 4 5 6 
#
# 1 72.9513 14.6913 46.0517 0.0000 0.0000 0.0000
# 2 14.6913 41.1410 11.5096 0.0000 0.0000 0.0000
# 3 46.0517 11.5096 128.9806 0.0000 0.0000 0.0000
# 4 0.0000 0.0000 0.0000 29.4343 0.0000 0.0000
# 5 0.0000 0.0000 0.0000 0.0000 21.9715 0.0000
# 6 0.0000 0.0000 0.0000 0.0000 0.0000 17.1854
#
#
#
# Elastic Compliance Matrix: (Units=1/GPa)
#
#
# Indices 1 2 3 4 5 6 
#
# 1 0.018616 -0.004911 -0.006209 0.000000 0.000000 0.000000
# 2 -0.004911 0.026224 -0.000587 0.000000 0.000000 0.000000
# 3 -0.006209 -0.000587 0.010022 0.000000 0.000000 0.000000
# 4 0.000000 0.000000 0.000000 0.033974 0.000000 0.000000
# 5 0.000000 0.000000 0.000000 0.000000 0.045514 0.000000
# 6 0.000000 0.000000 0.000000 0.000000 0.000000 0.058189
#
#
# Mechanical properties :
#
#
# Convention : Reuss Voigt Hill
#
# Bulk Modulus (GPa) = 31.79608 43.06424 37.43016
# Shear Modulus (GPa) = 22.08144 25.10627 23.59385
#
# Velocity S-wave (km/s) = 3.31395 3.53365 3.42557
# Velocity P-wave (km/s) = 5.51878 6.16985 5.85338
#
# Compressibility (1/GPa) = 0.03145042
#
# Stress axis : x y z
#
# Youngs Moduli (GPa) = 53.71730 38.13238 99.77881
#
# Poissons Ratio (x) = 0.18726 0.61948
# Poissons Ratio (y) = 0.26380 0.05855
# Poissons Ratio (z) = 0.33350 0.02237
#
# Static dielectric constant tensor:
#      x y z
#    x 1.714920 0.000000 0.000000 
#    y 0.000000 1.735980 0.000000 
#    z 0.000000 0.000000 1.672610 
# 
# From -- ./inp_files/59087.got.cif
#   From: 2010.05.17/outbox.cif.g08.bks.cpg/sg63_30_cif.got.tgz:59087.got - 2010.06.03 15:47:04.
