data_PCOD9474206
_publ_section_title
;
Structure prediction by ZEFSAII (Michael W. Deem and Ramdas Pophale) SiO2 
 PCOD9474206
Probable space group: C M C M
;
_chemical_formula_sum "Si O2"
_cell_formula_units_Z 56
_cell_length_a 22.417107
_cell_length_b 9.698323
_cell_length_c 14.139667
_cell_angle_alpha 90.000000
_cell_angle_beta 90.000000
_cell_angle_gamma 90.000000
_cell_volume 3074.081593
_symmetry_space_group_name_H-M "C M C M"
_symmetry_group_IT_number 63
_symmetry_cell_setting 'orthorhombic'
loop_
_space_group_symop_operation_xyz
x,y,z
-x,-y,1/2+z
x,-y,-z
-x,y,1/2-z
-x,-y,-z
x,y,1/2-z
-x,y,z
x,-y,1/2+z
1/2+x,1/2+y,z
1/2-x,1/2-y,1/2+z
1/2+x,1/2-y,-z
1/2-x,1/2+y,1/2-z
1/2-x,1/2-y,-z
1/2+x,1/2+y,1/2-z
1/2-x,1/2+y,z
1/2+x,1/2-y,1/2+z
loop_
_atom_site_type_symbol
_atom_site_label
_atom_site_fract_x
_atom_site_fract_y
_atom_site_fract_z
Si Si1 0.000000 0.905709 0.863893
Si Si2 0.369283 0.496205 0.637382
Si Si3 0.397892 0.000000 0.000000
Si Si4 0.179675 0.224646 0.498392
Si Si5 0.000000 0.584330 0.636430
O O1 0.000000 0.898460 0.750000
O O2 0.000000 0.745869 0.895179
O O3 0.939155 0.982372 0.889724
O O4 0.363982 0.505560 0.750000
O O5 0.338569 0.358723 0.596169
O O6 0.340008 0.624406 0.583812
O O7 0.356741 0.134272 0.004891
O O8 0.441910 0.015050 0.910062
O O9 0.250000 0.250000 0.500000
O O10 0.000000 0.576812 0.750000
#
# Coordination Sequence:
#
# PCOD9474206 Si02
#       5
#     8  16   8  16   8
#     4   9  17  36  64  90 115 151 201 249 299 356
#     4  10  22  41  65  89 117 159 203 249 302 356
#     4  11  22  38  62  92 124 161 194 248 318 351
#     4  11  24  41  60  88 124 160 207 249 290 360
#     4  10  21  37  60  92 126 158 196 248 312 368
#
# _framework density 18.216822000000001
#
# number of rings (size 3 to 8) (size 9 to 14) (size 15 to 20)
#    0.000    1.714    2.857    1.714    0.000    6.857 
#    0.000    4.286    0.000    0.000    0.000    0.000 
#    0.000    0.000    0.000    0.000    0.000    0.000 
#
# Total GULP energy -156369.170841 kJ/mol
# GULP energy per Si atom -5584.613244 kJ/mol
# Density = 1.817536 g / cm^3
# Si number density = 18.216822 Si / 1000 Ang^3
#
#
#
# Elastic Constant Matrix: (Units=GPa)
#
#
# Indices 1 2 3 4 5 6 
#
# 1 199.0429 86.7202 57.0713 0.0000 0.0000 0.0000
# 2 86.7202 151.5048 55.3880 0.0000 0.0000 0.0000
# 3 57.0713 55.3880 131.0724 0.0000 0.0000 0.0000
# 4 0.0000 0.0000 0.0000 24.7018 0.0000 0.0000
# 5 0.0000 0.0000 0.0000 0.0000 18.0464 0.0000
# 6 0.0000 0.0000 0.0000 0.0000 0.0000 11.6771
#
#
#
# Elastic Compliance Matrix: (Units=1/GPa)
#
#
# Indices 1 2 3 4 5 6 
#
# 1 0.006964 -0.003403 -0.001594 0.000000 0.000000 0.000000
# 2 -0.003403 0.009470 -0.002520 0.000000 0.000000 0.000000
# 3 -0.001594 -0.002520 0.009388 0.000000 0.000000 0.000000
# 4 0.000000 0.000000 0.000000 0.040483 0.000000 0.000000
# 5 0.000000 0.000000 0.000000 0.000000 0.055413 0.000000
# 6 0.000000 0.000000 0.000000 0.000000 0.000000 0.085638
#
#
# Mechanical properties :
#
#
# Convention : Reuss Voigt Hill
#
# Bulk Modulus (GPa) = 92.69976 97.77545 95.23760
# Shear Modulus (GPa) = 22.12532 29.71443 25.91987
#
# Velocity S-wave (km/s) = 3.48883 4.04314 3.77617
# Velocity P-wave (km/s) = 8.19918 8.69400 8.45021
#
# Compressibility (1/GPa) = 0.01078751
#
# Stress axis : x y z
#
# Youngs Moduli (GPa) = 143.59827 105.60021 106.51614
#
# Poissons Ratio (x) = 0.35939 0.16979
# Poissons Ratio (y) = 0.48871 0.26840
# Poissons Ratio (z) = 0.22890 0.26609
#
# Static dielectric constant tensor:
#      x y z
#    x 1.619090 0.000000 0.000000 
#    y 0.000000 1.613460 0.000000 
#    z 0.000000 0.000000 1.619990 
# 
# From -- ./inp_files/34799.got.cif
#   From: 2010.05.17/outbox.cif.g08.bks.cpg/sg63_18_cif.got.tgz:34799.got - 2010.06.03 15:47:04.
