data_PCOD9474059
_publ_section_title
;
Structure prediction by ZEFSAII (Michael W. Deem and Ramdas Pophale) SiO2 
 PCOD9474059
Probable space group: C M C M
;
_chemical_formula_sum "Si O2"
_cell_formula_units_Z 72
_cell_length_a 22.629359
_cell_length_b 20.090135
_cell_length_c 8.478237
_cell_angle_alpha 90.000000
_cell_angle_beta 90.000000
_cell_angle_gamma 90.000000
_cell_volume 3854.434412
_symmetry_space_group_name_H-M "C M C M"
_symmetry_group_IT_number 63
_symmetry_cell_setting 'orthorhombic'
loop_
_space_group_symop_operation_xyz
x,y,z
-x,-y,1/2+z
x,-y,-z
-x,y,1/2-z
-x,-y,-z
x,y,1/2-z
-x,y,z
x,-y,1/2+z
1/2+x,1/2+y,z
1/2-x,1/2-y,1/2+z
1/2+x,1/2-y,-z
1/2-x,1/2+y,1/2-z
1/2-x,1/2-y,-z
1/2+x,1/2+y,1/2-z
1/2-x,1/2+y,z
1/2+x,1/2-y,1/2+z
loop_
_atom_site_type_symbol
_atom_site_label
_atom_site_fract_x
_atom_site_fract_y
_atom_site_fract_z
Si Si1 0.110722 0.339450 0.060562
Si Si2 0.068307 0.801156 0.059124
Si Si3 0.280145 0.073105 0.940270
Si Si4 0.144626 0.072960 0.940478
Si Si5 0.000000 0.424659 0.561607
O O1 0.109169 0.339319 0.250000
O O2 0.172625 0.372045 0.007785
O O3 0.100360 0.265142 0.999753
O O4 0.057487 0.385470 0.999089
O O5 0.068588 0.800276 0.250000
O O6 0.102133 0.867675 0.006426
O O7 0.000000 0.800367 0.006953
O O8 0.280278 0.071891 0.750000
O O9 0.212579 0.085177 0.992428
O O10 0.298038 0.000000 0.000000
O O11 0.144120 0.071894 0.750000
O O12 0.126851 0.000000 0.000000
O O13 0.000000 0.500000 0.500000
O O14 0.000000 0.424550 0.750000
#
# Coordination Sequence:
#
# PCOD9474059 Si02
#       5
#    16  16  16  16   8
#     4  11  22  36  55  81 111 145 186 230 274 325
#     4  10  21  37  56  79 111 150 186 226 278 332
#     4   9  19  35  55  80 110 143 182 229 277 326
#     4   9  19  37  58  81 110 143 183 230 280 332
#     4  12  24  38  56  80 111 148 187 226 272 324
#
# _framework density 18.679784000000001
#
# number of rings (size 3 to 8) (size 9 to 14) (size 15 to 20)
#    0.000    2.000    1.111    2.333    0.000    5.778 
#    0.000    0.000    0.000    0.000    0.000    0.000 
#    0.000    0.000    0.000    0.000    0.000    0.000 
#
# Total GULP energy -201045.943513 kJ/mol
# GULP energy per Si atom -5584.609542 kJ/mol
# Density = 1.863727 g / cm^3
# Si number density = 18.679784 Si / 1000 Ang^3
#
#
#
# Elastic Constant Matrix: (Units=GPa)
#
#
# Indices 1 2 3 4 5 6 
#
# 1 96.4605 101.1095 21.0090 0.0000 0.0000 0.0000
# 2 101.1095 193.2725 24.8370 0.0000 0.0000 0.0000
# 3 21.0090 24.8370 17.6655 0.0000 0.0000 0.0000
# 4 0.0000 0.0000 0.0000 33.2810 0.0000 0.0000
# 5 0.0000 0.0000 0.0000 0.0000 8.0086 0.0000
# 6 0.0000 0.0000 0.0000 0.0000 0.0000 68.5074
#
#
#
# Elastic Compliance Matrix: (Units=1/GPa)
#
#
# Indices 1 2 3 4 5 6 
#
# 1 0.025558 -0.011552 -0.014154 0.000000 0.000000 0.000000
# 2 -0.011552 0.011536 -0.002481 0.000000 0.000000 0.000000
# 3 -0.014154 -0.002481 0.076929 0.000000 0.000000 0.000000
# 4 0.000000 0.000000 0.000000 0.030047 0.000000 0.000000
# 5 0.000000 0.000000 0.000000 0.000000 0.124866 0.000000
# 6 0.000000 0.000000 0.000000 0.000000 0.000000 0.014597
#
#
# Mechanical properties :
#
#
# Convention : Reuss Voigt Hill
#
# Bulk Modulus (GPa) = 17.34635 66.81219 42.07927
# Shear Modulus (GPa) = 13.92275 32.65559 23.28917
#
# Velocity S-wave (km/s) = 2.73305 4.18566 3.53478
# Velocity P-wave (km/s) = 4.38927 7.69444 6.26379
#
# Compressibility (1/GPa) = 0.05764903
#
# Stress axis : x y z
#
# Youngs Moduli (GPa) = 39.12646 86.68441 12.99896
#
# Poissons Ratio (x) = 1.00135 0.18399
# Poissons Ratio (y) = 0.45198 0.03225
# Poissons Ratio (z) = 0.55381 0.21509
#
# Static dielectric constant tensor:
#      x y z
#    x 1.649230 0.000000 0.000000 
#    y 0.000000 1.611920 0.000000 
#    z 0.000000 0.000000 1.642720 
# 
# From -- ./inp_files/7796.got.cif
#   From: 2010.05.17/outbox.cif.g08.bks.cpg/sg63_4_cif.got.tgz:7796.got - 2010.06.03 15:47:04.
