data_PCOD9474683
_publ_section_title
;
Structure prediction by ZEFSAII (Michael W. Deem and Ramdas Pophale) SiO2 
 PCOD9474683
Probable space group: C M C M
;
_chemical_formula_sum "Si O2"
_cell_formula_units_Z 56
_cell_length_a 20.653266
_cell_length_b 11.562148
_cell_length_c 10.016222
_cell_angle_alpha 90.000000
_cell_angle_beta 90.000000
_cell_angle_gamma 90.000000
_cell_volume 2391.834932
_symmetry_space_group_name_H-M "C M C M"
_symmetry_group_IT_number 63
_symmetry_cell_setting 'orthorhombic'
loop_
_space_group_symop_operation_xyz
x,y,z
-x,-y,1/2+z
x,-y,-z
-x,y,1/2-z
-x,-y,-z
x,y,1/2-z
-x,y,z
x,-y,1/2+z
1/2+x,1/2+y,z
1/2-x,1/2-y,1/2+z
1/2+x,1/2-y,-z
1/2-x,1/2+y,1/2-z
1/2-x,1/2-y,-z
1/2+x,1/2+y,1/2-z
1/2-x,1/2+y,z
1/2+x,1/2-y,1/2+z
loop_
_atom_site_type_symbol
_atom_site_label
_atom_site_fract_x
_atom_site_fract_y
_atom_site_fract_z
Si Si1 0.922367 0.406821 0.250000
Si Si2 0.806513 0.776400 0.398592
Si Si3 0.576803 0.642289 0.250000
Si Si4 0.132217 0.000000 0.000000
Si Si5 0.422062 0.905640 0.918787
O O1 0.910312 0.442427 0.413626
O O2 0.000000 0.394744 0.250000
O O3 0.895044 0.273379 0.250000
O O4 0.782474 0.753065 0.250000
O O5 0.750000 0.750000 0.500000
O O6 0.825386 0.908748 0.418689
O O7 0.870490 0.699266 0.419333
O O8 0.500000 0.651571 0.250000
O O9 0.595477 0.572928 0.114852
O O10 0.416705 0.934405 0.750000
O O11 0.500000 0.876574 0.927328
#
# Coordination Sequence:
#
# PCOD9474683 Si02
#       5
#     8  16   8   8  16
#     4   9  18  37  70 110 147 185 241 316 389 452
#     4  12  29  52  80 111 154 211 263 326 391 472
#     4  11  24  45  78 118 163 203 249 320 397 480
#     4  12  27  52  72 110 155 208 270 306 390 488
#     4  10  21  43  77 115 147 187 253 326 392 456
#
# _framework density 23.412987999999999
#
# number of rings (size 3 to 8) (size 9 to 14) (size 15 to 20)
#    0.000    1.143    2.857    2.143    4.000    4.571 
#    2.571    0.000    0.000    0.000    0.000    0.000 
#    0.000    0.000    0.000    0.000    0.000    0.000 
#
# Total GULP energy -156360.174376 kJ/mol
# GULP energy per Si atom -5584.291942 kJ/mol
# Density = 2.335970 g / cm^3
# Si number density = 23.412988 Si / 1000 Ang^3
#
#
#
# Elastic Constant Matrix: (Units=GPa)
#
#
# Indices 1 2 3 4 5 6 
#
# 1 92.4166 73.0871 48.1670 0.0000 0.0000 0.0000
# 2 73.0871 172.5252 87.9328 0.0000 0.0000 0.0000
# 3 48.1670 87.9328 238.2443 0.0000 0.0000 0.0000
# 4 0.0000 0.0000 0.0000 55.8977 0.0000 0.0000
# 5 0.0000 0.0000 0.0000 0.0000 55.8291 0.0000
# 6 0.0000 0.0000 0.0000 0.0000 0.0000 -13.0702
#
#
#
# Elastic Compliance Matrix: (Units=1/GPa)
#
#
# Indices 1 2 3 4 5 6 
#
# 1 0.016437 -0.006490 -0.000928 0.000000 0.000000 0.000000
# 2 -0.006490 0.009702 -0.002269 0.000000 0.000000 0.000000
# 3 -0.000928 -0.002269 0.005222 0.000000 0.000000 0.000000
# 4 0.000000 0.000000 0.000000 0.017890 0.000000 0.000000
# 5 0.000000 0.000000 0.000000 0.000000 0.017912 0.000000
# 6 0.000000 0.000000 0.000000 0.000000 0.000000 -0.076510
#
#
# Mechanical properties :
#
#
# Convention : Reuss Voigt Hill
#
# Bulk Modulus (GPa) = 83.41798 102.39555 92.90676
# Shear Modulus (GPa) = 356.57611 39.33127 197.95369
#
# Velocity S-wave (km/s) = 12.35431 4.10309 9.20501
# Velocity P-wave (km/s) = 15.46647 8.14105 12.35897
#
# Compressibility (1/GPa) = 0.01198782
#
# Stress axis : x y z
#
# Youngs Moduli (GPa) = 60.83856 103.07010 191.48764
#
# Poissons Ratio (x) = 0.66897 0.17762
# Poissons Ratio (y) = 0.39487 0.43443
# Poissons Ratio (z) = 0.05643 0.23384
#
# Static dielectric constant tensor:
#      x y z
#    x 1.757670 0.000000 0.000000 
#    y 0.000000 1.930320 0.000000 
#    z 0.000000 0.000000 1.932970 
# 
# From -- ./inp_files/5553.got.cif
#   From: 2010.05.17/outbox.cif.g08.bks.cpg/sg63_3_cif.got.tgz:5553.got - 2010.06.03 15:47:04.
