data_PCOD9474233
_publ_section_title
;
Structure prediction by ZEFSAII (Michael W. Deem and Ramdas Pophale) SiO2 
 PCOD9474233
Probable space group: C M C M
;
_chemical_formula_sum "Si O2"
_cell_formula_units_Z 96
_cell_length_a 13.747876
_cell_length_b 13.370680
_cell_length_c 22.076577
_cell_angle_alpha 90.000000
_cell_angle_beta 90.000000
_cell_angle_gamma 90.000000
_cell_volume 4058.082180
_symmetry_space_group_name_H-M "C M C M"
_symmetry_group_IT_number 63
_symmetry_cell_setting 'orthorhombic'
loop_
_space_group_symop_operation_xyz
x,y,z
-x,-y,1/2+z
x,-y,-z
-x,y,1/2-z
-x,-y,-z
x,y,1/2-z
-x,y,z
x,-y,1/2+z
1/2+x,1/2+y,z
1/2-x,1/2-y,1/2+z
1/2+x,1/2-y,-z
1/2-x,1/2+y,1/2-z
1/2-x,1/2-y,-z
1/2+x,1/2+y,1/2-z
1/2-x,1/2+y,z
1/2+x,1/2-y,1/2+z
loop_
_atom_site_type_symbol
_atom_site_label
_atom_site_fract_x
_atom_site_fract_y
_atom_site_fract_z
Si Si1 0.609199 0.720308 0.389141
Si Si2 0.795584 0.829048 0.361098
Si Si3 0.883587 0.621187 0.317395
Si Si4 0.889412 0.023620 0.180844
Si Si5 0.110276 0.407757 0.546428
Si Si6 0.820067 0.878955 0.002938
O O1 0.500000 0.744025 0.370739
O O2 0.682363 0.807058 0.371503
O O3 0.644026 0.619427 0.355897
O O4 0.613341 0.684788 0.458272
O O5 0.842614 0.732624 0.329564
O O6 0.821545 0.928811 0.326082
O O7 0.836212 0.846493 0.428507
O O8 0.848456 0.586177 0.250000
O O9 0.867098 0.566653 0.382712
O O10 0.000000 0.626019 0.313068
O O11 0.894785 0.054160 0.250000
O O12 0.000000 0.997632 0.160471
O O13 0.103076 0.500000 0.500000
O O14 0.209668 0.357760 0.521364
O O15 0.000000 0.362063 0.546030
O O16 0.834654 0.000000 0.000000
#
# Coordination Sequence:
#
# PCOD9474233 Si02
#       6
#    16  16  16  16  16  16
#     4  11  25  43  64  99 139 180 227 283 351 417
#     4  12  23  40  67 101 133 178 231 288 349 421
#     4  10  21  37  62  97 130 168 228 294 352 415
#     4  10  23  45  71  99 134 177 230 290 352 421
#     4   9  19  37  62  92 130 174 220 282 350 412
#     4  11  22  42  65  94 132 177 235 283 344 424
#
# _framework density 23.656495
#
# number of rings (size 3 to 8) (size 9 to 14) (size 15 to 20)
#    0.000    1.500    3.333    1.500    0.000    5.000 
#    0.000    0.000    0.000    2.000    0.000    0.000 
#    0.000    0.000    0.000    0.000    0.000    0.000 
#
# Total GULP energy -268269.916298 kJ/mol
# GULP energy per Si atom -5588.956590 kJ/mol
# Density = 2.360265 g / cm^3
# Si number density = 23.656495 Si / 1000 Ang^3
#
#
#
# Elastic Constant Matrix: (Units=GPa)
#
#
# Indices 1 2 3 4 5 6 
#
# 1 86.6171 25.0926 6.0583 0.0000 0.0000 0.0000
# 2 25.0926 67.4606 21.8355 0.0000 0.0000 0.0000
# 3 6.0583 21.8355 160.3310 0.0000 0.0000 0.0000
# 4 0.0000 0.0000 0.0000 164.0679 0.0000 0.0000
# 5 0.0000 0.0000 0.0000 0.0000 26.5695 0.0000
# 6 0.0000 0.0000 0.0000 0.0000 0.0000 25.4804
#
#
#
# Elastic Compliance Matrix: (Units=1/GPa)
#
#
# Indices 1 2 3 4 5 6 
#
# 1 0.012944 -0.004871 0.000174 0.000000 0.000000 0.000000
# 2 -0.004871 0.017340 -0.002177 0.000000 0.000000 0.000000
# 3 0.000174 -0.002177 0.006527 0.000000 0.000000 0.000000
# 4 0.000000 0.000000 0.000000 0.006095 0.000000 0.000000
# 5 0.000000 0.000000 0.000000 0.000000 0.037637 0.000000
# 6 0.000000 0.000000 0.000000 0.000000 0.000000 0.039246
#
#
# Mechanical properties :
#
#
# Convention : Reuss Voigt Hill
#
# Bulk Modulus (GPa) = 43.36016 46.70906 45.03461
# Shear Modulus (GPa) = 35.40442 60.65171 48.02806
#
# Velocity S-wave (km/s) = 3.87279 5.06894 4.51069
# Velocity P-wave (km/s) = 6.19410 7.35163 6.79755
#
# Compressibility (1/GPa) = 0.02306264
#
# Stress axis : x y z
#
# Youngs Moduli (GPa) = 77.25595 57.66983 153.20822
#
# Poissons Ratio (x) = 0.28091 -0.02670
# Poissons Ratio (y) = 0.37632 0.33361
# Poissons Ratio (z) = -0.01346 0.12558
#
# Static dielectric constant tensor:
#      x y z
#    x 1.935760 0.000000 0.000000 
#    y 0.000000 1.891000 0.000000 
#    z 0.000000 0.000000 1.900670 
# 
# From -- ./inp_files/54170.got.cif
#   From: 2010.05.17/outbox.cif.g08.bks.cpg/sg63_28_cif.got.tgz:54170.got - 2010.06.03 15:47:04.
