data_PCOD9474815
_publ_section_title
;
Structure prediction by ZEFSAII (Michael W. Deem and Ramdas Pophale) SiO2 
 PCOD9474815
Probable space group: C M C M
;
_chemical_formula_sum "Si O2"
_cell_formula_units_Z 80
_cell_length_a 7.530768
_cell_length_b 14.555299
_cell_length_c 31.410332
_cell_angle_alpha 90.000000
_cell_angle_beta 90.000000
_cell_angle_gamma 90.000000
_cell_volume 3442.967527
_symmetry_space_group_name_H-M "C M C M"
_symmetry_group_IT_number 63
_symmetry_cell_setting 'orthorhombic'
loop_
_space_group_symop_operation_xyz
x,y,z
-x,-y,1/2+z
x,-y,-z
-x,y,1/2-z
-x,-y,-z
x,y,1/2-z
-x,y,z
x,-y,1/2+z
1/2+x,1/2+y,z
1/2-x,1/2-y,1/2+z
1/2+x,1/2-y,-z
1/2-x,1/2+y,1/2-z
1/2-x,1/2-y,-z
1/2+x,1/2+y,1/2-z
1/2-x,1/2+y,z
1/2+x,1/2-y,1/2+z
loop_
_atom_site_type_symbol
_atom_site_label
_atom_site_fract_x
_atom_site_fract_y
_atom_site_fract_z
Si Si1 0.787067 0.542566 0.797316
Si Si2 0.203188 0.112232 0.463836
Si Si3 0.287106 0.196312 0.643231
Si Si4 0.712285 0.674440 0.949943
Si Si5 0.213903 0.098379 0.372544
O O1 0.718555 0.522150 0.750000
O O2 0.719392 0.638243 0.817065
O O3 0.751123 0.468142 0.833639
O O4 0.000000 0.549303 0.794286
O O5 0.205396 0.223567 0.455508
O O6 0.277755 0.108682 0.511850
O O7 0.283199 0.073883 0.419991
O O8 0.000000 0.079007 0.466010
O O9 0.500000 0.201644 0.646683
O O10 0.246538 0.146405 0.598461
O O11 0.218793 0.299805 0.639255
O O12 0.500000 0.683821 0.955283
O O13 0.000000 0.103328 0.377128
#
# Coordination Sequence:
#
# PCOD9474815 Si02
#       5
#    16  16  16  16  16
#     4  10  22  39  56  75 101 133 171 217 266 312
#     4   8  15  28  46  72 107 142 170 200 247 304
#     4   9  19  36  55  75 104 140 172 205 254 313
#     4   9  15  25  47  77 105 135 172 210 245 289
#     4   9  18  34  56  79 103 134 172 210 250 302
#
# _framework density 23.235766999999999
#
# number of rings (size 3 to 8) (size 9 to 14) (size 15 to 20)
#    0.000    3.000    0.000    1.800    0.000    6.000 
#    0.000    3.000    0.000    6.000    0.000    0.000 
#    0.000    0.000    0.000    0.000    0.000    0.000 
#
# Total GULP energy -223200.592783 kJ/mol
# GULP energy per Si atom -5580.014820 kJ/mol
# Density = 2.318288 g / cm^3
# Si number density = 23.235767 Si / 1000 Ang^3
#
#
#
# Elastic Constant Matrix: (Units=GPa)
#
#
# Indices 1 2 3 4 5 6 
#
# 1 67.4029 4.2488 1.1363 0.0000 0.0000 0.0000
# 2 4.2488 65.8858 45.7620 0.0000 0.0000 0.0000
# 3 1.1363 45.7620 177.8506 0.0000 0.0000 0.0000
# 4 0.0000 0.0000 0.0000 33.7468 0.0000 0.0000
# 5 0.0000 0.0000 0.0000 0.0000 23.6441 0.0000
# 6 0.0000 0.0000 0.0000 0.0000 0.0000 8.8639
#
#
#
# Elastic Compliance Matrix: (Units=1/GPa)
#
#
# Indices 1 2 3 4 5 6 
#
# 1 0.014902 -0.001090 0.000185 0.000000 0.000000 0.000000
# 2 -0.001090 0.018560 -0.004769 0.000000 0.000000 0.000000
# 3 0.000185 -0.004769 0.006849 0.000000 0.000000 0.000000
# 4 0.000000 0.000000 0.000000 0.029632 0.000000 0.000000
# 5 0.000000 0.000000 0.000000 0.000000 0.042294 0.000000
# 6 0.000000 0.000000 0.000000 0.000000 0.000000 0.112817
#
#
# Mechanical properties :
#
#
# Convention : Reuss Voigt Hill
#
# Bulk Modulus (GPa) = 34.52534 45.93705 40.23119
# Shear Modulus (GPa) = 20.32071 30.58379 25.45225
#
# Velocity S-wave (km/s) = 2.96048 3.63193 3.31326
# Velocity P-wave (km/s) = 5.15528 6.11562 5.65587
#
# Compressibility (1/GPa) = 0.02896423
#
# Stress axis : x y z
#
# Youngs Moduli (GPa) = 67.10637 53.87874 146.01690
#
# Poissons Ratio (x) = 0.05870 -0.02703
# Poissons Ratio (y) = 0.07312 0.69631
# Poissons Ratio (z) = -0.01242 0.25693
#
# Static dielectric constant tensor:
#      x y z
#    x 1.936440 0.000000 0.000000 
#    y 0.000000 1.899630 0.000000 
#    z 0.000000 0.000000 1.922410 
# 
# From -- ./inp_files/71585.got.cif
#   From: 2010.05.17/outbox.cif.g08.bks.cpg/sg63_36_cif.got.tgz:71585.got - 2010.06.03 15:47:04.
