data_PCOD9474588
_publ_section_title
;
Structure prediction by ZEFSAII (Michael W. Deem and Ramdas Pophale) SiO2 
 PCOD9474588
Probable space group: C M C M
;
_chemical_formula_sum "Si O2"
_cell_formula_units_Z 116
_cell_length_a 29.185016
_cell_length_b 11.532149
_cell_length_c 18.010342
_cell_angle_alpha 90.000000
_cell_angle_beta 90.000000
_cell_angle_gamma 90.000000
_cell_volume 6061.667921
_symmetry_space_group_name_H-M "C M C M"
_symmetry_group_IT_number 63
_symmetry_cell_setting 'orthorhombic'
loop_
_space_group_symop_operation_xyz
x,y,z
-x,-y,1/2+z
x,-y,-z
-x,y,1/2-z
-x,-y,-z
x,y,1/2-z
-x,y,z
x,-y,1/2+z
1/2+x,1/2+y,z
1/2-x,1/2-y,1/2+z
1/2+x,1/2-y,-z
1/2-x,1/2+y,1/2-z
1/2-x,1/2-y,-z
1/2+x,1/2+y,1/2-z
1/2-x,1/2+y,z
1/2+x,1/2-y,1/2+z
loop_
_atom_site_type_symbol
_atom_site_label
_atom_site_fract_x
_atom_site_fract_y
_atom_site_fract_z
Si Si1 0.226739 0.752839 0.420216
Si Si2 0.337845 0.407396 0.333699
Si Si3 0.945264 0.134546 0.484293
Si Si4 0.653566 0.045486 0.081582
Si Si5 0.000000 0.719683 0.250000
Si Si6 0.084061 0.274931 0.869393
Si Si7 0.689410 0.824810 0.333108
Si Si8 0.107703 0.854906 0.833941
O O1 0.250000 0.750000 0.500000
O O2 0.198980 0.868021 0.394990
O O3 0.190229 0.649751 0.419398
O O4 0.269047 0.747814 0.363764
O O5 0.317914 0.409030 0.250000
O O6 0.377924 0.311623 0.335915
O O7 0.362367 0.529389 0.347341
O O8 0.926949 0.218838 0.549386
O O9 0.926719 0.161409 0.402060
O O10 0.000000 0.141274 0.485441
O O11 0.932165 0.000000 0.500000
O O12 0.608686 0.100449 0.120238
O O13 0.678690 0.938858 0.120552
O O14 0.641379 0.000000 0.000000
O O15 0.040422 0.721394 0.184335
O O16 0.700310 0.860171 0.250000
O O17 0.643413 0.749612 0.334224
O O18 0.087521 0.864998 0.750000
#
# Coordination Sequence:
#
# PCOD9474588 Si02
#       8
#    16  16  16  16   4  16  16  16
#     4  11  24  40  64  96 126 168 223 268 321 388
#     4  10  21  40  63  94 129 168 213 270 331 388
#     4  11  22  38  62  98 130 163 209 268 339 397
#     4  11  24  44  69  93 133 177 220 274 335 392
#     4  12  24  44  72 104 132 164 236 284 330 404
#     4  11  23  41  68  99 130 169 219 283 334 397
#     4  11  25  42  63  93 129 173 219 268 320 389
#     4  10  23  41  64  91 131 174 213 263 331 399
#
# _framework density 19.136648000000001
#
# number of rings (size 3 to 8) (size 9 to 14) (size 15 to 20)
#    0.000    1.241    4.138    1.241    4.828    1.379 
#    0.000    0.345    1.517    0.000    0.000    0.000 
#    0.000    0.000    0.000    0.000    0.000    0.000 
#
# Total GULP energy -323176.148501 kJ/mol
# GULP energy per Si atom -5572.002560 kJ/mol
# Density = 1.909309 g / cm^3
# Si number density = 19.136648 Si / 1000 Ang^3
#
#
#
# Elastic Constant Matrix: (Units=GPa)
#
#
# Indices 1 2 3 4 5 6 
#
# 1 68.2650 1.1290 32.4104 0.0000 0.0000 0.0000
# 2 1.1290 50.1933 8.4791 0.0000 0.0000 0.0000
# 3 32.4104 8.4791 119.7664 0.0000 0.0000 0.0000
# 4 0.0000 0.0000 0.0000 -3.3439 0.0000 0.0000
# 5 0.0000 0.0000 0.0000 0.0000 44.3925 0.0000
# 6 0.0000 0.0000 0.0000 0.0000 0.0000 11.5014
#
#
#
# Elastic Compliance Matrix: (Units=1/GPa)
#
#
# Indices 1 2 3 4 5 6 
#
# 1 0.016816 0.000395 -0.004579 0.000000 0.000000 0.000000
# 2 0.000395 0.020173 -0.001535 0.000000 0.000000 0.000000
# 3 -0.004579 -0.001535 0.009697 0.000000 0.000000 0.000000
# 4 0.000000 0.000000 0.000000 -0.299055 0.000000 0.000000
# 5 0.000000 0.000000 0.000000 0.000000 0.022526 0.000000
# 6 0.000000 0.000000 0.000000 0.000000 0.000000 0.086946
#
#
# Mechanical properties :
#
#
# Convention : Reuss Voigt Hill
#
# Bulk Modulus (GPa) = 28.36908 35.80685 32.08796
# Shear Modulus (GPa) = -41.76807 23.59041 -9.08883
#
# Velocity S-wave (km/s) = -4.67692 3.51484 -2.18168
# Velocity P-wave (km/s) = 3.78261 5.93497 3.23386
#
# Compressibility (1/GPa) = 0.03524965
#
# Stress axis : x y z
#
# Youngs Moduli (GPa) = 59.46691 49.57014 103.12132
#
# Poissons Ratio (x) = -0.01959 0.47216
# Poissons Ratio (y) = -0.02350 0.15831
# Poissons Ratio (z) = 0.27228 0.07610
#
# Static dielectric constant tensor:
#      x y z
#    x 1.655830 0.000000 0.000000 
#    y 0.000000 1.645920 0.000000 
#    z 0.000000 0.000000 1.821950 
# 
# From -- ./inp_files/49103.got.cif
#   From: 2010.05.17/outbox.cif.g08.bks.cpg/sg63_25_cif.got.tgz:49103.got - 2010.06.03 15:47:04.
