data_PCOD9474917
_publ_section_title
;
Structure prediction by ZEFSAII (Michael W. Deem and Ramdas Pophale) SiO2 
 PCOD9474917
Probable space group: C M C M
;
_chemical_formula_sum "Si O2"
_cell_formula_units_Z 96
_cell_length_a 8.691664
_cell_length_b 29.444105
_cell_length_c 20.822076
_cell_angle_alpha 90.000000
_cell_angle_beta 90.000000
_cell_angle_gamma 90.000000
_cell_volume 5328.749614
_symmetry_space_group_name_H-M "C M C M"
_symmetry_group_IT_number 63
_symmetry_cell_setting 'orthorhombic'
loop_
_space_group_symop_operation_xyz
x,y,z
-x,-y,1/2+z
x,-y,-z
-x,y,1/2-z
-x,-y,-z
x,y,1/2-z
-x,y,z
x,-y,1/2+z
1/2+x,1/2+y,z
1/2-x,1/2-y,1/2+z
1/2+x,1/2-y,-z
1/2-x,1/2+y,1/2-z
1/2-x,1/2-y,-z
1/2+x,1/2+y,1/2-z
1/2-x,1/2+y,z
1/2+x,1/2-y,1/2+z
loop_
_atom_site_type_symbol
_atom_site_label
_atom_site_fract_x
_atom_site_fract_y
_atom_site_fract_z
Si Si1 0.316694 0.875038 0.018435
Si Si2 0.316172 0.530919 0.937815
Si Si3 0.815219 0.780056 0.058506
Si Si4 0.315746 0.216091 0.323204
Si Si5 0.684028 0.971081 0.676273
Si Si6 0.183099 0.122562 0.374331
O O1 0.500000 0.873157 0.012295
O O2 0.264884 0.920717 0.054093
O O3 0.255544 0.829958 0.053132
O O4 0.242951 0.876180 0.947427
O O5 0.500000 0.537044 0.937335
O O6 0.262133 0.504494 0.874681
O O7 0.277178 0.500000 0.000000
O O8 0.776179 0.754311 0.124594
O O9 0.000000 0.782676 0.052866
O O10 0.750000 0.750000 0.000000
O O11 0.281229 0.229309 0.250000
O O12 0.500000 0.208079 0.328261
O O13 0.231617 0.169460 0.341086
O O14 0.722157 0.982326 0.750000
O O15 0.500000 0.973005 0.668456
O O16 0.740585 0.920278 0.660625
O O17 0.000000 0.117186 0.374140
#
# Coordination Sequence:
#
# PCOD9474917 Si02
#       6
#    16  16  16  16  16  16
#     4  12  24  39  62  90 122 159 202 253 303 357
#     4  11  23  40  64  92 121 157 203 253 301 359
#     4  11  22  38  62  89 121 159 202 250 298 357
#     4  10  22  40  61  87 121 161 201 243 299 362
#     4  11  24  41  62  90 125 164 203 245 301 366
#     4  12  23  36  59  91 125 159 199 249 304 362
#
# _framework density 18.015481999999999
#
# number of rings (size 3 to 8) (size 9 to 14) (size 15 to 20)
#    0.000    0.833    3.333    5.000    0.000    5.000 
#    0.000    0.833    0.000    3.000    0.000    0.000 
#    0.000    0.000    0.000    0.000    0.000    0.000 
#
# Total GULP energy -268522.930427 kJ/mol
# GULP energy per Si atom -5594.227717 kJ/mol
# Density = 1.797448 g / cm^3
# Si number density = 18.015482 Si / 1000 Ang^3
#
#
#
# Elastic Constant Matrix: (Units=GPa)
#
#
# Indices 1 2 3 4 5 6 
#
# 1 40.4462 17.0036 25.9503 0.0000 0.0000 0.0000
# 2 17.0036 104.3525 39.5664 0.0000 0.0000 0.0000
# 3 25.9503 39.5664 119.5298 0.0000 0.0000 0.0000
# 4 0.0000 0.0000 0.0000 -82.1484 0.0000 0.0000
# 5 0.0000 0.0000 0.0000 0.0000 22.1519 0.0000
# 6 0.0000 0.0000 0.0000 0.0000 0.0000 29.0399
#
#
#
# Elastic Compliance Matrix: (Units=1/GPa)
#
#
# Indices 1 2 3 4 5 6 
#
# 1 0.029380 -0.002709 -0.005482 0.000000 0.000000 0.000000
# 2 -0.002709 0.011208 -0.003122 0.000000 0.000000 0.000000
# 3 -0.005482 -0.003122 0.010590 0.000000 0.000000 0.000000
# 4 0.000000 0.000000 0.000000 -0.012173 0.000000 0.000000
# 5 0.000000 0.000000 0.000000 0.000000 0.045143 0.000000
# 6 0.000000 0.000000 0.000000 0.000000 0.000000 0.034435
#
#
# Mechanical properties :
#
#
# Convention : Reuss Voigt Hill
#
# Bulk Modulus (GPa) = 35.02311 47.70769 41.36540
# Shear Modulus (GPa) = 33.17281 5.92921 19.55101
#
# Velocity S-wave (km/s) = 4.29575 1.81613 3.29786
# Velocity P-wave (km/s) = 6.63983 5.56208 6.12471
#
# Compressibility (1/GPa) = 0.02855258
#
# Stress axis : x y z
#
# Youngs Moduli (GPa) = 34.03658 89.22194 94.43162
#
# Poissons Ratio (x) = 0.24168 0.51766
# Poissons Ratio (y) = 0.09220 0.29481
# Poissons Ratio (z) = 0.18658 0.27855
#
# Static dielectric constant tensor:
#      x y z
#    x 1.604210 0.000000 0.000000 
#    y 0.000000 1.586230 0.000000 
#    z 0.000000 0.000000 1.601530 
# 
# From -- ./inp_files/51309.got.cif
#   From: 2010.05.17/outbox.cif.g08.bks.cpg/sg63_26_cif.got.tgz:51309.got - 2010.06.03 15:47:04.
