data_PCOD9474203
_publ_section_title
;
Structure prediction by ZEFSAII (Michael W. Deem and Ramdas Pophale) SiO2 
 PCOD9474203
Probable space group: C M C M
;
_chemical_formula_sum "Si O2"
_cell_formula_units_Z 96
_cell_length_a 23.186069
_cell_length_b 11.689549
_cell_length_c 18.595395
_cell_angle_alpha 90.000000
_cell_angle_beta 90.000000
_cell_angle_gamma 90.000000
_cell_volume 5039.997114
_symmetry_space_group_name_H-M "C M C M"
_symmetry_group_IT_number 63
_symmetry_cell_setting 'orthorhombic'
loop_
_space_group_symop_operation_xyz
x,y,z
-x,-y,1/2+z
x,-y,-z
-x,y,1/2-z
-x,-y,-z
x,y,1/2-z
-x,y,z
x,-y,1/2+z
1/2+x,1/2+y,z
1/2-x,1/2-y,1/2+z
1/2+x,1/2-y,-z
1/2-x,1/2+y,1/2-z
1/2-x,1/2-y,-z
1/2+x,1/2+y,1/2-z
1/2-x,1/2+y,z
1/2+x,1/2-y,1/2+z
loop_
_atom_site_type_symbol
_atom_site_label
_atom_site_fract_x
_atom_site_fract_y
_atom_site_fract_z
Si Si1 0.434783 0.827572 0.887778
Si Si2 0.853980 0.536735 0.918482
Si Si3 0.846950 0.957047 0.921392
Si Si4 0.842455 0.182341 0.670499
Si Si5 0.068324 0.754907 0.948022
Si Si6 0.263426 0.894878 0.663078
O O1 0.500000 0.844590 0.868476
O O2 0.401334 0.752825 0.830565
O O3 0.403581 0.947898 0.896485
O O4 0.430894 0.765901 0.965803
O O5 0.886280 0.659099 0.918449
O O6 0.800328 0.503756 0.866962
O O7 0.836830 0.500000 0.000000
O O8 0.903258 0.877165 0.929426
O O9 0.796711 0.892032 0.878485
O O10 0.853683 0.072689 0.876822
O O11 0.828216 0.000000 0.000000
O O12 0.824398 0.146736 0.750000
O O13 0.797224 0.277678 0.643336
O O14 0.000000 0.743753 0.926428
O O15 0.259060 0.899896 0.750000
#
# Coordination Sequence:
#
# PCOD9474203 Si02
#       6
#    16  16  16  16  16  16
#     4   9  17  34  60  88 118 152 195 246 296 344
#     4   9  18  36  62  94 119 152 199 250 298 350
#     4  12  24  38  60  89 120 162 203 249 298 360
#     4  10  22  40  57  84 118 154 201 245 302 365
#     4  10  21  37  60  91 125 158 197 245 298 352
#     4  10  23  41  62  85 118 157 200 255 308 360
#
# _framework density 19.047630999999999
#
# number of rings (size 3 to 8) (size 9 to 14) (size 15 to 20)
#    0.000    2.000    1.667    1.500    2.333    4.000 
#    0.000    0.833    0.000    5.000    0.000    0.000 
#    0.000    0.000    0.000    0.000    0.000    0.000 
#
# Total GULP energy -267527.378065 kJ/mol
# GULP energy per Si atom -5573.487043 kJ/mol
# Density = 1.900428 g / cm^3
# Si number density = 19.047631 Si / 1000 Ang^3
#
#
#
# Elastic Constant Matrix: (Units=GPa)
#
#
# Indices 1 2 3 4 5 6 
#
# 1 76.6144 11.9294 17.2858 0.0000 0.0000 0.0000
# 2 11.9294 76.3237 37.9461 0.0000 0.0000 0.0000
# 3 17.2858 37.9461 52.4735 0.0000 0.0000 0.0000
# 4 0.0000 0.0000 0.0000 -16.5773 0.0000 0.0000
# 5 0.0000 0.0000 0.0000 0.0000 1.2815 0.0000
# 6 0.0000 0.0000 0.0000 0.0000 0.0000 14.3790
#
#
#
# Elastic Compliance Matrix: (Units=1/GPa)
#
#
# Indices 1 2 3 4 5 6 
#
# 1 0.014102 0.000165 -0.004764 0.000000 0.000000 0.000000
# 2 0.000165 0.020459 -0.014849 0.000000 0.000000 0.000000
# 3 -0.004764 -0.014849 0.031365 0.000000 0.000000 0.000000
# 4 0.000000 0.000000 0.000000 -0.060324 0.000000 0.000000
# 5 0.000000 0.000000 0.000000 0.000000 0.780336 0.000000
# 6 0.000000 0.000000 0.000000 0.000000 0.000000 0.069546
#
#
# Mechanical properties :
#
#
# Convention : Reuss Voigt Hill
#
# Bulk Modulus (GPa) = 36.99907 37.74825 37.37366
# Shear Modulus (GPa) = 5.53470 9.03333 7.28401
#
# Velocity S-wave (km/s) = 1.70647 2.18009 1.95765
# Velocity P-wave (km/s) = 4.83212 5.11839 4.97731
#
# Compressibility (1/GPa) = 0.02702771
#
# Stress axis : x y z
#
# Youngs Moduli (GPa) = 70.91346 48.87855 31.88289
#
# Poissons Ratio (x) = -0.00805 0.15191
# Poissons Ratio (y) = -0.01168 0.47343
# Poissons Ratio (z) = 0.33786 0.72580
#
# Static dielectric constant tensor:
#      x y z
#    x 1.668240 0.000000 0.000000 
#    y 0.000000 1.705070 0.000000 
#    z 0.000000 0.000000 1.664600 
# 
# From -- ./inp_files/47958.got.cif
#   From: 2010.05.17/outbox.cif.g08.bks.cpg/sg63_24_cif.got.tgz:47958.got - 2010.06.03 15:47:04.
