data_PCOD9474702
_publ_section_title
;
Structure prediction by ZEFSAII (Michael W. Deem and Ramdas Pophale) SiO2 
 PCOD9474702
Probable space group: C M C M
;
_chemical_formula_sum "Si O2"
_cell_formula_units_Z 112
_cell_length_a 19.549787
_cell_length_b 28.693009
_cell_length_c 10.914214
_cell_angle_alpha 90.000000
_cell_angle_beta 90.000000
_cell_angle_gamma 90.000000
_cell_volume 6122.243369
_symmetry_space_group_name_H-M "C M C M"
_symmetry_group_IT_number 63
_symmetry_cell_setting 'orthorhombic'
loop_
_space_group_symop_operation_xyz
x,y,z
-x,-y,1/2+z
x,-y,-z
-x,y,1/2-z
-x,-y,-z
x,y,1/2-z
-x,y,z
x,-y,1/2+z
1/2+x,1/2+y,z
1/2-x,1/2-y,1/2+z
1/2+x,1/2-y,-z
1/2-x,1/2+y,1/2-z
1/2-x,1/2-y,-z
1/2+x,1/2+y,1/2-z
1/2-x,1/2+y,z
1/2+x,1/2-y,1/2+z
loop_
_atom_site_type_symbol
_atom_site_label
_atom_site_fract_x
_atom_site_fract_y
_atom_site_fract_z
Si Si1 0.660853 0.367245 0.113884
Si Si2 0.082491 0.359582 0.111381
Si Si3 0.781728 0.029358 0.884841
Si Si4 0.215944 0.230422 0.879504
Si Si5 0.920074 0.734729 0.478284
Si Si6 0.882542 0.534239 0.891614
Si Si7 0.919946 0.171187 0.384793
O O1 0.627104 0.364807 0.250000
O O2 0.694772 0.417412 0.102898
O O3 0.715747 0.325448 0.114070
O O4 0.614068 0.355657 0.997759
O O5 0.108288 0.351663 0.250000
O O6 0.103464 0.411805 0.075078
O O7 0.000000 0.358865 0.115426
O O8 0.101133 0.316320 0.025368
O O9 0.804307 0.012237 0.750000
O O10 0.699329 0.027940 0.886235
O O11 0.807526 0.000000 0.000000
O O12 0.246574 0.245853 0.750000
O O13 0.136527 0.246616 0.884684
O O14 0.250000 0.250000 0.000000
O O15 0.915710 0.773473 0.586015
O O16 0.000000 0.734022 0.437840
O O17 0.908155 0.526619 0.750000
O O18 0.908527 0.500000 0.000000
O O19 0.890726 0.161200 0.250000
O O20 0.000000 0.159631 0.383762
#
# Coordination Sequence:
#
# PCOD9474702 Si02
#       7
#    16  16  16  16  16  16  16
#     4   9  19  34  51  73 101 134 171 205 249 305
#     4   9  17  29  49  75  98 130 174 212 252 304
#     4   9  18  33  52  73  96 127 166 209 255 303
#     4  10  22  36  52  78 110 143 175 213 261 311
#     4   9  18  33  53  75 104 141 180 218 255 302
#     4   9  18  32  50  69  94 126 164 211 259 307
#     4   9  17  30  50  77 106 133 165 206 248 294
#
# _framework density 18.293948
#
# number of rings (size 3 to 8) (size 9 to 14) (size 15 to 20)
#    0.000    2.857    0.000    0.429    2.000    6.000 
#    0.000    3.571    0.000    1.286    0.000    0.000 
#    0.000    0.000    0.000    0.000    0.000    0.000 
#
# Total GULP energy -311823.577682 kJ/mol
# GULP energy per Si atom -5568.278173 kJ/mol
# Density = 1.825231 g / cm^3
# Si number density = 18.293948 Si / 1000 Ang^3
#
#
#
# Elastic Constant Matrix: (Units=GPa)
#
#
# Indices 1 2 3 4 5 6 
#
# 1 25.8087 7.4799 30.7352 0.0000 0.0000 0.0000
# 2 7.4799 98.2004 63.6682 0.0000 0.0000 0.0000
# 3 30.7352 63.6682 156.5107 0.0000 0.0000 0.0000
# 4 0.0000 0.0000 0.0000 11.6676 0.0000 0.0000
# 5 0.0000 0.0000 0.0000 0.0000 17.4940 0.0000
# 6 0.0000 0.0000 0.0000 0.0000 0.0000 21.6148
#
#
#
# Elastic Compliance Matrix: (Units=1/GPa)
#
#
# Indices 1 2 3 4 5 6 
#
# 1 0.051483 0.003577 -0.011565 0.000000 0.000000 0.000000
# 2 0.003577 0.014080 -0.006430 0.000000 0.000000 0.000000
# 3 -0.011565 -0.006430 0.011276 0.000000 0.000000 0.000000
# 4 0.000000 0.000000 0.000000 0.085707 0.000000 0.000000
# 5 0.000000 0.000000 0.000000 0.000000 0.057162 0.000000
# 6 0.000000 0.000000 0.000000 0.000000 0.000000 0.046265
#
#
# Mechanical properties :
#
#
# Convention : Reuss Voigt Hill
#
# Bulk Modulus (GPa) = 20.83246 53.80959 37.32103
# Shear Modulus (GPa) = 16.08699 22.06438 19.07568
#
# Velocity S-wave (km/s) = 2.96862 3.47667 3.23264
# Velocity P-wave (km/s) = 4.81276 6.75233 5.86330
#
# Compressibility (1/GPa) = 0.04800201
#
# Stress axis : x y z
#
# Youngs Moduli (GPa) = 19.42399 71.02429 88.68265
#
# Poissons Ratio (x) = -0.25404 1.02562
# Poissons Ratio (y) = -0.06948 0.57023
# Poissons Ratio (z) = 0.22464 0.45669
#
# Static dielectric constant tensor:
#      x y z
#    x 1.652400 0.000000 0.000000 
#    y 0.000000 1.610160 0.000000 
#    z 0.000000 0.000000 1.667720 
# 
# From -- ./inp_files/23138.got.cif
#   From: 2010.05.17/outbox.cif.g08.bks.cpg/sg63_12_cif.got.tgz:23138.got - 2010.06.03 15:47:04.
