data_PCOD9474740
_publ_section_title
;
Structure prediction by ZEFSAII (Michael W. Deem and Ramdas Pophale) SiO2 
 PCOD9474740
Probable space group: C M C M
;
_chemical_formula_sum "Si O2"
_cell_formula_units_Z 96
_cell_length_a 23.184784
_cell_length_b 10.268812
_cell_length_c 20.456317
_cell_angle_alpha 90.000000
_cell_angle_beta 90.000000
_cell_angle_gamma 90.000000
_cell_volume 4870.243800
_symmetry_space_group_name_H-M "C M C M"
_symmetry_group_IT_number 63
_symmetry_cell_setting 'orthorhombic'
loop_
_space_group_symop_operation_xyz
x,y,z
-x,-y,1/2+z
x,-y,-z
-x,y,1/2-z
-x,-y,-z
x,y,1/2-z
-x,y,z
x,-y,1/2+z
1/2+x,1/2+y,z
1/2-x,1/2-y,1/2+z
1/2+x,1/2-y,-z
1/2-x,1/2+y,1/2-z
1/2-x,1/2-y,-z
1/2+x,1/2+y,1/2-z
1/2-x,1/2+y,z
1/2+x,1/2-y,1/2+z
loop_
_atom_site_type_symbol
_atom_site_label
_atom_site_fract_x
_atom_site_fract_y
_atom_site_fract_z
Si Si1 0.930881 0.139162 0.075529
Si Si2 0.126518 0.361431 0.823680
Si Si3 0.353929 0.854463 0.366547
Si Si4 0.930422 0.159035 0.923339
Si Si5 0.746612 0.119771 0.957339
Si Si6 0.768431 0.805032 0.320527
O O1 0.900021 0.244744 0.119746
O O2 0.000000 0.149964 0.078470
O O3 0.916184 0.990718 0.094471
O O4 0.913880 0.167904 0.999961
O O5 0.106072 0.331246 0.750000
O O6 0.120337 0.513609 0.837702
O O7 0.097411 0.267329 0.876765
O O8 0.195205 0.327857 0.824781
O O9 0.319443 0.894158 0.432885
O O10 0.300645 0.796234 0.324669
O O11 0.000000 0.172295 0.919955
O O12 0.781561 0.124690 0.889146
O O13 0.750000 0.250000 0.000000
O O14 0.765880 0.000000 0.000000
O O15 0.783810 0.865209 0.250000
#
# Coordination Sequence:
#
# PCOD9474740 Si02
#       6
#    16  16  16  16  16  16
#     4   9  20  40  64  90 121 155 199 254 314 368
#     4  11  23  40  61  87 120 164 209 250 297 368
#     4  10  23  36  61  89 124 155 203 251 313 352
#     4   9  21  41  63  89 120 159 200 250 310 369
#     4  10  22  37  57  89 120 156 202 255 299 355
#     4   9  22  39  57  82 125 167 197 237 305 372
#
# _framework density 19.711538999999998
#
# number of rings (size 3 to 8) (size 9 to 14) (size 15 to 20)
#    1.000    1.333    0.000    2.500    4.667    3.667 
#    0.000    5.000    0.000    3.500    0.000    0.000 
#    0.000    0.000    0.000    0.000    0.000    0.000 
#
# Total GULP energy -267390.264362 kJ/mol
# GULP energy per Si atom -5570.630508 kJ/mol
# Density = 1.966668 g / cm^3
# Si number density = 19.711539 Si / 1000 Ang^3
#
#
#
# Elastic Constant Matrix: (Units=GPa)
#
#
# Indices 1 2 3 4 5 6 
#
# 1 47.2231 44.7775 23.8072 0.0000 0.0000 0.0000
# 2 44.7775 119.1356 51.2143 0.0000 0.0000 0.0000
# 3 23.8072 51.2143 103.9793 0.0000 0.0000 0.0000
# 4 0.0000 0.0000 0.0000 25.6342 0.0000 0.0000
# 5 0.0000 0.0000 0.0000 0.0000 19.4068 0.0000
# 6 0.0000 0.0000 0.0000 0.0000 0.0000 26.7279
#
#
#
# Elastic Compliance Matrix: (Units=1/GPa)
#
#
# Indices 1 2 3 4 5 6 
#
# 1 0.033179 -0.011677 -0.001845 0.000000 0.000000 0.000000
# 2 -0.011677 0.014758 -0.004595 0.000000 0.000000 0.000000
# 3 -0.001845 -0.004595 0.012303 0.000000 0.000000 0.000000
# 4 0.000000 0.000000 0.000000 0.039010 0.000000 0.000000
# 5 0.000000 0.000000 0.000000 0.000000 0.051528 0.000000
# 6 0.000000 0.000000 0.000000 0.000000 0.000000 0.037414
#
#
# Mechanical properties :
#
#
# Convention : Reuss Voigt Hill
#
# Bulk Modulus (GPa) = 41.65851 56.65953 49.15902
# Shear Modulus (GPa) = 21.51186 24.38971 22.95078
#
# Velocity S-wave (km/s) = 3.30712 3.52139 3.41593
# Velocity P-wave (km/s) = 5.98019 6.73352 6.36800
#
# Compressibility (1/GPa) = 0.02400470
#
# Stress axis : x y z
#
# Youngs Moduli (GPa) = 30.13982 67.75903 81.27966
#
# Poissons Ratio (x) = 0.79123 0.14997
# Poissons Ratio (y) = 0.35195 0.37351
# Poissons Ratio (z) = 0.05561 0.31138
#
# Static dielectric constant tensor:
#      x y z
#    x 1.714110 0.000000 0.000000 
#    y 0.000000 1.659010 0.000000 
#    z 0.000000 0.000000 1.746840 
# 
# From -- ./inp_files/58039.got.cif
#   From: 2010.05.17/outbox.cif.g08.bks.cpg/sg63_30_cif.got.tgz:58039.got - 2010.06.03 15:47:04.
