data_PCOD9474460
_publ_section_title
;
Structure prediction by ZEFSAII (Michael W. Deem and Ramdas Pophale) SiO2 
 PCOD9474460
Probable space group: C M C M
;
_chemical_formula_sum "Si O2"
_cell_formula_units_Z 116
_cell_length_a 7.883418
_cell_length_b 24.249591
_cell_length_c 30.592385
_cell_angle_alpha 90.000000
_cell_angle_beta 90.000000
_cell_angle_gamma 90.000000
_cell_volume 5848.335906
_symmetry_space_group_name_H-M "C M C M"
_symmetry_group_IT_number 63
_symmetry_cell_setting 'orthorhombic'
loop_
_space_group_symop_operation_xyz
x,y,z
-x,-y,1/2+z
x,-y,-z
-x,y,1/2-z
-x,-y,-z
x,y,1/2-z
-x,y,z
x,-y,1/2+z
1/2+x,1/2+y,z
1/2-x,1/2-y,1/2+z
1/2+x,1/2-y,-z
1/2-x,1/2+y,1/2-z
1/2-x,1/2-y,-z
1/2+x,1/2+y,1/2-z
1/2-x,1/2+y,z
1/2+x,1/2-y,1/2+z
loop_
_atom_site_type_symbol
_atom_site_label
_atom_site_fract_x
_atom_site_fract_y
_atom_site_fract_z
Si Si1 0.298366 0.781370 0.701064
Si Si2 0.294224 0.907559 0.417648
Si Si3 0.500000 0.564134 0.250000
Si Si4 0.802201 0.970973 0.900798
Si Si5 0.199092 0.593464 0.182238
Si Si6 0.797132 0.282310 0.955910
Si Si7 0.698330 0.794898 0.123641
Si Si8 0.204866 0.596896 0.018196
O O1 0.224416 0.776445 0.750000
O O2 0.500000 0.782185 0.704952
O O3 0.253282 0.841445 0.681917
O O4 0.257893 0.731980 0.668547
O O5 0.500000 0.905532 0.418767
O O6 0.228516 0.853407 0.392444
O O7 0.235310 0.906736 0.468198
O O8 0.242022 0.964861 0.396092
O O9 0.345911 0.566679 0.212240
O O10 0.706515 0.933536 0.865541
O O11 0.757588 0.951926 0.949853
O O12 0.000000 0.962526 0.893904
O O13 0.000000 0.589190 0.197433
O O14 0.727287 0.249435 0.914699
O O15 0.736448 0.345092 0.961038
O O16 0.000000 0.283405 0.951730
O O17 0.750000 0.250000 0.000000
O O18 0.500000 0.803909 0.128484
O O19 0.000000 0.597784 0.016911
#
# Coordination Sequence:
#
# PCOD9474460 Si02
#       8
#    16  16   4  16  16  16  16  16
#     4  10  22  40  64  93 126 162 200 248 319 379
#     4  10  22  42  60  81 120 171 215 256 317 378
#     4  12  22  40  72 102 130 160 210 260 318 388
#     4  12  25  39  60  93 123 159 217 269 310 375
#     4  11  23  42  67  98 134 166 201 258 325 380
#     4  11  21  36  58  86 122 157 199 246 302 369
#     4  11  23  38  61  90 121 162 210 255 310 375
#     4  10  21  39  60  84 121 168 210 253 317 379
#
# _framework density 19.834700999999999
#
# number of rings (size 3 to 8) (size 9 to 14) (size 15 to 20)
#    0.000    1.241    2.759    3.517    0.966    8.000 
#    0.000    0.000    1.517    0.000    0.000    0.000 
#    0.000    0.000    0.000    0.000    0.000    0.000 
#
# Total GULP energy -323453.561491 kJ/mol
# GULP energy per Si atom -5576.785543 kJ/mol
# Density = 1.978956 g / cm^3
# Si number density = 19.834701 Si / 1000 Ang^3
#
#
#
# Elastic Constant Matrix: (Units=GPa)
#
#
# Indices 1 2 3 4 5 6 
#
# 1 47.8527 12.6835 17.3016 0.0000 0.0000 0.0000
# 2 12.6835 104.4477 69.3329 0.0000 0.0000 0.0000
# 3 17.3016 69.3329 129.0383 0.0000 0.0000 0.0000
# 4 0.0000 0.0000 0.0000 -23.1335 0.0000 0.0000
# 5 0.0000 0.0000 0.0000 0.0000 33.2962 0.0000
# 6 0.0000 0.0000 0.0000 0.0000 0.0000 24.0172
#
#
#
# Elastic Compliance Matrix: (Units=1/GPa)
#
#
# Indices 1 2 3 4 5 6 
#
# 1 0.022045 -0.001111 -0.002359 0.000000 0.000000 0.000000
# 2 -0.001111 0.014938 -0.007877 0.000000 0.000000 0.000000
# 3 -0.002359 -0.007877 0.012298 0.000000 0.000000 0.000000
# 4 0.000000 0.000000 0.000000 -0.043227 0.000000 0.000000
# 5 0.000000 0.000000 0.000000 0.000000 0.030033 0.000000
# 6 0.000000 0.000000 0.000000 0.000000 0.000000 0.041637
#
#
# Mechanical properties :
#
#
# Convention : Reuss Voigt Hill
#
# Bulk Modulus (GPa) = 37.61270 53.33054 45.47162
# Shear Modulus (GPa) = 45.75353 18.97069 32.36211
#
# Velocity S-wave (km/s) = 4.80807 3.09599 4.04368
# Velocity P-wave (km/s) = 7.05886 6.30286 6.69155
#
# Compressibility (1/GPa) = 0.02658677
#
# Stress axis : x y z
#
# Youngs Moduli (GPa) = 45.36210 66.94281 81.31118
#
# Poissons Ratio (x) = 0.07439 0.19179
# Poissons Ratio (y) = 0.05041 0.64052
# Poissons Ratio (z) = 0.10700 0.52733
#
# Static dielectric constant tensor:
#      x y z
#    x 1.725000 0.000000 0.000000 
#    y 0.000000 1.698100 0.000000 
#    z 0.000000 0.000000 1.707960 
# 
# From -- ./inp_files/72123.got.cif
#   From: 2010.05.17/outbox.cif.g08.bks.cpg/sg63_37_cif.got.tgz:72123.got - 2010.06.03 15:47:04.
