data_PCOD9474808
_publ_section_title
;
Structure prediction by ZEFSAII (Michael W. Deem and Ramdas Pophale) SiO2 
 PCOD9474808
Probable space group: C M C M
;
_chemical_formula_sum "Si O2"
_cell_formula_units_Z 64
_cell_length_a 7.801166
_cell_length_b 28.633510
_cell_length_c 15.322712
_cell_angle_alpha 90.000000
_cell_angle_beta 90.000000
_cell_angle_gamma 90.000000
_cell_volume 3422.707187
_symmetry_space_group_name_H-M "C M C M"
_symmetry_group_IT_number 63
_symmetry_cell_setting 'orthorhombic'
loop_
_space_group_symop_operation_xyz
x,y,z
-x,-y,1/2+z
x,-y,-z
-x,y,1/2-z
-x,-y,-z
x,y,1/2-z
-x,y,z
x,-y,1/2+z
1/2+x,1/2+y,z
1/2-x,1/2-y,1/2+z
1/2+x,1/2-y,-z
1/2-x,1/2+y,1/2-z
1/2-x,1/2-y,-z
1/2+x,1/2+y,1/2-z
1/2-x,1/2+y,z
1/2+x,1/2-y,1/2+z
loop_
_atom_site_type_symbol
_atom_site_label
_atom_site_fract_x
_atom_site_fract_y
_atom_site_fract_z
Si Si1 0.294421 0.254206 0.398158
Si Si2 0.802090 0.995766 0.104635
Si Si3 0.000000 0.324947 0.352066
Si Si4 0.204295 0.070822 0.250000
Si Si5 0.500000 0.926619 0.146467
Si Si6 0.203832 0.680431 0.250000
O O1 0.500000 0.261454 0.387674
O O2 0.250000 0.250000 0.500000
O O3 0.242486 0.209971 0.336467
O O4 0.172574 0.296570 0.370838
O O5 0.669944 0.954887 0.123575
O O6 0.000000 0.985736 0.129835
O O7 0.745526 0.040744 0.163425
O O8 0.799168 0.000000 0.000000
O O9 0.000000 0.375538 0.396213
O O10 0.000000 0.332005 0.250000
O O11 0.254359 0.125388 0.250000
O O12 0.000000 0.071586 0.250000
O O13 0.500000 0.923536 0.250000
O O14 0.000000 0.682755 0.250000
#
# Coordination Sequence:
#
# PCOD9474808 Si02
#       6
#    16  16   8   8   8   8
#     4  11  23  42  65  92 127 168 210 265 321 382
#     4  10  22  42  64  91 131 165 207 263 318 376
#     4  11  24  41  65  92 126 169 215 255 319 378
#     4  10  22  38  64  95 121 166 210 256 323 378
#     4  11  23  39  65  92 121 173 212 257 315 374
#     4  10  24  40  62  93 125 162 210 260 319 380
#
# _framework density 18.698649
#
# number of rings (size 3 to 8) (size 9 to 14) (size 15 to 20)
#    0.000    1.500    3.750    0.375    3.500    3.000 
#    0.000    5.000    0.000    0.000    0.000    0.000 
#    0.000    0.000    0.000    0.000    0.000    0.000 
#
# Total GULP energy -178252.590239 kJ/mol
# GULP energy per Si atom -5570.393445 kJ/mol
# Density = 1.865609 g / cm^3
# Si number density = 18.698649 Si / 1000 Ang^3
#
#
#
# Elastic Constant Matrix: (Units=GPa)
#
#
# Indices 1 2 3 4 5 6 
#
# 1 111.2274 79.5323 35.5157 0.0000 0.0000 0.0000
# 2 79.5323 189.3607 66.0994 0.0000 0.0000 0.0000
# 3 35.5157 66.0994 122.1968 0.0000 0.0000 0.0000
# 4 0.0000 0.0000 0.0000 3.1932 0.0000 0.0000
# 5 0.0000 0.0000 0.0000 0.0000 36.8738 0.0000
# 6 0.0000 0.0000 0.0000 0.0000 0.0000 26.0542
#
#
#
# Elastic Compliance Matrix: (Units=1/GPa)
#
#
# Indices 1 2 3 4 5 6 
#
# 1 0.012951 -0.005086 -0.001013 0.000000 0.000000 0.000000
# 2 -0.005086 0.008507 -0.003124 0.000000 0.000000 0.000000
# 3 -0.001013 -0.003124 0.010168 0.000000 0.000000 0.000000
# 4 0.000000 0.000000 0.000000 0.313165 0.000000 0.000000
# 5 0.000000 0.000000 0.000000 0.000000 0.027120 0.000000
# 6 0.000000 0.000000 0.000000 0.000000 0.000000 0.038382
#
#
# Mechanical properties :
#
#
# Convention : Reuss Voigt Hill
#
# Bulk Modulus (GPa) = 75.86855 87.23107 81.54981
# Shear Modulus (GPa) = 11.54387 29.33339 20.43863
#
# Velocity S-wave (km/s) = 2.48738 3.96503 3.30972
# Velocity P-wave (km/s) = 6.99370 8.22887 7.63630
#
# Compressibility (1/GPa) = 0.01318069
#
# Stress axis : x y z
#
# Youngs Moduli (GPa) = 77.21698 117.54603 98.35119
#
# Poissons Ratio (x) = 0.59780 0.09963
# Poissons Ratio (y) = 0.39270 0.30722
# Poissons Ratio (z) = 0.07822 0.36718
#
# Static dielectric constant tensor:
#      x y z
#    x 1.644940 0.000000 0.000000 
#    y 0.000000 1.737060 0.000000 
#    z 0.000000 0.000000 1.197890 
# 
# From -- ./inp_files/27650.got.cif
#   From: 2010.05.17/outbox.cif.g08.bks.cpg/sg63_14_cif.got.tgz:27650.got - 2010.06.03 15:47:04.
