data_PCOD9474080
_publ_section_title
;
Structure prediction by ZEFSAII (Michael W. Deem and Ramdas Pophale) SiO2 
 PCOD9474080
Probable space group: C M C M
;
_chemical_formula_sum "Si O2"
_cell_formula_units_Z 112
_cell_length_a 14.610487
_cell_length_b 23.741087
_cell_length_c 14.174542
_cell_angle_alpha 90.000000
_cell_angle_beta 90.000000
_cell_angle_gamma 90.000000
_cell_volume 4916.706983
_symmetry_space_group_name_H-M "C M C M"
_symmetry_group_IT_number 63
_symmetry_cell_setting 'orthorhombic'
loop_
_space_group_symop_operation_xyz
x,y,z
-x,-y,1/2+z
x,-y,-z
-x,y,1/2-z
-x,-y,-z
x,y,1/2-z
-x,y,z
x,-y,1/2+z
1/2+x,1/2+y,z
1/2-x,1/2-y,1/2+z
1/2+x,1/2-y,-z
1/2-x,1/2+y,1/2-z
1/2-x,1/2-y,-z
1/2+x,1/2+y,1/2-z
1/2-x,1/2+y,z
1/2+x,1/2-y,1/2+z
loop_
_atom_site_type_symbol
_atom_site_label
_atom_site_fract_x
_atom_site_fract_y
_atom_site_fract_z
Si Si1 0.110168 0.896933 0.137263
Si Si2 0.397206 0.473921 0.635101
Si Si3 0.278756 0.291386 0.083996
Si Si4 0.102887 0.644762 0.638022
Si Si5 0.896947 0.690446 0.358836
Si Si6 0.393388 0.979592 0.364195
Si Si7 0.221449 0.587070 0.365883
O O1 0.133822 0.890345 0.250000
O O2 0.130994 0.961963 0.110393
O O3 0.164796 0.849794 0.079417
O O4 0.000000 0.890071 0.129594
O O5 0.400078 0.474358 0.750000
O O6 0.500000 0.463200 0.600762
O O7 0.325159 0.426640 0.606241
O O8 0.180361 0.309465 0.123433
O O9 0.347527 0.250372 0.139860
O O10 0.250000 0.250000 0.000000
O O11 0.094637 0.638239 0.750000
O O12 0.132724 0.582835 0.602771
O O13 0.000000 0.657616 0.603117
O O14 0.906860 0.673726 0.250000
O O15 0.829629 0.643004 0.401417
O O16 0.000000 0.692351 0.398514
O O17 0.384901 0.980242 0.250000
O O18 0.500000 0.987904 0.386445
O O19 0.335407 0.032367 0.396534
O O20 0.222718 0.589174 0.250000
#
# Coordination Sequence:
#
# PCOD9474080 Si02
#       7
#    16  16  16  16  16  16  16
#     4   9  17  32  57  84 105 130 173 228 275 310
#     4   8  14  25  46  79 110 131 159 208 266 314
#     4  12  24  35  50  72 102 142 178 217 264 309
#     4   9  18  33  53  75  98 127 169 219 263 306
#     4  10  21  37  57  80 106 138 176 214 252 302
#     4   8  13  23  44  74 100 121 154 207 264 305
#     4   9  15  25  46  77 110 137 161 198 250 307
#
# _framework density 22.779474
#
# number of rings (size 3 to 8) (size 9 to 14) (size 15 to 20)
#    0.000    2.714    0.000    4.714    0.000    6.286 
#    0.000    0.714    0.000    6.000    0.000    8.000 
#    0.000    0.000    0.000    0.000    0.000    0.000 
#
# Total GULP energy -312663.466651 kJ/mol
# GULP energy per Si atom -5583.276190 kJ/mol
# Density = 2.272763 g / cm^3
# Si number density = 22.779474 Si / 1000 Ang^3
#
#
#
# Elastic Constant Matrix: (Units=GPa)
#
#
# Indices 1 2 3 4 5 6 
#
# 1 152.9738 115.8805 6.5611 0.0000 0.0000 0.0000
# 2 115.8805 147.7225 18.3864 0.0000 0.0000 0.0000
# 3 6.5611 18.3864 62.3915 0.0000 0.0000 0.0000
# 4 0.0000 0.0000 0.0000 26.7897 0.0000 0.0000
# 5 0.0000 0.0000 0.0000 0.0000 -72.3929 0.0000
# 6 0.0000 0.0000 0.0000 0.0000 0.0000 65.4093
#
#
#
# Elastic Compliance Matrix: (Units=1/GPa)
#
#
# Indices 1 2 3 4 5 6 
#
# 1 0.016382 -0.013117 0.002143 0.000000 0.000000 0.000000
# 2 -0.013117 0.017531 -0.003787 0.000000 0.000000 0.000000
# 3 0.002143 -0.003787 0.016918 0.000000 0.000000 0.000000
# 4 0.000000 0.000000 0.000000 0.037328 0.000000 0.000000
# 5 0.000000 0.000000 0.000000 0.000000 -0.013814 0.000000
# 6 0.000000 0.000000 0.000000 0.000000 0.000000 0.015288
#
#
# Mechanical properties :
#
#
# Convention : Reuss Voigt Hill
#
# Bulk Modulus (GPa) = 46.92982 71.63821 59.28401
# Shear Modulus (GPa) = 39.60117 18.77855 29.18986
#
# Velocity S-wave (km/s) = 4.17401 2.87429 3.58356
# Velocity P-wave (km/s) = 6.62392 6.52167 6.57299
#
# Compressibility (1/GPa) = 0.02130841
#
# Stress axis : x y z
#
# Youngs Moduli (GPa) = 61.04315 57.04278 59.10719
#
# Poissons Ratio (x) = 0.74825 -0.12666
# Poissons Ratio (y) = 0.80073 0.22383
# Poissons Ratio (z) = -0.13081 0.21601
#
# Static dielectric constant tensor:
#      x y z
#    x 2.090780 0.000000 0.000000 
#    y 0.000000 1.849470 0.000000 
#    z 0.000000 0.000000 1.924790 
# 
# From -- ./inp_files/32315.got.cif
#   From: 2010.05.17/outbox.cif.g08.bks.cpg/sg63_17_cif.got.tgz:32315.got - 2010.06.03 15:47:04.
