data_PCOD9474258
_publ_section_title
;
Structure prediction by ZEFSAII (Michael W. Deem and Ramdas Pophale) SiO2 
 PCOD9474258
Probable space group: C M C M
;
_chemical_formula_sum "Si O2"
_cell_formula_units_Z 56
_cell_length_a 19.004138
_cell_length_b 16.950196
_cell_length_c 8.871970
_cell_angle_alpha 90.000000
_cell_angle_beta 90.000000
_cell_angle_gamma 90.000000
_cell_volume 2857.873257
_symmetry_space_group_name_H-M "C M C M"
_symmetry_group_IT_number 63
_symmetry_cell_setting 'orthorhombic'
loop_
_space_group_symop_operation_xyz
x,y,z
-x,-y,1/2+z
x,-y,-z
-x,y,1/2-z
-x,-y,-z
x,y,1/2-z
-x,y,z
x,-y,1/2+z
1/2+x,1/2+y,z
1/2-x,1/2-y,1/2+z
1/2+x,1/2-y,-z
1/2-x,1/2+y,1/2-z
1/2-x,1/2-y,-z
1/2+x,1/2+y,1/2-z
1/2-x,1/2+y,z
1/2+x,1/2-y,1/2+z
loop_
_atom_site_type_symbol
_atom_site_label
_atom_site_fract_x
_atom_site_fract_y
_atom_site_fract_z
Si Si1 0.500000 0.764702 0.927508
Si Si2 0.781121 0.130073 0.074050
Si Si3 0.500000 0.392688 0.905642
Si Si4 0.853166 0.697485 0.574635
Si Si5 0.375514 0.500000 0.500000
O O1 0.500000 0.777689 0.750000
O O2 0.500000 0.670059 0.961158
O O3 0.570051 0.799537 0.002406
O O4 0.783483 0.102730 0.250000
O O5 0.822082 0.213273 0.068505
O O6 0.702160 0.145405 0.018921
O O7 0.821028 0.069855 0.962582
O O8 0.500000 0.344581 0.750000
O O9 0.432121 0.448696 0.906998
O O10 0.855069 0.674224 0.750000
#
# Coordination Sequence:
#
# PCOD9474258 Si02
#       5
#     8  16   8  16   8
#     4  12  23  37  60  88 119 157 198 245 299 352
#     4  10  21  38  57  84 118 155 199 244 289 349
#     4  11  23  39  56  86 125 162 200 238 289 356
#     4  10  21  39  60  83 114 155 200 247 294 345
#     4  11  22  36  58  87 124 160 190 239 296 350
#
# _framework density 19.594989999999999
#
# number of rings (size 3 to 8) (size 9 to 14) (size 15 to 20)
#    0.000    1.429    2.857    3.000    0.000    6.857 
#    0.000    0.000    0.000    0.857    0.000    0.000 
#    0.000    0.000    0.000    0.000    0.000    0.000 
#
# Total GULP energy -155991.986605 kJ/mol
# GULP energy per Si atom -5571.142379 kJ/mol
# Density = 1.955039 g / cm^3
# Si number density = 19.594990 Si / 1000 Ang^3
#
#
#
# Elastic Constant Matrix: (Units=GPa)
#
#
# Indices 1 2 3 4 5 6 
#
# 1 199.9307 35.5737 58.4359 0.0000 0.0000 0.0000
# 2 35.5737 39.6059 5.2953 0.0000 0.0000 0.0000
# 3 58.4359 5.2953 73.1052 0.0000 0.0000 0.0000
# 4 0.0000 0.0000 0.0000 -3.2410 0.0000 0.0000
# 5 0.0000 0.0000 0.0000 0.0000 7.8228 0.0000
# 6 0.0000 0.0000 0.0000 0.0000 0.0000 32.6161
#
#
#
# Elastic Compliance Matrix: (Units=1/GPa)
#
#
# Indices 1 2 3 4 5 6 
#
# 1 0.007802 -0.006234 -0.005785 0.000000 0.000000 0.000000
# 2 -0.006234 0.030477 0.002776 0.000000 0.000000 0.000000
# 3 -0.005785 0.002776 0.018102 0.000000 0.000000 0.000000
# 4 0.000000 0.000000 0.000000 -0.308542 0.000000 0.000000
# 5 0.000000 0.000000 0.000000 0.000000 0.127831 0.000000
# 6 0.000000 0.000000 0.000000 0.000000 0.000000 0.030660
#
#
# Mechanical properties :
#
#
# Convention : Reuss Voigt Hill
#
# Bulk Modulus (GPa) = 26.38925 56.80572 41.59748
# Shear Modulus (GPa) = -79.93207 21.66202 -29.13503
#
# Velocity S-wave (km/s) = -6.39380 3.32849 -3.86017
# Velocity P-wave (km/s) = 6.40398 6.62002 1.18611
#
# Compressibility (1/GPa) = 0.03789422
#
# Stress axis : x y z
#
# Youngs Moduli (GPa) = 128.17725 32.81160 55.24317
#
# Poissons Ratio (x) = 0.20455 0.31956
# Poissons Ratio (y) = 0.79906 -0.15333
# Poissons Ratio (z) = 0.74146 -0.09107
#
# Static dielectric constant tensor:
#      x y z
#    x 1.683030 0.000000 0.000000 
#    y 0.000000 1.675790 0.000000 
#    z 0.000000 0.000000 1.683370 
# 
# From -- ./inp_files/5577.got.cif
#   From: 2010.05.17/outbox.cif.g08.bks.cpg/sg63_3_cif.got.tgz:5577.got - 2010.06.03 15:47:04.
