data_PCOD9474256
_publ_section_title
;
Structure prediction by ZEFSAII (Michael W. Deem and Ramdas Pophale) SiO2 
 PCOD9474256
Probable space group: C M C M
;
_chemical_formula_sum "Si O2"
_cell_formula_units_Z 96
_cell_length_a 8.887430
_cell_length_b 21.064151
_cell_length_c 28.898520
_cell_angle_alpha 90.000000
_cell_angle_beta 90.000000
_cell_angle_gamma 90.000000
_cell_volume 5409.981176
_symmetry_space_group_name_H-M "C M C M"
_symmetry_group_IT_number 63
_symmetry_cell_setting 'orthorhombic'
loop_
_space_group_symop_operation_xyz
x,y,z
-x,-y,1/2+z
x,-y,-z
-x,y,1/2-z
-x,-y,-z
x,y,1/2-z
-x,y,z
x,-y,1/2+z
1/2+x,1/2+y,z
1/2-x,1/2-y,1/2+z
1/2+x,1/2-y,-z
1/2-x,1/2+y,1/2-z
1/2-x,1/2-y,-z
1/2+x,1/2+y,1/2-z
1/2-x,1/2+y,z
1/2+x,1/2-y,1/2+z
loop_
_atom_site_type_symbol
_atom_site_label
_atom_site_fract_x
_atom_site_fract_y
_atom_site_fract_z
Si Si1 0.179920 0.002056 0.893796
Si Si2 0.818660 0.876693 0.953125
Si Si3 0.319345 0.122573 0.944900
Si Si4 0.681070 0.747077 0.105609
Si Si5 0.180975 0.300274 0.697804
Si Si6 0.319186 0.050530 0.197133
O O1 0.254607 0.063096 0.916892
O O2 0.000000 0.008550 0.894201
O O3 0.219599 0.939510 0.923886
O O4 0.238351 0.989702 0.842077
O O5 0.771998 0.814016 0.924756
O O6 0.000000 0.875124 0.958534
O O7 0.743722 0.878303 0.003173
O O8 0.500000 0.119491 0.945979
O O9 0.274241 0.188147 0.919763
O O10 0.500000 0.745725 0.108688
O O11 0.747635 0.739599 0.156704
O O12 0.227620 0.282069 0.750000
O O13 0.220418 0.374833 0.691234
O O14 0.000000 0.296104 0.695629
O O15 0.280884 0.032779 0.250000
O O16 0.500000 0.045396 0.192131
#
# Coordination Sequence:
#
# PCOD9474256 Si02
#       6
#    16  16  16  16  16  16
#     4  11  22  37  58  83 113 147 183 228 278 327
#     4  10  21  38  58  81 109 143 187 233 276 323
#     4  11  24  38  55  80 113 150 188 228 274 330
#     4  10  21  38  57  82 113 146 184 227 275 326
#     4   9  18  33  56  86 114 141 178 225 274 325
#     4   9  18  34  57  85 114 142 178 226 275 325
#
# _framework density 17.744978
#
# number of rings (size 3 to 8) (size 9 to 14) (size 15 to 20)
#    0.000    2.000    1.667    3.000    0.000    6.000 
#    0.000    2.500    0.000    1.000    0.000    0.000 
#    0.000    0.000    0.000    0.000    0.000    0.000 
#
# Total GULP energy -268051.238222 kJ/mol
# GULP energy per Si atom -5584.400796 kJ/mol
# Density = 1.770459 g / cm^3
# Si number density = 17.744978 Si / 1000 Ang^3
#
#
#
# Elastic Constant Matrix: (Units=GPa)
#
#
# Indices 1 2 3 4 5 6 
#
# 1 21.8741 40.0543 42.8697 0.0000 0.0000 0.0000
# 2 40.0543 130.6114 78.8240 0.0000 0.0000 0.0000
# 3 42.8697 78.8240 166.1555 0.0000 0.0000 0.0000
# 4 0.0000 0.0000 0.0000 -18.6764 0.0000 0.0000
# 5 0.0000 0.0000 0.0000 0.0000 39.2507 0.0000
# 6 0.0000 0.0000 0.0000 0.0000 0.0000 26.2718
#
#
#
# Elastic Compliance Matrix: (Units=1/GPa)
#
#
# Indices 1 2 3 4 5 6 
#
# 1 0.150538 -0.031841 -0.023735 0.000000 0.000000 0.000000
# 2 -0.031841 0.017463 -0.000069 0.000000 0.000000 0.000000
# 3 -0.023735 -0.000069 0.012175 0.000000 0.000000 0.000000
# 4 0.000000 0.000000 0.000000 -0.053543 0.000000 0.000000
# 5 0.000000 0.000000 0.000000 0.000000 0.025477 0.000000
# 6 0.000000 0.000000 0.000000 0.000000 0.000000 0.038064
#
#
# Mechanical properties :
#
#
# Convention : Reuss Voigt Hill
#
# Bulk Modulus (GPa) = 14.51677 71.34855 42.93266
# Shear Modulus (GPa) = 15.41186 19.82873 17.62030
#
# Velocity S-wave (km/s) = 2.95026 3.34642 3.15457
# Velocity P-wave (km/s) = 4.45016 7.43145 6.12496
#
# Compressibility (1/GPa) = 0.06888585
#
# Stress axis : x y z
#
# Youngs Moduli (GPa) = 6.64282 57.26531 82.13596
#
# Poissons Ratio (x) = 1.82340 1.94948
# Poissons Ratio (y) = 0.21152 0.00566
# Poissons Ratio (z) = 0.15767 0.00394
#
# Static dielectric constant tensor:
#      x y z
#    x 1.595320 0.000000 0.000000 
#    y 0.000000 1.588510 0.000000 
#    z 0.000000 0.000000 1.580790 
# 
# From -- ./inp_files/66869.got.cif
#   From: 2010.05.17/outbox.cif.g08.bks.cpg/sg63_34_cif.got.tgz:66869.got - 2010.06.03 15:47:04.
