data_PCOD9474236
_publ_section_title
;
Structure prediction by ZEFSAII (Michael W. Deem and Ramdas Pophale) SiO2 
 PCOD9474236
Probable space group: C M C M
;
_chemical_formula_sum "Si O2"
_cell_formula_units_Z 64
_cell_length_a 8.278952
_cell_length_b 31.408791
_cell_length_c 12.635567
_cell_angle_alpha 90.000000
_cell_angle_beta 90.000000
_cell_angle_gamma 90.000000
_cell_volume 3285.650154
_symmetry_space_group_name_H-M "C M C M"
_symmetry_group_IT_number 63
_symmetry_cell_setting 'orthorhombic'
loop_
_space_group_symop_operation_xyz
x,y,z
-x,-y,1/2+z
x,-y,-z
-x,y,1/2-z
-x,-y,-z
x,y,1/2-z
-x,y,z
x,-y,1/2+z
1/2+x,1/2+y,z
1/2-x,1/2-y,1/2+z
1/2+x,1/2-y,-z
1/2-x,1/2+y,1/2-z
1/2-x,1/2-y,-z
1/2+x,1/2+y,1/2-z
1/2-x,1/2+y,z
1/2+x,1/2-y,1/2+z
loop_
_atom_site_type_symbol
_atom_site_label
_atom_site_fract_x
_atom_site_fract_y
_atom_site_fract_z
Si Si1 0.194441 0.797783 0.021680
Si Si2 0.812378 0.175905 0.750000
Si Si3 0.195790 0.951186 0.478656
Si Si4 0.812367 0.074416 0.750000
Si Si5 0.306775 0.874505 0.871912
O O1 0.259047 0.809334 0.138909
O O2 0.000000 0.799942 0.023084
O O3 0.250000 0.750000 0.000000
O O4 0.250868 0.832784 0.936642
O O5 0.813232 0.125155 0.750000
O O6 0.000000 0.190604 0.750000
O O7 0.258989 0.940170 0.361241
O O8 0.253796 0.916644 0.563907
O O9 0.000000 0.947964 0.478035
O O10 0.239540 0.000000 0.500000
O O11 0.000000 0.059445 0.750000
O O12 0.246860 0.874612 0.750000
O O13 0.500000 0.873860 0.868930
#
# Coordination Sequence:
#
# PCOD9474236 Si02
#       5
#    16   8  16   8  16
#     4  11  23  41  64  91 121 157 201 248 303 364
#     4   9  18  36  62  85 116 153 188 243 304 351
#     4  10  21  37  63  93 120 155 200 250 303 363
#     4   9  16  34  58  87 120 149 188 245 304 349
#     4  11  25  43  60  84 124 167 205 251 303 354
#
# _framework density 19.478641
#
# number of rings (size 3 to 8) (size 9 to 14) (size 15 to 20)
#    0.000    1.750    2.500    1.500    3.500    2.500 
#    0.000    3.750    0.000    0.000    0.000    0.000 
#    0.000    0.000    0.000    0.000    0.000    0.000 
#
# Total GULP energy -178589.610675 kJ/mol
# GULP energy per Si atom -5580.925334 kJ/mol
# Density = 1.943431 g / cm^3
# Si number density = 19.478641 Si / 1000 Ang^3
#
#
#
# Elastic Constant Matrix: (Units=GPa)
#
#
# Indices 1 2 3 4 5 6 
#
# 1 32.1307 30.0135 28.8576 0.0000 0.0000 0.0000
# 2 30.0135 153.7428 116.6607 0.0000 0.0000 0.0000
# 3 28.8576 116.6607 237.8149 0.0000 0.0000 0.0000
# 4 0.0000 0.0000 0.0000 38.0882 0.0000 0.0000
# 5 0.0000 0.0000 0.0000 0.0000 13.1151 0.0000
# 6 0.0000 0.0000 0.0000 0.0000 0.0000 31.0450
#
#
#
# Elastic Compliance Matrix: (Units=1/GPa)
#
#
# Indices 1 2 3 4 5 6 
#
# 1 0.038427 -0.006313 -0.001566 0.000000 0.000000 0.000000
# 2 -0.006313 0.011398 -0.004825 0.000000 0.000000 0.000000
# 3 -0.001566 -0.004825 0.006762 0.000000 0.000000 0.000000
# 4 0.000000 0.000000 0.000000 0.026255 0.000000 0.000000
# 5 0.000000 0.000000 0.000000 0.000000 0.076248 0.000000
# 6 0.000000 0.000000 0.000000 0.000000 0.000000 0.032211
#
#
# Mechanical properties :
#
#
# Convention : Reuss Voigt Hill
#
# Bulk Modulus (GPa) = 32.07414 86.08355 59.07885
# Shear Modulus (GPa) = 22.01643 32.99344 27.50493
#
# Velocity S-wave (km/s) = 3.36562 4.12008 3.76181
# Velocity P-wave (km/s) = 5.62185 8.18066 7.01885
#
# Compressibility (1/GPa) = 0.03117776
#
# Stress axis : x y z
#
# Youngs Moduli (GPa) = 26.02363 87.73137 147.88365
#
# Poissons Ratio (x) = 0.55389 0.23155
# Poissons Ratio (y) = 0.16430 0.71360
# Poissons Ratio (z) = 0.04075 0.42334
#
# Static dielectric constant tensor:
#      x y z
#    x 1.694950 0.000000 0.000000 
#    y 0.000000 1.650910 0.000000 
#    z 0.000000 0.000000 1.675580 
# 
# From -- ./inp_files/16225.got.cif
#   From: 2010.05.17/outbox.cif.g08.bks.cpg/sg63_9_cif.got.tgz:16225.got - 2010.06.03 15:47:04.
