data_PCOD9474709
_publ_section_title
;
Structure prediction by ZEFSAII (Michael W. Deem and Ramdas Pophale) SiO2 
 PCOD9474709
Probable space group: C M C M
;
_chemical_formula_sum "Si O2"
_cell_formula_units_Z 88
_cell_length_a 13.280477
_cell_length_b 19.925747
_cell_length_c 15.445230
_cell_angle_alpha 90.000000
_cell_angle_beta 90.000000
_cell_angle_gamma 90.000000
_cell_volume 4087.169659
_symmetry_space_group_name_H-M "C M C M"
_symmetry_group_IT_number 63
_symmetry_cell_setting 'orthorhombic'
loop_
_space_group_symop_operation_xyz
x,y,z
-x,-y,1/2+z
x,-y,-z
-x,y,1/2-z
-x,-y,-z
x,y,1/2-z
-x,y,z
x,-y,1/2+z
1/2+x,1/2+y,z
1/2-x,1/2-y,1/2+z
1/2+x,1/2-y,-z
1/2-x,1/2+y,1/2-z
1/2-x,1/2-y,-z
1/2+x,1/2+y,1/2-z
1/2-x,1/2+y,z
1/2+x,1/2-y,1/2+z
loop_
_atom_site_type_symbol
_atom_site_label
_atom_site_fract_x
_atom_site_fract_y
_atom_site_fract_z
Si Si1 0.500000 0.786408 0.843682
Si Si2 0.000000 0.314804 0.457738
Si Si3 0.299351 0.889339 0.103190
Si Si4 0.719515 0.745183 0.659182
Si Si5 0.287921 0.371874 0.575664
Si Si6 0.382622 0.975937 0.897758
Si Si7 0.500000 0.669465 0.354801
O O1 0.500000 0.824048 0.750000
O O2 0.399552 0.743524 0.844213
O O3 0.500000 0.818083 0.938222
O O4 0.902640 0.356809 0.431692
O O5 0.000000 0.241296 0.409570
O O6 0.258086 0.829260 0.159015
O O7 0.330197 0.959295 0.144739
O O8 0.220104 0.895593 0.023708
O O9 0.751349 0.778902 0.750000
O O10 0.758084 0.793540 0.584106
O O11 0.194225 0.414114 0.616547
O O12 0.399134 0.371556 0.617030
O O13 0.500000 0.965615 0.873865
O O14 0.382863 0.000000 0.000000
O O15 0.500000 0.681706 0.250000
#
# Coordination Sequence:
#
# PCOD9474709 Si02
#       7
#     8   8  16  16  16  16   8
#     4  10  22  36  56  95 133 165 209 269 336 396
#     4  12  20  36  66  96 131 162 213 274 337 389
#     4  11  21  38  64  97 124 162 211 268 330 392
#     4  11  22  37  58  87 126 166 211 264 319 382
#     4  11  22  38  62  91 125 165 215 262 326 386
#     4   9  20  37  63  95 127 160 204 268 329 391
#     4  12  26  42  62  92 132 178 227 281 326 385
#
# _framework density 21.530792000000002
#
# number of rings (size 3 to 8) (size 9 to 14) (size 15 to 20)
#    0.000    1.273    4.545    2.182    2.545    0.000 
#    0.000    6.818    0.000    3.273    0.000    0.000 
#    0.000    0.000    0.000    0.000    0.000    0.000 
#
# Total GULP energy -245221.435255 kJ/mol
# GULP energy per Si atom -5573.214438 kJ/mol
# Density = 2.148179 g / cm^3
# Si number density = 21.530792 Si / 1000 Ang^3
#
#
#
# Elastic Constant Matrix: (Units=GPa)
#
#
# Indices 1 2 3 4 5 6 
#
# 1 153.3980 41.6990 29.7498 0.0000 0.0000 0.0000
# 2 41.6990 103.3290 13.8053 0.0000 0.0000 0.0000
# 3 29.7498 13.8053 75.8165 0.0000 0.0000 0.0000
# 4 0.0000 0.0000 0.0000 9.8857 0.0000 0.0000
# 5 0.0000 0.0000 0.0000 0.0000 18.4192 0.0000
# 6 0.0000 0.0000 0.0000 0.0000 0.0000 13.8931
#
#
#
# Elastic Compliance Matrix: (Units=1/GPa)
#
#
# Indices 1 2 3 4 5 6 
#
# 1 0.007772 -0.002797 -0.002540 0.000000 0.000000 0.000000
# 2 -0.002797 0.010926 -0.000892 0.000000 0.000000 0.000000
# 3 -0.002540 -0.000892 0.014349 0.000000 0.000000 0.000000
# 4 0.000000 0.000000 0.000000 0.101156 0.000000 0.000000
# 5 0.000000 0.000000 0.000000 0.000000 0.054291 0.000000
# 6 0.000000 0.000000 0.000000 0.000000 0.000000 0.071978
#
#
# Mechanical properties :
#
#
# Convention : Reuss Voigt Hill
#
# Bulk Modulus (GPa) = 48.57176 55.89463 52.23320
# Shear Modulus (GPa) = 17.87032 24.92555 21.39793
#
# Velocity S-wave (km/s) = 2.88408 3.40615 3.15593
# Velocity P-wave (km/s) = 5.80506 6.44095 6.13125
#
# Compressibility (1/GPa) = 0.02058809
#
# Stress axis : x y z
#
# Youngs Moduli (GPa) = 128.66705 91.52688 69.69143
#
# Poissons Ratio (x) = 0.25600 0.17704
# Poissons Ratio (y) = 0.35989 0.06216
# Poissons Ratio (z) = 0.32686 0.08163
#
# Static dielectric constant tensor:
#      x y z
#    x 1.784890 0.000000 0.000000 
#    y 0.000000 1.806430 0.000000 
#    z 0.000000 0.000000 1.961590 
# 
# From -- ./inp_files/42323.got.cif
#   From: 2010.05.17/outbox.cif.g08.bks.cpg/sg63_22_cif.got.tgz:42323.got - 2010.06.03 15:47:04.
