data_PCOD9474196
_publ_section_title
;
Structure prediction by ZEFSAII (Michael W. Deem and Ramdas Pophale) SiO2 
 PCOD9474196
Probable space group: C M C M
;
_chemical_formula_sum "Si O2"
_cell_formula_units_Z 112
_cell_length_a 19.188506
_cell_length_b 12.161235
_cell_length_c 23.199761
_cell_angle_alpha 90.000000
_cell_angle_beta 90.000000
_cell_angle_gamma 90.000000
_cell_volume 5413.801822
_symmetry_space_group_name_H-M "C M C M"
_symmetry_group_IT_number 63
_symmetry_cell_setting 'orthorhombic'
loop_
_space_group_symop_operation_xyz
x,y,z
-x,-y,1/2+z
x,-y,-z
-x,y,1/2-z
-x,-y,-z
x,y,1/2-z
-x,y,z
x,-y,1/2+z
1/2+x,1/2+y,z
1/2-x,1/2-y,1/2+z
1/2+x,1/2-y,-z
1/2-x,1/2+y,1/2-z
1/2-x,1/2-y,-z
1/2+x,1/2+y,1/2-z
1/2-x,1/2+y,z
1/2+x,1/2-y,1/2+z
loop_
_atom_site_type_symbol
_atom_site_label
_atom_site_fract_x
_atom_site_fract_y
_atom_site_fract_z
Si Si1 0.342764 0.433039 0.867206
Si Si2 0.077980 0.604446 0.566481
Si Si3 0.084452 0.169843 0.023380
Si Si4 0.916222 0.398767 0.630104
Si Si5 0.708401 0.998688 0.313645
Si Si6 0.581935 0.356454 0.390330
Si Si7 0.378356 0.204700 0.814935
O O1 0.372300 0.395503 0.929080
O O2 0.260666 0.452270 0.860297
O O3 0.376486 0.551874 0.855483
O O4 0.365194 0.332810 0.826022
O O5 0.109231 0.702773 0.529025
O O6 0.104196 0.480925 0.576982
O O7 0.077961 0.657453 0.631276
O O8 0.000000 0.593313 0.544426
O O9 0.000000 0.164454 0.035662
O O10 0.094105 0.129361 0.958738
O O11 0.866988 0.444310 0.680277
O O12 0.901930 0.270650 0.622097
O O13 0.000000 0.412079 0.638281
O O14 0.737648 0.018567 0.250000
O O15 0.692117 0.868920 0.320047
O O16 0.500000 0.372901 0.379889
O O17 0.405431 0.186886 0.750000
#
# Coordination Sequence:
#
# PCOD9474196 Si02
#       7
#    16  16  16  16  16  16  16
#     4  11  21  34  57  83 117 153 196 237 282 349
#     4   8  15  30  55  84 112 141 185 241 285 333
#     4   9  18  35  60  86 117 160 201 238 285 342
#     4   9  19  37  61  89 119 150 193 247 296 347
#     4  10  22  39  61  83 111 152 194 241 299 355
#     4  10  21  37  60  88 120 159 196 237 294 349
#     4   9  19  35  53  76 104 143 192 233 285 344
#
# _framework density 20.687864000000001
#
# number of rings (size 3 to 8) (size 9 to 14) (size 15 to 20)
#    0.000    2.571    0.000    1.286    2.000    2.857 
#    0.000    7.143    9.429    6.857    0.000    0.000 
#    0.000    0.000    0.000    0.000    0.000    0.000 
#
# Total GULP energy -311881.168411 kJ/mol
# GULP energy per Si atom -5569.306579 kJ/mol
# Density = 2.064078 g / cm^3
# Si number density = 20.687864 Si / 1000 Ang^3
#
#
#
# Elastic Constant Matrix: (Units=GPa)
#
#
# Indices 1 2 3 4 5 6 
#
# 1 50.6525 43.2028 22.8386 0.0000 0.0000 0.0000
# 2 43.2028 154.3056 27.8944 0.0000 0.0000 0.0000
# 3 22.8386 27.8944 44.6595 0.0000 0.0000 0.0000
# 4 0.0000 0.0000 0.0000 24.3292 0.0000 0.0000
# 5 0.0000 0.0000 0.0000 0.0000 97.3801 0.0000
# 6 0.0000 0.0000 0.0000 0.0000 0.0000 57.5267
#
#
#
# Elastic Compliance Matrix: (Units=1/GPa)
#
#
# Indices 1 2 3 4 5 6 
#
# 1 0.030436 -0.006434 -0.011546 0.000000 0.000000 0.000000
# 2 -0.006434 0.008666 -0.002122 0.000000 0.000000 0.000000
# 3 -0.011546 -0.002122 0.029622 0.000000 0.000000 0.000000
# 4 0.000000 0.000000 0.000000 0.041103 0.000000 0.000000
# 5 0.000000 0.000000 0.000000 0.000000 0.010269 0.000000
# 6 0.000000 0.000000 0.000000 0.000000 0.000000 0.017383
#
#
# Mechanical properties :
#
#
# Convention : Reuss Voigt Hill
#
# Bulk Modulus (GPa) = 35.06473 48.60991 41.83732
# Shear Modulus (GPa) = 26.71075 46.22600 36.46837
#
# Velocity S-wave (km/s) = 3.59713 4.73212 4.20311
# Velocity P-wave (km/s) = 5.85138 7.30788 6.61981
#
# Compressibility (1/GPa) = 0.02851869
#
# Stress axis : x y z
#
# Youngs Moduli (GPa) = 32.85537 115.39627 33.75899
#
# Poissons Ratio (x) = 0.74251 0.38978
# Poissons Ratio (y) = 0.21141 0.07164
# Poissons Ratio (z) = 0.37935 0.24489
#
# Static dielectric constant tensor:
#      x y z
#    x 1.729490 0.000000 0.000000 
#    y 0.000000 1.804170 0.000000 
#    z 0.000000 0.000000 1.754500 
# 
# From -- ./inp_files/70472.got.cif
#   From: 2010.05.17/outbox.cif.g08.bks.cpg/sg63_36_cif.got.tgz:70472.got - 2010.06.03 15:47:04.
