data_PCOD9474904
_publ_section_title
;
Structure prediction by ZEFSAII (Michael W. Deem and Ramdas Pophale) SiO2 
 PCOD9474904
Probable space group: C M C M
;
_chemical_formula_sum "Si O2"
_cell_formula_units_Z 96
_cell_length_a 23.262673
_cell_length_b 9.283583
_cell_length_c 24.326146
_cell_angle_alpha 90.000000
_cell_angle_beta 90.000000
_cell_angle_gamma 90.000000
_cell_volume 5253.497736
_symmetry_space_group_name_H-M "C M C M"
_symmetry_group_IT_number 63
_symmetry_cell_setting 'orthorhombic'
loop_
_space_group_symop_operation_xyz
x,y,z
-x,-y,1/2+z
x,-y,-z
-x,y,1/2-z
-x,-y,-z
x,y,1/2-z
-x,y,z
x,-y,1/2+z
1/2+x,1/2+y,z
1/2-x,1/2-y,1/2+z
1/2+x,1/2-y,-z
1/2-x,1/2+y,1/2-z
1/2-x,1/2-y,-z
1/2+x,1/2+y,1/2-z
1/2-x,1/2+y,z
1/2+x,1/2-y,1/2+z
loop_
_atom_site_type_symbol
_atom_site_label
_atom_site_fract_x
_atom_site_fract_y
_atom_site_fract_z
Si Si1 0.331945 0.088327 0.055283
Si Si2 0.352516 0.588448 0.554541
Si Si3 0.746152 0.482888 0.360632
Si Si4 0.673243 0.727293 0.186750
Si Si5 0.066549 0.867933 0.609020
Si Si6 0.939206 0.565441 0.938637
O O1 0.355134 0.244407 0.039810
O O2 0.279576 0.085962 0.096667
O O3 0.383186 0.005074 0.086361
O O4 0.316968 0.000000 0.000000
O O5 0.336129 0.500000 0.500000
O O6 0.304261 0.581778 0.601638
O O7 0.408671 0.510975 0.579969
O O8 0.714768 0.587066 0.317524
O O9 0.789371 0.361134 0.337674
O O10 0.659026 0.757496 0.250000
O O11 0.614965 0.685911 0.152885
O O12 0.065213 0.736868 0.565104
O O13 0.000000 0.885139 0.628389
O O14 0.000000 0.525666 0.911909
O O15 0.939862 0.500000 0.000000
#
# Coordination Sequence:
#
# PCOD9474904 Si02
#       6
#    16  16  16  16  16  16
#     4  11  21  33  56  84 120 158 192 231 283 351
#     4  11  23  35  56  88 123 162 193 231 286 350
#     4  11  22  38  58  87 117 151 191 241 296 352
#     4  11  23  41  63  87 114 149 197 251 302 346
#     4  10  22  40  60  86 118 155 200 242 288 343
#     4   9  17  31  53  80 113 152 191 227 273 336
#
# _framework density 18.273540000000001
#
# number of rings (size 3 to 8) (size 9 to 14) (size 15 to 20)
#    0.000    1.500    3.333    3.000    2.333    2.667 
#    0.000    0.000    0.000    0.000    0.000    0.000 
#    0.000    0.000    0.000    0.000    0.000    0.000 
#
# Total GULP energy -267308.757472 kJ/mol
# GULP energy per Si atom -5568.932447 kJ/mol
# Density = 1.823195 g / cm^3
# Si number density = 18.273540 Si / 1000 Ang^3
#
#
#
# Elastic Constant Matrix: (Units=GPa)
#
#
# Indices 1 2 3 4 5 6 
#
# 1 107.2709 35.0907 33.5834 0.0000 0.0000 0.0000
# 2 35.0907 117.4558 32.0385 0.0000 0.0000 0.0000
# 3 33.5834 32.0385 83.4806 0.0000 0.0000 0.0000
# 4 0.0000 0.0000 0.0000 19.1049 0.0000 0.0000
# 5 0.0000 0.0000 0.0000 0.0000 11.7855 0.0000
# 6 0.0000 0.0000 0.0000 0.0000 0.0000 11.6562
#
#
#
# Elastic Compliance Matrix: (Units=1/GPa)
#
#
# Indices 1 2 3 4 5 6 
#
# 1 0.011227 -0.002370 -0.003607 0.000000 0.000000 0.000000
# 2 -0.002370 0.010010 -0.002888 0.000000 0.000000 0.000000
# 3 -0.003607 -0.002888 0.014538 0.000000 0.000000 0.000000
# 4 0.000000 0.000000 0.000000 0.052343 0.000000 0.000000
# 5 0.000000 0.000000 0.000000 0.000000 0.084850 0.000000
# 6 0.000000 0.000000 0.000000 0.000000 0.000000 0.085791
#
#
# Mechanical properties :
#
#
# Convention : Reuss Voigt Hill
#
# Bulk Modulus (GPa) = 55.41834 56.62584 56.02209
# Shear Modulus (GPa) = 17.69887 22.34228 20.02058
#
# Velocity S-wave (km/s) = 3.11553 3.50045 3.31358
# Velocity P-wave (km/s) = 6.58293 6.88423 6.73527
#
# Compressibility (1/GPa) = 0.01804457
#
# Stress axis : x y z
#
# Youngs Moduli (GPa) = 89.07317 99.90270 68.78449
#
# Poissons Ratio (x) = 0.23679 0.24809
# Poissons Ratio (y) = 0.21113 0.19865
# Poissons Ratio (z) = 0.32126 0.28852
#
# Static dielectric constant tensor:
#      x y z
#    x 1.702100 0.000000 0.000000 
#    y 0.000000 1.665770 0.000000 
#    z 0.000000 0.000000 1.621010 
# 
# From -- ./inp_files/64965.got.cif
#   From: 2010.05.17/outbox.cif.g08.bks.cpg/sg63_33_cif.got.tgz:64965.got - 2010.06.03 15:47:04.
