data_PCOD9474621
_publ_section_title
;
Structure prediction by ZEFSAII (Michael W. Deem and Ramdas Pophale) SiO2 
 PCOD9474621
Probable space group: C M C M
;
_chemical_formula_sum "Si O2"
_cell_formula_units_Z 64
_cell_length_a 13.245850
_cell_length_b 16.290777
_cell_length_c 14.719954
_cell_angle_alpha 90.000000
_cell_angle_beta 90.000000
_cell_angle_gamma 90.000000
_cell_volume 3176.348049
_symmetry_space_group_name_H-M "C M C M"
_symmetry_group_IT_number 63
_symmetry_cell_setting 'orthorhombic'
loop_
_space_group_symop_operation_xyz
x,y,z
-x,-y,1/2+z
x,-y,-z
-x,y,1/2-z
-x,-y,-z
x,y,1/2-z
-x,y,z
x,-y,1/2+z
1/2+x,1/2+y,z
1/2-x,1/2-y,1/2+z
1/2+x,1/2-y,-z
1/2-x,1/2+y,1/2-z
1/2-x,1/2-y,-z
1/2+x,1/2+y,1/2-z
1/2-x,1/2+y,z
1/2+x,1/2-y,1/2+z
loop_
_atom_site_type_symbol
_atom_site_label
_atom_site_fract_x
_atom_site_fract_y
_atom_site_fract_z
Si Si1 0.168534 0.688062 0.962764
Si Si2 0.386887 0.902141 0.849491
Si Si3 0.722834 0.468159 0.101947
Si Si4 0.500000 0.709238 0.360050
Si Si5 0.500000 0.520636 0.144305
O O1 0.223887 0.619711 0.901371
O O2 0.093218 0.741019 0.901887
O O3 0.250000 0.750000 0.000000
O O4 0.123135 0.647676 0.055682
O O5 0.381056 0.857849 0.750000
O O6 0.500000 0.940052 0.852775
O O7 0.296592 0.967959 0.848274
O O8 0.604585 0.473283 0.125820
O O9 0.725646 0.500000 0.000000
O O10 0.500000 0.711324 0.250000
O O11 0.500000 0.613979 0.395135
O O12 0.500000 0.536099 0.250000
#
# Coordination Sequence:
#
# PCOD9474621 Si02
#       5
#    16  16  16   8   8
#     4  11  24  41  65  97 134 170 216 272 333 398
#     4  10  21  40  66  93 126 168 217 270 326 387
#     4  10  22  38  65  91 122 167 219 266 319 391
#     4  11  24  41  65  97 138 178 220 276 338 393
#     4  11  23  43  65  91 131 178 226 268 323 397
#
# _framework density 20.148924000000001
#
# number of rings (size 3 to 8) (size 9 to 14) (size 15 to 20)
#    0.000    1.500    1.250    4.125    1.750    7.500 
#    0.000    0.000    0.000    0.000    0.000    0.000 
#    0.000    0.000    0.000    0.000    0.000    0.000 
#
# Total GULP energy -178246.623764 kJ/mol
# GULP energy per Si atom -5570.206993 kJ/mol
# Density = 2.010306 g / cm^3
# Si number density = 20.148924 Si / 1000 Ang^3
#
#
#
# Elastic Constant Matrix: (Units=GPa)
#
#
# Indices 1 2 3 4 5 6 
#
# 1 157.7799 29.9132 37.5586 0.0000 0.0000 0.0000
# 2 29.9132 46.8893 15.0072 0.0000 0.0000 0.0000
# 3 37.5586 15.0072 106.5178 0.0000 0.0000 0.0000
# 4 0.0000 0.0000 0.0000 17.5461 0.0000 0.0000
# 5 0.0000 0.0000 0.0000 0.0000 28.9977 0.0000
# 6 0.0000 0.0000 0.0000 0.0000 0.0000 60.3475
#
#
#
# Elastic Compliance Matrix: (Units=1/GPa)
#
#
# Indices 1 2 3 4 5 6 
#
# 1 0.007634 -0.004198 -0.002100 0.000000 0.000000 0.000000
# 2 -0.004198 0.024642 -0.001992 0.000000 0.000000 0.000000
# 3 -0.002100 -0.001992 0.010409 0.000000 0.000000 0.000000
# 4 0.000000 0.000000 0.000000 0.056993 0.000000 0.000000
# 5 0.000000 0.000000 0.000000 0.000000 0.034486 0.000000
# 6 0.000000 0.000000 0.000000 0.000000 0.000000 0.016571
#
#
# Mechanical properties :
#
#
# Convention : Reuss Voigt Hill
#
# Bulk Modulus (GPa) = 38.30562 52.90501 45.60531
# Shear Modulus (GPa) = 28.40655 36.62545 32.51600
#
# Velocity S-wave (km/s) = 3.75884 4.26812 4.02155
# Velocity P-wave (km/s) = 6.15557 7.11359 6.65185
#
# Compressibility (1/GPa) = 0.02610583
#
# Stress axis : x y z
#
# Youngs Moduli (GPa) = 130.99727 40.58070 96.06822
#
# Poissons Ratio (x) = 0.17035 0.20177
# Poissons Ratio (y) = 0.54990 0.19134
# Poissons Ratio (z) = 0.27513 0.08082
#
# Static dielectric constant tensor:
#      x y z
#    x 2.329660 0.000000 0.000000 
#    y 0.000000 1.754460 0.000000 
#    z 0.000000 0.000000 1.764890 
# 
# From -- ./inp_files/29160.got.cif
#   From: 2010.05.17/outbox.cif.g08.bks.cpg/sg63_15_cif.got.tgz:29160.got - 2010.06.03 15:47:04.
