data_PCOD9474193
_publ_section_title
;
Structure prediction by ZEFSAII (Michael W. Deem and Ramdas Pophale) SiO2 
 PCOD9474193
Probable space group: C M C M
;
_chemical_formula_sum "Si O2"
_cell_formula_units_Z 64
_cell_length_a 10.642572
_cell_length_b 20.244229
_cell_length_c 14.273230
_cell_angle_alpha 90.000000
_cell_angle_beta 90.000000
_cell_angle_gamma 90.000000
_cell_volume 3075.176891
_symmetry_space_group_name_H-M "C M C M"
_symmetry_group_IT_number 63
_symmetry_cell_setting 'orthorhombic'
loop_
_space_group_symop_operation_xyz
x,y,z
-x,-y,1/2+z
x,-y,-z
-x,y,1/2-z
-x,-y,-z
x,y,1/2-z
-x,y,z
x,-y,1/2+z
1/2+x,1/2+y,z
1/2-x,1/2-y,1/2+z
1/2+x,1/2-y,-z
1/2-x,1/2+y,1/2-z
1/2-x,1/2-y,-z
1/2+x,1/2+y,1/2-z
1/2-x,1/2+y,z
1/2+x,1/2-y,1/2+z
loop_
_atom_site_type_symbol
_atom_site_label
_atom_site_fract_x
_atom_site_fract_y
_atom_site_fract_z
Si Si1 0.860447 0.517420 0.859547
Si Si2 0.143343 0.752959 0.078721
Si Si3 0.861312 0.898783 0.445371
Si Si4 0.243115 0.123236 0.147373
O O1 0.853113 0.536570 0.750000
O O2 0.750349 0.553966 0.914426
O O3 0.836282 0.439048 0.862626
O O4 0.000000 0.533843 0.894556
O O5 0.147942 0.829222 0.110687
O O6 0.181406 0.692069 0.143806
O O7 0.000000 0.742515 0.044933
O O8 0.250000 0.750000 0.000000
O O9 0.844951 0.881754 0.555835
O O10 0.000000 0.927375 0.429392
O O11 0.181096 0.117298 0.250000
#
# Coordination Sequence:
#
# PCOD9474193 Si02
#       4
#    16  16  16  16
#     4  10  22  39  59  85 116 153 199 247 293 342
#     4   9  19  36  57  81 110 145 188 236 285 340
#     4  10  22  39  60  88 121 156 192 235 293 355
#     4  10  21  37  60  88 117 152 197 246 290 338
#
# _framework density 20.811810999999999
#
# number of rings (size 3 to 8) (size 9 to 14) (size 15 to 20)
#    0.000    2.250    0.000    1.500    0.000   11.500 
#    0.000    5.000    0.000    0.000    0.000    0.000 
#    0.000    0.000    0.000    0.000    0.000    0.000 
#
# Total GULP energy -178398.967107 kJ/mol
# GULP energy per Si atom -5574.967722 kJ/mol
# Density = 2.076444 g / cm^3
# Si number density = 20.811811 Si / 1000 Ang^3
#
#
#
# Elastic Constant Matrix: (Units=GPa)
#
#
# Indices 1 2 3 4 5 6 
#
# 1 144.9249 55.6499 46.1826 0.0000 0.0000 0.0000
# 2 55.6499 114.6304 40.6216 0.0000 0.0000 0.0000
# 3 46.1826 40.6216 88.3043 0.0000 0.0000 0.0000
# 4 0.0000 0.0000 0.0000 22.2597 0.0000 0.0000
# 5 0.0000 0.0000 0.0000 0.0000 12.1036 0.0000
# 6 0.0000 0.0000 0.0000 0.0000 0.0000 14.9477
#
#
#
# Elastic Compliance Matrix: (Units=1/GPa)
#
#
# Indices 1 2 3 4 5 6 
#
# 1 0.009222 -0.003307 -0.003302 0.000000 0.000000 0.000000
# 2 -0.003307 0.011609 -0.003611 0.000000 0.000000 0.000000
# 3 -0.003302 -0.003611 0.014712 0.000000 0.000000 0.000000
# 4 0.000000 0.000000 0.000000 0.044924 0.000000 0.000000
# 5 0.000000 0.000000 0.000000 0.000000 0.082620 0.000000
# 6 0.000000 0.000000 0.000000 0.000000 0.000000 0.066900
#
#
# Mechanical properties :
#
#
# Convention : Reuss Voigt Hill
#
# Bulk Modulus (GPa) = 66.20726 70.30752 68.25739
# Shear Modulus (GPa) = 19.57245 23.55590 21.56418
#
# Velocity S-wave (km/s) = 3.07000 3.36795 3.22242
# Velocity P-wave (km/s) = 6.66693 6.99857 6.83476
#
# Compressibility (1/GPa) = 0.01510408
#
# Stress axis : x y z
#
# Youngs Moduli (GPa) = 108.43414 86.14251 67.97045
#
# Poissons Ratio (x) = 0.28488 0.22443
# Poissons Ratio (y) = 0.35860 0.24542
# Poissons Ratio (z) = 0.35803 0.31103
#
# Static dielectric constant tensor:
#      x y z
#    x 1.713350 0.000000 0.000000 
#    y 0.000000 1.775100 0.000000 
#    z 0.000000 0.000000 1.795560 
# 
# From -- ./inp_files/29323.got.cif
#   From: 2010.05.17/outbox.cif.g08.bks.cpg/sg63_15_cif.got.tgz:29323.got - 2010.06.03 15:47:04.
