data_PCOD9474851
_publ_section_title
;
Structure prediction by ZEFSAII (Michael W. Deem and Ramdas Pophale) SiO2 
 PCOD9474851
Probable space group: C M C M
;
_chemical_formula_sum "Si O2"
_cell_formula_units_Z 80
_cell_length_a 23.594923
_cell_length_b 10.108113
_cell_length_c 17.202839
_cell_angle_alpha 90.000000
_cell_angle_beta 90.000000
_cell_angle_gamma 90.000000
_cell_volume 4102.879646
_symmetry_space_group_name_H-M "C M C M"
_symmetry_group_IT_number 63
_symmetry_cell_setting 'orthorhombic'
loop_
_space_group_symop_operation_xyz
x,y,z
-x,-y,1/2+z
x,-y,-z
-x,y,1/2-z
-x,-y,-z
x,y,1/2-z
-x,y,z
x,-y,1/2+z
1/2+x,1/2+y,z
1/2-x,1/2-y,1/2+z
1/2+x,1/2-y,-z
1/2-x,1/2+y,1/2-z
1/2-x,1/2-y,-z
1/2+x,1/2+y,1/2-z
1/2-x,1/2+y,z
1/2+x,1/2-y,1/2+z
loop_
_atom_site_type_symbol
_atom_site_label
_atom_site_fract_x
_atom_site_fract_y
_atom_site_fract_z
Si Si1 0.860987 0.261254 0.383106
Si Si2 0.145232 0.973644 0.159544
Si Si3 0.138270 0.708400 0.432543
Si Si4 0.748493 0.859252 0.661305
Si Si5 0.066352 0.490518 0.662343
O O1 0.859990 0.282844 0.475164
O O2 0.796398 0.253619 0.351770
O O3 0.897661 0.375596 0.345291
O O4 0.883320 0.113577 0.362956
O O5 0.134909 0.943544 0.250000
O O6 0.130285 0.853129 0.104680
O O7 0.212198 0.010775 0.150918
O O8 0.197533 0.653554 0.398084
O O9 0.090060 0.611779 0.400449
O O10 0.727505 0.853578 0.750000
O O11 0.074294 0.436745 0.750000
O O12 0.000000 0.516728 0.650842
#
# Coordination Sequence:
#
# PCOD9474851 Si02
#       5
#    16  16  16  16  16
#     4  10  22  39  60  90 126 160 204 255 313 375
#     4   9  20  37  59  87 122 162 201 244 302 371
#     4  12  22  37  62  94 127 158 205 265 318 363
#     4   9  20  35  58  88 124 166 203 245 305 374
#     4  11  25  45  67  89 120 168 217 258 309 377
#
# _framework density 19.498498999999999
#
# number of rings (size 3 to 8) (size 9 to 14) (size 15 to 20)
#    1.200    0.600    0.000    4.800    2.800    1.600 
#    3.600    1.000    0.000    6.000    0.000    0.000 
#    0.000    0.000    0.000    0.000    0.000    0.000 
#
# Total GULP energy -223229.938799 kJ/mol
# GULP energy per Si atom -5580.748470 kJ/mol
# Density = 1.945412 g / cm^3
# Si number density = 19.498499 Si / 1000 Ang^3
#
#
#
# Elastic Constant Matrix: (Units=GPa)
#
#
# Indices 1 2 3 4 5 6 
#
# 1 60.2555 5.5679 8.0191 0.0000 0.0000 0.0000
# 2 5.5679 61.7915 4.9546 0.0000 0.0000 0.0000
# 3 8.0191 4.9546 79.1480 0.0000 0.0000 0.0000
# 4 0.0000 0.0000 0.0000 33.4931 0.0000 0.0000
# 5 0.0000 0.0000 0.0000 0.0000 32.6417 0.0000
# 6 0.0000 0.0000 0.0000 0.0000 0.0000 44.8009
#
#
#
# Elastic Compliance Matrix: (Units=1/GPa)
#
#
# Indices 1 2 3 4 5 6 
#
# 1 0.016942 -0.001396 -0.001629 0.000000 0.000000 0.000000
# 2 -0.001396 0.016380 -0.000884 0.000000 0.000000 0.000000
# 3 -0.001629 -0.000884 0.012855 0.000000 0.000000 0.000000
# 4 0.000000 0.000000 0.000000 0.029857 0.000000 0.000000
# 5 0.000000 0.000000 0.000000 0.000000 0.030636 0.000000
# 6 0.000000 0.000000 0.000000 0.000000 0.000000 0.022321
#
#
# Mechanical properties :
#
#
# Convention : Reuss Voigt Hill
#
# Bulk Modulus (GPa) = 26.06962 26.47535 26.27248
# Shear Modulus (GPa) = 33.42364 34.36404 33.89384
#
# Velocity S-wave (km/s) = 4.14474 4.20264 4.17379
# Velocity P-wave (km/s) = 6.02530 6.09567 6.06059
#
# Compressibility (1/GPa) = 0.03835883
#
# Stress axis : x y z
#
# Youngs Moduli (GPa) = 59.02560 61.04960 77.79107
#
# Poissons Ratio (x) = 0.08522 0.12673
# Poissons Ratio (y) = 0.08240 0.06876
# Poissons Ratio (z) = 0.09616 0.05396
#
# Static dielectric constant tensor:
#      x y z
#    x 1.651880 0.000000 0.000000 
#    y 0.000000 1.711500 0.000000 
#    z 0.000000 0.000000 1.649120 
# 
# From -- ./inp_files/48761.got.cif
#   From: 2010.05.17/outbox.cif.g08.bks.cpg/sg63_25_cif.got.tgz:48761.got - 2010.06.03 15:47:04.
