data_PCOD9474679
_publ_section_title
;
Structure prediction by ZEFSAII (Michael W. Deem and Ramdas Pophale) SiO2 
 PCOD9474679
Probable space group: C M C M
;
_chemical_formula_sum "Si O2"
_cell_formula_units_Z 68
_cell_length_a 9.980148
_cell_length_b 19.737370
_cell_length_c 15.648456
_cell_angle_alpha 90.000000
_cell_angle_beta 90.000000
_cell_angle_gamma 90.000000
_cell_volume 3082.462184
_symmetry_space_group_name_H-M "C M C M"
_symmetry_group_IT_number 63
_symmetry_cell_setting 'orthorhombic'
loop_
_space_group_symop_operation_xyz
x,y,z
-x,-y,1/2+z
x,-y,-z
-x,y,1/2-z
-x,-y,-z
x,y,1/2-z
-x,y,z
x,-y,1/2+z
1/2+x,1/2+y,z
1/2-x,1/2-y,1/2+z
1/2+x,1/2-y,-z
1/2-x,1/2+y,1/2-z
1/2-x,1/2-y,-z
1/2+x,1/2+y,1/2-z
1/2-x,1/2+y,z
1/2+x,1/2-y,1/2+z
loop_
_atom_site_type_symbol
_atom_site_label
_atom_site_fract_x
_atom_site_fract_y
_atom_site_fract_z
Si Si1 0.000000 0.501184 0.250000
Si Si2 0.294822 0.016951 0.593083
Si Si3 0.150501 0.860984 0.348588
Si Si4 0.341593 0.219346 0.075436
Si Si5 0.148040 0.106701 0.147130
O O1 0.886447 0.499023 0.326066
O O2 0.254301 0.095585 0.597499
O O3 0.350162 0.000000 0.500000
O O4 0.168071 0.967775 0.608249
O O5 0.164986 0.881454 0.250000
O O6 0.164478 0.780556 0.356230
O O7 0.000000 0.876959 0.377861
O O8 0.500000 0.208062 0.054856
O O9 0.267265 0.153601 0.111823
O O10 0.250000 0.250000 0.000000
O O11 0.155026 0.104323 0.250000
O O12 0.000000 0.133703 0.123570
#
# Coordination Sequence:
#
# PCOD9474679 Si02
#       5
#     4  16  16  16  16
#     4  12  26  48  62 102 148 172 228 278 360 414
#     4  12  25  44  71 100 134 181 229 285 342 413
#     4  10  21  43  68  95 129 177 228 280 340 405
#     4  11  24  42  66  97 136 180 234 290 345 415
#     4  11  24  44  69 100 136 182 231 288 350 415
#
# _framework density 22.060285
#
# number of rings (size 3 to 8) (size 9 to 14) (size 15 to 20)
#    0.000    0.941    2.353    3.882    1.647    7.059 
#    8.471    0.000    0.000    0.000    0.000    0.000 
#    0.000    0.000    0.000    0.000    0.000    0.000 
#
# Total GULP energy -189453.595981 kJ/mol
# GULP energy per Si atom -5572.164588 kJ/mol
# Density = 2.201008 g / cm^3
# Si number density = 22.060285 Si / 1000 Ang^3
#
#
#
# Elastic Constant Matrix: (Units=GPa)
#
#
# Indices 1 2 3 4 5 6 
#
# 1 135.4426 26.7256 37.9178 0.0000 0.0000 0.0000
# 2 26.7256 72.7430 -4.7765 0.0000 0.0000 0.0000
# 3 37.9178 -4.7765 129.2499 0.0000 0.0000 0.0000
# 4 0.0000 0.0000 0.0000 34.0942 0.0000 0.0000
# 5 0.0000 0.0000 0.0000 0.0000 9.5816 0.0000
# 6 0.0000 0.0000 0.0000 0.0000 0.0000 -54.0169
#
#
#
# Elastic Compliance Matrix: (Units=1/GPa)
#
#
# Indices 1 2 3 4 5 6 
#
# 1 0.008817 -0.003418 -0.002713 0.000000 0.000000 0.000000
# 2 -0.003418 0.015105 0.001561 0.000000 0.000000 0.000000
# 3 -0.002713 0.001561 0.008591 0.000000 0.000000 0.000000
# 4 0.000000 0.000000 0.000000 0.029331 0.000000 0.000000
# 5 0.000000 0.000000 0.000000 0.000000 0.104366 0.000000
# 6 0.000000 0.000000 0.000000 0.000000 0.000000 -0.018513
#
#
# Mechanical properties :
#
#
# Convention : Reuss Voigt Hill
#
# Bulk Modulus (GPa) = 42.78371 50.79660 46.79016
# Shear Modulus (GPa) = 30.37163 16.43635 23.40399
#
# Velocity S-wave (km/s) = 3.71449 2.73255 3.26070
# Velocity P-wave (km/s) = 6.15083 5.74735 5.95251
#
# Compressibility (1/GPa) = 0.02337338
#
# Stress axis : x y z
#
# Youngs Moduli (GPa) = 113.41671 66.20284 116.40745
#
# Poissons Ratio (x) = 0.22625 0.31581
# Poissons Ratio (y) = 0.38760 -0.18169
# Poissons Ratio (z) = 0.30769 -0.10333
#
# Static dielectric constant tensor:
#      x y z
#    x 1.814280 0.000000 0.000000 
#    y 0.000000 1.799240 0.000000 
#    z 0.000000 0.000000 1.798510 
# 
# From -- ./inp_files/39970.got.cif
#   From: 2010.05.17/outbox.cif.g08.bks.cpg/sg63_20_cif.got.tgz:39970.got - 2010.06.03 15:47:04.
