data_PCOD9474155
_publ_section_title
;
Structure prediction by ZEFSAII (Michael W. Deem and Ramdas Pophale) SiO2 
 PCOD9474155
Probable space group: C M C M
;
_chemical_formula_sum "Si O2"
_cell_formula_units_Z 72
_cell_length_a 13.541811
_cell_length_b 16.681959
_cell_length_c 14.737663
_cell_angle_alpha 90.000000
_cell_angle_beta 90.000000
_cell_angle_gamma 90.000000
_cell_volume 3329.296077
_symmetry_space_group_name_H-M "C M C M"
_symmetry_group_IT_number 63
_symmetry_cell_setting 'orthorhombic'
loop_
_space_group_symop_operation_xyz
x,y,z
-x,-y,1/2+z
x,-y,-z
-x,y,1/2-z
-x,-y,-z
x,y,1/2-z
-x,y,z
x,-y,1/2+z
1/2+x,1/2+y,z
1/2-x,1/2-y,1/2+z
1/2+x,1/2-y,-z
1/2-x,1/2+y,1/2-z
1/2-x,1/2-y,-z
1/2+x,1/2+y,1/2-z
1/2-x,1/2+y,z
1/2+x,1/2-y,1/2+z
loop_
_atom_site_type_symbol
_atom_site_label
_atom_site_fract_x
_atom_site_fract_y
_atom_site_fract_z
Si Si1 0.879121 0.634586 0.750000
Si Si2 0.751223 0.000000 0.000000
Si Si3 0.119373 0.250036 0.415722
Si Si4 0.117797 0.072138 0.143335
Si Si5 0.880870 0.447211 0.750000
Si Si6 0.118185 0.366448 0.939947
O O1 0.847995 0.687124 0.837922
O O2 0.847371 0.540657 0.750000
O O3 0.000000 0.632621 0.750000
O O4 0.822115 0.008074 0.085968
O O5 0.677180 0.073942 0.995295
O O6 0.149372 0.159726 0.393450
O O7 0.141329 0.279651 0.518028
O O8 0.000000 0.249184 0.408161
O O9 0.137281 0.067714 0.250000
O O10 0.000000 0.063385 0.129839
O O11 0.854663 0.395914 0.660730
O O12 0.000000 0.451978 0.750000
O O13 0.000000 0.377849 0.948648
#
# Coordination Sequence:
#
# PCOD9474155 Si02
#       6
#     8   8  16  16   8  16
#     4   9  14  24  49  82 109 150 203 239 281 342
#     4  12  24  36  64  92 124 158 206 250 312 364
#     4   9  17  34  61  87 114 158 207 249 295 353
#     4  10  22  43  66  88 117 158 211 264 306 352
#     4   9  18  32  53  82 126 172 197 231 292 360
#     4  10  21  37  58  90 131 165 197 242 302 370
#
# _framework density 21.626193000000001
#
# number of rings (size 3 to 8) (size 9 to 14) (size 15 to 20)
#    0.000    2.222    1.111    2.000    1.556    4.444 
#    2.000    0.000    2.444    0.000    0.000    0.000 
#    0.000    0.000    0.000    0.000    0.000    0.000 
#
# Total GULP energy -201002.316966 kJ/mol
# GULP energy per Si atom -5583.397694 kJ/mol
# Density = 2.157697 g / cm^3
# Si number density = 21.626193 Si / 1000 Ang^3
#
#
#
# Elastic Constant Matrix: (Units=GPa)
#
#
# Indices 1 2 3 4 5 6 
#
# 1 79.3813 32.8836 36.9273 0.0000 0.0000 0.0000
# 2 32.8836 54.5808 59.7538 0.0000 0.0000 0.0000
# 3 36.9273 59.7538 113.3029 0.0000 0.0000 0.0000
# 4 0.0000 0.0000 0.0000 27.8792 0.0000 0.0000
# 5 0.0000 0.0000 0.0000 0.0000 30.7269 0.0000
# 6 0.0000 0.0000 0.0000 0.0000 0.0000 32.7485
#
#
#
# Elastic Compliance Matrix: (Units=1/GPa)
#
#
# Indices 1 2 3 4 5 6 
#
# 1 0.016792 -0.009761 -0.000325 0.000000 0.000000 0.000000
# 2 -0.009761 0.049024 -0.022673 0.000000 0.000000 0.000000
# 3 -0.000325 -0.022673 0.020889 0.000000 0.000000 0.000000
# 4 0.000000 0.000000 0.000000 0.035869 0.000000 0.000000
# 5 0.000000 0.000000 0.000000 0.000000 0.032545 0.000000
# 6 0.000000 0.000000 0.000000 0.000000 0.000000 0.030536
#
#
# Mechanical properties :
#
#
# Convention : Reuss Voigt Hill
#
# Bulk Modulus (GPa) = 47.19837 56.26606 51.73221
# Shear Modulus (GPa) = 19.36211 26.11759 22.73985
#
# Velocity S-wave (km/s) = 2.99542 3.47894 3.24620
# Velocity P-wave (km/s) = 5.81682 6.49703 6.16631
#
# Compressibility (1/GPa) = 0.02118717
#
# Stress axis : x y z
#
# Youngs Moduli (GPa) = 59.55177 20.39805 47.87141
#
# Poissons Ratio (x) = 0.19910 0.01556
# Poissons Ratio (y) = 0.58128 1.08540
# Poissons Ratio (z) = 0.01936 0.46249
#
# Static dielectric constant tensor:
#      x y z
#    x 1.821990 0.000000 0.000000 
#    y 0.000000 1.805920 0.000000 
#    z 0.000000 0.000000 1.823430 
# 
# From -- ./inp_files/31510.got.cif
#   From: 2010.05.17/outbox.cif.g08.bks.cpg/sg63_16_cif.got.tgz:31510.got - 2010.06.03 15:47:04.
