data_PCOD9474748
_publ_section_title
;
Structure prediction by ZEFSAII (Michael W. Deem and Ramdas Pophale) SiO2 
 PCOD9474748
Probable space group: C M C M
;
_chemical_formula_sum "Si O2"
_cell_formula_units_Z 104
_cell_length_a 27.324645
_cell_length_b 10.187161
_cell_length_c 18.960048
_cell_angle_alpha 90.000000
_cell_angle_beta 90.000000
_cell_angle_gamma 90.000000
_cell_volume 5277.729539
_symmetry_space_group_name_H-M "C M C M"
_symmetry_group_IT_number 63
_symmetry_cell_setting 'orthorhombic'
loop_
_space_group_symop_operation_xyz
x,y,z
-x,-y,1/2+z
x,-y,-z
-x,y,1/2-z
-x,-y,-z
x,y,1/2-z
-x,y,z
x,-y,1/2+z
1/2+x,1/2+y,z
1/2-x,1/2-y,1/2+z
1/2+x,1/2-y,-z
1/2-x,1/2+y,1/2-z
1/2-x,1/2-y,-z
1/2+x,1/2+y,1/2-z
1/2-x,1/2+y,z
1/2+x,1/2-y,1/2+z
loop_
_atom_site_type_symbol
_atom_site_label
_atom_site_fract_x
_atom_site_fract_y
_atom_site_fract_z
Si Si1 0.557002 0.975083 0.329345
Si Si2 0.706454 0.500000 0.500000
Si Si3 0.628474 0.303332 0.554131
Si Si4 0.056742 0.157072 0.168858
Si Si5 0.726339 0.914205 0.871957
Si Si6 0.873760 0.391566 0.943019
Si Si7 0.197287 0.305980 0.173635
O O1 0.573872 0.008458 0.250000
O O2 0.500000 0.011789 0.336007
O O3 0.589026 0.046463 0.387609
O O4 0.558668 0.816663 0.335356
O O5 0.669123 0.380744 0.509839
O O6 0.741482 0.517904 0.433457
O O7 0.592679 0.385679 0.605436
O O8 0.602509 0.218199 0.493753
O O9 0.659757 0.217143 0.609938
O O10 0.069755 0.119834 0.250000
O O11 0.000000 0.118839 0.157723
O O12 0.676085 0.854605 0.902614
O O13 0.758661 0.797967 0.838430
O O14 0.712963 0.042302 0.826633
O O15 0.858015 0.500000 0.000000
O O16 0.174585 0.275809 0.250000
#
# Coordination Sequence:
#
# PCOD9474748 Si02
#       7
#    16   8  16  16  16  16  16
#     4   9  19  34  52  79 115 145 170 211 270 331
#     4  10  22  38  53  68 103 146 182 226 268 318
#     4  11  21  35  54  78 105 140 180 220 270 320
#     4   9  17  31  52  78 107 136 170 217 270 320
#     4  11  21  37  53  77 108 145 186 225 271 322
#     4  12  20  32  55  84 106 139 175 221 269 324
#     4  11  22  35  54  78 109 144 183 226 269 321
#
# _framework density 19.705442000000001
#
# number of rings (size 3 to 8) (size 9 to 14) (size 15 to 20)
#    0.000    1.538    3.846    2.769    0.000    5.846 
#    0.000    0.385    0.000    1.846    0.000    2.154 
#    0.000    0.000    0.000    0.000    0.000    0.000 
#
# Total GULP energy -289849.425938 kJ/mol
# GULP energy per Si atom -5574.027422 kJ/mol
# Density = 1.966059 g / cm^3
# Si number density = 19.705442 Si / 1000 Ang^3
#
#
#
# Elastic Constant Matrix: (Units=GPa)
#
#
# Indices 1 2 3 4 5 6 
#
# 1 67.6864 7.0982 19.1208 0.0000 0.0000 0.0000
# 2 7.0982 26.9417 24.0082 0.0000 0.0000 0.0000
# 3 19.1208 24.0082 86.7249 0.0000 0.0000 0.0000
# 4 0.0000 0.0000 0.0000 11.3487 0.0000 0.0000
# 5 0.0000 0.0000 0.0000 0.0000 19.6699 0.0000
# 6 0.0000 0.0000 0.0000 0.0000 0.0000 -0.2395
#
#
#
# Elastic Compliance Matrix: (Units=1/GPa)
#
#
# Indices 1 2 3 4 5 6 
#
# 1 0.015795 -0.001405 -0.003094 0.000000 0.000000 0.000000
# 2 -0.001405 0.049397 -0.013365 0.000000 0.000000 0.000000
# 3 -0.003094 -0.013365 0.015913 0.000000 0.000000 0.000000
# 4 0.000000 0.000000 0.000000 0.088116 0.000000 0.000000
# 5 0.000000 0.000000 0.000000 0.000000 0.050839 0.000000
# 6 0.000000 0.000000 0.000000 0.000000 0.000000 -4.176005
#
#
# Mechanical properties :
#
#
# Convention : Reuss Voigt Hill
#
# Bulk Modulus (GPa) = 22.03694 31.31192 26.67443
# Shear Modulus (GPa) = -1.28038 14.89754 6.80858
#
# Velocity S-wave (km/s) = -0.80695 2.75255 1.86083
# Velocity P-wave (km/s) = 3.21547 5.10162 4.26414
#
# Compressibility (1/GPa) = 0.04537836
#
# Stress axis : x y z
#
# Youngs Moduli (GPa) = 63.31025 20.24412 62.84328
#
# Poissons Ratio (x) = 0.02844 0.19441
# Poissons Ratio (y) = 0.08893 0.83990
# Poissons Ratio (z) = 0.19586 0.27056
#
# Static dielectric constant tensor:
#      x y z
#    x 1.703470 0.000000 0.000000 
#    y 0.000000 1.726480 0.000000 
#    z 0.000000 0.000000 1.736070 
# 
# From -- ./inp_files/49033.got.cif
#   From: 2010.05.17/outbox.cif.g08.bks.cpg/sg63_25_cif.got.tgz:49033.got - 2010.06.03 15:47:04.
