data_PCOD9474311
_publ_section_title
;
Structure prediction by ZEFSAII (Michael W. Deem and Ramdas Pophale) SiO2 
 PCOD9474311
Probable space group: C M C M
;
_chemical_formula_sum "Si O2"
_cell_formula_units_Z 64
_cell_length_a 13.122070
_cell_length_b 27.417557
_cell_length_c 8.119605
_cell_angle_alpha 90.000000
_cell_angle_beta 90.000000
_cell_angle_gamma 90.000000
_cell_volume 2921.231719
_symmetry_space_group_name_H-M "C M C M"
_symmetry_group_IT_number 63
_symmetry_cell_setting 'orthorhombic'
loop_
_space_group_symop_operation_xyz
x,y,z
-x,-y,1/2+z
x,-y,-z
-x,y,1/2-z
-x,-y,-z
x,y,1/2-z
-x,y,z
x,-y,1/2+z
1/2+x,1/2+y,z
1/2-x,1/2-y,1/2+z
1/2+x,1/2-y,-z
1/2-x,1/2+y,1/2-z
1/2-x,1/2-y,-z
1/2+x,1/2+y,1/2-z
1/2-x,1/2+y,z
1/2+x,1/2-y,1/2+z
loop_
_atom_site_type_symbol
_atom_site_label
_atom_site_fract_x
_atom_site_fract_y
_atom_site_fract_z
Si Si1 0.375447 0.213380 0.250000
Si Si2 0.379823 0.843888 0.070372
Si Si3 0.618336 0.393724 0.561190
Si Si4 0.623724 0.325715 0.250000
Si Si5 0.821161 0.553527 0.059787
O O1 0.500000 0.211085 0.250000
O O2 0.339062 0.185364 0.413319
O O3 0.344130 0.269490 0.250000
O O4 0.336991 0.831113 0.250000
O O5 0.500000 0.833028 0.075599
O O6 0.367955 0.901533 0.039622
O O7 0.627595 0.374592 0.750000
O O8 0.500000 0.407856 0.538224
O O9 0.646749 0.355655 0.417497
O O10 0.699191 0.437458 0.547636
O O11 0.500000 0.323342 0.250000
O O12 0.851140 0.559459 0.250000
O O13 0.848811 0.500000 0.000000
#
# Coordination Sequence:
#
# PCOD9474311 Si02
#       5
#     8  16  16   8  16
#     4   9  18  36  59  86 115 147 192 235 280 336
#     4  10  21  38  60  84 116 152 188 235 283 334
#     4   9  20  38  58  84 118 150 189 235 278 335
#     4   9  18  34  61  86 111 153 190 231 286 330
#     4  11  23  38  60  85 115 153 189 236 287 336
#
# _framework density 21.908566
#
# number of rings (size 3 to 8) (size 9 to 14) (size 15 to 20)
#    0.000    2.250    1.250    0.750    3.500    2.000 
#    0.000    6.250    0.000    0.000    0.000    0.000 
#    0.000    0.000    0.000    0.000    0.000    0.000 
#
# Total GULP energy -178767.159717 kJ/mol
# GULP energy per Si atom -5586.473741 kJ/mol
# Density = 2.185870 g / cm^3
# Si number density = 21.908566 Si / 1000 Ang^3
#
#
#
# Elastic Constant Matrix: (Units=GPa)
#
#
# Indices 1 2 3 4 5 6 
#
# 1 33.3390 -21.3386 8.2500 0.0000 0.0000 0.0000
# 2 -21.3386 103.8693 58.6515 0.0000 0.0000 0.0000
# 3 8.2500 58.6515 160.8821 0.0000 0.0000 0.0000
# 4 0.0000 0.0000 0.0000 24.3908 0.0000 0.0000
# 5 0.0000 0.0000 0.0000 0.0000 32.9363 0.0000
# 6 0.0000 0.0000 0.0000 0.0000 0.0000 23.1710
#
#
#
# Elastic Compliance Matrix: (Units=1/GPa)
#
#
# Indices 1 2 3 4 5 6 
#
# 1 0.038865 0.011471 -0.006175 0.000000 0.000000 0.000000
# 2 0.011471 0.015509 -0.006242 0.000000 0.000000 0.000000
# 3 -0.006175 -0.006242 0.008808 0.000000 0.000000 0.000000
# 4 0.000000 0.000000 0.000000 0.040999 0.000000 0.000000
# 5 0.000000 0.000000 0.000000 0.000000 0.030362 0.000000
# 6 0.000000 0.000000 0.000000 0.000000 0.000000 0.043157
#
#
# Mechanical properties :
#
#
# Convention : Reuss Voigt Hill
#
# Bulk Modulus (GPa) = 16.31593 43.24625 29.78109
# Shear Modulus (GPa) = 24.99726 32.93477 28.96601
#
# Velocity S-wave (km/s) = 3.38151 3.88143 3.64006
# Velocity P-wave (km/s) = 4.76545 6.31423 5.59371
#
# Compressibility (1/GPa) = 0.06128978
#
# Stress axis : x y z
#
# Youngs Moduli (GPa) = 25.73012 64.47955 113.53278
#
# Poissons Ratio (x) = -0.73965 0.70105
# Poissons Ratio (y) = -0.29515 0.70869
# Poissons Ratio (z) = 0.15888 0.40249
#
# Static dielectric constant tensor:
#      x y z
#    x 1.866040 0.000000 0.000000 
#    y 0.000000 1.715330 0.000000 
#    z 0.000000 0.000000 1.805420 
# 
# From -- ./inp_files/4305.got.cif
#   From: 2010.05.17/outbox.cif.g08.bks.cpg/sg63_3_cif.got.tgz:4305.got - 2010.06.03 15:47:04.
