data_PCOD9474848
_publ_section_title
;
Structure prediction by ZEFSAII (Michael W. Deem and Ramdas Pophale) SiO2 
 PCOD9474848
Probable space group: C M C M
;
_chemical_formula_sum "Si O2"
_cell_formula_units_Z 48
_cell_length_a 19.747286
_cell_length_b 9.372156
_cell_length_c 10.876701
_cell_angle_alpha 90.000000
_cell_angle_beta 90.000000
_cell_angle_gamma 90.000000
_cell_volume 2013.001576
_symmetry_space_group_name_H-M "C M C M"
_symmetry_group_IT_number 63
_symmetry_cell_setting 'orthorhombic'
loop_
_space_group_symop_operation_xyz
x,y,z
-x,-y,1/2+z
x,-y,-z
-x,y,1/2-z
-x,-y,-z
x,y,1/2-z
-x,y,z
x,-y,1/2+z
1/2+x,1/2+y,z
1/2-x,1/2-y,1/2+z
1/2+x,1/2-y,-z
1/2-x,1/2+y,1/2-z
1/2-x,1/2-y,-z
1/2+x,1/2+y,1/2-z
1/2-x,1/2+y,z
1/2+x,1/2-y,1/2+z
loop_
_atom_site_type_symbol
_atom_site_label
_atom_site_fract_x
_atom_site_fract_y
_atom_site_fract_z
Si Si1 0.787827 0.101924 0.382990
Si Si2 0.427040 0.666542 0.035531
Si Si3 0.136271 0.388930 0.887087
O O1 0.789479 0.025786 0.250000
O O2 0.857329 0.190526 0.390096
O O3 0.713604 0.172173 0.388587
O O4 0.788605 0.000000 0.500000
O O5 0.500000 0.701897 0.092473
O O6 0.428565 0.500000 0.000000
O O7 0.415374 0.762378 0.915474
O O8 0.125821 0.449288 0.750000
O O9 0.129949 0.500000 0.000000
#
# Coordination Sequence:
#
# PCOD9474848 Si02
#       3
#    16  16  16
#     4   9  19  37  62  92 126 165 212 264 317 376
#     4  10  22  39  60  89 126 167 211 258 312 375
#     4  10  22  42  68  96 127 166 214 267 321 379
#
# _framework density 23.844989999999999
#
# number of rings (size 3 to 8) (size 9 to 14) (size 15 to 20)
#    0.000    2.333    0.000    1.000    0.000    8.667 
#    0.000   20.000    0.000    0.000    0.000    0.000 
#    0.000    0.000    0.000    0.000    0.000    0.000 
#
# Total GULP energy -133755.505856 kJ/mol
# GULP energy per Si atom -5573.146077 kJ/mol
# Density = 2.379072 g / cm^3
# Si number density = 23.844990 Si / 1000 Ang^3
#
#
#
# Elastic Constant Matrix: (Units=GPa)
#
#
# Indices 1 2 3 4 5 6 
#
# 1 142.2032 42.4996 35.8135 0.0000 0.0000 0.0000
# 2 42.4996 76.5372 48.8483 0.0000 0.0000 0.0000
# 3 35.8135 48.8483 181.6791 0.0000 0.0000 0.0000
# 4 0.0000 0.0000 0.0000 26.6241 0.0000 0.0000
# 5 0.0000 0.0000 0.0000 0.0000 -19.7254 0.0000
# 6 0.0000 0.0000 0.0000 0.0000 0.0000 143.4230
#
#
#
# Elastic Compliance Matrix: (Units=1/GPa)
#
#
# Indices 1 2 3 4 5 6 
#
# 1 0.008467 -0.004390 -0.000489 0.000000 0.000000 0.000000
# 2 -0.004390 0.018048 -0.003987 0.000000 0.000000 0.000000
# 3 -0.000489 -0.003987 0.006673 0.000000 0.000000 0.000000
# 4 0.000000 0.000000 0.000000 0.037560 0.000000 0.000000
# 5 0.000000 0.000000 0.000000 0.000000 -0.050696 0.000000
# 6 0.000000 0.000000 0.000000 0.000000 0.000000 0.006972
#
#
# Mechanical properties :
#
#
# Convention : Reuss Voigt Hill
#
# Bulk Modulus (GPa) = 64.69911 72.74913 68.72412
# Shear Modulus (GPa) = 100.18536 48.28155 74.23346
#
# Velocity S-wave (km/s) = 6.48895 4.50467 5.58563
# Velocity P-wave (km/s) = 9.12875 7.59154 8.39540
#
# Compressibility (1/GPa) = 0.01545616
#
# Stress axis : x y z
#
# Youngs Moduli (GPa) = 118.10241 55.40836 149.86615
#
# Poissons Ratio (x) = 0.24323 0.07326
# Poissons Ratio (y) = 0.51843 0.59755
# Poissons Ratio (z) = 0.05773 0.22093
#
# Static dielectric constant tensor:
#      x y z
#    x 1.961420 0.000000 0.000000 
#    y 0.000000 1.919000 0.000000 
#    z 0.000000 0.000000 1.950120 
# 
# From -- ./inp_files/23341.got.cif
#   From: 2010.05.17/outbox.cif.g08.bks.cpg/sg63_12_cif.got.tgz:23341.got - 2010.06.03 15:47:04.
