data_PCOD9474658
_publ_section_title
;
Structure prediction by ZEFSAII (Michael W. Deem and Ramdas Pophale) SiO2 
 PCOD9474658
Probable space group: C M C M
;
_chemical_formula_sum "Si O2"
_cell_formula_units_Z 64
_cell_length_a 17.385178
_cell_length_b 10.787005
_cell_length_c 15.445201
_cell_angle_alpha 90.000000
_cell_angle_beta 90.000000
_cell_angle_gamma 90.000000
_cell_volume 2896.500355
_symmetry_space_group_name_H-M "C M C M"
_symmetry_group_IT_number 63
_symmetry_cell_setting 'orthorhombic'
loop_
_space_group_symop_operation_xyz
x,y,z
-x,-y,1/2+z
x,-y,-z
-x,y,1/2-z
-x,-y,-z
x,y,1/2-z
-x,y,z
x,-y,1/2+z
1/2+x,1/2+y,z
1/2-x,1/2-y,1/2+z
1/2+x,1/2-y,-z
1/2-x,1/2+y,1/2-z
1/2-x,1/2-y,-z
1/2+x,1/2+y,1/2-z
1/2-x,1/2+y,z
1/2+x,1/2-y,1/2+z
loop_
_atom_site_type_symbol
_atom_site_label
_atom_site_fract_x
_atom_site_fract_y
_atom_site_fract_z
Si Si1 0.092934 0.851978 0.750000
Si Si2 0.088189 0.872487 0.250000
Si Si3 0.710159 0.018689 0.901922
Si Si4 0.821143 0.245456 0.607808
Si Si5 0.592139 0.792835 0.072843
O O1 0.111219 0.786312 0.841167
O O2 0.000000 0.850281 0.750000
O O3 0.125786 0.990912 0.750000
O O4 0.108624 0.793216 0.167022
O O5 0.000000 0.900069 0.250000
O O6 0.710278 0.880520 0.865049
O O7 0.760480 0.135658 0.872398
O O8 0.622485 0.068891 0.905583
O O9 0.738203 0.000000 0.000000
O O10 0.854492 0.252500 0.509340
O O11 0.500000 0.786271 0.055772
#
# Coordination Sequence:
#
# PCOD9474658 Si02
#       5
#     8   8  16  16  16
#     4   9  22  40  62  99 128 160 213 263 320 391
#     4  11  26  42  64 101 129 162 223 267 315 395
#     4  10  23  42  65  99 127 173 220 264 317 395
#     4  11  25  42  68  92 135 173 211 270 327 377
#     4  10  21  41  69  96 131 174 216 269 327 376
#
# _framework density 22.09563
#
# number of rings (size 3 to 8) (size 9 to 14) (size 15 to 20)
#    0.000    1.750    0.000    3.750    7.000    8.500 
#    0.000    5.000    0.000    0.000    0.000    0.000 
#    0.000    0.000    0.000    0.000    0.000    0.000 
#
# Total GULP energy -178402.745296 kJ/mol
# GULP energy per Si atom -5575.085790 kJ/mol
# Density = 2.204534 g / cm^3
# Si number density = 22.095630 Si / 1000 Ang^3
#
#
#
# Elastic Constant Matrix: (Units=GPa)
#
#
# Indices 1 2 3 4 5 6 
#
# 1 101.6100 53.5990 19.5044 0.0000 0.0000 0.0000
# 2 53.5990 195.9381 48.9898 0.0000 0.0000 0.0000
# 3 19.5044 48.9898 96.0799 0.0000 0.0000 0.0000
# 4 0.0000 0.0000 0.0000 145.7272 0.0000 0.0000
# 5 0.0000 0.0000 0.0000 0.0000 -469.5830 0.0000
# 6 0.0000 0.0000 0.0000 0.0000 0.0000 38.4016
#
#
#
# Elastic Compliance Matrix: (Units=1/GPa)
#
#
# Indices 1 2 3 4 5 6 
#
# 1 0.011560 -0.002952 -0.000842 0.000000 0.000000 0.000000
# 2 -0.002952 0.006603 -0.002768 0.000000 0.000000 0.000000
# 3 -0.000842 -0.002768 0.011990 0.000000 0.000000 0.000000
# 4 0.000000 0.000000 0.000000 0.006862 0.000000 0.000000
# 5 0.000000 0.000000 0.000000 0.000000 -0.002130 0.000000
# 6 0.000000 0.000000 0.000000 0.000000 0.000000 0.026041
#
#
# Mechanical properties :
#
#
# Convention : Reuss Voigt Hill
#
# Bulk Modulus (GPa) = 58.71596 70.86827 64.79211
# Shear Modulus (GPa) = 62.71496 -38.98853 11.86321
#
# Velocity S-wave (km/s) = 5.33339 -4.20520 2.31963
# Velocity P-wave (km/s) = 8.03480 2.92657 6.04660
#
# Compressibility (1/GPa) = 0.01703115
#
# Stress axis : x y z
#
# Youngs Moduli (GPa) = 86.50357 151.44363 83.40266
#
# Poissons Ratio (x) = 0.44704 0.07019
# Poissons Ratio (y) = 0.25535 0.23083
# Poissons Ratio (z) = 0.07280 0.41914
#
# Static dielectric constant tensor:
#      x y z
#    x 1.827810 0.000000 0.000000 
#    y 0.000000 1.841470 0.000000 
#    z 0.000000 0.000000 1.619410 
# 
# From -- ./inp_files/33420.got.cif
#   From: 2010.05.17/outbox.cif.g08.bks.cpg/sg63_17_cif.got.tgz:33420.got - 2010.06.03 15:47:04.
