data_PCOD9474136
_publ_section_title
;
Structure prediction by ZEFSAII (Michael W. Deem and Ramdas Pophale) SiO2 
 PCOD9474136
Probable space group: C M C M
;
_chemical_formula_sum "Si O2"
_cell_formula_units_Z 96
_cell_length_a 28.670717
_cell_length_b 10.838075
_cell_length_c 15.080050
_cell_angle_alpha 90.000000
_cell_angle_beta 90.000000
_cell_angle_gamma 90.000000
_cell_volume 4685.905085
_symmetry_space_group_name_H-M "C M C M"
_symmetry_group_IT_number 63
_symmetry_cell_setting 'orthorhombic'
loop_
_space_group_symop_operation_xyz
x,y,z
-x,-y,1/2+z
x,-y,-z
-x,y,1/2-z
-x,-y,-z
x,y,1/2-z
-x,y,z
x,-y,1/2+z
1/2+x,1/2+y,z
1/2-x,1/2-y,1/2+z
1/2+x,1/2-y,-z
1/2-x,1/2+y,1/2-z
1/2-x,1/2-y,-z
1/2+x,1/2+y,1/2-z
1/2-x,1/2+y,z
1/2+x,1/2-y,1/2+z
loop_
_atom_site_type_symbol
_atom_site_label
_atom_site_fract_x
_atom_site_fract_y
_atom_site_fract_z
Si Si1 0.553527 0.493177 0.105363
Si Si2 0.284827 0.001956 0.108063
Si Si3 0.772740 0.768338 0.903112
Si Si4 0.877224 0.215320 0.145225
Si Si5 0.392840 0.985455 0.145857
Si Si6 0.552843 0.779378 0.643395
O O1 0.500000 0.503551 0.140776
O O2 0.587288 0.602445 0.135942
O O3 0.572906 0.356695 0.126327
O O4 0.550751 0.500000 0.000000
O O5 0.268552 0.867029 0.139929
O O6 0.254129 0.116689 0.138942
O O7 0.338351 0.015135 0.135219
O O8 0.283438 0.000000 0.000000
O O9 0.827885 0.799337 0.904910
O O10 0.750000 0.750000 0.000000
O O11 0.865694 0.229092 0.250000
O O12 0.899326 0.345301 0.112786
O O13 0.404656 0.980043 0.250000
O O14 0.420870 0.100796 0.107049
O O15 0.551196 0.790428 0.750000
O O16 0.500000 0.777750 0.608529
#
# Coordination Sequence:
#
# PCOD9474136 Si02
#       6
#    16  16  16  16  16  16
#     4  10  22  38  56  82 116 151 187 232 286 344
#     4   9  18  32  50  71 100 137 176 217 269 325
#     4   9  19  34  51  75 105 140 181 226 279 336
#     4  10  21  37  58  84 113 147 192 241 285 338
#     4   9  19  34  52  77 106 137 177 226 276 328
#     4   9  18  34  55  79 109 145 185 228 277 336
#
# _framework density 20.486969999999999
#
# number of rings (size 3 to 8) (size 9 to 14) (size 15 to 20)
#    0.000    2.667    0.000    0.500    0.000    9.667 
#    0.000    1.667    0.000    3.500    0.000    0.000 
#    0.000    0.000    0.000    0.000    0.000    0.000 
#
# Total GULP energy -267582.158537 kJ/mol
# GULP energy per Si atom -5574.628303 kJ/mol
# Density = 2.044034 g / cm^3
# Si number density = 20.486970 Si / 1000 Ang^3
#
#
#
# Elastic Constant Matrix: (Units=GPa)
#
#
# Indices 1 2 3 4 5 6 
#
# 1 68.2231 87.2302 -0.1218 0.0000 0.0000 0.0000
# 2 87.2302 197.6016 -16.3211 0.0000 0.0000 0.0000
# 3 -0.1218 -16.3211 44.4904 0.0000 0.0000 0.0000
# 4 0.0000 0.0000 0.0000 -4.2236 0.0000 0.0000
# 5 0.0000 0.0000 0.0000 0.0000 21.2107 0.0000
# 6 0.0000 0.0000 0.0000 0.0000 0.0000 52.6935
#
#
#
# Elastic Compliance Matrix: (Units=1/GPa)
#
#
# Indices 1 2 3 4 5 6 
#
# 1 0.035023 -0.015936 -0.005750 0.000000 0.000000 0.000000
# 2 -0.015936 0.012470 0.004531 0.000000 0.000000 0.000000
# 3 -0.005750 0.004531 0.024123 0.000000 0.000000 0.000000
# 4 0.000000 0.000000 0.000000 -0.236766 0.000000 0.000000
# 5 0.000000 0.000000 0.000000 0.000000 0.047146 0.000000
# 6 0.000000 0.000000 0.000000 0.000000 0.000000 0.018978
#
#
# Mechanical properties :
#
#
# Convention : Reuss Voigt Hill
#
# Bulk Modulus (GPa) = 26.80541 50.20996 38.50769
# Shear Modulus (GPa) = -95.63417 29.90465 -32.86476
#
# Velocity S-wave (km/s) = -6.83972 3.82474 -4.00956
# Velocity P-wave (km/s) = 7.01878 6.63824 1.61198
#
# Compressibility (1/GPa) = 0.03730590
#
# Stress axis : x y z
#
# Youngs Moduli (GPa) = 28.55292 80.19527 41.45407
#
# Poissons Ratio (x) = 1.27795 0.23836
# Poissons Ratio (y) = 0.45501 -0.18782
# Poissons Ratio (z) = 0.16418 -0.36335
#
# Static dielectric constant tensor:
#      x y z
#    x 1.707380 0.000000 0.000000 
#    y 0.000000 1.767850 0.000000 
#    z 0.000000 0.000000 1.756470 
# 
# From -- ./inp_files/48056.got.cif
#   From: 2010.05.17/outbox.cif.g08.bks.cpg/sg63_25_cif.got.tgz:48056.got - 2010.06.03 15:47:04.
