data_PCOD9474312
_publ_section_title
;
Structure prediction by ZEFSAII (Michael W. Deem and Ramdas Pophale) SiO2 
 PCOD9474312
Probable space group: C M C M
;
_chemical_formula_sum "Si O2"
_cell_formula_units_Z 64
_cell_length_a 13.591434
_cell_length_b 28.229162
_cell_length_c 9.091341
_cell_angle_alpha 90.000000
_cell_angle_beta 90.000000
_cell_angle_gamma 90.000000
_cell_volume 3488.118369
_symmetry_space_group_name_H-M "C M C M"
_symmetry_group_IT_number 63
_symmetry_cell_setting 'orthorhombic'
loop_
_space_group_symop_operation_xyz
x,y,z
-x,-y,1/2+z
x,-y,-z
-x,y,1/2-z
-x,-y,-z
x,y,1/2-z
-x,y,z
x,-y,1/2+z
1/2+x,1/2+y,z
1/2-x,1/2-y,1/2+z
1/2+x,1/2-y,-z
1/2-x,1/2+y,1/2-z
1/2-x,1/2-y,-z
1/2+x,1/2+y,1/2-z
1/2-x,1/2+y,z
1/2+x,1/2-y,1/2+z
loop_
_atom_site_type_symbol
_atom_site_label
_atom_site_fract_x
_atom_site_fract_y
_atom_site_fract_z
Si Si1 0.500000 0.355502 0.570554
Si Si2 0.814054 0.288298 0.918006
Si Si3 0.286246 0.609647 0.419721
Si Si4 0.388701 0.948154 0.426720
Si Si5 0.500000 0.243399 0.575158
O O1 0.500000 0.354593 0.750000
O O2 0.399155 0.382618 0.526294
O O3 0.500000 0.299363 0.525211
O O4 0.835159 0.274622 0.750000
O O5 0.757831 0.337564 0.916190
O O6 0.750000 0.250000 0.000000
O O7 0.910535 0.286584 0.013599
O O8 0.289614 0.591868 0.250000
O O9 0.205881 0.579949 0.510911
O O10 0.381929 0.951290 0.250000
O O11 0.500000 0.928472 0.461318
O O12 0.385837 0.000000 0.500000
O O13 0.500000 0.245273 0.750000
#
# Coordination Sequence:
#
# PCOD9474312 Si02
#       5
#     8  16  16  16   8
#     4   9  18  37  58  80 113 158 197 232 287 340
#     4  11  22  36  55  83 116 157 202 244 292 346
#     4  10  21  38  60  84 116 155 195 238 288 347
#     4  10  22  41  64  90 117 146 184 234 292 349
#     4  11  21  37  55  76 115 160 201 250 295 339
#
# _framework density 18.348001
#
# number of rings (size 3 to 8) (size 9 to 14) (size 15 to 20)
#    0.000    1.750    2.500    1.875    1.750    3.500 
#    0.000    1.250    0.000    0.000    0.000    0.000 
#    0.000    0.000    0.000    0.000    0.000    0.000 
#
# Total GULP energy -178269.536455 kJ/mol
# GULP energy per Si atom -5570.923014 kJ/mol
# Density = 1.830624 g / cm^3
# Si number density = 18.348001 Si / 1000 Ang^3
#
#
#
# Elastic Constant Matrix: (Units=GPa)
#
#
# Indices 1 2 3 4 5 6 
#
# 1 180.8364 35.3264 51.3476 0.0000 0.0000 0.0000
# 2 35.3264 44.5705 27.7564 0.0000 0.0000 0.0000
# 3 51.3476 27.7564 84.8490 0.0000 0.0000 0.0000
# 4 0.0000 0.0000 0.0000 31.0369 0.0000 0.0000
# 5 0.0000 0.0000 0.0000 0.0000 21.1211 0.0000
# 6 0.0000 0.0000 0.0000 0.0000 0.0000 31.0075
#
#
#
# Elastic Compliance Matrix: (Units=1/GPa)
#
#
# Indices 1 2 3 4 5 6 
#
# 1 0.007138 -0.003727 -0.003101 0.000000 0.000000 0.000000
# 2 -0.003727 0.030122 -0.007598 0.000000 0.000000 0.000000
# 3 -0.003101 -0.007598 0.016148 0.000000 0.000000 0.000000
# 4 0.000000 0.000000 0.000000 0.032220 0.000000 0.000000
# 5 0.000000 0.000000 0.000000 0.000000 0.047346 0.000000
# 6 0.000000 0.000000 0.000000 0.000000 0.000000 0.032250
#
#
# Mechanical properties :
#
#
# Convention : Reuss Voigt Hill
#
# Bulk Modulus (GPa) = 40.72274 59.90185 50.31230
# Shear Modulus (GPa) = 24.72044 29.68813 27.20429
#
# Velocity S-wave (km/s) = 3.67455 4.02687 3.85474
# Velocity P-wave (km/s) = 6.34397 7.37153 6.87697
#
# Compressibility (1/GPa) = 0.02455630
#
# Stress axis : x y z
#
# Youngs Moduli (GPa) = 140.08875 33.19810 61.92822
#
# Poissons Ratio (x) = 0.12372 0.19202
# Poissons Ratio (y) = 0.52209 0.47056
# Poissons Ratio (z) = 0.43437 0.25225
#
# Static dielectric constant tensor:
#      x y z
#    x 1.625860 0.000000 0.000000 
#    y 0.000000 1.591720 0.000000 
#    z 0.000000 0.000000 1.704340 
# 
# From -- ./inp_files/3151.got.cif
#   From: 2010.05.17/outbox.cif.g08.bks.cpg/sg63_2_cif.got.tgz:3151.got - 2010.06.03 15:47:04.
