data_PCOD9474328
_publ_section_title
;
Structure prediction by ZEFSAII (Michael W. Deem and Ramdas Pophale) SiO2 
 PCOD9474328
Probable space group: C M C M
;
_chemical_formula_sum "Si O2"
_cell_formula_units_Z 112
_cell_length_a 19.296061
_cell_length_b 12.464366
_cell_length_c 24.677812
_cell_angle_alpha 90.000000
_cell_angle_beta 90.000000
_cell_angle_gamma 90.000000
_cell_volume 5935.338710
_symmetry_space_group_name_H-M "C M C M"
_symmetry_group_IT_number 63
_symmetry_cell_setting 'orthorhombic'
loop_
_space_group_symop_operation_xyz
x,y,z
-x,-y,1/2+z
x,-y,-z
-x,y,1/2-z
-x,-y,-z
x,y,1/2-z
-x,y,z
x,-y,1/2+z
1/2+x,1/2+y,z
1/2-x,1/2-y,1/2+z
1/2+x,1/2-y,-z
1/2-x,1/2+y,1/2-z
1/2-x,1/2-y,-z
1/2+x,1/2+y,1/2-z
1/2-x,1/2+y,z
1/2+x,1/2-y,1/2+z
loop_
_atom_site_type_symbol
_atom_site_label
_atom_site_fract_x
_atom_site_fract_y
_atom_site_fract_z
Si Si1 0.171056 0.912719 0.609040
Si Si2 0.423194 0.906000 0.456146
Si Si3 0.918817 0.836587 0.508545
Si Si4 0.819040 0.508695 0.868647
Si Si5 0.632293 0.799765 0.687911
Si Si6 0.292803 0.226969 0.810922
Si Si7 0.079937 0.891943 0.116394
O O1 0.133280 0.887996 0.552066
O O2 0.250384 0.953372 0.606180
O O3 0.170747 0.806350 0.646165
O O4 0.128307 0.010758 0.635049
O O5 0.500000 0.903562 0.430232
O O6 0.413010 0.791359 0.484331
O O7 0.422888 0.000000 0.500000
O O8 0.364069 0.933131 0.413971
O O9 0.903118 0.867171 0.446665
O O10 0.000000 0.866071 0.519558
O O11 0.863614 0.416388 0.839480
O O12 0.798292 0.602928 0.827392
O O13 0.607596 0.804188 0.750000
O O14 0.712046 0.759485 0.688517
O O15 0.591652 0.714407 0.651602
O O16 0.319497 0.243989 0.750000
O O17 0.000000 0.924073 0.119131
#
# Coordination Sequence:
#
# PCOD9474328 Si02
#       7
#    16  16  16  16  16  16  16
#     4  11  22  38  62  94 122 159 207 251 307 366
#     4  10  21  38  60  86 120 161 201 244 303 368
#     4  10  21  39  62  87 124 168 204 247 305 371
#     4  11  21  39  63  91 118 158 202 261 308 362
#     4  10  22  39  60  87 120 160 205 252 308 369
#     4  10  21  40  63  88 120 157 203 255 309 361
#     4  11  23  40  62  90 128 166 204 249 306 370
#
# _framework density 18.870025999999999
#
# number of rings (size 3 to 8) (size 9 to 14) (size 15 to 20)
#    0.000    1.571    2.857    2.143    0.000    5.429 
#    0.000    2.857    0.000    4.286    0.000    0.000 
#    0.000    0.000    0.000    0.000    0.000    0.000 
#
# Total GULP energy -312690.315611 kJ/mol
# GULP energy per Si atom -5583.755636 kJ/mol
# Density = 1.882708 g / cm^3
# Si number density = 18.870026 Si / 1000 Ang^3
#
#
#
# Elastic Constant Matrix: (Units=GPa)
#
#
# Indices 1 2 3 4 5 6 
#
# 1 46.4583 17.6883 27.9211 0.0000 0.0000 0.0000
# 2 17.6883 103.4014 12.1664 0.0000 0.0000 0.0000
# 3 27.9211 12.1664 74.0225 0.0000 0.0000 0.0000
# 4 0.0000 0.0000 0.0000 22.2697 0.0000 0.0000
# 5 0.0000 0.0000 0.0000 0.0000 27.5593 0.0000
# 6 0.0000 0.0000 0.0000 0.0000 0.0000 22.2348
#
#
#
# Elastic Compliance Matrix: (Units=1/GPa)
#
#
# Indices 1 2 3 4 5 6 
#
# 1 0.029210 -0.003773 -0.010398 0.000000 0.000000 0.000000
# 2 -0.003773 0.010349 -0.000278 0.000000 0.000000 0.000000
# 3 -0.010398 -0.000278 0.017477 0.000000 0.000000 0.000000
# 4 0.000000 0.000000 0.000000 0.044904 0.000000 0.000000
# 5 0.000000 0.000000 0.000000 0.000000 0.036285 0.000000
# 6 0.000000 0.000000 0.000000 0.000000 0.000000 0.044974
#
#
# Mechanical properties :
#
#
# Convention : Reuss Voigt Hill
#
# Bulk Modulus (GPa) = 35.53820 37.71488 36.62654
# Shear Modulus (GPa) = 22.57558 25.48652 24.03105
#
# Velocity S-wave (km/s) = 3.46261 3.67909 3.57249
# Velocity P-wave (km/s) = 5.90426 6.17071 6.03895
#
# Compressibility (1/GPa) = 0.02813873
#
# Stress axis : x y z
#
# Youngs Moduli (GPa) = 34.23437 96.62563 57.21769
#
# Poissons Ratio (x) = 0.36461 0.59494
# Poissons Ratio (y) = 0.12918 0.01589
# Poissons Ratio (z) = 0.35597 0.02683
#
# Static dielectric constant tensor:
#      x y z
#    x 1.646710 0.000000 0.000000 
#    y 0.000000 1.654250 0.000000 
#    z 0.000000 0.000000 1.640900 
# 
# From -- ./inp_files/64652.got.cif
#   From: 2010.05.17/outbox.cif.g08.bks.cpg/sg63_33_cif.got.tgz:64652.got - 2010.06.03 15:47:04.
