data_PCOD9474303
_publ_section_title
;
Structure prediction by ZEFSAII (Michael W. Deem and Ramdas Pophale) SiO2 
 PCOD9474303
Probable space group: C M C M
;
_chemical_formula_sum "Si O2"
_cell_formula_units_Z 96
_cell_length_a 22.493456
_cell_length_b 15.007701
_cell_length_c 14.168478
_cell_angle_alpha 90.000000
_cell_angle_beta 90.000000
_cell_angle_gamma 90.000000
_cell_volume 4782.924841
_symmetry_space_group_name_H-M "C M C M"
_symmetry_group_IT_number 63
_symmetry_cell_setting 'orthorhombic'
loop_
_space_group_symop_operation_xyz
x,y,z
-x,-y,1/2+z
x,-y,-z
-x,y,1/2-z
-x,-y,-z
x,y,1/2-z
-x,y,z
x,-y,1/2+z
1/2+x,1/2+y,z
1/2-x,1/2-y,1/2+z
1/2+x,1/2-y,-z
1/2-x,1/2+y,1/2-z
1/2-x,1/2-y,-z
1/2+x,1/2+y,1/2-z
1/2-x,1/2+y,z
1/2+x,1/2-y,1/2+z
loop_
_atom_site_type_symbol
_atom_site_label
_atom_site_fract_x
_atom_site_fract_y
_atom_site_fract_z
Si Si1 0.500000 0.536083 0.351734
Si Si2 0.500000 0.734857 0.133159
Si Si3 0.752544 0.456066 0.139247
Si Si4 0.115351 0.064075 0.589261
Si Si5 0.788770 0.262688 0.359707
Si Si6 0.390444 0.248077 0.997611
Si Si7 0.822195 0.367283 0.638495
O O1 0.500000 0.577065 0.250000
O O2 0.500000 0.630151 0.405705
O O3 0.558448 0.477216 0.359556
O O4 0.500000 0.750293 0.250000
O O5 0.442200 0.772362 0.078224
O O6 0.764873 0.456965 0.250000
O O7 0.681219 0.448734 0.131101
O O8 0.779250 0.363190 0.104674
O O9 0.785950 0.544719 0.104962
O O10 0.100783 0.165892 0.564104
O O11 0.118157 0.000000 0.500000
O O12 0.808922 0.260658 0.250000
O O13 0.835839 0.221439 0.430439
O O14 0.726835 0.211262 0.362729
O O15 0.372651 0.166348 0.066390
O O16 0.840628 0.377059 0.750000
#
# Coordination Sequence:
#
# PCOD9474303 Si02
#       7
#     8   8  16  16  16  16  16
#     4  11  24  40  58  83 121 169 213 252 301 377
#     4  11  25  45  64  89 121 168 218 262 316 380
#     4  10  22  38  59  89 129 170 205 256 317 375
#     4  12  22  35  57  87 125 163 210 246 300 369
#     4  10  21  38  59  90 127 170 213 257 313 376
#     4  12  23  39  63  88 127 164 210 265 312 368
#     4  10  22  38  60  93 129 166 211 259 317 379
#
# _framework density 20.071400000000001
#
# number of rings (size 3 to 8) (size 9 to 14) (size 15 to 20)
#    0.000    1.167    3.333    3.250    2.333    0.667 
#    0.000    0.417    0.000    2.000    0.000    3.500 
#    0.000    1.333    0.000    0.000    0.000    0.000 
#
# Total GULP energy -267442.478901 kJ/mol
# GULP energy per Si atom -5571.718310 kJ/mol
# Density = 2.002572 g / cm^3
# Si number density = 20.071400 Si / 1000 Ang^3
#
#
#
# Elastic Constant Matrix: (Units=GPa)
#
#
# Indices 1 2 3 4 5 6 
#
# 1 66.5495 3.1258 35.5738 0.0000 0.0000 0.0000
# 2 3.1258 77.7231 22.1065 0.0000 0.0000 0.0000
# 3 35.5738 22.1065 76.8449 0.0000 0.0000 0.0000
# 4 0.0000 0.0000 0.0000 25.4737 0.0000 0.0000
# 5 0.0000 0.0000 0.0000 0.0000 50.8846 0.0000
# 6 0.0000 0.0000 0.0000 0.0000 0.0000 -5.4445
#
#
#
# Elastic Compliance Matrix: (Units=1/GPa)
#
#
# Indices 1 2 3 4 5 6 
#
# 1 0.020254 0.002017 -0.009956 0.000000 0.000000 0.000000
# 2 0.002017 0.014214 -0.005023 0.000000 0.000000 0.000000
# 3 -0.009956 -0.005023 0.019067 0.000000 0.000000 0.000000
# 4 0.000000 0.000000 0.000000 0.039256 0.000000 0.000000
# 5 0.000000 0.000000 0.000000 0.000000 0.019652 0.000000
# 6 0.000000 0.000000 0.000000 0.000000 0.000000 -0.183673
#
#
# Mechanical properties :
#
#
# Convention : Reuss Voigt Hill
#
# Bulk Modulus (GPa) = 36.21752 38.08107 37.14929
# Shear Modulus (GPa) = -138.49523 24.87020 -56.81252
#
# Velocity S-wave (km/s) = -8.31571 3.52388 -5.32604
# Velocity P-wave (km/s) = 8.60918 5.96414 4.39015
#
# Compressibility (1/GPa) = 0.02761094
#
# Stress axis : x y z
#
# Youngs Moduli (GPa) = 49.37340 70.35476 52.44580
#
# Poissons Ratio (x) = -0.14193 0.52217
# Poissons Ratio (y) = -0.09960 0.26343
# Poissons Ratio (z) = 0.49158 0.35338
#
# Static dielectric constant tensor:
#      x y z
#    x 1.705990 0.000000 0.000000 
#    y 0.000000 1.735840 0.000000 
#    z 0.000000 0.000000 1.828010 
# 
# From -- ./inp_files/35419.got.cif
#   From: 2010.05.17/outbox.cif.g08.bks.cpg/sg63_18_cif.got.tgz:35419.got - 2010.06.03 15:47:04.
