data_PCOD9474751
_publ_section_title
;
Structure prediction by ZEFSAII (Michael W. Deem and Ramdas Pophale) SiO2 
 PCOD9474751
Probable space group: C M C M
;
_chemical_formula_sum "Si O2"
_cell_formula_units_Z 68
_cell_length_a 22.944403
_cell_length_b 19.368340
_cell_length_c 7.495081
_cell_angle_alpha 90.000000
_cell_angle_beta 90.000000
_cell_angle_gamma 90.000000
_cell_volume 3330.776509
_symmetry_space_group_name_H-M "C M C M"
_symmetry_group_IT_number 63
_symmetry_cell_setting 'orthorhombic'
loop_
_space_group_symop_operation_xyz
x,y,z
-x,-y,1/2+z
x,-y,-z
-x,y,1/2-z
-x,-y,-z
x,y,1/2-z
-x,y,z
x,-y,1/2+z
1/2+x,1/2+y,z
1/2-x,1/2-y,1/2+z
1/2+x,1/2-y,-z
1/2-x,1/2+y,1/2-z
1/2-x,1/2-y,-z
1/2+x,1/2+y,1/2-z
1/2-x,1/2+y,z
1/2+x,1/2-y,1/2+z
loop_
_atom_site_type_symbol
_atom_site_label
_atom_site_fract_x
_atom_site_fract_y
_atom_site_fract_z
Si Si1 0.935925 0.165069 0.533205
Si Si2 0.500000 0.877090 0.250000
Si Si3 0.824474 0.919253 0.463687
Si Si4 0.279115 0.175675 0.962572
Si Si5 0.913660 0.324687 0.955917
O O1 0.935509 0.162381 0.750000
O O2 0.882327 0.119282 0.467793
O O3 0.927464 0.245408 0.487221
O O4 0.000000 0.142131 0.472838
O O5 0.550998 0.871678 0.407388
O O6 0.824553 0.909630 0.250000
O O7 0.766345 0.881554 0.530507
O O8 0.825525 0.000000 0.500000
O O9 0.284774 0.169140 0.750000
O O10 0.250000 0.250000 0.000000
O O11 0.343872 0.168607 0.037319
O O12 0.931884 0.333572 0.750000
#
# Coordination Sequence:
#
# PCOD9474751 Si02
#       5
#    16   4  16  16  16
#     4   9  17  33  55  77 114 159 201 246 296 346
#     4  12  22  36  56  94 128 148 196 252 308 380
#     4  10  22  38  54  80 119 160 204 254 300 356
#     4  11  21  36  59  88 120 156 206 261 309 360
#     4  11  21  36  58  88 123 159 196 251 310 363
#
# _framework density 20.415661
#
# number of rings (size 3 to 8) (size 9 to 14) (size 15 to 20)
#    0.000    1.647    4.706    1.059    0.000    2.353 
#    2.118    0.000    0.000    0.000    0.000    0.824 
#    0.000    0.000    0.000    0.000    0.000    0.000 
#
# Total GULP energy -189424.551410 kJ/mol
# GULP energy per Si atom -5571.310336 kJ/mol
# Density = 2.036919 g / cm^3
# Si number density = 20.415661 Si / 1000 Ang^3
#
#
#
# Elastic Constant Matrix: (Units=GPa)
#
#
# Indices 1 2 3 4 5 6 
#
# 1 187.2549 11.9312 18.6577 0.0000 0.0000 0.0000
# 2 11.9312 15.3561 -6.8668 0.0000 0.0000 0.0000
# 3 18.6577 -6.8668 97.2078 0.0000 0.0000 0.0000
# 4 0.0000 0.0000 0.0000 15.8624 0.0000 0.0000
# 5 0.0000 0.0000 0.0000 0.0000 22.7467 0.0000
# 6 0.0000 0.0000 0.0000 0.0000 0.0000 -10.0075
#
#
#
# Elastic Compliance Matrix: (Units=1/GPa)
#
#
# Indices 1 2 3 4 5 6 
#
# 1 0.005818 -0.005184 -0.001483 0.000000 0.000000 0.000000
# 2 -0.005184 0.071864 0.006071 0.000000 0.000000 0.000000
# 3 -0.001483 0.006071 0.011001 0.000000 0.000000 0.000000
# 4 0.000000 0.000000 0.000000 0.063042 0.000000 0.000000
# 5 0.000000 0.000000 0.000000 0.000000 0.043962 0.000000
# 6 0.000000 0.000000 0.000000 0.000000 0.000000 -0.099925
#
#
# Mechanical properties :
#
#
# Convention : Reuss Voigt Hill
#
# Bulk Modulus (GPa) = 11.42962 38.58480 25.00721
# Shear Modulus (GPa) = 39.64583 24.12676 31.88630
#
# Velocity S-wave (km/s) = 4.41152 3.44143 3.95632
# Velocity P-wave (km/s) = 5.61776 5.89338 5.75722
#
# Compressibility (1/GPa) = 0.08749195
#
# Stress axis : x y z
#
# Youngs Moduli (GPa) = 171.86953 13.91526 90.90281
#
# Poissons Ratio (x) = 0.07213 0.13480
# Poissons Ratio (y) = 0.89094 -0.55191
# Poissons Ratio (z) = 0.25487 -0.08449
#
# Static dielectric constant tensor:
#      x y z
#    x 1.754450 0.000000 0.000000 
#    y 0.000000 1.692020 0.000000 
#    z 0.000000 0.000000 1.767740 
# 
# From -- ./inp_files/7623.got.cif
#   From: 2010.05.17/outbox.cif.g08.bks.cpg/sg63_4_cif.got.tgz:7623.got - 2010.06.03 15:47:04.
