data_PCOD9474872
_publ_section_title
;
Structure prediction by ZEFSAII (Michael W. Deem and Ramdas Pophale) SiO2 
 PCOD9474872
Probable space group: C M C M
;
_chemical_formula_sum "Si O2"
_cell_formula_units_Z 52
_cell_length_a 7.255221
_cell_length_b 14.566233
_cell_length_c 18.823917
_cell_angle_alpha 90.000000
_cell_angle_beta 90.000000
_cell_angle_gamma 90.000000
_cell_volume 1989.334882
_symmetry_space_group_name_H-M "C M C M"
_symmetry_group_IT_number 63
_symmetry_cell_setting 'orthorhombic'
loop_
_space_group_symop_operation_xyz
x,y,z
-x,-y,1/2+z
x,-y,-z
-x,y,1/2-z
-x,-y,-z
x,y,1/2-z
-x,y,z
x,-y,1/2+z
1/2+x,1/2+y,z
1/2-x,1/2-y,1/2+z
1/2+x,1/2-y,-z
1/2-x,1/2+y,1/2-z
1/2-x,1/2-y,-z
1/2+x,1/2+y,1/2-z
1/2-x,1/2+y,z
1/2+x,1/2-y,1/2+z
loop_
_atom_site_type_symbol
_atom_site_label
_atom_site_fract_x
_atom_site_fract_y
_atom_site_fract_z
Si Si1 0.723495 0.246964 0.877418
Si Si2 0.500000 0.293316 0.250000
Si Si3 0.792603 0.420111 0.046286
Si Si4 0.279003 0.551109 0.332161
O O1 0.500000 0.238344 0.869650
O O2 0.783047 0.181365 0.942339
O O3 0.762724 0.355825 0.875553
O O4 0.839054 0.210850 0.811172
O O5 0.797454 0.465771 0.124630
O O6 0.000000 0.409359 0.018644
O O7 0.700014 0.500000 0.000000
O O8 0.216523 0.560001 0.250000
O O9 0.500000 0.540324 0.329525
#
# Coordination Sequence:
#
# PCOD9474872 Si02
#       4
#    16   4  16  16
#     4  10  23  42  62  93 133 159 205 266 313 367
#     4  12  22  36  70  98 118 170 208 252 318 386
#     4  10  24  43  62  88 127 171 211 255 313 374
#     4  10  22  39  63  93 126 159 203 263 318 365
#
# _framework density 26.139391
#
# number of rings (size 3 to 8) (size 9 to 14) (size 15 to 20)
#    0.000    1.846    1.538    0.462    6.462    2.462 
#    0.000    0.000    0.000    0.000    0.000    0.000 
#    0.000    0.000    0.000    0.000    0.000    0.000 
#
# Total GULP energy -144848.737249 kJ/mol
# GULP energy per Si atom -5571.105279 kJ/mol
# Density = 2.607990 g / cm^3
# Si number density = 26.139391 Si / 1000 Ang^3
#
#
#
# Elastic Constant Matrix: (Units=GPa)
#
#
# Indices 1 2 3 4 5 6 
#
# 1 139.4507 19.1154 8.6126 0.0000 0.0000 0.0000
# 2 19.1154 138.7788 73.3133 0.0000 0.0000 0.0000
# 3 8.6126 73.3133 69.1377 0.0000 0.0000 0.0000
# 4 0.0000 0.0000 0.0000 -50.0913 0.0000 0.0000
# 5 0.0000 0.0000 0.0000 0.0000 1820.5255 0.0000
# 6 0.0000 0.0000 0.0000 0.0000 0.0000 6.6527
#
#
#
# Elastic Compliance Matrix: (Units=1/GPa)
#
#
# Indices 1 2 3 4 5 6 
#
# 1 0.007313 -0.001196 0.000357 0.000000 0.000000 0.000000
# 2 -0.001196 0.016579 -0.017431 0.000000 0.000000 0.000000
# 3 0.000357 -0.017431 0.032903 0.000000 0.000000 0.000000
# 4 0.000000 0.000000 0.000000 -0.019964 0.000000 0.000000
# 5 0.000000 0.000000 0.000000 0.000000 0.000549 0.000000
# 6 0.000000 0.000000 0.000000 0.000000 0.000000 0.150314
#
#
# Mechanical properties :
#
#
# Convention : Reuss Voigt Hill
#
# Bulk Modulus (GPa) = 49.36994 61.04997 55.20995
# Shear Modulus (GPa) = 21.64626 371.83912 196.74269
#
# Velocity S-wave (km/s) = 2.88081 11.93990 8.68505
# Velocity P-wave (km/s) = 5.47664 14.61122 11.03362
#
# Compressibility (1/GPa) = 0.02025524
#
# Stress axis : x y z
#
# Youngs Moduli (GPa) = 136.74513 60.31748 30.39198
#
# Poissons Ratio (x) = 0.07214 -0.01086
# Poissons Ratio (y) = 0.16355 0.52977
# Poissons Ratio (z) = -0.04886 1.05141
#
# Static dielectric constant tensor:
#      x y z
#    x 1.947050 0.000000 0.000000 
#    y 0.000000 2.080030 0.000000 
#    z 0.000000 0.000000 2.028560 
# 
# From -- ./inp_files/39481.got.cif
#   From: 2010.05.17/outbox.cif.g08.bks.cpg/sg63_20_cif.got.tgz:39481.got - 2010.06.03 15:47:04.
