data_PCOD9474419
_publ_section_title
;
Structure prediction by ZEFSAII (Michael W. Deem and Ramdas Pophale) SiO2 
 PCOD9474419
Probable space group: C M C M
;
_chemical_formula_sum "Si O2"
_cell_formula_units_Z 92
_cell_length_a 20.023321
_cell_length_b 26.919633
_cell_length_c 9.236654
_cell_angle_alpha 90.000000
_cell_angle_beta 90.000000
_cell_angle_gamma 90.000000
_cell_volume 4978.745421
_symmetry_space_group_name_H-M "C M C M"
_symmetry_group_IT_number 63
_symmetry_cell_setting 'orthorhombic'
loop_
_space_group_symop_operation_xyz
x,y,z
-x,-y,1/2+z
x,-y,-z
-x,y,1/2-z
-x,-y,-z
x,y,1/2-z
-x,y,z
x,-y,1/2+z
1/2+x,1/2+y,z
1/2-x,1/2-y,1/2+z
1/2+x,1/2-y,-z
1/2-x,1/2+y,1/2-z
1/2-x,1/2-y,-z
1/2+x,1/2+y,1/2-z
1/2-x,1/2+y,z
1/2+x,1/2-y,1/2+z
loop_
_atom_site_type_symbol
_atom_site_label
_atom_site_fract_x
_atom_site_fract_y
_atom_site_fract_z
Si Si1 0.919169 0.784171 0.914594
Si Si2 0.184901 0.052917 0.424079
Si Si3 0.822260 0.402178 0.916541
Si Si4 0.422577 0.829203 0.075705
Si Si5 0.419745 0.617601 0.918948
Si Si6 0.602766 0.000000 0.500000
Si Si7 0.000000 0.471472 0.250000
O O1 0.894824 0.793160 0.750000
O O2 0.903390 0.727804 0.959180
O O3 0.000000 0.784984 0.908302
O O4 0.899074 0.828120 0.021092
O O5 0.183907 0.047481 0.250000
O O6 0.245669 0.090317 0.462683
O O7 0.117409 0.076889 0.484984
O O8 0.195907 0.000000 0.500000
O O9 0.823886 0.385626 0.750000
O O10 0.869266 0.366120 0.008083
O O11 0.853477 0.457061 0.928415
O O12 0.422979 0.833823 0.250000
O O13 0.500000 0.838829 0.028510
O O14 0.402696 0.612043 0.750000
O O15 0.500000 0.613609 0.932908
O O16 0.557460 0.025156 0.622798
#
# Coordination Sequence:
#
# PCOD9474419 Si02
#       7
#    16  16  16  16  16   8   4
#     4   8  15  33  57  86 117 149 186 230 283 337
#     4  11  24  42  61  84 113 151 193 234 286 345
#     4  11  24  38  54  78 113 154 195 239 286 335
#     4   9  20  34  56  85 117 154 197 240 283 333
#     4  10  21  38  64  93 118 144 179 228 286 348
#     4  11  22  38  52  80 109 148 192 246 291 334
#     4  10  24  34  56  78 108 142 198 250 292 326
#
# _framework density 18.478549999999998
#
# number of rings (size 3 to 8) (size 9 to 14) (size 15 to 20)
#    0.000    2.087    1.739    2.087    3.652    3.826 
#    0.000    2.609    0.000    0.000    0.000    0.000 
#    0.000    0.000    0.000    0.000    0.000    0.000 
#
# Total GULP energy -256093.572617 kJ/mol
# GULP energy per Si atom -5567.251579 kJ/mol
# Density = 1.843649 g / cm^3
# Si number density = 18.478550 Si / 1000 Ang^3
#
#
#
# Elastic Constant Matrix: (Units=GPa)
#
#
# Indices 1 2 3 4 5 6 
#
# 1 56.0063 31.8423 38.7335 0.0000 0.0000 0.0000
# 2 31.8423 73.4531 40.5259 0.0000 0.0000 0.0000
# 3 38.7335 40.5259 75.2547 0.0000 0.0000 0.0000
# 4 0.0000 0.0000 0.0000 24.5906 0.0000 0.0000
# 5 0.0000 0.0000 0.0000 0.0000 19.0150 0.0000
# 6 0.0000 0.0000 0.0000 0.0000 0.0000 14.6800
#
#
#
# Elastic Compliance Matrix: (Units=1/GPa)
#
#
# Indices 1 2 3 4 5 6 
#
# 1 0.029644 -0.006307 -0.011862 0.000000 0.000000 0.000000
# 2 -0.006307 0.020711 -0.007907 0.000000 0.000000 0.000000
# 3 -0.011862 -0.007907 0.023651 0.000000 0.000000 0.000000
# 4 0.000000 0.000000 0.000000 0.040666 0.000000 0.000000
# 5 0.000000 0.000000 0.000000 0.000000 0.052590 0.000000
# 6 0.000000 0.000000 0.000000 0.000000 0.000000 0.068120
#
#
# Mechanical properties :
#
#
# Convention : Reuss Voigt Hill
#
# Bulk Modulus (GPa) = 45.75452 47.43528 46.59490
# Shear Modulus (GPa) = 16.95965 17.89795 17.42880
#
# Velocity S-wave (km/s) = 3.03281 3.11558 3.07447
# Velocity P-wave (km/s) = 6.08922 6.21841 6.15415
#
# Compressibility (1/GPa) = 0.02185576
#
# Stress axis : x y z
#
# Youngs Moduli (GPa) = 33.73357 48.28458 42.28078
#
# Poissons Ratio (x) = 0.30451 0.50152
# Poissons Ratio (y) = 0.21274 0.33431
# Poissons Ratio (z) = 0.40013 0.38179
#
# Static dielectric constant tensor:
#      x y z
#    x 1.641250 0.000000 0.000000 
#    y 0.000000 1.645770 0.000000 
#    z 0.000000 0.000000 1.619090 
# 
# From -- ./inp_files/8686.got.cif
#   From: 2010.05.17/outbox.cif.g08.bks.cpg/sg63_5_cif.got.tgz:8686.got - 2010.06.03 15:47:04.
