data_PCOD9474831
_publ_section_title
;
Structure prediction by ZEFSAII (Michael W. Deem and Ramdas Pophale) SiO2 
 PCOD9474831
Probable space group: C M C M
;
_chemical_formula_sum "Si O2"
_cell_formula_units_Z 104
_cell_length_a 28.118018
_cell_length_b 21.235270
_cell_length_c 9.286095
_cell_angle_alpha 90.000000
_cell_angle_beta 90.000000
_cell_angle_gamma 90.000000
_cell_volume 5544.668860
_symmetry_space_group_name_H-M "C M C M"
_symmetry_group_IT_number 63
_symmetry_cell_setting 'orthorhombic'
loop_
_space_group_symop_operation_xyz
x,y,z
-x,-y,1/2+z
x,-y,-z
-x,y,1/2-z
-x,-y,-z
x,y,1/2-z
-x,y,z
x,-y,1/2+z
1/2+x,1/2+y,z
1/2-x,1/2-y,1/2+z
1/2+x,1/2-y,-z
1/2-x,1/2+y,1/2-z
1/2-x,1/2-y,-z
1/2+x,1/2+y,1/2-z
1/2-x,1/2+y,z
1/2+x,1/2-y,1/2+z
loop_
_atom_site_type_symbol
_atom_site_label
_atom_site_fract_x
_atom_site_fract_y
_atom_site_fract_z
Si Si1 0.137859 0.317556 0.578148
Si Si2 0.555126 0.391132 0.916388
Si Si3 0.204830 0.097524 0.591933
Si Si4 0.627496 0.500000 0.500000
Si Si5 0.796082 0.779275 0.921851
Si Si6 0.945811 0.765739 0.079111
Si Si7 0.183897 0.564032 0.918808
O O1 0.148115 0.318787 0.750000
O O2 0.162679 0.259840 0.496859
O O3 0.083109 0.298470 0.556144
O O4 0.158198 0.379253 0.502000
O O5 0.553870 0.372728 0.750000
O O6 0.500000 0.407007 0.960021
O O7 0.591252 0.449342 0.931270
O O8 0.571802 0.330184 0.005403
O O9 0.202116 0.129183 0.750000
O O10 0.164874 0.043616 0.586984
O O11 0.198373 0.148176 0.466275
O O12 0.258666 0.072284 0.576023
O O13 0.794053 0.771188 0.750000
O O14 0.750000 0.750000 0.000000
O O15 0.944334 0.777501 0.250000
O O16 0.000000 0.758168 0.031073
O O17 0.170899 0.563448 0.750000
O O18 0.171636 0.500000 0.000000
#
# Coordination Sequence:
#
# PCOD9474831 Si02
#       7
#    16  16  16   8  16  16  16
#     4  11  22  38  63  90 119 154 195 242 298 359
#     4  10  22  39  59  85 116 153 200 252 301 349
#     4  11  24  39  56  81 115 155 200 248 294 347
#     4  12  23  38  58  82 116 162 209 248 294 348
#     4  12  24  38  58  83 115 153 198 249 301 354
#     4   9  20  40  65  92 121 154 193 242 300 360
#     4  11  23  40  60  84 118 158 199 239 289 351
#
# _framework density 18.756754999999998
#
# number of rings (size 3 to 8) (size 9 to 14) (size 15 to 20)
#    0.000    1.231    2.308    3.923    0.000    6.769 
#    0.000    1.538    0.000    0.462    0.000    0.000 
#    0.000    0.000    0.000    0.000    0.000    0.000 
#
# Total GULP energy -290109.763406 kJ/mol
# GULP energy per Si atom -5579.033912 kJ/mol
# Density = 1.871406 g / cm^3
# Si number density = 18.756755 Si / 1000 Ang^3
#
#
#
# Elastic Constant Matrix: (Units=GPa)
#
#
# Indices 1 2 3 4 5 6 
#
# 1 83.2083 54.0926 40.1002 0.0000 0.0000 0.0000
# 2 54.0926 101.9352 55.8213 0.0000 0.0000 0.0000
# 3 40.1002 55.8213 117.6956 0.0000 0.0000 0.0000
# 4 0.0000 0.0000 0.0000 21.7116 0.0000 0.0000
# 5 0.0000 0.0000 0.0000 0.0000 2.1552 0.0000
# 6 0.0000 0.0000 0.0000 0.0000 0.0000 36.7243
#
#
#
# Elastic Compliance Matrix: (Units=1/GPa)
#
#
# Indices 1 2 3 4 5 6 
#
# 1 0.018782 -0.008730 -0.002259 0.000000 0.000000 0.000000
# 2 -0.008730 0.017310 -0.005235 0.000000 0.000000 0.000000
# 3 -0.002259 -0.005235 0.011749 0.000000 0.000000 0.000000
# 4 0.000000 0.000000 0.000000 0.046058 0.000000 0.000000
# 5 0.000000 0.000000 0.000000 0.000000 0.463995 0.000000
# 6 0.000000 0.000000 0.000000 0.000000 0.000000 0.027230
#
#
# Mechanical properties :
#
#
# Convention : Reuss Voigt Hill
#
# Bulk Modulus (GPa) = 64.96570 66.98525 65.97547
# Shear Modulus (GPa) = 8.02953 22.30655 15.16804
#
# Velocity S-wave (km/s) = 2.07127 3.45230 2.84680
# Velocity P-wave (km/s) = 6.35856 7.18897 6.78648
#
# Compressibility (1/GPa) = 0.01539274
#
# Stress axis : x y z
#
# Youngs Moduli (GPa) = 53.24350 57.77133 85.11250
#
# Poissons Ratio (x) = 0.50433 0.19225
# Poissons Ratio (y) = 0.46480 0.44560
# Poissons Ratio (z) = 0.12026 0.30246
#
# Static dielectric constant tensor:
#      x y z
#    x 1.742630 0.000000 0.000000 
#    y 0.000000 1.384480 0.000000 
#    z 0.000000 0.000000 1.642700 
# 
# From -- ./inp_files/12608.got.cif
#   From: 2010.05.17/outbox.cif.g08.bks.cpg/sg63_7_cif.got.tgz:12608.got - 2010.06.03 15:47:04.
