data_PCOD9474914
_publ_section_title
;
Structure prediction by ZEFSAII (Michael W. Deem and Ramdas Pophale) SiO2 
 PCOD9474914
Probable space group: C M C M
;
_chemical_formula_sum "Si O2"
_cell_formula_units_Z 96
_cell_length_a 8.523429
_cell_length_b 22.357335
_cell_length_c 24.102305
_cell_angle_alpha 90.000000
_cell_angle_beta 90.000000
_cell_angle_gamma 90.000000
_cell_volume 4592.963139
_symmetry_space_group_name_H-M "C M C M"
_symmetry_group_IT_number 63
_symmetry_cell_setting 'orthorhombic'
loop_
_space_group_symop_operation_xyz
x,y,z
-x,-y,1/2+z
x,-y,-z
-x,y,1/2-z
-x,-y,-z
x,y,1/2-z
-x,y,z
x,-y,1/2+z
1/2+x,1/2+y,z
1/2-x,1/2-y,1/2+z
1/2+x,1/2-y,-z
1/2-x,1/2+y,1/2-z
1/2-x,1/2-y,-z
1/2+x,1/2+y,1/2-z
1/2-x,1/2+y,z
1/2+x,1/2-y,1/2+z
loop_
_atom_site_type_symbol
_atom_site_label
_atom_site_fract_x
_atom_site_fract_y
_atom_site_fract_z
Si Si1 0.310709 0.217463 0.123993
Si Si2 0.189678 0.838394 0.186004
Si Si3 0.689212 0.964168 0.921422
Si Si4 0.689980 0.097640 0.188138
Si Si5 0.184646 0.154818 0.479973
Si Si6 0.687210 0.902144 0.084104
O O1 0.500000 0.217805 0.122360
O O2 0.258713 0.276992 0.155653
O O3 0.259408 0.160452 0.161029
O O4 0.253948 0.204418 0.061573
O O5 0.241599 0.841408 0.250000
O O6 0.251692 0.889885 0.145737
O O7 0.000000 0.839067 0.185937
O O8 0.500000 0.958065 0.929964
O O9 0.724968 0.953376 0.856450
O O10 0.769408 0.909153 0.952472
O O11 0.736059 0.031454 0.935928
O O12 0.751279 0.088883 0.250000
O O13 0.500000 0.100584 0.191169
O O14 0.250492 0.148000 0.541900
O O15 0.000000 0.162373 0.482573
O O16 0.500000 0.901078 0.083708
#
# Coordination Sequence:
#
# PCOD9474914 Si02
#       6
#    16  16  16  16  16  16
#     4   9  18  35  58  82 110 145 184 226 276 335
#     4  10  22  40  61  85 114 149 187 227 274 328
#     4   9  19  35  55  80 111 148 189 231 277 333
#     4   8  13  25  50  80 104 131 175 227 271 317
#     4  11  22  36  58  86 113 142 181 234 291 337
#     4  11  23  38  57  81 113 153 192 229 272 329
#
# _framework density 20.901537999999999
#
# number of rings (size 3 to 8) (size 9 to 14) (size 15 to 20)
#    0.000    2.333    0.000    4.000    0.000    7.667 
#    0.000    1.667    0.000   12.000    0.000    0.000 
#    0.000    0.000    0.000    0.000    0.000    0.000 
#
# Total GULP energy -267999.952053 kJ/mol
# GULP energy per Si atom -5583.332334 kJ/mol
# Density = 2.085397 g / cm^3
# Si number density = 20.901538 Si / 1000 Ang^3
#
#
#
# Elastic Constant Matrix: (Units=GPa)
#
#
# Indices 1 2 3 4 5 6 
#
# 1 22.0990 9.1714 12.5295 0.0000 0.0000 0.0000
# 2 9.1714 59.7432 15.0070 0.0000 0.0000 0.0000
# 3 12.5295 15.0070 123.9685 0.0000 0.0000 0.0000
# 4 0.0000 0.0000 0.0000 25.9041 0.0000 0.0000
# 5 0.0000 0.0000 0.0000 0.0000 23.9778 0.0000
# 6 0.0000 0.0000 0.0000 0.0000 0.0000 16.6066
#
#
#
# Elastic Compliance Matrix: (Units=1/GPa)
#
#
# Indices 1 2 3 4 5 6 
#
# 1 0.050451 -0.006667 -0.004292 0.000000 0.000000 0.000000
# 2 -0.006667 0.018144 -0.001523 0.000000 0.000000 0.000000
# 3 -0.004292 -0.001523 0.008685 0.000000 0.000000 0.000000
# 4 0.000000 0.000000 0.000000 0.038604 0.000000 0.000000
# 5 0.000000 0.000000 0.000000 0.000000 0.041705 0.000000
# 6 0.000000 0.000000 0.000000 0.000000 0.000000 0.060217
#
#
# Mechanical properties :
#
#
# Convention : Reuss Voigt Hill
#
# Bulk Modulus (GPa) = 19.11423 31.02519 25.06971
# Shear Modulus (GPa) = 19.21538 24.57123 21.89331
#
# Velocity S-wave (km/s) = 3.03533 3.43238 3.23994
# Velocity P-wave (km/s) = 4.63131 5.53028 5.10064
#
# Compressibility (1/GPa) = 0.05231703
#
# Stress axis : x y z
#
# Youngs Moduli (GPa) = 19.82115 55.11397 115.14524
#
# Poissons Ratio (x) = 0.36744 0.49421
# Poissons Ratio (y) = 0.13214 0.17532
# Poissons Ratio (z) = 0.08507 0.08392
#
# Static dielectric constant tensor:
#      x y z
#    x 1.706800 0.000000 0.000000 
#    y 0.000000 1.764440 0.000000 
#    z 0.000000 0.000000 1.769800 
# 
# From -- ./inp_files/59948.got.cif
#   From: 2010.05.17/outbox.cif.g08.bks.cpg/sg63_30_cif.got.tgz:59948.got - 2010.06.03 15:47:04.
