data_PCOD9474664
_publ_section_title
;
Structure prediction by ZEFSAII (Michael W. Deem and Ramdas Pophale) SiO2 
 PCOD9474664
Probable space group: C M C M
;
_chemical_formula_sum "Si O2"
_cell_formula_units_Z 72
_cell_length_a 10.731625
_cell_length_b 14.629768
_cell_length_c 25.049500
_cell_angle_alpha 90.000000
_cell_angle_beta 90.000000
_cell_angle_gamma 90.000000
_cell_volume 3932.801159
_symmetry_space_group_name_H-M "C M C M"
_symmetry_group_IT_number 63
_symmetry_cell_setting 'orthorhombic'
loop_
_space_group_symop_operation_xyz
x,y,z
-x,-y,1/2+z
x,-y,-z
-x,y,1/2-z
-x,-y,-z
x,y,1/2-z
-x,y,z
x,-y,1/2+z
1/2+x,1/2+y,z
1/2-x,1/2-y,1/2+z
1/2+x,1/2-y,-z
1/2-x,1/2+y,1/2-z
1/2-x,1/2-y,-z
1/2+x,1/2+y,1/2-z
1/2-x,1/2+y,z
1/2+x,1/2-y,1/2+z
loop_
_atom_site_type_symbol
_atom_site_label
_atom_site_fract_x
_atom_site_fract_y
_atom_site_fract_z
Si Si1 0.245004 0.885818 0.360608
Si Si2 0.500000 0.180031 0.812051
Si Si3 0.249104 0.286327 0.560555
Si Si4 0.000000 0.855075 0.888029
Si Si5 0.857939 0.475311 0.560179
Si Si6 0.500000 0.534225 0.812591
O O1 0.372411 0.871448 0.327592
O O2 0.229048 0.797279 0.398693
O O3 0.123868 0.907157 0.325650
O O4 0.271302 0.971844 0.398848
O O5 0.500000 0.199329 0.750000
O O6 0.500000 0.273364 0.845179
O O7 0.250000 0.250000 0.500000
O O8 0.378876 0.336407 0.575688
O O9 0.149239 0.366821 0.566575
O O10 0.000000 0.948434 0.853957
O O11 0.819702 0.500000 0.500000
O O12 0.000000 0.508574 0.567191
O O13 0.500000 0.506633 0.750000
#
# Coordination Sequence:
#
# PCOD9474664 Si02
#       6
#    16   8  16   8  16   8
#     4  11  23  40  62  92 121 160 207 254 309 369
#     4  10  21  42  64  83 111 160 214 256 295 361
#     4  11  23  38  61  92 127 161 194 248 311 384
#     4  10  23  39  63  87 119 160 211 247 308 369
#     4  11  22  38  61  90 125 164 200 242 306 380
#     4  12  25  43  62  89 126 167 213 275 319 346
#
# _framework density 18.307562000000001
#
# number of rings (size 3 to 8) (size 9 to 14) (size 15 to 20)
#    0.000    1.111    5.556    1.000    3.111    0.000 
#    0.000    2.222    0.000    1.333    0.000    0.000 
#    0.000    0.000    0.000    0.000    0.000    0.000 
#
# Total GULP energy -200961.497905 kJ/mol
# GULP energy per Si atom -5582.263831 kJ/mol
# Density = 1.826589 g / cm^3
# Si number density = 18.307562 Si / 1000 Ang^3
#
#
#
# Elastic Constant Matrix: (Units=GPa)
#
#
# Indices 1 2 3 4 5 6 
#
# 1 115.6252 22.0977 47.1670 0.0000 0.0000 0.0000
# 2 22.0977 66.5293 5.0805 0.0000 0.0000 0.0000
# 3 47.1670 5.0805 91.8040 0.0000 0.0000 0.0000
# 4 0.0000 0.0000 0.0000 16.1314 0.0000 0.0000
# 5 0.0000 0.0000 0.0000 0.0000 14.3160 0.0000
# 6 0.0000 0.0000 0.0000 0.0000 0.0000 27.5208
#
#
#
# Elastic Compliance Matrix: (Units=1/GPa)
#
#
# Indices 1 2 3 4 5 6 
#
# 1 0.011674 -0.003434 -0.005808 0.000000 0.000000 0.000000
# 2 -0.003434 0.016105 0.000873 0.000000 0.000000 0.000000
# 3 -0.005808 0.000873 0.013828 0.000000 0.000000 0.000000
# 4 0.000000 0.000000 0.000000 0.061991 0.000000 0.000000
# 5 0.000000 0.000000 0.000000 0.000000 0.069852 0.000000
# 6 0.000000 0.000000 0.000000 0.000000 0.000000 0.036336
#
#
# Mechanical properties :
#
#
# Convention : Reuss Voigt Hill
#
# Bulk Modulus (GPa) = 40.20941 46.96097 43.58519
# Shear Modulus (GPa) = 21.29344 24.90119 23.09732
#
# Velocity S-wave (km/s) = 3.41412 3.69203 3.55579
# Velocity P-wave (km/s) = 6.12801 6.62432 6.38100
#
# Compressibility (1/GPa) = 0.02486980
#
# Stress axis : x y z
#
# Youngs Moduli (GPa) = 85.65932 62.09283 72.31472
#
# Poissons Ratio (x) = 0.21323 0.42000
# Poissons Ratio (y) = 0.29416 -0.06314
# Poissons Ratio (z) = 0.49750 -0.05421
#
# Static dielectric constant tensor:
#      x y z
#    x 1.649430 0.000000 0.000000 
#    y 0.000000 1.624640 0.000000 
#    z 0.000000 0.000000 1.622910 
# 
# From -- ./inp_files/66378.got.cif
#   From: 2010.05.17/outbox.cif.g08.bks.cpg/sg63_34_cif.got.tgz:66378.got - 2010.06.03 15:47:04.
