data_PCOD9474726
_publ_section_title
;
Structure prediction by ZEFSAII (Michael W. Deem and Ramdas Pophale) SiO2 
 PCOD9474726
Probable space group: C M C M
;
_chemical_formula_sum "Si O2"
_cell_formula_units_Z 108
_cell_length_a 15.122380
_cell_length_b 11.857930
_cell_length_c 27.761334
_cell_angle_alpha 90.000000
_cell_angle_beta 90.000000
_cell_angle_gamma 90.000000
_cell_volume 4978.165841
_symmetry_space_group_name_H-M "C M C M"
_symmetry_group_IT_number 63
_symmetry_cell_setting 'orthorhombic'
loop_
_space_group_symop_operation_xyz
x,y,z
-x,-y,1/2+z
x,-y,-z
-x,y,1/2-z
-x,-y,-z
x,y,1/2-z
-x,y,z
x,-y,1/2+z
1/2+x,1/2+y,z
1/2-x,1/2-y,1/2+z
1/2+x,1/2-y,-z
1/2-x,1/2+y,1/2-z
1/2-x,1/2-y,-z
1/2+x,1/2+y,1/2-z
1/2-x,1/2+y,z
1/2+x,1/2-y,1/2+z
loop_
_atom_site_type_symbol
_atom_site_label
_atom_site_fract_x
_atom_site_fract_y
_atom_site_fract_z
Si Si1 0.797747 0.765071 0.166579
Si Si2 0.899163 0.369702 0.592757
Si Si3 0.602262 0.223480 0.512561
Si Si4 0.363643 0.431993 0.250000
Si Si5 0.726480 0.083160 0.582248
Si Si6 0.098910 0.052522 0.070858
Si Si7 0.629156 0.637243 0.321196
Si Si8 0.500000 0.744204 0.250000
O O1 0.877964 0.710338 0.137363
O O2 0.831628 0.843743 0.208330
O O3 0.740520 0.837773 0.128458
O O4 0.732482 0.665966 0.183682
O O5 0.884042 0.299968 0.543645
O O6 0.832442 0.473935 0.593851
O O7 0.000000 0.409290 0.593089
O O8 0.500000 0.188583 0.523786
O O9 0.673980 0.150762 0.541425
O O10 0.610005 0.351399 0.530571
O O11 0.392199 0.524455 0.208290
O O12 0.822671 0.036594 0.568104
O O13 0.106801 0.115296 0.122976
O O14 0.000000 0.003510 0.067163
O O15 0.576130 0.733748 0.292895
#
# Coordination Sequence:
#
# PCOD9474726 Si02
#       8
#    16  16  16   8  16  16  16   4
#     4  12  24  43  69 100 134 177 221 281 347 404
#     4  11  25  45  66 101 142 181 228 280 338 409
#     4  10  23  43  69  97 136 187 232 276 333 405
#     4  11  23  41  67  95 124 168 222 272 339 407
#     4  12  22  40  69 101 133 183 228 279 336 404
#     4  11  22  41  66  99 140 174 227 285 337 404
#     4  11  21  42  64  98 130 171 219 279 339 400
#     4  10  22  36  70  92 122 166 224 288 322 388
#
# _framework density 21.694738999999998
#
# number of rings (size 3 to 8) (size 9 to 14) (size 15 to 20)
#    0.000    0.889    5.185    1.778    0.000    5.333 
#    6.667    0.000    0.000    4.444    0.000    0.000 
#    0.000    0.000    0.000    0.000    0.000    0.000 
#
# Total GULP energy -300696.375693 kJ/mol
# GULP energy per Si atom -5568.451402 kJ/mol
# Density = 2.164536 g / cm^3
# Si number density = 21.694739 Si / 1000 Ang^3
#
#
#
# Elastic Constant Matrix: (Units=GPa)
#
#
# Indices 1 2 3 4 5 6 
#
# 1 100.1626 45.3933 28.2064 0.0000 0.0000 0.0000
# 2 45.3933 37.4209 14.0373 0.0000 0.0000 0.0000
# 3 28.2064 14.0373 26.4633 0.0000 0.0000 0.0000
# 4 0.0000 0.0000 0.0000 31.8928 0.0000 0.0000
# 5 0.0000 0.0000 0.0000 0.0000 17.4896 0.0000
# 6 0.0000 0.0000 0.0000 0.0000 0.0000 24.0671
#
#
#
# Elastic Compliance Matrix: (Units=1/GPa)
#
#
# Indices 1 2 3 4 5 6 
#
# 1 0.025508 -0.025896 -0.013452 0.000000 0.000000 0.000000
# 2 -0.025896 0.059652 -0.004040 0.000000 0.000000 0.000000
# 3 -0.013452 -0.004040 0.054269 0.000000 0.000000 0.000000
# 4 0.000000 0.000000 0.000000 0.031355 0.000000 0.000000
# 5 0.000000 0.000000 0.000000 0.000000 0.057177 0.000000
# 6 0.000000 0.000000 0.000000 0.000000 0.000000 0.041551
#
#
# Mechanical properties :
#
#
# Convention : Reuss Voigt Hill
#
# Bulk Modulus (GPa) = 18.99229 37.70230 28.34729
# Shear Modulus (GPa) = 13.37480 19.78388 16.57934
#
# Velocity S-wave (km/s) = 2.48564 3.02308 2.76743
# Velocity P-wave (km/s) = 4.12446 5.44074 4.82767
#
# Compressibility (1/GPa) = 0.05265296
#
# Stress axis : x y z
#
# Youngs Moduli (GPa) = 39.20351 16.76392 18.42687
#
# Poissons Ratio (x) = 0.43412 0.24787
# Poissons Ratio (y) = 1.01523 0.07444
# Poissons Ratio (z) = 0.52735 0.06772
#
# Static dielectric constant tensor:
#      x y z
#    x 1.738460 0.000000 0.000000 
#    y 0.000000 1.782520 0.000000 
#    z 0.000000 0.000000 1.733270 
# 
# From -- ./inp_files/73468.got.cif
#   From: 2010.05.17/outbox.cif.g08.bks.cpg/sg63_37_cif.got.tgz:73468.got - 2010.06.03 15:47:04.
