data_PCOD9474593
_publ_section_title
;
Structure prediction by ZEFSAII (Michael W. Deem and Ramdas Pophale) SiO2 
 PCOD9474593
Probable space group: C M C M
;
_chemical_formula_sum "Si O2"
_cell_formula_units_Z 96
_cell_length_a 20.855636
_cell_length_b 8.597527
_cell_length_c 27.435204
_cell_angle_alpha 90.000000
_cell_angle_beta 90.000000
_cell_angle_gamma 90.000000
_cell_volume 4919.321205
_symmetry_space_group_name_H-M "C M C M"
_symmetry_group_IT_number 63
_symmetry_cell_setting 'orthorhombic'
loop_
_space_group_symop_operation_xyz
x,y,z
-x,-y,1/2+z
x,-y,-z
-x,y,1/2-z
-x,-y,-z
x,y,1/2-z
-x,y,z
x,-y,1/2+z
1/2+x,1/2+y,z
1/2-x,1/2-y,1/2+z
1/2+x,1/2-y,-z
1/2-x,1/2+y,1/2-z
1/2-x,1/2-y,-z
1/2+x,1/2+y,1/2-z
1/2-x,1/2+y,z
1/2+x,1/2-y,1/2+z
loop_
_atom_site_type_symbol
_atom_site_label
_atom_site_fract_x
_atom_site_fract_y
_atom_site_fract_z
Si Si1 0.574154 0.439038 0.852872
Si Si2 0.656790 0.447153 0.550516
Si Si3 0.070648 0.393912 0.193986
Si Si4 0.688024 0.602609 0.693543
Si Si5 0.311585 0.931947 0.652322
Si Si6 0.795395 0.412274 0.050009
O O1 0.500000 0.488959 0.852460
O O2 0.609275 0.463221 0.904361
O O3 0.575977 0.256456 0.840003
O O4 0.619321 0.522974 0.813635
O O5 0.624790 0.500000 0.500000
O O6 0.718674 0.560561 0.553819
O O7 0.683833 0.268755 0.549496
O O8 0.074254 0.340750 0.250000
O O9 0.128516 0.507702 0.183278
O O10 0.000000 0.465428 0.186639
O O11 0.698072 0.647057 0.750000
O O12 0.745300 0.491869 0.675766
O O13 0.690676 0.748513 0.657553
O O14 0.320221 0.000141 0.598224
O O15 0.815153 0.500000 0.000000
#
# Coordination Sequence:
#
# PCOD9474593 Si02
#       6
#    16  16  16  16  16  16
#     4  11  24  42  63  89 125 169 212 260 313 373
#     4  11  22  39  66  94 125 161 205 260 318 378
#     4  10  21  40  64  88 122 167 209 251 307 376
#     4  12  25  39  62  94 127 165 209 263 314 371
#     4  12  23  41  65  95 128 163 206 262 317 371
#     4  11  22  38  65  99 124 159 202 257 317 374
#
# _framework density 19.514887000000002
#
# number of rings (size 3 to 8) (size 9 to 14) (size 15 to 20)
#    0.000    0.833    3.333    6.000    2.333    2.000 
#    0.000    0.000    0.000    1.000    0.000    0.000 
#    0.000    0.000    0.000    0.000    0.000    0.000 
#
# Total GULP energy -268207.743974 kJ/mol
# GULP energy per Si atom -5587.661333 kJ/mol
# Density = 1.947047 g / cm^3
# Si number density = 19.514887 Si / 1000 Ang^3
#
#
#
# Elastic Constant Matrix: (Units=GPa)
#
#
# Indices 1 2 3 4 5 6 
#
# 1 112.5203 35.4371 20.3439 0.0000 0.0000 0.0000
# 2 35.4371 63.9288 1.0945 0.0000 0.0000 0.0000
# 3 20.3439 1.0945 104.3647 0.0000 0.0000 0.0000
# 4 0.0000 0.0000 0.0000 31.0602 0.0000 0.0000
# 5 0.0000 0.0000 0.0000 0.0000 26.8187 0.0000
# 6 0.0000 0.0000 0.0000 0.0000 0.0000 19.9841
#
#
#
# Elastic Compliance Matrix: (Units=1/GPa)
#
#
# Indices 1 2 3 4 5 6 
#
# 1 0.011218 -0.006182 -0.002122 0.000000 0.000000 0.000000
# 2 -0.006182 0.019052 0.001005 0.000000 0.000000 0.000000
# 3 -0.002122 0.001005 0.009985 0.000000 0.000000 0.000000
# 4 0.000000 0.000000 0.000000 0.032196 0.000000 0.000000
# 5 0.000000 0.000000 0.000000 0.000000 0.037287 0.000000
# 6 0.000000 0.000000 0.000000 0.000000 0.000000 0.050040
#
#
# Mechanical properties :
#
#
# Convention : Reuss Voigt Hill
#
# Bulk Modulus (GPa) = 38.97492 43.84054 41.40773
# Shear Modulus (GPa) = 27.33327 30.50182 28.91754
#
# Velocity S-wave (km/s) = 3.74657 3.95777 3.85362
# Velocity P-wave (km/s) = 6.22342 6.58781 6.40820
#
# Compressibility (1/GPa) = 0.02565753
#
# Stress axis : x y z
#
# Youngs Moduli (GPa) = 89.14345 52.48796 100.15167
#
# Poissons Ratio (x) = 0.32448 0.21251
# Poissons Ratio (y) = 0.55108 -0.10068
# Poissons Ratio (z) = 0.18915 -0.05276
#
# Static dielectric constant tensor:
#      x y z
#    x 1.677620 0.000000 0.000000 
#    y 0.000000 1.671180 0.000000 
#    z 0.000000 0.000000 1.737600 
# 
# From -- ./inp_files/70301.got.cif
#   From: 2010.05.17/outbox.cif.g08.bks.cpg/sg63_36_cif.got.tgz:70301.got - 2010.06.03 15:47:04.
