data_PCOD9474594
_publ_section_title
;
Structure prediction by ZEFSAII (Michael W. Deem and Ramdas Pophale) SiO2 
 PCOD9474594
Probable space group: C M C M
;
_chemical_formula_sum "Si O2"
_cell_formula_units_Z 104
_cell_length_a 9.574177
_cell_length_b 22.450060
_cell_length_c 23.281856
_cell_angle_alpha 90.000000
_cell_angle_beta 90.000000
_cell_angle_gamma 90.000000
_cell_volume 5004.221874
_symmetry_space_group_name_H-M "C M C M"
_symmetry_group_IT_number 63
_symmetry_cell_setting 'orthorhombic'
loop_
_space_group_symop_operation_xyz
x,y,z
-x,-y,1/2+z
x,-y,-z
-x,y,1/2-z
-x,-y,-z
x,y,1/2-z
-x,y,z
x,-y,1/2+z
1/2+x,1/2+y,z
1/2-x,1/2-y,1/2+z
1/2+x,1/2-y,-z
1/2-x,1/2+y,1/2-z
1/2-x,1/2-y,-z
1/2+x,1/2+y,1/2-z
1/2-x,1/2+y,z
1/2+x,1/2-y,1/2+z
loop_
_atom_site_type_symbol
_atom_site_label
_atom_site_fract_x
_atom_site_fract_y
_atom_site_fract_z
Si Si1 0.160583 0.348658 0.680921
Si Si2 0.658066 0.233899 0.819813
Si Si3 0.340540 0.378737 0.183328
Si Si4 0.500000 0.245363 0.478200
Si Si5 0.837582 0.950599 0.073590
Si Si6 0.737796 0.339400 0.493729
Si Si7 0.661606 0.418179 0.901574
O O1 0.163204 0.353116 0.750000
O O2 0.245903 0.289481 0.663829
O O3 0.237711 0.403412 0.651145
O O4 0.000000 0.343277 0.661887
O O5 0.651571 0.234846 0.750000
O O6 0.500000 0.238955 0.842304
O O7 0.733310 0.172540 0.835060
O O8 0.314868 0.393704 0.250000
O O9 0.500000 0.354776 0.179769
O O10 0.332290 0.434297 0.141105
O O11 0.622825 0.296028 0.466320
O O12 0.377721 0.196608 0.495115
O O13 0.000000 0.943367 0.054210
O O14 0.800319 0.019604 0.067910
O O15 0.748502 0.899815 0.043047
O O16 0.677866 0.364042 0.554101
O O17 0.500000 0.422847 0.883345
#
# Coordination Sequence:
#
# PCOD9474594 Si02
#       7
#    16  16  16   8  16  16  16
#     4  10  22  40  60  88 126 168 210 254 311 372
#     4   9  17  32  55  83 117 156 200 253 308 358
#     4   9  18  34  56  86 120 160 208 252 305 366
#     4  10  24  40  68  94 130 156 204 260 326 372
#     4  10  21  40  64  88 123 169 210 254 305 367
#     4  11  22  45  64  97 124 163 205 261 317 383
#     4  11  23  40  65  92 123 167 213 258 307 368
#
# _framework density 20.782450999999998
#
# number of rings (size 3 to 8) (size 9 to 14) (size 15 to 20)
#    0.000    2.000    1.538    1.385    1.077    7.077 
#    5.538    2.308    0.000    1.846    0.000    0.000 
#    0.000    0.000    0.000    0.000    0.000    0.000 
#
# Total GULP energy -289479.891205 kJ/mol
# GULP energy per Si atom -5566.920985 kJ/mol
# Density = 2.073515 g / cm^3
# Si number density = 20.782451 Si / 1000 Ang^3
#
#
#
# Elastic Constant Matrix: (Units=GPa)
#
#
# Indices 1 2 3 4 5 6 
#
# 1 119.9597 38.0369 14.7866 0.0000 0.0000 0.0000
# 2 38.0369 65.9880 10.2720 0.0000 0.0000 0.0000
# 3 14.7866 10.2720 42.1442 0.0000 0.0000 0.0000
# 4 0.0000 0.0000 0.0000 25.9465 0.0000 0.0000
# 5 0.0000 0.0000 0.0000 0.0000 14.1013 0.0000
# 6 0.0000 0.0000 0.0000 0.0000 0.0000 32.1739
#
#
#
# Elastic Compliance Matrix: (Units=1/GPa)
#
#
# Indices 1 2 3 4 5 6 
#
# 1 0.010406 -0.005644 -0.002275 0.000000 0.000000 0.000000
# 2 -0.005644 0.018813 -0.002605 0.000000 0.000000 0.000000
# 3 -0.002275 -0.002605 0.025161 0.000000 0.000000 0.000000
# 4 0.000000 0.000000 0.000000 0.038541 0.000000 0.000000
# 5 0.000000 0.000000 0.000000 0.000000 0.070915 0.000000
# 6 0.000000 0.000000 0.000000 0.000000 0.000000 0.031081
#
#
# Mechanical properties :
#
#
# Convention : Reuss Voigt Hill
#
# Bulk Modulus (GPa) = 30.00178 39.36476 34.68327
# Shear Modulus (GPa) = 22.01885 25.44412 23.73149
#
# Velocity S-wave (km/s) = 3.25852 3.50281 3.38287
# Velocity P-wave (km/s) = 5.35020 5.94491 5.65538
#
# Compressibility (1/GPa) = 0.03333135
#
# Stress axis : x y z
#
# Youngs Moduli (GPa) = 96.09590 53.15409 39.74353
#
# Poissons Ratio (x) = 0.30001 0.09043
# Poissons Ratio (y) = 0.54238 0.10354
# Poissons Ratio (z) = 0.21866 0.13847
#
# Static dielectric constant tensor:
#      x y z
#    x 1.703310 0.000000 0.000000 
#    y 0.000000 1.721520 0.000000 
#    z 0.000000 0.000000 1.819930 
# 
# From -- ./inp_files/67101.got.cif
#   From: 2010.05.17/outbox.cif.g08.bks.cpg/sg63_34_cif.got.tgz:67101.got - 2010.06.03 15:47:04.
