data_PCOD9474844
_publ_section_title
;
Structure prediction by ZEFSAII (Michael W. Deem and Ramdas Pophale) SiO2 
 PCOD9474844
Probable space group: C M C M
;
_chemical_formula_sum "Si O2"
_cell_formula_units_Z 104
_cell_length_a 18.836443
_cell_length_b 27.163498
_cell_length_c 9.450825
_cell_angle_alpha 90.000000
_cell_angle_beta 90.000000
_cell_angle_gamma 90.000000
_cell_volume 4835.643915
_symmetry_space_group_name_H-M "C M C M"
_symmetry_group_IT_number 63
_symmetry_cell_setting 'orthorhombic'
loop_
_space_group_symop_operation_xyz
x,y,z
-x,-y,1/2+z
x,-y,-z
-x,y,1/2-z
-x,-y,-z
x,y,1/2-z
-x,y,z
x,-y,1/2+z
1/2+x,1/2+y,z
1/2-x,1/2-y,1/2+z
1/2+x,1/2-y,-z
1/2-x,1/2+y,1/2-z
1/2-x,1/2-y,-z
1/2+x,1/2+y,1/2-z
1/2-x,1/2+y,z
1/2+x,1/2-y,1/2+z
loop_
_atom_site_type_symbol
_atom_site_label
_atom_site_fract_x
_atom_site_fract_y
_atom_site_fract_z
Si Si1 0.914574 0.748609 0.083773
Si Si2 0.212786 0.691088 0.967411
Si Si3 0.414713 0.653155 0.410960
Si Si4 0.841553 0.047305 0.080631
Si Si5 0.707707 0.082281 0.591566
Si Si6 0.252407 0.776011 0.750000
Si Si7 0.079260 0.551480 0.415788
O O1 0.891586 0.743971 0.250000
O O2 0.000000 0.741646 0.076596
O O3 0.868734 0.709414 0.995509
O O4 0.898072 0.802691 0.020091
O O5 0.224576 0.639391 0.895349
O O6 0.246532 0.733130 0.871615
O O7 0.243661 0.683636 0.123524
O O8 0.395339 0.669817 0.250000
O O9 0.500000 0.648102 0.414155
O O10 0.382344 0.599456 0.438529
O O11 0.835718 0.038656 0.250000
O O12 0.766821 0.055149 0.001103
O O13 0.875171 0.000000 0.000000
O O14 0.700768 0.060792 0.750000
O O15 0.636013 0.082094 0.501125
O O16 0.078524 0.500000 0.500000
O O17 0.096639 0.545111 0.250000
O O18 0.000000 0.572845 0.422961
#
# Coordination Sequence:
#
# PCOD9474844 Si02
#       7
#    16  16  16  16  16   8  16
#     4  10  22  39  60  88 123 161 201 247 296 352
#     4  11  24  40  61  90 120 164 201 251 298 357
#     4   9  21  40  64  91 120 160 206 250 301 362
#     4  11  25  42  64  90 123 159 199 255 312 364
#     4  12  26  41  61  93 125 161 204 253 305 362
#     4  10  24  40  60  86 124 156 206 248 298 356
#     4  10  22  42  68  93 122 161 202 247 302 364
#
# _framework density 21.506961
#
# number of rings (size 3 to 8) (size 9 to 14) (size 15 to 20)
#    0.000    1.538    1.538    1.846    7.538    3.077 
#    0.000    1.538    0.000    0.000    0.000    0.000 
#    0.000    0.000    0.000    0.000    0.000    0.000 
#
# Total GULP energy -289532.414741 kJ/mol
# GULP energy per Si atom -5567.931053 kJ/mol
# Density = 2.145801 g / cm^3
# Si number density = 21.506961 Si / 1000 Ang^3
#
#
#
# Elastic Constant Matrix: (Units=GPa)
#
#
# Indices 1 2 3 4 5 6 
#
# 1 37.6686 10.6762 22.9819 0.0000 0.0000 0.0000
# 2 10.6762 59.2057 16.6969 0.0000 0.0000 0.0000
# 3 22.9819 16.6969 161.8783 0.0000 0.0000 0.0000
# 4 0.0000 0.0000 0.0000 36.5719 0.0000 0.0000
# 5 0.0000 0.0000 0.0000 0.0000 13.5037 0.0000
# 6 0.0000 0.0000 0.0000 0.0000 0.0000 28.3490
#
#
#
# Elastic Compliance Matrix: (Units=1/GPa)
#
#
# Indices 1 2 3 4 5 6 
#
# 1 0.030115 -0.004351 -0.003827 0.000000 0.000000 0.000000
# 2 -0.004351 0.018025 -0.001241 0.000000 0.000000 0.000000
# 3 -0.003827 -0.001241 0.006849 0.000000 0.000000 0.000000
# 4 0.000000 0.000000 0.000000 0.027343 0.000000 0.000000
# 5 0.000000 0.000000 0.000000 0.000000 0.074054 0.000000
# 6 0.000000 0.000000 0.000000 0.000000 0.000000 0.035275
#
#
# Mechanical properties :
#
#
# Convention : Reuss Voigt Hill
#
# Bulk Modulus (GPa) = 27.66229 39.94029 33.80129
# Shear Modulus (GPa) = 22.46688 29.57808 26.02248
#
# Velocity S-wave (km/s) = 3.23558 3.71250 3.48222
# Velocity P-wave (km/s) = 5.18157 6.08178 5.64963
#
# Compressibility (1/GPa) = 0.03615029
#
# Stress axis : x y z
#
# Youngs Moduli (GPa) = 33.20573 55.47843 146.01099
#
# Poissons Ratio (x) = 0.24140 0.55874
# Poissons Ratio (y) = 0.14449 0.18126
# Poissons Ratio (z) = 0.12707 0.06887
#
# Static dielectric constant tensor:
#      x y z
#    x 1.955300 0.000000 0.000000 
#    y 0.000000 1.735810 0.000000 
#    z 0.000000 0.000000 1.791220 
# 
# From -- ./inp_files/8813.got.cif
#   From: 2010.05.17/outbox.cif.g08.bks.cpg/sg63_5_cif.got.tgz:8813.got - 2010.06.03 15:47:04.
