data_PCOD9474606
_publ_section_title
;
Structure prediction by ZEFSAII (Michael W. Deem and Ramdas Pophale) SiO2 
 PCOD9474606
Probable space group: C M C M
;
_chemical_formula_sum "Si O2"
_cell_formula_units_Z 88
_cell_length_a 13.334244
_cell_length_b 12.982700
_cell_length_c 23.792722
_cell_angle_alpha 90.000000
_cell_angle_beta 90.000000
_cell_angle_gamma 90.000000
_cell_volume 4118.864925
_symmetry_space_group_name_H-M "C M C M"
_symmetry_group_IT_number 63
_symmetry_cell_setting 'orthorhombic'
loop_
_space_group_symop_operation_xyz
x,y,z
-x,-y,1/2+z
x,-y,-z
-x,y,1/2-z
-x,-y,-z
x,y,1/2-z
-x,y,z
x,-y,1/2+z
1/2+x,1/2+y,z
1/2-x,1/2-y,1/2+z
1/2+x,1/2-y,-z
1/2-x,1/2+y,1/2-z
1/2-x,1/2-y,-z
1/2+x,1/2+y,1/2-z
1/2-x,1/2+y,z
1/2+x,1/2-y,1/2+z
loop_
_atom_site_type_symbol
_atom_site_label
_atom_site_fract_x
_atom_site_fract_y
_atom_site_fract_z
Si Si1 0.746829 0.916862 0.250000
Si Si2 0.878950 0.467989 0.359411
Si Si3 0.879950 0.864151 0.143205
Si Si4 0.378394 0.451733 0.558699
Si Si5 0.378441 0.834028 0.932645
Si Si6 0.621569 0.216665 0.941678
O O1 0.674919 0.966145 0.200157
O O2 0.819361 0.867394 0.200526
O O3 0.849395 0.563467 0.399235
O O4 0.853538 0.363195 0.392906
O O5 0.000000 0.471261 0.352176
O O6 0.854874 0.768229 0.102800
O O7 0.000000 0.859887 0.153761
O O8 0.859627 0.969445 0.108975
O O9 0.341541 0.500000 0.500000
O O10 0.500000 0.446476 0.553704
O O11 0.344829 0.334265 0.567818
O O12 0.500000 0.837987 0.935609
O O13 0.345449 0.823561 0.997248
O O14 0.500000 0.219321 0.943029
#
# Coordination Sequence:
#
# PCOD9474606 Si02
#       6
#     8  16  16  16  16  16
#     4  12  26  44  56  84 122 168 214 252 284 348
#     4  10  22  41  63  89 123 164 204 245 302 362
#     4  10  21  40  65  91 118 156 204 255 308 354
#     4   9  15  30  60  93 123 153 189 240 308 373
#     4   9  17  35  67  96 119 151 196 256 316 366
#     4   9  16  32  63  98 123 150 192 248 315 375
#
# _framework density 21.365110000000001
#
# number of rings (size 3 to 8) (size 9 to 14) (size 15 to 20)
#    0.000    2.364    1.818    1.091    0.000    2.909 
#    6.545    5.455    0.000    4.364    0.000    0.000 
#    0.000    0.000    0.000    0.000    0.000    0.000 
#
# Total GULP energy -245085.606685 kJ/mol
# GULP energy per Si atom -5570.127425 kJ/mol
# Density = 2.131648 g / cm^3
# Si number density = 21.365110 Si / 1000 Ang^3
#
#
#
# Elastic Constant Matrix: (Units=GPa)
#
#
# Indices 1 2 3 4 5 6 
#
# 1 63.9351 10.5242 -4.0890 0.0000 0.0000 0.0000
# 2 10.5242 156.2149 77.7857 0.0000 0.0000 0.0000
# 3 -4.0890 77.7857 190.4539 0.0000 0.0000 0.0000
# 4 0.0000 0.0000 0.0000 6.6938 0.0000 0.0000
# 5 0.0000 0.0000 0.0000 0.0000 33.3656 0.0000
# 6 0.0000 0.0000 0.0000 0.0000 0.0000 33.8126
#
#
#
# Elastic Compliance Matrix: (Units=1/GPa)
#
#
# Indices 1 2 3 4 5 6 
#
# 1 0.015961 -0.001564 0.000981 0.000000 0.000000 0.000000
# 2 -0.001564 0.008189 -0.003378 0.000000 0.000000 0.000000
# 3 0.000981 -0.003378 0.006651 0.000000 0.000000 0.000000
# 4 0.000000 0.000000 0.000000 0.149393 0.000000 0.000000
# 5 0.000000 0.000000 0.000000 0.000000 0.029971 0.000000
# 6 0.000000 0.000000 0.000000 0.000000 0.000000 0.029575
#
#
# Mechanical properties :
#
#
# Convention : Reuss Voigt Hill
#
# Bulk Modulus (GPa) = 43.70623 64.33843 54.02233
# Shear Modulus (GPa) = 19.58573 36.53326 28.05950
#
# Velocity S-wave (km/s) = 3.03102 4.13964 3.62792
# Velocity P-wave (km/s) = 5.72282 7.28203 6.54899
#
# Compressibility (1/GPa) = 0.02288003
#
# Stress axis : x y z
#
# Youngs Moduli (GPa) = 62.65243 122.11652 150.34468
#
# Poissons Ratio (x) = 0.19099 -0.14756
# Poissons Ratio (y) = 0.09799 0.50788
# Poissons Ratio (z) = -0.06149 0.41252
#
# Static dielectric constant tensor:
#      x y z
#    x 1.878420 0.000000 0.000000 
#    y 0.000000 1.743790 0.000000 
#    z 0.000000 0.000000 1.672870 
# 
# From -- ./inp_files/62692.got.cif
#   From: 2010.05.17/outbox.cif.g08.bks.cpg/sg63_32_cif.got.tgz:62692.got - 2010.06.03 15:47:04.
