data_PCOD9474716
_publ_section_title
;
Structure prediction by ZEFSAII (Michael W. Deem and Ramdas Pophale) SiO2 
 PCOD9474716
Probable space group: C M C M
;
_chemical_formula_sum "Si O2"
_cell_formula_units_Z 88
_cell_length_a 16.582096
_cell_length_b 14.339428
_cell_length_c 17.442609
_cell_angle_alpha 90.000000
_cell_angle_beta 90.000000
_cell_angle_gamma 90.000000
_cell_volume 4147.464700
_symmetry_space_group_name_H-M "C M C M"
_symmetry_group_IT_number 63
_symmetry_cell_setting 'orthorhombic'
loop_
_space_group_symop_operation_xyz
x,y,z
-x,-y,1/2+z
x,-y,-z
-x,y,1/2-z
-x,-y,-z
x,y,1/2-z
-x,y,z
x,-y,1/2+z
1/2+x,1/2+y,z
1/2-x,1/2-y,1/2+z
1/2+x,1/2-y,-z
1/2-x,1/2+y,1/2-z
1/2-x,1/2-y,-z
1/2+x,1/2+y,1/2-z
1/2-x,1/2+y,z
1/2+x,1/2-y,1/2+z
loop_
_atom_site_type_symbol
_atom_site_label
_atom_site_fract_x
_atom_site_fract_y
_atom_site_fract_z
Si Si1 0.219326 0.408405 0.250000
Si Si2 0.310433 0.880518 0.910241
Si Si3 0.087256 0.732827 0.511624
Si Si4 0.738993 0.195226 0.250000
Si Si5 0.367482 0.550118 0.250000
Si Si6 0.090264 0.446830 0.119827
Si Si7 0.874534 0.065439 0.073352
O O1 0.255207 0.305416 0.250000
O O2 0.292090 0.480346 0.250000
O O3 0.160977 0.425898 0.179090
O O4 0.336933 0.790188 0.958197
O O5 0.304560 0.845725 0.823652
O O6 0.223347 0.925073 0.927812
O O7 0.379422 0.958296 0.919954
O O8 0.086661 0.645284 0.568542
O O9 0.095925 0.830196 0.555230
O O10 0.000000 0.734152 0.470425
O O11 0.830125 0.154240 0.250000
O O12 0.401242 0.538481 0.161585
O O13 0.000000 0.461540 0.151235
O O14 0.897466 0.000000 0.000000
#
# Coordination Sequence:
#
# PCOD9474716 Si02
#       7
#     8  16  16   8   8  16  16
#     4  12  21  37  61  89 131 158 208 259 314 387
#     4  11  21  39  62  95 124 164 214 271 327 387
#     4  11  25  40  60  91 127 168 214 265 330 401
#     4  10  22  36  60  89 127 164 206 274 315 375
#     4  10  22  41  61  98 125 158 218 269 312 378
#     4  11  21  37  61  91 130 166 201 258 331 398
#     4  11  23  41  68  93 126 174 219 275 325 377
#
# _framework density 21.217780999999999
#
# number of rings (size 3 to 8) (size 9 to 14) (size 15 to 20)
#    0.000    1.091    3.636    5.182    2.545    1.818 
#    0.000    2.727    0.000    0.000    0.000    0.000 
#    0.000    0.000    0.000    0.000    0.000    0.000 
#
# Total GULP energy -245429.379987 kJ/mol
# GULP energy per Si atom -5577.940454 kJ/mol
# Density = 2.116949 g / cm^3
# Si number density = 21.217781 Si / 1000 Ang^3
#
#
#
# Elastic Constant Matrix: (Units=GPa)
#
#
# Indices 1 2 3 4 5 6 
#
# 1 75.7176 33.3991 24.9768 0.0000 0.0000 0.0000
# 2 33.3991 120.0088 42.6345 0.0000 0.0000 0.0000
# 3 24.9768 42.6345 141.4543 0.0000 0.0000 0.0000
# 4 0.0000 0.0000 0.0000 17.2797 0.0000 0.0000
# 5 0.0000 0.0000 0.0000 0.0000 14.7352 0.0000
# 6 0.0000 0.0000 0.0000 0.0000 0.0000 12.6689
#
#
#
# Elastic Compliance Matrix: (Units=1/GPa)
#
#
# Indices 1 2 3 4 5 6 
#
# 1 0.015370 -0.003711 -0.001595 0.000000 0.000000 0.000000
# 2 -0.003711 0.010228 -0.002427 0.000000 0.000000 0.000000
# 3 -0.001595 -0.002427 0.008083 0.000000 0.000000 0.000000
# 4 0.000000 0.000000 0.000000 0.057871 0.000000 0.000000
# 5 0.000000 0.000000 0.000000 0.000000 0.067865 0.000000
# 6 0.000000 0.000000 0.000000 0.000000 0.000000 0.078934
#
#
# Mechanical properties :
#
#
# Convention : Reuss Voigt Hill
#
# Bulk Modulus (GPa) = 54.90504 59.91128 57.40816
# Shear Modulus (GPa) = 19.23897 24.68143 21.96020
#
# Velocity S-wave (km/s) = 3.01448 3.41433 3.22062
# Velocity P-wave (km/s) = 6.16840 6.62127 6.39884
#
# Compressibility (1/GPa) = 0.01821326
#
# Stress axis : x y z
#
# Youngs Moduli (GPa) = 65.06143 97.77244 123.71982
#
# Poissons Ratio (x) = 0.36281 0.19739
# Poissons Ratio (y) = 0.24143 0.30033
# Poissons Ratio (z) = 0.10380 0.23734
#
# Static dielectric constant tensor:
#      x y z
#    x 1.773420 0.000000 0.000000 
#    y 0.000000 1.735530 0.000000 
#    z 0.000000 0.000000 1.841390 
# 
# From -- ./inp_files/45570.got.cif
#   From: 2010.05.17/outbox.cif.g08.bks.cpg/sg63_23_cif.got.tgz:45570.got - 2010.06.03 15:47:04.
