data_PCOD9474775
_publ_section_title
;
Structure prediction by ZEFSAII (Michael W. Deem and Ramdas Pophale) SiO2 
 PCOD9474775
Probable space group: C M C M
;
_chemical_formula_sum "Si O2"
_cell_formula_units_Z 96
_cell_length_a 11.558393
_cell_length_b 25.452501
_cell_length_c 18.389454
_cell_angle_alpha 90.000000
_cell_angle_beta 90.000000
_cell_angle_gamma 90.000000
_cell_volume 5409.993645
_symmetry_space_group_name_H-M "C M C M"
_symmetry_group_IT_number 63
_symmetry_cell_setting 'orthorhombic'
loop_
_space_group_symop_operation_xyz
x,y,z
-x,-y,1/2+z
x,-y,-z
-x,y,1/2-z
-x,-y,-z
x,y,1/2-z
-x,y,z
x,-y,1/2+z
1/2+x,1/2+y,z
1/2-x,1/2-y,1/2+z
1/2+x,1/2-y,-z
1/2-x,1/2+y,1/2-z
1/2-x,1/2-y,-z
1/2+x,1/2+y,1/2-z
1/2-x,1/2+y,z
1/2+x,1/2-y,1/2+z
loop_
_atom_site_type_symbol
_atom_site_label
_atom_site_fract_x
_atom_site_fract_y
_atom_site_fract_z
Si Si1 0.637905 0.258656 0.835169
Si Si2 0.234131 0.853478 0.572076
Si Si3 0.137788 0.558728 0.335351
Si Si4 0.361955 0.150653 0.579623
Si Si5 0.000000 0.030024 0.614388
Si Si6 0.000000 0.081995 0.045140
Si Si7 0.254073 0.052996 0.665019
O O1 0.668729 0.259797 0.750000
O O2 0.500000 0.269782 0.840861
O O3 0.706257 0.302092 0.880794
O O4 0.657098 0.201264 0.869313
O O5 0.309904 0.894477 0.618007
O O6 0.300489 0.840698 0.497630
O O7 0.113562 0.882869 0.555100
O O8 0.166386 0.566300 0.250000
O O9 0.191121 0.502774 0.357940
O O10 0.000000 0.556695 0.342738
O O11 0.500000 0.143580 0.570605
O O12 0.306749 0.099609 0.617395
O O13 0.116680 0.047554 0.654217
O O14 0.000000 0.056782 0.534981
O O15 0.000000 0.967091 0.601173
O O16 0.281964 0.061525 0.750000
#
# Coordination Sequence:
#
# PCOD9474775 Si02
#       7
#    16  16  16  16   8   8  16
#     4  10  22  40  63  89 117 153 199 250 302 357
#     4  12  21  40  62  91 117 156 199 248 304 352
#     4  10  22  38  58  88 123 158 194 238 295 357
#     4  11  24  40  61  89 120 159 203 247 298 359
#     4  11  21  40  56  92 125 160 199 243 305 356
#     4  11  22  36  62  88 126 155 194 251 302 356
#     4  11  22  38  61  86 122 161 201 247 294 355
#
# _framework density 17.744937
#
# number of rings (size 3 to 8) (size 9 to 14) (size 15 to 20)
#    0.000    1.167    4.167    2.750    0.000    2.333 
#    0.000    1.667    1.833    0.000    0.000    0.000 
#    0.000    0.000    0.000    0.000    0.000    0.000 
#
# Total GULP energy -268269.572634 kJ/mol
# GULP energy per Si atom -5588.949430 kJ/mol
# Density = 1.770455 g / cm^3
# Si number density = 17.744937 Si / 1000 Ang^3
#
#
#
# Elastic Constant Matrix: (Units=GPa)
#
#
# Indices 1 2 3 4 5 6 
#
# 1 83.9117 43.2688 41.3828 0.0000 0.0000 0.0000
# 2 43.2688 98.4931 60.9365 0.0000 0.0000 0.0000
# 3 41.3828 60.9365 103.0394 0.0000 0.0000 0.0000
# 4 0.0000 0.0000 0.0000 30.2016 0.0000 0.0000
# 5 0.0000 0.0000 0.0000 0.0000 24.6163 0.0000
# 6 0.0000 0.0000 0.0000 0.0000 0.0000 22.0797
#
#
#
# Elastic Compliance Matrix: (Units=1/GPa)
#
#
# Indices 1 2 3 4 5 6 
#
# 1 0.016225 -0.004883 -0.003629 0.000000 0.000000 0.000000
# 2 -0.004883 0.017481 -0.008377 0.000000 0.000000 0.000000
# 3 -0.003629 -0.008377 0.016116 0.000000 0.000000 0.000000
# 4 0.000000 0.000000 0.000000 0.033111 0.000000 0.000000
# 5 0.000000 0.000000 0.000000 0.000000 0.040623 0.000000
# 6 0.000000 0.000000 0.000000 0.000000 0.000000 0.045290
#
#
# Mechanical properties :
#
#
# Convention : Reuss Voigt Hill
#
# Bulk Modulus (GPa) = 62.32351 64.06893 63.19622
# Shear Modulus (GPa) = 24.04180 24.70325 24.37252
#
# Velocity S-wave (km/s) = 3.68483 3.73517 3.71009
# Velocity P-wave (km/s) = 7.30082 7.40175 7.35146
#
# Compressibility (1/GPa) = 0.01604531
#
# Stress axis : x y z
#
# Youngs Moduli (GPa) = 61.63518 57.20604 62.04861
#
# Poissons Ratio (x) = 0.27931 0.22515
# Poissons Ratio (y) = 0.30094 0.51978
# Poissons Ratio (z) = 0.22365 0.47921
#
# Static dielectric constant tensor:
#      x y z
#    x 1.578560 0.000000 0.000000 
#    y 0.000000 1.572760 0.000000 
#    z 0.000000 0.000000 1.591010 
# 
# From -- ./inp_files/42578.got.cif
#   From: 2010.05.17/outbox.cif.g08.bks.cpg/sg63_22_cif.got.tgz:42578.got - 2010.06.03 15:47:04.
