data_PCOD9474648
_publ_section_title
;
Structure prediction by ZEFSAII (Michael W. Deem and Ramdas Pophale) SiO2 
 PCOD9474648
Probable space group: C M C M
;
_chemical_formula_sum "Si O2"
_cell_formula_units_Z 112
_cell_length_a 31.879023
_cell_length_b 11.632727
_cell_length_c 14.082542
_cell_angle_alpha 90.000000
_cell_angle_beta 90.000000
_cell_angle_gamma 90.000000
_cell_volume 5222.369475
_symmetry_space_group_name_H-M "C M C M"
_symmetry_group_IT_number 63
_symmetry_cell_setting 'orthorhombic'
loop_
_space_group_symop_operation_xyz
x,y,z
-x,-y,1/2+z
x,-y,-z
-x,y,1/2-z
-x,-y,-z
x,y,1/2-z
-x,y,z
x,-y,1/2+z
1/2+x,1/2+y,z
1/2-x,1/2-y,1/2+z
1/2+x,1/2-y,-z
1/2-x,1/2+y,1/2-z
1/2-x,1/2-y,-z
1/2+x,1/2+y,1/2-z
1/2-x,1/2+y,z
1/2+x,1/2-y,1/2+z
loop_
_atom_site_type_symbol
_atom_site_label
_atom_site_fract_x
_atom_site_fract_y
_atom_site_fract_z
Si Si1 0.452866 0.163041 0.637128
Si Si2 0.788304 0.081922 0.863447
Si Si3 0.693556 0.897398 0.077706
Si Si4 0.836569 0.149192 0.134177
Si Si5 0.922891 0.122296 0.025000
Si Si6 0.629875 0.728766 0.864045
Si Si7 0.883965 0.486052 0.644977
O O1 0.444810 0.186956 0.750000
O O2 0.500000 0.115978 0.629288
O O3 0.449317 0.279518 0.576887
O O4 0.417710 0.073227 0.601316
O O5 0.783630 0.082966 0.750000
O O6 0.742877 0.109588 0.903148
O O7 0.824898 0.172917 0.885496
O O8 0.804729 0.954638 0.888569
O O9 0.677546 0.765376 0.080982
O O10 0.660416 0.950854 0.151433
O O11 0.689979 0.000000 0.000000
O O12 0.837723 0.164636 0.250000
O O13 0.881823 0.111358 0.093689
O O14 0.904930 0.164639 0.924382
O O15 0.942886 0.000000 0.000000
O O16 0.624677 0.719168 0.750000
O O17 0.625490 0.860968 0.895732
O O18 0.901326 0.463569 0.750000
#
# Coordination Sequence:
#
# PCOD9474648 Si02
#       7
#    16  16  16  16  16  16  16
#     4  10  23  45  74 105 133 167 218 280 346 420
#     4  10  23  40  59  90 133 182 231 282 335 393
#     4  12  25  37  61  92 132 172 232 287 342 392
#     4  11  23  42  65  91 130 185 234 281 338 405
#     4  12  23  39  69  96 134 173 228 275 339 408
#     4  10  23  41  62  92 135 179 226 281 339 397
#     4  10  21  41  65  90 127 173 219 277 344 408
#
# _framework density 21.446204000000002
#
# number of rings (size 3 to 8) (size 9 to 14) (size 15 to 20)
#    0.000    1.286    2.857    2.571    4.000    1.429 
#    0.000    1.429    0.000    1.286    0.000    0.000 
#    0.000    0.000    0.000    0.000    0.000    0.000 
#
# Total GULP energy -312427.276249 kJ/mol
# GULP energy per Si atom -5579.058504 kJ/mol
# Density = 2.139739 g / cm^3
# Si number density = 21.446204 Si / 1000 Ang^3
#
#
#
# Elastic Constant Matrix: (Units=GPa)
#
#
# Indices 1 2 3 4 5 6 
#
# 1 73.2139 36.9852 31.2923 0.0000 0.0000 0.0000
# 2 36.9852 160.9788 49.8538 0.0000 0.0000 0.0000
# 3 31.2923 49.8538 99.1890 0.0000 0.0000 0.0000
# 4 0.0000 0.0000 0.0000 24.7986 0.0000 0.0000
# 5 0.0000 0.0000 0.0000 0.0000 40.1859 0.0000
# 6 0.0000 0.0000 0.0000 0.0000 0.0000 7.9594
#
#
#
# Elastic Compliance Matrix: (Units=1/GPa)
#
#
# Indices 1 2 3 4 5 6 
#
# 1 0.016662 -0.002606 -0.003947 0.000000 0.000000 0.000000
# 2 -0.002606 0.007765 -0.003081 0.000000 0.000000 0.000000
# 3 -0.003947 -0.003081 0.012875 0.000000 0.000000 0.000000
# 4 0.000000 0.000000 0.000000 0.040325 0.000000 0.000000
# 5 0.000000 0.000000 0.000000 0.000000 0.024884 0.000000
# 6 0.000000 0.000000 0.000000 0.000000 0.000000 0.125637
#
#
# Mechanical properties :
#
#
# Convention : Reuss Voigt Hill
#
# Bulk Modulus (GPa) = 55.44627 63.29382 59.37005
# Shear Modulus (GPa) = 19.72959 28.93881 24.33420
#
# Velocity S-wave (km/s) = 3.03637 3.67736 3.37213
# Velocity P-wave (km/s) = 6.18082 6.89982 6.55019
#
# Compressibility (1/GPa) = 0.01803548
#
# Stress axis : x y z
#
# Youngs Moduli (GPa) = 60.01724 128.78774 77.66848
#
# Poissons Ratio (x) = 0.33560 0.30654
# Poissons Ratio (y) = 0.15639 0.23926
# Poissons Ratio (z) = 0.23688 0.39674
#
# Static dielectric constant tensor:
#      x y z
#    x 1.754710 0.000000 0.000000 
#    y 0.000000 1.801690 0.000000 
#    z 0.000000 0.000000 1.844770 
# 
# From -- ./inp_files/38585.got.cif
#   From: 2010.05.17/outbox.cif.g08.bks.cpg/sg63_20_cif.got.tgz:38585.got - 2010.06.03 15:47:04.
