data_PCOD9474198
_publ_section_title
;
Structure prediction by ZEFSAII (Michael W. Deem and Ramdas Pophale) SiO2 
 PCOD9474198
Probable space group: C M C M
;
_chemical_formula_sum "Si O2"
_cell_formula_units_Z 68
_cell_length_a 11.975778
_cell_length_b 8.232953
_cell_length_c 24.825979
_cell_angle_alpha 90.000000
_cell_angle_beta 90.000000
_cell_angle_gamma 90.000000
_cell_volume 2447.742658
_symmetry_space_group_name_H-M "C M C M"
_symmetry_group_IT_number 63
_symmetry_cell_setting 'orthorhombic'
loop_
_space_group_symop_operation_xyz
x,y,z
-x,-y,1/2+z
x,-y,-z
-x,y,1/2-z
-x,-y,-z
x,y,1/2-z
-x,y,z
x,-y,1/2+z
1/2+x,1/2+y,z
1/2-x,1/2-y,1/2+z
1/2+x,1/2-y,-z
1/2-x,1/2+y,1/2-z
1/2-x,1/2-y,-z
1/2+x,1/2+y,1/2-z
1/2-x,1/2+y,z
1/2+x,1/2-y,1/2+z
loop_
_atom_site_type_symbol
_atom_site_label
_atom_site_fract_x
_atom_site_fract_y
_atom_site_fract_z
Si Si1 0.623848 0.662710 0.553899
Si Si2 0.500000 0.046241 0.250000
Si Si3 0.152706 0.680656 0.342228
Si Si4 0.623550 0.132114 0.546922
Si Si5 0.120924 0.944050 0.687045
O O1 0.500000 0.583663 0.562222
O O2 0.614668 0.814410 0.596129
O O3 0.631278 0.703993 0.490593
O O4 0.750167 0.606207 0.569906
O O5 0.595871 0.062935 0.298464
O O6 0.282705 0.647443 0.342437
O O7 0.127634 0.862303 0.320614
O O8 0.500000 0.139163 0.574416
O O9 0.614584 0.000000 0.500000
O O10 0.131784 0.908390 0.750000
O O11 0.000000 0.887878 0.669772
#
# Coordination Sequence:
#
# PCOD9474198 Si02
#       5
#    16   4  16  16  16
#     4  10  21  37  60  89 116 162 211 255 321 389
#     4  12  20  44  66  94 132 172 212 268 324 386
#     4  12  23  41  67  92 129 172 212 269 326 382
#     4   9  20  39  59  84 124 159 199 265 322 376
#     4  11  22  42  61  89 127 168 211 265 319 380
#
# _framework density 27.780698999999998
#
# number of rings (size 3 to 8) (size 9 to 14) (size 15 to 20)
#    0.000    1.412    4.706    0.000    3.294    1.412 
#    2.118    0.000    0.000    0.000    0.000    0.000 
#    0.000    0.000    0.000    0.000    0.000    0.000 
#
# Total GULP energy -189321.887910 kJ/mol
# GULP energy per Si atom -5568.290821 kJ/mol
# Density = 2.771747 g / cm^3
# Si number density = 27.780699 Si / 1000 Ang^3
#
#
#
# Elastic Constant Matrix: (Units=GPa)
#
#
# Indices 1 2 3 4 5 6 
#
# 1 355.8732 40.8350 41.6862 0.0000 0.0000 0.0000
# 2 40.8350 27.3987 14.2905 0.0000 0.0000 0.0000
# 3 41.6862 14.2905 130.5388 0.0000 0.0000 0.0000
# 4 0.0000 0.0000 0.0000 27.4075 0.0000 0.0000
# 5 0.0000 0.0000 0.0000 0.0000 -54.9386 0.0000
# 6 0.0000 0.0000 0.0000 0.0000 0.0000 61.7021
#
#
#
# Elastic Compliance Matrix: (Units=1/GPa)
#
#
# Indices 1 2 3 4 5 6 
#
# 1 0.003429 -0.004814 -0.000568 0.000000 0.000000 0.000000
# 2 -0.004814 0.045467 -0.003440 0.000000 0.000000 0.000000
# 3 -0.000568 -0.003440 0.008219 0.000000 0.000000 0.000000
# 4 0.000000 0.000000 0.000000 0.036486 0.000000 0.000000
# 5 0.000000 0.000000 0.000000 0.000000 -0.018202 0.000000
# 6 0.000000 0.000000 0.000000 0.000000 0.000000 0.016207
#
#
# Mechanical properties :
#
#
# Convention : Reuss Voigt Hill
#
# Bulk Modulus (GPa) = 25.33551 78.60380 51.96966
# Shear Modulus (GPa) = 40.84720 34.63412 37.74066
#
# Velocity S-wave (km/s) = 3.83867 3.53469 3.68981
# Velocity P-wave (km/s) = 5.36533 6.70929 6.07459
#
# Compressibility (1/GPa) = 0.03947029
#
# Stress axis : x y z
#
# Youngs Moduli (GPa) = 291.63585 21.99377 121.67625
#
# Poissons Ratio (x) = 0.10588 0.06911
# Poissons Ratio (y) = 1.40400 0.41858
# Poissons Ratio (z) = 0.16564 0.07566
#
# Static dielectric constant tensor:
#      x y z
#    x 3.547650 0.000000 0.000000 
#    y 0.000000 2.341400 0.000000 
#    z 0.000000 0.000000 2.099800 
# 
# From -- ./inp_files/67972.got.cif
#   From: 2010.05.17/outbox.cif.g08.bks.cpg/sg63_34_cif.got.tgz:67972.got - 2010.06.03 15:47:04.
