data_PCOD9474676
_publ_section_title
;
Structure prediction by ZEFSAII (Michael W. Deem and Ramdas Pophale) SiO2 
 PCOD9474676
Probable space group: C M C M
;
_chemical_formula_sum "Si O2"
_cell_formula_units_Z 84
_cell_length_a 22.077539
_cell_length_b 12.413369
_cell_length_c 14.508988
_cell_angle_alpha 90.000000
_cell_angle_beta 90.000000
_cell_angle_gamma 90.000000
_cell_volume 3976.284475
_symmetry_space_group_name_H-M "C M C M"
_symmetry_group_IT_number 63
_symmetry_cell_setting 'orthorhombic'
loop_
_space_group_symop_operation_xyz
x,y,z
-x,-y,1/2+z
x,-y,-z
-x,y,1/2-z
-x,-y,-z
x,y,1/2-z
-x,y,z
x,-y,1/2+z
1/2+x,1/2+y,z
1/2-x,1/2-y,1/2+z
1/2+x,1/2-y,-z
1/2-x,1/2+y,1/2-z
1/2-x,1/2-y,-z
1/2+x,1/2+y,1/2-z
1/2-x,1/2+y,z
1/2+x,1/2-y,1/2+z
loop_
_atom_site_type_symbol
_atom_site_label
_atom_site_fract_x
_atom_site_fract_y
_atom_site_fract_z
Si Si1 0.101930 0.956963 0.596160
Si Si2 0.340024 0.061579 0.855940
Si Si3 0.853245 0.750996 0.001278
Si Si4 0.500000 0.571847 0.250000
Si Si5 0.430017 0.140774 0.356730
Si Si6 0.207177 0.878631 0.146543
O O1 0.137954 0.850475 0.566673
O O2 0.052409 0.931313 0.670386
O O3 0.075335 0.000000 0.500000
O O4 0.149440 0.045602 0.631836
O O5 0.352085 0.099798 0.750000
O O6 0.267429 0.048684 0.862906
O O7 0.382450 0.957468 0.868325
O O8 0.351588 0.147579 0.935840
O O9 0.909355 0.730950 0.071320
O O10 0.799047 0.783883 0.071161
O O11 0.425599 0.177456 0.250000
O O12 0.500000 0.107715 0.372120
O O13 0.207594 0.833032 0.250000
#
# Coordination Sequence:
#
# PCOD9474676 Si02
#       6
#    16  16  16   4  16  16
#     4  10  24  41  63  95 123 165 210 255 309 374
#     4  10  23  40  66  92 126 166 205 257 312 370
#     4  11  23  38  63  97 125 160 205 262 309 371
#     4  12  22  44  64  82 134 166 202 252 318 368
#     4  10  23  45  65  91 123 166 212 259 314 372
#     4  10  21  43  64  93 126 164 210 254 310 368
#
# _framework density 21.125249
#
# number of rings (size 3 to 8) (size 9 to 14) (size 15 to 20)
#    0.000    1.714    0.952    2.000    2.667    7.619 
#    1.714    3.810    0.000    0.000    0.000    0.000 
#    0.000    0.000    0.000    0.000    0.000    0.000 
#
# Total GULP energy -233884.165000 kJ/mol
# GULP energy per Si atom -5568.670595 kJ/mol
# Density = 2.107717 g / cm^3
# Si number density = 21.125249 Si / 1000 Ang^3
#
#
#
# Elastic Constant Matrix: (Units=GPa)
#
#
# Indices 1 2 3 4 5 6 
#
# 1 88.8835 4.3210 37.9940 0.0000 0.0000 0.0000
# 2 4.3210 35.1265 25.3236 0.0000 0.0000 0.0000
# 3 37.9940 25.3236 131.6107 0.0000 0.0000 0.0000
# 4 0.0000 0.0000 0.0000 27.1040 0.0000 0.0000
# 5 0.0000 0.0000 0.0000 0.0000 30.6210 0.0000
# 6 0.0000 0.0000 0.0000 0.0000 0.0000 2.0913
#
#
#
# Elastic Compliance Matrix: (Units=1/GPa)
#
#
# Indices 1 2 3 4 5 6 
#
# 1 0.012883 0.001273 -0.003964 0.000000 0.000000 0.000000
# 2 0.001273 0.033179 -0.006752 0.000000 0.000000 0.000000
# 3 -0.003964 -0.006752 0.010042 0.000000 0.000000 0.000000
# 4 0.000000 0.000000 0.000000 0.036895 0.000000 0.000000
# 5 0.000000 0.000000 0.000000 0.000000 0.032657 0.000000
# 6 0.000000 0.000000 0.000000 0.000000 0.000000 0.478169
#
#
# Mechanical properties :
#
#
# Convention : Reuss Voigt Hill
#
# Bulk Modulus (GPa) = 26.86814 43.43311 35.15062
# Shear Modulus (GPa) = 7.87256 24.49541 16.18398
#
# Velocity S-wave (km/s) = 1.93254 3.40888 2.77085
# Velocity P-wave (km/s) = 4.21019 6.00820 5.18768
#
# Compressibility (1/GPa) = 0.03721881
#
# Stress axis : x y z
#
# Youngs Moduli (GPa) = 77.61982 30.13921 99.58505
#
# Poissons Ratio (x) = -0.03837 0.39477
# Poissons Ratio (y) = -0.09881 0.67236
# Poissons Ratio (z) = 0.30770 0.20349
#
# Static dielectric constant tensor:
#      x y z
#    x 1.765480 0.000000 0.000000 
#    y 0.000000 1.776630 0.000000 
#    z 0.000000 0.000000 1.757740 
# 
# From -- ./inp_files/36598.got.cif
#   From: 2010.05.17/outbox.cif.g08.bks.cpg/sg63_19_cif.got.tgz:36598.got - 2010.06.03 15:47:04.
