data_PCOD9474529
_publ_section_title
;
Structure prediction by ZEFSAII (Michael W. Deem and Ramdas Pophale) SiO2 
 PCOD9474529
Probable space group: C M C M
;
_chemical_formula_sum "Si O2"
_cell_formula_units_Z 116
_cell_length_a 26.090230
_cell_length_b 13.372269
_cell_length_c 17.812207
_cell_angle_alpha 90.000000
_cell_angle_beta 90.000000
_cell_angle_gamma 90.000000
_cell_volume 6214.422060
_symmetry_space_group_name_H-M "C M C M"
_symmetry_group_IT_number 63
_symmetry_cell_setting 'orthorhombic'
loop_
_space_group_symop_operation_xyz
x,y,z
-x,-y,1/2+z
x,-y,-z
-x,y,1/2-z
-x,-y,-z
x,y,1/2-z
-x,y,z
x,-y,1/2+z
1/2+x,1/2+y,z
1/2-x,1/2-y,1/2+z
1/2+x,1/2-y,-z
1/2-x,1/2+y,1/2-z
1/2-x,1/2-y,-z
1/2+x,1/2+y,1/2-z
1/2-x,1/2+y,z
1/2+x,1/2-y,1/2+z
loop_
_atom_site_type_symbol
_atom_site_label
_atom_site_fract_x
_atom_site_fract_y
_atom_site_fract_z
Si Si1 0.308344 0.244892 0.099518
Si Si2 0.940706 0.215101 0.032265
Si Si3 0.395202 0.410541 0.839275
Si Si4 0.500000 0.312082 0.250000
Si Si5 0.218845 0.891697 0.837893
Si Si6 0.862796 0.388617 0.474383
Si Si7 0.257738 0.070965 0.572603
Si Si8 0.592538 0.647020 0.866711
O O1 0.262303 0.186401 0.139134
O O2 0.279913 0.336863 0.058697
O O3 0.354526 0.292553 0.147618
O O4 0.334558 0.166945 0.043392
O O5 0.933682 0.143450 0.104029
O O6 0.908972 0.316629 0.046991
O O7 0.000000 0.237363 0.020286
O O8 0.919513 0.164643 0.955345
O O9 0.402838 0.389199 0.750000
O O10 0.338758 0.375361 0.867210
O O11 0.399132 0.529920 0.849947
O O12 0.454528 0.316626 0.315678
O O13 0.213236 0.888226 0.750000
O O14 0.236516 0.001864 0.862006
O O15 0.878477 0.500000 0.500000
O O16 0.816559 0.397560 0.414524
O O17 0.257958 0.000000 0.500000
#
# Coordination Sequence:
#
# PCOD9474529 Si02
#       8
#    16  16  16   4  16  16  16  16
#     4  11  22  38  64  91 128 166 210 251 317 380
#     4  11  25  41  64  96 120 166 224 266 315 380
#     4  11  24  41  61  93 134 171 204 259 324 381
#     4  12  24  44  62  96 128 170 214 272 328 356
#     4  11  24  38  58  95 131 168 205 252 316 389
#     4  10  21  39  63  92 121 161 212 268 315 365
#     4  11  21  36  63  92 127 169 201 256 307 380
#     4  11  24  39  66  92 128 167 212 266 315 380
#
# _framework density 18.666256000000001
#
# number of rings (size 3 to 8) (size 9 to 14) (size 15 to 20)
#    0.000    1.103    5.517    1.655    5.793    1.655 
#    0.000    0.690    0.000    0.000    0.000    0.000 
#    0.000    0.000    0.000    0.000    0.000    0.000 
#
# Total GULP energy -323193.415056 kJ/mol
# GULP energy per Si atom -5572.300260 kJ/mol
# Density = 1.862377 g / cm^3
# Si number density = 18.666256 Si / 1000 Ang^3
#
#
#
# Elastic Constant Matrix: (Units=GPa)
#
#
# Indices 1 2 3 4 5 6 
#
# 1 100.8020 22.9232 23.1601 0.0000 0.0000 0.0000
# 2 22.9232 91.2825 20.0851 0.0000 0.0000 0.0000
# 3 23.1601 20.0851 53.2541 0.0000 0.0000 0.0000
# 4 0.0000 0.0000 0.0000 14.6863 0.0000 0.0000
# 5 0.0000 0.0000 0.0000 0.0000 31.3994 0.0000
# 6 0.0000 0.0000 0.0000 0.0000 0.0000 23.3076
#
#
#
# Elastic Compliance Matrix: (Units=1/GPa)
#
#
# Indices 1 2 3 4 5 6 
#
# 1 0.011322 -0.001919 -0.004200 0.000000 0.000000 0.000000
# 2 -0.001919 0.012272 -0.003794 0.000000 0.000000 0.000000
# 3 -0.004200 -0.003794 0.022035 0.000000 0.000000 0.000000
# 4 0.000000 0.000000 0.000000 0.068091 0.000000 0.000000
# 5 0.000000 0.000000 0.000000 0.000000 0.031848 0.000000
# 6 0.000000 0.000000 0.000000 0.000000 0.000000 0.042904
#
#
# Mechanical properties :
#
#
# Convention : Reuss Voigt Hill
#
# Bulk Modulus (GPa) = 38.75497 41.96393 40.35945
# Shear Modulus (GPa) = 23.05227 25.82335 24.43781
#
# Velocity S-wave (km/s) = 3.51803 3.72348 3.62221
# Velocity P-wave (km/s) = 6.10812 6.40435 6.25799
#
# Compressibility (1/GPa) = 0.02580314
#
# Stress axis : x y z
#
# Youngs Moduli (GPa) = 88.32487 81.48854 45.38161
#
# Poissons Ratio (x) = 0.15638 0.19061
# Poissons Ratio (y) = 0.16950 0.17217
# Poissons Ratio (z) = 0.37097 0.30915
#
# Static dielectric constant tensor:
#      x y z
#    x 1.667590 0.000000 0.000000 
#    y 0.000000 1.588960 0.000000 
#    z 0.000000 0.000000 1.706960 
# 
# From -- ./inp_files/49075.got.cif
#   From: 2010.05.17/outbox.cif.g08.bks.cpg/sg63_25_cif.got.tgz:49075.got - 2010.06.03 15:47:04.
