data_PCOD9474487
_publ_section_title
;
Structure prediction by ZEFSAII (Michael W. Deem and Ramdas Pophale) SiO2 
 PCOD9474487
Probable space group: C M C M
;
_chemical_formula_sum "Si O2"
_cell_formula_units_Z 112
_cell_length_a 22.932632
_cell_length_b 13.321677
_cell_length_c 14.928285
_cell_angle_alpha 90.000000
_cell_angle_beta 90.000000
_cell_angle_gamma 90.000000
_cell_volume 4560.607731
_symmetry_space_group_name_H-M "C M C M"
_symmetry_group_IT_number 63
_symmetry_cell_setting 'orthorhombic'
loop_
_space_group_symop_operation_xyz
x,y,z
-x,-y,1/2+z
x,-y,-z
-x,y,1/2-z
-x,-y,-z
x,y,1/2-z
-x,y,z
x,-y,1/2+z
1/2+x,1/2+y,z
1/2-x,1/2-y,1/2+z
1/2+x,1/2-y,-z
1/2-x,1/2+y,1/2-z
1/2-x,1/2-y,-z
1/2+x,1/2+y,1/2-z
1/2-x,1/2+y,z
1/2+x,1/2-y,1/2+z
loop_
_atom_site_type_symbol
_atom_site_label
_atom_site_fract_x
_atom_site_fract_y
_atom_site_fract_z
Si Si1 0.161900 0.674153 0.350660
Si Si2 0.763638 0.015518 0.353182
Si Si3 0.601911 0.515737 0.643296
Si Si4 0.747971 0.189686 0.908624
Si Si5 0.933963 0.526263 0.102722
Si Si6 0.619173 0.812158 0.151520
Si Si7 0.934598 0.843304 0.983955
O O1 0.142355 0.664112 0.250000
O O2 0.219874 0.606668 0.364863
O O3 0.191303 0.782163 0.361874
O O4 0.107415 0.624319 0.398809
O O5 0.753756 0.979635 0.250000
O O6 0.832501 0.030152 0.361510
O O7 0.747588 0.928565 0.421486
O O8 0.589054 0.533326 0.750000
O O9 0.593823 0.609466 0.574157
O O10 0.565031 0.430412 0.592178
O O11 0.688561 0.206971 0.855000
O O12 0.750000 0.250000 0.000000
O O13 0.899419 0.429831 0.144242
O O14 0.000000 0.538552 0.140456
O O15 0.940799 0.500000 0.000000
O O16 0.598801 0.776622 0.250000
O O17 0.594426 0.749470 0.068123
O O18 0.000000 0.814587 0.008534
#
# Coordination Sequence:
#
# PCOD9474487 Si02
#       7
#    16  16  16  16  16  16  16
#     4  11  23  40  65  97 132 172 218 274 344 415
#     4  10  21  39  61  92 130 163 210 272 329 406
#     4  10  21  39  62  90 135 186 224 274 352 425
#     4  12  24  39  66  98 136 174 215 278 347 415
#     4  11  25  45  67  95 136 183 234 290 350 422
#     4  12  24  43  70 102 136 178 233 296 361 416
#     4  11  24  40  62  98 135 174 234 292 340 411
#
# _framework density 24.558130999999999
#
# number of rings (size 3 to 8) (size 9 to 14) (size 15 to 20)
#    0.000    1.000    1.429    6.000    0.000    6.000 
#    0.000    0.000    0.000    1.714    0.000    8.000 
#    0.000    0.000    0.000    0.000    0.000    0.000 
#
# Total GULP energy -312895.842343 kJ/mol
# GULP energy per Si atom -5587.425756 kJ/mol
# Density = 2.450224 g / cm^3
# Si number density = 24.558131 Si / 1000 Ang^3
#
#
#
# Elastic Constant Matrix: (Units=GPa)
#
#
# Indices 1 2 3 4 5 6 
#
# 1 157.4188 20.8104 34.5190 0.0000 0.0000 0.0000
# 2 20.8104 58.2634 29.8522 0.0000 0.0000 0.0000
# 3 34.5190 29.8522 156.1419 0.0000 0.0000 0.0000
# 4 0.0000 0.0000 0.0000 31.4596 0.0000 0.0000
# 5 0.0000 0.0000 0.0000 0.0000 9.5197 0.0000
# 6 0.0000 0.0000 0.0000 0.0000 0.0000 17.3901
#
#
#
# Elastic Compliance Matrix: (Units=1/GPa)
#
#
# Indices 1 2 3 4 5 6 
#
# 1 0.006852 -0.001853 -0.001161 0.000000 0.000000 0.000000
# 2 -0.001853 0.019528 -0.003324 0.000000 0.000000 0.000000
# 3 -0.001161 -0.003324 0.007296 0.000000 0.000000 0.000000
# 4 0.000000 0.000000 0.000000 0.031787 0.000000 0.000000
# 5 0.000000 0.000000 0.000000 0.000000 0.105045 0.000000
# 6 0.000000 0.000000 0.000000 0.000000 0.000000 0.057504
#
#
# Mechanical properties :
#
#
# Convention : Reuss Voigt Hill
#
# Bulk Modulus (GPa) = 47.61408 60.24307 53.92857
# Shear Modulus (GPa) = 20.18666 30.78336 25.48501
#
# Velocity S-wave (km/s) = 2.87016 3.54431 3.22490
# Velocity P-wave (km/s) = 5.51490 6.42912 5.98948
#
# Compressibility (1/GPa) = 0.02100219
#
# Stress axis : x y z
#
# Youngs Moduli (GPa) = 145.94497 51.20782 137.05206
#
# Poissons Ratio (x) = 0.09487 0.15906
# Poissons Ratio (y) = 0.27039 0.45555
# Poissons Ratio (z) = 0.16938 0.17021
#
# Static dielectric constant tensor:
#      x y z
#    x 2.118220 0.000000 0.000000 
#    y 0.000000 2.032220 0.000000 
#    z 0.000000 0.000000 2.095880 
# 
# From -- ./inp_files/36909.got.cif
#   From: 2010.05.17/outbox.cif.g08.bks.cpg/sg63_19_cif.got.tgz:36909.got - 2010.06.03 15:47:04.
