data_PCOD9474813
_publ_section_title
;
Structure prediction by ZEFSAII (Michael W. Deem and Ramdas Pophale) SiO2 
 PCOD9474813
Probable space group: C M C M
;
_chemical_formula_sum "Si O2"
_cell_formula_units_Z 80
_cell_length_a 29.205044
_cell_length_b 8.910253
_cell_length_c 15.684687
_cell_angle_alpha 90.000000
_cell_angle_beta 90.000000
_cell_angle_gamma 90.000000
_cell_volume 4081.537180
_symmetry_space_group_name_H-M "C M C M"
_symmetry_group_IT_number 63
_symmetry_cell_setting 'orthorhombic'
loop_
_space_group_symop_operation_xyz
x,y,z
-x,-y,1/2+z
x,-y,-z
-x,y,1/2-z
-x,-y,-z
x,y,1/2-z
-x,y,z
x,-y,1/2+z
1/2+x,1/2+y,z
1/2-x,1/2-y,1/2+z
1/2+x,1/2-y,-z
1/2-x,1/2+y,1/2-z
1/2-x,1/2-y,-z
1/2+x,1/2+y,1/2-z
1/2-x,1/2+y,z
1/2+x,1/2-y,1/2+z
loop_
_atom_site_type_symbol
_atom_site_label
_atom_site_fract_x
_atom_site_fract_y
_atom_site_fract_z
Si Si1 0.447943 0.676023 0.988572
Si Si2 0.377022 0.099391 0.414034
Si Si3 0.307398 0.276226 0.853226
Si Si4 0.592383 0.205324 0.653163
Si Si5 0.781783 0.438043 0.646827
O O1 0.500000 0.690915 0.956589
O O2 0.444039 0.752983 0.081839
O O3 0.437717 0.500000 0.000000
O O4 0.411948 0.765687 0.930134
O O5 0.326061 0.149735 0.388057
O O6 0.373985 0.000000 0.500000
O O7 0.395610 0.972366 0.349132
O O8 0.307798 0.283211 0.750000
O O9 0.360520 0.288901 0.876664
O O10 0.267879 0.386412 0.884135
O O11 0.291078 0.109717 0.876960
O O12 0.581122 0.248172 0.750000
O O13 0.782453 0.426389 0.750000
#
# Coordination Sequence:
#
# PCOD9474813 Si02
#       5
#    16  16  16  16  16
#     4  10  22  39  55  74 104 137 167 210 271 322
#     4   9  18  33  53  75 100 134 171 211 256 304
#     4   8  15  27  45  71 102 133 164 205 251 293
#     4   9  18  35  57  79 103 134 177 218 250 298
#     4   9  16  29  48  71 101 134 168 203 244 296
#
# _framework density 19.600458
#
# number of rings (size 3 to 8) (size 9 to 14) (size 15 to 20)
#    0.000    3.000    0.000    1.800    0.000    5.600 
#    0.000   14.000    0.000    4.200    0.000    0.000 
#    0.000    0.000    0.000    0.000    0.000    0.000 
#
# Total GULP energy -222852.454959 kJ/mol
# GULP energy per Si atom -5571.311374 kJ/mol
# Density = 1.955585 g / cm^3
# Si number density = 19.600458 Si / 1000 Ang^3
#
#
#
# Elastic Constant Matrix: (Units=GPa)
#
#
# Indices 1 2 3 4 5 6 
#
# 1 44.0413 10.5057 -7.9958 0.0000 0.0000 0.0000
# 2 10.5057 18.7443 -3.6656 0.0000 0.0000 0.0000
# 3 -7.9958 -3.6656 28.5397 0.0000 0.0000 0.0000
# 4 0.0000 0.0000 0.0000 11.7820 0.0000 0.0000
# 5 0.0000 0.0000 0.0000 0.0000 27.3718 0.0000
# 6 0.0000 0.0000 0.0000 0.0000 0.0000 30.7721
#
#
#
# Elastic Compliance Matrix: (Units=1/GPa)
#
#
# Indices 1 2 3 4 5 6 
#
# 1 0.027112 -0.014063 0.005789 0.000000 0.000000 0.000000
# 2 -0.014063 0.062019 0.004026 0.000000 0.000000 0.000000
# 3 0.005789 0.004026 0.037178 0.000000 0.000000 0.000000
# 4 0.000000 0.000000 0.000000 0.084875 0.000000 0.000000
# 5 0.000000 0.000000 0.000000 0.000000 0.036534 0.000000
# 6 0.000000 0.000000 0.000000 0.000000 0.000000 0.032497
#
#
# Mechanical properties :
#
#
# Convention : Reuss Voigt Hill
#
# Bulk Modulus (GPa) = 8.48809 9.89044 9.18927
# Shear Modulus (GPa) = 15.24476 20.15058 17.69767
#
# Velocity S-wave (km/s) = 2.79189 3.20983 3.00812
# Velocity P-wave (km/s) = 3.83833 4.33524 4.09433
#
# Compressibility (1/GPa) = 0.11781207
#
# Stress axis : x y z
#
# Youngs Moduli (GPa) = 36.88445 16.12416 26.89768
#
# Poissons Ratio (x) = 0.22676 -0.15572
# Poissons Ratio (y) = 0.51871 -0.10828
# Poissons Ratio (z) = -0.21354 -0.06491
#
# Static dielectric constant tensor:
#      x y z
#    x 1.713630 0.000000 0.000000 
#    y 0.000000 1.691570 0.000000 
#    z 0.000000 0.000000 1.715090 
# 
# From -- ./inp_files/48795.got.cif
#   From: 2010.05.17/outbox.cif.g08.bks.cpg/sg63_25_cif.got.tgz:48795.got - 2010.06.03 15:47:04.
