data_PCOD9474745
_publ_section_title
;
Structure prediction by ZEFSAII (Michael W. Deem and Ramdas Pophale) SiO2 
 PCOD9474745
Probable space group: C M C M
;
_chemical_formula_sum "Si O2"
_cell_formula_units_Z 68
_cell_length_a 14.680533
_cell_length_b 20.066565
_cell_length_c 10.725756
_cell_angle_alpha 90.000000
_cell_angle_beta 90.000000
_cell_angle_gamma 90.000000
_cell_volume 3159.677611
_symmetry_space_group_name_H-M "C M C M"
_symmetry_group_IT_number 63
_symmetry_cell_setting 'orthorhombic'
loop_
_space_group_symop_operation_xyz
x,y,z
-x,-y,1/2+z
x,-y,-z
-x,y,1/2-z
-x,-y,-z
x,y,1/2-z
-x,y,z
x,-y,1/2+z
1/2+x,1/2+y,z
1/2-x,1/2-y,1/2+z
1/2+x,1/2-y,-z
1/2-x,1/2+y,1/2-z
1/2-x,1/2-y,-z
1/2+x,1/2+y,1/2-z
1/2-x,1/2+y,z
1/2+x,1/2-y,1/2+z
loop_
_atom_site_type_symbol
_atom_site_label
_atom_site_fract_x
_atom_site_fract_y
_atom_site_fract_z
Si Si1 0.500000 0.144453 0.250000
Si Si2 0.889575 0.448377 0.109167
Si Si3 0.606440 0.543074 0.111079
Si Si4 0.853308 0.323309 0.539116
Si Si5 0.144509 0.805016 0.892415
O O1 0.420971 0.147525 0.358777
O O2 0.864674 0.469211 0.250000
O O3 0.848281 0.377151 0.071940
O O4 0.000000 0.442643 0.107589
O O5 0.865158 0.500000 0.000000
O O6 0.646921 0.534419 0.250000
O O7 0.500000 0.523845 0.120316
O O8 0.609861 0.621048 0.078962
O O9 0.648460 0.500000 0.000000
O O10 0.887229 0.252986 0.484120
O O11 0.753841 0.310050 0.595245
O O12 0.119259 0.789238 0.750000
#
# Coordination Sequence:
#
# PCOD9474745 Si02
#       5
#     4  16  16  16  16
#     4  12  24  40  64  92 126 176 200 270 318 392
#     4  10  22  37  60  87 119 161 209 260 310 372
#     4   9  19  38  61  89 119 155 199 249 305 369
#     4  11  23  40  61  91 126 160 211 258 320 381
#     4  10  22  41  63  88 124 163 204 264 314 374
#
# _framework density 21.521182
#
# number of rings (size 3 to 8) (size 9 to 14) (size 15 to 20)
#    0.000    1.882    2.353    0.706    3.294    0.941 
#    2.118    2.353    0.000    0.000    0.000    0.000 
#    0.000    0.000    0.000    0.000    0.000    0.000 
#
# Total GULP energy -189450.070052 kJ/mol
# GULP energy per Si atom -5572.060884 kJ/mol
# Density = 2.147220 g / cm^3
# Si number density = 21.521182 Si / 1000 Ang^3
#
#
#
# Elastic Constant Matrix: (Units=GPa)
#
#
# Indices 1 2 3 4 5 6 
#
# 1 55.7756 -14.7962 -4.0347 0.0000 0.0000 0.0000
# 2 -14.7962 83.4566 70.6513 0.0000 0.0000 0.0000
# 3 -4.0347 70.6513 148.8755 0.0000 0.0000 0.0000
# 4 0.0000 0.0000 0.0000 11.5056 0.0000 0.0000
# 5 0.0000 0.0000 0.0000 0.0000 34.1647 0.0000
# 6 0.0000 0.0000 0.0000 0.0000 0.0000 17.2413
#
#
#
# Elastic Compliance Matrix: (Units=1/GPa)
#
#
# Indices 1 2 3 4 5 6 
#
# 1 0.019105 0.004929 -0.001821 0.000000 0.000000 0.000000
# 2 0.004929 0.021301 -0.009975 0.000000 0.000000 0.000000
# 3 -0.001821 -0.009975 0.011401 0.000000 0.000000 0.000000
# 4 0.000000 0.000000 0.000000 0.086914 0.000000 0.000000
# 5 0.000000 0.000000 0.000000 0.000000 0.029270 0.000000
# 6 0.000000 0.000000 0.000000 0.000000 0.000000 0.058000
#
#
# Mechanical properties :
#
#
# Convention : Reuss Voigt Hill
#
# Bulk Modulus (GPa) = 26.26583 43.52761 34.89672
# Shear Modulus (GPa) = 19.80852 28.33480 24.07166
#
# Velocity S-wave (km/s) = 3.03713 3.63244 3.34804
# Velocity P-wave (km/s) = 4.95278 6.15322 5.58535
#
# Compressibility (1/GPa) = 0.03807227
#
# Stress axis : x y z
#
# Youngs Moduli (GPa) = 52.34283 46.94694 87.70805
#
# Poissons Ratio (x) = -0.23141 0.15975
# Poissons Ratio (y) = -0.25800 0.87489
# Poissons Ratio (z) = 0.09534 0.46830
#
# Static dielectric constant tensor:
#      x y z
#    x 1.791200 0.000000 0.000000 
#    y 0.000000 1.767240 0.000000 
#    z 0.000000 0.000000 1.797350 
# 
# From -- ./inp_files/5843.got.cif
#   From: 2010.05.17/outbox.cif.g08.bks.cpg/sg63_3_cif.got.tgz:5843.got - 2010.06.03 15:47:04.
