data_PCOD9474320
_publ_section_title
;
Structure prediction by ZEFSAII (Michael W. Deem and Ramdas Pophale) SiO2 
 PCOD9474320
Probable space group: C M C M
;
_chemical_formula_sum "Si O2"
_cell_formula_units_Z 96
_cell_length_a 15.415581
_cell_length_b 19.003378
_cell_length_c 16.709473
_cell_angle_alpha 90.000000
_cell_angle_beta 90.000000
_cell_angle_gamma 90.000000
_cell_volume 4895.008582
_symmetry_space_group_name_H-M "C M C M"
_symmetry_group_IT_number 63
_symmetry_cell_setting 'orthorhombic'
loop_
_space_group_symop_operation_xyz
x,y,z
-x,-y,1/2+z
x,-y,-z
-x,y,1/2-z
-x,-y,-z
x,y,1/2-z
-x,y,z
x,-y,1/2+z
1/2+x,1/2+y,z
1/2-x,1/2-y,1/2+z
1/2+x,1/2-y,-z
1/2-x,1/2+y,1/2-z
1/2-x,1/2-y,-z
1/2+x,1/2+y,1/2-z
1/2-x,1/2+y,z
1/2+x,1/2-y,1/2+z
loop_
_atom_site_type_symbol
_atom_site_label
_atom_site_fract_x
_atom_site_fract_y
_atom_site_fract_z
Si Si1 0.596693 0.543795 0.847289
Si Si2 0.100689 0.525330 0.908720
Si Si3 0.237954 0.629699 0.843682
Si Si4 0.752386 0.780952 0.588703
Si Si5 0.102200 0.880960 0.845646
Si Si6 0.898812 0.625239 0.156196
O O1 0.593872 0.546205 0.750000
O O2 0.500000 0.561879 0.876435
O O3 0.671743 0.595996 0.873672
O O4 0.616307 0.462811 0.868030
O O5 0.160988 0.591047 0.890120
O O6 0.124929 0.456710 0.856577
O O7 0.000000 0.542335 0.892847
O O8 0.108681 0.500000 0.000000
O O9 0.228181 0.612518 0.750000
O O10 0.240217 0.712786 0.855027
O O11 0.750000 0.750000 0.500000
O O12 0.834031 0.831096 0.605959
O O13 0.666184 0.825422 0.608058
O O14 0.120078 0.874069 0.750000
O O15 0.000000 0.865671 0.857446
O O16 0.892126 0.642398 0.250000
O O17 0.000000 0.632619 0.131446
#
# Coordination Sequence:
#
# PCOD9474320 Si02
#       6
#    16  16  16  16  16  16
#     4   8  16  33  58  85 108 133 172 224 276 324
#     4  10  21  38  60  86 116 148 184 232 290 344
#     4  11  22  35  56  85 114 146 186 233 283 335
#     4  12  25  38  54  80 118 156 189 234 289 339
#     4   9  18  36  61  83 106 143 189 231 275 338
#     4  10  21  39  62  83 107 148 198 238 277 338
#
# _framework density 19.611813999999999
#
# number of rings (size 3 to 8) (size 9 to 14) (size 15 to 20)
#    0.000    2.000    0.000    5.000    0.000    4.333 
#    0.000    1.667    0.000    2.500    0.000    0.000 
#    0.000    0.000    0.000    0.000    0.000    0.000 
#
# Total GULP energy -268197.927699 kJ/mol
# GULP energy per Si atom -5587.456827 kJ/mol
# Density = 1.956718 g / cm^3
# Si number density = 19.611814 Si / 1000 Ang^3
#
#
#
# Elastic Constant Matrix: (Units=GPa)
#
#
# Indices 1 2 3 4 5 6 
#
# 1 64.2415 37.7239 -0.1350 0.0000 0.0000 0.0000
# 2 37.7239 56.8793 -14.6868 0.0000 0.0000 0.0000
# 3 -0.1350 -14.6868 22.2933 0.0000 0.0000 0.0000
# 4 0.0000 0.0000 0.0000 10.8301 0.0000 0.0000
# 5 0.0000 0.0000 0.0000 0.0000 21.4377 0.0000
# 6 0.0000 0.0000 0.0000 0.0000 0.0000 -6.2156
#
#
#
# Elastic Compliance Matrix: (Units=1/GPa)
#
#
# Indices 1 2 3 4 5 6 
#
# 1 0.029210 -0.023289 -0.015166 0.000000 0.000000 0.000000
# 2 -0.023289 0.039753 0.026048 0.000000 0.000000 0.000000
# 3 -0.015166 0.026048 0.061925 0.000000 0.000000 0.000000
# 4 0.000000 0.000000 0.000000 0.092335 0.000000 0.000000
# 5 0.000000 0.000000 0.000000 0.000000 0.046647 0.000000
# 6 0.000000 0.000000 0.000000 0.000000 0.000000 -0.160885
#
#
# Mechanical properties :
#
#
# Convention : Reuss Voigt Hill
#
# Bulk Modulus (GPa) = 9.42729 21.02425 15.22577
# Shear Modulus (GPa) = 29.55849 13.24458 21.40153
#
# Velocity S-wave (km/s) = 3.88645 2.60154 3.30700
# Velocity P-wave (km/s) = 4.99567 4.44607 4.72886
#
# Compressibility (1/GPa) = 0.10607504
#
# Stress axis : x y z
#
# Youngs Moduli (GPa) = 34.23476 25.15545 16.14848
#
# Poissons Ratio (x) = 0.58584 0.24491
# Poissons Ratio (y) = 0.79729 -0.42064
# Poissons Ratio (z) = 0.51920 -0.65525
#
# Static dielectric constant tensor:
#      x y z
#    x 1.679350 0.000000 0.000000 
#    y 0.000000 1.649900 0.000000 
#    z 0.000000 0.000000 1.737270 
# 
# From -- ./inp_files/31952.got.cif
#   From: 2010.05.17/outbox.cif.g08.bks.cpg/sg63_16_cif.got.tgz:31952.got - 2010.06.03 15:47:04.
