data_PCOD9474228
_publ_section_title
;
Structure prediction by ZEFSAII (Michael W. Deem and Ramdas Pophale) SiO2 
 PCOD9474228
Probable space group: C M C M
;
_chemical_formula_sum "Si O2"
_cell_formula_units_Z 88
_cell_length_a 20.309835
_cell_length_b 12.443905
_cell_length_c 18.685229
_cell_angle_alpha 90.000000
_cell_angle_beta 90.000000
_cell_angle_gamma 90.000000
_cell_volume 4722.386263
_symmetry_space_group_name_H-M "C M C M"
_symmetry_group_IT_number 63
_symmetry_cell_setting 'orthorhombic'
loop_
_space_group_symop_operation_xyz
x,y,z
-x,-y,1/2+z
x,-y,-z
-x,y,1/2-z
-x,-y,-z
x,y,1/2-z
-x,y,z
x,-y,1/2+z
1/2+x,1/2+y,z
1/2-x,1/2-y,1/2+z
1/2+x,1/2-y,-z
1/2-x,1/2+y,1/2-z
1/2-x,1/2-y,-z
1/2+x,1/2+y,1/2-z
1/2-x,1/2+y,z
1/2+x,1/2-y,1/2+z
loop_
_atom_site_type_symbol
_atom_site_label
_atom_site_fract_x
_atom_site_fract_y
_atom_site_fract_z
Si Si1 0.252586 0.685948 0.574676
Si Si2 0.000000 0.670323 0.163129
Si Si3 0.377722 0.220185 0.666727
Si Si4 0.077768 0.059027 0.108435
Si Si5 0.000000 0.425931 0.337057
Si Si6 0.319090 0.500000 0.000000
Si Si7 0.880264 0.822366 0.164262
O O1 0.250000 0.750000 0.500000
O O2 0.186110 0.702340 0.618378
O O3 0.271851 0.564574 0.552753
O O4 0.313793 0.714808 0.625646
O O5 0.000000 0.548288 0.137044
O O6 0.936621 0.738860 0.142257
O O7 0.000000 0.666547 0.250000
O O8 0.362239 0.199188 0.750000
O O9 0.406217 0.340904 0.659462
O O10 0.435169 0.139524 0.641993
O O11 0.000000 0.059231 0.089949
O O12 0.097008 0.942481 0.140813
O O13 0.128886 0.074348 0.042684
O O14 0.000000 0.427164 0.250000
O O15 0.872869 0.822041 0.250000
#
# Coordination Sequence:
#
# PCOD9474228 Si02
#       7
#    16   8  16  16   8   8  16
#     4  11  23  41  59  84 120 162 202 244 297 357
#     4   9  18  37  60  87 120 153 192 239 297 360
#     4  11  22  38  63  91 122 156 199 253 308 362
#     4  11  20  36  64  96 123 156 200 255 311 366
#     4   9  20  37  58  87 118 155 196 244 302 360
#     4  10  23  40  60  87 124 168 204 248 298 365
#     4  10  21  37  62  92 121 154 197 252 303 356
#
# _framework density 18.634647000000001
#
# number of rings (size 3 to 8) (size 9 to 14) (size 15 to 20)
#    0.000    1.636    3.636    1.364    0.000    2.182 
#    0.000    0.909    0.000    1.636    0.000    0.000 
#    0.000    0.000    0.000    0.000    0.000    0.000 
#
# Total GULP energy -245400.366140 kJ/mol
# GULP energy per Si atom -5577.281049 kJ/mol
# Density = 1.859223 g / cm^3
# Si number density = 18.634647 Si / 1000 Ang^3
#
#
#
# Elastic Constant Matrix: (Units=GPa)
#
#
# Indices 1 2 3 4 5 6 
#
# 1 186.7001 84.7382 56.4115 0.0000 0.0000 0.0000
# 2 84.7382 116.1880 29.4052 0.0000 0.0000 0.0000
# 3 56.4115 29.4052 61.6677 0.0000 0.0000 0.0000
# 4 0.0000 0.0000 0.0000 27.1638 0.0000 0.0000
# 5 0.0000 0.0000 0.0000 0.0000 11.8993 0.0000
# 6 0.0000 0.0000 0.0000 0.0000 0.0000 22.8015
#
#
#
# Elastic Compliance Matrix: (Units=1/GPa)
#
#
# Indices 1 2 3 4 5 6 
#
# 1 0.009770 -0.005531 -0.006300 0.000000 0.000000 0.000000
# 2 -0.005531 0.012919 -0.001101 0.000000 0.000000 0.000000
# 3 -0.006300 -0.001101 0.022504 0.000000 0.000000 0.000000
# 4 0.000000 0.000000 0.000000 0.036814 0.000000 0.000000
# 5 0.000000 0.000000 0.000000 0.000000 0.084039 0.000000
# 6 0.000000 0.000000 0.000000 0.000000 0.000000 0.043857
#
#
# Mechanical properties :
#
#
# Convention : Reuss Voigt Hill
#
# Bulk Modulus (GPa) = 51.73386 78.40729 65.07057
# Shear Modulus (GPa) = 20.64332 25.30631 22.97482
#
# Velocity S-wave (km/s) = 3.33196 3.68914 3.51509
# Velocity P-wave (km/s) = 6.52879 7.76619 7.17422
#
# Compressibility (1/GPa) = 0.01932970
#
# Stress axis : x y z
#
# Youngs Moduli (GPa) = 102.35228 77.40374 44.43695
#
# Poissons Ratio (x) = 0.42813 0.27995
# Poissons Ratio (y) = 0.56613 0.04891
# Poissons Ratio (z) = 0.64482 0.08519
#
# Static dielectric constant tensor:
#      x y z
#    x 1.621400 0.000000 0.000000 
#    y 0.000000 1.660690 0.000000 
#    z 0.000000 0.000000 1.665050 
# 
# From -- ./inp_files/55459.got.cif
#   From: 2010.05.17/outbox.cif.g08.bks.cpg/sg63_28_cif.got.tgz:55459.got - 2010.06.03 15:47:04.
