data_PCOD9474893
_publ_section_title
;
Structure prediction by ZEFSAII (Michael W. Deem and Ramdas Pophale) SiO2 
 PCOD9474893
Probable space group: C M C M
;
_chemical_formula_sum "Si O2"
_cell_formula_units_Z 56
_cell_length_a 20.336759
_cell_length_b 9.682172
_cell_length_c 14.577547
_cell_angle_alpha 90.000000
_cell_angle_beta 90.000000
_cell_angle_gamma 90.000000
_cell_volume 2870.377294
_symmetry_space_group_name_H-M "C M C M"
_symmetry_group_IT_number 63
_symmetry_cell_setting 'orthorhombic'
loop_
_space_group_symop_operation_xyz
x,y,z
-x,-y,1/2+z
x,-y,-z
-x,y,1/2-z
-x,-y,-z
x,y,1/2-z
-x,y,z
x,-y,1/2+z
1/2+x,1/2+y,z
1/2-x,1/2-y,1/2+z
1/2+x,1/2-y,-z
1/2-x,1/2+y,1/2-z
1/2-x,1/2-y,-z
1/2+x,1/2+y,1/2-z
1/2-x,1/2+y,z
1/2+x,1/2-y,1/2+z
loop_
_atom_site_type_symbol
_atom_site_label
_atom_site_fract_x
_atom_site_fract_y
_atom_site_fract_z
Si Si1 0.759761 0.500000 0.000000
Si Si2 0.134216 0.389738 0.856743
Si Si3 0.368292 0.349164 0.018188
Si Si4 0.575412 0.183222 0.644254
O O1 0.804640 0.562438 0.079991
O O2 0.708059 0.386291 0.036879
O O3 0.151284 0.373408 0.750000
O O4 0.107200 0.248345 0.900310
O O5 0.084663 0.518653 0.865115
O O6 0.399622 0.500000 0.000000
O O7 0.377582 0.260967 0.926065
O O8 0.590181 0.218255 0.750000
O O9 0.500000 0.220079 0.624080
#
# Coordination Sequence:
#
# PCOD9474893 Si02
#       4
#     8  16  16  16
#     4  10  22  40  56  90 124 160 196 248 310 364
#     4  11  22  38  62  88 119 163 208 251 298 360
#     4  10  23  38  60  88 127 157 196 250 312 360
#     4  10  22  41  64  88 117 162 212 252 297 357
#
# _framework density 19.509630999999999
#
# number of rings (size 3 to 8) (size 9 to 14) (size 15 to 20)
#    0.857    0.857    2.857    0.857    0.000    6.286 
#    0.000    0.000    0.000    3.429    0.000    0.000 
#    0.000    0.000    0.000    0.000    0.000    0.000 
#
# Total GULP energy -156022.163746 kJ/mol
# GULP energy per Si atom -5572.220134 kJ/mol
# Density = 1.946523 g / cm^3
# Si number density = 19.509631 Si / 1000 Ang^3
#
#
#
# Elastic Constant Matrix: (Units=GPa)
#
#
# Indices 1 2 3 4 5 6 
#
# 1 21.3587 3.3893 13.6883 0.0000 0.0000 0.0000
# 2 3.3893 124.2594 60.5506 0.0000 0.0000 0.0000
# 3 13.6883 60.5506 106.9642 0.0000 0.0000 0.0000
# 4 0.0000 0.0000 0.0000 16.6564 0.0000 0.0000
# 5 0.0000 0.0000 0.0000 0.0000 14.5819 0.0000
# 6 0.0000 0.0000 0.0000 0.0000 0.0000 4.0007
#
#
#
# Elastic Compliance Matrix: (Units=1/GPa)
#
#
# Indices 1 2 3 4 5 6 
#
# 1 0.051557 0.002498 -0.008012 0.000000 0.000000 0.000000
# 2 0.002498 0.011234 -0.006679 0.000000 0.000000 0.000000
# 3 -0.008012 -0.006679 0.014155 0.000000 0.000000 0.000000
# 4 0.000000 0.000000 0.000000 0.060037 0.000000 0.000000
# 5 0.000000 0.000000 0.000000 0.000000 0.068578 0.000000
# 6 0.000000 0.000000 0.000000 0.000000 0.000000 0.249958
#
#
# Mechanical properties :
#
#
# Convention : Reuss Voigt Hill
#
# Bulk Modulus (GPa) = 19.02569 45.31541 32.17055
# Shear Modulus (GPa) = 10.05173 18.71142 14.38158
#
# Velocity S-wave (km/s) = 2.27231 3.10027 2.71800
# Velocity P-wave (km/s) = 4.08137 6.00776 5.13570
#
# Compressibility (1/GPa) = 0.05256053
#
# Stress axis : x y z
#
# Youngs Moduli (GPa) = 19.39584 89.01359 70.64575
#
# Poissons Ratio (x) = -0.22234 0.56600
# Poissons Ratio (y) = -0.04845 0.47185
# Poissons Ratio (z) = 0.15540 0.59453
#
# Static dielectric constant tensor:
#      x y z
#    x 1.664300 0.000000 0.000000 
#    y 0.000000 1.735470 0.000000 
#    z 0.000000 0.000000 1.653570 
# 
# From -- ./inp_files/34737.got.cif
#   From: 2010.05.17/outbox.cif.g08.bks.cpg/sg63_18_cif.got.tgz:34737.got - 2010.06.03 15:47:04.
