data_PCOD9474971
_publ_section_title
;
Structure prediction by ZEFSAII (Michael W. Deem and Ramdas Pophale) SiO2 
 PCOD9474971
Probable space group: C M C M
;
_chemical_formula_sum "Si O2"
_cell_formula_units_Z 68
_cell_length_a 23.572208
_cell_length_b 16.092075
_cell_length_c 9.001935
_cell_angle_alpha 90.000000
_cell_angle_beta 90.000000
_cell_angle_gamma 90.000000
_cell_volume 3414.665647
_symmetry_space_group_name_H-M "C M C M"
_symmetry_group_IT_number 63
_symmetry_cell_setting 'orthorhombic'
loop_
_space_group_symop_operation_xyz
x,y,z
-x,-y,1/2+z
x,-y,-z
-x,y,1/2-z
-x,-y,-z
x,y,1/2-z
-x,y,z
x,-y,1/2+z
1/2+x,1/2+y,z
1/2-x,1/2-y,1/2+z
1/2+x,1/2-y,-z
1/2-x,1/2+y,1/2-z
1/2-x,1/2-y,-z
1/2+x,1/2+y,1/2-z
1/2-x,1/2+y,z
1/2+x,1/2-y,1/2+z
loop_
_atom_site_type_symbol
_atom_site_label
_atom_site_fract_x
_atom_site_fract_y
_atom_site_fract_z
Si Si1 0.343118 0.337283 0.421909
Si Si2 0.589673 0.500000 0.000000
Si Si3 0.891655 0.320887 0.072853
Si Si4 0.000000 0.047744 0.250000
Si Si5 0.772974 0.589934 0.928079
Si Si6 0.500000 0.091731 0.071602
O O1 0.343083 0.309070 0.250000
O O2 0.371941 0.427468 0.431186
O O3 0.377840 0.271895 0.519064
O O4 0.278505 0.350122 0.475822
O O5 0.549432 0.541714 0.121584
O O6 0.901965 0.323458 0.250000
O O7 0.834607 0.372825 0.038537
O O8 0.944703 0.359648 0.986889
O O9 0.768066 0.581999 0.750000
O O10 0.766618 0.500000 0.000000
O O11 0.500000 0.086271 0.250000
O O12 0.500000 0.000000 0.000000
#
# Coordination Sequence:
#
# PCOD9474971 Si02
#       6
#    16   8  16   4  16   8
#     4  11  23  41  65  95 135 170 218 267 330 386
#     4  11  22  42  62  92 126 175 218 264 320 383
#     4  11  25  43  66  99 131 171 220 273 331 389
#     4  10  24  38  60  86 122 164 218 256 300 378
#     4  10  22  40  66  97 130 170 217 270 329 392
#     4  12  26  48  74  97 133 172 218 270 326 395
#
# _framework density 19.914103000000001
#
# number of rings (size 3 to 8) (size 9 to 14) (size 15 to 20)
#    0.000    1.176    2.353    3.176    1.647    6.588 
#    2.118    0.000    0.000    0.000    0.000    0.000 
#    0.000    0.000    0.000    0.000    0.000    0.000 
#
# Total GULP energy -189543.964301 kJ/mol
# GULP energy per Si atom -5574.822479 kJ/mol
# Density = 1.986878 g / cm^3
# Si number density = 19.914103 Si / 1000 Ang^3
#
#
#
# Elastic Constant Matrix: (Units=GPa)
#
#
# Indices 1 2 3 4 5 6 
#
# 1 162.7999 57.3607 57.5402 0.0000 0.0000 0.0000
# 2 57.3607 112.0118 30.1288 0.0000 0.0000 0.0000
# 3 57.5402 30.1288 92.7163 0.0000 0.0000 0.0000
# 4 0.0000 0.0000 0.0000 25.7300 0.0000 0.0000
# 5 0.0000 0.0000 0.0000 0.0000 6.3058 0.0000
# 6 0.0000 0.0000 0.0000 0.0000 0.0000 74.8568
#
#
#
# Elastic Compliance Matrix: (Units=1/GPa)
#
#
# Indices 1 2 3 4 5 6 
#
# 1 0.008891 -0.003363 -0.004425 0.000000 0.000000 0.000000
# 2 -0.003363 0.011055 -0.001505 0.000000 0.000000 0.000000
# 3 -0.004425 -0.001505 0.014021 0.000000 0.000000 0.000000
# 4 0.000000 0.000000 0.000000 0.038865 0.000000 0.000000
# 5 0.000000 0.000000 0.000000 0.000000 0.158584 0.000000
# 6 0.000000 0.000000 0.000000 0.000000 0.000000 0.013359
#
#
# Mechanical properties :
#
#
# Convention : Reuss Voigt Hill
#
# Bulk Modulus (GPa) = 65.01829 73.06527 69.04178
# Shear Modulus (GPa) = 18.62271 36.21175 27.41723
#
# Velocity S-wave (km/s) = 3.06134 4.26889 3.71452
# Velocity P-wave (km/s) = 6.72429 7.81459 7.28985
#
# Compressibility (1/GPa) = 0.01538029
#
# Stress axis : x y z
#
# Youngs Moduli (GPa) = 112.46704 90.45953 71.32124
#
# Poissons Ratio (x) = 0.30421 0.31562
# Poissons Ratio (y) = 0.37822 0.10735
# Poissons Ratio (z) = 0.49770 0.13616
#
# Static dielectric constant tensor:
#      x y z
#    x 1.695730 0.000000 0.000000 
#    y 0.000000 1.678940 0.000000 
#    z 0.000000 0.000000 1.680680 
# 
# From -- ./inp_files/7669.got.cif
#   From: 2010.05.17/outbox.cif.g08.bks.cpg/sg63_4_cif.got.tgz:7669.got - 2010.06.03 15:47:04.
