data_PCOD9474382
_publ_section_title
;
Structure prediction by ZEFSAII (Michael W. Deem and Ramdas Pophale) SiO2 
 PCOD9474382
Probable space group: C M C M
;
_chemical_formula_sum "Si O2"
_cell_formula_units_Z 96
_cell_length_a 19.609649
_cell_length_b 14.686682
_cell_length_c 19.045795
_cell_angle_alpha 90.000000
_cell_angle_beta 90.000000
_cell_angle_gamma 90.000000
_cell_volume 5485.201892
_symmetry_space_group_name_H-M "C M C M"
_symmetry_group_IT_number 63
_symmetry_cell_setting 'orthorhombic'
loop_
_space_group_symop_operation_xyz
x,y,z
-x,-y,1/2+z
x,-y,-z
-x,y,1/2-z
-x,-y,-z
x,y,1/2-z
-x,y,z
x,-y,1/2+z
1/2+x,1/2+y,z
1/2-x,1/2-y,1/2+z
1/2+x,1/2-y,-z
1/2-x,1/2+y,1/2-z
1/2-x,1/2-y,-z
1/2+x,1/2+y,1/2-z
1/2-x,1/2+y,z
1/2+x,1/2-y,1/2+z
loop_
_atom_site_type_symbol
_atom_site_label
_atom_site_fract_x
_atom_site_fract_y
_atom_site_fract_z
Si Si1 0.079584 0.460646 0.921360
Si Si2 0.690448 0.727580 0.092254
Si Si3 0.314298 0.923156 0.165724
Si Si4 0.648985 0.233639 0.061595
Si Si5 0.678876 0.537161 0.332683
Si Si6 0.581228 0.373988 0.168599
O O1 0.124008 0.520897 0.868491
O O2 0.108939 0.359143 0.924131
O O3 0.000000 0.460934 0.902369
O O4 0.086803 0.500000 0.000000
O O5 0.683313 0.820077 0.137120
O O6 0.771090 0.719694 0.076708
O O7 0.671853 0.633360 0.129562
O O8 0.648122 0.738844 0.020252
O O9 0.317180 0.922593 0.250000
O O10 0.244381 0.976181 0.144166
O O11 0.617895 0.308379 0.113531
O O12 0.688763 0.554591 0.250000
O O13 0.612854 0.473904 0.341713
O O14 0.597062 0.347639 0.250000
O O15 0.500000 0.372141 0.159868
#
# Coordination Sequence:
#
# PCOD9474382 Si02
#       6
#    16  16  16  16  16  16
#     4  11  23  41  61  84 122 162 199 247 306 364
#     4  11  22  37  61  93 122 156 199 251 302 359
#     4  11  22  39  63  88 120 158 204 254 300 359
#     4  11  22  37  62  91 121 158 200 249 302 361
#     4  10  21  38  62  89 122 160 199 249 302 355
#     4  10  22  41  62  88 123 160 202 253 305 358
#
# _framework density 17.501633999999999
#
# number of rings (size 3 to 8) (size 9 to 14) (size 15 to 20)
#    0.000    1.333    5.000    1.000    0.000    2.333 
#    0.000    3.333    0.000    2.000    0.000    0.000 
#    0.000    0.000    0.000    0.000    0.000    0.000 
#
# Total GULP energy -267987.771358 kJ/mol
# GULP energy per Si atom -5583.078570 kJ/mol
# Density = 1.746180 g / cm^3
# Si number density = 17.501634 Si / 1000 Ang^3
#
#
#
# Elastic Constant Matrix: (Units=GPa)
#
#
# Indices 1 2 3 4 5 6 
#
# 1 39.8043 12.2806 18.6293 0.0000 0.0000 0.0000
# 2 12.2806 132.2487 56.4747 0.0000 0.0000 0.0000
# 3 18.6293 56.4747 71.6309 0.0000 0.0000 0.0000
# 4 0.0000 0.0000 0.0000 28.6121 0.0000 0.0000
# 5 0.0000 0.0000 0.0000 0.0000 23.5915 0.0000
# 6 0.0000 0.0000 0.0000 0.0000 0.0000 281.5598
#
#
#
# Elastic Compliance Matrix: (Units=1/GPa)
#
#
# Indices 1 2 3 4 5 6 
#
# 1 0.028659 0.000786 -0.008073 0.000000 0.000000 0.000000
# 2 0.000786 0.011421 -0.009209 0.000000 0.000000 0.000000
# 3 -0.008073 -0.009209 0.023321 0.000000 0.000000 0.000000
# 4 0.000000 0.000000 0.000000 0.034950 0.000000 0.000000
# 5 0.000000 0.000000 0.000000 0.000000 0.042388 0.000000
# 6 0.000000 0.000000 0.000000 0.000000 0.000000 0.003552
#
#
# Mechanical properties :
#
#
# Convention : Reuss Voigt Hill
#
# Bulk Modulus (GPa) = 32.88561 46.49476 39.69019
# Shear Modulus (GPa) = 26.67824 77.17263 51.92543
#
# Velocity S-wave (km/s) = 3.90850 6.64758 5.45283
# Velocity P-wave (km/s) = 6.26094 9.24900 7.89757
#
# Compressibility (1/GPa) = 0.03040844
#
# Stress axis : x y z
#
# Youngs Moduli (GPa) = 34.89331 87.55763 42.88051
#
# Poissons Ratio (x) = -0.06885 0.34619
# Poissons Ratio (y) = -0.02744 0.39489
# Poissons Ratio (z) = 0.28171 0.80632
#
# Static dielectric constant tensor:
#      x y z
#    x 1.579140 0.000000 0.000000 
#    y 0.000000 1.568650 0.000000 
#    z 0.000000 0.000000 1.598580 
# 
# From -- ./inp_files/56548.got.cif
#   From: 2010.05.17/outbox.cif.g08.bks.cpg/sg63_29_cif.got.tgz:56548.got - 2010.06.03 15:47:04.
