data_PCOD9474288
_publ_section_title
;
Structure prediction by ZEFSAII (Michael W. Deem and Ramdas Pophale) SiO2 
 PCOD9474288
Probable space group: C M C M
;
_chemical_formula_sum "Si O2"
_cell_formula_units_Z 96
_cell_length_a 14.839369
_cell_length_b 12.279009
_cell_length_c 26.178531
_cell_angle_alpha 90.000000
_cell_angle_beta 90.000000
_cell_angle_gamma 90.000000
_cell_volume 4770.062007
_symmetry_space_group_name_H-M "C M C M"
_symmetry_group_IT_number 63
_symmetry_cell_setting 'orthorhombic'
loop_
_space_group_symop_operation_xyz
x,y,z
-x,-y,1/2+z
x,-y,-z
-x,y,1/2-z
-x,-y,-z
x,y,1/2-z
-x,y,z
x,-y,1/2+z
1/2+x,1/2+y,z
1/2-x,1/2-y,1/2+z
1/2+x,1/2-y,-z
1/2-x,1/2+y,1/2-z
1/2-x,1/2-y,-z
1/2+x,1/2+y,1/2-z
1/2-x,1/2+y,z
1/2+x,1/2-y,1/2+z
loop_
_atom_site_type_symbol
_atom_site_label
_atom_site_fract_x
_atom_site_fract_y
_atom_site_fract_z
Si Si1 0.394102 0.908122 0.750000
Si Si2 0.605179 0.847604 0.140566
Si Si3 0.394873 0.736815 0.459061
Si Si4 0.804772 0.982995 0.942460
Si Si5 0.658576 0.094814 0.361743
Si Si6 0.894640 0.211036 0.931345
Si Si7 0.604045 0.828921 0.250000
O O1 0.500000 0.869993 0.750000
O O2 0.340499 0.878410 0.801482
O O3 0.400270 0.039629 0.750000
O O4 0.500000 0.815390 0.142580
O O5 0.647173 0.797839 0.089366
O O6 0.645874 0.805089 0.194331
O O7 0.607708 0.978164 0.136757
O O8 0.500000 0.767075 0.459568
O O9 0.381414 0.608002 0.451933
O O10 0.358773 0.762587 0.515291
O O11 0.743917 0.933266 0.897437
O O12 0.843506 0.097959 0.923779
O O13 0.763593 0.000000 0.000000
O O14 0.613907 0.198179 0.388510
O O15 0.000000 0.184795 0.938609
O O16 0.500000 0.788599 0.250000
#
# Coordination Sequence:
#
# PCOD9474288 Si02
#       7
#     8  16  16  16  16  16   8
#     4   9  18  38  59  80 113 151 187 227 289 353
#     4   9  17  30  52  79 107 139 184 236 286 336
#     4   9  19  35  56  80 113 155 194 229 278 346
#     4  10  23  37  56  80 121 158 188 230 289 344
#     4  11  22  34  60  86 113 143 189 242 291 335
#     4  10  21  38  59  83 114 156 198 230 277 347
#     4   7  12  26  47  72 100 137 177 219 274 333
#
# _framework density 20.125523999999999
#
# number of rings (size 3 to 8) (size 9 to 14) (size 15 to 20)
#    0.000    2.500    0.000    3.000    4.667    3.333 
#    0.000    4.167    0.000    0.000    0.000    4.667 
#    0.000    0.000    0.000    0.000    0.000    0.000 
#
# Total GULP energy -267240.422273 kJ/mol
# GULP energy per Si atom -5567.508797 kJ/mol
# Density = 2.007972 g / cm^3
# Si number density = 20.125524 Si / 1000 Ang^3
#
#
#
# Elastic Constant Matrix: (Units=GPa)
#
#
# Indices 1 2 3 4 5 6 
#
# 1 41.5350 1.2582 21.3996 0.0000 0.0000 0.0000
# 2 1.2582 68.8435 48.7293 0.0000 0.0000 0.0000
# 3 21.3996 48.7293 177.6936 0.0000 0.0000 0.0000
# 4 0.0000 0.0000 0.0000 -7.4881 0.0000 0.0000
# 5 0.0000 0.0000 0.0000 0.0000 13.2088 0.0000
# 6 0.0000 0.0000 0.0000 0.0000 0.0000 14.1792
#
#
#
# Elastic Compliance Matrix: (Units=1/GPa)
#
#
# Indices 1 2 3 4 5 6 
#
# 1 0.025924 0.002154 -0.003713 0.000000 0.000000 0.000000
# 2 0.002154 0.018203 -0.005251 0.000000 0.000000 0.000000
# 3 -0.003713 -0.005251 0.007515 0.000000 0.000000 0.000000
# 4 0.000000 0.000000 0.000000 -0.133546 0.000000 0.000000
# 5 0.000000 0.000000 0.000000 0.000000 0.075707 0.000000
# 6 0.000000 0.000000 0.000000 0.000000 0.000000 0.070526
#
#
# Mechanical properties :
#
#
# Convention : Reuss Voigt Hill
#
# Bulk Modulus (GPa) = 26.30053 47.87183 37.08618
# Shear Modulus (GPa) = 55.17350 18.42565 36.79958
#
# Velocity S-wave (km/s) = 5.24158 3.02907 4.28074
# Velocity P-wave (km/s) = 7.05187 6.00599 6.54984
#
# Compressibility (1/GPa) = 0.03802204
#
# Stress axis : x y z
#
# Youngs Moduli (GPa) = 38.57481 54.93484 133.06929
#
# Poissons Ratio (x) = -0.11834 0.49405
# Poissons Ratio (y) = -0.08310 0.69880
# Poissons Ratio (z) = 0.14322 0.28848
#
# Static dielectric constant tensor:
#      x y z
#    x 1.744100 0.000000 0.000000 
#    y 0.000000 1.674960 0.000000 
#    z 0.000000 0.000000 1.804740 
# 
# From -- ./inp_files/63754.got.cif
#   From: 2010.05.17/outbox.cif.g08.bks.cpg/sg63_32_cif.got.tgz:63754.got - 2010.06.03 15:47:04.
