data_PCOD9474471
_publ_section_title
;
Structure prediction by ZEFSAII (Michael W. Deem and Ramdas Pophale) SiO2 
 PCOD9474471
Probable space group: C M C M
;
_chemical_formula_sum "Si O2"
_cell_formula_units_Z 96
_cell_length_a 23.785055
_cell_length_b 11.400886
_cell_length_c 18.226860
_cell_angle_alpha 90.000000
_cell_angle_beta 90.000000
_cell_angle_gamma 90.000000
_cell_volume 4942.590395
_symmetry_space_group_name_H-M "C M C M"
_symmetry_group_IT_number 63
_symmetry_cell_setting 'orthorhombic'
loop_
_space_group_symop_operation_xyz
x,y,z
-x,-y,1/2+z
x,-y,-z
-x,y,1/2-z
-x,-y,-z
x,y,1/2-z
-x,y,z
x,-y,1/2+z
1/2+x,1/2+y,z
1/2-x,1/2-y,1/2+z
1/2+x,1/2-y,-z
1/2-x,1/2+y,1/2-z
1/2-x,1/2-y,-z
1/2+x,1/2+y,1/2-z
1/2-x,1/2+y,z
1/2+x,1/2-y,1/2+z
loop_
_atom_site_type_symbol
_atom_site_label
_atom_site_fract_x
_atom_site_fract_y
_atom_site_fract_z
Si Si1 0.377362 0.645481 0.046511
Si Si2 0.248864 0.366257 0.912451
Si Si3 0.370349 0.871359 0.977526
Si Si4 0.564122 0.200531 0.168422
Si Si5 0.394631 0.431061 0.120715
Si Si6 0.234300 0.887867 0.335794
O O1 0.310390 0.623475 0.052022
O O2 0.404080 0.569919 0.112032
O O3 0.388663 0.782590 0.041473
O O4 0.395138 0.605933 0.965002
O O5 0.196937 0.359237 0.968142
O O6 0.248690 0.241133 0.869115
O O7 0.240336 0.490756 0.869529
O O8 0.397064 0.841960 0.898252
O O9 0.385945 0.000000 0.000000
O O10 0.584268 0.167321 0.250000
O O11 0.500000 0.160413 0.158982
O O12 0.565399 0.342396 0.162359
O O13 0.332656 0.405487 0.152066
O O14 0.247473 0.884704 0.250000
#
# Coordination Sequence:
#
# PCOD9474471 Si02
#       6
#    16  16  16  16  16  16
#     4   9  18  32  50  80 108 140 177 221 279 330
#     4  11  21  32  53  76 111 154 188 227 273 340
#     4  11  22  34  56  83 113 148 191 232 277 328
#     4  10  21  39  61  81 105 145 191 236 289 339
#     4   9  18  32  55  76 105 133 180 232 277 330
#     4  11  21  32  47  74 110 149 187 229 277 332
#
# _framework density 19.423013999999998
#
# number of rings (size 3 to 8) (size 9 to 14) (size 15 to 20)
#    0.000    1.833    3.333    2.500    4.667    1.000 
#    0.000    6.667    0.000    2.000    0.000    2.333 
#    0.000    0.000    0.000    0.000    0.000    0.000 
#
# Total GULP energy -267346.858787 kJ/mol
# GULP energy per Si atom -5569.726225 kJ/mol
# Density = 1.937881 g / cm^3
# Si number density = 19.423014 Si / 1000 Ang^3
#
#
#
# Elastic Constant Matrix: (Units=GPa)
#
#
# Indices 1 2 3 4 5 6 
#
# 1 15.7535 -1.3984 -0.7171 0.0000 0.0000 0.0000
# 2 -1.3984 153.6711 34.7288 0.0000 0.0000 0.0000
# 3 -0.7171 34.7288 53.2289 0.0000 0.0000 0.0000
# 4 0.0000 0.0000 0.0000 19.2501 0.0000 0.0000
# 5 0.0000 0.0000 0.0000 0.0000 13.6371 0.0000
# 6 0.0000 0.0000 0.0000 0.0000 0.0000 -0.4416
#
#
#
# Elastic Compliance Matrix: (Units=1/GPa)
#
#
# Indices 1 2 3 4 5 6 
#
# 1 0.063544 0.000451 0.000562 0.000000 0.000000 0.000000
# 2 0.000451 0.007636 -0.004976 0.000000 0.000000 0.000000
# 3 0.000562 -0.004976 0.022041 0.000000 0.000000 0.000000
# 4 0.000000 0.000000 0.000000 0.051948 0.000000 0.000000
# 5 0.000000 0.000000 0.000000 0.000000 0.073329 0.000000
# 6 0.000000 0.000000 0.000000 0.000000 0.000000 -2.264690
#
#
# Mechanical properties :
#
#
# Convention : Reuss Voigt Hill
#
# Bulk Modulus (GPa) = 11.72408 31.98668 21.85538
# Shear Modulus (GPa) = -2.48777 19.15848 8.33536
#
# Velocity S-wave (km/s) = -1.13297 3.14408 2.07384
# Velocity P-wave (km/s) = 2.08274 5.44835 4.12446
#
# Compressibility (1/GPa) = 0.08529451
#
# Stress axis : x y z
#
# Youngs Moduli (GPa) = 15.73721 130.95762 45.37021
#
# Poissons Ratio (x) = -0.05910 -0.02548
# Poissons Ratio (y) = -0.00710 0.22576
# Poissons Ratio (z) = -0.00884 0.65165
#
# Static dielectric constant tensor:
#      x y z
#    x 1.672920 0.000000 0.000000 
#    y 0.000000 1.807010 0.000000 
#    z 0.000000 0.000000 1.673070 
# 
# From -- ./inp_files/57509.got.cif
#   From: 2010.05.17/outbox.cif.g08.bks.cpg/sg63_29_cif.got.tgz:57509.got - 2010.06.03 15:47:04.
