data_PCOD9474204
_publ_section_title
;
Structure prediction by ZEFSAII (Michael W. Deem and Ramdas Pophale) SiO2 
 PCOD9474204
Probable space group: C M C M
;
_chemical_formula_sum "Si O2"
_cell_formula_units_Z 100
_cell_length_a 21.386840
_cell_length_b 27.106012
_cell_length_c 8.894199
_cell_angle_alpha 90.000000
_cell_angle_beta 90.000000
_cell_angle_gamma 90.000000
_cell_volume 5156.073372
_symmetry_space_group_name_H-M "C M C M"
_symmetry_group_IT_number 63
_symmetry_cell_setting 'orthorhombic'
loop_
_space_group_symop_operation_xyz
x,y,z
-x,-y,1/2+z
x,-y,-z
-x,y,1/2-z
-x,-y,-z
x,y,1/2-z
-x,y,z
x,-y,1/2+z
1/2+x,1/2+y,z
1/2-x,1/2-y,1/2+z
1/2+x,1/2-y,-z
1/2-x,1/2+y,1/2-z
1/2-x,1/2-y,-z
1/2+x,1/2+y,1/2-z
1/2-x,1/2+y,z
1/2+x,1/2-y,1/2+z
loop_
_atom_site_type_symbol
_atom_site_label
_atom_site_fract_x
_atom_site_fract_y
_atom_site_fract_z
Si Si1 0.681301 0.260290 0.932002
Si Si2 0.899562 0.586530 0.929674
Si Si3 0.268462 0.946750 0.569230
Si Si4 0.344336 0.627109 0.070903
Si Si5 0.925044 0.950154 0.419244
Si Si6 0.000000 0.500000 0.500000
Si Si7 0.071420 0.307339 0.569176
O O1 0.683786 0.256101 0.750000
O O2 0.664270 0.316522 0.974685
O O3 0.750000 0.250000 0.000000
O O4 0.626885 0.224939 0.996241
O O5 0.896223 0.592939 0.750000
O O6 0.832788 0.571988 0.997790
O O7 0.921804 0.637179 0.006446
O O8 0.946165 0.541922 0.966096
O O9 0.274311 0.950715 0.750000
O O10 0.215596 0.906486 0.533441
O O11 0.253263 0.000000 0.500000
O O12 0.351225 0.626387 0.250000
O O13 0.402178 0.598911 0.999120
O O14 0.901161 0.950796 0.250000
O O15 0.000000 0.951456 0.417829
O O16 0.903008 0.000000 0.500000
O O17 0.078696 0.307582 0.750000
O O18 0.000000 0.290092 0.535000
#
# Coordination Sequence:
#
# PCOD9474204 Si02
#       7
#    16  16  16  16  16   4  16
#     4  11  24  44  69  95 126 166 214 266 324 384
#     4  12  25  42  66  94 128 169 213 258 312 373
#     4  11  23  39  60  89 127 165 208 256 309 371
#     4  10  23  41  62  90 122 160 204 256 310 367
#     4  10  21  37  60  91 126 164 203 248 304 369
#     4  12  26  40  64  98 134 164 212 256 308 372
#     4  11  25  44  67  94 129 169 213 267 324 379
#
# _framework density 19.394604999999999
#
# number of rings (size 3 to 8) (size 9 to 14) (size 15 to 20)
#    0.000    1.120    1.600    4.080    0.000    9.600 
#    0.000    3.200    0.000    0.000    0.000    0.000 
#    0.000    0.000    0.000    0.000    0.000    0.000 
#
# Total GULP energy -279001.579476 kJ/mol
# GULP energy per Si atom -5580.031590 kJ/mol
# Density = 1.935046 g / cm^3
# Si number density = 19.394605 Si / 1000 Ang^3
#
#
#
# Elastic Constant Matrix: (Units=GPa)
#
#
# Indices 1 2 3 4 5 6 
#
# 1 94.3551 54.7979 54.9987 0.0000 0.0000 0.0000
# 2 54.7979 144.4233 59.9275 0.0000 0.0000 0.0000
# 3 54.9987 59.9275 50.2598 0.0000 0.0000 0.0000
# 4 0.0000 0.0000 0.0000 32.5534 0.0000 0.0000
# 5 0.0000 0.0000 0.0000 0.0000 -15.1516 0.0000
# 6 0.0000 0.0000 0.0000 0.0000 0.0000 46.9401
#
#
#
# Elastic Compliance Matrix: (Units=1/GPa)
#
#
# Indices 1 2 3 4 5 6 
#
# 1 0.030696 0.004535 -0.038997 0.000000 0.000000 0.000000
# 2 0.004535 0.014374 -0.022102 0.000000 0.000000 0.000000
# 3 -0.038997 -0.022102 0.088924 0.000000 0.000000 0.000000
# 4 0.000000 0.000000 0.000000 0.030719 0.000000 0.000000
# 5 0.000000 0.000000 0.000000 0.000000 -0.066000 0.000000
# 6 0.000000 0.000000 0.000000 0.000000 0.000000 0.021304
#
#
# Mechanical properties :
#
#
# Convention : Reuss Voigt Hill
#
# Bulk Modulus (GPa) = 47.92521 69.83182 58.87851
# Shear Modulus (GPa) = 20.82471 20.82265 20.82368
#
# Velocity S-wave (km/s) = 3.28035 3.28019 3.28027
# Velocity P-wave (km/s) = 6.25394 7.10142 6.69111
#
# Compressibility (1/GPa) = 0.02086585
#
# Stress axis : x y z
#
# Youngs Moduli (GPa) = 32.57805 69.56774 11.24561
#
# Poissons Ratio (x) = -0.31548 0.43854
# Poissons Ratio (y) = -0.14774 0.24855
# Poissons Ratio (z) = 1.27044 1.53758
#
# Static dielectric constant tensor:
#      x y z
#    x 1.684120 0.000000 0.000000 
#    y 0.000000 1.631590 0.000000 
#    z 0.000000 0.000000 1.663270 
# 
# From -- ./inp_files/8767.got.cif
#   From: 2010.05.17/outbox.cif.g08.bks.cpg/sg63_5_cif.got.tgz:8767.got - 2010.06.03 15:47:04.
