data_PCOD9474962
_publ_section_title
;
Structure prediction by ZEFSAII (Michael W. Deem and Ramdas Pophale) SiO2 
 PCOD9474962
Probable space group: C M C M
;
_chemical_formula_sum "Si O2"
_cell_formula_units_Z 48
_cell_length_a 7.516465
_cell_length_b 22.707951
_cell_length_c 15.095676
_cell_angle_alpha 90.000000
_cell_angle_beta 90.000000
_cell_angle_gamma 90.000000
_cell_volume 2576.583100
_symmetry_space_group_name_H-M "C M C M"
_symmetry_group_IT_number 63
_symmetry_cell_setting 'orthorhombic'
loop_
_space_group_symop_operation_xyz
x,y,z
-x,-y,1/2+z
x,-y,-z
-x,y,1/2-z
-x,-y,-z
x,y,1/2-z
-x,y,z
x,-y,1/2+z
1/2+x,1/2+y,z
1/2-x,1/2-y,1/2+z
1/2+x,1/2-y,-z
1/2-x,1/2+y,1/2-z
1/2-x,1/2-y,-z
1/2+x,1/2+y,1/2-z
1/2-x,1/2+y,z
1/2+x,1/2-y,1/2+z
loop_
_atom_site_type_symbol
_atom_site_label
_atom_site_fract_x
_atom_site_fract_y
_atom_site_fract_z
Si Si1 0.000000 0.996797 0.393835
Si Si2 0.789894 0.401790 0.349684
Si Si3 0.209677 0.318478 0.984538
Si Si4 0.500000 0.366736 0.851826
O O1 0.829042 0.959414 0.363716
O O2 0.000000 0.000000 0.500000
O O3 0.000000 0.062532 0.357208
O O4 0.757300 0.378851 0.250000
O O5 0.745185 0.355202 0.426404
O O6 0.000000 0.415244 0.356993
O O7 0.329678 0.342762 0.905198
O O8 0.000000 0.326168 0.967355
O O9 0.250000 0.250000 0.000000
O O10 0.500000 0.347604 0.750000
#
# Coordination Sequence:
#
# PCOD9474962 Si02
#       4
#     8  16  16   8
#     4  12  22  41  69  92 127 173 212 261 324 382
#     4  10  22  40  65  96 125 163 213 265 320 384
#     4  11  23  42  66  92 131 171 214 263 319 380
#     4  12  26  43  64  97 134 169 214 268 318 378
#
# _framework density 18.629324
#
# number of rings (size 3 to 8) (size 9 to 14) (size 15 to 20)
#    0.000    1.000    5.000    1.500    0.000    4.000 
#    0.000    0.000    0.000    0.000    0.000    0.000 
#    0.000    0.000    0.000    0.000    0.000    0.000 
#
# Total GULP energy -134155.326945 kJ/mol
# GULP energy per Si atom -5589.805289 kJ/mol
# Density = 1.858692 g / cm^3
# Si number density = 18.629324 Si / 1000 Ang^3
#
#
#
# Elastic Constant Matrix: (Units=GPa)
#
#
# Indices 1 2 3 4 5 6 
#
# 1 105.3100 61.0299 81.0922 0.0000 0.0000 0.0000
# 2 61.0299 147.2601 65.1419 0.0000 0.0000 0.0000
# 3 81.0922 65.1419 193.2255 0.0000 0.0000 0.0000
# 4 0.0000 0.0000 0.0000 -0.5797 0.0000 0.0000
# 5 0.0000 0.0000 0.0000 0.0000 34.9736 0.0000
# 6 0.0000 0.0000 0.0000 0.0000 0.0000 30.7513
#
#
#
# Elastic Compliance Matrix: (Units=1/GPa)
#
#
# Indices 1 2 3 4 5 6 
#
# 1 0.016072 -0.004322 -0.005288 0.000000 0.000000 0.000000
# 2 -0.004322 0.009143 -0.001269 0.000000 0.000000 0.000000
# 3 -0.005288 -0.001269 0.007822 0.000000 0.000000 0.000000
# 4 0.000000 0.000000 0.000000 -1.725077 0.000000 0.000000
# 5 0.000000 0.000000 0.000000 0.000000 0.028593 0.000000
# 6 0.000000 0.000000 0.000000 0.000000 0.000000 0.032519
#
#
# Mechanical properties :
#
#
# Convention : Reuss Voigt Hill
#
# Bulk Modulus (GPa) = 88.64798 95.59151 92.11974
# Shear Modulus (GPa) = -3.11447 28.93114 12.90834
#
# Velocity S-wave (km/s) = -1.29439 3.94507 2.63516
# Velocity P-wave (km/s) = 6.74200 8.49560 7.66909
#
# Compressibility (1/GPa) = 0.01128057
#
# Stress axis : x y z
#
# Youngs Moduli (GPa) = 62.21830 109.37364 127.83868
#
# Poissons Ratio (x) = 0.47268 0.67604
# Poissons Ratio (y) = 0.26889 0.16218
# Poissons Ratio (z) = 0.32903 0.13876
#
# Static dielectric constant tensor:
#      x y z
#    x 1.637680 0.000000 0.000000 
#    y 0.000000 1.604450 0.000000 
#    z 0.000000 0.000000 1.643640 
# 
# From -- ./inp_files/26981.got.cif
#   From: 2010.05.17/outbox.cif.g08.bks.cpg/sg63_14_cif.got.tgz:26981.got - 2010.06.03 15:47:04.
