data_PCOD9474622
_publ_section_title
;
Structure prediction by ZEFSAII (Michael W. Deem and Ramdas Pophale) SiO2 
 PCOD9474622
Probable space group: C M C M
;
_chemical_formula_sum "Si O2"
_cell_formula_units_Z 88
_cell_length_a 10.389032
_cell_length_b 25.114418
_cell_length_c 14.844956
_cell_angle_alpha 90.000000
_cell_angle_beta 90.000000
_cell_angle_gamma 90.000000
_cell_volume 3873.264157
_symmetry_space_group_name_H-M "C M C M"
_symmetry_group_IT_number 63
_symmetry_cell_setting 'orthorhombic'
loop_
_space_group_symop_operation_xyz
x,y,z
-x,-y,1/2+z
x,-y,-z
-x,y,1/2-z
-x,-y,-z
x,y,1/2-z
-x,y,z
x,-y,1/2+z
1/2+x,1/2+y,z
1/2-x,1/2-y,1/2+z
1/2+x,1/2-y,-z
1/2-x,1/2+y,1/2-z
1/2-x,1/2-y,-z
1/2+x,1/2+y,1/2-z
1/2-x,1/2+y,z
1/2+x,1/2-y,1/2+z
loop_
_atom_site_type_symbol
_atom_site_label
_atom_site_fract_x
_atom_site_fract_y
_atom_site_fract_z
Si Si1 0.232523 0.304063 0.443242
Si Si2 0.152900 0.808536 0.750000
Si Si3 0.341631 0.075870 0.750000
Si Si4 0.347379 0.992854 0.602440
Si Si5 0.500000 0.652821 0.857604
Si Si6 0.500000 0.563216 0.987888
Si Si7 0.810596 0.696103 0.750000
Si Si8 0.738242 0.384036 0.589630
O O1 0.250000 0.250000 0.500000
O O2 0.372738 0.319995 0.401302
O O3 0.142737 0.300762 0.354975
O O4 0.189828 0.350044 0.512658
O O5 0.244497 0.756509 0.750000
O O6 0.184512 0.843549 0.663151
O O7 0.000000 0.793566 0.750000
O O8 0.500000 0.083098 0.750000
O O9 0.277353 0.133311 0.750000
O O10 0.299927 0.040429 0.665020
O O11 0.500000 0.998113 0.603979
O O12 0.314428 0.933223 0.632424
O O13 0.303994 0.000000 0.500000
O O14 0.500000 0.660262 0.750000
O O15 0.500000 0.591032 0.889608
O O16 0.500000 0.500000 0.000000
O O17 0.379385 0.587846 0.039728
#
# Coordination Sequence:
#
# PCOD9474622 Si02
#       8
#    16   8   8  16   8   8   8  16
#     4  11  23  42  65  95 128 172 219 270 327 396
#     4  12  24  41  61  90 131 171 213 270 329 387
#     4  10  22  41  62  93 127 164 216 265 320 389
#     4  10  21  40  66  93 129 167 208 266 328 385
#     4  10  22  44  67  89 136 176 215 280 337 398
#     4  10  22  39  64  94 127 172 224 269 325 398
#     4  12  23  39  66  94 127 170 220 269 330 393
#     4  11  22  41  63  94 131 169 215 268 326 389
#
# _framework density 22.719857000000001
#
# number of rings (size 3 to 8) (size 9 to 14) (size 15 to 20)
#    0.000    1.273    3.636    2.455    0.000    1.455 
#    4.909    0.000    2.000    0.000    0.000    0.000 
#    0.000    0.000    0.000    0.000    0.000    0.000 
#
# Total GULP energy -245380.210771 kJ/mol
# GULP energy per Si atom -5576.822972 kJ/mol
# Density = 2.266815 g / cm^3
# Si number density = 22.719857 Si / 1000 Ang^3
#
#
#
# Elastic Constant Matrix: (Units=GPa)
#
#
# Indices 1 2 3 4 5 6 
#
# 1 56.8081 18.9227 25.0060 0.0000 0.0000 0.0000
# 2 18.9227 217.0438 86.6533 0.0000 0.0000 0.0000
# 3 25.0060 86.6533 156.6824 0.0000 0.0000 0.0000
# 4 0.0000 0.0000 0.0000 49.9900 0.0000 0.0000
# 5 0.0000 0.0000 0.0000 0.0000 4.3000 0.0000
# 6 0.0000 0.0000 0.0000 0.0000 0.0000 17.2668
#
#
#
# Elastic Compliance Matrix: (Units=1/GPa)
#
#
# Indices 1 2 3 4 5 6 
#
# 1 0.018988 -0.000572 -0.002714 0.000000 0.000000 0.000000
# 2 -0.000572 0.005930 -0.003188 0.000000 0.000000 0.000000
# 3 -0.002714 -0.003188 0.008579 0.000000 0.000000 0.000000
# 4 0.000000 0.000000 0.000000 0.020004 0.000000 0.000000
# 5 0.000000 0.000000 0.000000 0.000000 0.232560 0.000000
# 6 0.000000 0.000000 0.000000 0.000000 0.000000 0.057914
#
#
# Mechanical properties :
#
#
# Convention : Reuss Voigt Hill
#
# Bulk Modulus (GPa) = 48.66551 76.85536 62.76043
# Shear Modulus (GPa) = 13.74480 34.30818 24.02649
#
# Velocity S-wave (km/s) = 2.46228 3.89016 3.25547
# Velocity P-wave (km/s) = 5.43600 7.35381 6.46640
#
# Compressibility (1/GPa) = 0.02054844
#
# Stress axis : x y z
#
# Youngs Moduli (GPa) = 52.66388 168.62894 116.56536
#
# Poissons Ratio (x) = 0.09643 0.31638
# Poissons Ratio (y) = 0.03012 0.37166
# Poissons Ratio (z) = 0.14294 0.53766
#
# Static dielectric constant tensor:
#      x y z
#    x 1.959580 0.000000 0.000000 
#    y 0.000000 1.834700 0.000000 
#    z 0.000000 0.000000 1.845610 
# 
# From -- ./inp_files/29952.got.cif
#   From: 2010.05.17/outbox.cif.g08.bks.cpg/sg63_15_cif.got.tgz:29952.got - 2010.06.03 15:47:04.
