data_PCOD9474858
_publ_section_title
;
Structure prediction by ZEFSAII (Michael W. Deem and Ramdas Pophale) SiO2 
 PCOD9474858
Probable space group: C M C M
;
_chemical_formula_sum "Si O2"
_cell_formula_units_Z 104
_cell_length_a 22.452135
_cell_length_b 28.173230
_cell_length_c 8.435751
_cell_angle_alpha 90.000000
_cell_angle_beta 90.000000
_cell_angle_gamma 90.000000
_cell_volume 5336.027237
_symmetry_space_group_name_H-M "C M C M"
_symmetry_group_IT_number 63
_symmetry_cell_setting 'orthorhombic'
loop_
_space_group_symop_operation_xyz
x,y,z
-x,-y,1/2+z
x,-y,-z
-x,y,1/2-z
-x,-y,-z
x,y,1/2-z
-x,y,z
x,-y,1/2+z
1/2+x,1/2+y,z
1/2-x,1/2-y,1/2+z
1/2+x,1/2-y,-z
1/2-x,1/2+y,1/2-z
1/2-x,1/2-y,-z
1/2+x,1/2+y,1/2-z
1/2-x,1/2+y,z
1/2+x,1/2-y,1/2+z
loop_
_atom_site_type_symbol
_atom_site_label
_atom_site_fract_x
_atom_site_fract_y
_atom_site_fract_z
Si Si1 0.392346 0.612067 0.940131
Si Si2 0.000000 0.052407 0.438796
Si Si3 0.777435 0.945844 0.941347
Si Si4 0.823940 0.621575 0.064979
Si Si5 0.902287 0.788185 0.432247
Si Si6 0.723216 0.298064 0.935514
Si Si7 0.432292 0.183581 0.938910
O O1 0.387007 0.616145 0.750000
O O2 0.423901 0.661595 0.999788
O O3 0.440776 0.574409 0.989544
O O4 0.329656 0.590899 0.005583
O O5 0.000000 0.056448 0.250000
O O6 0.000000 0.000000 0.500000
O O7 0.777446 0.945682 0.750000
O O8 0.713001 0.924308 0.996359
O O9 0.786687 0.000000 0.000000
O O10 0.837000 0.613292 0.250000
O O11 0.773817 0.662586 0.053449
O O12 0.883539 0.644657 0.992437
O O13 0.920155 0.782414 0.250000
O O14 0.833080 0.802755 0.451131
O O15 0.914280 0.737491 0.511406
O O16 0.704503 0.295165 0.750000
O O17 0.750000 0.250000 0.000000
O O18 0.433308 0.182700 0.750000
O O19 0.500000 0.174634 0.998062
#
# Coordination Sequence:
#
# PCOD9474858 Si02
#       7
#    16   8  16  16  16  16  16
#     4  11  24  41  61  88 121 160 207 252 301 356
#     4  12  26  44  64  82 112 158 208 260 307 354
#     4  11  23  41  64  93 123 154 197 249 311 368
#     4  10  22  39  61  88 120 158 200 246 301 364
#     4  11  23  37  57  85 119 159 199 240 291 349
#     4  11  20  33  55  85 118 152 191 234 285 343
#     4  11  25  41  60  88 122 162 205 250 303 363
#
# _framework density 19.490155999999999
#
# number of rings (size 3 to 8) (size 9 to 14) (size 15 to 20)
#    0.000    1.077    3.077    3.462    1.077    4.923 
#    0.000    0.000    0.000    0.462    0.000    0.000 
#    0.000    0.000    0.000    0.000    0.000    0.000 
#
# Total GULP energy -289753.030908 kJ/mol
# GULP energy per Si atom -5572.173671 kJ/mol
# Density = 1.944580 g / cm^3
# Si number density = 19.490156 Si / 1000 Ang^3
#
#
#
# Elastic Constant Matrix: (Units=GPa)
#
#
# Indices 1 2 3 4 5 6 
#
# 1 121.8104 39.1194 26.6956 0.0000 0.0000 0.0000
# 2 39.1194 79.3584 23.4087 0.0000 0.0000 0.0000
# 3 26.6956 23.4087 52.1474 0.0000 0.0000 0.0000
# 4 0.0000 0.0000 0.0000 16.6243 0.0000 0.0000
# 5 0.0000 0.0000 0.0000 0.0000 25.8950 0.0000
# 6 0.0000 0.0000 0.0000 0.0000 0.0000 30.9840
#
#
#
# Elastic Compliance Matrix: (Units=1/GPa)
#
#
# Indices 1 2 3 4 5 6 
#
# 1 0.010262 -0.004044 -0.003438 0.000000 0.000000 0.000000
# 2 -0.004044 0.016118 -0.005165 0.000000 0.000000 0.000000
# 3 -0.003438 -0.005165 0.023255 0.000000 0.000000 0.000000
# 4 0.000000 0.000000 0.000000 0.060153 0.000000 0.000000
# 5 0.000000 0.000000 0.000000 0.000000 0.038617 0.000000
# 6 0.000000 0.000000 0.000000 0.000000 0.000000 0.032275
#
#
# Mechanical properties :
#
#
# Convention : Reuss Voigt Hill
#
# Bulk Modulus (GPa) = 41.08367 47.97373 44.52870
# Shear Modulus (GPa) = 23.35493 25.64018 24.49756
#
# Velocity S-wave (km/s) = 3.46539 3.63098 3.54915
# Velocity P-wave (km/s) = 6.09400 6.49973 6.30013
#
# Compressibility (1/GPa) = 0.02434057
#
# Stress axis : x y z
#
# Youngs Moduli (GPa) = 97.44932 62.04130 43.00186
#
# Poissons Ratio (x) = 0.25092 0.14783
# Poissons Ratio (y) = 0.39413 0.22210
# Poissons Ratio (z) = 0.33500 0.32044
#
# Static dielectric constant tensor:
#      x y z
#    x 1.696730 0.000000 0.000000 
#    y 0.000000 3.516640 0.000000 
#    z 0.000000 0.000000 1.677500 
# 
# From -- ./inp_files/8732.got.cif
#   From: 2010.05.17/outbox.cif.g08.bks.cpg/sg63_5_cif.got.tgz:8732.got - 2010.06.03 15:47:04.
