data_PCOD9474824
_publ_section_title
;
Structure prediction by ZEFSAII (Michael W. Deem and Ramdas Pophale) SiO2 
 PCOD9474824
Probable space group: C M C M
;
_chemical_formula_sum "Si O2"
_cell_formula_units_Z 64
_cell_length_a 13.493215
_cell_length_b 15.764009
_cell_length_c 16.955871
_cell_angle_alpha 90.000000
_cell_angle_beta 90.000000
_cell_angle_gamma 90.000000
_cell_volume 3606.635211
_symmetry_space_group_name_H-M "C M C M"
_symmetry_group_IT_number 63
_symmetry_cell_setting 'orthorhombic'
loop_
_space_group_symop_operation_xyz
x,y,z
-x,-y,1/2+z
x,-y,-z
-x,y,1/2-z
-x,-y,-z
x,y,1/2-z
-x,y,z
x,-y,1/2+z
1/2+x,1/2+y,z
1/2-x,1/2-y,1/2+z
1/2+x,1/2-y,-z
1/2-x,1/2+y,1/2-z
1/2-x,1/2-y,-z
1/2+x,1/2+y,1/2-z
1/2-x,1/2+y,z
1/2+x,1/2-y,1/2+z
loop_
_atom_site_type_symbol
_atom_site_label
_atom_site_fract_x
_atom_site_fract_y
_atom_site_fract_z
Si Si1 0.000000 0.215457 0.656983
Si Si2 0.329984 0.705724 0.058916
Si Si3 0.500000 0.004963 0.345626
Si Si4 0.500000 0.597822 0.977416
Si Si5 0.500000 0.806319 0.153208
Si Si6 0.842214 0.640187 0.344406
O O1 0.906820 0.275735 0.636065
O O2 0.000000 0.204110 0.750000
O O3 0.000000 0.126144 0.613592
O O4 0.402250 0.766638 0.110925
O O5 0.263659 0.650232 0.117634
O O6 0.250000 0.750000 0.000000
O O7 0.404045 0.644632 0.012451
O O8 0.500000 0.010361 0.250000
O O9 0.500000 0.906666 0.364901
O O10 0.404476 0.058644 0.372554
O O11 0.500000 0.500000 0.000000
O O12 0.500000 0.794486 0.250000
O O13 0.835768 0.636346 0.250000
#
# Coordination Sequence:
#
# PCOD9474824 Si02
#       6
#     8  16   8   8   8  16
#     4   9  17  35  61  82 107 145 191 232 281 340
#     4  11  22  37  59  80 115 153 191 228 286 350
#     4   8  17  34  59  88 111 135 187 243 278 327
#     4  11  24  40  54  83 120 148 185 242 286 328
#     4  10  22  39  57  85 120 150 182 239 298 343
#     4   9  17  34  61  85 107 146 193 235 279 341
#
# _framework density 17.745070999999999
#
# number of rings (size 3 to 8) (size 9 to 14) (size 15 to 20)
#    0.000    2.250    2.500    2.250    0.000    2.000 
#    0.000    5.000    0.000    0.000    0.000    0.000 
#    0.000    0.000    0.000    0.000    0.000    0.000 
#
# Total GULP energy -178282.073688 kJ/mol
# GULP energy per Si atom -5571.314803 kJ/mol
# Density = 1.770468 g / cm^3
# Si number density = 17.745071 Si / 1000 Ang^3
#
#
#
# Elastic Constant Matrix: (Units=GPa)
#
#
# Indices 1 2 3 4 5 6 
#
# 1 142.4327 61.7974 48.5992 0.0000 0.0000 0.0000
# 2 61.7974 137.5097 55.0061 0.0000 0.0000 0.0000
# 3 48.5992 55.0061 59.8807 0.0000 0.0000 0.0000
# 4 0.0000 0.0000 0.0000 20.6708 0.0000 0.0000
# 5 0.0000 0.0000 0.0000 0.0000 28.9455 0.0000
# 6 0.0000 0.0000 0.0000 0.0000 0.0000 8.9986
#
#
#
# Elastic Compliance Matrix: (Units=1/GPa)
#
#
# Indices 1 2 3 4 5 6 
#
# 1 0.010040 -0.001980 -0.006329 0.000000 0.000000 0.000000
# 2 -0.001980 0.011887 -0.009313 0.000000 0.000000 0.000000
# 3 -0.006329 -0.009313 0.030391 0.000000 0.000000 0.000000
# 4 0.000000 0.000000 0.000000 0.048377 0.000000 0.000000
# 5 0.000000 0.000000 0.000000 0.000000 0.034548 0.000000
# 6 0.000000 0.000000 0.000000 0.000000 0.000000 0.111128
#
#
# Mechanical properties :
#
#
# Convention : Reuss Voigt Hill
#
# Bulk Modulus (GPa) = 58.56770 74.51427 66.54099
# Shear Modulus (GPa) = 17.40306 23.35103 20.37705
#
# Velocity S-wave (km/s) = 3.13505 3.63149 3.39237
# Velocity P-wave (km/s) = 6.79569 7.72440 7.27488
#
# Compressibility (1/GPa) = 0.01707426
#
# Stress axis : x y z
#
# Youngs Moduli (GPa) = 99.60649 84.12413 32.90432
#
# Poissons Ratio (x) = 0.16656 0.20826
# Poissons Ratio (y) = 0.19722 0.30642
# Poissons Ratio (z) = 0.63043 0.78341
#
# Static dielectric constant tensor:
#      x y z
#    x 1.612390 0.000000 0.000000 
#    y 0.000000 1.587330 0.000000 
#    z 0.000000 0.000000 1.658540 
# 
# From -- ./inp_files/41578.got.cif
#   From: 2010.05.17/outbox.cif.g08.bks.cpg/sg63_21_cif.got.tgz:41578.got - 2010.06.03 15:47:04.
