data_PCOD9474742
_publ_section_title
;
Structure prediction by ZEFSAII (Michael W. Deem and Ramdas Pophale) SiO2 
 PCOD9474742
Probable space group: C M C M
;
_chemical_formula_sum "Si O2"
_cell_formula_units_Z 96
_cell_length_a 21.555239
_cell_length_b 7.517027
_cell_length_c 27.986930
_cell_angle_alpha 90.000000
_cell_angle_beta 90.000000
_cell_angle_gamma 90.000000
_cell_volume 4534.759030
_symmetry_space_group_name_H-M "C M C M"
_symmetry_group_IT_number 63
_symmetry_cell_setting 'orthorhombic'
loop_
_space_group_symop_operation_xyz
x,y,z
-x,-y,1/2+z
x,-y,-z
-x,y,1/2-z
-x,-y,-z
x,y,1/2-z
-x,y,z
x,-y,1/2+z
1/2+x,1/2+y,z
1/2-x,1/2-y,1/2+z
1/2+x,1/2-y,-z
1/2-x,1/2+y,1/2-z
1/2-x,1/2-y,-z
1/2+x,1/2+y,1/2-z
1/2-x,1/2+y,z
1/2+x,1/2-y,1/2+z
loop_
_atom_site_type_symbol
_atom_site_label
_atom_site_fract_x
_atom_site_fract_y
_atom_site_fract_z
Si Si1 0.569813 0.238110 0.459494
Si Si2 0.675686 0.039028 0.696405
Si Si3 0.932179 0.457305 0.125024
Si Si4 0.681950 0.463845 0.803934
Si Si5 0.183828 0.193781 0.020743
Si Si6 0.614276 0.428973 0.604307
O O1 0.500000 0.249636 0.480034
O O2 0.624020 0.210329 0.498191
O O3 0.583635 0.421096 0.429544
O O4 0.571739 0.074974 0.422604
O O5 0.665103 0.968915 0.750000
O O6 0.623763 0.983838 0.659129
O O7 0.671971 0.252458 0.698481
O O8 0.746233 0.994220 0.683126
O O9 0.926549 0.245430 0.115048
O O10 0.000000 0.491098 0.146819
O O11 0.671864 0.535873 0.750000
O O12 0.637752 0.521858 0.847113
O O13 0.173315 0.164244 0.077004
O O14 0.250000 0.250000 0.000000
O O15 0.177048 0.000000 0.000000
#
# Coordination Sequence:
#
# PCOD9474742 Si02
#       6
#    16  16  16  16  16  16
#     4  10  23  41  59  85 117 152 196 237 282 350
#     4   9  19  34  54  81 113 147 187 236 287 345
#     4  10  22  37  58  84 111 152 192 232 286 339
#     4   9  19  34  55  86 113 146 189 234 294 343
#     4  10  24  38  59  89 118 153 192 242 294 339
#     4  10  22  38  61  83 115 153 189 242 285 344
#
# _framework density 21.169810999999999
#
# number of rings (size 3 to 8) (size 9 to 14) (size 15 to 20)
#    0.000    2.333    0.000    0.500    7.000    6.667 
#    0.000    1.667    0.000    2.500    0.000    0.000 
#    0.000    0.000    0.000    0.000    0.000    0.000 
#
# Total GULP energy -267685.273358 kJ/mol
# GULP energy per Si atom -5576.776528 kJ/mol
# Density = 2.112163 g / cm^3
# Si number density = 21.169811 Si / 1000 Ang^3
#
#
#
# Elastic Constant Matrix: (Units=GPa)
#
#
# Indices 1 2 3 4 5 6 
#
# 1 79.7804 18.5802 20.9046 0.0000 0.0000 0.0000
# 2 18.5802 70.0744 12.0378 0.0000 0.0000 0.0000
# 3 20.9046 12.0378 44.5607 0.0000 0.0000 0.0000
# 4 0.0000 0.0000 0.0000 14.7401 0.0000 0.0000
# 5 0.0000 0.0000 0.0000 0.0000 19.2373 0.0000
# 6 0.0000 0.0000 0.0000 0.0000 0.0000 21.0532
#
#
#
# Elastic Compliance Matrix: (Units=1/GPa)
#
#
# Indices 1 2 3 4 5 6 
#
# 1 0.014821 -0.002869 -0.006178 0.000000 0.000000 0.000000
# 2 -0.002869 0.015520 -0.002847 0.000000 0.000000 0.000000
# 3 -0.006178 -0.002847 0.026109 0.000000 0.000000 0.000000
# 4 0.000000 0.000000 0.000000 0.067842 0.000000 0.000000
# 5 0.000000 0.000000 0.000000 0.000000 0.051982 0.000000
# 6 0.000000 0.000000 0.000000 0.000000 0.000000 0.047499
#
#
# Mechanical properties :
#
#
# Convention : Reuss Voigt Hill
#
# Bulk Modulus (GPa) = 30.61577 33.05118 31.83347
# Shear Modulus (GPa) = 19.34621 20.53230 19.93925
#
# Velocity S-wave (km/s) = 3.02629 3.11768 3.07232
# Velocity P-wave (km/s) = 5.16765 5.34848 5.25884
#
# Compressibility (1/GPa) = 0.03266291
#
# Stress axis : x y z
#
# Youngs Moduli (GPa) = 67.47036 64.43207 38.30138
#
# Poissons Ratio (x) = 0.18483 0.23663
# Poissons Ratio (y) = 0.19354 0.10904
# Poissons Ratio (z) = 0.41684 0.18344
#
# Static dielectric constant tensor:
#      x y z
#    x 4.409050 0.000000 0.000000 
#    y 0.000000 1.793690 0.000000 
#    z 0.000000 0.000000 1.861330 
# 
# From -- ./inp_files/70304.got.cif
#   From: 2010.05.17/outbox.cif.g08.bks.cpg/sg63_36_cif.got.tgz:70304.got - 2010.06.03 15:47:04.
