data_PCOD9474265
_publ_section_title
;
Structure prediction by ZEFSAII (Michael W. Deem and Ramdas Pophale) SiO2 
 PCOD9474265
Probable space group: C M C M
;
_chemical_formula_sum "Si O2"
_cell_formula_units_Z 80
_cell_length_a 19.669321
_cell_length_b 28.515904
_cell_length_c 8.796222
_cell_angle_alpha 90.000000
_cell_angle_beta 90.000000
_cell_angle_gamma 90.000000
_cell_volume 4933.699494
_symmetry_space_group_name_H-M "C M C M"
_symmetry_group_IT_number 63
_symmetry_cell_setting 'orthorhombic'
loop_
_space_group_symop_operation_xyz
x,y,z
-x,-y,1/2+z
x,-y,-z
-x,y,1/2-z
-x,-y,-z
x,y,1/2-z
-x,y,z
x,-y,1/2+z
1/2+x,1/2+y,z
1/2-x,1/2-y,1/2+z
1/2+x,1/2-y,-z
1/2-x,1/2+y,1/2-z
1/2-x,1/2-y,-z
1/2+x,1/2+y,1/2-z
1/2-x,1/2+y,z
1/2+x,1/2-y,1/2+z
loop_
_atom_site_type_symbol
_atom_site_label
_atom_site_fract_x
_atom_site_fract_y
_atom_site_fract_z
Si Si1 0.779069 0.299712 0.569662
Si Si2 0.921378 0.948231 0.932615
Si Si3 0.075895 0.697790 0.924738
Si Si4 0.673689 0.369312 0.424278
Si Si5 0.423538 0.689998 0.415580
O O1 0.772874 0.295131 0.750000
O O2 0.750000 0.250000 0.500000
O O3 0.856866 0.310389 0.522299
O O4 0.736039 0.344112 0.508793
O O5 0.917544 0.949011 0.750000
O O6 0.000000 0.935263 0.974039
O O7 0.864605 0.913018 0.997797
O O8 0.910162 0.000000 0.000000
O O9 0.085103 0.681121 0.750000
O O10 0.073884 0.754310 0.916860
O O11 0.000000 0.682528 0.977200
O O12 0.690011 0.379383 0.250000
O O13 0.617156 0.328750 0.442868
O O14 0.393556 0.675537 0.250000
O O15 0.500000 0.672026 0.418806
#
# Coordination Sequence:
#
# PCOD9474265 Si02
#       5
#    16  16  16  16  16
#     4  12  23  35  50  71 101 135 174 219 264 311
#     4  10  21  38  58  79 106 139 176 221 270 318
#     4   9  18  33  51  69  94 129 167 208 255 305
#     4  12  23  33  49  73 100 134 174 216 262 312
#     4   9  17  29  45  65  92 127 166 209 254 299
#
# _framework density 16.215012999999999
#
# number of rings (size 3 to 8) (size 9 to 14) (size 15 to 20)
#    0.000    1.600    2.000    6.000    0.000    4.400 
#    0.000    2.000    0.000    0.000    0.000    0.000 
#    0.000    0.800    0.000    3.000    0.000    4.600 
#
# Total GULP energy -222841.853542 kJ/mol
# GULP energy per Si atom -5571.046339 kJ/mol
# Density = 1.617811 g / cm^3
# Si number density = 16.215013 Si / 1000 Ang^3
#
#
#
# Elastic Constant Matrix: (Units=GPa)
#
#
# Indices 1 2 3 4 5 6 
#
# 1 131.7321 46.9775 62.0780 0.0000 0.0000 0.0000
# 2 46.9775 72.6419 39.0834 0.0000 0.0000 0.0000
# 3 62.0780 39.0834 109.8397 0.0000 0.0000 0.0000
# 4 0.0000 0.0000 0.0000 22.1118 0.0000 0.0000
# 5 0.0000 0.0000 0.0000 0.0000 25.6209 0.0000
# 6 0.0000 0.0000 0.0000 0.0000 0.0000 26.3963
#
#
#
# Elastic Compliance Matrix: (Units=1/GPa)
#
#
# Indices 1 2 3 4 5 6 
#
# 1 0.011614 -0.004921 -0.004813 0.000000 0.000000 0.000000
# 2 -0.004921 0.019111 -0.004019 0.000000 0.000000 0.000000
# 3 -0.004813 -0.004019 0.013254 0.000000 0.000000 0.000000
# 4 0.000000 0.000000 0.000000 0.045225 0.000000 0.000000
# 5 0.000000 0.000000 0.000000 0.000000 0.039031 0.000000
# 6 0.000000 0.000000 0.000000 0.000000 0.000000 0.037884
#
#
# Mechanical properties :
#
#
# Convention : Reuss Voigt Hill
#
# Bulk Modulus (GPa) = 60.70359 67.83238 64.26799
# Shear Modulus (GPa) = 25.11097 25.89745 25.50421
#
# Velocity S-wave (km/s) = 3.93953 4.00074 3.97025
# Velocity P-wave (km/s) = 7.62962 7.95394 7.79347
#
# Compressibility (1/GPa) = 0.01647349
#
# Stress axis : x y z
#
# Youngs Moduli (GPa) = 86.10105 52.32576 75.44786
#
# Poissons Ratio (x) = 0.25752 0.36312
# Poissons Ratio (y) = 0.42375 0.30320
# Poissons Ratio (z) = 0.41439 0.21028
#
# Static dielectric constant tensor:
#      x y z
#    x 1.606940 0.000000 0.000000 
#    y 0.000000 1.541010 0.000000 
#    z 0.000000 0.000000 1.965930 
# 
# From -- ./inp_files/8891.got.cif
#   From: 2010.05.17/outbox.cif.g08.bks.cpg/sg63_5_cif.got.tgz:8891.got - 2010.06.03 15:47:04.
