data_PCOD9474501
_publ_section_title
;
Structure prediction by ZEFSAII (Michael W. Deem and Ramdas Pophale) SiO2 
 PCOD9474501
Probable space group: C M C M
;
_chemical_formula_sum "Si O2"
_cell_formula_units_Z 64
_cell_length_a 11.375886
_cell_length_b 19.282441
_cell_length_c 14.225434
_cell_angle_alpha 90.000000
_cell_angle_beta 90.000000
_cell_angle_gamma 90.000000
_cell_volume 3120.417950
_symmetry_space_group_name_H-M "C M C M"
_symmetry_group_IT_number 63
_symmetry_cell_setting 'orthorhombic'
loop_
_space_group_symop_operation_xyz
x,y,z
-x,-y,1/2+z
x,-y,-z
-x,y,1/2-z
-x,-y,-z
x,y,1/2-z
-x,y,z
x,-y,1/2+z
1/2+x,1/2+y,z
1/2-x,1/2-y,1/2+z
1/2+x,1/2-y,-z
1/2-x,1/2+y,1/2-z
1/2-x,1/2-y,-z
1/2+x,1/2+y,1/2-z
1/2-x,1/2+y,z
1/2+x,1/2-y,1/2+z
loop_
_atom_site_type_symbol
_atom_site_label
_atom_site_fract_x
_atom_site_fract_y
_atom_site_fract_z
Si Si1 0.500000 0.870752 0.407304
Si Si2 0.000000 0.511235 0.750000
Si Si3 0.363866 0.565656 0.437947
Si Si4 0.749418 0.321932 0.053928
Si Si5 0.500000 0.246418 0.750000
Si Si6 0.260124 0.247698 0.250000
Si Si7 0.284954 0.905499 0.750000
O O1 0.625250 0.861930 0.458478
O O2 0.500000 0.803519 0.339599
O O3 0.500000 0.938075 0.340827
O O4 0.111418 0.461366 0.750000
O O5 0.323589 0.500000 0.500000
O O6 0.500000 0.555314 0.412360
O O7 0.348643 0.630520 0.507573
O O8 0.289264 0.579979 0.344651
O O9 0.727621 0.298130 0.160835
O O10 0.750000 0.250000 0.000000
O O11 0.374748 0.282551 0.750000
O O12 0.329332 0.175114 0.250000
#
# Coordination Sequence:
#
# PCOD9474501 Si02
#       7
#     8   4  16  16   4   8   8
#     4   9  20  39  65  94 131 177 224 270 335 411
#     4  11  24  44  66 100 138 183 224 270 351 426
#     4  11  26  45  68  99 134 180 230 278 344 414
#     4  11  22  40  69  99 135 178 229 288 342 410
#     4   7  16  32  64  90 116 163 228 262 323 394
#     4  10  21  39  63 103 130 177 222 283 346 402
#     4  12  24  43  70  96 137 172 226 284 333 410
#
# _framework density 20.510073999999999
#
# number of rings (size 3 to 8) (size 9 to 14) (size 15 to 20)
#    0.000    1.500    2.500    2.625    3.500    2.000 
#    2.250    3.750    0.000    0.000    0.000    0.000 
#    0.000    0.000    0.000    0.000    0.000    0.000 
#
# Total GULP energy -178623.630539 kJ/mol
# GULP energy per Si atom -5581.988454 kJ/mol
# Density = 2.046339 g / cm^3
# Si number density = 20.510074 Si / 1000 Ang^3
#
#
#
# Elastic Constant Matrix: (Units=GPa)
#
#
# Indices 1 2 3 4 5 6 
#
# 1 57.9350 23.2407 26.4616 0.0000 0.0000 0.0000
# 2 23.2407 124.9298 41.1564 0.0000 0.0000 0.0000
# 3 26.4616 41.1564 141.7156 0.0000 0.0000 0.0000
# 4 0.0000 0.0000 0.0000 36.2332 0.0000 0.0000
# 5 0.0000 0.0000 0.0000 0.0000 17.4314 0.0000
# 6 0.0000 0.0000 0.0000 0.0000 0.0000 34.1998
#
#
#
# Elastic Compliance Matrix: (Units=1/GPa)
#
#
# Indices 1 2 3 4 5 6 
#
# 1 0.019665 -0.002708 -0.002886 0.000000 0.000000 0.000000
# 2 -0.002708 0.009224 -0.002173 0.000000 0.000000 0.000000
# 3 -0.002886 -0.002173 0.008226 0.000000 0.000000 0.000000
# 4 0.000000 0.000000 0.000000 0.027599 0.000000 0.000000
# 5 0.000000 0.000000 0.000000 0.000000 0.057368 0.000000
# 6 0.000000 0.000000 0.000000 0.000000 0.000000 0.029240
#
#
# Mechanical properties :
#
#
# Convention : Reuss Voigt Hill
#
# Bulk Modulus (GPa) = 46.33398 56.25532 51.29465
# Shear Modulus (GPa) = 28.72756 33.15434 30.94095
#
# Velocity S-wave (km/s) = 3.74659 4.02492 3.88825
# Velocity P-wave (km/s) = 6.43085 7.00626 6.72471
#
# Compressibility (1/GPa) = 0.02158243
#
# Stress axis : x y z
#
# Youngs Moduli (GPa) = 50.85213 108.41107 121.56088
#
# Poissons Ratio (x) = 0.29354 0.35077
# Poissons Ratio (y) = 0.13769 0.26418
# Poissons Ratio (z) = 0.14674 0.23560
#
# Static dielectric constant tensor:
#      x y z
#    x 1.791280 0.000000 0.000000 
#    y 0.000000 1.667380 0.000000 
#    z 0.000000 0.000000 1.724370 
# 
# From -- ./inp_files/29258.got.cif
#   From: 2010.05.17/outbox.cif.g08.bks.cpg/sg63_15_cif.got.tgz:29258.got - 2010.06.03 15:47:04.
