data_PCOD9474789
_publ_section_title
;
Structure prediction by ZEFSAII (Michael W. Deem and Ramdas Pophale) SiO2 
 PCOD9474789
Probable space group: C M C M
;
_chemical_formula_sum "Si O2"
_cell_formula_units_Z 64
_cell_length_a 28.336884
_cell_length_b 7.348915
_cell_length_c 15.668432
_cell_angle_alpha 90.000000
_cell_angle_beta 90.000000
_cell_angle_gamma 90.000000
_cell_volume 3262.878135
_symmetry_space_group_name_H-M "C M C M"
_symmetry_group_IT_number 63
_symmetry_cell_setting 'orthorhombic'
loop_
_space_group_symop_operation_xyz
x,y,z
-x,-y,1/2+z
x,-y,-z
-x,y,1/2-z
-x,-y,-z
x,y,1/2-z
-x,y,z
x,-y,1/2+z
1/2+x,1/2+y,z
1/2-x,1/2-y,1/2+z
1/2+x,1/2-y,-z
1/2-x,1/2+y,1/2-z
1/2-x,1/2-y,-z
1/2+x,1/2+y,1/2-z
1/2-x,1/2+y,z
1/2+x,1/2-y,1/2+z
loop_
_atom_site_type_symbol
_atom_site_label
_atom_site_fract_x
_atom_site_fract_y
_atom_site_fract_z
Si Si1 0.554112 0.005709 0.851738
Si Si2 0.625676 0.726231 0.591394
Si Si3 0.866619 0.206813 0.397916
Si Si4 0.812236 0.264153 0.750000
Si Si5 0.297754 0.334621 0.750000
O O1 0.555613 0.971328 0.750000
O O2 0.500000 0.038847 0.876292
O O3 0.576474 0.831759 0.899054
O O4 0.588226 0.175068 0.871459
O O5 0.621673 0.509229 0.606112
O O6 0.645087 0.751166 0.496046
O O7 0.659121 0.811173 0.664460
O O8 0.823497 0.244707 0.333540
O O9 0.758367 0.324908 0.750000
O O10 0.809885 0.046471 0.750000
#
# Coordination Sequence:
#
# PCOD9474789 Si02
#       5
#    16  16  16   8   8
#     4  11  23  39  65  94 123 163 204 247 307 364
#     4  10  22  41  62  87 123 161 201 249 301 359
#     4  10  22  41  62  87 123 161 201 249 301 359
#     4  10  22  38  60  87 119 158 202 250 305 358
#     4  10  22  38  60  87 119 158 202 250 305 358
#
# _framework density 19.614585999999999
#
# number of rings (size 3 to 8) (size 9 to 14) (size 15 to 20)
#    0.000    1.750    2.500    0.750    3.500    4.000 
#    0.000    5.000    0.000    0.000    0.000    0.000 
#    0.000    0.000    0.000    0.000    0.000    0.000 
#
# Total GULP energy -178688.026259 kJ/mol
# GULP energy per Si atom -5584.000821 kJ/mol
# Density = 1.956994 g / cm^3
# Si number density = 19.614586 Si / 1000 Ang^3
#
#
#
# Elastic Constant Matrix: (Units=GPa)
#
#
# Indices 1 2 3 4 5 6 
#
# 1 111.1928 -1.2013 30.1277 0.0000 0.0000 0.0000
# 2 -1.2013 39.5394 2.0172 0.0000 0.0000 0.0000
# 3 30.1277 2.0172 103.9095 0.0000 0.0000 0.0000
# 4 0.0000 0.0000 0.0000 19.7368 0.0000 0.0000
# 5 0.0000 0.0000 0.0000 0.0000 7.5496 0.0000
# 6 0.0000 0.0000 0.0000 0.0000 0.0000 31.3477
#
#
#
# Elastic Compliance Matrix: (Units=1/GPa)
#
#
# Indices 1 2 3 4 5 6 
#
# 1 0.009768 0.000442 -0.002841 0.000000 0.000000 0.000000
# 2 0.000442 0.025336 -0.000620 0.000000 0.000000 0.000000
# 3 -0.002841 -0.000620 0.010459 0.000000 0.000000 0.000000
# 4 0.000000 0.000000 0.000000 0.050667 0.000000 0.000000
# 5 0.000000 0.000000 0.000000 0.000000 0.132457 0.000000
# 6 0.000000 0.000000 0.000000 0.000000 0.000000 0.031900
#
#
# Mechanical properties :
#
#
# Convention : Reuss Voigt Hill
#
# Bulk Modulus (GPa) = 25.29996 35.16986 30.23491
# Shear Modulus (GPa) = 17.86987 26.64003 22.25495
#
# Velocity S-wave (km/s) = 3.02164 3.68934 3.37205
# Velocity P-wave (km/s) = 5.01002 6.00980 5.53254
#
# Compressibility (1/GPa) = 0.03952576
#
# Stress axis : x y z
#
# Youngs Moduli (GPa) = 102.37681 39.46910 95.60757
#
# Poissons Ratio (x) = -0.01743 0.27159
# Poissons Ratio (y) = -0.04522 0.05927
# Poissons Ratio (z) = 0.29082 0.02447
#
# Static dielectric constant tensor:
#      x y z
#    x 1.659500 0.000000 0.000000 
#    y 0.000000 1.705070 0.000000 
#    z 0.000000 0.000000 1.718260 
# 
# From -- ./inp_files/36242.got.cif
#   From: 2010.05.17/outbox.cif.g08.bks.cpg/sg63_19_cif.got.tgz:36242.got - 2010.06.03 15:47:04.
