data_PCOD9474117
_publ_section_title
;
Structure prediction by ZEFSAII (Michael W. Deem and Ramdas Pophale) SiO2 
 PCOD9474117
Probable space group: C M C M
;
_chemical_formula_sum "Si O2"
_cell_formula_units_Z 96
_cell_length_a 24.971199
_cell_length_b 8.921116
_cell_length_c 19.656519
_cell_angle_alpha 90.000000
_cell_angle_beta 90.000000
_cell_angle_gamma 90.000000
_cell_volume 4378.901666
_symmetry_space_group_name_H-M "C M C M"
_symmetry_group_IT_number 63
_symmetry_cell_setting 'orthorhombic'
loop_
_space_group_symop_operation_xyz
x,y,z
-x,-y,1/2+z
x,-y,-z
-x,y,1/2-z
-x,-y,-z
x,y,1/2-z
-x,y,z
x,-y,1/2+z
1/2+x,1/2+y,z
1/2-x,1/2-y,1/2+z
1/2+x,1/2-y,-z
1/2-x,1/2+y,1/2-z
1/2-x,1/2-y,-z
1/2+x,1/2+y,1/2-z
1/2-x,1/2+y,z
1/2+x,1/2-y,1/2+z
loop_
_atom_site_type_symbol
_atom_site_label
_atom_site_fract_x
_atom_site_fract_y
_atom_site_fract_z
Si Si1 0.231532 0.771201 0.832151
Si Si2 0.060381 0.322970 0.484891
Si Si3 0.174616 0.539757 0.331087
Si Si4 0.058533 0.869501 0.123900
Si Si5 0.143600 0.909807 0.571229
Si Si6 0.940928 0.441085 0.825636
O O1 0.224642 0.803847 0.750000
O O2 0.213583 0.600417 0.842498
O O3 0.193969 0.865008 0.882930
O O4 0.292654 0.812181 0.851310
O O5 0.067459 0.500000 0.500000
O O6 0.059263 0.230078 0.555313
O O7 0.107798 0.237198 0.445821
O O8 0.000000 0.300245 0.456017
O O9 0.166669 0.551295 0.250000
O O10 0.115159 0.514198 0.359562
O O11 0.063862 0.738898 0.178630
O O12 0.000000 0.942263 0.129834
O O13 0.105447 0.986193 0.117161
O O14 0.154991 0.000000 0.500000
O O15 0.942421 0.507761 0.750000
O O16 0.000000 0.469516 0.856081
#
# Coordination Sequence:
#
# PCOD9474117 Si02
#       6
#    16  16  16  16  16  16
#     4  10  22  40  63  89 117 159 206 248 302 371
#     4   9  18  33  55  80 110 158 209 248 295 362
#     4   9  20  38  60  86 116 158 205 246 296 369
#     4   9  18  32  53  81 114 155 198 239 295 358
#     4  10  21  37  57  85 126 158 201 257 312 358
#     4   9  18  33  57  89 121 152 195 253 308 357
#
# _framework density 21.923304999999999
#
# number of rings (size 3 to 8) (size 9 to 14) (size 15 to 20)
#    0.000    2.667    0.000    0.500    4.667    2.667 
#    0.000    1.667    0.000    2.500    0.000    0.000 
#    0.000    0.000    0.000    0.000    0.000    0.000 
#
# Total GULP energy -267420.475956 kJ/mol
# GULP energy per Si atom -5571.259916 kJ/mol
# Density = 2.187341 g / cm^3
# Si number density = 21.923305 Si / 1000 Ang^3
#
#
#
# Elastic Constant Matrix: (Units=GPa)
#
#
# Indices 1 2 3 4 5 6 
#
# 1 153.5147 48.1702 23.6128 0.0000 0.0000 0.0000
# 2 48.1702 62.4333 5.8758 0.0000 0.0000 0.0000
# 3 23.6128 5.8758 56.8900 0.0000 0.0000 0.0000
# 4 0.0000 0.0000 0.0000 23.3481 0.0000 0.0000
# 5 0.0000 0.0000 0.0000 0.0000 17.1509 0.0000
# 6 0.0000 0.0000 0.0000 0.0000 0.0000 23.0106
#
#
#
# Elastic Compliance Matrix: (Units=1/GPa)
#
#
# Indices 1 2 3 4 5 6 
#
# 1 0.009100 -0.006731 -0.003082 0.000000 0.000000 0.000000
# 2 -0.006731 0.021153 0.000609 0.000000 0.000000 0.000000
# 3 -0.003082 0.000609 0.018794 0.000000 0.000000 0.000000
# 4 0.000000 0.000000 0.000000 0.042830 0.000000 0.000000
# 5 0.000000 0.000000 0.000000 0.000000 0.058306 0.000000
# 6 0.000000 0.000000 0.000000 0.000000 0.000000 0.043458
#
#
# Mechanical properties :
#
#
# Convention : Reuss Voigt Hill
#
# Bulk Modulus (GPa) = 32.63772 47.57285 40.10528
# Shear Modulus (GPa) = 22.49587 25.71385 24.10486
#
# Velocity S-wave (km/s) = 3.20678 3.42848 3.31948
# Velocity P-wave (km/s) = 5.35078 6.11714 5.74675
#
# Compressibility (1/GPa) = 0.03063939
#
# Stress axis : x y z
#
# Youngs Moduli (GPa) = 109.88766 47.27421 53.20832
#
# Poissons Ratio (x) = 0.31821 0.16398
# Poissons Ratio (y) = 0.73967 -0.03241
# Poissons Ratio (z) = 0.33866 -0.02879
#
# Static dielectric constant tensor:
#      x y z
#    x 1.831400 0.000000 0.000000 
#    y 0.000000 1.802460 0.000000 
#    z 0.000000 0.000000 1.869020 
# 
# From -- ./inp_files/64942.got.cif
#   From: 2010.05.17/outbox.cif.g08.bks.cpg/sg63_33_cif.got.tgz:64942.got - 2010.06.03 15:47:04.
