data_PCOD9474388
_publ_section_title
;
Structure prediction by ZEFSAII (Michael W. Deem and Ramdas Pophale) SiO2 
 PCOD9474388
Probable space group: C M C M
;
_chemical_formula_sum "Si O2"
_cell_formula_units_Z 92
_cell_length_a 18.263897
_cell_length_b 12.964246
_cell_length_c 21.213405
_cell_angle_alpha 90.000000
_cell_angle_beta 90.000000
_cell_angle_gamma 90.000000
_cell_volume 5022.860261
_symmetry_space_group_name_H-M "C M C M"
_symmetry_group_IT_number 63
_symmetry_cell_setting 'orthorhombic'
loop_
_space_group_symop_operation_xyz
x,y,z
-x,-y,1/2+z
x,-y,-z
-x,y,1/2-z
-x,-y,-z
x,y,1/2-z
-x,y,z
x,-y,1/2+z
1/2+x,1/2+y,z
1/2-x,1/2-y,1/2+z
1/2+x,1/2-y,-z
1/2-x,1/2+y,1/2-z
1/2-x,1/2-y,-z
1/2+x,1/2+y,1/2-z
1/2-x,1/2+y,z
1/2+x,1/2-y,1/2+z
loop_
_atom_site_type_symbol
_atom_site_label
_atom_site_fract_x
_atom_site_fract_y
_atom_site_fract_z
Si Si1 0.000000 0.732523 0.320800
Si Si2 0.000000 0.884566 0.526020
Si Si3 0.386179 0.602968 0.364638
Si Si4 0.258140 0.253608 0.896991
Si Si5 0.162136 0.620940 0.002163
Si Si6 0.000000 0.674936 0.457685
Si Si7 0.000000 0.133921 0.250000
Si Si8 0.357368 0.622303 0.677057
O O1 0.000000 0.659921 0.382039
O O2 0.929002 0.805555 0.325362
O O3 0.000000 0.685216 0.250000
O O4 0.929640 0.871306 0.571100
O O5 0.000000 0.797812 0.472431
O O6 0.000000 0.000000 0.500000
O O7 0.311965 0.667076 0.363117
O O8 0.436980 0.629067 0.305526
O O9 0.371137 0.480926 0.362316
O O10 0.203203 0.319352 0.941176
O O11 0.210066 0.185796 0.850068
O O12 0.307475 0.178277 0.940254
O O13 0.074844 0.632283 0.012349
O O14 0.181153 0.500000 0.000000
O O15 0.346304 0.592807 0.750000
#
# Coordination Sequence:
#
# PCOD9474388 Si02
#       8
#     8   8  16  16  16   8   4  16
#     4  10  21  38  62  91 122 156 210 257 308 369
#     4  11  23  34  66  95 123 161 210 270 312 369
#     4  11  22  40  60  93 128 162 206 254 318 369
#     4  11  24  40  61  91 128 158 203 258 315 380
#     4  11  24  42  62  89 123 163 205 255 316 377
#     4  12  20  43  60  93 121 169 215 253 320 374
#     4  10  22  40  62  88 124 166 206 252 298 368
#     4  11  22  37  63  91 123 167 206 258 313 370
#
# _framework density 18.316255999999999
#
# number of rings (size 3 to 8) (size 9 to 14) (size 15 to 20)
#    0.000    1.043    4.348    3.391    2.435    0.696 
#    0.000    0.000    0.000    0.000    2.261    0.000 
#    0.000    0.000    0.000    0.000    0.000    0.000 
#
# Total GULP energy -256475.031098 kJ/mol
# GULP energy per Si atom -5575.544154 kJ/mol
# Density = 1.827457 g / cm^3
# Si number density = 18.316256 Si / 1000 Ang^3
#
#
#
# Elastic Constant Matrix: (Units=GPa)
#
#
# Indices 1 2 3 4 5 6 
#
# 1 121.6189 5.1091 21.7758 0.0000 0.0000 0.0000
# 2 5.1091 31.4029 -2.8092 0.0000 0.0000 0.0000
# 3 21.7758 -2.8092 51.3390 0.0000 0.0000 0.0000
# 4 0.0000 0.0000 0.0000 10.9654 0.0000 0.0000
# 5 0.0000 0.0000 0.0000 0.0000-2292.6643 0.0000
# 6 0.0000 0.0000 0.0000 0.0000 0.0000 6.5729
#
#
#
# Elastic Compliance Matrix: (Units=1/GPa)
#
#
# Indices 1 2 3 4 5 6 
#
# 1 0.009000 -0.001815 -0.003917 0.000000 0.000000 0.000000
# 2 -0.001815 0.032367 0.002541 0.000000 0.000000 0.000000
# 3 -0.003917 0.002541 0.021279 0.000000 0.000000 0.000000
# 4 0.000000 0.000000 0.000000 0.091196 0.000000 0.000000
# 5 0.000000 0.000000 0.000000 0.000000 -0.000436 0.000000
# 6 0.000000 0.000000 0.000000 0.000000 0.000000 0.152141
#
#
# Mechanical properties :
#
#
# Convention : Reuss Voigt Hill
#
# Bulk Modulus (GPa) = 17.77331 28.05692 22.91511
# Shear Modulus (GPa) = 15.12029 -443.00619 -213.94295
#
# Velocity S-wave (km/s) = 2.87629 -15.56888 -10.81936
# Velocity P-wave (km/s) = 4.55580 17.54524 11.98082
#
# Compressibility (1/GPa) = 0.05626415
#
# Stress axis : x y z
#
# Youngs Moduli (GPa) = 111.11224 30.89599 46.99544
#
# Poissons Ratio (x) = 0.05606 0.18407
# Poissons Ratio (y) = 0.20163 -0.11940
# Poissons Ratio (z) = 0.43519 -0.07850
#
# Static dielectric constant tensor:
#      x y z
#    x 1.616570 0.000000 0.000000 
#    y 0.000000 1.597850 0.000000 
#    z 0.000000 0.000000 1.625560 
# 
# From -- ./inp_files/55465.got.cif
#   From: 2010.05.17/outbox.cif.g08.bks.cpg/sg63_28_cif.got.tgz:55465.got - 2010.06.03 15:47:04.
