data_PCOD9474024
_publ_section_title
;
Structure prediction by ZEFSAII (Michael W. Deem and Ramdas Pophale) SiO2 
 PCOD9474024
Probable space group: C M C M
;
_chemical_formula_sum "Si O2"
_cell_formula_units_Z 80
_cell_length_a 26.008935
_cell_length_b 10.156147
_cell_length_c 14.303896
_cell_angle_alpha 90.000000
_cell_angle_beta 90.000000
_cell_angle_gamma 90.000000
_cell_volume 3778.382241
_symmetry_space_group_name_H-M "C M C M"
_symmetry_group_IT_number 63
_symmetry_cell_setting 'orthorhombic'
loop_
_space_group_symop_operation_xyz
x,y,z
-x,-y,1/2+z
x,-y,-z
-x,y,1/2-z
-x,-y,-z
x,y,1/2-z
-x,y,z
x,-y,1/2+z
1/2+x,1/2+y,z
1/2-x,1/2-y,1/2+z
1/2+x,1/2-y,-z
1/2-x,1/2+y,1/2-z
1/2-x,1/2-y,-z
1/2+x,1/2+y,1/2-z
1/2-x,1/2+y,z
1/2+x,1/2-y,1/2+z
loop_
_atom_site_type_symbol
_atom_site_label
_atom_site_fract_x
_atom_site_fract_y
_atom_site_fract_z
Si Si1 0.365102 0.219014 0.363511
Si Si2 0.220548 0.075112 0.864484
Si Si3 0.646208 0.353121 0.644133
Si Si4 0.660148 0.069000 0.635787
Si Si5 0.057727 0.051449 0.605085
O O1 0.365368 0.218520 0.250000
O O2 0.313450 0.298505 0.391783
O O3 0.413303 0.309043 0.391666
O O4 0.363591 0.068847 0.397036
O O5 0.219375 0.072582 0.750000
O O6 0.279789 0.075964 0.890732
O O7 0.190647 0.944418 0.898866
O O8 0.664328 0.327859 0.750000
O O9 0.636610 0.208565 0.603618
O O10 0.596195 0.444627 0.649140
O O11 0.656752 0.061754 0.750000
O O12 0.000000 0.057720 0.643226
O O13 0.054518 0.000000 0.500000
#
# Coordination Sequence:
#
# PCOD9474024 Si02
#       5
#    16  16  16  16  16
#     4   9  17  29  49  75  98 123 155 190 227 269
#     4   8  13  23  43  72 103 131 155 179 213 264
#     4   9  17  29  49  75  98 123 155 190 227 269
#     4   9  15  25  45  76 107 126 147 184 227 271
#     4  10  21  37  53  65  83 118 161 202 242 282
#
# _framework density 21.173082999999998
#
# number of rings (size 3 to 8) (size 9 to 14) (size 15 to 20)
#    0.000    3.000    0.000    3.000    0.000    6.400 
#    0.000    2.000    0.000   25.200    0.000    0.000 
#    0.000    0.000    0.000    0.000    0.000    0.000 
#
# Total GULP energy -223206.378914 kJ/mol
# GULP energy per Si atom -5580.159473 kJ/mol
# Density = 2.112489 g / cm^3
# Si number density = 21.173083 Si / 1000 Ang^3
#
#
#
# Elastic Constant Matrix: (Units=GPa)
#
#
# Indices 1 2 3 4 5 6 
#
# 1 115.0476 79.4490 -8.5697 0.0000 0.0000 0.0000
# 2 79.4490 219.5672 9.8109 0.0000 0.0000 0.0000
# 3 -8.5697 9.8109 53.3116 0.0000 0.0000 0.0000
# 4 0.0000 0.0000 0.0000 22.4378 0.0000 0.0000
# 5 0.0000 0.0000 0.0000 0.0000 11.5515 0.0000
# 6 0.0000 0.0000 0.0000 0.0000 0.0000 3.3733
#
#
#
# Elastic Compliance Matrix: (Units=1/GPa)
#
#
# Indices 1 2 3 4 5 6 
#
# 1 0.011973 -0.004455 0.002744 0.000000 0.000000 0.000000
# 2 -0.004455 0.006250 -0.001866 0.000000 0.000000 0.000000
# 3 0.002744 -0.001866 0.019542 0.000000 0.000000 0.000000
# 4 0.000000 0.000000 0.000000 0.044568 0.000000 0.000000
# 5 0.000000 0.000000 0.000000 0.000000 0.086569 0.000000
# 6 0.000000 0.000000 0.000000 0.000000 0.000000 0.296447
#
#
# Mechanical properties :
#
#
# Convention : Reuss Voigt Hill
#
# Bulk Modulus (GPa) = 32.66747 61.03410 46.85078
# Shear Modulus (GPa) = 10.35826 27.95493 19.15659
#
# Velocity S-wave (km/s) = 2.21423 3.63754 3.01119
# Velocity P-wave (km/s) = 4.69035 6.82137 5.85365
#
# Compressibility (1/GPa) = 0.03061149
#
# Stress axis : x y z
#
# Youngs Moduli (GPa) = 83.52139 160.00482 51.17115
#
# Poissons Ratio (x) = 0.71282 -0.14044
# Poissons Ratio (y) = 0.37209 0.09550
# Poissons Ratio (z) = -0.22922 0.29861
#
# Static dielectric constant tensor:
#      x y z
#    x 1.712110 0.000000 0.000000 
#    y 0.000000 1.785460 0.000000 
#    z 0.000000 0.000000 1.925690 
# 
# From -- ./inp_files/48807.got.cif
#   From: 2010.05.17/outbox.cif.g08.bks.cpg/sg63_25_cif.got.tgz:48807.got - 2010.06.03 15:47:04.
