data_PCOD9474513
_publ_section_title
;
Structure prediction by ZEFSAII (Michael W. Deem and Ramdas Pophale) SiO2 
 PCOD9474513
Probable space group: C M C M
;
_chemical_formula_sum "Si O2"
_cell_formula_units_Z 96
_cell_length_a 16.377868
_cell_length_b 12.061945
_cell_length_c 25.051646
_cell_angle_alpha 90.000000
_cell_angle_beta 90.000000
_cell_angle_gamma 90.000000
_cell_volume 4948.926189
_symmetry_space_group_name_H-M "C M C M"
_symmetry_group_IT_number 63
_symmetry_cell_setting 'orthorhombic'
loop_
_space_group_symop_operation_xyz
x,y,z
-x,-y,1/2+z
x,-y,-z
-x,y,1/2-z
-x,-y,-z
x,y,1/2-z
-x,y,z
x,-y,1/2+z
1/2+x,1/2+y,z
1/2-x,1/2-y,1/2+z
1/2+x,1/2-y,-z
1/2-x,1/2+y,1/2-z
1/2-x,1/2-y,-z
1/2+x,1/2+y,1/2-z
1/2-x,1/2+y,z
1/2+x,1/2-y,1/2+z
loop_
_atom_site_type_symbol
_atom_site_label
_atom_site_fract_x
_atom_site_fract_y
_atom_site_fract_z
Si Si1 0.406642 0.966086 0.437800
Si Si2 0.408027 0.593084 0.650135
Si Si3 0.146896 0.324118 0.869461
Si Si4 0.706750 0.760880 0.442124
Si Si5 0.204871 0.646051 0.250000
Si Si6 0.288195 0.599740 0.750000
Si Si7 0.902383 0.942500 0.946685
O O1 0.500000 0.925597 0.426940
O O2 0.332643 0.879646 0.429851
O O3 0.404182 0.000000 0.500000
O O4 0.388579 0.072322 0.401272
O O5 0.500000 0.561813 0.666466
O O6 0.408961 0.715703 0.625484
O O7 0.346109 0.596215 0.698569
O O8 0.376411 0.510076 0.605165
O O9 0.231451 0.284936 0.897349
O O10 0.157682 0.349804 0.806620
O O11 0.750000 0.750000 0.500000
O O12 0.629535 0.680280 0.444360
O O13 0.243379 0.520864 0.250000
O O14 0.249069 0.771879 0.250000
O O15 0.000000 0.946813 0.948173
O O16 0.869397 0.000000 0.000000
#
# Coordination Sequence:
#
# PCOD9474513 Si02
#       7
#    16  16  16  16   8   8  16
#     4  11  25  43  62  91 133 173 210 261 327 390
#     4  10  21  39  63  89 119 157 204 254 307 370
#     4  11  24  40  66  94 125 166 211 267 313 385
#     4  12  24  37  62  92 126 164 212 257 313 383
#     4  10  24  40  64  94 130 163 213 269 325 373
#     4  10  21  40  62  94 119 163 203 263 312 373
#     4  10  22  37  57  84 123 161 197 249 308 368
#
# _framework density 19.398147000000002
#
# number of rings (size 3 to 8) (size 9 to 14) (size 15 to 20)
#    0.000    1.333    1.667    3.250    9.333    0.000 
#    0.000    1.250    0.000    0.000    0.000    0.000 
#    0.000    0.000    0.000    0.000    0.000    0.000 
#
# Total GULP energy -267689.677713 kJ/mol
# GULP energy per Si atom -5576.868286 kJ/mol
# Density = 1.935400 g / cm^3
# Si number density = 19.398147 Si / 1000 Ang^3
#
#
#
# Elastic Constant Matrix: (Units=GPa)
#
#
# Indices 1 2 3 4 5 6 
#
# 1 38.3638 11.5582 14.3321 0.0000 0.0000 0.0000
# 2 11.5582 107.6752 23.9399 0.0000 0.0000 0.0000
# 3 14.3321 23.9399 103.7721 0.0000 0.0000 0.0000
# 4 0.0000 0.0000 0.0000 34.6205 0.0000 0.0000
# 5 0.0000 0.0000 0.0000 0.0000 0.0050 0.0000
# 6 0.0000 0.0000 0.0000 0.0000 0.0000 33.9187
#
#
#
# Elastic Compliance Matrix: (Units=1/GPa)
#
#
# Indices 1 2 3 4 5 6 
#
# 1 0.027997 -0.002262 -0.003345 0.000000 0.000000 0.000000
# 2 -0.002262 0.009972 -0.001988 0.000000 0.000000 0.000000
# 3 -0.003345 -0.001988 0.010557 0.000000 0.000000 0.000000
# 4 0.000000 0.000000 0.000000 0.028885 0.000000 0.000000
# 5 0.000000 0.000000 0.000000 0.000000200.083523 0.000000
# 6 0.000000 0.000000 0.000000 0.000000 0.000000 0.029482
#
#
# Mechanical properties :
#
#
# Convention : Reuss Voigt Hill
#
# Bulk Modulus (GPa) = 29.99681 38.83019 34.41350
# Shear Modulus (GPa) = 0.02497 27.04089 13.53293
#
# Velocity S-wave (km/s) = 0.11359 3.73767 2.64415
# Velocity P-wave (km/s) = 3.93885 6.21996 5.20588
#
# Compressibility (1/GPa) = 0.03333688
#
# Stress axis : x y z
#
# Youngs Moduli (GPa) = 35.71773 100.28083 94.72258
#
# Poissons Ratio (x) = 0.22680 0.31685
# Poissons Ratio (y) = 0.08078 0.18832
# Poissons Ratio (z) = 0.11948 0.19937
#
# Static dielectric constant tensor:
#      x y z
#    x 1.705700 0.000000 0.000000 
#    y 0.000000 1.699960 0.000000 
#    z 0.000000 0.000000 1.655680 
# 
# From -- ./inp_files/63735.got.cif
#   From: 2010.05.17/outbox.cif.g08.bks.cpg/sg63_32_cif.got.tgz:63735.got - 2010.06.03 15:47:04.
