data_PCOD9474923
_publ_section_title
;
Structure prediction by ZEFSAII (Michael W. Deem and Ramdas Pophale) SiO2 
 PCOD9474923
Probable space group: C M C M
;
_chemical_formula_sum "Si O2"
_cell_formula_units_Z 72
_cell_length_a 13.800846
_cell_length_b 30.993528
_cell_length_c 8.971429
_cell_angle_alpha 90.000000
_cell_angle_beta 90.000000
_cell_angle_gamma 90.000000
_cell_volume 3837.411291
_symmetry_space_group_name_H-M "C M C M"
_symmetry_group_IT_number 63
_symmetry_cell_setting 'orthorhombic'
loop_
_space_group_symop_operation_xyz
x,y,z
-x,-y,1/2+z
x,-y,-z
-x,y,1/2-z
-x,-y,-z
x,y,1/2-z
-x,y,z
x,-y,1/2+z
1/2+x,1/2+y,z
1/2-x,1/2-y,1/2+z
1/2+x,1/2-y,-z
1/2-x,1/2+y,1/2-z
1/2-x,1/2-y,-z
1/2+x,1/2+y,1/2-z
1/2-x,1/2+y,z
1/2+x,1/2-y,1/2+z
loop_
_atom_site_type_symbol
_atom_site_label
_atom_site_fract_x
_atom_site_fract_y
_atom_site_fract_z
Si Si1 0.360773 0.201175 0.420106
Si Si2 0.000000 0.547037 0.570415
Si Si3 0.826872 0.610892 0.930097
Si Si4 0.105551 0.878554 0.071058
Si Si5 0.869755 0.212191 0.420033
O O1 0.395179 0.199131 0.250000
O O2 0.368280 0.155448 0.502391
O O3 0.246194 0.210167 0.414114
O O4 0.399001 0.242292 0.509859
O O5 0.000000 0.500000 0.500000
O O6 0.097445 0.573464 0.527954
O O7 0.000000 0.543844 0.750000
O O8 0.826497 0.614647 0.750000
O O9 0.713183 0.604786 0.978282
O O10 0.106536 0.881060 0.250000
O O11 0.000000 0.897579 0.021007
O O12 0.103165 0.828821 0.019397
O O13 0.901649 0.207379 0.250000
#
# Coordination Sequence:
#
# PCOD9474923 Si02
#       5
#    16   8  16  16  16
#     4   9  16  27  45  69  98 134 177 219 256 296
#     4  10  22  40  62  84 104 128 162 208 264 322
#     4   9  18  34  54  76 101 130 166 209 259 311
#     4   9  17  30  49  73 102 136 174 212 250 297
#     4   9  16  26  42  66  99 140 180 217 253 291
#
# _framework density 18.762647999999999
#
# number of rings (size 3 to 8) (size 9 to 14) (size 15 to 20)
#    0.000    2.889    0.000    1.333    0.000    6.667 
#    2.000    0.000    0.000    0.667    0.000    0.000 
#    0.000    0.000    0.000    0.000    0.000    0.000 
#
# Total GULP energy -200427.660212 kJ/mol
# GULP energy per Si atom -5567.435006 kJ/mol
# Density = 1.871994 g / cm^3
# Si number density = 18.762648 Si / 1000 Ang^3
#
#
#
# Elastic Constant Matrix: (Units=GPa)
#
#
# Indices 1 2 3 4 5 6 
#
# 1 182.7796 61.5594 12.2295 0.0000 0.0000 0.0000
# 2 61.5594 111.7902 23.2006 0.0000 0.0000 0.0000
# 3 12.2295 23.2006 17.4867 0.0000 0.0000 0.0000
# 4 0.0000 0.0000 0.0000 26.4630 0.0000 0.0000
# 5 0.0000 0.0000 0.0000 0.0000 -16.0184 0.0000
# 6 0.0000 0.0000 0.0000 0.0000 0.0000 28.6842
#
#
#
# Elastic Compliance Matrix: (Units=1/GPa)
#
#
# Indices 1 2 3 4 5 6 
#
# 1 0.006718 -0.003759 0.000290 0.000000 0.000000 0.000000
# 2 -0.003759 0.014448 -0.016540 0.000000 0.000000 0.000000
# 3 0.000290 -0.016540 0.078928 0.000000 0.000000 0.000000
# 4 0.000000 0.000000 0.000000 0.037789 0.000000 0.000000
# 5 0.000000 0.000000 0.000000 0.000000 -0.062428 0.000000
# 6 0.000000 0.000000 0.000000 0.000000 0.000000 0.034862
#
#
# Mechanical properties :
#
#
# Convention : Reuss Voigt Hill
#
# Bulk Modulus (GPa) = 16.64595 56.22617 36.43606
# Shear Modulus (GPa) = 29.34938 22.16357 25.75647
#
# Velocity S-wave (km/s) = 3.95934 3.44068 3.70909
# Velocity P-wave (km/s) = 5.45830 6.76879 6.14855
#
# Compressibility (1/GPa) = 0.06007466
#
# Stress axis : x y z
#
# Youngs Moduli (GPa) = 148.85711 69.21281 12.66974
#
# Poissons Ratio (x) = 0.26020 -0.00367
# Poissons Ratio (y) = 0.55962 0.20956
# Poissons Ratio (z) = -0.04312 1.14478
#
# Static dielectric constant tensor:
#      x y z
#    x 1.760960 0.000000 0.000000 
#    y 0.000000 1.588330 0.000000 
#    z 0.000000 0.000000 1.633430 
# 
# From -- ./inp_files/4635.got.cif
#   From: 2010.05.17/outbox.cif.g08.bks.cpg/sg63_3_cif.got.tgz:4635.got - 2010.06.03 15:47:04.
