data_PCOD9474001
_publ_section_title
;
Structure prediction by ZEFSAII (Michael W. Deem and Ramdas Pophale) SiO2 
 PCOD9474001
Probable space group: C M C M
;
_chemical_formula_sum "Si O2"
_cell_formula_units_Z 88
_cell_length_a 18.428876
_cell_length_b 9.615305
_cell_length_c 26.501099
_cell_angle_alpha 90.000000
_cell_angle_beta 90.000000
_cell_angle_gamma 90.000000
_cell_volume 4695.975226
_symmetry_space_group_name_H-M "C M C M"
_symmetry_group_IT_number 63
_symmetry_cell_setting 'orthorhombic'
loop_
_space_group_symop_operation_xyz
x,y,z
-x,-y,1/2+z
x,-y,-z
-x,y,1/2-z
-x,-y,-z
x,y,1/2-z
-x,y,z
x,-y,1/2+z
1/2+x,1/2+y,z
1/2-x,1/2-y,1/2+z
1/2+x,1/2-y,-z
1/2-x,1/2+y,1/2-z
1/2-x,1/2-y,-z
1/2+x,1/2+y,1/2-z
1/2-x,1/2+y,z
1/2+x,1/2-y,1/2+z
loop_
_atom_site_type_symbol
_atom_site_label
_atom_site_fract_x
_atom_site_fract_y
_atom_site_fract_z
Si Si1 0.630855 0.829196 0.807994
Si Si2 0.632408 0.143689 0.807861
Si Si3 0.667236 0.466548 0.940542
Si Si4 0.745904 0.725396 0.885807
Si Si5 0.500000 0.349334 0.691102
Si Si6 0.500000 0.345744 0.350650
Si Si7 0.000000 0.000704 0.939662
O O1 0.652579 0.800290 0.750000
O O2 0.695467 0.811857 0.847484
O O3 0.569108 0.724666 0.825879
O O4 0.602549 0.987036 0.809749
O O5 0.659165 0.165095 0.750000
O O6 0.693983 0.158459 0.849363
O O7 0.570272 0.255533 0.818005
O O8 0.699124 0.602807 0.911820
O O9 0.714399 0.332515 0.923807
O O10 0.581521 0.442336 0.928031
O O11 0.673181 0.500000 0.000000
O O12 0.500000 0.387830 0.750000
O O13 0.500000 0.490976 0.660940
O O14 0.500000 0.348553 0.411555
O O15 0.000000 0.000000 0.000000
#
# Coordination Sequence:
#
# PCOD9474001 Si02
#       7
#    16  16  16  16   8   8   8
#     4  11  23  38  59  90 127 167 207 259 320 387
#     4  10  22  39  58  86 127 170 208 254 318 386
#     4  11  24  43  68  93 125 166 215 270 327 384
#     4  12  22  41  62  92 124 163 212 262 323 382
#     4  10  21  36  59  88 119 164 213 257 308 381
#     4  12  21  39  63  92 124 166 218 264 320 378
#     4  10  22  41  64  92 124 162 210 263 319 379
#
# _framework density 18.739452
#
# number of rings (size 3 to 8) (size 9 to 14) (size 15 to 20)
#    0.000    1.091    3.636    3.545    0.000    1.455 
#    0.000    0.000    0.000    0.000    0.000   10.182 
#    0.000    0.000    0.000    0.000    0.000    0.000 
#
# Total GULP energy -245451.634010 kJ/mol
# GULP energy per Si atom -5578.446228 kJ/mol
# Density = 1.869680 g / cm^3
# Si number density = 18.739452 Si / 1000 Ang^3
#
#
#
# Elastic Constant Matrix: (Units=GPa)
#
#
# Indices 1 2 3 4 5 6 
#
# 1 100.6148 34.6220 52.9134 0.0000 0.0000 0.0000
# 2 34.6220 103.4704 51.7850 0.0000 0.0000 0.0000
# 3 52.9134 51.7850 116.0057 0.0000 0.0000 0.0000
# 4 0.0000 0.0000 0.0000 32.2284 0.0000 0.0000
# 5 0.0000 0.0000 0.0000 0.0000 29.9071 0.0000
# 6 0.0000 0.0000 0.0000 0.0000 0.0000 21.3508
#
#
#
# Elastic Compliance Matrix: (Units=1/GPa)
#
#
# Indices 1 2 3 4 5 6 
#
# 1 0.013338 -0.001826 -0.005269 0.000000 0.000000 0.000000
# 2 -0.001826 0.012695 -0.004834 0.000000 0.000000 0.000000
# 3 -0.005269 -0.004834 0.013181 0.000000 0.000000 0.000000
# 4 0.000000 0.000000 0.000000 0.031029 0.000000 0.000000
# 5 0.000000 0.000000 0.000000 0.000000 0.033437 0.000000
# 6 0.000000 0.000000 0.000000 0.000000 0.000000 0.046837
#
#
# Mechanical properties :
#
#
# Convention : Reuss Voigt Hill
#
# Bulk Modulus (GPa) = 65.11839 66.52575 65.82207
# Shear Modulus (GPa) = 27.85619 28.74862 28.30241
#
# Velocity S-wave (km/s) = 3.85970 3.92104 3.89049
# Velocity P-wave (km/s) = 7.39512 7.48845 7.44193
#
# Compressibility (1/GPa) = 0.01535664
#
# Stress axis : x y z
#
# Youngs Moduli (GPa) = 74.97330 78.77104 75.86450
#
# Poissons Ratio (x) = 0.14385 0.39971
# Poissons Ratio (y) = 0.13691 0.36674
# Poissons Ratio (z) = 0.39501 0.38079
#
# Static dielectric constant tensor:
#      x y z
#    x 1.655660 0.000000 0.000000 
#    y 0.000000 1.624690 0.000000 
#    z 0.000000 0.000000 1.714020 
# 
# From -- ./inp_files/73836.got.cif
#   From: 2010.05.17/outbox.cif.g08.bks.cpg/sg63_37_cif.got.tgz:73836.got - 2010.06.03 15:47:04.
