data_PCOD9474404
_publ_section_title
;
Structure prediction by ZEFSAII (Michael W. Deem and Ramdas Pophale) SiO2 
 PCOD9474404
Probable space group: C M C M
;
_chemical_formula_sum "Si O2"
_cell_formula_units_Z 68
_cell_length_a 10.752672
_cell_length_b 19.933118
_cell_length_c 15.047723
_cell_angle_alpha 90.000000
_cell_angle_beta 90.000000
_cell_angle_gamma 90.000000
_cell_volume 3225.242872
_symmetry_space_group_name_H-M "C M C M"
_symmetry_group_IT_number 63
_symmetry_cell_setting 'orthorhombic'
loop_
_space_group_symop_operation_xyz
x,y,z
-x,-y,1/2+z
x,-y,-z
-x,y,1/2-z
-x,-y,-z
x,y,1/2-z
-x,y,z
x,-y,1/2+z
1/2+x,1/2+y,z
1/2-x,1/2-y,1/2+z
1/2+x,1/2-y,-z
1/2-x,1/2+y,1/2-z
1/2-x,1/2-y,-z
1/2+x,1/2+y,1/2-z
1/2-x,1/2+y,z
1/2+x,1/2-y,1/2+z
loop_
_atom_site_type_symbol
_atom_site_label
_atom_site_fract_x
_atom_site_fract_y
_atom_site_fract_z
Si Si1 0.857309 0.904646 0.398994
Si Si2 0.211425 0.872258 0.900485
Si Si3 0.637425 0.996865 0.607583
Si Si4 0.000000 0.877759 0.750000
Si Si5 0.357554 0.250225 0.145761
O O1 0.840707 0.898610 0.505471
O O2 0.751577 0.955203 0.364885
O O3 0.835429 0.829590 0.363606
O O4 0.000000 0.925107 0.377682
O O5 0.263994 0.797099 0.907091
O O6 0.107070 0.876175 0.827249
O O7 0.324150 0.920971 0.871940
O O8 0.500000 0.015037 0.640892
O O9 0.632109 0.000000 0.500000
O O10 0.346471 0.232927 0.250000
O O11 0.500000 0.238546 0.116622
#
# Coordination Sequence:
#
# PCOD9474404 Si02
#       5
#    16  16  16   4  16
#     4  10  21  38  63  88 120 160 201 245 303 365
#     4  11  21  39  60  86 121 158 204 250 297 362
#     4   9  20  38  62  89 117 153 198 246 299 362
#     4  12  24  36  56  96 122 156 204 254 308 346
#     4  10  21  39  58  85 116 155 199 251 304 359
#
# _framework density 21.083682
#
# number of rings (size 3 to 8) (size 9 to 14) (size 15 to 20)
#    0.000    1.882    2.353    1.412    1.647    2.353 
#    4.235    0.000    0.000    0.000    0.000    0.000 
#    0.000    0.000    0.000    0.000    0.000    0.000 
#
# Total GULP energy -189410.936059 kJ/mol
# GULP energy per Si atom -5570.909884 kJ/mol
# Density = 2.103569 g / cm^3
# Si number density = 21.083682 Si / 1000 Ang^3
#
#
#
# Elastic Constant Matrix: (Units=GPa)
#
#
# Indices 1 2 3 4 5 6 
#
# 1 155.1257 63.5592 10.5856 0.0000 0.0000 0.0000
# 2 63.5592 73.3283 1.8777 0.0000 0.0000 0.0000
# 3 10.5856 1.8777 54.0078 0.0000 0.0000 0.0000
# 4 0.0000 0.0000 0.0000 -35.3859 0.0000 0.0000
# 5 0.0000 0.0000 0.0000 0.0000 20.9959 0.0000
# 6 0.0000 0.0000 0.0000 0.0000 0.0000 -5.4355
#
#
#
# Elastic Compliance Matrix: (Units=1/GPa)
#
#
# Indices 1 2 3 4 5 6 
#
# 1 0.010147 -0.008752 -0.001685 0.000000 0.000000 0.000000
# 2 -0.008752 0.021199 0.000978 0.000000 0.000000 0.000000
# 3 -0.001685 0.000978 0.018812 0.000000 0.000000 0.000000
# 4 0.000000 0.000000 0.000000 -0.028260 0.000000 0.000000
# 5 0.000000 0.000000 0.000000 0.000000 0.047628 0.000000
# 6 0.000000 0.000000 0.000000 0.000000 0.000000 -0.183976
#
#
# Mechanical properties :
#
#
# Convention : Reuss Voigt Hill
#
# Bulk Modulus (GPa) = 32.00925 48.27854 40.14390
# Shear Modulus (GPa) = -58.74151 9.79752 -24.47199
#
# Velocity S-wave (km/s) = -5.28409 2.15802 -3.41061
# Velocity P-wave (km/s) = 4.69189 5.39978 1.88995
#
# Compressibility (1/GPa) = 0.03124097
#
# Stress axis : x y z
#
# Youngs Moduli (GPa) = 98.54693 47.17286 53.15747
#
# Poissons Ratio (x) = 0.41288 0.08955
# Poissons Ratio (y) = 0.86252 -0.05201
# Poissons Ratio (z) = 0.16601 -0.04616
#
# Static dielectric constant tensor:
#      x y z
#    x 1.742260 0.000000 0.000000 
#    y 0.000000 1.758620 0.000000 
#    z 0.000000 0.000000 1.396740 
# 
# From -- ./inp_files/39954.got.cif
#   From: 2010.05.17/outbox.cif.g08.bks.cpg/sg63_20_cif.got.tgz:39954.got - 2010.06.03 15:47:04.
