data_PCOD9474854
_publ_section_title
;
Structure prediction by ZEFSAII (Michael W. Deem and Ramdas Pophale) SiO2 
 PCOD9474854
Probable space group: C M C M
;
_chemical_formula_sum "Si O2"
_cell_formula_units_Z 96
_cell_length_a 22.536588
_cell_length_b 26.039557
_cell_length_c 7.785716
_cell_angle_alpha 90.000000
_cell_angle_beta 90.000000
_cell_angle_gamma 90.000000
_cell_volume 4568.991127
_symmetry_space_group_name_H-M "C M C M"
_symmetry_group_IT_number 63
_symmetry_cell_setting 'orthorhombic'
loop_
_space_group_symop_operation_xyz
x,y,z
-x,-y,1/2+z
x,-y,-z
-x,y,1/2-z
-x,-y,-z
x,y,1/2-z
-x,y,z
x,-y,1/2+z
1/2+x,1/2+y,z
1/2-x,1/2-y,1/2+z
1/2+x,1/2-y,-z
1/2-x,1/2+y,1/2-z
1/2-x,1/2-y,-z
1/2+x,1/2+y,1/2-z
1/2-x,1/2+y,z
1/2+x,1/2-y,1/2+z
loop_
_atom_site_type_symbol
_atom_site_label
_atom_site_fract_x
_atom_site_fract_y
_atom_site_fract_z
Si Si1 0.705721 0.845837 0.453573
Si Si2 0.662904 0.639875 0.549581
Si Si3 0.373442 0.248389 0.547108
Si Si4 0.870739 0.555687 0.045208
Si Si5 0.500000 0.797463 0.956215
Si Si6 0.432798 0.440918 0.042825
Si Si7 0.000000 0.417162 0.540923
O O1 0.712564 0.836429 0.250000
O O2 0.771028 0.856385 0.527543
O O3 0.671322 0.795642 0.521944
O O4 0.665715 0.896164 0.476389
O O5 0.670408 0.625561 0.750000
O O6 0.636212 0.696791 0.538580
O O7 0.616702 0.598509 0.475713
O O8 0.362820 0.254951 0.750000
O O9 0.440153 0.228674 0.521131
O O10 0.872120 0.560931 0.250000
O O11 0.938550 0.558747 0.978363
O O12 0.845312 0.500000 0.000000
O O13 0.500000 0.795194 0.750000
O O14 0.500000 0.857238 0.006594
O O15 0.434621 0.436166 0.250000
O O16 0.500000 0.430065 0.979465
O O17 0.418787 0.500000 0.000000
O O18 0.000000 0.420336 0.750000
#
# Coordination Sequence:
#
# PCOD9474854 Si02
#       7
#    16  16  16  16   8  16   8
#     4  10  22  40  58  82 119 158 196 242 292 345
#     4  10  22  39  61  87 117 156 197 235 285 352
#     4  11  23  38  58  89 122 152 194 243 294 344
#     4  11  22  38  59  85 115 152 200 248 299 355
#     4  11  21  38  62  86 116 155 198 241 291 352
#     4   9  19  37  60  85 112 144 185 232 285 341
#     4   9  19  36  58  84 111 148 198 244 293 352
#
# _framework density 21.011202999999998
#
# number of rings (size 3 to 8) (size 9 to 14) (size 15 to 20)
#    0.000    1.833    1.667    2.000    1.167    2.667 
#    0.000    2.917    0.000    0.000    0.000    0.000 
#    0.000    0.000    0.000    0.000    0.000    0.000 
#
# Total GULP energy -268166.324570 kJ/mol
# GULP energy per Si atom -5586.798429 kJ/mol
# Density = 2.096338 g / cm^3
# Si number density = 21.011203 Si / 1000 Ang^3
#
#
#
# Elastic Constant Matrix: (Units=GPa)
#
#
# Indices 1 2 3 4 5 6 
#
# 1 156.0595 89.7865 -0.1430 0.0000 0.0000 0.0000
# 2 89.7865 130.0536 -17.9838 0.0000 0.0000 0.0000
# 3 -0.1430 -17.9838 30.1930 0.0000 0.0000 0.0000
# 4 0.0000 0.0000 0.0000 20.5615 0.0000 0.0000
# 5 0.0000 0.0000 0.0000 0.0000 5.2695 0.0000
# 6 0.0000 0.0000 0.0000 0.0000 0.0000 -9.0439
#
#
#
# Elastic Compliance Matrix: (Units=1/GPa)
#
#
# Indices 1 2 3 4 5 6 
#
# 1 0.011282 -0.008480 -0.004997 0.000000 0.000000 0.000000
# 2 -0.008480 0.014753 0.008747 0.000000 0.000000 0.000000
# 3 -0.004997 0.008747 0.038307 0.000000 0.000000 0.000000
# 4 0.000000 0.000000 0.000000 0.048635 0.000000 0.000000
# 5 0.000000 0.000000 0.000000 0.000000 0.189770 0.000000
# 6 0.000000 0.000000 0.000000 0.000000 0.000000 -0.110572
#
#
# Mechanical properties :
#
#
# Convention : Reuss Voigt Hill
#
# Bulk Modulus (GPa) = 18.22113 51.06951 34.64532
# Shear Modulus (GPa) = 22.73465 19.66718 21.20092
#
# Velocity S-wave (km/s) = 3.29298 3.06279 3.17997
# Velocity P-wave (km/s) = 4.81137 6.07175 5.47793
#
# Compressibility (1/GPa) = 0.05488133
#
# Stress axis : x y z
#
# Youngs Moduli (GPa) = 88.63637 67.78237 26.10513
#
# Poissons Ratio (x) = 0.57479 0.13046
# Poissons Ratio (y) = 0.75163 -0.22835
# Poissons Ratio (z) = 0.44296 -0.59290
#
# Static dielectric constant tensor:
#      x y z
#    x 1.768470 0.000000 0.000000 
#    y 0.000000 1.722240 0.000000 
#    z 0.000000 0.000000 1.774940 
# 
# From -- ./inp_files/10556.got.cif
#   From: 2010.05.17/outbox.cif.g08.bks.cpg/sg63_6_cif.got.tgz:10556.got - 2010.06.03 15:47:04.
