data_PCOD9474859
_publ_section_title
;
Structure prediction by ZEFSAII (Michael W. Deem and Ramdas Pophale) SiO2 
 PCOD9474859
Probable space group: C M C M
;
_chemical_formula_sum "Si O2"
_cell_formula_units_Z 68
_cell_length_a 7.592449
_cell_length_b 30.730945
_cell_length_c 14.706435
_cell_angle_alpha 90.000000
_cell_angle_beta 90.000000
_cell_angle_gamma 90.000000
_cell_volume 3431.351484
_symmetry_space_group_name_H-M "C M C M"
_symmetry_group_IT_number 63
_symmetry_cell_setting 'orthorhombic'
loop_
_space_group_symop_operation_xyz
x,y,z
-x,-y,1/2+z
x,-y,-z
-x,y,1/2-z
-x,-y,-z
x,y,1/2-z
-x,y,z
x,-y,1/2+z
1/2+x,1/2+y,z
1/2-x,1/2-y,1/2+z
1/2+x,1/2-y,-z
1/2-x,1/2+y,1/2-z
1/2-x,1/2-y,-z
1/2+x,1/2+y,1/2-z
1/2-x,1/2+y,z
1/2+x,1/2-y,1/2+z
loop_
_atom_site_type_symbol
_atom_site_label
_atom_site_fract_x
_atom_site_fract_y
_atom_site_fract_z
Si Si1 0.302621 0.836534 0.250000
Si Si2 0.210230 0.206560 0.442388
Si Si3 0.803293 0.259036 0.750000
Si Si4 0.787930 0.970940 0.409454
Si Si5 0.297125 0.372988 0.058156
Si Si6 0.500000 0.012345 0.750000
O O1 0.500000 0.855188 0.250000
O O2 0.311625 0.784410 0.250000
O O3 0.211956 0.852680 0.341254
O O4 0.250000 0.250000 0.500000
O O5 0.275923 0.213552 0.340628
O O6 0.283073 0.163545 0.491903
O O7 0.000000 0.203245 0.439221
O O8 0.000000 0.241052 0.750000
O O9 0.728360 0.921723 0.435273
O O10 0.000000 0.969806 0.383756
O O11 0.774371 0.000000 0.500000
O O12 0.657412 0.986262 0.329869
O O13 0.500000 0.377805 0.030114
#
# Coordination Sequence:
#
# PCOD9474859 Si02
#       6
#     8  16   8  16  16   4
#     4  12  23  33  57  92 120 153 201 257 315 365
#     4  11  22  38  59  84 118 160 202 251 305 366
#     4  12  24  39  56  81 120 163 209 258 300 358
#     4  10  23  44  68  97 133 173 213 264 332 398
#     4  10  22  39  61  88 121 159 201 253 312 371
#     4  12  22  40  70 106 132 164 212 282 326 378
#
# _framework density 19.817264000000002
#
# number of rings (size 3 to 8) (size 9 to 14) (size 15 to 20)
#    0.000    1.176    2.353    4.235    3.294    2.824 
#    0.000    1.176    2.588    5.647    0.000    0.000 
#    0.000    0.000    0.000    0.000    0.000    0.000 
#
# Total GULP energy -189275.570333 kJ/mol
# GULP energy per Si atom -5566.928539 kJ/mol
# Density = 1.977216 g / cm^3
# Si number density = 19.817264 Si / 1000 Ang^3
#
#
#
# Elastic Constant Matrix: (Units=GPa)
#
#
# Indices 1 2 3 4 5 6 
#
# 1 114.4981 11.0110 30.1084 0.0000 0.0000 0.0000
# 2 11.0110 65.1300 58.3732 0.0000 0.0000 0.0000
# 3 30.1084 58.3732 163.5037 0.0000 0.0000 0.0000
# 4 0.0000 0.0000 0.0000 -4.2193 0.0000 0.0000
# 5 0.0000 0.0000 0.0000 0.0000 40.0925 0.0000
# 6 0.0000 0.0000 0.0000 0.0000 0.0000 15.2553
#
#
#
# Elastic Compliance Matrix: (Units=1/GPa)
#
#
# Indices 1 2 3 4 5 6 
#
# 1 0.009178 -0.000054 -0.001671 0.000000 0.000000 0.000000
# 2 -0.000054 0.022579 -0.008051 0.000000 0.000000 0.000000
# 3 -0.001671 -0.008051 0.009298 0.000000 0.000000 0.000000
# 4 0.000000 0.000000 0.000000 -0.237009 0.000000 0.000000
# 5 0.000000 0.000000 0.000000 0.000000 0.024942 0.000000
# 6 0.000000 0.000000 0.000000 0.000000 0.000000 0.065551
#
#
# Mechanical properties :
#
#
# Convention : Reuss Voigt Hill
#
# Bulk Modulus (GPa) = 46.50476 60.23523 53.37000
# Shear Modulus (GPa) = -63.49982 26.46832 -18.51575
#
# Velocity S-wave (km/s) = -5.66677 3.65858 -3.05999
# Velocity P-wave (km/s) = 4.39301 6.95041 3.80852
#
# Compressibility (1/GPa) = 0.02150317
#
# Stress axis : x y z
#
# Youngs Moduli (GPa) = 108.95229 44.28930 107.54948
#
# Poissons Ratio (x) = 0.00240 0.17969
# Poissons Ratio (y) = 0.00591 0.86588
# Poissons Ratio (z) = 0.18203 0.35657
#
# Static dielectric constant tensor:
#      x y z
#    x 1.768210 0.000000 0.000000 
#    y 0.000000 1.691980 0.000000 
#    z 0.000000 0.000000 1.659360 
# 
# From -- ./inp_files/27834.got.cif
#   From: 2010.05.17/outbox.cif.g08.bks.cpg/sg63_14_cif.got.tgz:27834.got - 2010.06.03 15:47:04.
