data_PCOD9474916
_publ_section_title
;
Structure prediction by ZEFSAII (Michael W. Deem and Ramdas Pophale) SiO2 
 PCOD9474916
Probable space group: C M C M
;
_chemical_formula_sum "Si O2"
_cell_formula_units_Z 64
_cell_length_a 9.097039
_cell_length_b 9.958120
_cell_length_c 34.836568
_cell_angle_alpha 90.000000
_cell_angle_beta 90.000000
_cell_angle_gamma 90.000000
_cell_volume 3155.824002
_symmetry_space_group_name_H-M "C M C M"
_symmetry_group_IT_number 63
_symmetry_cell_setting 'orthorhombic'
loop_
_space_group_symop_operation_xyz
x,y,z
-x,-y,1/2+z
x,-y,-z
-x,y,1/2-z
-x,-y,-z
x,y,1/2-z
-x,y,z
x,-y,1/2+z
1/2+x,1/2+y,z
1/2-x,1/2-y,1/2+z
1/2+x,1/2-y,-z
1/2-x,1/2+y,1/2-z
1/2-x,1/2-y,-z
1/2+x,1/2+y,1/2-z
1/2-x,1/2+y,z
1/2+x,1/2-y,1/2+z
loop_
_atom_site_type_symbol
_atom_site_label
_atom_site_fract_x
_atom_site_fract_y
_atom_site_fract_z
Si Si1 0.826775 0.726475 0.705848
Si Si2 0.174078 0.044809 0.581815
Si Si3 0.671986 0.957160 0.660099
Si Si4 0.674391 0.188032 0.037464
O O1 0.779473 0.741686 0.750000
O O2 0.737104 0.821981 0.677680
O O3 0.812246 0.573623 0.691934
O O4 0.000000 0.761344 0.703333
O O5 0.243093 0.005783 0.622419
O O6 0.251485 0.950144 0.550354
O O7 0.000000 0.018801 0.581588
O O8 0.196582 0.200364 0.570827
O O9 0.500000 0.941235 0.650723
O O10 0.500000 0.171192 0.031476
O O11 0.750000 0.250000 0.000000
#
# Coordination Sequence:
#
# PCOD9474916 Si02
#       4
#    16  16  16  16
#     4  10  22  40  61  87 120 157 197 243 296 353
#     4  11  24  41  61  88 121 157 199 244 292 350
#     4  11  23  39  61  89 119 154 198 245 294 350
#     4  11  24  41  63  91 121 156 198 243 294 351
#
# _framework density 20.279964
#
# number of rings (size 3 to 8) (size 9 to 14) (size 15 to 20)
#    0.000    1.250    0.000    5.250    0.000   14.500 
#    0.000    0.000    0.000    0.000    0.000    0.000 
#    0.000    0.000    0.000    0.000    0.000    0.000 
#
# Total GULP energy -179099.478928 kJ/mol
# GULP energy per Si atom -5596.858717 kJ/mol
# Density = 2.023381 g / cm^3
# Si number density = 20.279964 Si / 1000 Ang^3
#
#
#
# Elastic Constant Matrix: (Units=GPa)
#
#
# Indices 1 2 3 4 5 6 
#
# 1 71.8392 27.9756 8.7009 0.0000 0.0000 0.0000
# 2 27.9756 55.5483 -21.4673 0.0000 0.0000 0.0000
# 3 8.7009 -21.4673 57.8320 0.0000 0.0000 0.0000
# 4 0.0000 0.0000 0.0000 29.4320 0.0000 0.0000
# 5 0.0000 0.0000 0.0000 0.0000 34.9087 0.0000
# 6 0.0000 0.0000 0.0000 0.0000 0.0000 32.8690
#
#
#
# Elastic Compliance Matrix: (Units=1/GPa)
#
#
# Indices 1 2 3 4 5 6 
#
# 1 0.019975 -0.013100 -0.007868 0.000000 0.000000 0.000000
# 2 -0.013100 0.029609 0.012962 0.000000 0.000000 0.000000
# 3 -0.007868 0.012962 0.023287 0.000000 0.000000 0.000000
# 4 0.000000 0.000000 0.000000 0.033977 0.000000 0.000000
# 5 0.000000 0.000000 0.000000 0.000000 0.028646 0.000000
# 6 0.000000 0.000000 0.000000 0.000000 0.000000 0.030424
#
#
# Mechanical properties :
#
#
# Convention : Reuss Voigt Hill
#
# Bulk Modulus (GPa) = 17.58775 23.95976 20.77375
# Shear Modulus (GPa) = 24.89013 30.77596 27.83305
#
# Velocity S-wave (km/s) = 3.50712 3.89981 3.70867
# Velocity P-wave (km/s) = 5.00911 5.66729 5.34833
#
# Compressibility (1/GPa) = 0.05685777
#
# Stress axis : x y z
#
# Youngs Moduli (GPa) = 50.06380 33.77300 42.94284
#
# Poissons Ratio (x) = 0.44244 0.33788
# Poissons Ratio (y) = 0.65586 -0.55663
# Poissons Ratio (z) = 0.39391 -0.43777
#
# Static dielectric constant tensor:
#      x y z
#    x 1.675250 0.000000 0.000000 
#    y 0.000000 1.688560 0.000000 
#    z 0.000000 0.000000 1.707980 
# 
# From -- ./inp_files/71343.got.cif
#   From: 2010.05.17/outbox.cif.g08.bks.cpg/sg63_36_cif.got.tgz:71343.got - 2010.06.03 15:47:04.
