data_PCOD9474689
_publ_section_title
;
Structure prediction by ZEFSAII (Michael W. Deem and Ramdas Pophale) SiO2 
 PCOD9474689
Probable space group: C M C M
;
_chemical_formula_sum "Si O2"
_cell_formula_units_Z 112
_cell_length_a 13.929502
_cell_length_b 17.928341
_cell_length_c 27.112558
_cell_angle_alpha 90.000000
_cell_angle_beta 90.000000
_cell_angle_gamma 90.000000
_cell_volume 6770.896700
_symmetry_space_group_name_H-M "C M C M"
_symmetry_group_IT_number 63
_symmetry_cell_setting 'orthorhombic'
loop_
_space_group_symop_operation_xyz
x,y,z
-x,-y,1/2+z
x,-y,-z
-x,y,1/2-z
-x,-y,-z
x,y,1/2-z
-x,y,z
x,-y,1/2+z
1/2+x,1/2+y,z
1/2-x,1/2-y,1/2+z
1/2+x,1/2-y,-z
1/2-x,1/2+y,1/2-z
1/2-x,1/2-y,-z
1/2+x,1/2+y,1/2-z
1/2-x,1/2+y,z
1/2+x,1/2-y,1/2+z
loop_
_atom_site_type_symbol
_atom_site_label
_atom_site_fract_x
_atom_site_fract_y
_atom_site_fract_z
Si Si1 0.610066 0.120168 0.933592
Si Si2 0.384597 0.255802 0.194450
Si Si3 0.388428 0.179589 0.454865
Si Si4 0.806301 0.822517 0.405335
Si Si5 0.611082 0.519922 0.941941
Si Si6 0.304411 0.034405 0.404159
Si Si7 0.114245 0.579585 0.306655
O O1 0.500000 0.126753 0.916681
O O2 0.692890 0.161540 0.903263
O O3 0.642590 0.033701 0.932055
O O4 0.616315 0.154296 0.988417
O O5 0.353521 0.277729 0.250000
O O6 0.500000 0.261505 0.192996
O O7 0.343413 0.302264 0.149060
O O8 0.361998 0.167694 0.187974
O O9 0.500000 0.192465 0.441739
O O10 0.330601 0.253371 0.440879
O O11 0.347464 0.111010 0.423933
O O12 0.858066 0.895376 0.428530
O O13 0.500000 0.507860 0.928047
O O14 0.691479 0.471177 0.914509
O O15 0.620075 0.500000 0.000000
O O16 0.329006 0.031819 0.346506
O O17 0.132729 0.558822 0.250000
O O18 0.000000 0.572074 0.315866
#
# Coordination Sequence:
#
# PCOD9474689 Si02
#       7
#    16  16  16  16  16  16  16
#     4  10  22  34  46  73 112 143 170 204 252 317
#     4   9  17  31  54  83 106 125 164 226 278 305
#     4  11  20  32  54  80 102 132 177 225 261 296
#     4  11  20  35  57  77 102 138 178 219 263 304
#     4  10  22  38  53  73 107 146 181 213 255 317
#     4  11  19  33  55  77 105 138 171 215 268 313
#     4   9  17  30  52  81 107 131 166 216 271 319
#
# _framework density 16.541384000000001
#
# number of rings (size 3 to 8) (size 9 to 14) (size 15 to 20)
#    0.000    1.857    1.429    6.000    0.000    1.143 
#    0.000    5.000    0.000    2.571    0.000    2.000 
#    0.000    0.000    0.000    0.000    0.000    0.000 
#
# Total GULP energy -312356.040399 kJ/mol
# GULP energy per Si atom -5577.786436 kJ/mol
# Density = 1.650373 g / cm^3
# Si number density = 16.541384 Si / 1000 Ang^3
#
#
#
# Elastic Constant Matrix: (Units=GPa)
#
#
# Indices 1 2 3 4 5 6 
#
# 1 102.4731 2.7699 32.7664 0.0000 0.0000 0.0000
# 2 2.7699 10.6017 5.7173 0.0000 0.0000 0.0000
# 3 32.7664 5.7173 85.2484 0.0000 0.0000 0.0000
# 4 0.0000 0.0000 0.0000 18.1446 0.0000 0.0000
# 5 0.0000 0.0000 0.0000 0.0000 21.9341 0.0000
# 6 0.0000 0.0000 0.0000 0.0000 0.0000 15.4652
#
#
#
# Elastic Compliance Matrix: (Units=1/GPa)
#
#
# Indices 1 2 3 4 5 6 
#
# 1 0.011130 -0.000623 -0.004236 0.000000 0.000000 0.000000
# 2 -0.000623 0.097899 -0.006326 0.000000 0.000000 0.000000
# 3 -0.004236 -0.006326 0.013783 0.000000 0.000000 0.000000
# 4 0.000000 0.000000 0.000000 0.055113 0.000000 0.000000
# 5 0.000000 0.000000 0.000000 0.000000 0.045591 0.000000
# 6 0.000000 0.000000 0.000000 0.000000 0.000000 0.064661
#
#
# Mechanical properties :
#
#
# Convention : Reuss Voigt Hill
#
# Bulk Modulus (GPa) = 9.95612 31.20336 20.57974
# Shear Modulus (GPa) = 14.53366 21.58009 18.05688
#
# Velocity S-wave (km/s) = 2.96738 3.61586 3.30755
# Velocity P-wave (km/s) = 4.21573 6.02805 5.20143
#
# Compressibility (1/GPa) = 0.10044069
#
# Stress axis : x y z
#
# Youngs Moduli (GPa) = 89.84686 10.21460 72.55360
#
# Poissons Ratio (x) = 0.00637 0.30735
# Poissons Ratio (y) = 0.05601 0.45898
# Poissons Ratio (z) = 0.38061 0.06462
#
# Static dielectric constant tensor:
#      x y z
#    x 1.554790 0.000000 0.000000 
#    y 0.000000 1.548360 0.000000 
#    z 0.000000 0.000000 1.571170 
# 
# From -- ./inp_files/69381.got.cif
#   From: 2010.05.17/outbox.cif.g08.bks.cpg/sg63_35_cif.got.tgz:69381.got - 2010.06.03 15:47:04.
