data_PCOD9474615
_publ_section_title
;
Structure prediction by ZEFSAII (Michael W. Deem and Ramdas Pophale) SiO2 
 PCOD9474615
Probable space group: C M C M
;
_chemical_formula_sum "Si O2"
_cell_formula_units_Z 88
_cell_length_a 25.965397
_cell_length_b 11.254588
_cell_length_c 14.847414
_cell_angle_alpha 90.000000
_cell_angle_beta 90.000000
_cell_angle_gamma 90.000000
_cell_volume 4338.857499
_symmetry_space_group_name_H-M "C M C M"
_symmetry_group_IT_number 63
_symmetry_cell_setting 'orthorhombic'
loop_
_space_group_symop_operation_xyz
x,y,z
-x,-y,1/2+z
x,-y,-z
-x,y,1/2-z
-x,-y,-z
x,y,1/2-z
-x,y,z
x,-y,1/2+z
1/2+x,1/2+y,z
1/2-x,1/2-y,1/2+z
1/2+x,1/2-y,-z
1/2-x,1/2+y,1/2-z
1/2-x,1/2-y,-z
1/2+x,1/2+y,1/2-z
1/2-x,1/2+y,z
1/2+x,1/2-y,1/2+z
loop_
_atom_site_type_symbol
_atom_site_label
_atom_site_fract_x
_atom_site_fract_y
_atom_site_fract_z
Si Si1 0.860202 0.744890 0.395006
Si Si2 0.902650 0.921607 0.750000
Si Si3 0.440541 0.690973 0.750000
Si Si4 0.172976 0.996614 0.600751
Si Si5 0.440087 0.159889 0.750000
Si Si6 0.287698 0.022058 0.354838
Si Si7 0.121957 0.609701 0.565730
O O1 0.911463 0.755165 0.335975
O O2 0.829337 0.864783 0.372449
O O3 0.824770 0.635268 0.365687
O O4 0.875495 0.722144 0.498949
O O5 0.936003 0.803469 0.750000
O O6 0.932293 0.047618 0.750000
O O7 0.864340 0.924198 0.834990
O O8 0.500000 0.719175 0.750000
O O9 0.152947 0.000000 0.500000
O O10 0.231563 0.954147 0.605276
O O11 0.500000 0.123274 0.750000
O O12 0.411090 0.118731 0.842357
O O13 0.281274 0.993322 0.250000
O O14 0.319342 0.918900 0.404678
O O15 0.105008 0.500000 0.500000
#
# Coordination Sequence:
#
# PCOD9474615 Si02
#       7
#    16   8   8  16   8  16  16
#     4  10  22  40  61  89 123 157 203 250 294 358
#     4  10  23  40  60  92 126 156 201 252 298 362
#     4  10  21  40  66  88 115 159 209 257 302 349
#     4  11  22  38  61  91 124 162 199 238 296 364
#     4  12  25  42  64  90 123 159 199 255 316 355
#     4  11  21  39  60  89 124 158 199 242 296 358
#     4  10  23  42  64  88 123 161 203 251 298 358
#
# _framework density 20.281839000000002
#
# number of rings (size 3 to 8) (size 9 to 14) (size 15 to 20)
#    0.000    1.455    2.727    3.000    0.000    5.455 
#    0.000    6.364    0.000    6.000    0.000    0.000 
#    0.000    0.000    0.000    0.000    0.000    0.000 
#
# Total GULP energy -245718.217610 kJ/mol
# GULP energy per Si atom -5584.504946 kJ/mol
# Density = 2.023568 g / cm^3
# Si number density = 20.281839 Si / 1000 Ang^3
#
#
#
# Elastic Constant Matrix: (Units=GPa)
#
#
# Indices 1 2 3 4 5 6 
#
# 1 78.8010 5.3433 -0.2094 0.0000 0.0000 0.0000
# 2 5.3433 43.8088 1.3486 0.0000 0.0000 0.0000
# 3 -0.2094 1.3486 116.5176 0.0000 0.0000 0.0000
# 4 0.0000 0.0000 0.0000 30.5126 0.0000 0.0000
# 5 0.0000 0.0000 0.0000 0.0000 3.9457 0.0000
# 6 0.0000 0.0000 0.0000 0.0000 0.0000 9.3353
#
#
#
# Elastic Compliance Matrix: (Units=1/GPa)
#
#
# Indices 1 2 3 4 5 6 
#
# 1 0.012796 -0.001562 0.000041 0.000000 0.000000 0.000000
# 2 -0.001562 0.023025 -0.000269 0.000000 0.000000 0.000000
# 3 0.000041 -0.000269 0.008586 0.000000 0.000000 0.000000
# 4 0.000000 0.000000 0.000000 0.032773 0.000000 0.000000
# 5 0.000000 0.000000 0.000000 0.000000 0.253440 0.000000
# 6 0.000000 0.000000 0.000000 0.000000 0.000000 0.107121
#
#
# Mechanical properties :
#
#
# Convention : Reuss Voigt Hill
#
# Bulk Modulus (GPa) = 24.49385 28.01028 26.25207
# Shear Modulus (GPa) = 10.99070 24.26837 17.62954
#
# Velocity S-wave (km/s) = 2.33040 3.46288 2.95147
# Velocity P-wave (km/s) = 4.39818 5.46161 4.95849
#
# Compressibility (1/GPa) = 0.04082657
#
# Stress axis : x y z
#
# Youngs Moduli (GPa) = 78.14810 43.43058 116.47433
#
# Poissons Ratio (x) = 0.06784 -0.00478
# Poissons Ratio (y) = 0.12207 0.03137
# Poissons Ratio (z) = -0.00321 0.01170
#
# Static dielectric constant tensor:
#      x y z
#    x 1.660780 0.000000 0.000000 
#    y 0.000000 1.778370 0.000000 
#    z 0.000000 0.000000 1.754030 
# 
# From -- ./inp_files/37810.got.cif
#   From: 2010.05.17/outbox.cif.g08.bks.cpg/sg63_19_cif.got.tgz:37810.got - 2010.06.03 15:47:04.
