data_PCOD9474947
_publ_section_title
;
Structure prediction by ZEFSAII (Michael W. Deem and Ramdas Pophale) SiO2 
 PCOD9474947
Probable space group: C M C M
;
_chemical_formula_sum "Si O2"
_cell_formula_units_Z 96
_cell_length_a 20.604382
_cell_length_b 15.038444
_cell_length_c 15.509598
_cell_angle_alpha 90.000000
_cell_angle_beta 90.000000
_cell_angle_gamma 90.000000
_cell_volume 4805.770611
_symmetry_space_group_name_H-M "C M C M"
_symmetry_group_IT_number 63
_symmetry_cell_setting 'orthorhombic'
loop_
_space_group_symop_operation_xyz
x,y,z
-x,-y,1/2+z
x,-y,-z
-x,y,1/2-z
-x,-y,-z
x,y,1/2-z
-x,y,z
x,-y,1/2+z
1/2+x,1/2+y,z
1/2-x,1/2-y,1/2+z
1/2+x,1/2-y,-z
1/2-x,1/2+y,1/2-z
1/2-x,1/2-y,-z
1/2+x,1/2+y,1/2-z
1/2-x,1/2+y,z
1/2+x,1/2-y,1/2+z
loop_
_atom_site_type_symbol
_atom_site_label
_atom_site_fract_x
_atom_site_fract_y
_atom_site_fract_z
Si Si1 0.069039 0.604414 0.483742
Si Si2 0.251950 0.718128 0.899324
Si Si3 0.927612 0.924580 0.853177
Si Si4 0.319867 0.891223 0.842581
Si Si5 0.706654 0.481067 0.098842
Si Si6 0.897126 0.282912 0.350215
O O1 0.067068 0.500000 0.500000
O O2 0.129492 0.615076 0.420443
O O3 0.075259 0.654056 0.575274
O O4 0.000000 0.633112 0.444123
O O5 0.284365 0.797006 0.846942
O O6 0.288274 0.624440 0.888591
O O7 0.179724 0.707892 0.863350
O O8 0.250000 0.750000 0.000000
O O9 0.928298 0.934901 0.750000
O O10 0.916319 0.819467 0.869520
O O11 0.000000 0.949693 0.885825
O O12 0.865041 0.979454 0.884552
O O13 0.352512 0.905378 0.750000
O O14 0.263636 0.965626 0.852363
O O15 0.722575 0.500000 0.000000
O O16 0.914759 0.301990 0.250000
#
# Coordination Sequence:
#
# PCOD9474947 Si02
#       6
#    16  16  16  16  16  16
#     4  11  25  43  63  92 130 171 219 276 331 391
#     4  12  22  40  67  99 134 167 216 275 331 390
#     4  10  22  40  63  96 136 174 218 272 330 400
#     4  12  25  43  66  96 131 173 220 269 331 393
#     4  12  23  40  67  98 130 168 218 275 334 394
#     4  11  21  40  69  99 128 170 224 279 333 390
#
# _framework density 19.975985000000001
#
# number of rings (size 3 to 8) (size 9 to 14) (size 15 to 20)
#    0.000    0.667    5.000    3.000    0.000    6.333 
#    0.000    2.500    0.000    0.000    0.000    0.000 
#    0.000    0.000    0.000    0.000    0.000    0.000 
#
# Total GULP energy -268073.371685 kJ/mol
# GULP energy per Si atom -5584.861910 kJ/mol
# Density = 1.993052 g / cm^3
# Si number density = 19.975985 Si / 1000 Ang^3
#
#
#
# Elastic Constant Matrix: (Units=GPa)
#
#
# Indices 1 2 3 4 5 6 
#
# 1 125.3560 38.0875 39.7788 0.0000 0.0000 0.0000
# 2 38.0875 126.4412 41.2828 0.0000 0.0000 0.0000
# 3 39.7788 41.2828 105.3135 0.0000 0.0000 0.0000
# 4 0.0000 0.0000 0.0000 -6.9638 0.0000 0.0000
# 5 0.0000 0.0000 0.0000 0.0000 629.7162 0.0000
# 6 0.0000 0.0000 0.0000 0.0000 0.0000 -298.2605
#
#
#
# Elastic Compliance Matrix: (Units=1/GPa)
#
#
# Indices 1 2 3 4 5 6 
#
# 1 0.009457 -0.001929 -0.002816 0.000000 0.000000 0.000000
# 2 -0.001929 0.009463 -0.002981 0.000000 0.000000 0.000000
# 3 -0.002816 -0.002981 0.011728 0.000000 0.000000 0.000000
# 4 0.000000 0.000000 0.000000 -0.143601 0.000000 0.000000
# 5 0.000000 0.000000 0.000000 0.000000 0.001588 0.000000
# 6 0.000000 0.000000 0.000000 0.000000 0.000000 -0.003353
#
#
# Mechanical properties :
#
#
# Convention : Reuss Voigt Hill
#
# Bulk Modulus (GPa) = 65.80755 66.15655 65.98205
# Shear Modulus (GPa) = -53.07824 80.76248 13.84212
#
# Velocity S-wave (km/s) = -5.16030 6.36534 2.63523
# Velocity P-wave (km/s) = 1.57800 9.33881 6.50858
#
# Compressibility (1/GPa) = 0.01519582
#
# Stress axis : x y z
#
# Youngs Moduli (GPa) = 105.74165 105.67230 85.26960
#
# Poissons Ratio (x) = 0.20388 0.24010
# Poissons Ratio (y) = 0.20401 0.25417
# Poissons Ratio (z) = 0.29775 0.31499
#
# Static dielectric constant tensor:
#      x y z
#    x 1.779150 0.000000 0.000000 
#    y 0.000000 1.751470 0.000000 
#    z 0.000000 0.000000 1.735770 
# 
# From -- ./inp_files/35290.got.cif
#   From: 2010.05.17/outbox.cif.g08.bks.cpg/sg63_18_cif.got.tgz:35290.got - 2010.06.03 15:47:04.
