data_PCOD9474447
_publ_section_title
;
Structure prediction by ZEFSAII (Michael W. Deem and Ramdas Pophale) SiO2 
 PCOD9474447
Probable space group: C M C M
;
_chemical_formula_sum "Si O2"
_cell_formula_units_Z 96
_cell_length_a 9.039150
_cell_length_b 23.986024
_cell_length_c 25.701340
_cell_angle_alpha 90.000000
_cell_angle_beta 90.000000
_cell_angle_gamma 90.000000
_cell_volume 5572.391539
_symmetry_space_group_name_H-M "C M C M"
_symmetry_group_IT_number 63
_symmetry_cell_setting 'orthorhombic'
loop_
_space_group_symop_operation_xyz
x,y,z
-x,-y,1/2+z
x,-y,-z
-x,y,1/2-z
-x,-y,-z
x,y,1/2-z
-x,y,z
x,-y,1/2+z
1/2+x,1/2+y,z
1/2-x,1/2-y,1/2+z
1/2+x,1/2-y,-z
1/2-x,1/2+y,1/2-z
1/2-x,1/2-y,-z
1/2+x,1/2+y,1/2-z
1/2-x,1/2+y,z
1/2+x,1/2-y,1/2+z
loop_
_atom_site_type_symbol
_atom_site_label
_atom_site_fract_x
_atom_site_fract_y
_atom_site_fract_z
Si Si1 0.176733 0.684144 0.188895
Si Si2 0.677760 0.313502 0.310437
Si Si3 0.822670 0.003779 0.560896
Si Si4 0.675984 0.116031 0.900609
Si Si5 0.323145 0.189450 0.003305
Si Si6 0.676761 0.379708 0.596676
O O1 0.205876 0.674436 0.250000
O O2 0.215311 0.748867 0.177431
O O3 0.264596 0.643573 0.151187
O O4 0.000000 0.678132 0.180684
O O5 0.716791 0.323810 0.250000
O O6 0.500000 0.318468 0.314870
O O7 0.755151 0.354833 0.350154
O O8 0.744301 0.055724 0.587803
O O9 0.000000 0.012307 0.562575
O O10 0.779461 0.000000 0.500000
O O11 0.788478 0.944744 0.587596
O O12 0.500000 0.111797 0.895198
O O13 0.707956 0.155068 0.950619
O O14 0.500000 0.194419 0.009420
O O15 0.250000 0.250000 0.000000
O O16 0.254856 0.155754 0.051424
O O17 0.500000 0.372960 0.592622
#
# Coordination Sequence:
#
# PCOD9474447 Si02
#       6
#    16  16  16  16  16  16
#     4   9  19  37  60  85 114 150 187 226 280 338
#     4   9  19  37  60  83 110 148 188 224 271 334
#     4  10  21  39  59  78 107 152 195 229 274 334
#     4  11  23  36  55  84 113 143 184 233 282 328
#     4  11  23  36  53  81 115 147 181 226 281 337
#     4  11  22  36  57  84 111 144 189 233 278 331
#
# _framework density 17.227791
#
# number of rings (size 3 to 8) (size 9 to 14) (size 15 to 20)
#    0.000    1.833    1.667    3.500    0.000    7.667 
#    0.000    2.500    0.000    1.000    0.000    0.000 
#    0.000    0.000    0.000    0.000    0.000    0.000 
#
# Total GULP energy -268144.139700 kJ/mol
# GULP energy per Si atom -5586.336244 kJ/mol
# Density = 1.718858 g / cm^3
# Si number density = 17.227791 Si / 1000 Ang^3
#
#
#
# Elastic Constant Matrix: (Units=GPa)
#
#
# Indices 1 2 3 4 5 6 
#
# 1 55.3594 79.9732 59.5244 0.0000 0.0000 0.0000
# 2 79.9732 170.2087 96.1457 0.0000 0.0000 0.0000
# 3 59.5244 96.1457 110.8550 0.0000 0.0000 0.0000
# 4 0.0000 0.0000 0.0000 13.1595 0.0000 0.0000
# 5 0.0000 0.0000 0.0000 0.0000 31.8520 0.0000
# 6 0.0000 0.0000 0.0000 0.0000 0.0000 31.9090
#
#
#
# Elastic Compliance Matrix: (Units=1/GPa)
#
#
# Indices 1 2 3 4 5 6 
#
# 1 0.070712 -0.023087 -0.017945 0.000000 0.000000 0.000000
# 2 -0.023087 0.019056 -0.004131 0.000000 0.000000 0.000000
# 3 -0.017945 -0.004131 0.022239 0.000000 0.000000 0.000000
# 4 0.000000 0.000000 0.000000 0.075991 0.000000 0.000000
# 5 0.000000 0.000000 0.000000 0.000000 0.031395 0.000000
# 6 0.000000 0.000000 0.000000 0.000000 0.000000 0.031339
#
#
# Mechanical properties :
#
#
# Convention : Reuss Voigt Hill
#
# Bulk Modulus (GPa) = 46.12453 89.74551 67.93502
# Shear Modulus (GPa) = 14.35605 22.10273 18.22939
#
# Velocity S-wave (km/s) = 2.88984 3.58574 3.25643
# Velocity P-wave (km/s) = 6.16168 8.32766 7.32517
#
# Compressibility (1/GPa) = 0.02168044
#
# Stress axis : x y z
#
# Youngs Moduli (GPa) = 14.14194 52.47668 44.96584
#
# Poissons Ratio (x) = 1.21155 0.80692
# Poissons Ratio (y) = 0.32650 0.18573
# Poissons Ratio (z) = 0.25378 0.21676
#
# Static dielectric constant tensor:
#      x y z
#    x 1.572300 0.000000 0.000000 
#    y 0.000000 1.554570 0.000000 
#    z 0.000000 0.000000 1.566430 
# 
# From -- ./inp_files/59846.got.cif
#   From: 2010.05.17/outbox.cif.g08.bks.cpg/sg63_30_cif.got.tgz:59846.got - 2010.06.03 15:47:04.
