data_PCOD9474603
_publ_section_title
;
Structure prediction by ZEFSAII (Michael W. Deem and Ramdas Pophale) SiO2 
 PCOD9474603
Probable space group: C M C M
;
_chemical_formula_sum "Si O2"
_cell_formula_units_Z 80
_cell_length_a 20.903040
_cell_length_b 23.743607
_cell_length_c 8.473824
_cell_angle_alpha 90.000000
_cell_angle_beta 90.000000
_cell_angle_gamma 90.000000
_cell_volume 4205.673814
_symmetry_space_group_name_H-M "C M C M"
_symmetry_group_IT_number 63
_symmetry_cell_setting 'orthorhombic'
loop_
_space_group_symop_operation_xyz
x,y,z
-x,-y,1/2+z
x,-y,-z
-x,y,1/2-z
-x,-y,-z
x,y,1/2-z
-x,y,z
x,-y,1/2+z
1/2+x,1/2+y,z
1/2-x,1/2-y,1/2+z
1/2+x,1/2-y,-z
1/2-x,1/2+y,1/2-z
1/2-x,1/2-y,-z
1/2+x,1/2+y,1/2-z
1/2-x,1/2+y,z
1/2+x,1/2-y,1/2+z
loop_
_atom_site_type_symbol
_atom_site_label
_atom_site_fract_x
_atom_site_fract_y
_atom_site_fract_z
Si Si1 0.000000 0.063242 0.561966
Si Si2 0.124243 0.628415 0.939556
Si Si3 0.750669 0.435701 0.560660
Si Si4 0.500000 0.063376 0.061322
Si Si5 0.074883 0.250548 0.057695
Si Si6 0.376817 0.370483 0.940818
O O1 0.937531 0.094475 0.497996
O O2 0.000000 0.063888 0.750000
O O3 0.000000 0.000000 0.500000
O O4 0.127365 0.627495 0.750000
O O5 0.111621 0.692888 0.991584
O O6 0.186995 0.598431 0.006115
O O7 0.062467 0.594192 0.995772
O O8 0.750876 0.500000 0.500000
O O9 0.749858 0.437855 0.750000
O O10 0.687884 0.401269 0.505562
O O11 0.500000 0.064591 0.250000
O O12 0.500000 0.000000 0.000000
O O13 0.073340 0.250540 0.250000
O O14 0.111119 0.193858 0.006629
O O15 0.000000 0.250715 0.006715
O O16 0.376169 0.370237 0.750000
#
# Coordination Sequence:
#
# PCOD9474603 Si02
#       6
#     8  16  16   8  16  16
#     4  12  24  37  58  89 121 156 204 254 305 356
#     4  11  22  39  63  90 121 161 202 244 299 362
#     4  11  24  41  61  88 122 162 204 252 304 357
#     4  12  24  39  60  87 119 154 202 256 303 356
#     4   9  17  35  64  92 121 157 199 243 298 362
#     4  10  21  40  65  89 120 161 203 246 300 360
#
# _framework density 19.021920999999999
#
# number of rings (size 3 to 8) (size 9 to 14) (size 15 to 20)
#    0.000    1.400    2.000    4.200    0.000    4.000 
#    0.000    3.000    0.000    0.000    0.000    0.000 
#    0.000    0.000    0.000    0.000    0.000    0.000 
#
# Total GULP energy -223551.620124 kJ/mol
# GULP energy per Si atom -5588.790503 kJ/mol
# Density = 1.897863 g / cm^3
# Si number density = 19.021921 Si / 1000 Ang^3
#
#
#
# Elastic Constant Matrix: (Units=GPa)
#
#
# Indices 1 2 3 4 5 6 
#
# 1 205.2710 124.9709 28.6546 0.0000 0.0000 0.0000
# 2 124.9709 236.7271 32.1692 0.0000 0.0000 0.0000
# 3 28.6546 32.1692 31.4618 0.0000 0.0000 0.0000
# 4 0.0000 0.0000 0.0000 11.4198 0.0000 0.0000
# 5 0.0000 0.0000 0.0000 0.0000 38.6906 0.0000
# 6 0.0000 0.0000 0.0000 0.0000 0.0000 31.0825
#
#
#
# Elastic Compliance Matrix: (Units=1/GPa)
#
#
# Indices 1 2 3 4 5 6 
#
# 1 0.007448 -0.003496 -0.003209 0.000000 0.000000 0.000000
# 2 -0.003496 0.006547 -0.003510 0.000000 0.000000 0.000000
# 3 -0.003209 -0.003510 0.038296 0.000000 0.000000 0.000000
# 4 0.000000 0.000000 0.000000 0.087568 0.000000 0.000000
# 5 0.000000 0.000000 0.000000 0.000000 0.025846 0.000000
# 6 0.000000 0.000000 0.000000 0.000000 0.000000 0.032172
#
#
# Mechanical properties :
#
#
# Convention : Reuss Voigt Hill
#
# Bulk Modulus (GPa) = 31.38608 93.89437 62.64023
# Shear Modulus (GPa) = 21.84106 35.41626 28.62866
#
# Velocity S-wave (km/s) = 3.39219 4.31962 3.88369
# Velocity P-wave (km/s) = 5.64610 8.62247 7.28785
#
# Compressibility (1/GPa) = 0.03186126
#
# Stress axis : x y z
#
# Youngs Moduli (GPa) = 134.26839 152.74913 26.11218
#
# Poissons Ratio (x) = 0.53396 0.08379
# Poissons Ratio (y) = 0.46936 0.09166
# Poissons Ratio (z) = 0.43086 0.53617
#
# Static dielectric constant tensor:
#      x y z
#    x 1.627430 0.000000 0.000000 
#    y 0.000000 1.653600 0.000000 
#    z 0.000000 0.000000 1.644050 
# 
# From -- ./inp_files/8112.got.cif
#   From: 2010.05.17/outbox.cif.g08.bks.cpg/sg63_5_cif.got.tgz:8112.got - 2010.06.03 15:47:04.
