data_PCOD9474500
_publ_section_title
;
Structure prediction by ZEFSAII (Michael W. Deem and Ramdas Pophale) SiO2 
 PCOD9474500
Probable space group: C M C M
;
_chemical_formula_sum "Si O2"
_cell_formula_units_Z 40
_cell_length_a 7.917807
_cell_length_b 17.104394
_cell_length_c 12.447137
_cell_angle_alpha 90.000000
_cell_angle_beta 90.000000
_cell_angle_gamma 90.000000
_cell_volume 1685.706933
_symmetry_space_group_name_H-M "C M C M"
_symmetry_group_IT_number 63
_symmetry_cell_setting 'orthorhombic'
loop_
_space_group_symop_operation_xyz
x,y,z
-x,-y,1/2+z
x,-y,-z
-x,y,1/2-z
-x,-y,-z
x,y,1/2-z
-x,y,z
x,-y,1/2+z
1/2+x,1/2+y,z
1/2-x,1/2-y,1/2+z
1/2+x,1/2-y,-z
1/2-x,1/2+y,1/2-z
1/2-x,1/2-y,-z
1/2+x,1/2+y,1/2-z
1/2-x,1/2+y,z
1/2+x,1/2-y,1/2+z
loop_
_atom_site_type_symbol
_atom_site_label
_atom_site_fract_x
_atom_site_fract_y
_atom_site_fract_z
Si Si1 0.309056 0.635359 0.091096
Si Si2 0.297463 0.818147 0.131895
Si Si3 0.500000 0.974212 0.629450
O O1 0.500000 0.618461 0.124426
O O2 0.266548 0.725058 0.122502
O O3 0.168650 0.577617 0.132871
O O4 0.295802 0.636891 0.961842
O O5 0.247732 0.843663 0.250000
O O6 0.500000 0.827832 0.116590
O O7 0.500000 0.016557 0.750000
O O8 0.500000 0.000000 0.500000
#
# Coordination Sequence:
#
# PCOD9474500 Si02
#       3
#    16  16   8
#     4  10  21  39  62  94 128 166 213 262 323 389
#     4   9  17  32  59  96 136 168 201 256 323 393
#     4  12  28  48  68  90 126 178 227 274 321 376
#
# _framework density 23.728915000000001
#
# number of rings (size 3 to 8) (size 9 to 14) (size 15 to 20)
#    0.000    2.000    2.000    1.200    2.800    5.600 
#    0.000    0.000    0.000    0.000    0.000    0.000 
#    0.000    0.000    0.000    0.000    0.000    0.000 
#
# Total GULP energy -111704.072135 kJ/mol
# GULP energy per Si atom -5585.203607 kJ/mol
# Density = 2.367491 g / cm^3
# Si number density = 23.728915 Si / 1000 Ang^3
#
#
#
# Elastic Constant Matrix: (Units=GPa)
#
#
# Indices 1 2 3 4 5 6 
#
# 1 90.0468 42.2428 32.3138 0.0000 0.0000 0.0000
# 2 42.2428 53.2564 32.3347 0.0000 0.0000 0.0000
# 3 32.3138 32.3347 223.2578 0.0000 0.0000 0.0000
# 4 0.0000 0.0000 0.0000 4.3623 0.0000 0.0000
# 5 0.0000 0.0000 0.0000 0.0000 -69.2678 0.0000
# 6 0.0000 0.0000 0.0000 0.0000 0.0000 37.5812
#
#
#
# Elastic Compliance Matrix: (Units=1/GPa)
#
#
# Indices 1 2 3 4 5 6 
#
# 1 0.017755 -0.013730 -0.000581 0.000000 0.000000 0.000000
# 2 -0.013730 0.031205 -0.002532 0.000000 0.000000 0.000000
# 3 -0.000581 -0.002532 0.004930 0.000000 0.000000 0.000000
# 4 0.000000 0.000000 0.000000 0.229238 0.000000 0.000000
# 5 0.000000 0.000000 0.000000 0.000000 -0.014437 0.000000
# 6 0.000000 0.000000 0.000000 0.000000 0.000000 0.026609
#
#
# Mechanical properties :
#
#
# Convention : Reuss Voigt Hill
#
# Bulk Modulus (GPa) = 49.49801 64.48262 56.99032
# Shear Modulus (GPa) = 14.89323 11.84646 13.36985
#
# Velocity S-wave (km/s) = 2.50799 2.23680 2.37627
# Velocity P-wave (km/s) = 5.41219 5.82277 5.62123
#
# Compressibility (1/GPa) = 0.02020283
#
# Stress axis : x y z
#
# Youngs Moduli (GPa) = 56.32182 32.04576 202.83985
#
# Poissons Ratio (x) = 0.44000 0.11790
# Poissons Ratio (y) = 0.77332 0.51363
# Poissons Ratio (z) = 0.03274 0.08115
#
# Static dielectric constant tensor:
#      x y z
#    x 1.836570 0.000000 0.000000 
#    y 0.000000 1.919180 0.000000 
#    z 0.000000 0.000000 1.978080 
# 
# From -- ./inp_files/15431.got.cif
#   From: 2010.05.17/outbox.cif.g08.bks.cpg/sg63_8_cif.got.tgz:15431.got - 2010.06.03 15:47:04.
