data_PCOD9474417
_publ_section_title
;
Structure prediction by ZEFSAII (Michael W. Deem and Ramdas Pophale) SiO2 
 PCOD9474417
Probable space group: C M C M
;
_chemical_formula_sum "Si O2"
_cell_formula_units_Z 96
_cell_length_a 21.734925
_cell_length_b 12.618506
_cell_length_c 17.983719
_cell_angle_alpha 90.000000
_cell_angle_beta 90.000000
_cell_angle_gamma 90.000000
_cell_volume 4932.255803
_symmetry_space_group_name_H-M "C M C M"
_symmetry_group_IT_number 63
_symmetry_cell_setting 'orthorhombic'
loop_
_space_group_symop_operation_xyz
x,y,z
-x,-y,1/2+z
x,-y,-z
-x,y,1/2-z
-x,-y,-z
x,y,1/2-z
-x,y,z
x,-y,1/2+z
1/2+x,1/2+y,z
1/2-x,1/2-y,1/2+z
1/2+x,1/2-y,-z
1/2-x,1/2+y,1/2-z
1/2-x,1/2-y,-z
1/2+x,1/2+y,1/2-z
1/2-x,1/2+y,z
1/2+x,1/2-y,1/2+z
loop_
_atom_site_type_symbol
_atom_site_label
_atom_site_fract_x
_atom_site_fract_y
_atom_site_fract_z
Si Si1 0.636129 0.003228 0.840474
Si Si2 0.386914 0.382699 0.091309
Si Si3 0.800143 0.717233 0.159910
Si Si4 0.000000 0.762787 0.162388
Si Si5 0.500000 0.015043 0.160490
Si Si6 0.925109 0.115942 0.080913
Si Si7 0.664190 0.232671 0.838798
O O1 0.635102 0.997023 0.750000
O O2 0.664114 0.890138 0.863679
O O3 0.566093 0.023145 0.866962
O O4 0.671967 0.109601 0.861386
O O5 0.326567 0.320655 0.118228
O O6 0.440599 0.318369 0.131023
O O7 0.396334 0.505931 0.111658
O O8 0.401428 0.375765 0.003776
O O9 0.807789 0.730587 0.250000
O O10 0.727673 0.707227 0.144066
O O11 0.000000 0.639621 0.144484
O O12 0.000000 0.771814 0.250000
O O13 0.500000 0.998880 0.250000
O O14 0.894709 0.212503 0.124853
O O15 0.000000 0.112005 0.082778
O O16 0.655842 0.234255 0.750000
#
# Coordination Sequence:
#
# PCOD9474417 Si02
#       7
#    16  16  16   8   8  16  16
#     4   9  18  34  55  84 121 150 184 243 303 346
#     4  11  21  40  62  86 124 160 199 254 305 355
#     4  10  21  38  64  92 117 153 203 254 298 352
#     4  11  18  31  59  95 118 147 199 249 300 353
#     4   9  16  28  53  85 113 145 184 229 291 349
#     4  11  24  42  60  85 124 168 200 246 312 362
#     4  10  24  40  59  88 122 160 201 245 298 366
#
# _framework density 19.463709999999999
#
# number of rings (size 3 to 8) (size 9 to 14) (size 15 to 20)
#    0.000    1.833    3.333    1.000    3.500    2.333 
#    0.000    0.833    0.000    2.000    0.000    0.000 
#    0.000    0.000    0.000    0.000    0.000    0.000 
#
# Total GULP energy -267636.799038 kJ/mol
# GULP energy per Si atom -5575.766647 kJ/mol
# Density = 1.941941 g / cm^3
# Si number density = 19.463710 Si / 1000 Ang^3
#
#
#
# Elastic Constant Matrix: (Units=GPa)
#
#
# Indices 1 2 3 4 5 6 
#
# 1 87.1450 43.5424 17.6662 0.0000 0.0000 0.0000
# 2 43.5424 105.2510 16.1886 0.0000 0.0000 0.0000
# 3 17.6662 16.1886 14.6362 0.0000 0.0000 0.0000
# 4 0.0000 0.0000 0.0000 -44.5610 0.0000 0.0000
# 5 0.0000 0.0000 0.0000 0.0000 31.5052 0.0000
# 6 0.0000 0.0000 0.0000 0.0000 0.0000 28.9487
#
#
#
# Elastic Compliance Matrix: (Units=1/GPa)
#
#
# Indices 1 2 3 4 5 6 
#
# 1 0.016885 -0.004640 -0.015248 0.000000 0.000000 0.000000
# 2 -0.004640 0.012724 -0.008473 0.000000 0.000000 0.000000
# 3 -0.015248 -0.008473 0.096100 0.000000 0.000000 0.000000
# 4 0.000000 0.000000 0.000000 -0.022441 0.000000 0.000000
# 5 0.000000 0.000000 0.000000 0.000000 0.031741 0.000000
# 6 0.000000 0.000000 0.000000 0.000000 0.000000 0.034544
#
#
# Mechanical properties :
#
#
# Convention : Reuss Voigt Hill
#
# Bulk Modulus (GPa) = 14.49551 40.20296 27.34923
# Shear Modulus (GPa) = 20.05860 11.82093 15.93976
#
# Velocity S-wave (km/s) = 3.21372 2.46708 2.86483
# Velocity P-wave (km/s) = 4.60807 5.36801 5.00249
#
# Compressibility (1/GPa) = 0.06898690
#
# Stress axis : x y z
#
# Youngs Moduli (GPa) = 59.22578 78.59265 10.40579
#
# Poissons Ratio (x) = 0.36466 0.15867
# Poissons Ratio (y) = 0.27480 0.08817
# Poissons Ratio (z) = 0.90308 0.66592
#
# Static dielectric constant tensor:
#      x y z
#    x 1.689140 0.000000 0.000000 
#    y 0.000000 1.687980 0.000000 
#    z 0.000000 0.000000 1.669510 
# 
# From -- ./inp_files/48082.got.cif
#   From: 2010.05.17/outbox.cif.g08.bks.cpg/sg63_25_cif.got.tgz:48082.got - 2010.06.03 15:47:04.
