data_PCOD9474552
_publ_section_title
;
Structure prediction by ZEFSAII (Michael W. Deem and Ramdas Pophale) SiO2 
 PCOD9474552
Probable space group: C M C M
;
_chemical_formula_sum "Si O2"
_cell_formula_units_Z 68
_cell_length_a 10.844539
_cell_length_b 19.196669
_cell_length_c 15.088619
_cell_angle_alpha 90.000000
_cell_angle_beta 90.000000
_cell_angle_gamma 90.000000
_cell_volume 3141.134002
_symmetry_space_group_name_H-M "C M C M"
_symmetry_group_IT_number 63
_symmetry_cell_setting 'orthorhombic'
loop_
_space_group_symop_operation_xyz
x,y,z
-x,-y,1/2+z
x,-y,-z
-x,y,1/2-z
-x,-y,-z
x,y,1/2-z
-x,y,z
x,-y,1/2+z
1/2+x,1/2+y,z
1/2-x,1/2-y,1/2+z
1/2+x,1/2-y,-z
1/2-x,1/2+y,1/2-z
1/2-x,1/2-y,-z
1/2+x,1/2+y,1/2-z
1/2-x,1/2+y,z
1/2+x,1/2-y,1/2+z
loop_
_atom_site_type_symbol
_atom_site_label
_atom_site_fract_x
_atom_site_fract_y
_atom_site_fract_z
Si Si1 0.637343 0.926736 0.147960
Si Si2 0.000000 0.847411 0.250000
Si Si3 0.864673 0.812962 0.600116
Si Si4 0.863389 0.021764 0.396408
Si Si5 0.800109 0.808557 0.397491
O O1 0.631573 0.903776 0.250000
O O2 0.500000 0.950095 0.121464
O O3 0.685496 0.861543 0.091820
O O4 0.743666 0.984575 0.141835
O O5 0.107156 0.841459 0.172383
O O6 0.851495 0.895404 0.614740
O O7 0.860238 0.801512 0.493807
O O8 0.755286 0.764699 0.635112
O O9 0.000000 0.791953 0.633769
O O10 0.000000 0.001003 0.359859
O O11 0.865539 0.000000 0.500000
#
# Coordination Sequence:
#
# PCOD9474552 Si02
#       5
#    16   4  16  16  16
#     4  11  24  41  60  91 128 168 208 264 322 378
#     4  12  24  40  66 102 126 166 222 270 332 368
#     4  10  21  41  63  92 125 166 210 263 321 384
#     4  10  21  39  65  90 122 162 214 259 307 382
#     4  11  22  39  65  93 124 164 213 268 319 385
#
# _framework density 21.648233000000001
#
# number of rings (size 3 to 8) (size 9 to 14) (size 15 to 20)
#    0.000    1.412    4.706    0.706    1.647    0.941 
#    4.235    0.000    0.000    0.000    0.000    0.000 
#    0.000    0.000    0.000    0.000    0.000    0.000 
#
# Total GULP energy -189415.840739 kJ/mol
# GULP energy per Si atom -5571.054139 kJ/mol
# Density = 2.159896 g / cm^3
# Si number density = 21.648233 Si / 1000 Ang^3
#
#
#
# Elastic Constant Matrix: (Units=GPa)
#
#
# Indices 1 2 3 4 5 6 
#
# 1 175.5597 56.8225 9.4550 0.0000 0.0000 0.0000
# 2 56.8225 95.2430 -24.8675 0.0000 0.0000 0.0000
# 3 9.4550 -24.8675 39.4589 0.0000 0.0000 0.0000
# 4 0.0000 0.0000 0.0000 -0.6632 0.0000 0.0000
# 5 0.0000 0.0000 0.0000 0.0000 32.0340 0.0000
# 6 0.0000 0.0000 0.0000 0.0000 0.0000 -100.8808
#
#
#
# Elastic Compliance Matrix: (Units=1/GPa)
#
#
# Indices 1 2 3 4 5 6 
#
# 1 0.008080 -0.006375 -0.005954 0.000000 0.000000 0.000000
# 2 -0.006375 0.017597 0.012618 0.000000 0.000000 0.000000
# 3 -0.005954 0.012618 0.034721 0.000000 0.000000 0.000000
# 4 0.000000 0.000000 0.000000 -1.507767 0.000000 0.000000
# 5 0.000000 0.000000 0.000000 0.000000 0.031217 0.000000
# 6 0.000000 0.000000 0.000000 0.000000 0.000000 -0.009913
#
#
# Mechanical properties :
#
#
# Convention : Reuss Voigt Hill
#
# Bulk Modulus (GPa) = 16.39990 43.67574 30.03782
# Shear Modulus (GPa) = -3.55539 4.02144 0.23303
#
# Velocity S-wave (km/s) = -1.28293 1.36443 0.32844
# Velocity P-wave (km/s) = 2.32326 4.76458 3.74825
#
# Compressibility (1/GPa) = 0.06097598
#
# Stress axis : x y z
#
# Youngs Moduli (GPa) = 123.76021 56.82678 28.80081
#
# Poissons Ratio (x) = 0.36228 0.17148
# Poissons Ratio (y) = 0.78899 -0.36340
# Poissons Ratio (z) = 0.73685 -0.71702
#
# Static dielectric constant tensor:
#      x y z
#    x 1.812720 0.000000 0.000000 
#    y 0.000000 1.804450 0.000000 
#    z 0.000000 0.000000 1.792830 
# 
# From -- ./inp_files/39972.got.cif
#   From: 2010.05.17/outbox.cif.g08.bks.cpg/sg63_20_cif.got.tgz:39972.got - 2010.06.03 15:47:04.
