data_PCOD9474087
_publ_section_title
;
Structure prediction by ZEFSAII (Michael W. Deem and Ramdas Pophale) SiO2 
 PCOD9474087
Probable space group: C M C M
;
_chemical_formula_sum "Si O2"
_cell_formula_units_Z 72
_cell_length_a 23.154024
_cell_length_b 17.616891
_cell_length_c 7.680543
_cell_angle_alpha 90.000000
_cell_angle_beta 90.000000
_cell_angle_gamma 90.000000
_cell_volume 3132.908213
_symmetry_space_group_name_H-M "C M C M"
_symmetry_group_IT_number 63
_symmetry_cell_setting 'orthorhombic'
loop_
_space_group_symop_operation_xyz
x,y,z
-x,-y,1/2+z
x,-y,-z
-x,y,1/2-z
-x,-y,-z
x,y,1/2-z
-x,y,z
x,-y,1/2+z
1/2+x,1/2+y,z
1/2-x,1/2-y,1/2+z
1/2+x,1/2-y,-z
1/2-x,1/2+y,1/2-z
1/2-x,1/2-y,-z
1/2+x,1/2+y,1/2-z
1/2-x,1/2+y,z
1/2+x,1/2-y,1/2+z
loop_
_atom_site_type_symbol
_atom_site_label
_atom_site_fract_x
_atom_site_fract_y
_atom_site_fract_z
Si Si1 0.256323 0.083206 0.959787
Si Si2 0.375727 0.864989 0.451029
Si Si3 0.335952 0.298218 0.050460
Si Si4 0.500000 0.089176 0.540601
Si Si5 0.066212 0.912582 0.542255
O O1 0.257219 0.090508 0.750000
O O2 0.321640 0.089573 0.029752
O O3 0.217495 0.153275 0.024269
O O4 0.232001 0.000000 0.000000
O O5 0.380073 0.889951 0.250000
O O6 0.355261 0.777943 0.455976
O O7 0.439517 0.876495 0.527857
O O8 0.323004 0.277313 0.250000
O O9 0.389204 0.356425 0.045440
O O10 0.500000 0.101701 0.750000
O O11 0.500000 0.000000 0.500000
O O12 0.069959 0.901881 0.750000
O O13 0.000000 0.898260 0.487894
O O14 0.079322 0.000000 0.500000
#
# Coordination Sequence:
#
# PCOD9474087 Si02
#       5
#    16  16  16   8  16
#     4  10  22  39  60  86 118 155 197 244 297 353
#     4  10  22  40  60  86 120 156 196 245 295 351
#     4  11  23  37  57  87 119 154 197 242 294 352
#     4  10  22  40  64  90 117 152 197 242 292 348
#     4  10  21  37  57  81 113 154 197 243 294 349
#
# _framework density 22.981840999999999
#
# number of rings (size 3 to 8) (size 9 to 14) (size 15 to 20)
#    0.000    1.778    0.000    3.333    1.556    6.667 
#    0.000    0.000    0.000    0.000    0.000    0.000 
#    0.000    0.000    0.000    0.000    0.000    0.000 
#
# Total GULP energy -201255.617559 kJ/mol
# GULP energy per Si atom -5590.433821 kJ/mol
# Density = 2.292953 g / cm^3
# Si number density = 22.981841 Si / 1000 Ang^3
#
#
#
# Elastic Constant Matrix: (Units=GPa)
#
#
# Indices 1 2 3 4 5 6 
#
# 1 145.1121 60.9564 2.8886 0.0000 0.0000 0.0000
# 2 60.9564 86.2872 -12.8153 0.0000 0.0000 0.0000
# 3 2.8886 -12.8153 47.4460 0.0000 0.0000 0.0000
# 4 0.0000 0.0000 0.0000 27.1595 0.0000 0.0000
# 5 0.0000 0.0000 0.0000 0.0000 11.6587 0.0000
# 6 0.0000 0.0000 0.0000 0.0000 0.0000 62.9068
#
#
#
# Elastic Compliance Matrix: (Units=1/GPa)
#
#
# Indices 1 2 3 4 5 6 
#
# 1 0.010109 -0.007535 -0.002651 0.000000 0.000000 0.000000
# 2 -0.007535 0.017690 0.005237 0.000000 0.000000 0.000000
# 3 -0.002651 0.005237 0.022653 0.000000 0.000000 0.000000
# 4 0.000000 0.000000 0.000000 0.036820 0.000000 0.000000
# 5 0.000000 0.000000 0.000000 0.000000 0.085773 0.000000
# 6 0.000000 0.000000 0.000000 0.000000 0.000000 0.015897
#
#
# Mechanical properties :
#
#
# Convention : Reuss Voigt Hill
#
# Bulk Modulus (GPa) = 24.65860 42.32273 33.49066
# Shear Modulus (GPa) = 23.54524 35.53270 29.53897
#
# Velocity S-wave (km/s) = 3.20428 3.93634 3.58902
# Velocity P-wave (km/s) = 4.94396 6.25423 5.63729
#
# Compressibility (1/GPa) = 0.04055380
#
# Stress axis : x y z
#
# Youngs Moduli (GPa) = 98.91899 56.52856 44.14520
#
# Poissons Ratio (x) = 0.42596 0.11702
# Poissons Ratio (y) = 0.74538 -0.23119
# Poissons Ratio (z) = 0.26221 -0.29604
#
# Static dielectric constant tensor:
#      x y z
#    x 1.898660 0.000000 0.000000 
#    y 0.000000 1.811330 0.000000 
#    z 0.000000 0.000000 1.903240 
# 
# From -- ./inp_files/11712.got.cif
#   From: 2010.05.17/outbox.cif.g08.bks.cpg/sg63_6_cif.got.tgz:11712.got - 2010.06.03 15:47:04.
