data_PCOD9474350
_publ_section_title
;
Structure prediction by ZEFSAII (Michael W. Deem and Ramdas Pophale) SiO2 
 PCOD9474350
Probable space group: C M C M
;
_chemical_formula_sum "Si O2"
_cell_formula_units_Z 80
_cell_length_a 8.480670
_cell_length_b 28.416313
_cell_length_c 16.434230
_cell_angle_alpha 90.000000
_cell_angle_beta 90.000000
_cell_angle_gamma 90.000000
_cell_volume 3960.474786
_symmetry_space_group_name_H-M "C M C M"
_symmetry_group_IT_number 63
_symmetry_cell_setting 'orthorhombic'
loop_
_space_group_symop_operation_xyz
x,y,z
-x,-y,1/2+z
x,-y,-z
-x,y,1/2-z
-x,-y,-z
x,y,1/2-z
-x,y,z
x,-y,1/2+z
1/2+x,1/2+y,z
1/2-x,1/2-y,1/2+z
1/2+x,1/2-y,-z
1/2-x,1/2+y,1/2-z
1/2-x,1/2-y,-z
1/2+x,1/2+y,1/2-z
1/2-x,1/2+y,z
1/2+x,1/2-y,1/2+z
loop_
_atom_site_type_symbol
_atom_site_label
_atom_site_fract_x
_atom_site_fract_y
_atom_site_fract_z
Si Si1 0.811247 0.374787 0.750000
Si Si2 0.690022 0.275429 0.082257
Si Si3 0.190705 0.024644 0.841777
Si Si4 0.313870 0.269981 0.750000
Si Si5 0.187515 0.431913 0.586723
Si Si6 0.811463 0.117245 0.573170
O O1 0.723711 0.325360 0.750000
O O2 0.773217 0.404813 0.829852
O O3 0.000000 0.365890 0.750000
O O4 0.500000 0.274731 0.079732
O O5 0.743501 0.251402 0.166521
O O6 0.748201 0.329699 0.082421
O O7 0.750000 0.250000 0.000000
O O8 0.239925 0.012905 0.750000
O O9 0.244038 0.077321 0.863918
O O10 0.000000 0.023215 0.845951
O O11 0.257215 0.985476 0.902146
O O12 0.500000 0.261850 0.750000
O O13 0.269844 0.404498 0.513916
O O14 0.000000 0.430784 0.574631
O O15 0.000000 0.120044 0.581697
#
# Coordination Sequence:
#
# PCOD9474350 Si02
#       6
#     8  16  16   8  16  16
#     4  10  22  40  61  86 119 161 206 255 309 370
#     4  11  24  44  69  96 130 169 216 271 324 382
#     4  10  21  38  61  87 119 159 205 250 295 361
#     4  12  26  42  65  96 129 167 216 267 325 388
#     4  11  22  38  60  89 124 159 199 250 311 366
#     4  10  23  40  62  89 120 161 208 251 302 368
#
# _framework density 20.199598000000002
#
# number of rings (size 3 to 8) (size 9 to 14) (size 15 to 20)
#    0.000    1.400    1.000    3.900    1.400    9.600 
#    0.000    0.000    0.000    0.000    0.000    0.000 
#    0.000    0.000    0.000    0.000    0.000    0.000 
#
# Total GULP energy -223590.021739 kJ/mol
# GULP energy per Si atom -5589.750543 kJ/mol
# Density = 2.015362 g / cm^3
# Si number density = 20.199598 Si / 1000 Ang^3
#
#
#
# Elastic Constant Matrix: (Units=GPa)
#
#
# Indices 1 2 3 4 5 6 
#
# 1 14.7790 25.9856 10.0711 0.0000 0.0000 0.0000
# 2 25.9856 155.3302 35.0473 0.0000 0.0000 0.0000
# 3 10.0711 35.0473 87.6562 0.0000 0.0000 0.0000
# 4 0.0000 0.0000 0.0000 21.7776 0.0000 0.0000
# 5 0.0000 0.0000 0.0000 0.0000 23.5711 0.0000
# 6 0.0000 0.0000 0.0000 0.0000 0.0000 24.2224
#
#
#
# Elastic Compliance Matrix: (Units=1/GPa)
#
#
# Indices 1 2 3 4 5 6 
#
# 1 0.097945 -0.015219 -0.005168 0.000000 0.000000 0.000000
# 2 -0.015219 0.009441 -0.002026 0.000000 0.000000 0.000000
# 3 -0.005168 -0.002026 0.012812 0.000000 0.000000 0.000000
# 4 0.000000 0.000000 0.000000 0.045919 0.000000 0.000000
# 5 0.000000 0.000000 0.000000 0.000000 0.042425 0.000000
# 6 0.000000 0.000000 0.000000 0.000000 0.000000 0.041284
#
#
# Mechanical properties :
#
#
# Convention : Reuss Voigt Hill
#
# Bulk Modulus (GPa) = 13.26770 44.44149 28.85459
# Shear Modulus (GPa) = 15.63587 26.35832 20.99710
#
# Velocity S-wave (km/s) = 2.78523 3.61625 3.22760
# Velocity P-wave (km/s) = 4.11411 6.28373 5.31089
#
# Compressibility (1/GPa) = 0.07537103
#
# Stress axis : x y z
#
# Youngs Moduli (GPa) = 10.20978 105.91897 78.05111
#
# Poissons Ratio (x) = 1.61203 0.40338
# Poissons Ratio (y) = 0.15539 0.15815
# Poissons Ratio (z) = 0.05277 0.21461
#
# Static dielectric constant tensor:
#      x y z
#    x 1.694540 0.000000 0.000000 
#    y 0.000000 1.713010 0.000000 
#    z 0.000000 0.000000 1.699660 
# 
# From -- ./inp_files/40621.got.cif
#   From: 2010.05.17/outbox.cif.g08.bks.cpg/sg63_21_cif.got.tgz:40621.got - 2010.06.03 15:47:04.
