data_PCOD9474170
_publ_section_title
;
Structure prediction by ZEFSAII (Michael W. Deem and Ramdas Pophale) SiO2 
 PCOD9474170
Probable space group: C M C M
;
_chemical_formula_sum "Si O2"
_cell_formula_units_Z 104
_cell_length_a 26.689277
_cell_length_b 22.218376
_cell_length_c 7.710718
_cell_angle_alpha 90.000000
_cell_angle_beta 90.000000
_cell_angle_gamma 90.000000
_cell_volume 4572.397107
_symmetry_space_group_name_H-M "C M C M"
_symmetry_group_IT_number 63
_symmetry_cell_setting 'orthorhombic'
loop_
_space_group_symop_operation_xyz
x,y,z
-x,-y,1/2+z
x,-y,-z
-x,y,1/2-z
-x,-y,-z
x,y,1/2-z
-x,y,z
x,-y,1/2+z
1/2+x,1/2+y,z
1/2-x,1/2-y,1/2+z
1/2+x,1/2-y,-z
1/2-x,1/2+y,1/2-z
1/2-x,1/2-y,-z
1/2+x,1/2+y,1/2-z
1/2-x,1/2+y,z
1/2+x,1/2-y,1/2+z
loop_
_atom_site_type_symbol
_atom_site_label
_atom_site_fract_x
_atom_site_fract_y
_atom_site_fract_z
Si Si1 0.220761 0.162856 0.052893
Si Si2 0.705554 0.934037 0.544182
Si Si3 0.359633 0.249047 0.962625
Si Si4 0.056867 0.846029 0.540443
Si Si5 0.105351 0.380274 0.456692
Si Si6 0.360014 0.568996 0.950049
Si Si7 0.500000 0.070477 0.540689
O O1 0.235022 0.178214 0.250000
O O2 0.265243 0.124104 0.967834
O O3 0.192605 0.221049 0.975686
O O4 0.176310 0.112808 0.056727
O O5 0.708791 0.928834 0.750000
O O6 0.648020 0.929397 0.488858
O O7 0.726571 0.000000 0.500000
O O8 0.357195 0.249162 0.750000
O O9 0.405743 0.292375 0.013368
O O10 0.372678 0.182619 0.025103
O O11 0.056136 0.846082 0.750000
O O12 0.083882 0.906774 0.479362
O O13 0.000000 0.839075 0.479278
O O14 0.099877 0.372876 0.250000
O O15 0.051127 0.399145 0.525610
O O16 0.346196 0.577010 0.750000
O O17 0.355124 0.500000 0.000000
O O18 0.500000 0.076228 0.750000
O O19 0.500000 0.000000 0.500000
#
# Coordination Sequence:
#
# PCOD9474170 Si02
#       7
#    16  16  16  16  16  16   8
#     4   9  19  37  58  82 112 146 184 230 280 337
#     4  11  23  38  58  84 115 149 190 234 284 339
#     4   8  16  33  57  84 112 143 184 228 275 333
#     4   9  18  33  54  77 104 142 185 232 282 335
#     4  10  21  37  59  87 117 149 189 234 282 338
#     4  11  21  33  51  75 106 143 185 233 284 340
#     4  10  22  38  58  84 114 150 191 236 281 330
#
# _framework density 22.745180999999999
#
# number of rings (size 3 to 8) (size 9 to 14) (size 15 to 20)
#    0.000    2.308    0.000    3.692    1.077    5.538 
#    0.000    3.077    0.000    0.000    0.000    0.000 
#    0.000    0.000    0.000    0.000    0.000    0.000 
#
# Total GULP energy -290458.404404 kJ/mol
# GULP energy per Si atom -5585.738546 kJ/mol
# Density = 2.269341 g / cm^3
# Si number density = 22.745181 Si / 1000 Ang^3
#
#
#
# Elastic Constant Matrix: (Units=GPa)
#
#
# Indices 1 2 3 4 5 6 
#
# 1 151.1621 52.1578 3.2636 0.0000 0.0000 0.0000
# 2 52.1578 135.8520 2.0353 0.0000 0.0000 0.0000
# 3 3.2636 2.0353 56.4333 0.0000 0.0000 0.0000
# 4 0.0000 0.0000 0.0000 15.3562 0.0000 0.0000
# 5 0.0000 0.0000 0.0000 0.0000 13.5710 0.0000
# 6 0.0000 0.0000 0.0000 0.0000 0.0000 8.3380
#
#
#
# Elastic Compliance Matrix: (Units=1/GPa)
#
#
# Indices 1 2 3 4 5 6 
#
# 1 0.007632 -0.002925 -0.000336 0.000000 0.000000 0.000000
# 2 -0.002925 0.008486 -0.000137 0.000000 0.000000 0.000000
# 3 -0.000336 -0.000137 0.017744 0.000000 0.000000 0.000000
# 4 0.000000 0.000000 0.000000 0.065120 0.000000 0.000000
# 5 0.000000 0.000000 0.000000 0.000000 0.073687 0.000000
# 6 0.000000 0.000000 0.000000 0.000000 0.000000 0.119933
#
#
# Mechanical properties :
#
#
# Convention : Reuss Voigt Hill
#
# Bulk Modulus (GPa) = 36.94584 50.92898 43.93741
# Shear Modulus (GPa) = 16.21163 26.51907 21.36535
#
# Velocity S-wave (km/s) = 2.67263 3.41826 3.06818
# Velocity P-wave (km/s) = 5.07963 6.16596 5.64897
#
# Compressibility (1/GPa) = 0.02706664
#
# Stress axis : x y z
#
# Youngs Moduli (GPa) = 131.02778 117.84046 56.35586
#
# Poissons Ratio (x) = 0.34470 0.01893
# Poissons Ratio (y) = 0.38327 0.00771
# Poissons Ratio (z) = 0.04401 0.01613
#
# Static dielectric constant tensor:
#      x y z
#    x 1.865260 0.000000 0.000000 
#    y 0.000000 1.844710 0.000000 
#    z 0.000000 0.000000 1.844740 
# 
# From -- ./inp_files/12522.got.cif
#   From: 2010.05.17/outbox.cif.g08.bks.cpg/sg63_7_cif.got.tgz:12522.got - 2010.06.03 15:47:04.
