data_PCOD9474509
_publ_section_title
;
Structure prediction by ZEFSAII (Michael W. Deem and Ramdas Pophale) SiO2 
 PCOD9474509
Probable space group: C M C M
;
_chemical_formula_sum "Si O2"
_cell_formula_units_Z 68
_cell_length_a 23.034184
_cell_length_b 17.365133
_cell_length_c 7.587878
_cell_angle_alpha 90.000000
_cell_angle_beta 90.000000
_cell_angle_gamma 90.000000
_cell_volume 3035.087983
_symmetry_space_group_name_H-M "C M C M"
_symmetry_group_IT_number 63
_symmetry_cell_setting 'orthorhombic'
loop_
_space_group_symop_operation_xyz
x,y,z
-x,-y,1/2+z
x,-y,-z
-x,y,1/2-z
-x,-y,-z
x,y,1/2-z
-x,y,z
x,-y,1/2+z
1/2+x,1/2+y,z
1/2-x,1/2-y,1/2+z
1/2+x,1/2-y,-z
1/2-x,1/2+y,1/2-z
1/2-x,1/2-y,-z
1/2+x,1/2+y,1/2-z
1/2-x,1/2+y,z
1/2+x,1/2-y,1/2+z
loop_
_atom_site_type_symbol
_atom_site_label
_atom_site_fract_x
_atom_site_fract_y
_atom_site_fract_z
Si Si1 0.161454 0.413351 0.460934
Si Si2 0.095408 0.127302 0.543610
Si Si3 0.500000 0.500000 0.000000
Si Si4 0.063053 0.298831 0.036660
Si Si5 0.775401 0.835596 0.038177
O O1 0.144264 0.500000 0.500000
O O2 0.163261 0.404201 0.250000
O O3 0.115250 0.351701 0.529107
O O4 0.225718 0.393480 0.526895
O O5 0.098338 0.104902 0.750000
O O6 0.068953 0.212486 0.530930
O O7 0.160897 0.140040 0.471041
O O8 0.051383 0.065359 0.464113
O O9 0.066248 0.295387 0.250000
O O10 0.000000 0.330801 0.988510
O O11 0.780270 0.839246 0.250000
O O12 0.750000 0.750000 0.000000
#
# Coordination Sequence:
#
# PCOD9474509 Si02
#       5
#    16  16   4  16  16
#     4  10  22  39  59  88 123 157 201 253 309 368
#     4  11  24  41  62  90 123 163 211 255 306 376
#     4  12  26  40  60  90 132 168 206 262 316 372
#     4  10  21  39  63  88 118 158 201 250 310 370
#     4  10  21  39  63  91 121 158 206 257 311 373
#
# _framework density 22.404623000000001
#
# number of rings (size 3 to 8) (size 9 to 14) (size 15 to 20)
#    0.000    1.647    3.529    0.353    1.647    4.235 
#    0.000    0.000    0.000    0.000    0.000    0.000 
#    0.000    0.000    0.000    0.000    0.000    0.000 
#
# Total GULP energy -189381.959816 kJ/mol
# GULP energy per Si atom -5570.057642 kJ/mol
# Density = 2.235363 g / cm^3
# Si number density = 22.404623 Si / 1000 Ang^3
#
#
#
# Elastic Constant Matrix: (Units=GPa)
#
#
# Indices 1 2 3 4 5 6 
#
# 1 220.2031 78.9965 19.2659 0.0000 0.0000 0.0000
# 2 78.9965 150.6532 -7.2486 0.0000 0.0000 0.0000
# 3 19.2659 -7.2486 52.3023 0.0000 0.0000 0.0000
# 4 0.0000 0.0000 0.0000 -11.6868 0.0000 0.0000
# 5 0.0000 0.0000 0.0000 0.0000 -9.0567 0.0000
# 6 0.0000 0.0000 0.0000 0.0000 0.0000 48.5595
#
#
#
# Elastic Compliance Matrix: (Units=1/GPa)
#
#
# Indices 1 2 3 4 5 6 
#
# 1 0.005933 -0.003238 -0.002634 0.000000 0.000000 0.000000
# 2 -0.003238 0.008449 0.002364 0.000000 0.000000 0.000000
# 3 -0.002634 0.002364 0.020418 0.000000 0.000000 0.000000
# 4 0.000000 0.000000 0.000000 -0.085566 0.000000 0.000000
# 5 0.000000 0.000000 0.000000 0.000000 -0.110416 0.000000
# 6 0.000000 0.000000 0.000000 0.000000 0.000000 0.020593
#
#
# Mechanical properties :
#
#
# Convention : Reuss Voigt Hill
#
# Bulk Modulus (GPa) = 35.99307 67.24291 51.61799
# Shear Modulus (GPa) = -40.22191 27.70619 -6.25786
#
# Velocity S-wave (km/s) = -4.24164 3.52039 -1.67307
# Velocity P-wave (km/s) = 2.80869 6.82659 4.39963
#
# Compressibility (1/GPa) = 0.02778312
#
# Stress axis : x y z
#
# Youngs Moduli (GPa) = 168.53917 118.35240 48.97743
#
# Poissons Ratio (x) = 0.38322 0.12902
# Poissons Ratio (y) = 0.54572 -0.11577
# Poissons Ratio (z) = 0.44399 -0.27975
#
# Static dielectric constant tensor:
#      x y z
#    x 1.918440 0.000000 0.000000 
#    y 0.000000 1.761460 0.000000 
#    z 0.000000 0.000000 1.883330 
# 
# From -- ./inp_files/7611.got.cif
#   From: 2010.05.17/outbox.cif.g08.bks.cpg/sg63_4_cif.got.tgz:7611.got - 2010.06.03 15:47:04.
