data_PCOD9474195
_publ_section_title
;
Structure prediction by ZEFSAII (Michael W. Deem and Ramdas Pophale) SiO2 
 PCOD9474195
Probable space group: C M C M
;
_chemical_formula_sum "Si O2"
_cell_formula_units_Z 104
_cell_length_a 11.366573
_cell_length_b 25.179255
_cell_length_c 19.384428
_cell_angle_alpha 90.000000
_cell_angle_beta 90.000000
_cell_angle_gamma 90.000000
_cell_volume 5547.858962
_symmetry_space_group_name_H-M "C M C M"
_symmetry_group_IT_number 63
_symmetry_cell_setting 'orthorhombic'
loop_
_space_group_symop_operation_xyz
x,y,z
-x,-y,1/2+z
x,-y,-z
-x,y,1/2-z
-x,-y,-z
x,y,1/2-z
-x,y,z
x,-y,1/2+z
1/2+x,1/2+y,z
1/2-x,1/2-y,1/2+z
1/2+x,1/2-y,-z
1/2-x,1/2+y,1/2-z
1/2-x,1/2-y,-z
1/2+x,1/2+y,1/2-z
1/2-x,1/2+y,z
1/2+x,1/2-y,1/2+z
loop_
_atom_site_type_symbol
_atom_site_label
_atom_site_fract_x
_atom_site_fract_y
_atom_site_fract_z
Si Si1 0.000000 0.336815 0.940103
Si Si2 0.233844 0.814971 0.947342
Si Si3 0.778842 0.799632 0.404818
Si Si4 0.500000 0.961773 0.566561
Si Si5 0.794953 0.492181 0.829767
Si Si6 0.500000 0.250219 0.330728
Si Si7 0.859874 0.892542 0.670758
Si Si8 0.363106 0.108653 0.668301
O O1 0.126872 0.317972 0.966612
O O2 0.000000 0.399613 0.949809
O O3 0.000000 0.308729 0.864654
O O4 0.212203 0.755956 0.919163
O O5 0.201500 0.857075 0.888299
O O6 0.173128 0.820685 0.021440
O O7 0.694966 0.842979 0.371398
O O8 0.886505 0.782321 0.356719
O O9 0.500000 0.000000 0.500000
O O10 0.611766 0.972260 0.614817
O O11 0.837868 0.486926 0.750000
O O12 0.683315 0.453550 0.835863
O O13 0.787260 0.555086 0.842452
O O14 0.500000 0.245174 0.250000
O O15 0.828812 0.875854 0.750000
O O16 0.000000 0.888468 0.663402
O O17 0.363185 0.119804 0.750000
O O18 0.500000 0.098899 0.647851
#
# Coordination Sequence:
#
# PCOD9474195 Si02
#       8
#     8  16  16   8  16   8  16  16
#     4  10  22  38  59  95 116 164 204 254 317 355
#     4  10  22  39  61  88 122 160 203 248 317 368
#     4  10  23  39  59  87 123 163 197 254 308 365
#     4  12  23  34  61  96 123 156 195 251 305 369
#     4  10  21  39  59  86 121 158 197 248 308 362
#     4  10  22  42  64  89 120 162 222 259 299 371
#     4  10  22  40  63  89 120 159 207 257 305 370
#     4  10  21  37  60  88 118 157 200 248 306 366
#
# _framework density 18.74597
#
# number of rings (size 3 to 8) (size 9 to 14) (size 15 to 20)
#    0.000    1.846    2.308    0.692    4.308    4.308 
#    1.385    1.538    0.000    1.385    0.000    0.000 
#    0.000    0.000    0.000    0.000    0.000    0.000 
#
# Total GULP energy -289901.567628 kJ/mol
# GULP energy per Si atom -5575.030147 kJ/mol
# Density = 1.870330 g / cm^3
# Si number density = 18.745970 Si / 1000 Ang^3
#
#
#
# Elastic Constant Matrix: (Units=GPa)
#
#
# Indices 1 2 3 4 5 6 
#
# 1 48.9777 30.1221 29.3203 0.0000 0.0000 0.0000
# 2 30.1221 143.7272 53.0069 0.0000 0.0000 0.0000
# 3 29.3203 53.0069 80.8193 0.0000 0.0000 0.0000
# 4 0.0000 0.0000 0.0000 30.9584 0.0000 0.0000
# 5 0.0000 0.0000 0.0000 0.0000 18.8361 0.0000
# 6 0.0000 0.0000 0.0000 0.0000 0.0000 23.6338
#
#
#
# Elastic Compliance Matrix: (Units=1/GPa)
#
#
# Indices 1 2 3 4 5 6 
#
# 1 0.026844 -0.002683 -0.007979 0.000000 0.000000 0.000000
# 2 -0.002683 0.009446 -0.005222 0.000000 0.000000 0.000000
# 3 -0.007979 -0.005222 0.018693 0.000000 0.000000 0.000000
# 4 0.000000 0.000000 0.000000 0.032301 0.000000 0.000000
# 5 0.000000 0.000000 0.000000 0.000000 0.053090 0.000000
# 6 0.000000 0.000000 0.000000 0.000000 0.000000 0.042312
#
#
# Mechanical properties :
#
#
# Convention : Reuss Voigt Hill
#
# Bulk Modulus (GPa) = 43.07584 55.38032 49.22808
# Shear Modulus (GPa) = 22.50306 25.42400 23.96353
#
# Velocity S-wave (km/s) = 3.46847 3.68671 3.57925
# Velocity P-wave (km/s) = 6.25052 6.90862 6.58779
#
# Compressibility (1/GPa) = 0.02321487
#
# Stress axis : x y z
#
# Youngs Moduli (GPa) = 37.25192 105.86755 53.49690
#
# Poissons Ratio (x) = 0.28408 0.42684
# Poissons Ratio (y) = 0.09996 0.27934
# Poissons Ratio (z) = 0.29723 0.55281
#
# Static dielectric constant tensor:
#      x y z
#    x 1.661860 0.000000 0.000000 
#    y 0.000000 1.647390 0.000000 
#    z 0.000000 0.000000 1.666960 
# 
# From -- ./inp_files/42827.got.cif
#   From: 2010.05.17/outbox.cif.g08.bks.cpg/sg63_22_cif.got.tgz:42827.got - 2010.06.03 15:47:04.
