data_PCOD9474890
_publ_section_title
;
Structure prediction by ZEFSAII (Michael W. Deem and Ramdas Pophale) SiO2 
 PCOD9474890
Probable space group: C M C M
;
_chemical_formula_sum "Si O2"
_cell_formula_units_Z 68
_cell_length_a 14.469246
_cell_length_b 9.291236
_cell_length_c 23.950036
_cell_angle_alpha 90.000000
_cell_angle_beta 90.000000
_cell_angle_gamma 90.000000
_cell_volume 3219.775285
_symmetry_space_group_name_H-M "C M C M"
_symmetry_group_IT_number 63
_symmetry_cell_setting 'orthorhombic'
loop_
_space_group_symop_operation_xyz
x,y,z
-x,-y,1/2+z
x,-y,-z
-x,y,1/2-z
-x,-y,-z
x,y,1/2-z
-x,y,z
x,-y,1/2+z
1/2+x,1/2+y,z
1/2-x,1/2-y,1/2+z
1/2+x,1/2-y,-z
1/2-x,1/2+y,1/2-z
1/2-x,1/2-y,-z
1/2+x,1/2+y,1/2-z
1/2-x,1/2+y,z
1/2+x,1/2-y,1/2+z
loop_
_atom_site_type_symbol
_atom_site_label
_atom_site_fract_x
_atom_site_fract_y
_atom_site_fract_z
Si Si1 0.853873 0.734089 0.250000
Si Si2 0.896954 0.495680 0.655533
Si Si3 0.293225 0.108383 0.552784
Si Si4 0.500000 0.502531 0.750000
Si Si5 0.865785 0.273487 0.250000
Si Si6 0.602237 0.667728 0.983752
O O1 0.876240 0.638345 0.304556
O O2 0.744879 0.762862 0.250000
O O3 0.918786 0.872238 0.250000
O O4 0.824749 0.523131 0.606643
O O5 0.893406 0.633915 0.695932
O O6 0.000000 0.482086 0.631638
O O7 0.364280 0.235257 0.535938
O O8 0.189974 0.173527 0.557643
O O9 0.293555 0.000000 0.500000
O O10 0.580763 0.375901 0.750000
O O11 0.500000 0.713161 0.964499
O O12 0.595774 0.500000 0.000000
#
# Coordination Sequence:
#
# PCOD9474890 Si02
#       6
#     8  16  16   4   8  16
#     4  11  24  43  74 104 138 169 234 306 351 423
#     4  11  22  45  66  93 138 181 217 284 360 412
#     4  10  22  39  67  93 127 185 227 265 343 409
#     4  12  20  46  76 106 130 178 242 284 350 430
#     4  11  24  43  72  98 134 183 226 286 363 429
#     4   9  19  38  60  89 129 170 226 280 318 387
#
# _framework density 21.119485999999998
#
# number of rings (size 3 to 8) (size 9 to 14) (size 15 to 20)
#    0.000    1.647    2.353    2.824    0.000    7.529 
#    0.000    2.353   15.529    0.000    0.000    0.000 
#    0.000    0.000    0.000    0.000    0.000    0.000 
#
# Total GULP energy -189433.490295 kJ/mol
# GULP energy per Si atom -5571.573244 kJ/mol
# Density = 2.107142 g / cm^3
# Si number density = 21.119486 Si / 1000 Ang^3
#
#
#
# Elastic Constant Matrix: (Units=GPa)
#
#
# Indices 1 2 3 4 5 6 
#
# 1 193.7589 49.5121 28.7788 0.0000 0.0000 0.0000
# 2 49.5121 152.2925 30.5053 0.0000 0.0000 0.0000
# 3 28.7788 30.5053 92.0199 0.0000 0.0000 0.0000
# 4 0.0000 0.0000 0.0000 1.5518 0.0000 0.0000
# 5 0.0000 0.0000 0.0000 0.0000 75.5412 0.0000
# 6 0.0000 0.0000 0.0000 0.0000 0.0000 24.5450
#
#
#
# Elastic Compliance Matrix: (Units=1/GPa)
#
#
# Indices 1 2 3 4 5 6 
#
# 1 0.005763 -0.001620 -0.001265 0.000000 0.000000 0.000000
# 2 -0.001620 0.007489 -0.001976 0.000000 0.000000 0.000000
# 3 -0.001265 -0.001976 0.011918 0.000000 0.000000 0.000000
# 4 0.000000 0.000000 0.000000 0.644395 0.000000 0.000000
# 5 0.000000 0.000000 0.000000 0.000000 0.013238 0.000000
# 6 0.000000 0.000000 0.000000 0.000000 0.000000 0.040741
#
#
# Mechanical properties :
#
#
# Convention : Reuss Voigt Hill
#
# Bulk Modulus (GPa) = 64.73704 72.85152 68.79428
# Shear Modulus (GPa) = 6.77125 42.27928 24.52527
#
# Velocity S-wave (km/s) = 1.79252 4.47912 3.41143
# Velocity P-wave (km/s) = 5.91637 7.83070 6.93986
#
# Compressibility (1/GPa) = 0.01544711
#
# Stress axis : x y z
#
# Youngs Moduli (GPa) = 173.52102 133.53203 83.90712
#
# Poissons Ratio (x) = 0.21635 0.10616
# Poissons Ratio (y) = 0.28113 0.16579
# Poissons Ratio (z) = 0.21955 0.26385
#
# Static dielectric constant tensor:
#      x y z
#    x 1.829750 0.000000 0.000000 
#    y 0.000000 1.762200 0.000000 
#    z 0.000000 0.000000 1.764560 
# 
# From -- ./inp_files/69011.got.cif
#   From: 2010.05.17/outbox.cif.g08.bks.cpg/sg63_35_cif.got.tgz:69011.got - 2010.06.03 15:47:04.
