data_PCOD9474959
_publ_section_title
;
Structure prediction by ZEFSAII (Michael W. Deem and Ramdas Pophale) SiO2 
 PCOD9474959
Probable space group: C M C M
;
_chemical_formula_sum "Si O2"
_cell_formula_units_Z 48
_cell_length_a 15.654641
_cell_length_b 7.567383
_cell_length_c 17.457735
_cell_angle_alpha 90.000000
_cell_angle_beta 90.000000
_cell_angle_gamma 90.000000
_cell_volume 2068.124714
_symmetry_space_group_name_H-M "C M C M"
_symmetry_group_IT_number 63
_symmetry_cell_setting 'orthorhombic'
loop_
_space_group_symop_operation_xyz
x,y,z
-x,-y,1/2+z
x,-y,-z
-x,y,1/2-z
-x,-y,-z
x,y,1/2-z
-x,y,z
x,-y,1/2+z
1/2+x,1/2+y,z
1/2-x,1/2-y,1/2+z
1/2+x,1/2-y,-z
1/2-x,1/2+y,1/2-z
1/2-x,1/2-y,-z
1/2+x,1/2+y,1/2-z
1/2-x,1/2+y,z
1/2+x,1/2-y,1/2+z
loop_
_atom_site_type_symbol
_atom_site_label
_atom_site_fract_x
_atom_site_fract_y
_atom_site_fract_z
Si Si1 0.096375 0.388021 0.105463
Si Si2 0.896598 0.019339 0.334890
Si Si3 0.163181 0.266497 0.952264
O O1 0.127114 0.225435 0.156609
O O2 0.095503 0.304962 0.019764
O O3 0.000000 0.440270 0.127653
O O4 0.155920 0.559330 0.100629
O O5 0.874070 0.954674 0.250000
O O6 0.856569 0.902555 0.401674
O O7 0.000000 0.011962 0.342717
O O8 0.250000 0.250000 0.000000
#
# Coordination Sequence:
#
# PCOD9474959 Si02
#       3
#    16  16  16
#     4  10  22  40  65  95 127 171 225 278 326 393
#     4  10  22  41  66  96 132 177 227 281 344 411
#     4  11  23  37  66  94 132 172 222 278 338 401
#
# _framework density 23.209432
#
# number of rings (size 3 to 8) (size 9 to 14) (size 15 to 20)
#    0.000    1.667    0.000    5.000    9.333    4.000 
#    0.000    5.000    0.000    0.000    0.000    0.000 
#    0.000    0.000    0.000    0.000    0.000    0.000 
#
# Total GULP energy -134237.205121 kJ/mol
# GULP energy per Si atom -5593.216880 kJ/mol
# Density = 2.315661 g / cm^3
# Si number density = 23.209432 Si / 1000 Ang^3
#
#
#
# Elastic Constant Matrix: (Units=GPa)
#
#
# Indices 1 2 3 4 5 6 
#
# 1 93.0227 58.9290 19.9511 0.0000 0.0000 0.0000
# 2 58.9290 145.8591 36.8597 0.0000 0.0000 0.0000
# 3 19.9511 36.8597 71.6045 0.0000 0.0000 0.0000
# 4 0.0000 0.0000 0.0000 25.4313 0.0000 0.0000
# 5 0.0000 0.0000 0.0000 0.0000 18.2924 0.0000
# 6 0.0000 0.0000 0.0000 0.0000 0.0000 29.5916
#
#
#
# Elastic Compliance Matrix: (Units=1/GPa)
#
#
# Indices 1 2 3 4 5 6 
#
# 1 0.014534 -0.005574 -0.001180 0.000000 0.000000 0.000000
# 2 -0.005574 0.010019 -0.003604 0.000000 0.000000 0.000000
# 3 -0.001180 -0.003604 0.016150 0.000000 0.000000 0.000000
# 4 0.000000 0.000000 0.000000 0.039322 0.000000 0.000000
# 5 0.000000 0.000000 0.000000 0.000000 0.054668 0.000000
# 6 0.000000 0.000000 0.000000 0.000000 0.000000 0.033793
#
#
# Mechanical properties :
#
#
# Convention : Reuss Voigt Hill
#
# Bulk Modulus (GPa) = 50.03560 60.21843 55.12702
# Shear Modulus (GPa) = 25.52793 27.64616 26.58704
#
# Velocity S-wave (km/s) = 3.32006 3.45506 3.38824
# Velocity P-wave (km/s) = 6.02513 6.47446 6.25383
#
# Compressibility (1/GPa) = 0.01998577
#
# Stress axis : x y z
#
# Youngs Moduli (GPa) = 68.80371 99.81454 61.91998
#
# Poissons Ratio (x) = 0.55633 0.07310
# Poissons Ratio (y) = 0.38349 0.22318
# Poissons Ratio (z) = 0.08122 0.35976
#
# Static dielectric constant tensor:
#      x y z
#    x 1.922560 0.000000 0.000000 
#    y 0.000000 1.904600 0.000000 
#    z 0.000000 0.000000 1.874920 
# 
# From -- ./inp_files/43242.got.cif
#   From: 2010.05.17/outbox.cif.g08.bks.cpg/sg63_22_cif.got.tgz:43242.got - 2010.06.03 15:47:04.
