data_PCOD9474582
_publ_section_title
;
Structure prediction by ZEFSAII (Michael W. Deem and Ramdas Pophale) SiO2 
 PCOD9474582
Probable space group: C M C M
;
_chemical_formula_sum "Si O2"
_cell_formula_units_Z 72
_cell_length_a 22.457803
_cell_length_b 9.520178
_cell_length_c 17.191187
_cell_angle_alpha 90.000000
_cell_angle_beta 90.000000
_cell_angle_gamma 90.000000
_cell_volume 3675.515012
_symmetry_space_group_name_H-M "C M C M"
_symmetry_group_IT_number 63
_symmetry_cell_setting 'orthorhombic'
loop_
_space_group_symop_operation_xyz
x,y,z
-x,-y,1/2+z
x,-y,-z
-x,y,1/2-z
-x,-y,-z
x,y,1/2-z
-x,y,z
x,-y,1/2+z
1/2+x,1/2+y,z
1/2-x,1/2-y,1/2+z
1/2+x,1/2-y,-z
1/2-x,1/2+y,1/2-z
1/2-x,1/2-y,-z
1/2+x,1/2+y,1/2-z
1/2-x,1/2+y,z
1/2+x,1/2-y,1/2+z
loop_
_atom_site_type_symbol
_atom_site_label
_atom_site_fract_x
_atom_site_fract_y
_atom_site_fract_z
Si Si1 0.399695 0.000000 0.500000
Si Si2 0.634915 0.195927 0.250000
Si Si3 0.806454 0.327045 0.592768
Si Si4 0.371322 0.525468 0.250000
Si Si5 0.500000 0.117959 0.250000
Si Si6 0.500000 0.338702 0.750000
Si Si7 0.500000 0.894617 0.384919
Si Si8 0.814843 0.994951 0.914917
O O1 0.356360 0.119508 0.466408
O O2 0.442437 0.079812 0.561211
O O3 0.665885 0.128679 0.175603
O O4 0.644609 0.361670 0.250000
O O5 0.563582 0.191107 0.250000
O O6 0.744630 0.403041 0.575839
O O7 0.799213 0.159436 0.596355
O O8 0.440317 0.568594 0.250000
O O9 0.345973 0.566319 0.163675
O O10 0.500000 0.023369 0.325841
O O11 0.500000 0.240638 0.828006
O O12 0.847217 0.000000 0.000000
#
# Coordination Sequence:
#
# PCOD9474582 Si02
#       8
#     8   8  16   8   4   4   8  16
#     4  11  22  40  62  96 128 165 218 266 324 397
#     4  10  21  40  63  86 124 170 208 261 326 383
#     4  11  23  39  65  90 131 169 211 262 326 386
#     4  10  25  44  63  95 128 167 217 266 323 399
#     4  11  17  38  58  84 107 161 210 250 306 377
#     4  11  25  46  66  90 133 171 212 276 328 377
#     4  10  24  38  61  93 124 164 214 267 316 381
#     4  11  24  42  65  97 129 170 214 267 325 393
#
# _framework density 19.589092000000001
#
# number of rings (size 3 to 8) (size 9 to 14) (size 15 to 20)
#    0.000    1.333    3.333    1.667    3.111    0.000 
#    0.000    0.556    0.000    0.000    0.000    0.000 
#    0.000    0.000    0.000    0.000    0.000    0.000 
#
# Total GULP energy -200503.508528 kJ/mol
# GULP energy per Si atom -5569.541904 kJ/mol
# Density = 1.954451 g / cm^3
# Si number density = 19.589092 Si / 1000 Ang^3
#
#
#
# Elastic Constant Matrix: (Units=GPa)
#
#
# Indices 1 2 3 4 5 6 
#
# 1 89.3437 9.7599 57.1799 0.0000 0.0000 0.0000
# 2 9.7599 51.0776 12.4272 0.0000 0.0000 0.0000
# 3 57.1799 12.4272 151.1163 0.0000 0.0000 0.0000
# 4 0.0000 0.0000 0.0000 -4.6807 0.0000 0.0000
# 5 0.0000 0.0000 0.0000 0.0000 35.2772 0.0000
# 6 0.0000 0.0000 0.0000 0.0000 0.0000 10.6622
#
#
#
# Elastic Compliance Matrix: (Units=1/GPa)
#
#
# Indices 1 2 3 4 5 6 
#
# 1 0.014882 -0.001504 -0.005507 0.000000 0.000000 0.000000
# 2 -0.001504 0.020130 -0.001086 0.000000 0.000000 0.000000
# 3 -0.005507 -0.001086 0.008791 0.000000 0.000000 0.000000
# 4 0.000000 0.000000 0.000000 -0.213642 0.000000 0.000000
# 5 0.000000 0.000000 0.000000 0.000000 0.028347 0.000000
# 6 0.000000 0.000000 0.000000 0.000000 0.000000 0.093789
#
#
# Mechanical properties :
#
#
# Convention : Reuss Voigt Hill
#
# Bulk Modulus (GPa) = 36.22243 50.03018 43.12631
# Shear Modulus (GPa) = -224.14454 22.39645 -100.87405
#
# Velocity S-wave (km/s) = -10.70848 3.38496 -7.18379
# Velocity P-wave (km/s) = 11.59155 6.39316 6.83709
#
# Compressibility (1/GPa) = 0.02760720
#
# Stress axis : x y z
#
# Youngs Moduli (GPa) = 67.19681 49.67787 113.75735
#
# Poissons Ratio (x) = 0.07470 0.62650
# Poissons Ratio (y) = 0.10104 0.12359
# Poissons Ratio (z) = 0.37007 0.05397
#
# Static dielectric constant tensor:
#      x y z
#    x 1.687420 0.000000 0.000000 
#    y 0.000000 1.671160 0.000000 
#    z 0.000000 0.000000 1.784930 
# 
# From -- ./inp_files/47863.got.cif
#   From: 2010.05.17/outbox.cif.g08.bks.cpg/sg63_24_cif.got.tgz:47863.got - 2010.06.03 15:47:04.
