data_PCOD9474497
_publ_section_title
;
Structure prediction by ZEFSAII (Michael W. Deem and Ramdas Pophale) SiO2 
 PCOD9474497
Probable space group: C M C M
;
_chemical_formula_sum "Si O2"
_cell_formula_units_Z 80
_cell_length_a 18.996882
_cell_length_b 19.269005
_cell_length_c 10.970058
_cell_angle_alpha 90.000000
_cell_angle_beta 90.000000
_cell_angle_gamma 90.000000
_cell_volume 4015.600857
_symmetry_space_group_name_H-M "C M C M"
_symmetry_group_IT_number 63
_symmetry_cell_setting 'orthorhombic'
loop_
_space_group_symop_operation_xyz
x,y,z
-x,-y,1/2+z
x,-y,-z
-x,y,1/2-z
-x,-y,-z
x,y,1/2-z
-x,y,z
x,-y,1/2+z
1/2+x,1/2+y,z
1/2-x,1/2-y,1/2+z
1/2+x,1/2-y,-z
1/2-x,1/2+y,1/2-z
1/2-x,1/2-y,-z
1/2+x,1/2+y,1/2-z
1/2-x,1/2+y,z
1/2+x,1/2-y,1/2+z
loop_
_atom_site_type_symbol
_atom_site_label
_atom_site_fract_x
_atom_site_fract_y
_atom_site_fract_z
Si Si1 0.500000 0.745714 0.393155
Si Si2 0.633982 0.197390 0.479444
Si Si3 0.500000 0.365024 0.386714
Si Si4 0.359123 0.455158 0.118683
Si Si5 0.414751 0.049885 0.112758
Si Si6 0.279476 0.685065 0.881691
O O1 0.500000 0.725587 0.250000
O O2 0.570829 0.788900 0.425357
O O3 0.500000 0.684761 0.495328
O O4 0.613291 0.128195 0.406776
O O5 0.650563 0.269261 0.408843
O O6 0.711841 0.188036 0.533484
O O7 0.500000 0.330591 0.250000
O O8 0.566941 0.415461 0.391011
O O9 0.356843 0.492910 0.250000
O O10 0.302565 0.394116 0.120672
O O11 0.348324 0.500000 0.000000
O O12 0.394752 0.025500 0.250000
O O13 0.500000 0.052526 0.108685
O O14 0.392118 0.000000 0.000000
O O15 0.254380 0.709736 0.750000
#
# Coordination Sequence:
#
# PCOD9474497 Si02
#       6
#     8  16   8  16  16  16
#     4  12  24  37  62  99 129 159 203 263 320 366
#     4  11  22  41  63  91 125 163 210 254 315 374
#     4  10  21  39  63  89 123 165 210 253 304 372
#     4  10  21  39  62  90 122 164 206 253 306 362
#     4  10  22  40  64  93 123 162 207 258 312 373
#     4  10  22  40  62  89 124 164 209 256 308 371
#
# _framework density 19.922297
#
# number of rings (size 3 to 8) (size 9 to 14) (size 15 to 20)
#    0.000    1.600    3.000    1.500    0.000    4.000 
#    0.000    4.000    0.000    0.000    0.000    0.000 
#    0.000    0.000    0.000    0.000    0.000    0.000 
#
# Total GULP energy -222830.404563 kJ/mol
# GULP energy per Si atom -5570.760114 kJ/mol
# Density = 1.987695 g / cm^3
# Si number density = 19.922297 Si / 1000 Ang^3
#
#
#
# Elastic Constant Matrix: (Units=GPa)
#
#
# Indices 1 2 3 4 5 6 
#
# 1 45.8809 16.9710 15.1634 0.0000 0.0000 0.0000
# 2 16.9710 72.5624 69.3433 0.0000 0.0000 0.0000
# 3 15.1634 69.3433 166.4442 0.0000 0.0000 0.0000
# 4 0.0000 0.0000 0.0000 -0.0179 0.0000 0.0000
# 5 0.0000 0.0000 0.0000 0.0000 18.7241 0.0000
# 6 0.0000 0.0000 0.0000 0.0000 0.0000 11.1713
#
#
#
# Elastic Compliance Matrix: (Units=1/GPa)
#
#
# Indices 1 2 3 4 5 6 
#
# 1 0.023866 -0.005822 0.000251 0.000000 0.000000 0.000000
# 2 -0.005822 0.024318 -0.009601 0.000000 0.000000 0.000000
# 3 0.000251 -0.009601 0.009985 0.000000 0.000000 0.000000
# 4 0.000000 0.000000 0.000000-55.776818 0.000000 0.000000
# 5 0.000000 0.000000 0.000000 0.000000 0.053407 0.000000
# 6 0.000000 0.000000 0.000000 0.000000 0.000000 0.089515
#
#
# Mechanical properties :
#
#
# Convention : Reuss Voigt Hill
#
# Bulk Modulus (GPa) = 35.93783 54.20477 45.07130
# Shear Modulus (GPa) = -0.09003 18.20281 9.05639
#
# Velocity S-wave (km/s) = -0.21281 3.02601 2.13441
# Velocity P-wave (km/s) = 4.24473 6.28300 5.36162
#
# Compressibility (1/GPa) = 0.02782583
#
# Stress axis : x y z
#
# Youngs Moduli (GPa) = 41.90060 41.12222 100.15065
#
# Poissons Ratio (x) = 0.23941 -0.02517
# Poissons Ratio (y) = 0.24394 0.96152
# Poissons Ratio (z) = -0.01053 0.39480
#
# Static dielectric constant tensor:
#      x y z
#    x 1.703840 0.000000 0.000000 
#    y 0.000000 1.726220 0.000000 
#    z 0.000000 0.000000 1.785320 
# 
# From -- ./inp_files/21033.got.cif
#   From: 2010.05.17/outbox.cif.g08.bks.cpg/sg63_11_cif.got.tgz:21033.got - 2010.06.03 15:47:04.
