data_PCOD9474493
_publ_section_title
;
Structure prediction by ZEFSAII (Michael W. Deem and Ramdas Pophale) SiO2 
 PCOD9474493
Probable space group: C M C M
;
_chemical_formula_sum "Si O2"
_cell_formula_units_Z 80
_cell_length_a 14.852020
_cell_length_b 30.650130
_cell_length_c 8.861009
_cell_angle_alpha 90.000000
_cell_angle_beta 90.000000
_cell_angle_gamma 90.000000
_cell_volume 4033.676119
_symmetry_space_group_name_H-M "C M C M"
_symmetry_group_IT_number 63
_symmetry_cell_setting 'orthorhombic'
loop_
_space_group_symop_operation_xyz
x,y,z
-x,-y,1/2+z
x,-y,-z
-x,y,1/2-z
-x,-y,-z
x,y,1/2-z
-x,y,z
x,-y,1/2+z
1/2+x,1/2+y,z
1/2-x,1/2-y,1/2+z
1/2+x,1/2-y,-z
1/2-x,1/2+y,1/2-z
1/2-x,1/2-y,-z
1/2+x,1/2+y,1/2-z
1/2-x,1/2+y,z
1/2+x,1/2-y,1/2+z
loop_
_atom_site_type_symbol
_atom_site_label
_atom_site_fract_x
_atom_site_fract_y
_atom_site_fract_z
Si Si1 0.000000 0.803788 0.430311
Si Si2 0.500000 0.200457 0.069789
Si Si3 0.348604 0.636384 0.069397
Si Si4 0.350436 0.860298 0.066941
Si Si5 0.137848 0.455833 0.422473
Si Si6 0.142626 0.954942 0.424401
O O1 0.914194 0.827000 0.504384
O O2 0.000000 0.811172 0.250000
O O3 0.000000 0.752123 0.457921
O O4 0.500000 0.193391 0.250000
O O5 0.413870 0.177281 0.995598
O O6 0.345013 0.637276 0.250000
O O7 0.249722 0.643338 0.999052
O O8 0.382264 0.588738 0.013804
O O9 0.347343 0.860097 0.250000
O O10 0.387246 0.908123 0.016963
O O11 0.106872 0.500000 0.500000
O O12 0.109296 0.457631 0.250000
O O13 0.247555 0.456032 0.426247
O O14 0.114700 0.952143 0.250000
O O15 0.111810 0.000000 0.500000
#
# Coordination Sequence:
#
# PCOD9474493 Si02
#       6
#     8   8  16  16  16  16
#     4  11  25  45  64  85 116 151 193 248 306 361
#     4  11  25  43  64  89 114 147 196 252 305 357
#     4  11  22  38  62  91 121 156 199 243 292 352
#     4  10  21  39  62  88 121 159 196 239 295 354
#     4   8  15  27  48  79 113 151 191 229 274 331
#     4   9  16  29  51  82 119 158 197 237 285 341
#
# _framework density 19.833026
#
# number of rings (size 3 to 8) (size 9 to 14) (size 15 to 20)
#    0.000    2.200    0.000    4.800    0.000    8.000 
#    0.000    1.000    0.000    0.000    0.000    0.000 
#    0.000    0.000    0.000    0.000    0.000    0.000 
#
# Total GULP energy -223464.400662 kJ/mol
# GULP energy per Si atom -5586.610017 kJ/mol
# Density = 1.978788 g / cm^3
# Si number density = 19.833026 Si / 1000 Ang^3
#
#
#
# Elastic Constant Matrix: (Units=GPa)
#
#
# Indices 1 2 3 4 5 6 
#
# 1 100.4986 73.9796 50.8968 0.0000 0.0000 0.0000
# 2 73.9796 189.8074 106.1764 0.0000 0.0000 0.0000
# 3 50.8968 106.1764 142.2472 0.0000 0.0000 0.0000
# 4 0.0000 0.0000 0.0000 37.2307 0.0000 0.0000
# 5 0.0000 0.0000 0.0000 0.0000 -28.6138 0.0000
# 6 0.0000 0.0000 0.0000 0.0000 0.0000 38.9411
#
#
#
# Elastic Compliance Matrix: (Units=1/GPa)
#
#
# Indices 1 2 3 4 5 6 
#
# 1 0.014170 -0.004613 -0.001627 0.000000 0.000000 0.000000
# 2 -0.004613 0.010547 -0.006222 0.000000 0.000000 0.000000
# 3 -0.001627 -0.006222 0.012256 0.000000 0.000000 0.000000
# 4 0.000000 0.000000 0.000000 0.026860 0.000000 0.000000
# 5 0.000000 0.000000 0.000000 0.000000 -0.034948 0.000000
# 6 0.000000 0.000000 0.000000 0.000000 0.000000 0.025680
#
#
# Mechanical properties :
#
#
# Convention : Reuss Voigt Hill
#
# Bulk Modulus (GPa) = 82.98932 99.40654 91.19793
# Shear Modulus (GPa) = 59.87704 22.94495 41.41100
#
# Velocity S-wave (km/s) = 5.50056 3.40502 4.57440
# Velocity P-wave (km/s) = 9.07063 8.10490 8.60133
#
# Compressibility (1/GPa) = 0.01204974
#
# Stress axis : x y z
#
# Youngs Moduli (GPa) = 70.57187 94.81483 81.59027
#
# Poissons Ratio (x) = 0.43736 0.13275
# Poissons Ratio (y) = 0.32553 0.50765
# Poissons Ratio (z) = 0.11482 0.58993
#
# Static dielectric constant tensor:
#      x y z
#    x 1.750680 0.000000 0.000000 
#    y 0.000000 1.684070 0.000000 
#    z 0.000000 0.000000 1.664790 
# 
# From -- ./inp_files/6514.got.cif
#   From: 2010.05.17/outbox.cif.g08.bks.cpg/sg63_4_cif.got.tgz:6514.got - 2010.06.03 15:47:04.
