data_PCOD9474879
_publ_section_title
;
Structure prediction by ZEFSAII (Michael W. Deem and Ramdas Pophale) SiO2 
 PCOD9474879
Probable space group: C M C M
;
_chemical_formula_sum "Si O2"
_cell_formula_units_Z 48
_cell_length_a 27.295827
_cell_length_b 5.807289
_cell_length_c 14.195775
_cell_angle_alpha 90.000000
_cell_angle_beta 90.000000
_cell_angle_gamma 90.000000
_cell_volume 2250.239809
_symmetry_space_group_name_H-M "C M C M"
_symmetry_group_IT_number 63
_symmetry_cell_setting 'orthorhombic'
loop_
_space_group_symop_operation_xyz
x,y,z
-x,-y,1/2+z
x,-y,-z
-x,y,1/2-z
-x,-y,-z
x,y,1/2-z
-x,y,z
x,-y,1/2+z
1/2+x,1/2+y,z
1/2-x,1/2-y,1/2+z
1/2+x,1/2-y,-z
1/2-x,1/2+y,1/2-z
1/2-x,1/2-y,-z
1/2+x,1/2+y,1/2-z
1/2-x,1/2+y,z
1/2+x,1/2-y,1/2+z
loop_
_atom_site_type_symbol
_atom_site_label
_atom_site_fract_x
_atom_site_fract_y
_atom_site_fract_z
Si Si1 0.055867 0.663642 0.644710
Si Si2 0.722913 0.000000 0.500000
Si Si3 0.851699 0.664338 0.143310
Si Si4 0.395185 0.500000 0.500000
O O1 0.059511 0.774034 0.750000
O O2 0.095813 0.462752 0.643607
O O3 0.000000 0.582821 0.633891
O O4 0.070909 0.830118 0.560339
O O5 0.750000 0.750000 0.500000
O O6 0.687999 0.994652 0.592016
O O7 0.838012 0.721085 0.250000
O O8 0.860368 0.879525 0.075992
#
# Coordination Sequence:
#
# PCOD9474879 Si02
#       4
#    16   8  16   8
#     4  10  22  39  64 100 140 185 234 287 357 439
#     4  12  27  50  76 106 139 183 246 305 366 434
#     4  11  25  45  69 101 144 185 235 302 365 435
#     4  12  20  40  65 100 140 189 236 291 353 430
#
# _framework density 21.331060999999998
#
# number of rings (size 3 to 8) (size 9 to 14) (size 15 to 20)
#    0.000    1.000    3.333    2.500    0.000    5.333 
#    0.000    3.333    0.000    0.000    0.000    0.000 
#    0.000    0.000    0.000    0.000    0.000    0.000 
#
# Total GULP energy -134076.082531 kJ/mol
# GULP energy per Si atom -5586.503439 kJ/mol
# Density = 2.128251 g / cm^3
# Si number density = 21.331061 Si / 1000 Ang^3
#
#
#
# Elastic Constant Matrix: (Units=GPa)
#
#
# Indices 1 2 3 4 5 6 
#
# 1 110.6950 45.7748 54.8012 0.0000 0.0000 0.0000
# 2 45.7748 76.5785 59.5825 0.0000 0.0000 0.0000
# 3 54.8012 59.5825 200.5277 0.0000 0.0000 0.0000
# 4 0.0000 0.0000 0.0000 34.0842 0.0000 0.0000
# 5 0.0000 0.0000 0.0000 0.0000 182.6456 0.0000
# 6 0.0000 0.0000 0.0000 0.0000 0.0000 30.3682
#
#
#
# Elastic Compliance Matrix: (Units=1/GPa)
#
#
# Indices 1 2 3 4 5 6 
#
# 1 0.012354 -0.006188 -0.001537 0.000000 0.000000 0.000000
# 2 -0.006188 0.020085 -0.004277 0.000000 0.000000 0.000000
# 3 -0.001537 -0.004277 0.006678 0.000000 0.000000 0.000000
# 4 0.000000 0.000000 0.000000 0.029339 0.000000 0.000000
# 5 0.000000 0.000000 0.000000 0.000000 0.005475 0.000000
# 6 0.000000 0.000000 0.000000 0.000000 0.000000 0.032929
#
#
# Mechanical properties :
#
#
# Convention : Reuss Voigt Hill
#
# Bulk Modulus (GPa) = 66.17319 78.67980 72.42649
# Shear Modulus (GPa) = 36.79111 64.59580 50.69345
#
# Velocity S-wave (km/s) = 4.15754 5.50892 4.88023
# Velocity P-wave (km/s) = 7.35773 8.79940 8.11066
#
# Compressibility (1/GPa) = 0.01511186
#
# Stress axis : x y z
#
# Youngs Moduli (GPa) = 80.94542 49.78808 149.75192
#
# Poissons Ratio (x) = 0.30811 0.23023
# Poissons Ratio (y) = 0.50092 0.64044
# Poissons Ratio (z) = 0.12445 0.21293
#
# Static dielectric constant tensor:
#      x y z
#    x 1.791940 0.000000 0.000000 
#    y 0.000000 1.800530 0.000000 
#    z 0.000000 0.000000 1.767540 
# 
# From -- ./inp_files/37362.got.cif
#   From: 2010.05.17/outbox.cif.g08.bks.cpg/sg63_19_cif.got.tgz:37362.got - 2010.06.03 15:47:04.
