data_PCOD9474647
_publ_section_title
;
Structure prediction by ZEFSAII (Michael W. Deem and Ramdas Pophale) SiO2 
 PCOD9474647
Probable space group: C M C M
;
_chemical_formula_sum "Si O2"
_cell_formula_units_Z 68
_cell_length_a 23.098785
_cell_length_b 8.731357
_cell_length_c 15.377392
_cell_angle_alpha 90.000000
_cell_angle_beta 90.000000
_cell_angle_gamma 90.000000
_cell_volume 3101.369901
_symmetry_space_group_name_H-M "C M C M"
_symmetry_group_IT_number 63
_symmetry_cell_setting 'orthorhombic'
loop_
_space_group_symop_operation_xyz
x,y,z
-x,-y,1/2+z
x,-y,-z
-x,y,1/2-z
-x,-y,-z
x,y,1/2-z
-x,y,z
x,-y,1/2+z
1/2+x,1/2+y,z
1/2-x,1/2-y,1/2+z
1/2+x,1/2-y,-z
1/2-x,1/2+y,1/2-z
1/2-x,1/2-y,-z
1/2+x,1/2+y,1/2-z
1/2-x,1/2+y,z
1/2+x,1/2-y,1/2+z
loop_
_atom_site_type_symbol
_atom_site_label
_atom_site_fract_x
_atom_site_fract_y
_atom_site_fract_z
Si Si1 0.823305 0.882835 0.644803
Si Si2 0.293139 0.723731 0.644660
Si Si3 0.436173 0.793518 0.090315
Si Si4 0.413189 0.861525 0.610392
Si Si5 0.000000 0.759553 0.250000
O O1 0.822863 0.883775 0.750000
O O2 0.770001 0.776774 0.614611
O O3 0.884610 0.817727 0.615919
O O4 0.810618 0.054818 0.614295
O O5 0.291462 0.721945 0.750000
O O6 0.344631 0.836871 0.618252
O O7 0.500000 0.734325 0.113142
O O8 0.428099 0.962062 0.132218
O O9 0.431887 0.824947 0.987524
O O10 0.449065 0.754564 0.674784
#
# Coordination Sequence:
#
# PCOD9474647 Si02
#       5
#    16  16  16  16   4
#     4  10  23  40  63  91 126 165 210 258 313 362
#     4  10  21  41  64  94 121 164 216 259 303 371
#     4  11  23  41  58  95 130 161 206 253 305 374
#     4  11  22  39  66  92 124 161 209 253 307 372
#     4  12  20  38  68  96 118 170 202 252 314 364
#
# _framework density 21.925795000000001
#
# number of rings (size 3 to 8) (size 9 to 14) (size 15 to 20)
#    0.000    1.412    3.529    2.118    1.647    4.235 
#    2.118    1.176    0.000    0.000    0.000    0.000 
#    0.000    0.000    0.000    0.000    0.000    0.000 
#
# Total GULP energy -189715.379889 kJ/mol
# GULP energy per Si atom -5579.864114 kJ/mol
# Density = 2.187589 g / cm^3
# Si number density = 21.925795 Si / 1000 Ang^3
#
#
#
# Elastic Constant Matrix: (Units=GPa)
#
#
# Indices 1 2 3 4 5 6 
#
# 1 231.6718 62.0207 11.7392 0.0000 0.0000 0.0000
# 2 62.0207 58.7462 7.2404 0.0000 0.0000 0.0000
# 3 11.7392 7.2404 28.6703 0.0000 0.0000 0.0000
# 4 0.0000 0.0000 0.0000 25.7389 0.0000 0.0000
# 5 0.0000 0.0000 0.0000 0.0000 22.5273 0.0000
# 6 0.0000 0.0000 0.0000 0.0000 0.0000 26.8563
#
#
#
# Elastic Compliance Matrix: (Units=1/GPa)
#
#
# Indices 1 2 3 4 5 6 
#
# 1 0.006039 -0.006266 -0.000890 0.000000 0.000000 0.000000
# 2 -0.006266 0.024070 -0.003513 0.000000 0.000000 0.000000
# 3 -0.000890 -0.003513 0.036131 0.000000 0.000000 0.000000
# 4 0.000000 0.000000 0.000000 0.038852 0.000000 0.000000
# 5 0.000000 0.000000 0.000000 0.000000 0.044391 0.000000
# 6 0.000000 0.000000 0.000000 0.000000 0.000000 0.037235
#
#
# Mechanical properties :
#
#
# Convention : Reuss Voigt Hill
#
# Bulk Modulus (GPa) = 22.27083 53.45434 37.86259
# Shear Modulus (GPa) = 22.41909 30.89701 26.65805
#
# Velocity S-wave (km/s) = 3.20112 3.75795 3.49066
# Velocity P-wave (km/s) = 4.88286 6.57740 5.79243
#
# Compressibility (1/GPa) = 0.04490178
#
# Stress axis : x y z
#
# Youngs Moduli (GPa) = 165.59036 41.54465 27.67704
#
# Poissons Ratio (x) = 0.26031 0.02464
# Poissons Ratio (y) = 1.03757 0.09723
# Poissons Ratio (z) = 0.14743 0.14595
#
# Static dielectric constant tensor:
#      x y z
#    x 1.783530 0.000000 0.000000 
#    y 0.000000 1.807260 0.000000 
#    z 0.000000 0.000000 1.802470 
# 
# From -- ./inp_files/46626.got.cif
#   From: 2010.05.17/outbox.cif.g08.bks.cpg/sg63_24_cif.got.tgz:46626.got - 2010.06.03 15:47:04.
