data_PCOD9474861
_publ_section_title
;
Structure prediction by ZEFSAII (Michael W. Deem and Ramdas Pophale) SiO2 
 PCOD9474861
Probable space group: C M C M
;
_chemical_formula_sum "Si O2"
_cell_formula_units_Z 88
_cell_length_a 18.605549
_cell_length_b 29.021580
_cell_length_c 8.713907
_cell_angle_alpha 90.000000
_cell_angle_beta 90.000000
_cell_angle_gamma 90.000000
_cell_volume 4705.182388
_symmetry_space_group_name_H-M "C M C M"
_symmetry_group_IT_number 63
_symmetry_cell_setting 'orthorhombic'
loop_
_space_group_symop_operation_xyz
x,y,z
-x,-y,1/2+z
x,-y,-z
-x,y,1/2-z
-x,-y,-z
x,y,1/2-z
-x,y,z
x,-y,1/2+z
1/2+x,1/2+y,z
1/2-x,1/2-y,1/2+z
1/2+x,1/2-y,-z
1/2-x,1/2+y,1/2-z
1/2-x,1/2-y,-z
1/2+x,1/2+y,1/2-z
1/2-x,1/2+y,z
1/2+x,1/2-y,1/2+z
loop_
_atom_site_type_symbol
_atom_site_label
_atom_site_fract_x
_atom_site_fract_y
_atom_site_fract_z
Si Si1 0.500000 0.551703 0.066163
Si Si2 0.085767 0.792762 0.572309
Si Si3 0.815741 0.279427 0.933772
Si Si4 0.580163 0.948798 0.935151
Si Si5 0.787086 0.385489 0.564537
Si Si6 0.631956 0.389255 0.432434
O O1 0.500000 0.550601 0.250000
O O2 0.500000 0.500000 0.000000
O O3 0.429611 0.579279 0.008485
O O4 0.109138 0.796508 0.750000
O O5 0.114398 0.745295 0.502336
O O6 0.117045 0.836412 0.481685
O O7 0.000000 0.795233 0.566222
O O8 0.817108 0.276334 0.750000
O O9 0.804412 0.332555 0.976518
O O10 0.750000 0.250000 0.000000
O O11 0.581644 0.950657 0.750000
O O12 0.500000 0.932161 0.980482
O O13 0.645704 0.916663 0.984466
O O14 0.588973 0.000000 0.000000
O O15 0.780121 0.387794 0.750000
O O16 0.711834 0.400649 0.491217
O O17 0.627424 0.393720 0.250000
#
# Coordination Sequence:
#
# PCOD9474861 Si02
#       6
#     8  16  16  16  16  16
#     4  12  26  46  68  92 126 162 206 264 319 372
#     4  11  23  39  60  85 119 162 206 252 304 363
#     4  11  22  36  58  86 120 159 202 251 303 360
#     4   9  19  38  63  89 118 155 198 245 302 366
#     4  10  22  39  61  89 125 164 203 252 310 369
#     4  12  24  39  63  91 120 161 209 253 307 372
#
# _framework density 18.702781999999999
#
# number of rings (size 3 to 8) (size 9 to 14) (size 15 to 20)
#    0.000    1.273    2.727    3.545    0.000    4.000 
#    0.000    3.636    0.000    2.182    0.000    0.000 
#    0.000    0.000    0.000    0.000    0.000    0.000 
#
# Total GULP energy -245924.555568 kJ/mol
# GULP energy per Si atom -5589.194445 kJ/mol
# Density = 1.866021 g / cm^3
# Si number density = 18.702782 Si / 1000 Ang^3
#
#
#
# Elastic Constant Matrix: (Units=GPa)
#
#
# Indices 1 2 3 4 5 6 
#
# 1 163.6788 87.9314 60.5087 0.0000 0.0000 0.0000
# 2 87.9314 107.0905 46.6180 0.0000 0.0000 0.0000
# 3 60.5087 46.6180 89.6550 0.0000 0.0000 0.0000
# 4 0.0000 0.0000 0.0000 29.5726 0.0000 0.0000
# 5 0.0000 0.0000 0.0000 0.0000 29.5352 0.0000
# 6 0.0000 0.0000 0.0000 0.0000 0.0000 39.1073
#
#
#
# Elastic Compliance Matrix: (Units=1/GPa)
#
#
# Indices 1 2 3 4 5 6 
#
# 1 0.011855 -0.008080 -0.003800 0.000000 0.000000 0.000000
# 2 -0.008080 0.017577 -0.003686 0.000000 0.000000 0.000000
# 3 -0.003800 -0.003686 0.015635 0.000000 0.000000 0.000000
# 4 0.000000 0.000000 0.000000 0.033815 0.000000 0.000000
# 5 0.000000 0.000000 0.000000 0.000000 0.033858 0.000000
# 6 0.000000 0.000000 0.000000 0.000000 0.000000 0.025571
#
#
# Mechanical properties :
#
#
# Convention : Reuss Voigt Hill
#
# Bulk Modulus (GPa) = 71.76085 83.39338 77.57712
# Shear Modulus (GPa) = 28.72122 30.66742 29.69432
#
# Velocity S-wave (km/s) = 3.92301 4.05375 3.98891
# Velocity P-wave (km/s) = 7.67935 8.16064 7.92365
#
# Compressibility (1/GPa) = 0.01393517
#
# Stress axis : x y z
#
# Youngs Moduli (GPa) = 84.35364 56.89258 63.95900
#
# Poissons Ratio (x) = 0.45969 0.24302
# Poissons Ratio (y) = 0.68157 0.23577
# Poissons Ratio (z) = 0.32051 0.20972
#
# Static dielectric constant tensor:
#      x y z
#    x 1.663290 0.000000 0.000000 
#    y 0.000000 1.617810 0.000000 
#    z 0.000000 0.000000 1.634360 
# 
# From -- ./inp_files/6890.got.cif
#   From: 2010.05.17/outbox.cif.g08.bks.cpg/sg63_4_cif.got.tgz:6890.got - 2010.06.03 15:47:04.
