data_PCOD9474694
_publ_section_title
;
Structure prediction by ZEFSAII (Michael W. Deem and Ramdas Pophale) SiO2 
 PCOD9474694
Probable space group: C M C M
;
_chemical_formula_sum "Si O2"
_cell_formula_units_Z 60
_cell_length_a 12.685502
_cell_length_b 8.780822
_cell_length_c 26.366313
_cell_angle_alpha 90.000000
_cell_angle_beta 90.000000
_cell_angle_gamma 90.000000
_cell_volume 2936.920799
_symmetry_space_group_name_H-M "C M C M"
_symmetry_group_IT_number 63
_symmetry_cell_setting 'orthorhombic'
loop_
_space_group_symop_operation_xyz
x,y,z
-x,-y,1/2+z
x,-y,-z
-x,y,1/2-z
-x,-y,-z
x,y,1/2-z
-x,y,z
x,-y,1/2+z
1/2+x,1/2+y,z
1/2-x,1/2-y,1/2+z
1/2+x,1/2-y,-z
1/2-x,1/2+y,1/2-z
1/2-x,1/2-y,-z
1/2+x,1/2+y,1/2-z
1/2-x,1/2+y,z
1/2+x,1/2-y,1/2+z
loop_
_atom_site_type_symbol
_atom_site_label
_atom_site_fract_x
_atom_site_fract_y
_atom_site_fract_z
Si Si1 0.500000 0.243225 0.509803
Si Si2 0.116274 0.614249 0.646692
Si Si3 0.000000 0.338903 0.250000
Si Si4 0.818413 0.500000 0.000000
Si Si5 0.288967 0.421113 0.894450
Si Si6 0.500000 0.538888 0.916721
O O1 0.603523 0.138666 0.513834
O O2 0.500000 0.318584 0.453944
O O3 0.500000 0.384889 0.548467
O O4 0.190607 0.470290 0.639561
O O5 0.174896 0.752395 0.619094
O O6 0.000000 0.588023 0.622847
O O7 0.089910 0.655131 0.704536
O O8 0.747572 0.549876 0.047641
O O9 0.392365 0.525670 0.885581
#
# Coordination Sequence:
#
# PCOD9474694 Si02
#       6
#     8  16   4   8  16   8
#     4  10  22  35  54  82 134 174 236 247 304 358
#     4  10  24  46  69  98 125 168 216 276 324 389
#     4   8  22  50  74  92 128 160 212 284 346 362
#     4  11  24  35  58  96 132 187 205 264 306 384
#     4  12  23  41  67  96 139 172 220 257 325 386
#     4  11  21  36  55  89 124 180 214 269 298 375
#
# _framework density 20.429561
#
# number of rings (size 3 to 8) (size 9 to 14) (size 15 to 20)
#    0.800    0.533    1.333    4.800    3.733    4.267 
#    2.400    0.000    0.000    1.600    0.000    0.000 
#    0.000    0.000    0.000    0.000    0.000    0.000 
#
# Total GULP energy -167160.932965 kJ/mol
# GULP energy per Si atom -5572.031099 kJ/mol
# Density = 2.038306 g / cm^3
# Si number density = 20.429561 Si / 1000 Ang^3
#
#
#
# Elastic Constant Matrix: (Units=GPa)
#
#
# Indices 1 2 3 4 5 6 
#
# 1 156.5504 49.9807 19.4077 0.0000 0.0000 0.0000
# 2 49.9807 65.2700 13.3480 0.0000 0.0000 0.0000
# 3 19.4077 13.3480 74.0262 0.0000 0.0000 0.0000
# 4 0.0000 0.0000 0.0000 3.5426 0.0000 0.0000
# 5 0.0000 0.0000 0.0000 0.0000 37.1776 0.0000
# 6 0.0000 0.0000 0.0000 0.0000 0.0000 27.5203
#
#
#
# Elastic Compliance Matrix: (Units=1/GPa)
#
#
# Indices 1 2 3 4 5 6 
#
# 1 0.008540 -0.006315 -0.001100 0.000000 0.000000 0.000000
# 2 -0.006315 0.020577 -0.002055 0.000000 0.000000 0.000000
# 3 -0.001100 -0.002055 0.014168 0.000000 0.000000 0.000000
# 4 0.000000 0.000000 0.000000 0.282281 0.000000 0.000000
# 5 0.000000 0.000000 0.000000 0.000000 0.026898 0.000000
# 6 0.000000 0.000000 0.000000 0.000000 0.000000 0.036337
#
#
# Mechanical properties :
#
#
# Convention : Reuss Voigt Hill
#
# Bulk Modulus (GPa) = 41.07616 51.25772 46.16694
# Shear Modulus (GPa) = 12.02343 27.85544 19.93943
#
# Velocity S-wave (km/s) = 2.42860 3.69655 3.12750
# Velocity P-wave (km/s) = 5.29283 6.58511 5.97402
#
# Compressibility (1/GPa) = 0.02434502
#
# Stress axis : x y z
#
# Youngs Moduli (GPa) = 117.09386 48.59885 70.58302
#
# Poissons Ratio (x) = 0.30688 0.07767
# Poissons Ratio (y) = 0.73940 0.14503
# Poissons Ratio (z) = 0.12885 0.09986
#
# Static dielectric constant tensor:
#      x y z
#    x 1.779750 0.000000 0.000000 
#    y 0.000000 1.766830 0.000000 
#    z 0.000000 0.000000 1.718320 
# 
# From -- ./inp_files/72341.got.cif
#   From: 2010.05.17/outbox.cif.g08.bks.cpg/sg63_37_cif.got.tgz:72341.got - 2010.06.03 15:47:04.
