data_PCOD9474422
_publ_section_title
;
Structure prediction by ZEFSAII (Michael W. Deem and Ramdas Pophale) SiO2 
 PCOD9474422
Probable space group: C M C M
;
_chemical_formula_sum "Si O2"
_cell_formula_units_Z 80
_cell_length_a 8.053171
_cell_length_b 28.330731
_cell_length_c 17.960519
_cell_angle_alpha 90.000000
_cell_angle_beta 90.000000
_cell_angle_gamma 90.000000
_cell_volume 4097.732306
_symmetry_space_group_name_H-M "C M C M"
_symmetry_group_IT_number 63
_symmetry_cell_setting 'orthorhombic'
loop_
_space_group_symop_operation_xyz
x,y,z
-x,-y,1/2+z
x,-y,-z
-x,y,1/2-z
-x,-y,-z
x,y,1/2-z
-x,y,z
x,-y,1/2+z
1/2+x,1/2+y,z
1/2-x,1/2-y,1/2+z
1/2+x,1/2-y,-z
1/2-x,1/2+y,1/2-z
1/2-x,1/2-y,-z
1/2+x,1/2+y,1/2-z
1/2-x,1/2+y,z
1/2+x,1/2-y,1/2+z
loop_
_atom_site_type_symbol
_atom_site_label
_atom_site_fract_x
_atom_site_fract_y
_atom_site_fract_z
Si Si1 0.000000 0.963110 0.335042
Si Si2 0.000000 0.850480 0.164605
Si Si3 0.305695 0.200509 0.408373
Si Si4 0.813753 0.304281 0.413691
Si Si5 0.301740 0.397113 0.836750
Si Si6 0.685406 0.990134 0.912036
O O1 0.000000 0.906861 0.337169
O O2 0.000000 0.980011 0.250000
O O3 0.834510 0.982135 0.373575
O O4 0.165240 0.831794 0.124970
O O5 0.000000 0.834276 0.250000
O O6 0.500000 0.208702 0.391536
O O7 0.207842 0.248897 0.394345
O O8 0.293208 0.191101 0.497033
O O9 0.241972 0.155480 0.363487
O O10 0.000000 0.320024 0.393754
O O11 0.254565 0.403750 0.750000
O O12 0.500000 0.404076 0.842927
O O13 0.213218 0.435584 0.889030
O O14 0.500000 0.004381 0.887374
O O15 0.696055 0.000000 0.000000
#
# Coordination Sequence:
#
# PCOD9474422 Si02
#       6
#     8   8  16  16  16  16
#     4  11  25  45  67  93 126 174 220 263 326 382
#     4  11  26  43  65  93 125 172 217 265 324 372
#     4  10  21  38  64  96 128 170 215 257 319 387
#     4  10  22  41  65  94 128 168 216 267 314 379
#     4  11  24  40  63  98 135 172 211 264 331 391
#     4  11  25  43  67  98 130 169 217 267 324 383
#
# _framework density 19.522991999999999
#
# number of rings (size 3 to 8) (size 9 to 14) (size 15 to 20)
#    0.000    1.400    2.000    2.100    5.600    4.800 
#    0.000    2.000    0.000    0.000    0.000    0.000 
#    0.000    0.000    0.000    0.000    0.000    0.000 
#
# Total GULP energy -223614.553327 kJ/mol
# GULP energy per Si atom -5590.363833 kJ/mol
# Density = 1.947856 g / cm^3
# Si number density = 19.522992 Si / 1000 Ang^3
#
#
#
# Elastic Constant Matrix: (Units=GPa)
#
#
# Indices 1 2 3 4 5 6 
#
# 1 161.5680 28.5196 53.3330 0.0000 0.0000 0.0000
# 2 28.5196 67.6918 38.8723 0.0000 0.0000 0.0000
# 3 53.3330 38.8723 67.7888 0.0000 0.0000 0.0000
# 4 0.0000 0.0000 0.0000 40.6614 0.0000 0.0000
# 5 0.0000 0.0000 0.0000 0.0000 -6.7252 0.0000
# 6 0.0000 0.0000 0.0000 0.0000 0.0000 40.5732
#
#
#
# Elastic Compliance Matrix: (Units=1/GPa)
#
#
# Indices 1 2 3 4 5 6 
#
# 1 0.008367 0.000380 -0.006801 0.000000 0.000000 0.000000
# 2 0.000380 0.022043 -0.012939 0.000000 0.000000 0.000000
# 3 -0.006801 -0.012939 0.027522 0.000000 0.000000 0.000000
# 4 0.000000 0.000000 0.000000 0.024593 0.000000 0.000000
# 5 0.000000 0.000000 0.000000 0.000000 -0.148695 0.000000
# 6 0.000000 0.000000 0.000000 0.000000 0.000000 0.024647
#
#
# Mechanical properties :
#
#
# Convention : Reuss Voigt Hill
#
# Bulk Modulus (GPa) = 52.04989 59.83316 55.94152
# Shear Modulus (GPa) = 1388.10769 26.65678 707.38223
#
# Velocity S-wave (km/s) = 26.69373 3.69915 19.05569
# Velocity P-wave (km/s) = 31.25368 6.99707 22.64676
#
# Compressibility (1/GPa) = 0.01921234
#
# Stress axis : x y z
#
# Youngs Moduli (GPa) = 119.51425 45.36552 36.33416
#
# Poissons Ratio (x) = -0.01725 0.24711
# Poissons Ratio (y) = -0.04545 0.47014
# Poissons Ratio (z) = 0.81281 0.58701
#
# Static dielectric constant tensor:
#      x y z
#    x 1.683990 0.000000 0.000000 
#    y 0.000000 1.667870 0.000000 
#    z 0.000000 0.000000 1.656920 
# 
# From -- ./inp_files/40594.got.cif
#   From: 2010.05.17/outbox.cif.g08.bks.cpg/sg63_21_cif.got.tgz:40594.got - 2010.06.03 15:47:04.
