data_PCOD9474933
_publ_section_title
;
Structure prediction by ZEFSAII (Michael W. Deem and Ramdas Pophale) SiO2 
 PCOD9474933
Probable space group: C M C M
;
_chemical_formula_sum "Si O2"
_cell_formula_units_Z 88
_cell_length_a 12.097111
_cell_length_b 20.716343
_cell_length_c 18.636686
_cell_angle_alpha 90.000000
_cell_angle_beta 90.000000
_cell_angle_gamma 90.000000
_cell_volume 4670.500756
_symmetry_space_group_name_H-M "C M C M"
_symmetry_group_IT_number 63
_symmetry_cell_setting 'orthorhombic'
loop_
_space_group_symop_operation_xyz
x,y,z
-x,-y,1/2+z
x,-y,-z
-x,y,1/2-z
-x,-y,-z
x,y,1/2-z
-x,y,z
x,-y,1/2+z
1/2+x,1/2+y,z
1/2-x,1/2-y,1/2+z
1/2+x,1/2-y,-z
1/2-x,1/2+y,1/2-z
1/2-x,1/2-y,-z
1/2+x,1/2+y,1/2-z
1/2-x,1/2+y,z
1/2+x,1/2-y,1/2+z
loop_
_atom_site_type_symbol
_atom_site_label
_atom_site_fract_x
_atom_site_fract_y
_atom_site_fract_z
Si Si1 0.500000 0.489854 0.587167
Si Si2 0.500000 0.225474 0.669796
Si Si3 0.727568 0.500633 0.166121
Si Si4 0.278026 0.323543 0.480269
Si Si5 0.722344 0.144191 0.670511
Si Si6 0.631330 0.934986 0.952180
Si Si7 0.000000 0.154347 0.064916
O O1 0.500000 0.500000 0.500000
O O2 0.387501 0.513788 0.624415
O O3 0.500000 0.413651 0.604477
O O4 0.500000 0.253124 0.750000
O O5 0.606618 0.180685 0.662397
O O6 0.500000 0.283319 0.614619
O O7 0.709462 0.518282 0.250000
O O8 0.792292 0.432622 0.165200
O O9 0.798352 0.551829 0.120247
O O10 0.250000 0.250000 0.500000
O O11 0.293352 0.331121 0.395443
O O12 0.183359 0.373516 0.506773
O O13 0.390196 0.343864 0.518196
O O14 0.767669 0.157767 0.750000
O O15 0.500000 0.926786 0.939800
O O16 0.646646 0.000000 0.000000
#
# Coordination Sequence:
#
# PCOD9474933 Si02
#       7
#     8   8  16  16  16  16   8
#     4  12  23  42  63  94 136 166 216 268 325 388
#     4  10  22  40  62  92 128 164 215 272 315 370
#     4  11  23  40  65  97 131 171 213 265 330 389
#     4  12  24  41  65  97 131 168 219 263 321 388
#     4  10  22  40  63  93 127 164 211 268 323 379
#     4  11  24  42  67  94 128 167 213 272 323 380
#     4  12  24  40  66  93 122 177 213 268 313 387
#
# _framework density 18.841661999999999
#
# number of rings (size 3 to 8) (size 9 to 14) (size 15 to 20)
#    0.000    0.909    5.455    1.909    3.818    1.091 
#    0.000    2.273    0.000    0.000    0.000    0.000 
#    0.000    0.000    0.000    0.000    0.000    0.000 
#
# Total GULP energy -245714.969212 kJ/mol
# GULP energy per Si atom -5584.431118 kJ/mol
# Density = 1.879878 g / cm^3
# Si number density = 18.841662 Si / 1000 Ang^3
#
#
#
# Elastic Constant Matrix: (Units=GPa)
#
#
# Indices 1 2 3 4 5 6 
#
# 1 91.1716 19.0829 41.0504 0.0000 0.0000 0.0000
# 2 19.0829 98.7907 36.5443 0.0000 0.0000 0.0000
# 3 41.0504 36.5443 142.5709 0.0000 0.0000 0.0000
# 4 0.0000 0.0000 0.0000 30.7832 0.0000 0.0000
# 5 0.0000 0.0000 0.0000 0.0000 83.5814 0.0000
# 6 0.0000 0.0000 0.0000 0.0000 0.0000 23.2575
#
#
#
# Elastic Compliance Matrix: (Units=1/GPa)
#
#
# Indices 1 2 3 4 5 6 
#
# 1 0.012734 -0.001219 -0.003354 0.000000 0.000000 0.000000
# 2 -0.001219 0.011299 -0.002545 0.000000 0.000000 0.000000
# 3 -0.003354 -0.002545 0.008632 0.000000 0.000000 0.000000
# 4 0.000000 0.000000 0.000000 0.032485 0.000000 0.000000
# 5 0.000000 0.000000 0.000000 0.000000 0.011964 0.000000
# 6 0.000000 0.000000 0.000000 0.000000 0.000000 0.042997
#
#
# Mechanical properties :
#
#
# Convention : Reuss Voigt Hill
#
# Bulk Modulus (GPa) = 54.26324 58.43208 56.34766
# Shear Modulus (GPa) = 35.58943 43.24812 39.41878
#
# Velocity S-wave (km/s) = 4.35083 4.79617 4.57892
# Velocity P-wave (km/s) = 7.35539 7.85815 7.61092
#
# Compressibility (1/GPa) = 0.01842868
#
# Stress axis : x y z
#
# Youngs Moduli (GPa) = 78.53246 88.50000 115.84567
#
# Poissons Ratio (x) = 0.10788 0.38854
# Poissons Ratio (y) = 0.09573 0.29486
# Poissons Ratio (z) = 0.26339 0.22526
#
# Static dielectric constant tensor:
#      x y z
#    x 1.687590 0.000000 0.000000 
#    y 0.000000 1.651300 0.000000 
#    z 0.000000 0.000000 1.680490 
# 
# From -- ./inp_files/42296.got.cif
#   From: 2010.05.17/outbox.cif.g08.bks.cpg/sg63_22_cif.got.tgz:42296.got - 2010.06.03 15:47:04.
