data_PCOD9474452
_publ_section_title
;
Structure prediction by ZEFSAII (Michael W. Deem and Ramdas Pophale) SiO2 
 PCOD9474452
Probable space group: C M C M
;
_chemical_formula_sum "Si O2"
_cell_formula_units_Z 88
_cell_length_a 15.682976
_cell_length_b 29.654573
_cell_length_c 9.358567
_cell_angle_alpha 90.000000
_cell_angle_beta 90.000000
_cell_angle_gamma 90.000000
_cell_volume 4352.407066
_symmetry_space_group_name_H-M "C M C M"
_symmetry_group_IT_number 63
_symmetry_cell_setting 'orthorhombic'
loop_
_space_group_symop_operation_xyz
x,y,z
-x,-y,1/2+z
x,-y,-z
-x,y,1/2-z
-x,-y,-z
x,y,1/2-z
-x,y,z
x,-y,1/2+z
1/2+x,1/2+y,z
1/2-x,1/2-y,1/2+z
1/2+x,1/2-y,-z
1/2-x,1/2+y,1/2-z
1/2-x,1/2-y,-z
1/2+x,1/2+y,1/2-z
1/2-x,1/2+y,z
1/2+x,1/2-y,1/2+z
loop_
_atom_site_type_symbol
_atom_site_label
_atom_site_fract_x
_atom_site_fract_y
_atom_site_fract_z
Si Si1 0.354630 0.095334 0.413407
Si Si2 0.104373 0.216067 0.413364
Si Si3 0.000000 0.547224 0.918576
Si Si4 0.398073 0.195443 0.083669
Si Si5 0.101460 0.870630 0.089019
Si Si6 0.672009 0.547090 0.416306
O O1 0.388694 0.090820 0.250000
O O2 0.418335 0.074494 0.527276
O O3 0.348780 0.148778 0.440136
O O4 0.266806 0.068308 0.419251
O O5 0.133208 0.212195 0.250000
O O6 0.129141 0.263318 0.484617
O O7 0.134132 0.173406 0.505620
O O8 0.000000 0.215541 0.412981
O O9 0.000000 0.540699 0.750000
O O10 0.000000 0.500000 0.000000
O O11 0.388837 0.208585 0.250000
O O12 0.500000 0.186630 0.060616
O O13 0.136749 0.874497 0.250000
O O14 0.000000 0.864608 0.100558
O O15 0.117343 0.915353 0.997761
O O16 0.669069 0.500000 0.500000
O O17 0.647108 0.541533 0.250000
#
# Coordination Sequence:
#
# PCOD9474452 Si02
#       6
#    16  16   8  16  16  16
#     4  10  21  39  59  83 116 154 196 240 289 340
#     4   9  17  30  52  84 119 149 185 233 282 335
#     4  12  24  36  56  82 112 152 200 248 291 338
#     4   9  16  30  54  81 114 154 192 232 279 332
#     4  10  21  39  63  88 114 147 189 234 287 350
#     4  11  24  41  62  85 114 150 189 238 295 348
#
# _framework density 20.218696999999999
#
# number of rings (size 3 to 8) (size 9 to 14) (size 15 to 20)
#    0.000    2.000    0.909    3.000    0.000    7.273 
#    0.000    0.909    0.000    0.000    0.000    0.000 
#    0.000    0.000    0.000    0.000    0.000    0.000 
#
# Total GULP energy -245834.411037 kJ/mol
# GULP energy per Si atom -5587.145705 kJ/mol
# Density = 2.017268 g / cm^3
# Si number density = 20.218697 Si / 1000 Ang^3
#
#
#
# Elastic Constant Matrix: (Units=GPa)
#
#
# Indices 1 2 3 4 5 6 
#
# 1 8.7648 -0.1708 18.9727 0.0000 0.0000 0.0000
# 2 -0.1708 159.6369 106.6906 0.0000 0.0000 0.0000
# 3 18.9727 106.6906 187.2406 0.0000 0.0000 0.0000
# 4 0.0000 0.0000 0.0000 39.0554 0.0000 0.0000
# 5 0.0000 0.0000 0.0000 0.0000 -1.8273 0.0000
# 6 0.0000 0.0000 0.0000 0.0000 0.0000 24.6057
#
#
#
# Elastic Compliance Matrix: (Units=1/GPa)
#
#
# Indices 1 2 3 4 5 6 
#
# 1 0.177864 0.019761 -0.029282 0.000000 0.000000 0.000000
# 2 0.019761 0.012312 -0.009018 0.000000 0.000000 0.000000
# 3 -0.029282 -0.009018 0.013446 0.000000 0.000000 0.000000
# 4 0.000000 0.000000 0.000000 0.025605 0.000000 0.000000
# 5 0.000000 0.000000 0.000000 0.000000 -0.547241 0.000000
# 6 0.000000 0.000000 0.000000 0.000000 0.000000 0.040641
#
#
# Mechanical properties :
#
#
# Convention : Reuss Voigt Hill
#
# Bulk Modulus (GPa) = 6.00445 67.40301 36.70373
# Shear Modulus (GPa) = -27.05924 27.71006 0.32541
#
# Velocity S-wave (km/s) = -3.66228 3.70607 0.40162
# Velocity P-wave (km/s) = 3.86095 7.19184 4.29043
#
# Compressibility (1/GPa) = 0.16654306
#
# Stress axis : x y z
#
# Youngs Moduli (GPa) = 5.62229 81.21944 74.37017
#
# Poissons Ratio (x) = -1.60494 2.17772
# Poissons Ratio (y) = -0.11110 0.67066
# Poissons Ratio (z) = 0.16463 0.73243
#
# Static dielectric constant tensor:
#      x y z
#    x 1.755520 0.000000 0.000000 
#    y 0.000000 1.678960 0.000000 
#    z 0.000000 0.000000 1.702270 
# 
# From -- ./inp_files/6894.got.cif
#   From: 2010.05.17/outbox.cif.g08.bks.cpg/sg63_4_cif.got.tgz:6894.got - 2010.06.03 15:47:04.
