data_PCOD9474779
_publ_section_title
;
Structure prediction by ZEFSAII (Michael W. Deem and Ramdas Pophale) SiO2 
 PCOD9474779
Probable space group: C M C M
;
_chemical_formula_sum "Si O2"
_cell_formula_units_Z 116
_cell_length_a 17.135046
_cell_length_b 12.801449
_cell_length_c 25.841574
_cell_angle_alpha 90.000000
_cell_angle_beta 90.000000
_cell_angle_gamma 90.000000
_cell_volume 5668.437570
_symmetry_space_group_name_H-M "C M C M"
_symmetry_group_IT_number 63
_symmetry_cell_setting 'orthorhombic'
loop_
_space_group_symop_operation_xyz
x,y,z
-x,-y,1/2+z
x,-y,-z
-x,y,1/2-z
-x,-y,-z
x,y,1/2-z
-x,y,z
x,-y,1/2+z
1/2+x,1/2+y,z
1/2-x,1/2-y,1/2+z
1/2+x,1/2-y,-z
1/2-x,1/2+y,1/2-z
1/2-x,1/2-y,-z
1/2+x,1/2+y,1/2-z
1/2-x,1/2+y,z
1/2+x,1/2-y,1/2+z
loop_
_atom_site_type_symbol
_atom_site_label
_atom_site_fract_x
_atom_site_fract_y
_atom_site_fract_z
Si Si1 0.500000 0.324384 0.250000
Si Si2 0.295341 0.540572 0.411464
Si Si3 0.590160 0.644590 0.938520
Si Si4 0.371489 0.024645 0.944521
Si Si5 0.669812 0.257391 0.966648
Si Si6 0.254280 0.071378 0.691981
Si Si7 0.088148 0.523379 0.168542
Si Si8 0.633309 0.260659 0.169852
O O1 0.568553 0.317663 0.204879
O O2 0.355679 0.457675 0.435232
O O3 0.212901 0.530559 0.440761
O O4 0.322386 0.657243 0.421733
O O5 0.280151 0.503900 0.352717
O O6 0.500000 0.616561 0.933571
O O7 0.614597 0.717515 0.890243
O O8 0.606932 0.703548 0.991748
O O9 0.352879 0.146982 0.943193
O O10 0.414955 0.987975 0.893506
O O11 0.407558 0.000000 0.000000
O O12 0.750000 0.250000 0.000000
O O13 0.232444 0.039430 0.750000
O O14 0.347741 0.060311 0.686887
O O15 0.216202 0.184888 0.681603
O O16 0.123037 0.638009 0.181157
O O17 0.000000 0.515478 0.188926
#
# Coordination Sequence:
#
# PCOD9474779 Si02
#       8
#     4  16  16  16  16  16  16  16
#     4  12  20  40  76 100 134 170 240 284 354 368
#     4  10  22  38  58  90 125 166 220 265 324 394
#     4  11  22  38  61  93 131 167 214 270 323 387
#     4  11  21  37  61  87 123 169 215 265 321 386
#     4  12  22  37  63  86 128 178 215 256 323 399
#     4  10  24  40  64  96 129 168 220 278 342 404
#     4  11  25  41  63  98 136 171 220 278 333 393
#     4  11  23  42  67 103 131 172 222 287 334 396
#
# _framework density 20.464192000000001
#
# number of rings (size 3 to 8) (size 9 to 14) (size 15 to 20)
#    0.000    1.103    4.828    1.241    2.897    2.207 
#    0.000    0.000    0.000    0.000    1.793    0.000 
#    0.000    1.103    0.000    0.000    0.000    0.000 
#
# Total GULP energy -323678.472535 kJ/mol
# GULP energy per Si atom -5580.663320 kJ/mol
# Density = 2.041761 g / cm^3
# Si number density = 20.464192 Si / 1000 Ang^3
#
#
#
# Elastic Constant Matrix: (Units=GPa)
#
#
# Indices 1 2 3 4 5 6 
#
# 1 133.4801 36.8852 6.2280 0.0000 0.0000 0.0000
# 2 36.8852 83.7070 11.8649 0.0000 0.0000 0.0000
# 3 6.2280 11.8649 114.7742 0.0000 0.0000 0.0000
# 4 0.0000 0.0000 0.0000 0.7485 0.0000 0.0000
# 5 0.0000 0.0000 0.0000 0.0000 7.8109 0.0000
# 6 0.0000 0.0000 0.0000 0.0000 0.0000 5.9134
#
#
#
# Elastic Compliance Matrix: (Units=1/GPa)
#
#
# Indices 1 2 3 4 5 6 
#
# 1 0.008531 -0.003749 -0.000075 0.000000 0.000000 0.000000
# 2 -0.003749 0.013771 -0.001220 0.000000 0.000000 0.000000
# 3 -0.000075 -0.001220 0.008843 0.000000 0.000000 0.000000
# 4 0.000000 0.000000 0.000000 1.335975 0.000000 0.000000
# 5 0.000000 0.000000 0.000000 0.000000 0.128026 0.000000
# 6 0.000000 0.000000 0.000000 0.000000 0.000000 0.169108
#
#
# Mechanical properties :
#
#
# Convention : Reuss Voigt Hill
#
# Bulk Modulus (GPa) = 47.49015 49.10194 48.29605
# Shear Modulus (GPa) = 2.97378 21.36011 12.16695
#
# Velocity S-wave (km/s) = 1.20678 3.23426 2.44098
# Velocity P-wave (km/s) = 5.01982 6.16388 5.62103
#
# Compressibility (1/GPa) = 0.02105700
#
# Stress axis : x y z
#
# Youngs Moduli (GPa) = 117.21796 72.61557 113.08389
#
# Poissons Ratio (x) = 0.27220 0.00853
# Poissons Ratio (y) = 0.43939 0.13798
# Poissons Ratio (z) = 0.00884 0.08861
#
# Static dielectric constant tensor:
#      x y z
#    x 1.746250 0.000000 0.000000 
#    y 0.000000 1.740340 0.000000 
#    z 0.000000 0.000000 1.749610 
# 
# From -- ./inp_files/70038.got.cif
#   From: 2010.05.17/outbox.cif.g08.bks.cpg/sg63_36_cif.got.tgz:70038.got - 2010.06.03 15:47:04.
