data_PCOD9474523
_publ_section_title
;
Structure prediction by ZEFSAII (Michael W. Deem and Ramdas Pophale) SiO2 
 PCOD9474523
Probable space group: C M C M
;
_chemical_formula_sum "Si O2"
_cell_formula_units_Z 96
_cell_length_a 8.691399
_cell_length_b 24.103690
_cell_length_c 25.384638
_cell_angle_alpha 90.000000
_cell_angle_beta 90.000000
_cell_angle_gamma 90.000000
_cell_volume 5317.949335
_symmetry_space_group_name_H-M "C M C M"
_symmetry_group_IT_number 63
_symmetry_cell_setting 'orthorhombic'
loop_
_space_group_symop_operation_xyz
x,y,z
-x,-y,1/2+z
x,-y,-z
-x,y,1/2-z
-x,-y,-z
x,y,1/2-z
-x,y,z
x,-y,1/2+z
1/2+x,1/2+y,z
1/2-x,1/2-y,1/2+z
1/2+x,1/2-y,-z
1/2-x,1/2+y,1/2-z
1/2-x,1/2-y,-z
1/2+x,1/2+y,1/2-z
1/2-x,1/2+y,z
1/2+x,1/2-y,1/2+z
loop_
_atom_site_type_symbol
_atom_site_label
_atom_site_fract_x
_atom_site_fract_y
_atom_site_fract_z
Si Si1 0.815651 0.688016 0.500000
Si Si2 0.683632 0.617101 0.903144
Si Si3 0.816590 0.689369 0.812166
Si Si4 0.684523 0.000000 0.562600
Si Si5 0.316368 0.617101 0.096856
Si Si6 0.683409 0.810632 0.812166
O O1 0.750000 0.750000 0.500000
O O2 0.755547 0.655255 0.551000
O O3 0.755547 0.655256 0.448999
O O4 0.000000 0.689013 0.500000
O O5 0.500000 0.617854 0.907283
O O6 0.737796 0.643374 0.848184
O O7 0.746135 0.555252 0.911987
O O8 0.787371 0.680581 0.750000
O O9 0.749999 0.750000 0.826217
O O10 0.000000 0.689235 0.820800
O O11 0.500000 0.000001 0.568012
O O12 0.753862 0.944748 0.588013
O O13 0.720329 0.000000 0.500000
O O14 0.500000 0.617853 0.092716
O O15 0.262207 0.643373 0.151816
O O16 0.712627 0.819419 0.750000
O O17 0.500000 0.810766 0.820801
#
# Coordination Sequence:
#
# PCOD9474523 Si02
#       6
#    16  16  16  16  16  16
#     4  12  24  39  58  85 120 156 196 244 298 356
#     4  12  24  39  61  89 121 156 198 247 298 356
#     4  10  21  39  63  90 122 160 201 246 298 356
#     4  11  23  41  64  87 117 160 202 246 296 355
#     4  12  24  39  61  89 121 156 198 247 298 356
#     4  10  21  39  63  90 122 160 201 246 298 356
#
# _framework density 18.052070000000001
#
# number of rings (size 3 to 8) (size 9 to 14) (size 15 to 20)
#    0.000    0.833    1.667    7.000    0.000    2.667 
#    0.000    0.833    0.000    5.000    0.000    0.000 
#    0.000    0.000    0.000    0.000    0.000    0.000 
#
# Total GULP energy -268608.538087 kJ/mol
# GULP energy per Si atom -5596.011210 kJ/mol
# Density = 1.801098 g / cm^3
# Si number density = 18.052070 Si / 1000 Ang^3
#
#
#
# Elastic Constant Matrix: (Units=GPa)
#
#
# Indices 1 2 3 4 5 6 
#
# 1 159.7909 92.5913 70.8472 0.0000 0.0000 0.0000
# 2 92.5913 198.0330 82.8726 0.0000 0.0000 0.0000
# 3 70.8472 82.8726 81.6363 0.0000 0.0000 0.0000
# 4 0.0000 0.0000 0.0000 -80.9107 0.0000 0.0000
# 5 0.0000 0.0000 0.0000 0.0000 20.4216 0.0000
# 6 0.0000 0.0000 0.0000 0.0000 0.0000 38.7212
#
#
#
# Elastic Compliance Matrix: (Units=1/GPa)
#
#
# Indices 1 2 3 4 5 6 
#
# 1 0.010576 -0.001919 -0.007230 0.000000 0.000000 0.000000
# 2 -0.001919 0.009128 -0.007600 0.000000 0.000000 0.000000
# 3 -0.007230 -0.007600 0.026239 0.000000 0.000000 0.000000
# 4 0.000000 0.000000 0.000000 -0.012359 0.000000 0.000000
# 5 0.000000 0.000000 0.000000 0.000000 0.048968 0.000000
# 6 0.000000 0.000000 0.000000 0.000000 0.000000 0.025826
#
#
# Mechanical properties :
#
#
# Convention : Reuss Voigt Hill
#
# Bulk Modulus (GPa) = 80.36032 103.56470 91.96251
# Shear Modulus (GPa) = 34.24127 8.52303 21.38215
#
# Velocity S-wave (km/s) = 4.35996 2.17523 3.44535
# Velocity P-wave (km/s) = 8.36410 7.98770 8.17806
#
# Compressibility (1/GPa) = 0.01244395
#
# Stress axis : x y z
#
# Youngs Moduli (GPa) = 94.55551 109.55883 38.11123
#
# Poissons Ratio (x) = 0.21027 0.27554
# Poissons Ratio (y) = 0.18148 0.28965
# Poissons Ratio (z) = 0.68362 0.83266
#
# Static dielectric constant tensor:
#      x y z
#    x 1.599170 0.000000 0.000000 
#    y 0.000000 1.580220 0.000000 
#    z 0.000000 0.000000 1.609440 
# 
# From -- ./inp_files/59838.got.cif
#   From: 2010.05.17/outbox.cif.g08.bks.cpg/sg63_30_cif.got.tgz:59838.got - 2010.06.03 15:47:04.
