data_PCOD9474069
_publ_section_title
;
Structure prediction by ZEFSAII (Michael W. Deem and Ramdas Pophale) SiO2 
 PCOD9474069
Probable space group: C M C M
;
_chemical_formula_sum "Si O2"
_cell_formula_units_Z 88
_cell_length_a 20.524178
_cell_length_b 25.236980
_cell_length_c 7.813440
_cell_angle_alpha 90.000000
_cell_angle_beta 90.000000
_cell_angle_gamma 90.000000
_cell_volume 4047.113997
_symmetry_space_group_name_H-M "C M C M"
_symmetry_group_IT_number 63
_symmetry_cell_setting 'orthorhombic'
loop_
_space_group_symop_operation_xyz
x,y,z
-x,-y,1/2+z
x,-y,-z
-x,y,1/2-z
-x,-y,-z
x,y,1/2-z
-x,y,z
x,-y,1/2+z
1/2+x,1/2+y,z
1/2-x,1/2-y,1/2+z
1/2+x,1/2-y,-z
1/2-x,1/2+y,1/2-z
1/2-x,1/2-y,-z
1/2+x,1/2+y,1/2-z
1/2-x,1/2+y,z
1/2+x,1/2-y,1/2+z
loop_
_atom_site_type_symbol
_atom_site_label
_atom_site_fract_x
_atom_site_fract_y
_atom_site_fract_z
Si Si1 0.500000 0.936863 0.456746
Si Si2 0.890827 0.057581 0.544374
Si Si3 0.070136 0.171692 0.540492
Si Si4 0.742267 0.057867 0.955500
Si Si5 0.826089 0.254604 0.953380
Si Si6 0.873089 0.370345 0.043921
O O1 0.500000 0.934938 0.250000
O O2 0.563821 0.903611 0.517052
O O3 0.500000 0.000000 0.500000
O O4 0.889335 0.059696 0.750000
O O5 0.925322 0.110721 0.484536
O O6 0.816100 0.060472 0.478769
O O7 0.918134 0.000000 0.500000
O O8 0.072074 0.171592 0.750000
O O9 0.131169 0.205604 0.478381
O O10 0.000000 0.194507 0.489884
O O11 0.745958 0.063080 0.750000
O O12 0.692570 0.101324 0.021495
O O13 0.715683 0.000000 0.000000
O O14 0.827846 0.251767 0.750000
O O15 0.750000 0.250000 0.000000
O O16 0.863064 0.308691 0.003616
O O17 0.874141 0.374752 0.250000
#
# Coordination Sequence:
#
# PCOD9474069 Si02
#       6
#     8  16  16  16  16  16
#     4  10  22  38  58  86 124 166 205 252 307 368
#     4   9  17  31  52  77 105 138 175 221 271 324
#     4   9  19  36  57  80 109 146 186 226 274 334
#     4   9  17  30  50  75 106 143 184 230 279 332
#     4  11  23  39  62  87 113 149 196 248 297 355
#     4  10  21  37  56  81 116 155 195 242 300 354
#
# _framework density 21.743888999999999
#
# number of rings (size 3 to 8) (size 9 to 14) (size 15 to 20)
#    0.000    2.364    0.000    2.182    1.273    4.727 
#    0.000    5.455    0.000    2.182    0.000    0.000 
#    0.000    0.000    0.000    0.000    0.000    0.000 
#
# Total GULP energy -245506.352004 kJ/mol
# GULP energy per Si atom -5579.689818 kJ/mol
# Density = 2.169440 g / cm^3
# Si number density = 21.743889 Si / 1000 Ang^3
#
#
#
# Elastic Constant Matrix: (Units=GPa)
#
#
# Indices 1 2 3 4 5 6 
#
# 1 142.4305 84.0172 9.5640 0.0000 0.0000 0.0000
# 2 84.0172 158.4073 -0.2465 0.0000 0.0000 0.0000
# 3 9.5640 -0.2465 23.5753 0.0000 0.0000 0.0000
# 4 0.0000 0.0000 0.0000 30.3486 0.0000 0.0000
# 5 0.0000 0.0000 0.0000 0.0000 1.4661 0.0000
# 6 0.0000 0.0000 0.0000 0.0000 0.0000 34.8609
#
#
#
# Elastic Compliance Matrix: (Units=1/GPa)
#
#
# Indices 1 2 3 4 5 6 
#
# 1 0.010652 -0.005656 -0.004380 0.000000 0.000000 0.000000
# 2 -0.005656 0.009317 0.002392 0.000000 0.000000 0.000000
# 3 -0.004380 0.002392 0.044219 0.000000 0.000000 0.000000
# 4 0.000000 0.000000 0.000000 0.032950 0.000000 0.000000
# 5 0.000000 0.000000 0.000000 0.000000 0.682059 0.000000
# 6 0.000000 0.000000 0.000000 0.000000 0.000000 0.028685
#
#
# Mechanical properties :
#
#
# Convention : Reuss Voigt Hill
#
# Bulk Modulus (GPa) = 20.45057 56.78695 38.61876
# Shear Modulus (GPa) = 5.95614 28.74036 17.34825
#
# Velocity S-wave (km/s) = 1.65686 3.63956 2.82768
# Velocity P-wave (km/s) = 3.61744 6.62079 5.33482
#
# Compressibility (1/GPa) = 0.04889839
#
# Stress axis : x y z
#
# Youngs Moduli (GPa) = 93.88204 107.33524 22.61460
#
# Poissons Ratio (x) = 0.60712 0.09906
# Poissons Ratio (y) = 0.53103 -0.05410
# Poissons Ratio (z) = 0.41123 -0.25675
#
# Static dielectric constant tensor:
#      x y z
#    x 1.828880 0.000000 0.000000 
#    y 0.000000 1.808750 0.000000 
#    z 0.000000 0.000000 1.810030 
# 
# From -- ./inp_files/8225.got.cif
#   From: 2010.05.17/outbox.cif.g08.bks.cpg/sg63_5_cif.got.tgz:8225.got - 2010.06.03 15:47:04.
