data_PCOD9474905
_publ_section_title
;
Structure prediction by ZEFSAII (Michael W. Deem and Ramdas Pophale) SiO2 
 PCOD9474905
Probable space group: C M C M
;
_chemical_formula_sum "Si O2"
_cell_formula_units_Z 112
_cell_length_a 29.098555
_cell_length_b 12.011574
_cell_length_c 14.345991
_cell_angle_alpha 90.000000
_cell_angle_beta 90.000000
_cell_angle_gamma 90.000000
_cell_volume 5014.202836
_symmetry_space_group_name_H-M "C M C M"
_symmetry_group_IT_number 63
_symmetry_cell_setting 'orthorhombic'
loop_
_space_group_symop_operation_xyz
x,y,z
-x,-y,1/2+z
x,-y,-z
-x,y,1/2-z
-x,-y,-z
x,y,1/2-z
-x,y,z
x,-y,1/2+z
1/2+x,1/2+y,z
1/2-x,1/2-y,1/2+z
1/2+x,1/2-y,-z
1/2-x,1/2+y,1/2-z
1/2-x,1/2-y,-z
1/2+x,1/2+y,1/2-z
1/2-x,1/2+y,z
1/2+x,1/2-y,1/2+z
loop_
_atom_site_type_symbol
_atom_site_label
_atom_site_fract_x
_atom_site_fract_y
_atom_site_fract_z
Si Si1 0.211789 0.189780 0.143338
Si Si2 0.604322 0.931939 0.859441
Si Si3 0.847104 0.977237 0.390522
Si Si4 0.051676 0.277325 0.518566
Si Si5 0.948802 0.955579 0.106009
Si Si6 0.186835 0.725522 0.138654
Si Si7 0.878615 0.694107 0.860205
O O1 0.216866 0.228599 0.250000
O O2 0.262275 0.199720 0.100644
O O3 0.171277 0.266751 0.104405
O O4 0.190043 0.066538 0.144463
O O5 0.594832 0.907535 0.750000
O O6 0.647928 0.859916 0.893408
O O7 0.615109 0.061764 0.866101
O O8 0.564287 0.889273 0.926442
O O9 0.899432 0.992788 0.353493
O O10 0.829160 0.852201 0.376072
O O11 0.850149 0.000000 0.500000
O O12 0.055803 0.177650 0.593379
O O13 0.084509 0.255140 0.430923
O O14 0.000000 0.279385 0.483582
O O15 0.000000 0.980885 0.145549
O O16 0.950497 0.000000 0.000000
O O17 0.188692 0.706664 0.250000
O O18 0.883813 0.725440 0.750000
#
# Coordination Sequence:
#
# PCOD9474905 Si02
#       7
#    16  16  16  16  16  16  16
#     4  10  23  40  62  87 119 164 207 247 302 368
#     4  10  22  40  60  86 123 161 201 250 303 365
#     4  11  21  37  61  91 126 155 199 258 307 363
#     4  11  22  40  64  90 120 158 206 253 308 373
#     4   9  18  34  59  87 120 162 200 246 309 367
#     4  10  22  40  61  85 119 164 204 246 306 365
#     4  10  22  40  60  88 124 159 202 252 301 361
#
# _framework density 22.336549999999999
#
# number of rings (size 3 to 8) (size 9 to 14) (size 15 to 20)
#    0.000    1.857    1.429    2.571    2.000    2.286 
#    0.000    1.429    0.000    2.571    0.000    4.000 
#    0.000    0.000    0.000    0.000    0.000    0.000 
#
# Total GULP energy -312780.996435 kJ/mol
# GULP energy per Si atom -5585.374936 kJ/mol
# Density = 2.228571 g / cm^3
# Si number density = 22.336550 Si / 1000 Ang^3
#
#
#
# Elastic Constant Matrix: (Units=GPa)
#
#
# Indices 1 2 3 4 5 6 
#
# 1 127.4774 7.7186 2.8784 0.0000 0.0000 0.0000
# 2 7.7186 59.8821 -13.5735 0.0000 0.0000 0.0000
# 3 2.8784 -13.5735 60.6239 0.0000 0.0000 0.0000
# 4 0.0000 0.0000 0.0000 20.2923 0.0000 0.0000
# 5 0.0000 0.0000 0.0000 0.0000 -4.9504 0.0000
# 6 0.0000 0.0000 0.0000 0.0000 0.0000 25.9264
#
#
#
# Elastic Compliance Matrix: (Units=1/GPa)
#
#
# Indices 1 2 3 4 5 6 
#
# 1 0.007930 -0.001167 -0.000638 0.000000 0.000000 0.000000
# 2 -0.001167 0.017764 0.004033 0.000000 0.000000 0.000000
# 3 -0.000638 0.004033 0.017428 0.000000 0.000000 0.000000
# 4 0.000000 0.000000 0.000000 0.049280 0.000000 0.000000
# 5 0.000000 0.000000 0.000000 0.000000 -0.202004 0.000000
# 6 0.000000 0.000000 0.000000 0.000000 0.000000 0.038571
#
#
# Mechanical properties :
#
#
# Convention : Reuss Voigt Hill
#
# Bulk Modulus (GPa) = 21.01788 26.89227 23.95508
# Shear Modulus (GPa) = -83.85276 24.98432 -29.43422
#
# Velocity S-wave (km/s) = -6.13369 3.34809 -3.63404
# Velocity P-wave (km/s) = 6.38222 5.19730 2.61923
#
# Compressibility (1/GPa) = 0.04757855
#
# Stress axis : x y z
#
# Youngs Moduli (GPa) = 126.11034 56.29375 57.37783
#
# Poissons Ratio (x) = 0.06568 0.03659
# Poissons Ratio (y) = 0.14713 -0.23139
# Poissons Ratio (z) = 0.08042 -0.22702
#
# Static dielectric constant tensor:
#      x y z
#    x 1.862200 0.000000 0.000000 
#    y 0.000000 1.819050 0.000000 
#    z 0.000000 0.000000 1.840490 
# 
# From -- ./inp_files/38497.got.cif
#   From: 2010.05.17/outbox.cif.g08.bks.cpg/sg63_20_cif.got.tgz:38497.got - 2010.06.03 15:47:04.
