data_PCOD9474000
_publ_section_title
;
Structure prediction by ZEFSAII (Michael W. Deem and Ramdas Pophale) SiO2 
 PCOD9474000
Probable space group: C M C M
;
_chemical_formula_sum "Si O2"
_cell_formula_units_Z 96
_cell_length_a 28.764351
_cell_length_b 7.541997
_cell_length_c 22.053432
_cell_angle_alpha 90.000000
_cell_angle_beta 90.000000
_cell_angle_gamma 90.000000
_cell_volume 4784.285850
_symmetry_space_group_name_H-M "C M C M"
_symmetry_group_IT_number 63
_symmetry_cell_setting 'orthorhombic'
loop_
_space_group_symop_operation_xyz
x,y,z
-x,-y,1/2+z
x,-y,-z
-x,y,1/2-z
-x,-y,-z
x,y,1/2-z
-x,y,z
x,-y,1/2+z
1/2+x,1/2+y,z
1/2-x,1/2-y,1/2+z
1/2+x,1/2-y,-z
1/2-x,1/2+y,1/2-z
1/2-x,1/2-y,-z
1/2+x,1/2+y,1/2-z
1/2-x,1/2+y,z
1/2+x,1/2-y,1/2+z
loop_
_atom_site_type_symbol
_atom_site_label
_atom_site_fract_x
_atom_site_fract_y
_atom_site_fract_z
Si Si1 0.685430 0.288628 0.892670
Si Si2 0.445342 0.669985 0.596037
Si Si3 0.445778 0.988392 0.180315
Si Si4 0.130979 0.713179 0.489102
Si Si5 0.603703 0.618818 0.179331
Si Si6 0.214439 0.576247 0.069029
O O1 0.658003 0.377773 0.838149
O O2 0.736124 0.362300 0.907719
O O3 0.694176 0.077586 0.888542
O O4 0.651047 0.301733 0.950554
O O5 0.500000 0.645123 0.584657
O O6 0.414860 0.697810 0.536162
O O7 0.424717 0.514150 0.637161
O O8 0.438580 0.851251 0.634460
O O9 0.437313 0.045840 0.250000
O O10 0.500000 0.934395 0.176405
O O11 0.414583 0.818109 0.167330
O O12 0.123160 0.500000 0.500000
O O13 0.173817 0.720294 0.440857
O O14 0.596055 0.578743 0.250000
O O15 0.221439 0.500000 0.000000
#
# Coordination Sequence:
#
# PCOD9474000 Si02
#       6
#    16  16  16  16  16  16
#     4  10  21  36  59  86 115 157 199 245 304 360
#     4  11  23  38  63  93 123 160 201 251 308 367
#     4   9  18  36  60  82 111 157 208 251 293 351
#     4   9  19  37  60  92 126 158 199 249 309 374
#     4  11  24  40  59  87 122 161 207 257 300 358
#     4   9  18  34  60  89 114 153 201 245 294 366
#
# _framework density 20.065691999999999
#
# number of rings (size 3 to 8) (size 9 to 14) (size 15 to 20)
#    0.000    2.500    0.000    5.000    4.667    2.000 
#    0.000    3.333    0.000    0.000    0.000    0.000 
#    0.000    0.000    0.000    0.000    0.000    0.000 
#
# Total GULP energy -268078.427707 kJ/mol
# GULP energy per Si atom -5584.967244 kJ/mol
# Density = 2.002002 g / cm^3
# Si number density = 20.065692 Si / 1000 Ang^3
#
#
#
# Elastic Constant Matrix: (Units=GPa)
#
#
# Indices 1 2 3 4 5 6 
#
# 1 112.7737 38.0897 40.1398 0.0000 0.0000 0.0000
# 2 38.0897 42.5323 22.0262 0.0000 0.0000 0.0000
# 3 40.1398 22.0262 33.1665 0.0000 0.0000 0.0000
# 4 0.0000 0.0000 0.0000 24.9396 0.0000 0.0000
# 5 0.0000 0.0000 0.0000 0.0000 -2.3600 0.0000
# 6 0.0000 0.0000 0.0000 0.0000 0.0000 26.0688
#
#
#
# Elastic Compliance Matrix: (Units=1/GPa)
#
#
# Indices 1 2 3 4 5 6 
#
# 1 0.016804 -0.006884 -0.015765 0.000000 0.000000 0.000000
# 2 -0.006884 0.038657 -0.017340 0.000000 0.000000 0.000000
# 3 -0.015765 -0.017340 0.060746 0.000000 0.000000 0.000000
# 4 0.000000 0.000000 0.000000 0.040097 0.000000 0.000000
# 5 0.000000 0.000000 0.000000 0.000000 -0.423738 0.000000
# 6 0.000000 0.000000 0.000000 0.000000 0.000000 0.038360
#
#
# Mechanical properties :
#
#
# Convention : Reuss Voigt Hill
#
# Bulk Modulus (GPa) = 27.60336 43.22042 35.41189
# Shear Modulus (GPa) = -36.49138 15.61081 -10.44028
#
# Velocity S-wave (km/s) = -4.26913 2.79226 -2.28349
# Velocity P-wave (km/s) = 3.24256 5.65525 3.27625
#
# Compressibility (1/GPa) = 0.03622747
#
# Stress axis : x y z
#
# Youngs Moduli (GPa) = 59.51058 25.86854 16.46197
#
# Poissons Ratio (x) = 0.17809 0.25952
# Poissons Ratio (y) = 0.40970 0.28546
# Poissons Ratio (z) = 0.93817 0.44857
#
# Static dielectric constant tensor:
#      x y z
#    x 1.716290 0.000000 0.000000 
#    y 0.000000 1.750720 0.000000 
#    z 0.000000 0.000000 1.726160 
# 
# From -- ./inp_files/64982.got.cif
#   From: 2010.05.17/outbox.cif.g08.bks.cpg/sg63_33_cif.got.tgz:64982.got - 2010.06.03 15:47:04.
