data_PCOD9474661
_publ_section_title
;
Structure prediction by ZEFSAII (Michael W. Deem and Ramdas Pophale) SiO2 
 PCOD9474661
Probable space group: C M C M
;
_chemical_formula_sum "Si O2"
_cell_formula_units_Z 36
_cell_length_a 8.050089
_cell_length_b 13.394452
_cell_length_c 14.322491
_cell_angle_alpha 90.000000
_cell_angle_beta 90.000000
_cell_angle_gamma 90.000000
_cell_volume 1544.344516
_symmetry_space_group_name_H-M "C M C M"
_symmetry_group_IT_number 63
_symmetry_cell_setting 'orthorhombic'
loop_
_space_group_symop_operation_xyz
x,y,z
-x,-y,1/2+z
x,-y,-z
-x,y,1/2-z
-x,-y,-z
x,y,1/2-z
-x,y,z
x,-y,1/2+z
1/2+x,1/2+y,z
1/2-x,1/2-y,1/2+z
1/2+x,1/2-y,-z
1/2-x,1/2+y,1/2-z
1/2-x,1/2-y,-z
1/2+x,1/2+y,1/2-z
1/2-x,1/2+y,z
1/2+x,1/2-y,1/2+z
loop_
_atom_site_type_symbol
_atom_site_label
_atom_site_fract_x
_atom_site_fract_y
_atom_site_fract_z
Si Si1 0.500000 0.677745 0.250000
Si Si2 0.801191 0.837536 0.250000
Si Si3 0.814257 0.392573 0.449903
Si Si4 0.000000 0.109972 0.047142
O O1 0.668874 0.745122 0.250000
O O2 0.500000 0.611656 0.157559
O O3 0.754279 0.896776 0.155732
O O4 0.000000 0.813218 0.250000
O O5 0.831479 0.500000 0.500000
O O6 0.668971 0.342133 0.509695
O O7 0.000000 0.349640 0.446767
O O8 0.000000 0.000000 0.000000
#
# Coordination Sequence:
#
# PCOD9474661 Si02
#       4
#     4   8  16   8
#     4  12  28  46  64 102 144 168 228 290 348 416
#     4  12  24  43  67 103 144 185 222 279 345 398
#     4  10  21  41  70 102 136 183 228 278 327 400
#     4  10  24  44  70 100 128 182 231 282 337 418
#
# _framework density 23.310860000000002
#
# number of rings (size 3 to 8) (size 9 to 14) (size 15 to 20)
#    0.000    1.333    4.444    0.000    0.000   10.667 
#    0.000    2.222    0.000    0.000    0.000    0.000 
#    0.000    0.000    0.000    0.000    0.000    0.000 
#
# Total GULP energy -100513.621580 kJ/mol
# GULP energy per Si atom -5584.090088 kJ/mol
# Density = 2.325780 g / cm^3
# Si number density = 23.310860 Si / 1000 Ang^3
#
#
#
# Elastic Constant Matrix: (Units=GPa)
#
#
# Indices 1 2 3 4 5 6 
#
# 1 292.0008 51.1155 82.9978 0.0000 0.0000 0.0000
# 2 51.1155 99.9504 57.2527 0.0000 0.0000 0.0000
# 3 82.9978 57.2527 261.9337 0.0000 0.0000 0.0000
# 4 0.0000 0.0000 0.0000 253.8672 0.0000 0.0000
# 5 0.0000 0.0000 0.0000 0.0000 40.8137 0.0000
# 6 0.0000 0.0000 0.0000 0.0000 0.0000 60.0680
#
#
#
# Elastic Compliance Matrix: (Units=1/GPa)
#
#
# Indices 1 2 3 4 5 6 
#
# 1 0.003948 -0.001489 -0.000926 0.000000 0.000000 0.000000
# 2 -0.001489 0.011998 -0.002151 0.000000 0.000000 0.000000
# 3 -0.000926 -0.002151 0.004581 0.000000 0.000000 0.000000
# 4 0.000000 0.000000 0.000000 0.003939 0.000000 0.000000
# 5 0.000000 0.000000 0.000000 0.000000 0.024502 0.000000
# 6 0.000000 0.000000 0.000000 0.000000 0.000000 0.016648
#
#
# Mechanical properties :
#
#
# Convention : Reuss Voigt Hill
#
# Bulk Modulus (GPa) = 87.74122 115.17966 101.46044
# Shear Modulus (GPa) = 63.65663 101.78438 82.72051
#
# Velocity S-wave (km/s) = 5.23135 6.61504 5.96346
# Velocity P-wave (km/s) = 8.61456 10.38569 9.54131
#
# Compressibility (1/GPa) = 0.01139715
#
# Stress axis : x y z
#
# Youngs Moduli (GPa) = 253.26644 83.34408 218.28464
#
# Poissons Ratio (x) = 0.12410 0.20205
# Poissons Ratio (y) = 0.37712 0.46948
# Poissons Ratio (z) = 0.23444 0.17925
#
# Static dielectric constant tensor:
#      x y z
#    x 1.975250 0.000000 0.000000 
#    y 0.000000 2.002800 0.000000 
#    z 0.000000 0.000000 1.804640 
# 
# From -- ./inp_files/15488.got.cif
#   From: 2010.05.17/outbox.cif.g08.bks.cpg/sg63_8_cif.got.tgz:15488.got - 2010.06.03 15:47:04.
