data_PCOD9474250
_publ_section_title
;
Structure prediction by ZEFSAII (Michael W. Deem and Ramdas Pophale) SiO2 
 PCOD9474250
Probable space group: C M C M
;
_chemical_formula_sum "Si O2"
_cell_formula_units_Z 64
_cell_length_a 14.300680
_cell_length_b 14.663994
_cell_length_c 16.718108
_cell_angle_alpha 90.000000
_cell_angle_beta 90.000000
_cell_angle_gamma 90.000000
_cell_volume 3505.872271
_symmetry_space_group_name_H-M "C M C M"
_symmetry_group_IT_number 63
_symmetry_cell_setting 'orthorhombic'
loop_
_space_group_symop_operation_xyz
x,y,z
-x,-y,1/2+z
x,-y,-z
-x,y,1/2-z
-x,-y,-z
x,y,1/2-z
-x,y,z
x,-y,1/2+z
1/2+x,1/2+y,z
1/2-x,1/2-y,1/2+z
1/2+x,1/2-y,-z
1/2-x,1/2+y,1/2-z
1/2-x,1/2-y,-z
1/2+x,1/2+y,1/2-z
1/2-x,1/2+y,z
1/2+x,1/2-y,1/2+z
loop_
_atom_site_type_symbol
_atom_site_label
_atom_site_fract_x
_atom_site_fract_y
_atom_site_fract_z
Si Si1 0.389570 0.908424 0.951528
Si Si2 0.719095 0.397692 0.657756
Si Si3 0.606979 0.444785 0.084308
Si Si4 0.388163 0.285437 0.523949
O O1 0.500000 0.909083 0.933172
O O2 0.324557 0.902485 0.874361
O O3 0.370117 0.819872 0.006053
O O4 0.365881 0.000000 0.000000
O O5 0.712232 0.372809 0.750000
O O6 0.671787 0.496662 0.641951
O O7 0.664864 0.327404 0.599509
O O8 0.500000 0.442113 0.113975
O O9 0.606783 0.500000 0.000000
O O10 0.637089 0.344579 0.055321
O O11 0.500000 0.298467 0.535300
#
# Coordination Sequence:
#
# PCOD9474250 Si02
#       4
#    16  16  16  16
#     4  10  21  38  57  73  97 142 191 220 241 289
#     4  11  21  32  52  82 112 134 160 213 273 317
#     4   8  15  30  52  76 102 131 163 203 254 312
#     4   9  18  35  58  79 101 135 177 215 254 309
#
# _framework density 18.255085999999999
#
# number of rings (size 3 to 8) (size 9 to 14) (size 15 to 20)
#    0.000    2.500    0.000    5.250    0.000    2.500 
#    0.000    5.000    0.000    9.000    0.000    0.000 
#    0.000    0.000    0.000    0.000    0.000    0.000 
#
# Total GULP energy -178525.974074 kJ/mol
# GULP energy per Si atom -5578.936690 kJ/mol
# Density = 1.821354 g / cm^3
# Si number density = 18.255086 Si / 1000 Ang^3
#
#
#
# Elastic Constant Matrix: (Units=GPa)
#
#
# Indices 1 2 3 4 5 6 
#
# 1 74.3162 28.0744 45.8921 0.0000 0.0000 0.0000
# 2 28.0744 133.9351 33.2969 0.0000 0.0000 0.0000
# 3 45.8921 33.2969 87.0358 0.0000 0.0000 0.0000
# 4 0.0000 0.0000 0.0000 8.6458 0.0000 0.0000
# 5 0.0000 0.0000 0.0000 0.0000 2.9551 0.0000
# 6 0.0000 0.0000 0.0000 0.0000 0.0000 5.9396
#
#
#
# Elastic Compliance Matrix: (Units=1/GPa)
#
#
# Indices 1 2 3 4 5 6 
#
# 1 0.020323 -0.001764 -0.010041 0.000000 0.000000 0.000000
# 2 -0.001764 0.008404 -0.002285 0.000000 0.000000 0.000000
# 3 -0.010041 -0.002285 0.017658 0.000000 0.000000 0.000000
# 4 0.000000 0.000000 0.000000 0.115664 0.000000 0.000000
# 5 0.000000 0.000000 0.000000 0.000000 0.338402 0.000000
# 6 0.000000 0.000000 0.000000 0.000000 0.000000 0.168360
#
#
# Mechanical properties :
#
#
# Convention : Reuss Voigt Hill
#
# Bulk Modulus (GPa) = 54.92899 56.64598 55.78748
# Shear Modulus (GPa) = 7.11178 16.04301 11.57740
#
# Velocity S-wave (km/s) = 1.97591 2.96771 2.52107
# Velocity P-wave (km/s) = 5.94648 6.54528 6.25305
#
# Compressibility (1/GPa) = 0.01820532
#
# Stress axis : x y z
#
# Youngs Moduli (GPa) = 49.20558 118.98967 56.63092
#
# Poissons Ratio (x) = 0.20986 0.56864
# Poissons Ratio (y) = 0.08678 0.12941
# Poissons Ratio (z) = 0.49408 0.27191
#
# Static dielectric constant tensor:
#      x y z
#    x 1.663050 0.000000 0.000000 
#    y 0.000000 1.673120 0.000000 
#    z 0.000000 0.000000 1.574140 
# 
# From -- ./inp_files/31106.got.cif
#   From: 2010.05.17/outbox.cif.g08.bks.cpg/sg63_16_cif.got.tgz:31106.got - 2010.06.03 15:47:04.
