data_PCOD9474543
_publ_section_title
;
Structure prediction by ZEFSAII (Michael W. Deem and Ramdas Pophale) SiO2 
 PCOD9474543
Probable space group: C M C M
;
_chemical_formula_sum "Si O2"
_cell_formula_units_Z 64
_cell_length_a 15.798429
_cell_length_b 14.101291
_cell_length_c 13.845435
_cell_angle_alpha 90.000000
_cell_angle_beta 90.000000
_cell_angle_gamma 90.000000
_cell_volume 3084.461706
_symmetry_space_group_name_H-M "C M C M"
_symmetry_group_IT_number 63
_symmetry_cell_setting 'orthorhombic'
loop_
_space_group_symop_operation_xyz
x,y,z
-x,-y,1/2+z
x,-y,-z
-x,y,1/2-z
-x,-y,-z
x,y,1/2-z
-x,y,z
x,-y,1/2+z
1/2+x,1/2+y,z
1/2-x,1/2-y,1/2+z
1/2+x,1/2-y,-z
1/2-x,1/2+y,1/2-z
1/2-x,1/2-y,-z
1/2+x,1/2+y,1/2-z
1/2-x,1/2+y,z
1/2+x,1/2-y,1/2+z
loop_
_atom_site_type_symbol
_atom_site_label
_atom_site_fract_x
_atom_site_fract_y
_atom_site_fract_z
Si Si1 0.840444 0.694780 0.867031
Si Si2 0.500000 0.267904 0.134103
Si Si3 0.500000 0.109887 0.975677
Si Si4 0.097823 0.901274 0.632970
Si Si5 0.663275 0.605842 0.866861
O O1 0.845544 0.688351 0.750000
O O2 0.853255 0.805377 0.893024
O O3 0.751400 0.650862 0.899760
O O4 0.917787 0.638862 0.914301
O O5 0.500000 0.251543 0.250000
O O6 0.582837 0.329279 0.108959
O O7 0.500000 0.172417 0.072964
O O8 0.500000 0.000000 0.000000
O O9 0.093790 0.902639 0.750000
O O10 0.000000 0.898861 0.599206
O O11 0.143977 0.997942 0.604078
O O12 0.667133 0.605241 0.750000
#
# Coordination Sequence:
#
# PCOD9474543 Si02
#       5
#    16   8   8  16  16
#     4  10  21  39  64  93 126 165 208 256 313 373
#     4  10  22  42  63  88 123 163 208 262 319 369
#     4  12  27  42  59  86 126 169 211 260 309 375
#     4   9  15  30  60  91 121 159 208 258 298 358
#     4   9  18  35  64  96 126 162 207 259 314 371
#
# _framework density 20.749161999999998
#
# number of rings (size 3 to 8) (size 9 to 14) (size 15 to 20)
#    0.000    2.250    2.500    0.375    0.000    4.000 
#    0.000    7.500    0.000    0.000    0.000    0.000 
#    0.000    0.000    0.000    0.000    0.000    0.000 
#
# Total GULP energy -178965.218189 kJ/mol
# GULP energy per Si atom -5592.663068 kJ/mol
# Density = 2.070194 g / cm^3
# Si number density = 20.749162 Si / 1000 Ang^3
#
#
#
# Elastic Constant Matrix: (Units=GPa)
#
#
# Indices 1 2 3 4 5 6 
#
# 1 224.9267 133.1440 47.2448 0.0000 0.0000 0.0000
# 2 133.1440 245.3207 42.1189 0.0000 0.0000 0.0000
# 3 47.2448 42.1189 97.9257 0.0000 0.0000 0.0000
# 4 0.0000 0.0000 0.0000 12.1805 0.0000 0.0000
# 5 0.0000 0.0000 0.0000 0.0000 17.1421 0.0000
# 6 0.0000 0.0000 0.0000 0.0000 0.0000 37.9987
#
#
#
# Elastic Compliance Matrix: (Units=1/GPa)
#
#
# Indices 1 2 3 4 5 6 
#
# 1 0.006844 -0.003399 -0.001840 0.000000 0.000000 0.000000
# 2 -0.003399 0.006089 -0.000979 0.000000 0.000000 0.000000
# 3 -0.001840 -0.000979 0.011521 0.000000 0.000000 0.000000
# 4 0.000000 0.000000 0.000000 0.082099 0.000000 0.000000
# 5 0.000000 0.000000 0.000000 0.000000 0.058336 0.000000
# 6 0.000000 0.000000 0.000000 0.000000 0.000000 0.026317
#
#
# Mechanical properties :
#
#
# Convention : Reuss Voigt Hill
#
# Bulk Modulus (GPa) = 83.20996 112.57648 97.89322
# Shear Modulus (GPa) = 24.07924 36.50860 30.29392
#
# Velocity S-wave (km/s) = 3.41030 4.19922 3.82515
# Velocity P-wave (km/s) = 7.46302 8.82524 8.17256
#
# Compressibility (1/GPa) = 0.01201779
#
# Stress axis : x y z
#
# Youngs Moduli (GPa) = 146.10824 164.23088 86.79925
#
# Poissons Ratio (x) = 0.55816 0.15973
# Poissons Ratio (y) = 0.49657 0.08500
# Poissons Ratio (z) = 0.26887 0.16082
#
# Static dielectric constant tensor:
#      x y z
#    x 1.694150 0.000000 0.000000 
#    y 0.000000 1.696410 0.000000 
#    z 0.000000 0.000000 1.774420 
# 
# From -- ./inp_files/33381.got.cif
#   From: 2010.05.17/outbox.cif.g08.bks.cpg/sg63_17_cif.got.tgz:33381.got - 2010.06.03 15:47:04.
