data_PCOD9474974
_publ_section_title
;
Structure prediction by ZEFSAII (Michael W. Deem and Ramdas Pophale) SiO2 
 PCOD9474974
Probable space group: C M C M
;
_chemical_formula_sum "Si O2"
_cell_formula_units_Z 64
_cell_length_a 15.754167
_cell_length_b 13.485612
_cell_length_c 14.475503
_cell_angle_alpha 90.000000
_cell_angle_beta 90.000000
_cell_angle_gamma 90.000000
_cell_volume 3075.386961
_symmetry_space_group_name_H-M "C M C M"
_symmetry_group_IT_number 63
_symmetry_cell_setting 'orthorhombic'
loop_
_space_group_symop_operation_xyz
x,y,z
-x,-y,1/2+z
x,-y,-z
-x,y,1/2-z
-x,-y,-z
x,y,1/2-z
-x,y,z
x,-y,1/2+z
1/2+x,1/2+y,z
1/2-x,1/2-y,1/2+z
1/2+x,1/2-y,-z
1/2-x,1/2+y,1/2-z
1/2-x,1/2-y,-z
1/2+x,1/2+y,1/2-z
1/2-x,1/2+y,z
1/2+x,1/2-y,1/2+z
loop_
_atom_site_type_symbol
_atom_site_label
_atom_site_fract_x
_atom_site_fract_y
_atom_site_fract_z
Si Si1 0.500000 0.259585 0.638680
Si Si2 0.500000 0.885516 0.976134
Si Si3 0.097382 0.047937 0.898091
Si Si4 0.145381 0.276150 0.637275
Si Si5 0.824823 0.855521 0.854402
O O1 0.500000 0.248126 0.750000
O O2 0.500000 0.163010 0.577471
O O3 0.585041 0.317202 0.608977
O O4 0.420758 0.845754 0.916279
O O5 0.500000 0.000000 0.000000
O O6 0.126050 0.161602 0.888735
O O7 0.000000 0.040799 0.861703
O O8 0.164970 0.974016 0.851697
O O9 0.095652 0.000000 0.000000
O O10 0.137300 0.285481 0.750000
O O11 0.238735 0.312347 0.604959
O O12 0.822539 0.817632 0.750000
#
# Coordination Sequence:
#
# PCOD9474974 Si02
#       5
#     8   8  16  16  16
#     4  10  22  42  65  94 131 170 221 284 342 402
#     4  12  27  44  65  92 131 184 227 276 341 410
#     4  11  22  38  67 101 132 174 227 283 345 407
#     4  11  25  44  68 101 139 182 231 283 342 413
#     4  10  22  40  66  98 132 172 224 282 340 402
#
# _framework density 20.810389000000001
#
# number of rings (size 3 to 8) (size 9 to 14) (size 15 to 20)
#    0.000    1.250    2.500    2.625    0.000    9.000 
#    0.000    5.000    0.000    0.000    0.000    0.000 
#    0.000    0.000    0.000    0.000    0.000    0.000 
#
# Total GULP energy -178487.045659 kJ/mol
# GULP energy per Si atom -5577.720177 kJ/mol
# Density = 2.076302 g / cm^3
# Si number density = 20.810389 Si / 1000 Ang^3
#
#
#
# Elastic Constant Matrix: (Units=GPa)
#
#
# Indices 1 2 3 4 5 6 
#
# 1 196.4993 94.9263 36.3977 0.0000 0.0000 0.0000
# 2 94.9263 203.6915 50.5673 0.0000 0.0000 0.0000
# 3 36.3977 50.5673 104.2583 0.0000 0.0000 0.0000
# 4 0.0000 0.0000 0.0000 22.5282 0.0000 0.0000
# 5 0.0000 0.0000 0.0000 0.0000 -8.0540 0.0000
# 6 0.0000 0.0000 0.0000 0.0000 0.0000 35.7412
#
#
#
# Elastic Compliance Matrix: (Units=1/GPa)
#
#
# Indices 1 2 3 4 5 6 
#
# 1 0.006646 -0.002866 -0.000930 0.000000 0.000000 0.000000
# 2 -0.002866 0.006818 -0.002306 0.000000 0.000000 0.000000
# 3 -0.000930 -0.002306 0.011035 0.000000 0.000000 0.000000
# 4 0.000000 0.000000 0.000000 0.044389 0.000000 0.000000
# 5 0.000000 0.000000 0.000000 0.000000 -0.124161 0.000000
# 6 0.000000 0.000000 0.000000 0.000000 0.000000 0.027979
#
#
# Mechanical properties :
#
#
# Convention : Reuss Voigt Hill
#
# Bulk Modulus (GPa) = 81.34252 96.47019 88.90635
# Shear Modulus (GPa) = -454.85617 31.54692 -211.65463
#
# Velocity S-wave (km/s) = -14.80021 3.89771 -10.09589
# Velocity P-wave (km/s) = 15.90249 8.16784 9.64820
#
# Compressibility (1/GPa) = 0.01229369
#
# Stress axis : x y z
#
# Youngs Moduli (GPa) = 150.46532 146.67725 90.62331
#
# Poissons Ratio (x) = 0.42043 0.08428
# Poissons Ratio (y) = 0.43129 0.20898
# Poissons Ratio (z) = 0.13993 0.33824
#
# Static dielectric constant tensor:
#      x y z
#    x 1.651700 0.000000 0.000000 
#    y 0.000000 1.747800 0.000000 
#    z 0.000000 0.000000 1.813490 
# 
# From -- ./inp_files/33425.got.cif
#   From: 2010.05.17/outbox.cif.g08.bks.cpg/sg63_17_cif.got.tgz:33425.got - 2010.06.03 15:47:04.
