data_PCOD9474194
_publ_section_title
;
Structure prediction by ZEFSAII (Michael W. Deem and Ramdas Pophale) SiO2 
 PCOD9474194
Probable space group: C M C M
;
_chemical_formula_sum "Si O2"
_cell_formula_units_Z 80
_cell_length_a 8.669002
_cell_length_b 29.915155
_cell_length_c 16.073010
_cell_angle_alpha 90.000000
_cell_angle_beta 90.000000
_cell_angle_gamma 90.000000
_cell_volume 4168.286631
_symmetry_space_group_name_H-M "C M C M"
_symmetry_group_IT_number 63
_symmetry_cell_setting 'orthorhombic'
loop_
_space_group_symop_operation_xyz
x,y,z
-x,-y,1/2+z
x,-y,-z
-x,y,1/2-z
-x,-y,-z
x,y,1/2-z
-x,y,z
x,-y,1/2+z
1/2+x,1/2+y,z
1/2-x,1/2-y,1/2+z
1/2+x,1/2-y,-z
1/2-x,1/2+y,1/2-z
1/2-x,1/2-y,-z
1/2+x,1/2+y,1/2-z
1/2-x,1/2+y,z
1/2+x,1/2-y,1/2+z
loop_
_atom_site_type_symbol
_atom_site_label
_atom_site_fract_x
_atom_site_fract_y
_atom_site_fract_z
Si Si1 0.184600 0.048666 0.085848
Si Si2 0.685047 0.355113 0.654468
Si Si3 0.683734 0.766749 0.913226
Si Si4 0.813714 0.389187 0.250000
Si Si5 0.313265 0.288736 0.250000
Si Si6 0.684860 0.045574 0.599568
O O1 0.227249 0.094406 0.131342
O O2 0.000000 0.042830 0.089370
O O3 0.264101 0.004653 0.123240
O O4 0.236861 0.053319 0.989886
O O5 0.725188 0.346188 0.750000
O O6 0.500000 0.351190 0.644785
O O7 0.766056 0.317768 0.599926
O O8 0.500000 0.763552 0.915234
O O9 0.738471 0.737651 0.833307
O O10 0.750000 0.750000 0.000000
O O11 0.744852 0.339632 0.250000
O O12 0.769189 0.418084 0.168562
O O13 0.000000 0.385863 0.250000
O O14 0.500000 0.288884 0.250000
O O15 0.500000 0.046801 0.590091
#
# Coordination Sequence:
#
# PCOD9474194 Si02
#       6
#    16  16  16   8   8  16
#     4  10  21  37  60  88 118 153 196 241 291 349
#     4  10  22  40  62  90 122 156 197 246 299 357
#     4  11  24  43  65  92 122 158 202 250 303 362
#     4  10  24  40  59  86 117 155 198 239 289 350
#     4  10  24  44  63  88 121 155 200 251 297 356
#     4  10  21  39  58  84 119 155 197 241 288 347
#
# _framework density 19.192537000000002
#
# number of rings (size 3 to 8) (size 9 to 14) (size 15 to 20)
#    0.000    1.800    1.000    3.000    4.200    4.800 
#    0.000    0.000    0.000    0.000    0.000    0.000 
#    0.000    0.000    0.000    0.000    0.000    0.000 
#
# Total GULP energy -223477.740386 kJ/mol
# GULP energy per Si atom -5586.943510 kJ/mol
# Density = 1.914885 g / cm^3
# Si number density = 19.192537 Si / 1000 Ang^3
#
#
#
# Elastic Constant Matrix: (Units=GPa)
#
#
# Indices 1 2 3 4 5 6 
#
# 1 12.5083 11.8602 10.2289 0.0000 0.0000 0.0000
# 2 11.8602 92.8374 28.3379 0.0000 0.0000 0.0000
# 3 10.2289 28.3379 70.9982 0.0000 0.0000 0.0000
# 4 0.0000 0.0000 0.0000 37.8298 0.0000 0.0000
# 5 0.0000 0.0000 0.0000 0.0000 22.9340 0.0000
# 6 0.0000 0.0000 0.0000 0.0000 0.0000 37.5224
#
#
#
# Elastic Compliance Matrix: (Units=1/GPa)
#
#
# Indices 1 2 3 4 5 6 
#
# 1 0.097156 -0.009269 -0.010298 0.000000 0.000000 0.000000
# 2 -0.009269 0.013150 -0.003913 0.000000 0.000000 0.000000
# 3 -0.010298 -0.003913 0.017130 0.000000 0.000000 0.000000
# 4 0.000000 0.000000 0.000000 0.026434 0.000000 0.000000
# 5 0.000000 0.000000 0.000000 0.000000 0.043603 0.000000
# 6 0.000000 0.000000 0.000000 0.000000 0.000000 0.026651
#
#
# Mechanical properties :
#
#
# Convention : Reuss Voigt Hill
#
# Bulk Modulus (GPa) = 12.42591 30.79976 21.61283
# Shear Modulus (GPa) = 16.78353 28.05171 22.41762
#
# Velocity S-wave (km/s) = 2.96037 3.82723 3.42137
# Velocity P-wave (km/s) = 4.26304 5.96765 5.18586
#
# Compressibility (1/GPa) = 0.08047701
#
# Stress axis : x y z
#
# Youngs Moduli (GPa) = 10.29267 76.04494 58.37542
#
# Poissons Ratio (x) = 0.70483 0.60116
# Poissons Ratio (y) = 0.09540 0.22844
# Poissons Ratio (z) = 0.10600 0.29759
#
# Static dielectric constant tensor:
#      x y z
#    x 1.650420 0.000000 0.000000 
#    y 0.000000 1.639770 0.000000 
#    z 0.000000 0.000000 1.667970 
# 
# From -- ./inp_files/40744.got.cif
#   From: 2010.05.17/outbox.cif.g08.bks.cpg/sg63_21_cif.got.tgz:40744.got - 2010.06.03 15:47:04.
