data_PCOD9474354
_publ_section_title
;
Structure prediction by ZEFSAII (Michael W. Deem and Ramdas Pophale) SiO2 
 PCOD9474354
Probable space group: C M C M
;
_chemical_formula_sum "Si O2"
_cell_formula_units_Z 96
_cell_length_a 23.646351
_cell_length_b 25.984349
_cell_length_c 8.856451
_cell_angle_alpha 90.000000
_cell_angle_beta 90.000000
_cell_angle_gamma 90.000000
_cell_volume 5441.713798
_symmetry_space_group_name_H-M "C M C M"
_symmetry_group_IT_number 63
_symmetry_cell_setting 'orthorhombic'
loop_
_space_group_symop_operation_xyz
x,y,z
-x,-y,1/2+z
x,-y,-z
-x,y,1/2-z
-x,-y,-z
x,y,1/2-z
-x,y,z
x,-y,1/2+z
1/2+x,1/2+y,z
1/2-x,1/2-y,1/2+z
1/2+x,1/2-y,-z
1/2-x,1/2+y,1/2-z
1/2-x,1/2-y,-z
1/2+x,1/2+y,1/2-z
1/2-x,1/2+y,z
1/2+x,1/2-y,1/2+z
loop_
_atom_site_type_symbol
_atom_site_label
_atom_site_fract_x
_atom_site_fract_y
_atom_site_fract_z
Si Si1 0.859608 0.347315 0.431343
Si Si2 0.879820 0.155919 0.069840
Si Si3 0.252845 0.692888 0.069948
Si Si4 0.433754 0.756252 0.570494
Si Si5 0.065146 0.444408 0.431899
Si Si6 0.567024 0.444692 0.429876
O O1 0.856279 0.346037 0.250000
O O2 0.797620 0.340686 0.500694
O O3 0.896240 0.298962 0.488099
O O4 0.892301 0.399251 0.478295
O O5 0.888440 0.157476 0.250000
O O6 0.814236 0.168856 0.038846
O O7 0.916460 0.200578 0.991883
O O8 0.898261 0.101169 0.004981
O O9 0.245683 0.696905 0.250000
O O10 0.250000 0.750000 0.000000
O O11 0.423357 0.758288 0.750000
O O12 0.500000 0.765758 0.543159
O O13 0.079316 0.500000 0.500000
O O14 0.066553 0.447770 0.250000
O O15 0.000000 0.432039 0.475961
O O16 0.581727 0.500000 0.500000
O O17 0.575501 0.445341 0.250000
O O18 0.500000 0.435983 0.458550
#
# Coordination Sequence:
#
# PCOD9474354 Si02
#       6
#    16  16  16  16  16  16
#     4  11  22  37  58  84 114 151 192 236 288 344
#     4  11  23  38  58  84 114 151 193 237 289 345
#     4  11  23  39  59  83 113 153 196 238 286 342
#     4  11  23  36  54  83 116 149 187 235 289 345
#     4   9  19  36  58  84 114 148 187 232 284 341
#     4  10  21  38  61  88 118 152 190 235 288 345
#
# _framework density 17.641501000000002
#
# number of rings (size 3 to 8) (size 9 to 14) (size 15 to 20)
#    0.000    1.500    1.667    3.500    0.000    8.333 
#    0.000    2.500    0.000    2.000    0.000    0.000 
#    0.000    0.000    0.000    0.000    0.000    0.000 
#
# Total GULP energy -268271.670351 kJ/mol
# GULP energy per Si atom -5588.993132 kJ/mol
# Density = 1.760135 g / cm^3
# Si number density = 17.641501 Si / 1000 Ang^3
#
#
#
# Elastic Constant Matrix: (Units=GPa)
#
#
# Indices 1 2 3 4 5 6 
#
# 1 54.7441 25.8104 38.1804 0.0000 0.0000 0.0000
# 2 25.8104 93.8985 25.4424 0.0000 0.0000 0.0000
# 3 38.1804 25.4424 52.5222 0.0000 0.0000 0.0000
# 4 0.0000 0.0000 0.0000 35.9971 0.0000 0.0000
# 5 0.0000 0.0000 0.0000 0.0000 17.9220 0.0000
# 6 0.0000 0.0000 0.0000 0.0000 0.0000 14.0137
#
#
#
# Elastic Compliance Matrix: (Units=1/GPa)
#
#
# Indices 1 2 3 4 5 6 
#
# 1 0.037975 -0.003405 -0.025956 0.000000 0.000000 0.000000
# 2 -0.003405 0.012564 -0.003611 0.000000 0.000000 0.000000
# 3 -0.025956 -0.003611 0.039657 0.000000 0.000000 0.000000
# 4 0.000000 0.000000 0.000000 0.027780 0.000000 0.000000
# 5 0.000000 0.000000 0.000000 0.000000 0.055797 0.000000
# 6 0.000000 0.000000 0.000000 0.000000 0.000000 0.071359
#
#
# Mechanical properties :
#
#
# Convention : Reuss Voigt Hill
#
# Bulk Modulus (GPa) = 41.23350 42.22570 41.72960
# Shear Modulus (GPa) = 15.66617 21.03535 18.35076
#
# Velocity S-wave (km/s) = 2.98321 3.45683 3.22872
# Velocity P-wave (km/s) = 5.94053 6.31825 6.13230
#
# Compressibility (1/GPa) = 0.02425212
#
# Stress axis : x y z
#
# Youngs Moduli (GPa) = 26.33334 79.59109 25.21640
#
# Poissons Ratio (x) = 0.27105 0.65451
# Poissons Ratio (y) = 0.08968 0.09105
# Poissons Ratio (z) = 0.68350 0.28738
#
# Static dielectric constant tensor:
#      x y z
#    x 1.590810 0.000000 0.000000 
#    y 0.000000 1.569030 0.000000 
#    z 0.000000 0.000000 1.589610 
# 
# From -- ./inp_files/10438.got.cif
#   From: 2010.05.17/outbox.cif.g08.bks.cpg/sg63_6_cif.got.tgz:10438.got - 2010.06.03 15:47:04.
