data_PCOD9474486
_publ_section_title
;
Structure prediction by ZEFSAII (Michael W. Deem and Ramdas Pophale) SiO2 
 PCOD9474486
Probable space group: C M C M
;
_chemical_formula_sum "Si O2"
_cell_formula_units_Z 100
_cell_length_a 23.882679
_cell_length_b 23.194442
_cell_length_c 8.882374
_cell_angle_alpha 90.000000
_cell_angle_beta 90.000000
_cell_angle_gamma 90.000000
_cell_volume 4920.350333
_symmetry_space_group_name_H-M "C M C M"
_symmetry_group_IT_number 63
_symmetry_cell_setting 'orthorhombic'
loop_
_space_group_symop_operation_xyz
x,y,z
-x,-y,1/2+z
x,-y,-z
-x,y,1/2-z
-x,-y,-z
x,y,1/2-z
-x,y,z
x,-y,1/2+z
1/2+x,1/2+y,z
1/2-x,1/2-y,1/2+z
1/2+x,1/2-y,-z
1/2-x,1/2+y,1/2-z
1/2-x,1/2-y,-z
1/2+x,1/2+y,1/2-z
1/2-x,1/2+y,z
1/2+x,1/2-y,1/2+z
loop_
_atom_site_type_symbol
_atom_site_label
_atom_site_fract_x
_atom_site_fract_y
_atom_site_fract_z
Si Si1 0.000000 0.190215 0.250000
Si Si2 0.337595 0.562923 0.571941
Si Si3 0.378100 0.939113 0.073188
Si Si4 0.388511 0.659814 0.085694
Si Si5 0.061685 0.657610 0.420398
Si Si6 0.229057 0.623960 0.431502
Si Si7 0.670170 0.761330 0.575799
O O1 0.050530 0.185981 0.378940
O O2 0.343247 0.500000 0.500000
O O3 0.332216 0.557932 0.750000
O O4 0.387859 0.605790 0.525651
O O5 0.283188 0.595099 0.504103
O O6 0.367827 0.944700 0.250000
O O7 0.425924 0.892525 0.038139
O O8 0.323380 0.913176 0.991347
O O9 0.391998 0.000000 0.000000
O O10 0.368820 0.638019 0.250000
O O11 0.344731 0.707277 0.027029
O O12 0.063775 0.633005 0.250000
O O13 0.111557 0.703168 0.427074
O O14 0.000000 0.682707 0.444040
O O15 0.230107 0.621902 0.250000
O O16 0.215703 0.690863 0.474225
O O17 0.681344 0.744514 0.750000
#
# Coordination Sequence:
#
# PCOD9474486 Si02
#       7
#     4  16  16  16  16  16  16
#     4   8  24  44  68  96 130 168 216 260 326 382
#     4  12  25  43  69  97 129 168 214 265 321 390
#     4  11  21  34  51  74 109 151 201 255 306 372
#     4  10  22  42  66  94 129 165 211 262 314 378
#     4   9  19  34  52  76 107 150 201 256 312 372
#     4  10  21  39  61  91 128 169 207 251 309 372
#     4   9  19  36  60  92 128 164 208 256 311 371
#
# _framework density 20.323757000000001
#
# number of rings (size 3 to 8) (size 9 to 14) (size 15 to 20)
#    0.480    1.440    0.000    5.280    1.120    4.480 
#    0.000    1.600    0.000    0.000    0.000    0.000 
#    0.000    0.000    0.000    0.000    0.000    0.000 
#
# Total GULP energy -278542.279081 kJ/mol
# GULP energy per Si atom -5570.845582 kJ/mol
# Density = 2.027750 g / cm^3
# Si number density = 20.323757 Si / 1000 Ang^3
#
#
#
# Elastic Constant Matrix: (Units=GPa)
#
#
# Indices 1 2 3 4 5 6 
#
# 1 63.0994 -1.4118 6.6764 0.0000 0.0000 0.0000
# 2 -1.4118 76.6147 42.8242 0.0000 0.0000 0.0000
# 3 6.6764 42.8242 113.5095 0.0000 0.0000 0.0000
# 4 0.0000 0.0000 0.0000 32.7933 0.0000 0.0000
# 5 0.0000 0.0000 0.0000 0.0000 34.6936 0.0000
# 6 0.0000 0.0000 0.0000 0.0000 0.0000 10.9785
#
#
#
# Elastic Compliance Matrix: (Units=1/GPa)
#
#
# Indices 1 2 3 4 5 6 
#
# 1 0.016013 0.001041 -0.001335 0.000000 0.000000 0.000000
# 2 0.001041 0.016608 -0.006327 0.000000 0.000000 0.000000
# 3 -0.001335 -0.006327 0.011275 0.000000 0.000000 0.000000
# 4 0.000000 0.000000 0.000000 0.030494 0.000000 0.000000
# 5 0.000000 0.000000 0.000000 0.000000 0.028824 0.000000
# 6 0.000000 0.000000 0.000000 0.000000 0.000000 0.091088
#
#
# Mechanical properties :
#
#
# Convention : Reuss Voigt Hill
#
# Bulk Modulus (GPa) = 32.62133 38.82235 35.72184
# Shear Modulus (GPa) = 22.96100 29.36873 26.16487
#
# Velocity S-wave (km/s) = 3.36484 3.80550 3.59193
# Velocity P-wave (km/s) = 5.58407 6.20101 5.90061
#
# Compressibility (1/GPa) = 0.03065479
#
# Stress axis : x y z
#
# Youngs Moduli (GPa) = 62.45113 60.21189 88.68910
#
# Poissons Ratio (x) = -0.06268 0.11836
# Poissons Ratio (y) = -0.06501 0.56114
# Poissons Ratio (z) = 0.08335 0.38096
#
# Static dielectric constant tensor:
#      x y z
#    x 1.749360 0.000000 0.000000 
#    y 0.000000 1.729370 0.000000 
#    z 0.000000 0.000000 1.704870 
# 
# From -- ./inp_files/12580.got.cif
#   From: 2010.05.17/outbox.cif.g08.bks.cpg/sg63_7_cif.got.tgz:12580.got - 2010.06.03 15:47:04.
