data_PCOD9474937
_publ_section_title
;
Structure prediction by ZEFSAII (Michael W. Deem and Ramdas Pophale) SiO2 
 PCOD9474937
Probable space group: C M C M
;
_chemical_formula_sum "Si O2"
_cell_formula_units_Z 96
_cell_length_a 8.958246
_cell_length_b 20.213743
_cell_length_c 28.909277
_cell_angle_alpha 90.000000
_cell_angle_beta 90.000000
_cell_angle_gamma 90.000000
_cell_volume 5234.882697
_symmetry_space_group_name_H-M "C M C M"
_symmetry_group_IT_number 63
_symmetry_cell_setting 'orthorhombic'
loop_
_space_group_symop_operation_xyz
x,y,z
-x,-y,1/2+z
x,-y,-z
-x,y,1/2-z
-x,-y,-z
x,y,1/2-z
-x,y,z
x,-y,1/2+z
1/2+x,1/2+y,z
1/2-x,1/2-y,1/2+z
1/2+x,1/2-y,-z
1/2-x,1/2+y,1/2-z
1/2-x,1/2-y,-z
1/2+x,1/2+y,1/2-z
1/2-x,1/2+y,z
1/2+x,1/2-y,1/2+z
loop_
_atom_site_type_symbol
_atom_site_label
_atom_site_fract_x
_atom_site_fract_y
_atom_site_fract_z
Si Si1 0.179428 0.852789 0.125021
Si Si2 0.321078 0.492446 0.872281
Si Si3 0.320924 0.682976 0.519108
Si Si4 0.673373 0.061990 0.034795
Si Si5 0.674311 0.890246 0.805350
Si Si6 0.821520 0.250196 0.195631
O O1 0.220115 0.930060 0.130100
O O2 0.258099 0.807354 0.162998
O O3 0.000000 0.847227 0.130299
O O4 0.217663 0.829266 0.073039
O O5 0.500000 0.488323 0.874127
O O6 0.251655 0.460335 0.918158
O O7 0.257962 0.450255 0.829882
O O8 0.500000 0.685132 0.515538
O O9 0.250000 0.750000 0.500000
O O10 0.257364 0.622585 0.489149
O O11 0.500000 0.079104 0.043142
O O12 0.678751 0.000000 0.000000
O O13 0.684878 0.896641 0.750000
O O14 0.500000 0.889873 0.818428
O O15 0.748736 0.820057 0.817922
O O16 0.785697 0.262156 0.250000
O O17 0.000000 0.245875 0.191367
#
# Coordination Sequence:
#
# PCOD9474937 Si02
#       6
#    16  16  16  16  16  16
#     4  10  23  41  61  87 121 160 201 246 299 359
#     4  11  23  40  63  90 121 160 202 247 298 357
#     4  11  24  42  62  88 123 161 205 251 299 357
#     4  11  23  40  63  90 122 160 201 246 299 357
#     4  10  22  41  64  90 122 158 198 247 301 358
#     4  10  22  40  63  90 120 157 201 248 299 357
#
# _framework density 18.338519999999999
#
# number of rings (size 3 to 8) (size 9 to 14) (size 15 to 20)
#    0.000    1.500    1.667    2.500    2.333    6.000 
#    0.000    3.333    0.000    0.000    0.000    0.000 
#    0.000    0.000    0.000    0.000    0.000    0.000 
#
# Total GULP energy -268327.477700 kJ/mol
# GULP energy per Si atom -5590.155785 kJ/mol
# Density = 1.829678 g / cm^3
# Si number density = 18.338520 Si / 1000 Ang^3
#
#
#
# Elastic Constant Matrix: (Units=GPa)
#
#
# Indices 1 2 3 4 5 6 
#
# 1 93.8353 79.2586 60.3854 0.0000 0.0000 0.0000
# 2 79.2586 167.2748 86.0302 0.0000 0.0000 0.0000
# 3 60.3854 86.0302 81.9723 0.0000 0.0000 0.0000
# 4 0.0000 0.0000 0.0000 41.7095 0.0000 0.0000
# 5 0.0000 0.0000 0.0000 0.0000 36.2036 0.0000
# 6 0.0000 0.0000 0.0000 0.0000 0.0000 38.5268
#
#
#
# Elastic Compliance Matrix: (Units=1/GPa)
#
#
# Indices 1 2 3 4 5 6 
#
# 1 0.021704 -0.004478 -0.011289 0.000000 0.000000 0.000000
# 2 -0.004478 0.013913 -0.011303 0.000000 0.000000 0.000000
# 3 -0.011289 -0.011303 0.032378 0.000000 0.000000 0.000000
# 4 0.000000 0.000000 0.000000 0.023975 0.000000 0.000000
# 5 0.000000 0.000000 0.000000 0.000000 0.027622 0.000000
# 6 0.000000 0.000000 0.000000 0.000000 0.000000 0.025956
#
#
# Mechanical properties :
#
#
# Convention : Reuss Voigt Hill
#
# Bulk Modulus (GPa) = 72.17480 88.27009 80.22244
# Shear Modulus (GPa) = 24.47308 31.11519 27.79413
#
# Velocity S-wave (km/s) = 3.65707 4.12359 3.89731
# Velocity P-wave (km/s) = 7.56800 8.42082 8.00577
#
# Compressibility (1/GPa) = 0.01385525
#
# Stress axis : x y z
#
# Youngs Moduli (GPa) = 46.07484 71.87362 30.88529
#
# Poissons Ratio (x) = 0.32185 0.34865
# Poissons Ratio (y) = 0.20632 0.34911
# Poissons Ratio (z) = 0.52012 0.81241
#
# Static dielectric constant tensor:
#      x y z
#    x 1.614090 0.000000 0.000000 
#    y 0.000000 1.597640 0.000000 
#    z 0.000000 0.000000 1.608080 
# 
# From -- ./inp_files/66947.got.cif
#   From: 2010.05.17/outbox.cif.g08.bks.cpg/sg63_34_cif.got.tgz:66947.got - 2010.06.03 15:47:04.
