data_PCOD9474373
_publ_section_title
;
Structure prediction by ZEFSAII (Michael W. Deem and Ramdas Pophale) SiO2 
 PCOD9474373
Probable space group: C M C M
;
_chemical_formula_sum "Si O2"
_cell_formula_units_Z 104
_cell_length_a 7.434467
_cell_length_b 19.892192
_cell_length_c 27.452550
_cell_angle_alpha 90.000000
_cell_angle_beta 90.000000
_cell_angle_gamma 90.000000
_cell_volume 4059.898459
_symmetry_space_group_name_H-M "C M C M"
_symmetry_group_IT_number 63
_symmetry_cell_setting 'orthorhombic'
loop_
_space_group_symop_operation_xyz
x,y,z
-x,-y,1/2+z
x,-y,-z
-x,y,1/2-z
-x,-y,-z
x,y,1/2-z
-x,y,z
x,-y,1/2+z
1/2+x,1/2+y,z
1/2-x,1/2-y,1/2+z
1/2+x,1/2-y,-z
1/2-x,1/2+y,1/2-z
1/2-x,1/2-y,-z
1/2+x,1/2+y,1/2-z
1/2-x,1/2+y,z
1/2+x,1/2-y,1/2+z
loop_
_atom_site_type_symbol
_atom_site_label
_atom_site_fract_x
_atom_site_fract_y
_atom_site_fract_z
Si Si1 0.779457 0.511139 0.158815
Si Si2 0.789130 0.805116 0.171124
Si Si3 0.702026 0.992909 0.946376
Si Si4 0.781784 0.655595 0.306808
Si Si5 0.739584 0.914087 0.250000
Si Si6 0.784820 0.697573 0.936987
Si Si7 0.793601 0.847270 0.958959
O O1 0.719493 0.485088 0.105569
O O2 0.720710 0.588409 0.166334
O O3 0.724953 0.469330 0.206309
O O4 0.000000 0.509175 0.158730
O O5 0.720672 0.728460 0.174615
O O6 0.702940 0.856866 0.207890
O O7 0.768454 0.827153 0.115729
O O8 0.000000 0.805360 0.185578
O O9 0.500000 0.022533 0.950267
O O10 0.691344 0.912163 0.940943
O O11 0.788951 0.000000 0.000000
O O12 0.735688 0.650450 0.250000
O O13 0.000000 0.655916 0.310392
O O14 0.720090 0.774920 0.942577
O O15 0.000000 0.698734 0.941388
O O16 0.712857 0.655794 0.982302
O O17 0.000000 0.852872 0.943166
#
# Coordination Sequence:
#
# PCOD9474373 Si02
#       7
#    16  16  16  16   8  16  16
#     4  10  21  38  61  91 126 170 220 272 322 376
#     4  11  23  40  63  94 130 167 212 268 333 390
#     4  10  22  39  61  91 128 170 218 267 317 383
#     4   9  16  33  60  85 113 157 217 271 309 366
#     4  12  24  36  58  94 131 168 211 266 329 394
#     4  10  22  39  64  94 128 167 210 263 320 386
#     4  10  21  40  64  95 129 165 211 263 326 387
#
# _framework density 25.616406000000001
#
# number of rings (size 3 to 8) (size 9 to 14) (size 15 to 20)
#    0.000    1.846    1.538    2.308    2.154    4.615 
#    0.000    1.538    0.000    1.846    0.000    0.000 
#    0.000    0.000    0.000    0.000    0.000    0.000 
#
# Total GULP energy -289975.995329 kJ/mol
# GULP energy per Si atom -5576.461449 kJ/mol
# Density = 2.555810 g / cm^3
# Si number density = 25.616406 Si / 1000 Ang^3
#
#
#
# Elastic Constant Matrix: (Units=GPa)
#
#
# Indices 1 2 3 4 5 6 
#
# 1 93.5290 0.8022 -8.3134 0.0000 0.0000 0.0000
# 2 0.8022 152.3034 70.4640 0.0000 0.0000 0.0000
# 3 -8.3134 70.4640 257.2974 0.0000 0.0000 0.0000
# 4 0.0000 0.0000 0.0000 8.2731 0.0000 0.0000
# 5 0.0000 0.0000 0.0000 0.0000 -314.3418 0.0000
# 6 0.0000 0.0000 0.0000 0.0000 0.0000 -34.1910
#
#
#
# Elastic Compliance Matrix: (Units=1/GPa)
#
#
# Indices 1 2 3 4 5 6 
#
# 1 0.010731 -0.000248 0.000415 0.000000 0.000000 0.000000
# 2 -0.000248 0.007524 -0.002069 0.000000 0.000000 0.000000
# 3 0.000415 -0.002069 0.004466 0.000000 0.000000 0.000000
# 4 0.000000 0.000000 0.000000 0.120874 0.000000 0.000000
# 5 0.000000 0.000000 0.000000 0.000000 -0.003181 0.000000
# 6 0.000000 0.000000 0.000000 0.000000 0.000000 -0.029247
#
#
# Mechanical properties :
#
#
# Convention : Reuss Voigt Hill
#
# Bulk Modulus (GPa) = 52.86254 69.89283 61.37768
# Shear Modulus (GPa) = 41.22793 -38.70682 1.26056
#
# Velocity S-wave (km/s) = 4.01613 -3.89140 0.70225
# Velocity P-wave (km/s) = 6.49513 2.67451 4.96688
#
# Compressibility (1/GPa) = 0.01891699
#
# Stress axis : x y z
#
# Youngs Moduli (GPa) = 93.18912 132.90432 223.89038
#
# Poissons Ratio (x) = 0.03301 -0.09286
# Poissons Ratio (y) = 0.02315 0.46314
# Poissons Ratio (z) = -0.03865 0.27493
#
# Static dielectric constant tensor:
#      x y z
#    x 2.063280 0.000000 0.000000 
#    y 0.000000 1.990770 0.000000 
#    z 0.000000 0.000000 1.982530 
# 
# From -- ./inp_files/67060.got.cif
#   From: 2010.05.17/outbox.cif.g08.bks.cpg/sg63_34_cif.got.tgz:67060.got - 2010.06.03 15:47:04.
