data_PCOD9474817
_publ_section_title
;
Structure prediction by ZEFSAII (Michael W. Deem and Ramdas Pophale) SiO2 
 PCOD9474817
Probable space group: C M C M
;
_chemical_formula_sum "Si O2"
_cell_formula_units_Z 80
_cell_length_a 29.363916
_cell_length_b 17.089282
_cell_length_c 10.416394
_cell_angle_alpha 90.000000
_cell_angle_beta 90.000000
_cell_angle_gamma 90.000000
_cell_volume 5227.032352
_symmetry_space_group_name_H-M "C M C M"
_symmetry_group_IT_number 63
_symmetry_cell_setting 'orthorhombic'
loop_
_space_group_symop_operation_xyz
x,y,z
-x,-y,1/2+z
x,-y,-z
-x,y,1/2-z
-x,-y,-z
x,y,1/2-z
-x,y,z
x,-y,1/2+z
1/2+x,1/2+y,z
1/2-x,1/2-y,1/2+z
1/2+x,1/2-y,-z
1/2-x,1/2+y,1/2-z
1/2-x,1/2-y,-z
1/2+x,1/2+y,1/2-z
1/2-x,1/2+y,z
1/2+x,1/2-y,1/2+z
loop_
_atom_site_type_symbol
_atom_site_label
_atom_site_fract_x
_atom_site_fract_y
_atom_site_fract_z
Si Si1 0.865104 0.829131 0.989447
Si Si2 0.278198 0.908449 0.250000
Si Si3 0.667930 0.406807 0.250000
Si Si4 0.676899 0.416356 0.750000
Si Si5 0.795746 0.306369 0.000639
Si Si6 0.554083 0.426821 0.595436
Si Si7 0.784883 0.588771 0.250000
O O1 0.838185 0.873131 0.877173
O O2 0.842087 0.744093 0.991980
O O3 0.916827 0.851807 0.952634
O O4 0.852116 0.866513 0.124963
O O5 0.222892 0.905061 0.250000
O O6 0.292479 0.861483 0.123970
O O7 0.298007 0.996883 0.250000
O O8 0.656518 0.497662 0.250000
O O9 0.730633 0.418260 0.750000
O O10 0.750000 0.250000 0.000000
O O11 0.797147 0.360652 0.874857
O O12 0.566583 0.500000 0.500000
O O13 0.561851 0.439750 0.750000
O O14 0.500000 0.414881 0.580304
#
# Coordination Sequence:
#
# PCOD9474817 Si02
#       7
#    16   8   8   8  16  16   8
#     4  12  22  32  51  74 102 137 175 220 262 299
#     4  11  22  36  52  70 103 148 180 215 256 308
#     4  11  21  31  46  74 103 139 179 213 250 306
#     4  11  19  31  48  70 101 135 181 213 246 308
#     4  12  21  35  50  75 106 135 177 224 262 302
#     4  10  22  39  56  77 106 139 176 216 260 313
#     4  11  22  36  50  70 103 144 180 211 258 310
#
# _framework density 15.305052
#
# number of rings (size 3 to 8) (size 9 to 14) (size 15 to 20)
#    0.000    0.800    5.000    4.200    1.400    3.200 
#    0.000    0.000    0.000    0.000    0.000    0.000 
#    0.000    4.800    0.000    0.000    0.000    0.000 
#
# Total GULP energy -223064.122422 kJ/mol
# GULP energy per Si atom -5576.603061 kJ/mol
# Density = 1.527022 g / cm^3
# Si number density = 15.305052 Si / 1000 Ang^3
#
#
#
# Elastic Constant Matrix: (Units=GPa)
#
#
# Indices 1 2 3 4 5 6 
#
# 1 80.5826 44.0322 28.6063 0.0000 0.0000 0.0000
# 2 44.0322 119.4985 73.9090 0.0000 0.0000 0.0000
# 3 28.6063 73.9090 164.0277 0.0000 0.0000 0.0000
# 4 0.0000 0.0000 0.0000 33.0750 0.0000 0.0000
# 5 0.0000 0.0000 0.0000 0.0000 14.2693 0.0000
# 6 0.0000 0.0000 0.0000 0.0000 0.0000 26.0362
#
#
#
# Elastic Compliance Matrix: (Units=1/GPa)
#
#
# Indices 1 2 3 4 5 6 
#
# 1 0.015542 -0.005615 -0.000180 0.000000 0.000000 0.000000
# 2 -0.005615 0.013630 -0.005162 0.000000 0.000000 0.000000
# 3 -0.000180 -0.005162 0.008454 0.000000 0.000000 0.000000
# 4 0.000000 0.000000 0.000000 0.030234 0.000000 0.000000
# 5 0.000000 0.000000 0.000000 0.000000 0.070080 0.000000
# 6 0.000000 0.000000 0.000000 0.000000 0.000000 0.038408
#
#
# Mechanical properties :
#
#
# Convention : Reuss Voigt Hill
#
# Bulk Modulus (GPa) = 63.65212 73.02266 68.33739
# Shear Modulus (GPa) = 24.56979 29.18017 26.87498
#
# Velocity S-wave (km/s) = 4.01101 4.37117 4.19496
# Velocity P-wave (km/s) = 7.94545 8.56103 8.25898
#
# Compressibility (1/GPa) = 0.01571040
#
# Stress axis : x y z
#
# Youngs Moduli (GPa) = 64.34187 73.36600 118.28614
#
# Poissons Ratio (x) = 0.41197 0.02133
# Poissons Ratio (y) = 0.36130 0.61063
# Poissons Ratio (z) = 0.01160 0.37874
#
# Static dielectric constant tensor:
#      x y z
#    x 1.524010 0.000000 0.000000 
#    y 0.000000 1.527500 0.000000 
#    z 0.000000 0.000000 1.504960 
# 
# From -- ./inp_files/14115.got.cif
#   From: 2010.05.17/outbox.cif.g08.bks.cpg/sg63_8_cif.got.tgz:14115.got - 2010.06.03 15:47:04.
