data_PCOD9474977
_publ_section_title
;
Structure prediction by ZEFSAII (Michael W. Deem and Ramdas Pophale) SiO2 
 PCOD9474977
Probable space group: C M C M
;
_chemical_formula_sum "Si O2"
_cell_formula_units_Z 48
_cell_length_a 10.281818
_cell_length_b 15.240058
_cell_length_c 14.978319
_cell_angle_alpha 90.000000
_cell_angle_beta 90.000000
_cell_angle_gamma 90.000000
_cell_volume 2347.035225
_symmetry_space_group_name_H-M "C M C M"
_symmetry_group_IT_number 63
_symmetry_cell_setting 'orthorhombic'
loop_
_space_group_symop_operation_xyz
x,y,z
-x,-y,1/2+z
x,-y,-z
-x,y,1/2-z
-x,-y,-z
x,y,1/2-z
-x,y,z
x,-y,1/2+z
1/2+x,1/2+y,z
1/2-x,1/2-y,1/2+z
1/2+x,1/2-y,-z
1/2-x,1/2+y,1/2-z
1/2-x,1/2-y,-z
1/2+x,1/2+y,1/2-z
1/2-x,1/2+y,z
1/2+x,1/2-y,1/2+z
loop_
_atom_site_type_symbol
_atom_site_label
_atom_site_fract_x
_atom_site_fract_y
_atom_site_fract_z
Si Si1 0.000000 0.130483 0.250000
Si Si2 0.753781 0.000000 0.000000
Si Si3 0.650236 0.182188 0.547037
Si Si4 0.500000 0.309031 0.250000
Si Si5 0.212419 0.277304 0.250000
Si Si6 0.500000 0.471142 0.120557
O O1 0.874580 0.190988 0.250000
O O2 0.000000 0.063875 0.169472
O O3 0.668954 0.088206 0.001538
O O4 0.859952 0.024106 0.925242
O O5 0.500000 0.211870 0.537624
O O6 0.750000 0.250000 0.500000
O O7 0.678483 0.176511 0.654674
O O8 0.365733 0.257690 0.250000
O O9 0.500000 0.378270 0.169312
#
# Coordination Sequence:
#
# PCOD9474977 Si02
#       6
#     4   8  16   4   8   8
#     4  11  22  42  66  95 134 178 228 283 350 410
#     4  11  23  42  68 100 140 176 236 292 346 418
#     4  12  27  46  72 106 141 191 237 295 358 422
#     4  11  22  42  70  97 130 186 234 279 352 426
#     4  12  24  44  68 100 140 180 234 293 351 414
#     4  10  22  40  68  98 130 182 229 282 351 419
#
# _framework density 20.451333000000002
#
# number of rings (size 3 to 8) (size 9 to 14) (size 15 to 20)
#    0.000    0.667    5.000    2.500    7.000    0.000 
#    0.000    0.000    0.000    2.000    0.000    0.000 
#    0.000    0.000    0.000    0.000    0.000    0.000 
#
# Total GULP energy -133684.179339 kJ/mol
# GULP energy per Si atom -5570.174139 kJ/mol
# Density = 2.040478 g / cm^3
# Si number density = 20.451333 Si / 1000 Ang^3
#
#
#
# Elastic Constant Matrix: (Units=GPa)
#
#
# Indices 1 2 3 4 5 6 
#
# 1 198.4187 45.7526 30.4679 0.0000 0.0000 0.0000
# 2 45.7526 83.4991 3.8218 0.0000 0.0000 0.0000
# 3 30.4679 3.8218 56.4722 0.0000 0.0000 0.0000
# 4 0.0000 0.0000 0.0000 9.1683 0.0000 0.0000
# 5 0.0000 0.0000 0.0000 0.0000 32.5297 0.0000
# 6 0.0000 0.0000 0.0000 0.0000 0.0000 33.8394
#
#
#
# Elastic Compliance Matrix: (Units=1/GPa)
#
#
# Indices 1 2 3 4 5 6 
#
# 1 0.006287 -0.003300 -0.003169 0.000000 0.000000 0.000000
# 2 -0.003300 0.013746 0.000850 0.000000 0.000000 0.000000
# 3 -0.003169 0.000850 0.019360 0.000000 0.000000 0.000000
# 4 0.000000 0.000000 0.000000 0.109071 0.000000 0.000000
# 5 0.000000 0.000000 0.000000 0.000000 0.030741 0.000000
# 6 0.000000 0.000000 0.000000 0.000000 0.000000 0.029551
#
#
# Mechanical properties :
#
#
# Convention : Reuss Voigt Hill
#
# Bulk Modulus (GPa) = 35.51710 55.38608 45.45159
# Shear Modulus (GPa) = 21.79798 32.33067 27.06432
#
# Velocity S-wave (km/s) = 3.26827 3.98031 3.64174
# Velocity P-wave (km/s) = 5.62552 6.94727 6.32104
#
# Compressibility (1/GPa) = 0.02815545
#
# Stress axis : x y z
#
# Youngs Moduli (GPa) = 159.04857 72.75097 51.65309
#
# Poissons Ratio (x) = 0.24008 0.16368
# Poissons Ratio (y) = 0.52487 -0.04392
# Poissons Ratio (z) = 0.50400 -0.06186
#
# Static dielectric constant tensor:
#      x y z
#    x 1.734950 0.000000 0.000000 
#    y 0.000000 1.677440 0.000000 
#    z 0.000000 0.000000 1.862360 
# 
# From -- ./inp_files/39365.got.cif
#   From: 2010.05.17/outbox.cif.g08.bks.cpg/sg63_20_cif.got.tgz:39365.got - 2010.06.03 15:47:04.
