data_PCOD9474062
_publ_section_title
;
Structure prediction by ZEFSAII (Michael W. Deem and Ramdas Pophale) SiO2 
 PCOD9474062
Probable space group: C M C M
;
_chemical_formula_sum "Si O2"
_cell_formula_units_Z 96
_cell_length_a 25.917576
_cell_length_b 24.127096
_cell_length_c 8.727674
_cell_angle_alpha 90.000000
_cell_angle_beta 90.000000
_cell_angle_gamma 90.000000
_cell_volume 5457.552836
_symmetry_space_group_name_H-M "C M C M"
_symmetry_group_IT_number 63
_symmetry_cell_setting 'orthorhombic'
loop_
_space_group_symop_operation_xyz
x,y,z
-x,-y,1/2+z
x,-y,-z
-x,y,1/2-z
-x,-y,-z
x,y,1/2-z
-x,y,z
x,-y,1/2+z
1/2+x,1/2+y,z
1/2-x,1/2-y,1/2+z
1/2+x,1/2-y,-z
1/2-x,1/2+y,1/2-z
1/2-x,1/2-y,-z
1/2+x,1/2+y,1/2-z
1/2-x,1/2+y,z
1/2+x,1/2-y,1/2+z
loop_
_atom_site_type_symbol
_atom_site_label
_atom_site_fract_x
_atom_site_fract_y
_atom_site_fract_z
Si Si1 0.059197 0.560346 0.434807
Si Si2 0.747517 0.438458 0.933168
Si Si3 0.058996 0.060220 0.934660
Si Si4 0.652616 0.137345 0.433893
Si Si5 0.692121 0.251023 0.567648
Si Si6 0.845517 0.865656 0.434140
O O1 0.073246 0.500000 0.500000
O O2 0.060909 0.557183 0.250000
O O3 0.100142 0.606697 0.482606
O O4 0.000000 0.572309 0.480780
O O5 0.740411 0.440880 0.750000
O O6 0.799675 0.404046 0.964477
O O7 0.750957 0.500000 0.000000
O O8 0.700179 0.405470 0.007872
O O9 0.059802 0.056795 0.750000
O O10 0.100396 0.106262 0.980697
O O11 0.000000 0.072174 0.982898
O O12 0.073499 0.000000 0.000000
O O13 0.650876 0.146573 0.250000
O O14 0.663625 0.195212 0.515315
O O15 0.695634 0.253918 0.750000
O O16 0.750000 0.250000 0.500000
O O17 0.663772 0.305357 0.504174
O O18 0.843622 0.862076 0.250000
#
# Coordination Sequence:
#
# PCOD9474062 Si02
#       6
#    16  16  16  16  16  16
#     4   9  18  34  57  84 114 149 188 229 276 328
#     4  11  22  34  52  79 113 146 181 228 279 335
#     4   9  19  36  58  84 113 147 185 226 275 328
#     4  10  21  37  56  80 111 148 188 230 276 329
#     4  12  24  39  59  81 109 147 188 230 280 335
#     4  11  22  37  58  82 111 146 187 231 277 332
#
# _framework density 17.590301
#
# number of rings (size 3 to 8) (size 9 to 14) (size 15 to 20)
#    0.000    1.667    1.667    3.500    0.000    4.000 
#    0.000    0.833    0.000    5.000    0.000    0.000 
#    0.000    0.000    0.000    0.000    0.000    0.000 
#
# Total GULP energy -268160.748484 kJ/mol
# GULP energy per Si atom -5586.682260 kJ/mol
# Density = 1.755027 g / cm^3
# Si number density = 17.590301 Si / 1000 Ang^3
#
#
#
# Elastic Constant Matrix: (Units=GPa)
#
#
# Indices 1 2 3 4 5 6 
#
# 1 124.5101 102.4674 51.9475 0.0000 0.0000 0.0000
# 2 102.4674 188.2240 67.9611 0.0000 0.0000 0.0000
# 3 51.9475 67.9611 59.5995 0.0000 0.0000 0.0000
# 4 0.0000 0.0000 0.0000 30.5821 0.0000 0.0000
# 5 0.0000 0.0000 0.0000 0.0000 21.6242 0.0000
# 6 0.0000 0.0000 0.0000 0.0000 0.0000 22.1174
#
#
#
# Elastic Compliance Matrix: (Units=1/GPa)
#
#
# Indices 1 2 3 4 5 6 
#
# 1 0.016038 -0.006262 -0.006839 0.000000 0.000000 0.000000
# 2 -0.006262 0.011476 -0.007628 0.000000 0.000000 0.000000
# 3 -0.006839 -0.007628 0.031438 0.000000 0.000000 0.000000
# 4 0.000000 0.000000 0.000000 0.032699 0.000000 0.000000
# 5 0.000000 0.000000 0.000000 0.000000 0.046244 0.000000
# 6 0.000000 0.000000 0.000000 0.000000 0.000000 0.045213
#
#
# Mechanical properties :
#
#
# Convention : Reuss Voigt Hill
#
# Bulk Modulus (GPa) = 57.16088 90.78730 73.97409
# Shear Modulus (GPa) = 21.70179 24.86193 23.28186
#
# Velocity S-wave (km/s) = 3.51627 3.76358 3.64203
# Velocity P-wave (km/s) = 7.00370 8.40299 7.73505
#
# Compressibility (1/GPa) = 0.01749448
#
# Stress axis : x y z
#
# Youngs Moduli (GPa) = 62.35310 87.13948 31.80909
#
# Poissons Ratio (x) = 0.54563 0.21753
# Poissons Ratio (y) = 0.39043 0.24265
# Poissons Ratio (z) = 0.42640 0.66472
#
# Static dielectric constant tensor:
#      x y z
#    x 1.599430 0.000000 0.000000 
#    y 0.000000 1.561700 0.000000 
#    z 0.000000 0.000000 1.591520 
# 
# From -- ./inp_files/12396.got.cif
#   From: 2010.05.17/outbox.cif.g08.bks.cpg/sg63_7_cif.got.tgz:12396.got - 2010.06.03 15:47:04.
