data_PCOD9474056
_publ_section_title
;
Structure prediction by ZEFSAII (Michael W. Deem and Ramdas Pophale) SiO2 
 PCOD9474056
Probable space group: C M C M
;
_chemical_formula_sum "Si O2"
_cell_formula_units_Z 96
_cell_length_a 16.209459
_cell_length_b 12.356613
_cell_length_c 25.453921
_cell_angle_alpha 90.000000
_cell_angle_beta 90.000000
_cell_angle_gamma 90.000000
_cell_volume 5098.267953
_symmetry_space_group_name_H-M "C M C M"
_symmetry_group_IT_number 63
_symmetry_cell_setting 'orthorhombic'
loop_
_space_group_symop_operation_xyz
x,y,z
-x,-y,1/2+z
x,-y,-z
-x,y,1/2-z
-x,-y,-z
x,y,1/2-z
-x,y,z
x,-y,1/2+z
1/2+x,1/2+y,z
1/2-x,1/2-y,1/2+z
1/2+x,1/2-y,-z
1/2-x,1/2+y,1/2-z
1/2-x,1/2-y,-z
1/2+x,1/2+y,1/2-z
1/2-x,1/2+y,z
1/2+x,1/2-y,1/2+z
loop_
_atom_site_type_symbol
_atom_site_label
_atom_site_fract_x
_atom_site_fract_y
_atom_site_fract_z
Si Si1 0.097122 0.834858 0.096989
Si Si2 0.901466 0.696276 0.307117
Si Si3 0.906946 0.726709 0.686948
Si Si4 0.806672 0.518215 0.688843
Si Si5 0.904289 0.873520 0.983995
Si Si6 0.154360 0.071290 0.124248
O O1 0.133383 0.761457 0.143338
O O2 0.128800 0.818927 0.037516
O O3 0.000000 0.810704 0.092659
O O4 0.105377 0.959509 0.114631
O O5 0.869058 0.734735 0.250000
O O6 0.879599 0.570446 0.311088
O O7 0.000000 0.710693 0.306704
O O8 0.904571 0.731897 0.750000
O O9 0.841982 0.633891 0.671650
O O10 0.885821 0.843148 0.663566
O O11 0.000000 0.695962 0.671035
O O12 0.777210 0.524944 0.750000
O O13 0.738862 0.469584 0.649970
O O14 0.000000 0.840352 0.972272
O O15 0.848175 0.869189 0.932381
O O16 0.908714 0.000000 0.000000
#
# Coordination Sequence:
#
# PCOD9474056 Si02
#       6
#    16  16  16  16  16  16
#     4   9  18  33  57  84 108 136 175 224 275 323
#     4   9  18  34  56  78 103 140 183 221 262 325
#     4  10  21  37  56  78 108 149 189 223 269 335
#     4  10  22  36  52  75 110 148 180 220 274 327
#     4   8  15  31  54  78 106 141 176 215 269 330
#     4  11  20  32  55  82 108 138 179 224 272 321
#
# _framework density 18.829923999999998
#
# number of rings (size 3 to 8) (size 9 to 14) (size 15 to 20)
#    0.000    2.500    0.000    3.500    2.333    3.333 
#    0.000    2.500    3.667    0.000    0.000    4.667 
#    0.000    0.000    0.000    0.000    0.000    0.000 
#
# Total GULP energy -267332.497993 kJ/mol
# GULP energy per Si atom -5569.427042 kJ/mol
# Density = 1.878707 g / cm^3
# Si number density = 18.829924 Si / 1000 Ang^3
#
#
#
# Elastic Constant Matrix: (Units=GPa)
#
#
# Indices 1 2 3 4 5 6 
#
# 1 50.2620 10.7102 41.5432 0.0000 0.0000 0.0000
# 2 10.7102 43.7471 16.1254 0.0000 0.0000 0.0000
# 3 41.5432 16.1254 54.7891 0.0000 0.0000 0.0000
# 4 0.0000 0.0000 0.0000 1.3126 0.0000 0.0000
# 5 0.0000 0.0000 0.0000 0.0000 20.6471 0.0000
# 6 0.0000 0.0000 0.0000 0.0000 0.0000 19.6521
#
#
#
# Elastic Compliance Matrix: (Units=1/GPa)
#
#
# Indices 1 2 3 4 5 6 
#
# 1 0.053466 0.002079 -0.041152 0.000000 0.000000 0.000000
# 2 0.002079 0.025721 -0.009147 0.000000 0.000000 0.000000
# 3 -0.041152 -0.009147 0.052147 0.000000 0.000000 0.000000
# 4 0.000000 0.000000 0.000000 0.761869 0.000000 0.000000
# 5 0.000000 0.000000 0.000000 0.000000 0.048433 0.000000
# 6 0.000000 0.000000 0.000000 0.000000 0.000000 0.050885
#
#
# Mechanical properties :
#
#
# Convention : Reuss Voigt Hill
#
# Bulk Modulus (GPa) = 28.65731 31.72844 30.19287
# Shear Modulus (GPa) = 4.54300 13.68364 9.11332
#
# Velocity S-wave (km/s) = 1.55496 2.69866 2.20234
# Velocity P-wave (km/s) = 4.29836 5.15722 4.74725
#
# Compressibility (1/GPa) = 0.03489511
#
# Stress axis : x y z
#
# Youngs Moduli (GPa) = 18.70333 38.87851 19.17655
#
# Poissons Ratio (x) = -0.08084 0.78916
# Poissons Ratio (y) = -0.03889 0.17540
# Poissons Ratio (z) = 0.76968 0.35561
#
# Static dielectric constant tensor:
#      x y z
#    x 1.667000 0.000000 0.000000 
#    y 0.000000 1.623890 0.000000 
#    z 0.000000 0.000000 1.713930 
# 
# From -- ./inp_files/63724.got.cif
#   From: 2010.05.17/outbox.cif.g08.bks.cpg/sg63_32_cif.got.tgz:63724.got - 2010.06.03 15:47:04.
