data_PCOD9474663
_publ_section_title
;
Structure prediction by ZEFSAII (Michael W. Deem and Ramdas Pophale) SiO2 
 PCOD9474663
Probable space group: C M C M
;
_chemical_formula_sum "Si O2"
_cell_formula_units_Z 60
_cell_length_a 27.463122
_cell_length_b 7.999131
_cell_length_c 14.171750
_cell_angle_alpha 90.000000
_cell_angle_beta 90.000000
_cell_angle_gamma 90.000000
_cell_volume 3113.265778
_symmetry_space_group_name_H-M "C M C M"
_symmetry_group_IT_number 63
_symmetry_cell_setting 'orthorhombic'
loop_
_space_group_symop_operation_xyz
x,y,z
-x,-y,1/2+z
x,-y,-z
-x,y,1/2-z
-x,-y,-z
x,y,1/2-z
-x,y,z
x,-y,1/2+z
1/2+x,1/2+y,z
1/2-x,1/2-y,1/2+z
1/2+x,1/2-y,-z
1/2-x,1/2+y,1/2-z
1/2-x,1/2-y,-z
1/2+x,1/2+y,1/2-z
1/2-x,1/2+y,z
1/2+x,1/2-y,1/2+z
loop_
_atom_site_type_symbol
_atom_site_label
_atom_site_fract_x
_atom_site_fract_y
_atom_site_fract_z
Si Si1 0.500000 0.334476 0.564735
Si Si2 0.094555 0.394392 0.412876
Si Si3 0.445430 0.117930 0.250000
Si Si4 0.500000 0.550366 0.750000
Si Si5 0.744454 0.500000 0.000000
Si Si6 0.804841 0.254900 0.362470
O O1 0.500000 0.500000 0.500000
O O2 0.547809 0.216953 0.556954
O O3 0.500000 0.424879 0.664441
O O4 0.114141 0.500000 0.500000
O O5 0.079506 0.538267 0.339763
O O6 0.137359 0.284056 0.369245
O O7 0.500000 0.046154 0.250000
O O8 0.454720 0.317337 0.250000
O O9 0.777969 0.395144 0.073061
O O10 0.710588 0.595954 0.075365
O O11 0.791190 0.252494 0.250000
#
# Coordination Sequence:
#
# PCOD9474663 Si02
#       6
#     8  16   8   4   8  16
#     4  12  24  38  60  90 134 166 212 267 312 367
#     4  12  23  40  64  95 127 177 214 261 326 402
#     4  10  21  42  61  86 128 173 217 259 318 389
#     4  10  22  40  58  90 122 178 208 272 306 364
#     4  10  24  46  66  98 132 160 222 278 328 398
#     4  11  23  43  70  97 128 172 215 270 339 387
#
# _framework density 19.272366999999999
#
# number of rings (size 3 to 8) (size 9 to 14) (size 15 to 20)
#    0.400    0.533    4.000    3.600    1.867    0.000 
#    0.000    0.000    0.000    0.000    0.000    0.000 
#    0.000    0.000    0.000    0.000    0.000    0.000 
#
# Total GULP energy -167033.340177 kJ/mol
# GULP energy per Si atom -5567.778006 kJ/mol
# Density = 1.922850 g / cm^3
# Si number density = 19.272367 Si / 1000 Ang^3
#
#
#
# Elastic Constant Matrix: (Units=GPa)
#
#
# Indices 1 2 3 4 5 6 
#
# 1 83.6535 23.3036 22.0353 0.0000 0.0000 0.0000
# 2 23.3036 73.2351 26.5526 0.0000 0.0000 0.0000
# 3 22.0353 26.5526 164.8425 0.0000 0.0000 0.0000
# 4 0.0000 0.0000 0.0000 32.8169 0.0000 0.0000
# 5 0.0000 0.0000 0.0000 0.0000 11.3651 0.0000
# 6 0.0000 0.0000 0.0000 0.0000 0.0000 14.3311
#
#
#
# Elastic Compliance Matrix: (Units=1/GPa)
#
#
# Indices 1 2 3 4 5 6 
#
# 1 0.013325 -0.003817 -0.001166 0.000000 0.000000 0.000000
# 2 -0.003817 0.015595 -0.002002 0.000000 0.000000 0.000000
# 3 -0.001166 -0.002002 0.006545 0.000000 0.000000 0.000000
# 4 0.000000 0.000000 0.000000 0.030472 0.000000 0.000000
# 5 0.000000 0.000000 0.000000 0.000000 0.087989 0.000000
# 6 0.000000 0.000000 0.000000 0.000000 0.000000 0.069778
#
#
# Mechanical properties :
#
#
# Convention : Reuss Voigt Hill
#
# Bulk Modulus (GPa) = 46.52444 51.72379 49.12411
# Shear Modulus (GPa) = 20.42162 28.35859 24.39010
#
# Velocity S-wave (km/s) = 3.25873 3.84013 3.56131
# Velocity P-wave (km/s) = 6.19290 6.82339 6.51578
#
# Compressibility (1/GPa) = 0.02149408
#
# Stress axis : x y z
#
# Youngs Moduli (GPa) = 75.04896 64.12292 152.79421
#
# Poissons Ratio (x) = 0.24476 0.17821
# Poissons Ratio (y) = 0.28647 0.30586
# Poissons Ratio (z) = 0.08753 0.12836
#
# Static dielectric constant tensor:
#      x y z
#    x 1.654320 0.000000 0.000000 
#    y 0.000000 1.691270 0.000000 
#    z 0.000000 0.000000 2.136660 
# 
# From -- ./inp_files/37441.got.cif
#   From: 2010.05.17/outbox.cif.g08.bks.cpg/sg63_19_cif.got.tgz:37441.got - 2010.06.03 15:47:04.
