data_PCOD9474477
_publ_section_title
;
Structure prediction by ZEFSAII (Michael W. Deem and Ramdas Pophale) SiO2 
 PCOD9474477
Probable space group: C M C M
;
_chemical_formula_sum "Si O2"
_cell_formula_units_Z 80
_cell_length_a 28.263005
_cell_length_b 9.295705
_cell_length_c 16.541720
_cell_angle_alpha 90.000000
_cell_angle_beta 90.000000
_cell_angle_gamma 90.000000
_cell_volume 4345.916057
_symmetry_space_group_name_H-M "C M C M"
_symmetry_group_IT_number 63
_symmetry_cell_setting 'orthorhombic'
loop_
_space_group_symop_operation_xyz
x,y,z
-x,-y,1/2+z
x,-y,-z
-x,y,1/2-z
-x,-y,-z
x,y,1/2-z
-x,y,z
x,-y,1/2+z
1/2+x,1/2+y,z
1/2-x,1/2-y,1/2+z
1/2+x,1/2-y,-z
1/2-x,1/2+y,1/2-z
1/2-x,1/2-y,-z
1/2+x,1/2+y,1/2-z
1/2-x,1/2+y,z
1/2+x,1/2-y,1/2+z
loop_
_atom_site_type_symbol
_atom_site_label
_atom_site_fract_x
_atom_site_fract_y
_atom_site_fract_z
Si Si1 0.608139 0.336496 0.498878
Si Si2 0.620934 0.855856 0.843575
Si Si3 0.053816 0.587841 0.584668
Si Si4 0.786744 0.806507 0.933569
Si Si5 0.280019 0.012654 0.844773
O O1 0.590966 0.500000 0.500000
O O2 0.607573 0.264371 0.409668
O O3 0.578385 0.236725 0.559929
O O4 0.662299 0.333819 0.528796
O O5 0.619813 0.808427 0.750000
O O6 0.585626 0.990590 0.856644
O O7 0.673541 0.916066 0.862728
O O8 0.052819 0.500000 0.500000
O O9 0.000000 0.605287 0.613113
O O10 0.790098 0.675697 0.870092
O O11 0.763857 0.946782 0.893342
O O12 0.750000 0.750000 0.000000
O O13 0.270589 0.004012 0.750000
#
# Coordination Sequence:
#
# PCOD9474477 Si02
#       5
#    16  16  16  16  16
#     4  11  22  38  58  90 124 160 200 243 302 364
#     4  10  21  39  61  85 118 155 201 254 300 352
#     4   9  19  38  65  88 113 151 199 247 293 354
#     4  12  22  36  57  82 114 161 200 241 286 357
#     4  11  23  38  55  82 117 154 198 248 300 350
#
# _framework density 18.408087999999999
#
# number of rings (size 3 to 8) (size 9 to 14) (size 15 to 20)
#    0.000    1.400    4.000    2.400    0.000    0.800 
#    0.000    2.000    0.000    0.000    0.000    0.000 
#    0.000    0.000    0.000    0.000    0.000    0.000 
#
# Total GULP energy -223440.871310 kJ/mol
# GULP energy per Si atom -5586.021783 kJ/mol
# Density = 1.836619 g / cm^3
# Si number density = 18.408088 Si / 1000 Ang^3
#
#
#
# Elastic Constant Matrix: (Units=GPa)
#
#
# Indices 1 2 3 4 5 6 
#
# 1 88.9980 28.5931 27.3087 0.0000 0.0000 0.0000
# 2 28.5931 120.6373 27.2298 0.0000 0.0000 0.0000
# 3 27.3087 27.2298 56.1026 0.0000 0.0000 0.0000
# 4 0.0000 0.0000 0.0000 25.3303 0.0000 0.0000
# 5 0.0000 0.0000 0.0000 0.0000 15.6399 0.0000
# 6 0.0000 0.0000 0.0000 0.0000 0.0000 22.7343
#
#
#
# Elastic Compliance Matrix: (Units=1/GPa)
#
#
# Indices 1 2 3 4 5 6 
#
# 1 0.013603 -0.001942 -0.005679 0.000000 0.000000 0.000000
# 2 -0.001942 0.009587 -0.003707 0.000000 0.000000 0.000000
# 3 -0.005679 -0.003707 0.022388 0.000000 0.000000 0.000000
# 4 0.000000 0.000000 0.000000 0.039478 0.000000 0.000000
# 5 0.000000 0.000000 0.000000 0.000000 0.063939 0.000000
# 6 0.000000 0.000000 0.000000 0.000000 0.000000 0.043986
#
#
# Mechanical properties :
#
#
# Convention : Reuss Voigt Hill
#
# Bulk Modulus (GPa) = 43.62891 48.00012 45.81451
# Shear Modulus (GPa) = 22.39362 24.91466 23.65414
#
# Velocity S-wave (km/s) = 3.49163 3.68293 3.58856
# Velocity P-wave (km/s) = 6.32517 6.64962 6.48942
#
# Compressibility (1/GPa) = 0.02292058
#
# Stress axis : x y z
#
# Youngs Moduli (GPa) = 73.51498 104.31328 44.66671
#
# Poissons Ratio (x) = 0.20261 0.25364
# Poissons Ratio (y) = 0.14279 0.16560
# Poissons Ratio (z) = 0.41746 0.38674
#
# Static dielectric constant tensor:
#      x y z
#    x 1.622550 0.000000 0.000000 
#    y 0.000000 1.638620 0.000000 
#    z 0.000000 0.000000 1.627710 
# 
# From -- ./inp_files/48782.got.cif
#   From: 2010.05.17/outbox.cif.g08.bks.cpg/sg63_25_cif.got.tgz:48782.got - 2010.06.03 15:47:04.
