data_PCOD9474190
_publ_section_title
;
Structure prediction by ZEFSAII (Michael W. Deem and Ramdas Pophale) SiO2 
 PCOD9474190
Probable space group: C M C M
;
_chemical_formula_sum "Si O2"
_cell_formula_units_Z 68
_cell_length_a 12.715168
_cell_length_b 19.631796
_cell_length_c 13.655653
_cell_angle_alpha 90.000000
_cell_angle_beta 90.000000
_cell_angle_gamma 90.000000
_cell_volume 3408.745736
_symmetry_space_group_name_H-M "C M C M"
_symmetry_group_IT_number 63
_symmetry_cell_setting 'orthorhombic'
loop_
_space_group_symop_operation_xyz
x,y,z
-x,-y,1/2+z
x,-y,-z
-x,y,1/2-z
-x,-y,-z
x,y,1/2-z
-x,y,z
x,-y,1/2+z
1/2+x,1/2+y,z
1/2-x,1/2-y,1/2+z
1/2+x,1/2-y,-z
1/2-x,1/2+y,1/2-z
1/2-x,1/2-y,-z
1/2+x,1/2+y,1/2-z
1/2-x,1/2+y,z
1/2+x,1/2-y,1/2+z
loop_
_atom_site_type_symbol
_atom_site_label
_atom_site_fract_x
_atom_site_fract_y
_atom_site_fract_z
Si Si1 0.000000 0.000000 0.000000
Si Si2 0.118242 0.532582 0.633814
Si Si3 0.220442 0.709373 0.360562
Si Si4 0.817197 0.937745 0.636217
Si Si5 0.118889 0.316330 0.060456
O O1 0.091944 0.037668 0.065709
O O2 0.122065 0.548566 0.750000
O O3 0.209027 0.478395 0.614854
O O4 0.134381 0.603342 0.577509
O O5 0.000000 0.506351 0.613408
O O6 0.177930 0.709891 0.250000
O O7 0.292389 0.642175 0.372177
O O8 0.135955 0.703778 0.447123
O O9 0.293983 0.774421 0.380095
O O10 0.844378 0.952241 0.750000
O O11 0.000000 0.299917 0.091936
#
# Coordination Sequence:
#
# PCOD9474190 Si02
#       5
#     4  16  16  16  16
#     4  12  22  36  54  78 120 164 198 240 276 336
#     4   9  18  36  62  90 117 147 189 244 301 355
#     4  10  22  39  58  84 117 153 195 245 294 352
#     4  10  22  38  59  88 119 157 201 242 294 355
#     4  10  21  37  60  87 115 151 194 240 299 355
#
# _framework density 19.948685999999999
#
# number of rings (size 3 to 8) (size 9 to 14) (size 15 to 20)
#    0.000    2.118    0.000    2.471    1.647    2.824 
#    0.000    5.294    0.000    1.412    0.000    0.000 
#    0.000    0.000    0.000    0.000    0.000    0.000 
#
# Total GULP energy -189440.932259 kJ/mol
# GULP energy per Si atom -5571.792125 kJ/mol
# Density = 1.990328 g / cm^3
# Si number density = 19.948686 Si / 1000 Ang^3
#
#
#
# Elastic Constant Matrix: (Units=GPa)
#
#
# Indices 1 2 3 4 5 6 
#
# 1 73.7964 25.5447 -5.2136 0.0000 0.0000 0.0000
# 2 25.5447 44.5234 2.3098 0.0000 0.0000 0.0000
# 3 -5.2136 2.3098 57.8344 0.0000 0.0000 0.0000
# 4 0.0000 0.0000 0.0000 26.3893 0.0000 0.0000
# 5 0.0000 0.0000 0.0000 0.0000 21.8987 0.0000
# 6 0.0000 0.0000 0.0000 0.0000 0.0000 -54.9092
#
#
#
# Elastic Compliance Matrix: (Units=1/GPa)
#
#
# Indices 1 2 3 4 5 6 
#
# 1 0.017123 -0.009925 0.001940 0.000000 0.000000 0.000000
# 2 -0.009925 0.028259 -0.002023 0.000000 0.000000 0.000000
# 3 0.001940 -0.002023 0.017546 0.000000 0.000000 0.000000
# 4 0.000000 0.000000 0.000000 0.037894 0.000000 0.000000
# 5 0.000000 0.000000 0.000000 0.000000 0.045665 0.000000
# 6 0.000000 0.000000 0.000000 0.000000 0.000000 -0.018212
#
#
# Mechanical properties :
#
#
# Convention : Reuss Voigt Hill
#
# Bulk Modulus (GPa) = 23.30318 24.60402 23.95360
# Shear Modulus (GPa) = 30.75086 8.90998 19.83042
#
# Velocity S-wave (km/s) = 3.93045 2.11569 3.15631
# Velocity P-wave (km/s) = 5.68374 4.28119 5.03157
#
# Compressibility (1/GPa) = 0.04291260
#
# Stress axis : x y z
#
# Youngs Moduli (GPa) = 58.39965 35.38645 56.99166
#
# Poissons Ratio (x) = 0.35121 -0.11056
# Poissons Ratio (y) = 0.57961 0.11531
# Poissons Ratio (z) = -0.11330 0.07160
#
# Static dielectric constant tensor:
#      x y z
#    x 1.650580 0.000000 0.000000 
#    y 0.000000 1.667790 0.000000 
#    z 0.000000 0.000000 1.744830 
# 
# From -- ./inp_files/29439.got.cif
#   From: 2010.05.17/outbox.cif.g08.bks.cpg/sg63_15_cif.got.tgz:29439.got - 2010.06.03 15:47:04.
