data_PCOD9474465
_publ_section_title
;
Structure prediction by ZEFSAII (Michael W. Deem and Ramdas Pophale) SiO2 
 PCOD9474465
Probable space group: C M C M
;
_chemical_formula_sum "Si O2"
_cell_formula_units_Z 120
_cell_length_a 21.321187
_cell_length_b 16.929937
_cell_length_c 17.850130
_cell_angle_alpha 90.000000
_cell_angle_beta 90.000000
_cell_angle_gamma 90.000000
_cell_volume 6443.296321
_symmetry_space_group_name_H-M "C M C M"
_symmetry_group_IT_number 63
_symmetry_cell_setting 'orthorhombic'
loop_
_space_group_symop_operation_xyz
x,y,z
-x,-y,1/2+z
x,-y,-z
-x,y,1/2-z
-x,-y,-z
x,y,1/2-z
-x,y,z
x,-y,1/2+z
1/2+x,1/2+y,z
1/2-x,1/2-y,1/2+z
1/2+x,1/2-y,-z
1/2-x,1/2+y,1/2-z
1/2-x,1/2-y,-z
1/2+x,1/2+y,1/2-z
1/2-x,1/2+y,z
1/2+x,1/2-y,1/2+z
loop_
_atom_site_type_symbol
_atom_site_label
_atom_site_fract_x
_atom_site_fract_y
_atom_site_fract_z
Si Si1 0.371235 0.724422 0.088947
Si Si2 0.778014 0.463168 0.164948
Si Si3 0.244418 0.282599 0.168878
Si Si4 0.569355 0.118196 0.337874
Si Si5 0.908698 0.462424 0.083301
Si Si6 0.293874 0.569701 0.441665
Si Si7 0.321324 0.181520 0.446036
Si Si8 0.500000 0.190738 0.595649
O O1 0.327663 0.757857 0.155783
O O2 0.347710 0.634618 0.072921
O O3 0.443751 0.742454 0.101555
O O4 0.349715 0.774852 0.016663
O O5 0.798780 0.482397 0.250000
O O6 0.748796 0.376275 0.166503
O O7 0.836678 0.456576 0.108828
O O8 0.729566 0.527362 0.134267
O O9 0.265554 0.252947 0.250000
O O10 0.283379 0.243464 0.103586
O O11 0.582482 0.131046 0.250000
O O12 0.500000 0.152692 0.355251
O O13 0.623199 0.148768 0.393376
O O14 0.565719 0.025727 0.357179
O O15 0.945646 0.380453 0.088077
O O16 0.914515 0.500000 0.000000
O O17 0.309648 0.500000 0.500000
O O18 0.230838 0.616532 0.467770
#
# Coordination Sequence:
#
# PCOD9474465 Si02
#       8
#    16  16  16  16  16  16  16   8
#     4  11  24  40  60  89 123 163 213 257 311 376
#     4  11  22  37  61  90 122 157 202 256 312 372
#     4  10  21  39  60  89 123 162 206 259 319 374
#     4  11  24  38  54  87 127 165 204 249 307 377
#     4  12  23  36  58  87 123 163 205 239 298 374
#     4  11  22  38  62  88 119 156 208 266 318 362
#     4  11  22  36  62  87 122 160 206 259 315 380
#     4  12  25  40  60  86 127 168 211 244 305 374
#
# _framework density 18.624008
#
# number of rings (size 3 to 8) (size 9 to 14) (size 15 to 20)
#    0.000    0.933    3.333    5.400    2.800    2.133 
#    0.000    2.000    0.000    0.000    0.000    0.000 
#    0.000    0.000    0.000    0.000    0.000    0.000 
#
# Total GULP energy -334074.525689 kJ/mol
# GULP energy per Si atom -5567.908761 kJ/mol
# Density = 1.858162 g / cm^3
# Si number density = 18.624008 Si / 1000 Ang^3
#
#
#
# Elastic Constant Matrix: (Units=GPa)
#
#
# Indices 1 2 3 4 5 6 
#
# 1 108.0426 49.4956 12.0568 0.0000 0.0000 0.0000
# 2 49.4956 104.3448 16.6566 0.0000 0.0000 0.0000
# 3 12.0568 16.6566 54.2492 0.0000 0.0000 0.0000
# 4 0.0000 0.0000 0.0000 15.6589 0.0000 0.0000
# 5 0.0000 0.0000 0.0000 0.0000 1.5215 0.0000
# 6 0.0000 0.0000 0.0000 0.0000 0.0000 27.3540
#
#
#
# Elastic Compliance Matrix: (Units=1/GPa)
#
#
# Indices 1 2 3 4 5 6 
#
# 1 0.011872 -0.005479 -0.000956 0.000000 0.000000 0.000000
# 2 -0.005479 0.012606 -0.002653 0.000000 0.000000 0.000000
# 3 -0.000956 -0.002653 0.019461 0.000000 0.000000 0.000000
# 4 0.000000 0.000000 0.000000 0.063861 0.000000 0.000000
# 5 0.000000 0.000000 0.000000 0.000000 0.657240 0.000000
# 6 0.000000 0.000000 0.000000 0.000000 0.000000 0.036558
#
#
# Mechanical properties :
#
#
# Convention : Reuss Voigt Hill
#
# Bulk Modulus (GPa) = 38.81599 47.00605 42.91102
# Shear Modulus (GPa) = 6.03601 21.46873 13.75237
#
# Velocity S-wave (km/s) = 1.80223 3.39889 2.72034
# Velocity P-wave (km/s) = 5.02174 6.37947 5.74088
#
# Compressibility (1/GPa) = 0.02576258
#
# Stress axis : x y z
#
# Youngs Moduli (GPa) = 84.22985 79.32739 51.38605
#
# Poissons Ratio (x) = 0.43463 0.04914
# Poissons Ratio (y) = 0.46149 0.13632
# Poissons Ratio (z) = 0.08055 0.21044
#
# Static dielectric constant tensor:
#      x y z
#    x 1.664270 0.000000 0.000000 
#    y 0.000000 1.668230 0.000000 
#    z 0.000000 0.000000 1.675730 
# 
# From -- ./inp_files/47388.got.cif
#   From: 2010.05.17/outbox.cif.g08.bks.cpg/sg63_24_cif.got.tgz:47388.got - 2010.06.03 15:47:04.
