data_PCOD9474182
_publ_section_title
;
Structure prediction by ZEFSAII (Michael W. Deem and Ramdas Pophale) SiO2 
 PCOD9474182
Probable space group: C M C M
;
_chemical_formula_sum "Si O2"
_cell_formula_units_Z 96
_cell_length_a 19.715348
_cell_length_b 14.972593
_cell_length_c 15.544158
_cell_angle_alpha 90.000000
_cell_angle_beta 90.000000
_cell_angle_gamma 90.000000
_cell_volume 4588.478157
_symmetry_space_group_name_H-M "C M C M"
_symmetry_group_IT_number 63
_symmetry_cell_setting 'orthorhombic'
loop_
_space_group_symop_operation_xyz
x,y,z
-x,-y,1/2+z
x,-y,-z
-x,y,1/2-z
-x,-y,-z
x,y,1/2-z
-x,y,z
x,-y,1/2+z
1/2+x,1/2+y,z
1/2-x,1/2-y,1/2+z
1/2+x,1/2-y,-z
1/2-x,1/2+y,1/2-z
1/2-x,1/2-y,-z
1/2+x,1/2+y,1/2-z
1/2-x,1/2+y,z
1/2+x,1/2-y,1/2+z
loop_
_atom_site_type_symbol
_atom_site_label
_atom_site_fract_x
_atom_site_fract_y
_atom_site_fract_z
Si Si1 0.331358 0.290970 0.653420
Si Si2 0.894320 0.815686 0.154413
Si Si3 0.424500 0.894371 0.650930
Si Si4 0.222959 0.422624 0.901284
Si Si5 0.246833 0.378357 0.100544
Si Si6 0.923635 0.903090 0.978120
O O1 0.359216 0.290894 0.750000
O O2 0.260875 0.347021 0.653039
O O3 0.313090 0.190128 0.624836
O O4 0.380170 0.342707 0.586735
O O5 0.910357 0.851596 0.250000
O O6 0.915143 0.712489 0.153981
O O7 0.814878 0.832145 0.135070
O O8 0.927842 0.858802 0.071514
O O9 0.419949 0.926366 0.750000
O O10 0.500000 0.915916 0.617912
O O11 0.358431 0.926104 0.600874
O O12 0.244795 0.519831 0.867482
O O13 0.244479 0.394810 0.997959
O O14 0.000000 0.916422 0.943675
O O15 0.892057 0.000000 0.000000
#
# Coordination Sequence:
#
# PCOD9474182 Si02
#       6
#    16  16  16  16  16  16
#     4  12  24  41  66  95 132 175 220 276 337 401
#     4  11  21  38  63  92 123 161 214 275 334 387
#     4  10  21  37  59  89 123 160 208 267 326 385
#     4  11  22  40  65  92 130 174 217 272 336 397
#     4  11  23  39  63  97 129 164 219 279 327 398
#     4  11  25  43  62  90 128 170 218 270 327 398
#
# _framework density 20.921968
#
# number of rings (size 3 to 8) (size 9 to 14) (size 15 to 20)
#    0.000    1.000    3.333    4.000    0.000    6.000 
#    0.000    4.167    0.000    0.000    0.000    0.000 
#    0.000    0.000    0.000    0.000    0.000    0.000 
#
# Total GULP energy -267894.392292 kJ/mol
# GULP energy per Si atom -5581.133173 kJ/mol
# Density = 2.087435 g / cm^3
# Si number density = 20.921968 Si / 1000 Ang^3
#
#
#
# Elastic Constant Matrix: (Units=GPa)
#
#
# Indices 1 2 3 4 5 6 
#
# 1 109.7118 9.1617 25.7007 0.0000 0.0000 0.0000
# 2 9.1617 88.1187 29.0040 0.0000 0.0000 0.0000
# 3 25.7007 29.0040 107.8868 0.0000 0.0000 0.0000
# 4 0.0000 0.0000 0.0000 722.9617 0.0000 0.0000
# 5 0.0000 0.0000 0.0000 0.0000 37.4109 0.0000
# 6 0.0000 0.0000 0.0000 0.0000 0.0000 28.9463
#
#
#
# Elastic Compliance Matrix: (Units=1/GPa)
#
#
# Indices 1 2 3 4 5 6 
#
# 1 0.009659 -0.000271 -0.002228 0.000000 0.000000 0.000000
# 2 -0.000271 0.012458 -0.003285 0.000000 0.000000 0.000000
# 3 -0.002228 -0.003285 0.010683 0.000000 0.000000 0.000000
# 4 0.000000 0.000000 0.000000 0.001383 0.000000 0.000000
# 5 0.000000 0.000000 0.000000 0.000000 0.026730 0.000000
# 6 0.000000 0.000000 0.000000 0.000000 0.000000 0.034547
#
#
# Mechanical properties :
#
#
# Convention : Reuss Voigt Hill
#
# Bulk Modulus (GPa) = 47.09764 48.16111 47.62938
# Shear Modulus (GPa) = 43.81943 173.98718 108.90331
#
# Velocity S-wave (km/s) = 4.58145 9.12911 7.22254
# Velocity P-wave (km/s) = 7.10959 11.58405 9.61084
#
# Compressibility (1/GPa) = 0.02123249
#
# Stress axis : x y z
#
# Youngs Moduli (GPa) = 103.52626 80.27236 93.60848
#
# Poissons Ratio (x) = 0.02174 0.20858
# Poissons Ratio (y) = 0.02804 0.30746
# Poissons Ratio (z) = 0.23068 0.26366
#
# Static dielectric constant tensor:
#      x y z
#    x 1.802020 0.000000 0.000000 
#    y 0.000000 1.744100 0.000000 
#    z 0.000000 0.000000 1.775360 
# 
# From -- ./inp_files/35331.got.cif
#   From: 2010.05.17/outbox.cif.g08.bks.cpg/sg63_18_cif.got.tgz:35331.got - 2010.06.03 15:47:04.
