data_PCOD9474924
_publ_section_title
;
Structure prediction by ZEFSAII (Michael W. Deem and Ramdas Pophale) SiO2 
 PCOD9474924
Probable space group: C M C M
;
_chemical_formula_sum "Si O2"
_cell_formula_units_Z 116
_cell_length_a 14.501616
_cell_length_b 23.344534
_cell_length_c 17.448207
_cell_angle_alpha 90.000000
_cell_angle_beta 90.000000
_cell_angle_gamma 90.000000
_cell_volume 5906.802022
_symmetry_space_group_name_H-M "C M C M"
_symmetry_group_IT_number 63
_symmetry_cell_setting 'orthorhombic'
loop_
_space_group_symop_operation_xyz
x,y,z
-x,-y,1/2+z
x,-y,-z
-x,y,1/2-z
-x,-y,-z
x,y,1/2-z
-x,y,z
x,-y,1/2+z
1/2+x,1/2+y,z
1/2-x,1/2-y,1/2+z
1/2+x,1/2-y,-z
1/2-x,1/2+y,1/2-z
1/2-x,1/2-y,-z
1/2+x,1/2+y,1/2-z
1/2-x,1/2+y,z
1/2+x,1/2-y,1/2+z
loop_
_atom_site_type_symbol
_atom_site_label
_atom_site_fract_x
_atom_site_fract_y
_atom_site_fract_z
Si Si1 0.393568 0.888169 0.552662
Si Si2 0.393628 0.585128 0.541513
Si Si3 0.705757 0.666400 0.663415
Si Si4 0.891805 0.384545 0.377009
Si Si5 0.000000 0.934947 0.750000
Si Si6 0.854975 0.036288 0.117617
Si Si7 0.110407 0.288527 0.661865
Si Si8 0.148254 0.513676 0.165777
O O1 0.500000 0.872081 0.545251
O O2 0.361687 0.891687 0.465834
O O3 0.353472 0.837859 0.605332
O O4 0.390476 0.947756 0.597584
O O5 0.500000 0.602846 0.530443
O O6 0.341314 0.627467 0.598745
O O7 0.347919 0.576660 0.457748
O O8 0.393185 0.523355 0.583264
O O9 0.677974 0.648010 0.750000
O O10 0.816151 0.658294 0.657626
O O11 0.668301 0.730534 0.652644
O O12 0.879705 0.447631 0.341523
O O13 0.000000 0.368089 0.370202
O O14 0.920451 0.938505 0.817805
O O15 0.757259 0.020692 0.154374
O O16 0.119775 0.308042 0.750000
O O17 0.000000 0.277085 0.650407
O O18 0.120013 0.534809 0.250000
#
# Coordination Sequence:
#
# PCOD9474924 Si02
#       8
#    16  16  16  16   4  16  16  16
#     4  10  22  40  62  85 117 158 199 250 310 356
#     4  11  21  35  54  83 122 160 195 241 302 357
#     4  11  23  37  61  91 121 157 198 253 312 361
#     4  11  24  40  57  84 122 161 201 249 298 366
#     4  12  20  38  56  80 120 172 204 248 290 364
#     4  11  22  35  53  82 121 163 203 242 292 361
#     4   9  19  39  63  92 120 146 193 252 305 362
#     4  12  23  35  57  89 120 160 202 243 299 363
#
# _framework density 19.638376000000001
#
# number of rings (size 3 to 8) (size 9 to 14) (size 15 to 20)
#    0.000    1.241    3.448    3.310    2.897    4.966 
#    0.000    0.000    0.000    0.000    1.793    0.000 
#    0.000    0.000    0.000    0.000    0.000    0.000 
#
# Total GULP energy -323256.724500 kJ/mol
# GULP energy per Si atom -5573.391802 kJ/mol
# Density = 1.959368 g / cm^3
# Si number density = 19.638376 Si / 1000 Ang^3
#
#
#
# Elastic Constant Matrix: (Units=GPa)
#
#
# Indices 1 2 3 4 5 6 
#
# 1 71.2767 8.1725 6.1565 0.0000 0.0000 0.0000
# 2 8.1725 48.6127 24.1718 0.0000 0.0000 0.0000
# 3 6.1565 24.1718 118.3167 0.0000 0.0000 0.0000
# 4 0.0000 0.0000 0.0000 32.3171 0.0000 0.0000
# 5 0.0000 0.0000 0.0000 0.0000 23.6976 0.0000
# 6 0.0000 0.0000 0.0000 0.0000 0.0000 62.5822
#
#
#
# Elastic Compliance Matrix: (Units=1/GPa)
#
#
# Indices 1 2 3 4 5 6 
#
# 1 0.014314 -0.002266 -0.000282 0.000000 0.000000 0.000000
# 2 -0.002266 0.023255 -0.004633 0.000000 0.000000 0.000000
# 3 -0.000282 -0.004633 0.009413 0.000000 0.000000 0.000000
# 4 0.000000 0.000000 0.000000 0.030943 0.000000 0.000000
# 5 0.000000 0.000000 0.000000 0.000000 0.042198 0.000000
# 6 0.000000 0.000000 0.000000 0.000000 0.000000 0.015979
#
#
# Mechanical properties :
#
#
# Convention : Reuss Voigt Hill
#
# Bulk Modulus (GPa) = 30.65585 35.02307 32.83946
# Shear Modulus (GPa) = 30.99063 37.03308 34.01185
#
# Velocity S-wave (km/s) = 3.97680 4.34723 4.16613
# Velocity P-wave (km/s) = 6.06058 6.56282 6.31669
#
# Compressibility (1/GPa) = 0.03262020
#
# Stress axis : x y z
#
# Youngs Moduli (GPa) = 69.86154 43.00061 106.23508
#
# Poissons Ratio (x) = 0.09745 0.02994
# Poissons Ratio (y) = 0.15832 0.49220
# Poissons Ratio (z) = 0.01969 0.19923
#
# Static dielectric constant tensor:
#      x y z
#    x 1.734260 0.000000 0.000000 
#    y 0.000000 1.652490 0.000000 
#    z 0.000000 0.000000 1.724510 
# 
# From -- ./inp_files/44633.got.cif
#   From: 2010.05.17/outbox.cif.g08.bks.cpg/sg63_23_cif.got.tgz:44633.got - 2010.06.03 15:47:04.
