data_PCOD9474083
_publ_section_title
;
Structure prediction by ZEFSAII (Michael W. Deem and Ramdas Pophale) SiO2 
 PCOD9474083
Probable space group: C M C M
;
_chemical_formula_sum "Si O2"
_cell_formula_units_Z 112
_cell_length_a 14.049836
_cell_length_b 27.757680
_cell_length_c 13.721592
_cell_angle_alpha 90.000000
_cell_angle_beta 90.000000
_cell_angle_gamma 90.000000
_cell_volume 5351.295351
_symmetry_space_group_name_H-M "C M C M"
_symmetry_group_IT_number 63
_symmetry_cell_setting 'orthorhombic'
loop_
_space_group_symop_operation_xyz
x,y,z
-x,-y,1/2+z
x,-y,-z
-x,y,1/2-z
-x,-y,-z
x,y,1/2-z
-x,y,z
x,-y,1/2+z
1/2+x,1/2+y,z
1/2-x,1/2-y,1/2+z
1/2+x,1/2-y,-z
1/2-x,1/2+y,1/2-z
1/2-x,1/2-y,-z
1/2+x,1/2+y,1/2-z
1/2-x,1/2+y,z
1/2+x,1/2-y,1/2+z
loop_
_atom_site_type_symbol
_atom_site_label
_atom_site_fract_x
_atom_site_fract_y
_atom_site_fract_z
Si Si1 0.730525 0.438238 0.363805
Si Si2 0.384477 0.695624 0.135788
Si Si3 0.111919 0.088800 0.448979
Si Si4 0.282904 0.042516 0.362672
Si Si5 0.113512 0.638532 0.365321
Si Si6 0.898386 0.637075 0.857291
Si Si7 0.891693 0.722829 0.490373
O O1 0.698464 0.443640 0.250000
O O2 0.651450 0.423445 0.442955
O O3 0.784998 0.487194 0.395470
O O4 0.809294 0.396953 0.365733
O O5 0.352517 0.699285 0.250000
O O6 0.500000 0.702685 0.139767
O O7 0.349055 0.733534 0.053397
O O8 0.368282 0.642763 0.090221
O O9 0.172317 0.055369 0.377067
O O10 0.000000 0.080514 0.444910
O O11 0.311989 0.040905 0.250000
O O12 0.338325 0.089227 0.405886
O O13 0.127309 0.637763 0.250000
O O14 0.150101 0.690824 0.402025
O O15 0.000000 0.636284 0.385589
O O16 0.896183 0.659318 0.750000
O O17 0.897114 0.679816 0.932154
O O18 0.000000 0.610505 0.867004
O O19 0.000000 0.737699 0.460777
#
# Coordination Sequence:
#
# PCOD9474083 Si02
#       7
#    16  16  16  16  16  16  16
#     4  10  22  38  55  80 114 147 182 227 277 332
#     4   9  18  34  57  83 108 138 183 236 284 331
#     4  11  23  39  58  78 103 139 185 238 291 336
#     4  10  21  37  57  81 110 145 187 234 278 323
#     4   9  18  33  54  82 118 157 190 219 261 325
#     4   9  17  31  54  83 113 144 177 215 263 322
#     4   9  16  29  52  81 111 143 179 221 270 323
#
# _framework density 20.929511999999999
#
# number of rings (size 3 to 8) (size 9 to 14) (size 15 to 20)
#    0.000    2.429    0.000    2.143    0.000    4.571 
#    0.000    7.857    0.000   10.286    0.000    0.000 
#    0.000    0.000    0.000    0.000    0.000    0.000 
#
# Total GULP energy -311879.132174 kJ/mol
# GULP energy per Si atom -5569.270217 kJ/mol
# Density = 2.088188 g / cm^3
# Si number density = 20.929512 Si / 1000 Ang^3
#
#
#
# Elastic Constant Matrix: (Units=GPa)
#
#
# Indices 1 2 3 4 5 6 
#
# 1 37.0938 0.3752 -18.0400 0.0000 0.0000 0.0000
# 2 0.3752 53.0897 5.1093 0.0000 0.0000 0.0000
# 3 -18.0400 5.1093 83.0865 0.0000 0.0000 0.0000
# 4 0.0000 0.0000 0.0000 32.6944 0.0000 0.0000
# 5 0.0000 0.0000 0.0000 0.0000 21.6851 0.0000
# 6 0.0000 0.0000 0.0000 0.0000 0.0000 23.6320
#
#
#
# Elastic Compliance Matrix: (Units=1/GPa)
#
#
# Indices 1 2 3 4 5 6 
#
# 1 0.030179 -0.000849 0.006605 0.000000 0.000000 0.000000
# 2 -0.000849 0.018972 -0.001351 0.000000 0.000000 0.000000
# 3 0.006605 -0.001351 0.013553 0.000000 0.000000 0.000000
# 4 0.000000 0.000000 0.000000 0.030586 0.000000 0.000000
# 5 0.000000 0.000000 0.000000 0.000000 0.046115 0.000000
# 6 0.000000 0.000000 0.000000 0.000000 0.000000 0.042316
#
#
# Mechanical properties :
#
#
# Convention : Reuss Voigt Hill
#
# Bulk Modulus (GPa) = 13.98325 16.46213 15.22269
# Shear Modulus (GPa) = 25.41309 27.99066 26.70187
#
# Velocity S-wave (km/s) = 3.48835 3.66098 3.57571
# Velocity P-wave (km/s) = 4.78753 5.07474 4.93322
#
# Compressibility (1/GPa) = 0.07151415
#
# Stress axis : x y z
#
# Youngs Moduli (GPa) = 33.13512 52.70910 73.78554
#
# Poissons Ratio (x) = 0.04475 -0.48734
# Poissons Ratio (y) = 0.02813 0.09968
# Poissons Ratio (z) = -0.21885 0.07121
#
# Static dielectric constant tensor:
#      x y z
#    x 1.778090 0.000000 0.000000 
#    y 0.000000 1.774580 0.000000 
#    z 0.000000 0.000000 1.379180 
# 
# From -- ./inp_files/32576.got.cif
#   From: 2010.05.17/outbox.cif.g08.bks.cpg/sg63_17_cif.got.tgz:32576.got - 2010.06.03 15:47:04.
