data_PCOD9474925
_publ_section_title
;
Structure prediction by ZEFSAII (Michael W. Deem and Ramdas Pophale) SiO2 
 PCOD9474925
Probable space group: C M C M
;
_chemical_formula_sum "Si O2"
_cell_formula_units_Z 112
_cell_length_a 24.162065
_cell_length_b 16.082785
_cell_length_c 14.871139
_cell_angle_alpha 90.000000
_cell_angle_beta 90.000000
_cell_angle_gamma 90.000000
_cell_volume 5778.824927
_symmetry_space_group_name_H-M "C M C M"
_symmetry_group_IT_number 63
_symmetry_cell_setting 'orthorhombic'
loop_
_space_group_symop_operation_xyz
x,y,z
-x,-y,1/2+z
x,-y,-z
-x,y,1/2-z
-x,-y,-z
x,y,1/2-z
-x,y,z
x,-y,1/2+z
1/2+x,1/2+y,z
1/2-x,1/2-y,1/2+z
1/2+x,1/2-y,-z
1/2-x,1/2+y,1/2-z
1/2-x,1/2-y,-z
1/2+x,1/2+y,1/2-z
1/2-x,1/2+y,z
1/2+x,1/2-y,1/2+z
loop_
_atom_site_type_symbol
_atom_site_label
_atom_site_fract_x
_atom_site_fract_y
_atom_site_fract_z
Si Si1 0.340397 0.097219 0.018394
Si Si2 0.062679 0.147590 0.610969
Si Si3 0.840208 0.279600 0.147699
Si Si4 0.936834 0.838806 0.893562
Si Si5 0.763477 0.117754 0.147642
Si Si6 0.364120 0.504597 0.108656
Si Si7 0.564548 0.839394 0.851119
O O1 0.286130 0.112341 0.078414
O O2 0.393587 0.126420 0.075257
O O3 0.334766 0.149949 0.926950
O O4 0.345082 0.000000 0.000000
O O5 0.064942 0.157962 0.502555
O O6 0.070040 0.239331 0.649212
O O7 0.000000 0.117649 0.632578
O O8 0.110012 0.082791 0.638773
O O9 0.830716 0.308340 0.250000
O O10 0.900811 0.238337 0.139372
O O11 0.799384 0.201192 0.129715
O O12 0.907199 0.923551 0.863559
O O13 0.000000 0.834732 0.865138
O O14 0.743045 0.122321 0.250000
O O15 0.804797 0.038675 0.139436
O O16 0.362093 0.500000 0.000000
O O17 0.576473 0.870425 0.750000
O O18 0.500000 0.857298 0.872098
#
# Coordination Sequence:
#
# PCOD9474925 Si02
#       7
#    16  16  16  16  16  16  16
#     4  12  25  43  67  88 116 155 203 258 312 358
#     4   9  16  30  56  89 127 166 202 238 286 355
#     4  10  22  40  62  89 121 158 201 251 303 361
#     4   9  16  30  54  86 125 164 199 240 294 358
#     4  10  22  41  62  87 123 162 202 247 298 361
#     4   9  17  30  53  88 128 166 200 239 289 351
#     4  10  22  41  64  91 123 159 203 254 305 360
#
# _framework density 19.381103
#
# number of rings (size 3 to 8) (size 9 to 14) (size 15 to 20)
#    0.000    2.143    1.429    1.714    0.000    4.000 
#    2.571    0.000    0.000    2.571    0.000    0.000 
#    0.000    0.000    0.000    0.000    0.000    0.000 
#
# Total GULP energy -312739.221158 kJ/mol
# GULP energy per Si atom -5584.628949 kJ/mol
# Density = 1.933699 g / cm^3
# Si number density = 19.381103 Si / 1000 Ang^3
#
#
#
# Elastic Constant Matrix: (Units=GPa)
#
#
# Indices 1 2 3 4 5 6 
#
# 1 118.8757 56.0219 68.5858 0.0000 0.0000 0.0000
# 2 56.0219 92.8923 61.3499 0.0000 0.0000 0.0000
# 3 68.5858 61.3499 119.0196 0.0000 0.0000 0.0000
# 4 0.0000 0.0000 0.0000 -6.2660 0.0000 0.0000
# 5 0.0000 0.0000 0.0000 0.0000 -142.2768 0.0000
# 6 0.0000 0.0000 0.0000 0.0000 0.0000 19.4371
#
#
#
# Elastic Compliance Matrix: (Units=1/GPa)
#
#
# Indices 1 2 3 4 5 6 
#
# 1 0.013816 -0.004661 -0.005559 0.000000 0.000000 0.000000
# 2 -0.004661 0.017894 -0.006538 0.000000 0.000000 0.000000
# 3 -0.005559 -0.006538 0.014975 0.000000 0.000000 0.000000
# 4 0.000000 0.000000 0.000000 -0.159591 0.000000 0.000000
# 5 0.000000 0.000000 0.000000 0.000000 -0.007029 0.000000
# 6 0.000000 0.000000 0.000000 0.000000 0.000000 0.051448
#
#
# Mechanical properties :
#
#
# Convention : Reuss Voigt Hill
#
# Bulk Modulus (GPa) = 75.93051 78.07810 77.00430
# Shear Modulus (GPa) = -163.50077 -16.16582 -89.83330
#
# Velocity S-wave (km/s) = -9.19478 -2.89122 -6.81554
# Velocity P-wave (km/s) = 8.57104 5.40626 4.70293
#
# Compressibility (1/GPa) = 0.01316994
#
# Stress axis : x y z
#
# Youngs Moduli (GPa) = 72.38026 55.88535 66.77612
#
# Poissons Ratio (x) = 0.26047 0.37121
# Poissons Ratio (y) = 0.33734 0.43657
# Poissons Ratio (z) = 0.40237 0.36537
#
# Static dielectric constant tensor:
#      x y z
#    x 1.663140 0.000000 0.000000 
#    y 0.000000 1.645530 0.000000 
#    z 0.000000 0.000000 1.708560 
# 
# From -- ./inp_files/36949.got.cif
#   From: 2010.05.17/outbox.cif.g08.bks.cpg/sg63_19_cif.got.tgz:36949.got - 2010.06.03 15:47:04.
