data_PCOD9474685
_publ_section_title
;
Structure prediction by ZEFSAII (Michael W. Deem and Ramdas Pophale) SiO2 
 PCOD9474685
Probable space group: C M C M
;
_chemical_formula_sum "Si O2"
_cell_formula_units_Z 104
_cell_length_a 25.037817
_cell_length_b 8.556856
_cell_length_c 24.255922
_cell_angle_alpha 90.000000
_cell_angle_beta 90.000000
_cell_angle_gamma 90.000000
_cell_volume 5196.709878
_symmetry_space_group_name_H-M "C M C M"
_symmetry_group_IT_number 63
_symmetry_cell_setting 'orthorhombic'
loop_
_space_group_symop_operation_xyz
x,y,z
-x,-y,1/2+z
x,-y,-z
-x,y,1/2-z
-x,-y,-z
x,y,1/2-z
-x,y,z
x,-y,1/2+z
1/2+x,1/2+y,z
1/2-x,1/2-y,1/2+z
1/2+x,1/2-y,-z
1/2-x,1/2+y,1/2-z
1/2-x,1/2-y,-z
1/2+x,1/2+y,1/2-z
1/2-x,1/2+y,z
1/2+x,1/2-y,1/2+z
loop_
_atom_site_type_symbol
_atom_site_label
_atom_site_fract_x
_atom_site_fract_y
_atom_site_fract_z
Si Si1 0.380340 0.297007 0.588219
Si Si2 0.379341 0.950461 0.311765
Si Si3 0.500000 0.021645 0.662047
Si Si4 0.818450 0.375333 0.894055
Si Si5 0.500000 0.712966 0.912826
Si Si6 0.409687 0.155575 0.478336
Si Si7 0.000000 0.872642 0.886762
Si Si8 0.212397 0.031927 0.566059
O O1 0.374387 0.218013 0.528451
O O2 0.442006 0.354036 0.585441
O O3 0.335481 0.428169 0.590775
O O4 0.374920 0.183915 0.641194
O O5 0.365593 0.897951 0.250000
O O6 0.339971 0.087694 0.332929
O O7 0.441719 0.001509 0.311285
O O8 0.500000 0.209640 0.648700
O O9 0.500000 0.884599 0.615687
O O10 0.871095 0.401047 0.930400
O O11 0.769918 0.486346 0.910225
O O12 0.799286 0.205714 0.913290
O O13 0.551255 0.717114 0.952640
O O14 0.500000 0.560573 0.873324
O O15 0.439185 0.000000 0.500000
O O16 0.213190 0.000000 0.500000
#
# Coordination Sequence:
#
# PCOD9474685 Si02
#       8
#    16  16   8  16   8  16   8  16
#     4  11  23  41  63 101 135 175 218 263 334 399
#     4  11  24  46  71  93 128 178 226 277 331 386
#     4  10  21  44  69  99 133 176 230 275 334 404
#     4  12  24  41  64  97 128 171 224 274 333 398
#     4  12  22  36  64 102 142 178 214 271 346 409
#     4  12  21  36  62  96 139 171 214 273 336 411
#     4  10  23  38  62  98 146 177 210 266 332 414
#     4  12  25  40  66  99 137 173 214 271 340 412
#
# _framework density 20.012661000000001
#
# number of rings (size 3 to 8) (size 9 to 14) (size 15 to 20)
#    0.000    0.615    4.615    4.615    0.000    0.615 
#    0.000    3.846    0.000    0.923    0.000    0.000 
#    0.000    0.000    0.000    0.000    0.000    0.000 
#
# Total GULP energy -289729.752854 kJ/mol
# GULP energy per Si atom -5571.726016 kJ/mol
# Density = 1.996711 g / cm^3
# Si number density = 20.012661 Si / 1000 Ang^3
#
#
#
# Elastic Constant Matrix: (Units=GPa)
#
#
# Indices 1 2 3 4 5 6 
#
# 1 77.6063 13.1420 28.2936 0.0000 0.0000 0.0000
# 2 13.1420 100.1704 35.6008 0.0000 0.0000 0.0000
# 3 28.2936 35.6008 110.2177 0.0000 0.0000 0.0000
# 4 0.0000 0.0000 0.0000 11.9527 0.0000 0.0000
# 5 0.0000 0.0000 0.0000 0.0000 -7.6511 0.0000
# 6 0.0000 0.0000 0.0000 0.0000 0.0000 34.0278
#
#
#
# Elastic Compliance Matrix: (Units=1/GPa)
#
#
# Indices 1 2 3 4 5 6 
#
# 1 0.014253 -0.000643 -0.003451 0.000000 0.000000 0.000000
# 2 -0.000643 0.011307 -0.003487 0.000000 0.000000 0.000000
# 3 -0.003451 -0.003487 0.011085 0.000000 0.000000 0.000000
# 4 0.000000 0.000000 0.000000 0.083663 0.000000 0.000000
# 5 0.000000 0.000000 0.000000 0.000000 -0.130700 0.000000
# 6 0.000000 0.000000 0.000000 0.000000 0.000000 0.029388
#
#
# Mechanical properties :
#
#
# Convention : Reuss Voigt Hill
#
# Bulk Modulus (GPa) = 46.55087 49.11857 47.83472
# Shear Modulus (GPa) = 121.01202 21.72975 71.37089
#
# Velocity S-wave (km/s) = 7.78454 3.29872 5.97832
# Velocity P-wave (km/s) = 10.20342 6.25346 8.46214
#
# Compressibility (1/GPa) = 0.02148187
#
# Stress axis : x y z
#
# Youngs Moduli (GPa) = 70.16247 88.44342 90.21101
#
# Poissons Ratio (x) = 0.05691 0.31131
# Poissons Ratio (y) = 0.04514 0.31456
# Poissons Ratio (z) = 0.24212 0.30840
#
# Static dielectric constant tensor:
#      x y z
#    x 1.696760 0.000000 0.000000 
#    y 0.000000 1.792310 0.000000 
#    z 0.000000 0.000000 1.711270 
# 
# From -- ./inp_files/65452.got.cif
#   From: 2010.05.17/outbox.cif.g08.bks.cpg/sg63_33_cif.got.tgz:65452.got - 2010.06.03 15:47:04.
