data_PCOD9474778
_publ_section_title
;
Structure prediction by ZEFSAII (Michael W. Deem and Ramdas Pophale) SiO2 
 PCOD9474778
Probable space group: C M C M
;
_chemical_formula_sum "Si O2"
_cell_formula_units_Z 80
_cell_length_a 7.723085
_cell_length_b 29.768859
_cell_length_c 17.576031
_cell_angle_alpha 90.000000
_cell_angle_beta 90.000000
_cell_angle_gamma 90.000000
_cell_volume 4040.860089
_symmetry_space_group_name_H-M "C M C M"
_symmetry_group_IT_number 63
_symmetry_cell_setting 'orthorhombic'
loop_
_space_group_symop_operation_xyz
x,y,z
-x,-y,1/2+z
x,-y,-z
-x,y,1/2-z
-x,-y,-z
x,y,1/2-z
-x,y,z
x,-y,1/2+z
1/2+x,1/2+y,z
1/2-x,1/2-y,1/2+z
1/2+x,1/2-y,-z
1/2-x,1/2+y,1/2-z
1/2-x,1/2-y,-z
1/2+x,1/2+y,1/2-z
1/2-x,1/2+y,z
1/2+x,1/2-y,1/2+z
loop_
_atom_site_type_symbol
_atom_site_label
_atom_site_fract_x
_atom_site_fract_y
_atom_site_fract_z
Si Si1 0.500000 0.660398 0.158423
Si Si2 0.500000 0.237073 0.657770
Si Si3 0.298213 0.417059 0.443759
Si Si4 0.203942 0.168147 0.840465
Si Si5 0.709074 0.996623 0.334315
Si Si6 0.196551 0.594711 0.112560
O O1 0.500000 0.660273 0.250000
O O2 0.500000 0.711820 0.130279
O O3 0.330123 0.633999 0.130871
O O4 0.500000 0.239082 0.750000
O O5 0.670047 0.208628 0.636144
O O6 0.500000 0.411659 0.463235
O O7 0.249696 0.376438 0.387372
O O8 0.275043 0.463427 0.398900
O O9 0.197368 0.414618 0.522393
O O10 0.228081 0.160015 0.750000
O O11 0.000000 0.178027 0.852468
O O12 0.767108 0.982315 0.250000
O O13 0.500000 0.994972 0.336519
O O14 0.757468 0.048248 0.348828
O O15 0.000000 0.604564 0.137867
#
# Coordination Sequence:
#
# PCOD9474778 Si02
#       6
#     8   8  16  16  16  16
#     4  11  24  44  67  91 116 155 210 260 301 362
#     4   9  20  38  64  91 116 153 205 254 310 360
#     4  11  22  37  60  90 127 162 204 247 306 364
#     4   9  19  36  59  89 123 156 197 252 305 363
#     4  10  22  38  58  89 122 163 211 249 295 362
#     4  11  24  42  62  87 127 165 203 248 306 359
#
# _framework density 19.797764999999998
#
# number of rings (size 3 to 8) (size 9 to 14) (size 15 to 20)
#    0.000    1.800    1.000    2.400    4.200    5.600 
#    0.000    3.000    0.000    0.000    0.000    0.000 
#    0.000    0.000    0.000    0.000    0.000    0.000 
#
# Total GULP energy -223538.381051 kJ/mol
# GULP energy per Si atom -5588.459526 kJ/mol
# Density = 1.975270 g / cm^3
# Si number density = 19.797765 Si / 1000 Ang^3
#
#
#
# Elastic Constant Matrix: (Units=GPa)
#
#
# Indices 1 2 3 4 5 6 
#
# 1 62.1766 34.6717 9.1443 0.0000 0.0000 0.0000
# 2 34.6717 91.3756 0.0350 0.0000 0.0000 0.0000
# 3 9.1443 0.0350 53.5076 0.0000 0.0000 0.0000
# 4 0.0000 0.0000 0.0000 -9.1684 0.0000 0.0000
# 5 0.0000 0.0000 0.0000 0.0000 16.9026 0.0000
# 6 0.0000 0.0000 0.0000 0.0000 0.0000 36.5664
#
#
#
# Elastic Compliance Matrix: (Units=1/GPa)
#
#
# Indices 1 2 3 4 5 6 
#
# 1 0.021069 -0.007993 -0.003595 0.000000 0.000000 0.000000
# 2 -0.007993 0.013976 0.001357 0.000000 0.000000 0.000000
# 3 -0.003595 0.001357 0.019303 0.000000 0.000000 0.000000
# 4 0.000000 0.000000 0.000000 -0.109070 0.000000 0.000000
# 5 0.000000 0.000000 0.000000 0.000000 0.059162 0.000000
# 6 0.000000 0.000000 0.000000 0.000000 0.000000 0.027347
#
#
# Mechanical properties :
#
#
# Convention : Reuss Voigt Hill
#
# Bulk Modulus (GPa) = 29.51200 32.75131 31.13166
# Shear Modulus (GPa) = 78.68285 19.74071 49.21178
#
# Velocity S-wave (km/s) = 6.31107 3.16114 4.99111
# Velocity P-wave (km/s) = 8.24895 5.46833 6.99814
#
# Compressibility (1/GPa) = 0.03388452
#
# Stress axis : x y z
#
# Youngs Moduli (GPa) = 47.46253 71.54995 51.80673
#
# Poissons Ratio (x) = 0.57191 0.18627
# Poissons Ratio (y) = 0.37938 -0.07030
# Poissons Ratio (z) = 0.17065 -0.09708
#
# Static dielectric constant tensor:
#      x y z
#    x 1.722610 0.000000 0.000000 
#    y 0.000000 1.660760 0.000000 
#    z 0.000000 0.000000 1.692270 
# 
# From -- ./inp_files/40591.got.cif
#   From: 2010.05.17/outbox.cif.g08.bks.cpg/sg63_21_cif.got.tgz:40591.got - 2010.06.03 15:47:04.
