data_PCOD9474359
_publ_section_title
;
Structure prediction by ZEFSAII (Michael W. Deem and Ramdas Pophale) SiO2 
 PCOD9474359
Probable space group: C M C M
;
_chemical_formula_sum "Si O2"
_cell_formula_units_Z 96
_cell_length_a 25.669267
_cell_length_b 24.076348
_cell_length_c 8.756889
_cell_angle_alpha 90.000000
_cell_angle_beta 90.000000
_cell_angle_gamma 90.000000
_cell_volume 5411.951850
_symmetry_space_group_name_H-M "C M C M"
_symmetry_group_IT_number 63
_symmetry_cell_setting 'orthorhombic'
loop_
_space_group_symop_operation_xyz
x,y,z
-x,-y,1/2+z
x,-y,-z
-x,y,1/2-z
-x,-y,-z
x,y,1/2-z
-x,y,z
x,-y,1/2+z
1/2+x,1/2+y,z
1/2-x,1/2-y,1/2+z
1/2+x,1/2-y,-z
1/2-x,1/2+y,1/2-z
1/2-x,1/2-y,-z
1/2+x,1/2+y,1/2-z
1/2-x,1/2+y,z
1/2+x,1/2-y,1/2+z
loop_
_atom_site_type_symbol
_atom_site_label
_atom_site_fract_x
_atom_site_fract_y
_atom_site_fract_z
Si Si1 0.061002 0.560612 0.567545
Si Si2 0.746625 0.438337 0.932419
Si Si3 0.059685 0.059921 0.933877
Si Si4 0.650547 0.134425 0.431834
Si Si5 0.691616 0.248449 0.567734
Si Si6 0.845506 0.862929 0.066401
O O1 0.074193 0.500000 0.500000
O O2 0.067565 0.559334 0.750000
O O3 0.098538 0.606210 0.495219
O O4 0.000000 0.571113 0.533525
O O5 0.738436 0.440338 0.750000
O O6 0.801363 0.407517 0.961695
O O7 0.747008 0.500000 0.000000
O O8 0.701301 0.402060 0.009003
O O9 0.060456 0.056093 0.750000
O O10 0.100615 0.107056 0.978444
O O11 0.000000 0.071099 0.982202
O O12 0.075274 0.000000 0.000000
O O13 0.647041 0.142571 0.250000
O O14 0.663956 0.192520 0.511085
O O15 0.694830 0.249551 0.750000
O O16 0.750000 0.250000 0.500000
O O17 0.662113 0.302816 0.507093
O O18 0.843387 0.858349 0.250000
#
# Coordination Sequence:
#
# PCOD9474359 Si02
#       6
#    16  16  16  16  16  16
#     4  10  21  38  61  89 121 157 197 243 294 348
#     4  11  23  36  54  82 117 150 187 237 291 348
#     4   9  19  36  58  85 116 151 191 235 284 339
#     4  11  23  39  60  86 116 153 197 241 291 349
#     4  12  24  40  61  84 115 154 196 241 291 349
#     4  11  22  37  59  84 114 152 195 239 289 347
#
# _framework density 17.738517999999999
#
# number of rings (size 3 to 8) (size 9 to 14) (size 15 to 20)
#    0.000    1.333    1.667    4.500    0.000    7.000 
#    0.000    0.833    0.000    3.000    0.000    0.000 
#    0.000    0.000    0.000    0.000    0.000    0.000 
#
# Total GULP energy -268351.847439 kJ/mol
# GULP energy per Si atom -5590.663488 kJ/mol
# Density = 1.769814 g / cm^3
# Si number density = 17.738518 Si / 1000 Ang^3
#
#
#
# Elastic Constant Matrix: (Units=GPa)
#
#
# Indices 1 2 3 4 5 6 
#
# 1 104.2283 86.4131 59.5116 0.0000 0.0000 0.0000
# 2 86.4131 176.1337 76.2146 0.0000 0.0000 0.0000
# 3 59.5116 76.2146 88.6925 0.0000 0.0000 0.0000
# 4 0.0000 0.0000 0.0000 34.5552 0.0000 0.0000
# 5 0.0000 0.0000 0.0000 0.0000 24.0081 0.0000
# 6 0.0000 0.0000 0.0000 0.0000 0.0000 20.0550
#
#
#
# Elastic Compliance Matrix: (Units=1/GPa)
#
#
# Indices 1 2 3 4 5 6 
#
# 1 0.018850 -0.006010 -0.007484 0.000000 0.000000 0.000000
# 2 -0.006010 0.010954 -0.005381 0.000000 0.000000 0.000000
# 3 -0.007484 -0.005381 0.020920 0.000000 0.000000 0.000000
# 4 0.000000 0.000000 0.000000 0.028939 0.000000 0.000000
# 5 0.000000 0.000000 0.000000 0.000000 0.041653 0.000000
# 6 0.000000 0.000000 0.000000 0.000000 0.000000 0.049863
#
#
# Mechanical properties :
#
#
# Convention : Reuss Voigt Hill
#
# Bulk Modulus (GPa) = 77.06622 90.37035 83.71829
# Shear Modulus (GPa) = 23.44640 25.51801 24.48220
#
# Velocity S-wave (km/s) = 3.63957 3.79696 3.71910
# Velocity P-wave (km/s) = 7.82317 8.38325 8.10805
#
# Compressibility (1/GPa) = 0.01297585
#
# Stress axis : x y z
#
# Youngs Moduli (GPa) = 53.05090 91.28979 47.80071
#
# Poissons Ratio (x) = 0.54861 0.35774
# Poissons Ratio (y) = 0.31881 0.25720
# Poissons Ratio (z) = 0.39703 0.49120
#
# Static dielectric constant tensor:
#      x y z
#    x 1.596400 0.000000 0.000000 
#    y 0.000000 1.569410 0.000000 
#    z 0.000000 0.000000 1.594630 
# 
# From -- ./inp_files/12397.got.cif
#   From: 2010.05.17/outbox.cif.g08.bks.cpg/sg63_7_cif.got.tgz:12397.got - 2010.06.03 15:47:04.
