data_PCOD9474713
_publ_section_title
;
Structure prediction by ZEFSAII (Michael W. Deem and Ramdas Pophale) SiO2 
 PCOD9474713
Probable space group: C M C M
;
_chemical_formula_sum "Si O2"
_cell_formula_units_Z 116
_cell_length_a 26.916620
_cell_length_b 23.408113
_cell_length_c 7.819155
_cell_angle_alpha 90.000000
_cell_angle_beta 90.000000
_cell_angle_gamma 90.000000
_cell_volume 4926.593743
_symmetry_space_group_name_H-M "C M C M"
_symmetry_group_IT_number 63
_symmetry_cell_setting 'orthorhombic'
loop_
_space_group_symop_operation_xyz
x,y,z
-x,-y,1/2+z
x,-y,-z
-x,y,1/2-z
-x,-y,-z
x,y,1/2-z
-x,y,z
x,-y,1/2+z
1/2+x,1/2+y,z
1/2-x,1/2-y,1/2+z
1/2+x,1/2-y,-z
1/2-x,1/2+y,1/2-z
1/2-x,1/2-y,-z
1/2+x,1/2+y,1/2-z
1/2-x,1/2+y,z
1/2+x,1/2-y,1/2+z
loop_
_atom_site_type_symbol
_atom_site_label
_atom_site_fract_x
_atom_site_fract_y
_atom_site_fract_z
Si Si1 0.620774 0.938537 0.953533
Si Si2 0.716676 0.115836 0.950576
Si Si3 0.927602 0.087301 0.560773
Si Si4 0.182275 0.936790 0.552768
Si Si5 0.096169 0.207425 0.049832
Si Si6 0.806407 0.262457 0.455167
Si Si7 0.500000 0.446816 0.750000
Si Si8 0.057462 0.669130 0.455832
O O1 0.622907 0.934312 0.750000
O O2 0.589363 0.884599 0.019693
O O3 0.676815 0.933611 0.022735
O O4 0.599048 0.000000 0.000000
O O5 0.725273 0.124123 0.750000
O O6 0.688901 0.172563 0.019533
O O7 0.770428 0.104129 0.028447
O O8 0.944474 0.068421 0.750000
O O9 0.868461 0.076511 0.545923
O O10 0.932062 0.156204 0.542531
O O11 0.956998 0.059506 0.403781
O O12 0.168462 0.935934 0.750000
O O13 0.199356 0.000000 0.500000
O O14 0.098082 0.190740 0.250000
O O15 0.152087 0.218718 0.980116
O O16 0.072135 0.269816 0.033565
O O17 0.812851 0.261787 0.250000
O O18 0.750000 0.250000 0.500000
O O19 0.063903 0.674186 0.250000
O O20 0.000000 0.657906 0.490621
#
# Coordination Sequence:
#
# PCOD9474713 Si02
#       8
#    16  16  16  16  16  16   4  16
#     4  11  23  40  62  89 127 170 222 284 347 411
#     4  11  22  40  63  96 131 178 228 276 342 409
#     4  12  26  47  75 107 144 186 233 289 353 416
#     4  12  25  46  72 103 141 181 233 287 346 420
#     4  11  22  41  64  98 138 180 226 283 339 413
#     4  10  22  36  58  89 133 174 219 271 332 404
#     4  12  26  52  74 110 142 184 238 288 352 418
#     4  10  23  41  62  91 124 171 228 284 344 411
#
# _framework density 23.545680000000001
#
# number of rings (size 3 to 8) (size 9 to 14) (size 15 to 20)
#    0.000    0.966    2.759    3.931    0.966    5.517 
#    0.000    0.345    0.000    0.000    0.000    0.000 
#    0.000    0.000    0.000    0.000    0.000    0.000 
#
# Total GULP energy -324067.076789 kJ/mol
# GULP energy per Si atom -5587.363393 kJ/mol
# Density = 2.349209 g / cm^3
# Si number density = 23.545680 Si / 1000 Ang^3
#
#
#
# Elastic Constant Matrix: (Units=GPa)
#
#
# Indices 1 2 3 4 5 6 
#
# 1 102.0942 10.1078 23.9505 0.0000 0.0000 0.0000
# 2 10.1078 94.0432 5.2942 0.0000 0.0000 0.0000
# 3 23.9505 5.2942 111.7342 0.0000 0.0000 0.0000
# 4 0.0000 0.0000 0.0000 28.2437 0.0000 0.0000
# 5 0.0000 0.0000 0.0000 0.0000 12.6363 0.0000
# 6 0.0000 0.0000 0.0000 0.0000 0.0000 -10.0532
#
#
#
# Elastic Compliance Matrix: (Units=1/GPa)
#
#
# Indices 1 2 3 4 5 6 
#
# 1 0.010406 -0.000995 -0.002183 0.000000 0.000000 0.000000
# 2 -0.000995 0.010757 -0.000296 0.000000 0.000000 0.000000
# 3 -0.002183 -0.000296 0.009432 0.000000 0.000000 0.000000
# 4 0.000000 0.000000 0.000000 0.035406 0.000000 0.000000
# 5 0.000000 0.000000 0.000000 0.000000 0.079137 0.000000
# 6 0.000000 0.000000 0.000000 0.000000 0.000000 -0.099471
#
#
# Mechanical properties :
#
#
# Convention : Reuss Voigt Hill
#
# Bulk Modulus (GPa) = 42.29338 42.95295 42.62316
# Shear Modulus (GPa) = 82.64597 24.06661 53.35629
#
# Velocity S-wave (km/s) = 5.93098 3.20054 4.76550
# Velocity P-wave (km/s) = 8.05625 5.65154 6.95856
#
# Compressibility (1/GPa) = 0.02364436
#
# Stress axis : x y z
#
# Youngs Moduli (GPa) = 96.10188 92.96196 106.02373
#
# Poissons Ratio (x) = 0.09254 0.23148
# Poissons Ratio (y) = 0.09567 0.03142
# Poissons Ratio (z) = 0.20982 0.02755
#
# Static dielectric constant tensor:
#      x y z
#    x 1.918770 0.000000 0.000000 
#    y 0.000000 1.975400 0.000000 
#    z 0.000000 0.000000 1.862580 
# 
# From -- ./inp_files/12961.got.cif
#   From: 2010.05.17/outbox.cif.g08.bks.cpg/sg63_7_cif.got.tgz:12961.got - 2010.06.03 15:47:04.
