data_PCOD9474481
_publ_section_title
;
Structure prediction by ZEFSAII (Michael W. Deem and Ramdas Pophale) SiO2 
 PCOD9474481
Probable space group: C M C M
;
_chemical_formula_sum "Si O2"
_cell_formula_units_Z 80
_cell_length_a 8.189232
_cell_length_b 25.269075
_cell_length_c 18.564815
_cell_angle_alpha 90.000000
_cell_angle_beta 90.000000
_cell_angle_gamma 90.000000
_cell_volume 3841.697323
_symmetry_space_group_name_H-M "C M C M"
_symmetry_group_IT_number 63
_symmetry_cell_setting 'orthorhombic'
loop_
_space_group_symop_operation_xyz
x,y,z
-x,-y,1/2+z
x,-y,-z
-x,y,1/2-z
-x,-y,-z
x,y,1/2-z
-x,y,z
x,-y,1/2+z
1/2+x,1/2+y,z
1/2-x,1/2-y,1/2+z
1/2+x,1/2-y,-z
1/2-x,1/2+y,1/2-z
1/2-x,1/2-y,-z
1/2+x,1/2+y,1/2-z
1/2-x,1/2+y,z
1/2+x,1/2-y,1/2+z
loop_
_atom_site_type_symbol
_atom_site_label
_atom_site_fract_x
_atom_site_fract_y
_atom_site_fract_z
Si Si1 0.802790 0.476598 0.076804
Si Si2 0.191754 0.643866 0.592062
Si Si3 0.303093 0.426419 0.668700
Si Si4 0.192510 0.167521 0.063924
Si Si5 0.692138 0.256564 0.168767
O O1 0.746461 0.416585 0.089463
O O2 0.749228 0.516921 0.138450
O O3 0.000000 0.475284 0.074015
O O4 0.744354 0.500000 0.000000
O O5 0.216709 0.667028 0.511894
O O6 0.280138 0.682652 0.647240
O O7 0.000000 0.643356 0.609583
O O8 0.243637 0.417202 0.750000
O O9 0.500000 0.423802 0.669813
O O10 0.246869 0.381362 0.613087
O O11 0.219215 0.219915 0.110667
O O12 0.000000 0.160829 0.049235
O O13 0.751235 0.246107 0.250000
O O14 0.500000 0.244614 0.165493
#
# Coordination Sequence:
#
# PCOD9474481 Si02
#       5
#    16  16  16  16  16
#     4  10  21  39  61  87 120 157 200 246 293 351
#     4  11  23  40  64  90 121 159 203 250 299 358
#     4  10  22  38  59  90 124 158 198 246 301 357
#     4  11  22  39  64  91 122 158 201 250 301 359
#     4  11  25  43  62  87 121 160 202 249 303 360
#
# _framework density 20.82413
#
# number of rings (size 3 to 8) (size 9 to 14) (size 15 to 20)
#    0.000    1.400    2.000    3.000    0.000    6.400 
#    0.000    4.000    0.000    0.000    0.000    0.000 
#    0.000    0.000    0.000    0.000    0.000    0.000 
#
# Total GULP energy -223703.799038 kJ/mol
# GULP energy per Si atom -5592.594976 kJ/mol
# Density = 2.077673 g / cm^3
# Si number density = 20.824130 Si / 1000 Ang^3
#
#
#
# Elastic Constant Matrix: (Units=GPa)
#
#
# Indices 1 2 3 4 5 6 
#
# 1 12.8572 -7.3416 -6.7378 0.0000 0.0000 0.0000
# 2 -7.3416 87.5231 -3.5775 0.0000 0.0000 0.0000
# 3 -6.7378 -3.5775 44.1999 0.0000 0.0000 0.0000
# 4 0.0000 0.0000 0.0000 4.2987 0.0000 0.0000
# 5 0.0000 0.0000 0.0000 0.0000 24.5840 0.0000
# 6 0.0000 0.0000 0.0000 0.0000 0.0000 14.4197
#
#
#
# Elastic Compliance Matrix: (Units=1/GPa)
#
#
# Indices 1 2 3 4 5 6 
#
# 1 0.089952 0.008133 0.014370 0.000000 0.000000 0.000000
# 2 0.008133 0.012199 0.002227 0.000000 0.000000 0.000000
# 3 0.014370 0.002227 0.024995 0.000000 0.000000 0.000000
# 4 0.000000 0.000000 0.000000 0.232629 0.000000 0.000000
# 5 0.000000 0.000000 0.000000 0.000000 0.040677 0.000000
# 6 0.000000 0.000000 0.000000 0.000000 0.000000 0.069349
#
#
# Mechanical properties :
#
#
# Convention : Reuss Voigt Hill
#
# Bulk Modulus (GPa) = 5.66231 12.14072 8.90152
# Shear Modulus (GPa) = 10.43385 19.47631 14.95508
#
# Velocity S-wave (km/s) = 2.24083 3.06155 2.68276
# Velocity P-wave (km/s) = 3.06922 4.28255 3.72561
#
# Compressibility (1/GPa) = 0.17660634
#
# Stress axis : x y z
#
# Youngs Moduli (GPa) = 11.11707 81.97548 40.00745
#
# Poissons Ratio (x) = -0.66668 -0.57492
# Poissons Ratio (y) = -0.09041 -0.08910
# Poissons Ratio (z) = -0.15976 -0.18257
#
# Static dielectric constant tensor:
#      x y z
#    x 1.722390 0.000000 0.000000 
#    y 0.000000 1.747130 0.000000 
#    z 0.000000 0.000000 1.719960 
# 
# From -- ./inp_files/40484.got.cif
#   From: 2010.05.17/outbox.cif.g08.bks.cpg/sg63_21_cif.got.tgz:40484.got - 2010.06.03 15:47:04.
