data_PCOD9474998
_publ_section_title
;
Structure prediction by ZEFSAII (Michael W. Deem and Ramdas Pophale) SiO2 
 PCOD9474998
Probable space group: C M C M
;
_chemical_formula_sum "Si O2"
_cell_formula_units_Z 104
_cell_length_a 21.521462
_cell_length_b 28.445158
_cell_length_c 8.880981
_cell_angle_alpha 90.000000
_cell_angle_beta 90.000000
_cell_angle_gamma 90.000000
_cell_volume 5436.771266
_symmetry_space_group_name_H-M "C M C M"
_symmetry_group_IT_number 63
_symmetry_cell_setting 'orthorhombic'
loop_
_space_group_symop_operation_xyz
x,y,z
-x,-y,1/2+z
x,-y,-z
-x,y,1/2-z
-x,-y,-z
x,y,1/2-z
-x,y,z
x,-y,1/2+z
1/2+x,1/2+y,z
1/2-x,1/2-y,1/2+z
1/2+x,1/2-y,-z
1/2-x,1/2+y,1/2-z
1/2-x,1/2-y,-z
1/2+x,1/2+y,1/2-z
1/2-x,1/2+y,z
1/2+x,1/2-y,1/2+z
loop_
_atom_site_type_symbol
_atom_site_label
_atom_site_fract_x
_atom_site_fract_y
_atom_site_fract_z
Si Si1 0.103084 0.372400 0.569663
Si Si2 0.176375 0.050552 0.071750
Si Si3 0.345201 0.299924 0.073039
Si Si4 0.072491 0.106148 0.573819
Si Si5 0.000000 0.551984 0.068364
Si Si6 0.068670 0.275376 0.072199
Si Si7 0.260537 0.867812 0.431173
O O1 0.108725 0.372909 0.750000
O O2 0.060297 0.416812 0.524825
O O3 0.071564 0.324213 0.516234
O O4 0.170630 0.371300 0.494764
O O5 0.184994 0.049519 0.250000
O O6 0.107637 0.068601 0.028606
O O7 0.221863 0.088631 0.996787
O O8 0.187504 0.000000 0.000000
O O9 0.342698 0.287324 0.250000
O O10 0.392090 0.344247 0.056921
O O11 0.278064 0.320561 0.025998
O O12 0.375551 0.257813 0.981301
O O13 0.079646 0.092488 0.750000
O O14 0.000000 0.110697 0.540089
O O15 0.000000 0.548375 0.250000
O O16 0.000000 0.500000 0.000000
O O17 0.074366 0.284454 0.250000
O O18 0.000000 0.253589 0.044856
O O19 0.260326 0.869722 0.250000
#
# Coordination Sequence:
#
# PCOD9474998 Si02
#       7
#    16  16  16  16   8  16  16
#     4  11  23  42  65  91 121 156 196 240 295 359
#     4  11  22  37  57  81 111 150 195 245 299 355
#     4   9  19  36  58  84 117 159 201 242 294 353
#     4   9  18  34  55  80 113 153 198 247 298 352
#     4  10  24  44  68  96 124 156 196 244 301 366
#     4  11  23  37  58  89 123 160 202 248 297 349
#     4  10  22  41  62  87 119 155 197 247 300 361
#
# _framework density 19.129000999999999
#
# number of rings (size 3 to 8) (size 9 to 14) (size 15 to 20)
#    0.000    1.846    0.769    4.154    0.000    7.692 
#    0.000    1.538    0.000    0.000    0.000    0.000 
#    0.000    0.000    0.000    0.000    0.000    0.000 
#
# Total GULP energy -290433.606270 kJ/mol
# GULP energy per Si atom -5585.261659 kJ/mol
# Density = 1.908546 g / cm^3
# Si number density = 19.129001 Si / 1000 Ang^3
#
#
#
# Elastic Constant Matrix: (Units=GPa)
#
#
# Indices 1 2 3 4 5 6 
#
# 1 143.7271 43.0181 49.0153 0.0000 0.0000 0.0000
# 2 43.0181 92.6182 44.7286 0.0000 0.0000 0.0000
# 3 49.0153 44.7286 74.9997 0.0000 0.0000 0.0000
# 4 0.0000 0.0000 0.0000 33.3042 0.0000 0.0000
# 5 0.0000 0.0000 0.0000 0.0000 24.3993 0.0000
# 6 0.0000 0.0000 0.0000 0.0000 0.0000 12.1931
#
#
#
# Elastic Compliance Matrix: (Units=1/GPa)
#
#
# Indices 1 2 3 4 5 6 
#
# 1 0.009190 -0.001921 -0.004860 0.000000 0.000000 0.000000
# 2 -0.001921 0.015566 -0.008028 0.000000 0.000000 0.000000
# 3 -0.004860 -0.008028 0.021297 0.000000 0.000000 0.000000
# 4 0.000000 0.000000 0.000000 0.030026 0.000000 0.000000
# 5 0.000000 0.000000 0.000000 0.000000 0.040985 0.000000
# 6 0.000000 0.000000 0.000000 0.000000 0.000000 0.082013
#
#
# Mechanical properties :
#
#
# Convention : Reuss Voigt Hill
#
# Bulk Modulus (GPa) = 60.84562 64.98545 62.91553
# Shear Modulus (GPa) = 21.35148 25.61820 23.48484
#
# Velocity S-wave (km/s) = 3.34456 3.66352 3.50767
# Velocity P-wave (km/s) = 6.84046 7.20702 7.02613
#
# Compressibility (1/GPa) = 0.01643504
#
# Stress axis : x y z
#
# Youngs Moduli (GPa) = 108.81147 64.24121 46.95390
#
# Poissons Ratio (x) = 0.12343 0.22821
# Poissons Ratio (y) = 0.20906 0.37694
# Poissons Ratio (z) = 0.52886 0.51572
#
# Static dielectric constant tensor:
#      x y z
#    x 1.694510 0.000000 0.000000 
#    y 0.000000 1.655390 0.000000 
#    z 0.000000 0.000000 1.635740 
# 
# From -- ./inp_files/8840.got.cif
#   From: 2010.05.17/outbox.cif.g08.bks.cpg/sg63_5_cif.got.tgz:8840.got - 2010.06.03 15:47:04.
