data_PCOD9474435
_publ_section_title
;
Structure prediction by ZEFSAII (Michael W. Deem and Ramdas Pophale) SiO2 
 PCOD9474435
Probable space group: C M C M
;
_chemical_formula_sum "Si O2"
_cell_formula_units_Z 100
_cell_length_a 9.343428
_cell_length_b 19.710030
_cell_length_c 27.189246
_cell_angle_alpha 90.000000
_cell_angle_beta 90.000000
_cell_angle_gamma 90.000000
_cell_volume 5007.151048
_symmetry_space_group_name_H-M "C M C M"
_symmetry_group_IT_number 63
_symmetry_cell_setting 'orthorhombic'
loop_
_space_group_symop_operation_xyz
x,y,z
-x,-y,1/2+z
x,-y,-z
-x,y,1/2-z
-x,-y,-z
x,y,1/2-z
-x,y,z
x,-y,1/2+z
1/2+x,1/2+y,z
1/2-x,1/2-y,1/2+z
1/2+x,1/2-y,-z
1/2-x,1/2+y,1/2-z
1/2-x,1/2-y,-z
1/2+x,1/2+y,1/2-z
1/2-x,1/2+y,z
1/2+x,1/2-y,1/2+z
loop_
_atom_site_type_symbol
_atom_site_label
_atom_site_fract_x
_atom_site_fract_y
_atom_site_fract_z
Si Si1 0.330899 0.808757 0.564511
Si Si2 0.657809 0.677108 0.692842
Si Si3 0.332059 0.651173 0.967945
Si Si4 0.262696 0.173225 0.325959
Si Si5 0.000000 0.822121 0.750000
Si Si6 0.165121 0.478458 0.696496
Si Si7 0.828659 0.412414 0.120789
O O1 0.500000 0.826482 0.568623
O O2 0.323724 0.727790 0.554373
O O3 0.254600 0.845232 0.518864
O O4 0.251246 0.825329 0.615133
O O5 0.683752 0.661040 0.750000
O O6 0.500000 0.650443 0.678264
O O7 0.654471 0.757945 0.686959
O O8 0.780736 0.646669 0.658698
O O9 0.500000 0.635623 0.974681
O O10 0.255059 0.601799 0.929376
O O11 0.331727 0.101544 0.312023
O O12 0.122609 0.177483 0.293114
O O13 0.234244 0.492993 0.750000
O O14 0.221443 0.520033 0.649926
O O15 0.000000 0.500440 0.699657
O O16 0.000000 0.412355 0.112551
#
# Coordination Sequence:
#
# PCOD9474435 Si02
#       7
#    16  16  16  16   4  16  16
#     4  10  21  38  66  94 123 166 214 261 318 376
#     4  11  22  37  59  89 121 163 209 263 319 375
#     4  10  21  39  61  94 129 164 211 263 325 383
#     4  12  23  41  63  91 128 162 212 261 313 382
#     4  12  28  40  58 104 134 168 210 260 338 376
#     4  10  21  41  63  88 120 171 218 260 314 381
#     4  11  23  38  62  90 128 166 211 262 317 380
#
# _framework density 19.971436000000001
#
# number of rings (size 3 to 8) (size 9 to 14) (size 15 to 20)
#    0.000    1.280    3.200    2.880    2.240    2.880 
#    2.880    0.800    0.000    3.840    0.000    0.000 
#    0.000    0.000    0.000    0.000    0.000    0.000 
#
# Total GULP energy -278524.935316 kJ/mol
# GULP energy per Si atom -5570.498706 kJ/mol
# Density = 1.992598 g / cm^3
# Si number density = 19.971436 Si / 1000 Ang^3
#
#
#
# Elastic Constant Matrix: (Units=GPa)
#
#
# Indices 1 2 3 4 5 6 
#
# 1 98.8613 7.6708 58.5223 0.0000 0.0000 0.0000
# 2 7.6708 43.1209 7.7219 0.0000 0.0000 0.0000
# 3 58.5223 7.7219 160.7158 0.0000 0.0000 0.0000
# 4 0.0000 0.0000 0.0000 19.4261 0.0000 0.0000
# 5 0.0000 0.0000 0.0000 0.0000 55.6215 0.0000
# 6 0.0000 0.0000 0.0000 0.0000 0.0000 48.5714
#
#
#
# Elastic Compliance Matrix: (Units=1/GPa)
#
#
# Indices 1 2 3 4 5 6 
#
# 1 0.012987 -0.001476 -0.004658 0.000000 0.000000 0.000000
# 2 -0.001476 0.023560 -0.000594 0.000000 0.000000 0.000000
# 3 -0.004658 -0.000594 0.007947 0.000000 0.000000 0.000000
# 4 0.000000 0.000000 0.000000 0.051477 0.000000 0.000000
# 5 0.000000 0.000000 0.000000 0.000000 0.017979 0.000000
# 6 0.000000 0.000000 0.000000 0.000000 0.000000 0.020588
#
#
# Mechanical properties :
#
#
# Convention : Reuss Voigt Hill
#
# Bulk Modulus (GPa) = 32.22037 50.05867 41.13952
# Shear Modulus (GPa) = 31.57745 39.97599 35.77672
#
# Velocity S-wave (km/s) = 3.98066 4.47884 4.23708
# Velocity P-wave (km/s) = 6.10703 7.20182 6.67690
#
# Compressibility (1/GPa) = 0.03103627
#
# Stress axis : x y z
#
# Youngs Moduli (GPa) = 76.99893 42.44541 125.83471
#
# Poissons Ratio (x) = 0.06265 0.58616
# Poissons Ratio (y) = 0.11366 0.07480
# Poissons Ratio (z) = 0.35867 0.02523
#
# Static dielectric constant tensor:
#      x y z
#    x 1.686440 0.000000 0.000000 
#    y 0.000000 1.719110 0.000000 
#    z 0.000000 0.000000 1.717180 
# 
# From -- ./inp_files/67072.got.cif
#   From: 2010.05.17/outbox.cif.g08.bks.cpg/sg63_34_cif.got.tgz:67072.got - 2010.06.03 15:47:04.
