data_PCOD9474034
_publ_section_title
;
Structure prediction by ZEFSAII (Michael W. Deem and Ramdas Pophale) SiO2 
 PCOD9474034
Probable space group: C M C M
;
_chemical_formula_sum "Si O2"
_cell_formula_units_Z 80
_cell_length_a 9.131009
_cell_length_b 26.647132
_cell_length_c 18.756314
_cell_angle_alpha 90.000000
_cell_angle_beta 90.000000
_cell_angle_gamma 90.000000
_cell_volume 4563.696332
_symmetry_space_group_name_H-M "C M C M"
_symmetry_group_IT_number 63
_symmetry_cell_setting 'orthorhombic'
loop_
_space_group_symop_operation_xyz
x,y,z
-x,-y,1/2+z
x,-y,-z
-x,y,1/2-z
-x,-y,-z
x,y,1/2-z
-x,y,z
x,-y,1/2+z
1/2+x,1/2+y,z
1/2-x,1/2-y,1/2+z
1/2+x,1/2-y,-z
1/2-x,1/2+y,1/2-z
1/2-x,1/2-y,-z
1/2+x,1/2+y,1/2-z
1/2-x,1/2+y,z
1/2+x,1/2-y,1/2+z
loop_
_atom_site_type_symbol
_atom_site_label
_atom_site_fract_x
_atom_site_fract_y
_atom_site_fract_z
Si Si1 0.826060 0.704635 0.334048
Si Si2 0.170228 0.692450 0.664173
Si Si3 0.176300 0.607417 0.072510
Si Si4 0.325694 0.603369 0.918384
Si Si5 0.167938 0.502626 0.586740
O O1 0.798387 0.696066 0.250000
O O2 0.736704 0.753675 0.357132
O O3 0.790001 0.655108 0.378792
O O4 0.000000 0.714523 0.342275
O O5 0.179893 0.689520 0.750000
O O6 0.260604 0.647522 0.629634
O O7 0.000000 0.688804 0.643405
O O8 0.211527 0.553673 0.108807
O O9 0.000000 0.606392 0.059064
O O10 0.260001 0.610454 0.997758
O O11 0.500000 0.604668 0.919972
O O12 0.268918 0.548924 0.892155
O O13 0.169808 0.500000 0.500000
O O14 0.000000 0.512584 0.608493
#
# Coordination Sequence:
#
# PCOD9474034 Si02
#       5
#    16  16  16  16  16
#     4   9  18  34  55  77 101 130 165 206 251 296
#     4  10  21  37  55  73  97 132 169 205 251 305
#     4   9  18  33  53  76 104 136 168 204 247 298
#     4  11  21  32  51  77 103 132 168 211 253 293
#     4   8  15  30  50  72 101 135 168 202 244 295
#
# _framework density 17.52965
#
# number of rings (size 3 to 8) (size 9 to 14) (size 15 to 20)
#    0.000    2.600    0.000    3.600    0.000    6.400 
#    0.000    1.000    0.000    3.600    0.000    0.000 
#    0.000    0.000    0.000    0.000    0.000    0.000 
#
# Total GULP energy -223063.451846 kJ/mol
# GULP energy per Si atom -5576.586296 kJ/mol
# Density = 1.748975 g / cm^3
# Si number density = 17.529650 Si / 1000 Ang^3
#
#
#
# Elastic Constant Matrix: (Units=GPa)
#
#
# Indices 1 2 3 4 5 6 
#
# 1 99.2884 95.5239 37.6296 0.0000 0.0000 0.0000
# 2 95.5239 187.1071 47.9885 0.0000 0.0000 0.0000
# 3 37.6296 47.9885 21.2382 0.0000 0.0000 0.0000
# 4 0.0000 0.0000 0.0000 417.5409 0.0000 0.0000
# 5 0.0000 0.0000 0.0000 0.0000 18.2918 0.0000
# 6 0.0000 0.0000 0.0000 0.0000 0.0000 34.0002
#
#
#
# Elastic Compliance Matrix: (Units=1/GPa)
#
#
# Indices 1 2 3 4 5 6 
#
# 1 0.032035 -0.004275 -0.047101 0.000000 0.000000 0.000000
# 2 -0.004275 0.013281 -0.022435 0.000000 0.000000 0.000000
# 3 -0.047101 -0.022435 0.181230 0.000000 0.000000 0.000000
# 4 0.000000 0.000000 0.000000 0.002395 0.000000 0.000000
# 5 0.000000 0.000000 0.000000 0.000000 0.054669 0.000000
# 6 0.000000 0.000000 0.000000 0.000000 0.000000 0.029412
#
#
# Mechanical properties :
#
#
# Convention : Reuss Voigt Hill
#
# Bulk Modulus (GPa) = 12.67016 74.43530 43.55273
# Shear Modulus (GPa) = 10.26799 102.39937 56.33368
#
# Velocity S-wave (km/s) = 2.42285 7.65126 5.67503
# Velocity P-wave (km/s) = 3.88207 10.98228 8.23653
#
# Compressibility (1/GPa) = 0.07892558
#
# Stress axis : x y z
#
# Youngs Moduli (GPa) = 31.21578 75.29602 5.51786
#
# Poissons Ratio (x) = 0.32187 0.25989
# Poissons Ratio (y) = 0.13344 0.12379
# Poissons Ratio (z) = 1.47028 1.68925
#
# Static dielectric constant tensor:
#      x y z
#    x 1.586080 0.000000 0.000000 
#    y 0.000000 1.607870 0.000000 
#    z 0.000000 0.000000 1.578370 
# 
# From -- ./inp_files/40486.got.cif
#   From: 2010.05.17/outbox.cif.g08.bks.cpg/sg63_21_cif.got.tgz:40486.got - 2010.06.03 15:47:04.
