data_PCOD9474586
_publ_section_title
;
Structure prediction by ZEFSAII (Michael W. Deem and Ramdas Pophale) SiO2 
 PCOD9474586
Probable space group: C M C M
;
_chemical_formula_sum "Si O2"
_cell_formula_units_Z 96
_cell_length_a 22.693374
_cell_length_b 9.041936
_cell_length_c 23.237191
_cell_angle_alpha 90.000000
_cell_angle_beta 90.000000
_cell_angle_gamma 90.000000
_cell_volume 4768.086517
_symmetry_space_group_name_H-M "C M C M"
_symmetry_group_IT_number 63
_symmetry_cell_setting 'orthorhombic'
loop_
_space_group_symop_operation_xyz
x,y,z
-x,-y,1/2+z
x,-y,-z
-x,y,1/2-z
-x,-y,-z
x,y,1/2-z
-x,y,z
x,-y,1/2+z
1/2+x,1/2+y,z
1/2-x,1/2-y,1/2+z
1/2+x,1/2-y,-z
1/2-x,1/2+y,1/2-z
1/2-x,1/2-y,-z
1/2+x,1/2+y,1/2-z
1/2-x,1/2+y,z
1/2+x,1/2-y,1/2+z
loop_
_atom_site_type_symbol
_atom_site_label
_atom_site_fract_x
_atom_site_fract_y
_atom_site_fract_z
Si Si1 0.752303 0.522768 0.590073
Si Si2 0.174882 0.728164 0.026546
Si Si3 0.066442 0.682919 0.182872
Si Si4 0.848005 0.408014 0.318723
Si Si5 0.432315 0.611933 0.919517
Si Si6 0.358782 0.671182 0.403748
O O1 0.797070 0.416423 0.555154
O O2 0.718280 0.639458 0.548485
O O3 0.786986 0.583773 0.645475
O O4 0.698506 0.423288 0.613438
O O5 0.110645 0.772553 0.049484
O O6 0.164145 0.732937 0.958167
O O7 0.070441 0.716572 0.250000
O O8 0.114920 0.557844 0.170510
O O9 0.072739 0.831064 0.146048
O O10 0.000000 0.624785 0.170838
O O11 0.841573 0.388997 0.250000
O O12 0.879711 0.272338 0.351374
O O13 0.500000 0.620063 0.937817
O O14 0.406499 0.447733 0.925089
#
# Coordination Sequence:
#
# PCOD9474586 Si02
#       6
#    16  16  16  16  16  16
#     4  11  21  40  60  88 122 158 204 243 294 364
#     4  11  23  39  65  92 121 166 201 247 299 367
#     4   9  19  39  64  86 115 162 211 249 295 362
#     4  11  24  40  60  88 122 158 202 257 307 351
#     4  10  21  40  63  93 125 156 201 252 306 359
#     4  11  25  38  60  92 121 164 198 246 307 362
#
# _framework density 20.133863999999999
#
# number of rings (size 3 to 8) (size 9 to 14) (size 15 to 20)
#    0.000    1.500    3.333    2.500    2.333    3.333 
#    0.000    2.500    0.000    2.000    0.000    0.000 
#    0.000    0.000    0.000    0.000    0.000    0.000 
#
# Total GULP energy -267900.384843 kJ/mol
# GULP energy per Si atom -5581.258018 kJ/mol
# Density = 2.008804 g / cm^3
# Si number density = 20.133864 Si / 1000 Ang^3
#
#
#
# Elastic Constant Matrix: (Units=GPa)
#
#
# Indices 1 2 3 4 5 6 
#
# 1 110.2714 20.6350 25.3235 0.0000 0.0000 0.0000
# 2 20.6350 82.8180 30.1097 0.0000 0.0000 0.0000
# 3 25.3235 30.1097 99.9257 0.0000 0.0000 0.0000
# 4 0.0000 0.0000 0.0000 33.8549 0.0000 0.0000
# 5 0.0000 0.0000 0.0000 0.0000 26.4486 0.0000
# 6 0.0000 0.0000 0.0000 0.0000 0.0000 26.2234
#
#
#
# Elastic Compliance Matrix: (Units=1/GPa)
#
#
# Indices 1 2 3 4 5 6 
#
# 1 0.009846 -0.001736 -0.001972 0.000000 0.000000 0.000000
# 2 -0.001736 0.013866 -0.003738 0.000000 0.000000 0.000000
# 3 -0.001972 -0.003738 0.011634 0.000000 0.000000 0.000000
# 4 0.000000 0.000000 0.000000 0.029538 0.000000 0.000000
# 5 0.000000 0.000000 0.000000 0.000000 0.037809 0.000000
# 6 0.000000 0.000000 0.000000 0.000000 0.000000 0.038134
#
#
# Mechanical properties :
#
#
# Convention : Reuss Voigt Hill
#
# Bulk Modulus (GPa) = 48.89245 49.46127 49.17686
# Shear Modulus (GPa) = 30.76201 31.76851 31.26526
#
# Velocity S-wave (km/s) = 3.91304 3.97654 3.94492
# Velocity P-wave (km/s) = 6.68971 6.76043 6.72516
#
# Compressibility (1/GPa) = 0.02045306
#
# Stress axis : x y z
#
# Youngs Moduli (GPa) = 101.56059 72.11687 85.95783
#
# Poissons Ratio (x) = 0.12522 0.16952
# Poissons Ratio (y) = 0.17634 0.32133
# Poissons Ratio (z) = 0.20029 0.26959
#
# Static dielectric constant tensor:
#      x y z
#    x 1.742680 0.000000 0.000000 
#    y 0.000000 1.747290 0.000000 
#    z 0.000000 0.000000 1.735720 
# 
# From -- ./inp_files/64936.got.cif
#   From: 2010.05.17/outbox.cif.g08.bks.cpg/sg63_33_cif.got.tgz:64936.got - 2010.06.03 15:47:04.
