data_PCOD9474396
_publ_section_title
;
Structure prediction by ZEFSAII (Michael W. Deem and Ramdas Pophale) SiO2 
 PCOD9474396
Probable space group: C M C M
;
_chemical_formula_sum "Si O2"
_cell_formula_units_Z 56
_cell_length_a 10.494144
_cell_length_b 25.785003
_cell_length_c 10.214097
_cell_angle_alpha 90.000000
_cell_angle_beta 90.000000
_cell_angle_gamma 90.000000
_cell_volume 2763.848181
_symmetry_space_group_name_H-M "C M C M"
_symmetry_group_IT_number 63
_symmetry_cell_setting 'orthorhombic'
loop_
_space_group_symop_operation_xyz
x,y,z
-x,-y,1/2+z
x,-y,-z
-x,y,1/2-z
-x,-y,-z
x,y,1/2-z
-x,y,z
x,-y,1/2+z
1/2+x,1/2+y,z
1/2-x,1/2-y,1/2+z
1/2+x,1/2-y,-z
1/2-x,1/2+y,1/2-z
1/2-x,1/2-y,-z
1/2+x,1/2+y,1/2-z
1/2-x,1/2+y,z
1/2+x,1/2-y,1/2+z
loop_
_atom_site_type_symbol
_atom_site_label
_atom_site_fract_x
_atom_site_fract_y
_atom_site_fract_z
Si Si1 0.654007 0.799012 0.750000
Si Si2 0.150191 0.825202 0.250000
Si Si3 0.854885 0.463587 0.895347
Si Si4 0.734455 0.631296 0.473715
Si Si5 0.000000 0.947610 0.593925
O O1 0.500000 0.812335 0.750000
O O2 0.661548 0.736977 0.750000
O O3 0.730834 0.822778 0.873585
O O4 0.210498 0.848200 0.381648
O O5 0.000000 0.838313 0.250000
O O6 0.799154 0.464060 0.750000
O O7 0.853099 0.406935 0.955923
O O8 0.000000 0.481347 0.881113
O O9 0.788109 0.500000 0.000000
O O10 0.619065 0.592023 0.433685
O O11 0.000000 0.961636 0.750000
O O12 0.000000 0.000000 0.500000
#
# Coordination Sequence:
#
# PCOD9474396 Si02
#       5
#     8   8  16  16   8
#     4  11  24  47  73  97 131 181 235 285 353 400
#     4  11  26  44  68 100 134 179 228 290 344 415
#     4  10  21  38  62  92 129 171 217 269 331 401
#     4  12  23  43  68  97 138 175 223 284 341 409
#     4  12  26  42  70 106 142 186 232 282 351 424
#
# _framework density 20.261604999999999
#
# number of rings (size 3 to 8) (size 9 to 14) (size 15 to 20)
#    0.000    0.857    4.286    2.571    4.000    0.000 
#    0.000    2.143    3.143    0.000    0.000    0.000 
#    0.000    0.000    0.000    0.000    0.000    0.000 
#
# Total GULP energy -156002.444341 kJ/mol
# GULP energy per Si atom -5571.515869 kJ/mol
# Density = 2.021549 g / cm^3
# Si number density = 20.261605 Si / 1000 Ang^3
#
#
#
# Elastic Constant Matrix: (Units=GPa)
#
#
# Indices 1 2 3 4 5 6 
#
# 1 96.0527 20.5558 58.1898 0.0000 0.0000 0.0000
# 2 20.5558 97.1094 106.0304 0.0000 0.0000 0.0000
# 3 58.1898 106.0304 261.6241 0.0000 0.0000 0.0000
# 4 0.0000 0.0000 0.0000 30.8872 0.0000 0.0000
# 5 0.0000 0.0000 0.0000 0.0000 1.5898 0.0000
# 6 0.0000 0.0000 0.0000 0.0000 0.0000 35.7954
#
#
#
# Elastic Compliance Matrix: (Units=1/GPa)
#
#
# Indices 1 2 3 4 5 6 
#
# 1 0.012057 0.000674 -0.002955 0.000000 0.000000 0.000000
# 2 0.000674 0.018509 -0.007651 0.000000 0.000000 0.000000
# 3 -0.002955 -0.007651 0.007580 0.000000 0.000000 0.000000
# 4 0.000000 0.000000 0.000000 0.032376 0.000000 0.000000
# 5 0.000000 0.000000 0.000000 0.000000 0.629011 0.000000
# 6 0.000000 0.000000 0.000000 0.000000 0.000000 0.027937
#
#
# Mechanical properties :
#
#
# Convention : Reuss Voigt Hill
#
# Bulk Modulus (GPa) = 54.69762 91.59313 73.14537
# Shear Modulus (GPa) = 6.63634 31.65517 19.14575
#
# Velocity S-wave (km/s) = 1.81175 3.95691 3.07730
# Velocity P-wave (km/s) = 5.60633 8.13508 6.98607
#
# Compressibility (1/GPa) = 0.01828233
#
# Stress axis : x y z
#
# Youngs Moduli (GPa) = 82.94101 54.02740 131.91946
#
# Poissons Ratio (x) = -0.03642 0.38980
# Poissons Ratio (y) = -0.05592 1.00935
# Poissons Ratio (z) = 0.24508 0.41338
#
# Static dielectric constant tensor:
#      x y z
#    x 1.838790 0.000000 0.000000 
#    y 0.000000 1.741140 0.000000 
#    z 0.000000 0.000000 1.386260 
# 
# From -- ./inp_files/2869.got.cif
#   From: 2010.05.17/outbox.cif.g08.bks.cpg/sg63_2_cif.got.tgz:2869.got - 2010.06.03 15:47:04.
