data_PCOD9474097
_publ_section_title
;
Structure prediction by ZEFSAII (Michael W. Deem and Ramdas Pophale) SiO2 
 PCOD9474097
Probable space group: C M C M
;
_chemical_formula_sum "Si O2"
_cell_formula_units_Z 96
_cell_length_a 25.640596
_cell_length_b 24.036422
_cell_length_c 8.752104
_cell_angle_alpha 90.000000
_cell_angle_beta 90.000000
_cell_angle_gamma 90.000000
_cell_volume 5393.993338
_symmetry_space_group_name_H-M "C M C M"
_symmetry_group_IT_number 63
_symmetry_cell_setting 'orthorhombic'
loop_
_space_group_symop_operation_xyz
x,y,z
-x,-y,1/2+z
x,-y,-z
-x,y,1/2-z
-x,-y,-z
x,y,1/2-z
-x,y,z
x,-y,1/2+z
1/2+x,1/2+y,z
1/2-x,1/2-y,1/2+z
1/2+x,1/2-y,-z
1/2-x,1/2+y,1/2-z
1/2-x,1/2-y,-z
1/2+x,1/2+y,1/2-z
1/2-x,1/2+y,z
1/2+x,1/2-y,1/2+z
loop_
_atom_site_type_symbol
_atom_site_label
_atom_site_fract_x
_atom_site_fract_y
_atom_site_fract_z
Si Si1 0.938677 0.560735 0.932177
Si Si2 0.059943 0.060230 0.934160
Si Si3 0.652611 0.359530 0.066823
Si Si4 0.847457 0.630946 0.067663
Si Si5 0.248032 0.438807 0.067550
Si Si6 0.808291 0.253880 0.432042
O O1 0.930535 0.560018 0.750000
O O2 0.000000 0.570853 0.962034
O O3 0.925673 0.500000 0.000000
O O4 0.901797 0.606120 0.008593
O O5 0.061680 0.056760 0.750000
O O6 0.100588 0.107585 0.980747
O O7 0.000000 0.071592 0.980096
O O8 0.074883 0.000000 0.000000
O O9 0.650590 0.349413 0.250000
O O10 0.701863 0.399918 0.038116
O O11 0.661777 0.301810 0.981763
O O12 0.846381 0.633099 0.250000
O O13 0.802023 0.590046 0.007715
O O14 0.835534 0.691475 0.999374
O O15 0.240539 0.442169 0.250000
O O16 0.256011 0.500000 0.000000
O O17 0.804896 0.258339 0.250000
O O18 0.750000 0.250000 0.500000
#
# Coordination Sequence:
#
# PCOD9474097 Si02
#       6
#    16  16  16  16  16  16
#     4  10  21  39  63  90 121 156 195 240 291 347
#     4   9  18  34  57  85 117 153 193 236 284 337
#     4  10  21  37  57  82 114 153 194 239 289 345
#     4  12  24  39  60  85 116 153 196 240 289 347
#     4  11  22  35  54  81 116 150 189 238 291 350
#     4  12  24  40  61  84 113 152 195 240 293 351
#
# _framework density 17.797574999999998
#
# number of rings (size 3 to 8) (size 9 to 14) (size 15 to 20)
#    0.000    1.333    1.667    5.000    0.000    2.333 
#    0.000    0.833    0.000    3.000    0.000    0.000 
#    0.000    0.000    0.000    0.000    0.000    0.000 
#
# Total GULP energy -268363.003766 kJ/mol
# GULP energy per Si atom -5590.895912 kJ/mol
# Density = 1.775707 g / cm^3
# Si number density = 17.797575 Si / 1000 Ang^3
#
#
#
# Elastic Constant Matrix: (Units=GPa)
#
#
# Indices 1 2 3 4 5 6 
#
# 1 95.3618 76.1823 60.6523 0.0000 0.0000 0.0000
# 2 76.1823 155.7164 78.2279 0.0000 0.0000 0.0000
# 3 60.6523 78.2279 108.9080 0.0000 0.0000 0.0000
# 4 0.0000 0.0000 0.0000 34.1140 0.0000 0.0000
# 5 0.0000 0.0000 0.0000 0.0000 15.4521 0.0000
# 6 0.0000 0.0000 0.0000 0.0000 0.0000 19.9484
#
#
#
# Elastic Compliance Matrix: (Units=1/GPa)
#
#
# Indices 1 2 3 4 5 6 
#
# 1 0.019648 -0.006439 -0.006317 0.000000 0.000000 0.000000
# 2 -0.006439 0.012158 -0.005147 0.000000 0.000000 0.000000
# 3 -0.006317 -0.005147 0.016397 0.000000 0.000000 0.000000
# 4 0.000000 0.000000 0.000000 0.029314 0.000000 0.000000
# 5 0.000000 0.000000 0.000000 0.000000 0.064716 0.000000
# 6 0.000000 0.000000 0.000000 0.000000 0.000000 0.050129
#
#
# Mechanical properties :
#
#
# Convention : Reuss Voigt Hill
#
# Bulk Modulus (GPa) = 80.66522 87.79011 84.22767
# Shear Modulus (GPa) = 21.52381 23.56448 22.54415
#
# Velocity S-wave (km/s) = 3.48137 3.64267 3.56293
# Velocity P-wave (km/s) = 7.84742 8.19305 8.02210
#
# Compressibility (1/GPa) = 0.01239692
#
# Stress axis : x y z
#
# Youngs Moduli (GPa) = 50.89493 82.25160 60.98600
#
# Poissons Ratio (x) = 0.52962 0.38527
# Poissons Ratio (y) = 0.32772 0.31389
# Poissons Ratio (z) = 0.32152 0.42334
#
# Static dielectric constant tensor:
#      x y z
#    x 1.601160 0.000000 0.000000 
#    y 0.000000 1.573340 0.000000 
#    z 0.000000 0.000000 1.598810 
# 
# From -- ./inp_files/10506.got.cif
#   From: 2010.05.17/outbox.cif.g08.bks.cpg/sg63_6_cif.got.tgz:10506.got - 2010.06.03 15:47:04.
