data_PCOD9474126
_publ_section_title
;
Structure prediction by ZEFSAII (Michael W. Deem and Ramdas Pophale) SiO2 
 PCOD9474126
Probable space group: C M C M
;
_chemical_formula_sum "Si O2"
_cell_formula_units_Z 96
_cell_length_a 23.801208
_cell_length_b 26.040764
_cell_length_c 8.800386
_cell_angle_alpha 90.000000
_cell_angle_beta 90.000000
_cell_angle_gamma 90.000000
_cell_volume 5454.493679
_symmetry_space_group_name_H-M "C M C M"
_symmetry_group_IT_number 63
_symmetry_cell_setting 'orthorhombic'
loop_
_space_group_symop_operation_xyz
x,y,z
-x,-y,1/2+z
x,-y,-z
-x,y,1/2-z
-x,-y,-z
x,y,1/2-z
-x,y,z
x,-y,1/2+z
1/2+x,1/2+y,z
1/2-x,1/2-y,1/2+z
1/2+x,1/2-y,-z
1/2-x,1/2+y,1/2-z
1/2-x,1/2-y,-z
1/2+x,1/2+y,1/2-z
1/2-x,1/2+y,z
1/2+x,1/2-y,1/2+z
loop_
_atom_site_type_symbol
_atom_site_label
_atom_site_fract_x
_atom_site_fract_y
_atom_site_fract_z
Si Si1 0.251861 0.692638 0.568445
Si Si2 0.065237 0.445514 0.432736
Si Si3 0.364797 0.649301 0.069111
Si Si4 0.434733 0.443523 0.432015
Si Si5 0.873818 0.658278 0.567456
Si Si6 0.933333 0.756989 0.429680
O O1 0.259178 0.696371 0.750000
O O2 0.250000 0.750000 0.500000
O O3 0.303414 0.661454 0.497697
O O4 0.192034 0.666101 0.537040
O O5 0.083501 0.500000 0.500000
O O6 0.066841 0.448756 0.250000
O O7 0.102612 0.397111 0.479614
O O8 0.000000 0.436925 0.477998
O O9 0.362114 0.645916 0.250000
O O10 0.393159 0.598442 0.000944
O O11 0.403275 0.697349 0.019423
O O12 0.424485 0.500000 0.500000
O O13 0.429199 0.444851 0.250000
O O14 0.500000 0.429803 0.467520
O O15 0.882179 0.663507 0.750000
O O16 0.907696 0.703384 0.485369
O O17 0.922704 0.763910 0.250000
O O18 0.000000 0.757890 0.454925
#
# Coordination Sequence:
#
# PCOD9474126 Si02
#       6
#    16  16  16  16  16  16
#     4  11  22  38  59  83 113 152 196 240 290 345
#     4   9  18  34  56  82 112 145 182 225 275 332
#     4  12  24  38  58  84 115 155 197 237 287 344
#     4  10  21  39  63  90 120 153 191 239 294 351
#     4  10  21  37  58  82 110 148 190 233 284 344
#     4  11  23  36  54  83 116 147 183 235 293 346
#
# _framework density 17.600166999999999
#
# number of rings (size 3 to 8) (size 9 to 14) (size 15 to 20)
#    0.000    1.500    1.667    4.000    0.000    6.333 
#    0.000    2.500    0.000    2.000    0.000    0.000 
#    0.000    0.000    0.000    0.000    0.000    0.000 
#
# Total GULP energy -268257.781174 kJ/mol
# GULP energy per Si atom -5588.703774 kJ/mol
# Density = 1.756011 g / cm^3
# Si number density = 17.600167 Si / 1000 Ang^3
#
#
#
# Elastic Constant Matrix: (Units=GPa)
#
#
# Indices 1 2 3 4 5 6 
#
# 1 79.3608 56.2245 47.0485 0.0000 0.0000 0.0000
# 2 56.2245 125.3095 42.6818 0.0000 0.0000 0.0000
# 3 47.0485 42.6818 67.7735 0.0000 0.0000 0.0000
# 4 0.0000 0.0000 0.0000 36.2176 0.0000 0.0000
# 5 0.0000 0.0000 0.0000 0.0000 26.1575 0.0000
# 6 0.0000 0.0000 0.0000 0.0000 0.0000 -12.8572
#
#
#
# Elastic Compliance Matrix: (Units=1/GPa)
#
#
# Indices 1 2 3 4 5 6 
#
# 1 0.025308 -0.006838 -0.013262 0.000000 0.000000 0.000000
# 2 -0.006838 0.012007 -0.002815 0.000000 0.000000 0.000000
# 3 -0.013262 -0.002815 0.025734 0.000000 0.000000 0.000000
# 4 0.000000 0.000000 0.000000 0.027611 0.000000 0.000000
# 5 0.000000 0.000000 0.000000 0.000000 0.038230 0.000000
# 6 0.000000 0.000000 0.000000 0.000000 0.000000 -0.077777
#
#
# Mechanical properties :
#
#
# Convention : Reuss Voigt Hill
#
# Bulk Modulus (GPa) = 58.07504 62.70593 60.39049
# Shear Modulus (GPa) = 48.69411 18.33620 33.51515
#
# Velocity S-wave (km/s) = 5.26563 3.23122 4.36851
# Velocity P-wave (km/s) = 8.36885 7.04460 7.73512
#
# Compressibility (1/GPa) = 0.01721910
#
# Stress axis : x y z
#
# Youngs Moduli (GPa) = 39.51397 83.28451 38.85845
#
# Poissons Ratio (x) = 0.56949 0.51535
# Poissons Ratio (y) = 0.27019 0.10938
# Poissons Ratio (z) = 0.52404 0.23443
#
# Static dielectric constant tensor:
#      x y z
#    x 1.586140 0.000000 0.000000 
#    y 0.000000 1.565070 0.000000 
#    z 0.000000 0.000000 1.591270 
# 
# From -- ./inp_files/10457.got.cif
#   From: 2010.05.17/outbox.cif.g08.bks.cpg/sg63_6_cif.got.tgz:10457.got - 2010.06.03 15:47:04.
