data_PCOD9474027
_publ_section_title
;
Structure prediction by ZEFSAII (Michael W. Deem and Ramdas Pophale) SiO2 
 PCOD9474027
Probable space group: C M C M
;
_chemical_formula_sum "Si O2"
_cell_formula_units_Z 116
_cell_length_a 7.721788
_cell_length_b 25.993138
_cell_length_c 28.797658
_cell_angle_alpha 90.000000
_cell_angle_beta 90.000000
_cell_angle_gamma 90.000000
_cell_volume 5780.078760
_symmetry_space_group_name_H-M "C M C M"
_symmetry_group_IT_number 63
_symmetry_cell_setting 'orthorhombic'
loop_
_space_group_symop_operation_xyz
x,y,z
-x,-y,1/2+z
x,-y,-z
-x,y,1/2-z
-x,-y,-z
x,y,1/2-z
-x,y,z
x,-y,1/2+z
1/2+x,1/2+y,z
1/2-x,1/2-y,1/2+z
1/2+x,1/2-y,-z
1/2-x,1/2+y,1/2-z
1/2-x,1/2-y,-z
1/2+x,1/2+y,1/2-z
1/2-x,1/2+y,z
1/2+x,1/2-y,1/2+z
loop_
_atom_site_type_symbol
_atom_site_label
_atom_site_fract_x
_atom_site_fract_y
_atom_site_fract_z
Si Si1 0.707265 0.671107 0.872940
Si Si2 0.196551 0.060749 0.890712
Si Si3 0.305541 0.085300 0.508929
Si Si4 0.000000 0.400370 0.750000
Si Si5 0.710601 0.374708 0.827407
Si Si6 0.706509 0.696855 0.975578
Si Si7 0.292105 0.451335 0.908983
Si Si8 0.206837 0.240153 0.197404
O O1 0.500000 0.666063 0.876949
O O2 0.776851 0.612657 0.869294
O O3 0.768999 0.694564 0.922051
O O4 0.742101 0.709936 0.831483
O O5 0.000000 0.057131 0.872510
O O6 0.276845 0.004300 0.886436
O O7 0.191942 0.071349 0.946328
O O8 0.500000 0.074719 0.524302
O O9 0.282235 0.146164 0.500182
O O10 0.270354 0.056067 0.461382
O O11 0.844147 0.397743 0.790159
O O12 0.500000 0.380314 0.816916
O O13 0.743520 0.402925 0.876151
O O14 0.750831 0.313637 0.827369
O O15 0.500000 0.691085 0.976048
O O16 0.750000 0.750000 0.000000
O O17 0.500000 0.456246 0.911863
O O18 0.278325 0.239192 0.250000
O O19 0.000000 0.240980 0.200701
#
# Coordination Sequence:
#
# PCOD9474027 Si02
#       8
#    16  16  16   4  16  16  16  16
#     4   9  20  35  57  83 109 144 194 238 281 347
#     4   9  19  39  60  81 113 158 201 240 293 349
#     4  11  22  34  53  84 119 155 199 242 287 346
#     4  12  22  40  68  86 122 160 186 248 306 360
#     4  10  23  40  61  93 121 153 196 241 303 368
#     4  10  21  37  53  78 116 156 192 233 285 347
#     4  10  21  38  61  84 116 156 197 247 296 354
#     4  10  21  38  59  83 115 148 189 238 294 360
#
# _framework density 20.068930000000002
#
# number of rings (size 3 to 8) (size 9 to 14) (size 15 to 20)
#    0.000    2.069    0.690    3.103    3.862    5.241 
#    0.000    0.000    1.517    0.000    0.000    0.000 
#    0.000    0.000    0.000    0.000    0.000    0.000 
#
# Total GULP energy -322959.103552 kJ/mol
# GULP energy per Si atom -5568.260406 kJ/mol
# Density = 2.002325 g / cm^3
# Si number density = 20.068930 Si / 1000 Ang^3
#
#
#
# Elastic Constant Matrix: (Units=GPa)
#
#
# Indices 1 2 3 4 5 6 
#
# 1 59.1069 -4.2287 4.9457 0.0000 0.0000 0.0000
# 2 -4.2287 142.4878 50.4119 0.0000 0.0000 0.0000
# 3 4.9457 50.4119 48.9630 0.0000 0.0000 0.0000
# 4 0.0000 0.0000 0.0000 4.3898 0.0000 0.0000
# 5 0.0000 0.0000 0.0000 0.0000 24.7859 0.0000
# 6 0.0000 0.0000 0.0000 0.0000 0.0000 15.1374
#
#
#
# Elastic Compliance Matrix: (Units=1/GPa)
#
#
# Indices 1 2 3 4 5 6 
#
# 1 0.017347 0.001785 -0.003590 0.000000 0.000000 0.000000
# 2 0.001785 0.011223 -0.011735 0.000000 0.000000 0.000000
# 3 -0.003590 -0.011735 0.032869 0.000000 0.000000 0.000000
# 4 0.000000 0.000000 0.000000 0.227800 0.000000 0.000000
# 5 0.000000 0.000000 0.000000 0.000000 0.040345 0.000000
# 6 0.000000 0.000000 0.000000 0.000000 0.000000 0.066061
#
#
# Mechanical properties :
#
#
# Convention : Reuss Voigt Hill
#
# Bulk Modulus (GPa) = 29.10557 39.20170 34.15364
# Shear Modulus (GPa) = 11.51598 22.15789 16.83693
#
# Velocity S-wave (km/s) = 2.39806 3.32639 2.89961
# Velocity P-wave (km/s) = 4.71188 5.85910 5.31653
#
# Compressibility (1/GPa) = 0.03435769
#
# Stress axis : x y z
#
# Youngs Moduli (GPa) = 57.64827 89.10187 30.42386
#
# Poissons Ratio (x) = -0.15904 0.10922
# Poissons Ratio (y) = -0.10290 0.35704
# Poissons Ratio (z) = 0.20695 1.04565
#
# Static dielectric constant tensor:
#      x y z
#    x 1.760370 0.000000 0.000000 
#    y 0.000000 1.745660 0.000000 
#    z 0.000000 0.000000 1.689580 
# 
# From -- ./inp_files/67638.got.cif
#   From: 2010.05.17/outbox.cif.g08.bks.cpg/sg63_34_cif.got.tgz:67638.got - 2010.06.03 15:47:04.
