data_PCOD9474862
_publ_section_title
;
Structure prediction by ZEFSAII (Michael W. Deem and Ramdas Pophale) SiO2 
 PCOD9474862
Probable space group: C M C M
;
_chemical_formula_sum "Si O2"
_cell_formula_units_Z 64
_cell_length_a 18.025730
_cell_length_b 6.987877
_cell_length_c 25.381545
_cell_angle_alpha 90.000000
_cell_angle_beta 90.000000
_cell_angle_gamma 90.000000
_cell_volume 3197.099614
_symmetry_space_group_name_H-M "C M C M"
_symmetry_group_IT_number 63
_symmetry_cell_setting 'orthorhombic'
loop_
_space_group_symop_operation_xyz
x,y,z
-x,-y,1/2+z
x,-y,-z
-x,y,1/2-z
-x,-y,-z
x,y,1/2-z
-x,y,z
x,-y,1/2+z
1/2+x,1/2+y,z
1/2-x,1/2-y,1/2+z
1/2+x,1/2-y,-z
1/2-x,1/2+y,1/2-z
1/2-x,1/2-y,-z
1/2+x,1/2+y,1/2-z
1/2-x,1/2+y,z
1/2+x,1/2-y,1/2+z
loop_
_atom_site_type_symbol
_atom_site_label
_atom_site_fract_x
_atom_site_fract_y
_atom_site_fract_z
Si Si1 0.087261 0.551961 0.689012
Si Si2 0.703626 0.985518 0.557698
Si Si3 0.657455 0.655223 0.114988
Si Si4 0.916160 0.235502 0.599476
O O1 0.102251 0.510526 0.750000
O O2 0.138729 0.722829 0.667039
O O3 0.096182 0.364912 0.652031
O O4 0.000000 0.608175 0.684015
O O5 0.763422 0.946825 0.603863
O O6 0.644844 0.814475 0.559326
O O7 0.738501 0.000000 0.500000
O O8 0.659409 0.178868 0.570931
O O9 0.598536 0.486620 0.109598
O O10 0.000000 0.268596 0.581735
#
# Coordination Sequence:
#
# PCOD9474862 Si02
#       4
#    16  16  16  16
#     4   9  20  40  64  89 120 158 199 248 309 369
#     4  11  23  39  63  86 123 169 207 246 305 364
#     4  11  21  37  63  90 119 160 206 250 297 363
#     4  10  22  39  61  90 121 155 204 257 301 358
#
# _framework density 20.018142000000001
#
# number of rings (size 3 to 8) (size 9 to 14) (size 15 to 20)
#    0.000    1.750    2.500    1.500    0.000    2.500 
#    0.000    8.750    0.000    0.000    0.000    0.000 
#    0.000    0.000    0.000    0.000    0.000    0.000 
#
# Total GULP energy -178368.465159 kJ/mol
# GULP energy per Si atom -5574.014536 kJ/mol
# Density = 1.997258 g / cm^3
# Si number density = 20.018142 Si / 1000 Ang^3
#
#
#
# Elastic Constant Matrix: (Units=GPa)
#
#
# Indices 1 2 3 4 5 6 
#
# 1 72.3212 12.1625 27.5771 0.0000 0.0000 0.0000
# 2 12.1625 109.0709 16.8910 0.0000 0.0000 0.0000
# 3 27.5771 16.8910 80.3190 0.0000 0.0000 0.0000
# 4 0.0000 0.0000 0.0000 12.2451 0.0000 0.0000
# 5 0.0000 0.0000 0.0000 0.0000 26.1790 0.0000
# 6 0.0000 0.0000 0.0000 0.0000 0.0000 38.4629
#
#
#
# Elastic Compliance Matrix: (Units=1/GPa)
#
#
# Indices 1 2 3 4 5 6 
#
# 1 0.016008 -0.000965 -0.005293 0.000000 0.000000 0.000000
# 2 -0.000965 0.009535 -0.001674 0.000000 0.000000 0.000000
# 3 -0.005293 -0.001674 0.014620 0.000000 0.000000 0.000000
# 4 0.000000 0.000000 0.000000 0.081666 0.000000 0.000000
# 5 0.000000 0.000000 0.000000 0.000000 0.038199 0.000000
# 6 0.000000 0.000000 0.000000 0.000000 0.000000 0.025999
#
#
# Mechanical properties :
#
#
# Convention : Reuss Voigt Hill
#
# Bulk Modulus (GPa) = 41.15536 41.66359 41.40947
# Shear Modulus (GPa) = 23.81063 29.04942 26.43003
#
# Velocity S-wave (km/s) = 3.45259 3.81354 3.63754
# Velocity P-wave (km/s) = 6.04131 6.34420 6.19461
#
# Compressibility (1/GPa) = 0.02429817
#
# Stress axis : x y z
#
# Youngs Moduli (GPa) = 62.46908 104.87454 68.40058
#
# Poissons Ratio (x) = 0.10124 0.36206
# Poissons Ratio (y) = 0.06030 0.11449
# Poissons Ratio (z) = 0.33066 0.17554
#
# Static dielectric constant tensor:
#      x y z
#    x 1.730780 0.000000 0.000000 
#    y 0.000000 1.732450 0.000000 
#    z 0.000000 0.000000 1.694370 
# 
# From -- ./inp_files/70153.got.cif
#   From: 2010.05.17/outbox.cif.g08.bks.cpg/sg63_36_cif.got.tgz:70153.got - 2010.06.03 15:47:04.
