data_PCOD9474319
_publ_section_title
;
Structure prediction by ZEFSAII (Michael W. Deem and Ramdas Pophale) SiO2 
 PCOD9474319
Probable space group: C M C M
;
_chemical_formula_sum "Si O2"
_cell_formula_units_Z 80
_cell_length_a 11.900112
_cell_length_b 20.427922
_cell_length_c 16.454266
_cell_angle_alpha 90.000000
_cell_angle_beta 90.000000
_cell_angle_gamma 90.000000
_cell_volume 3999.942549
_symmetry_space_group_name_H-M "C M C M"
_symmetry_group_IT_number 63
_symmetry_cell_setting 'orthorhombic'
loop_
_space_group_symop_operation_xyz
x,y,z
-x,-y,1/2+z
x,-y,-z
-x,y,1/2-z
-x,-y,-z
x,y,1/2-z
-x,y,z
x,-y,1/2+z
1/2+x,1/2+y,z
1/2-x,1/2-y,1/2+z
1/2+x,1/2-y,-z
1/2-x,1/2+y,1/2-z
1/2-x,1/2-y,-z
1/2+x,1/2+y,1/2-z
1/2-x,1/2+y,z
1/2+x,1/2-y,1/2+z
loop_
_atom_site_type_symbol
_atom_site_label
_atom_site_fract_x
_atom_site_fract_y
_atom_site_fract_z
Si Si1 0.729791 0.255123 0.154953
Si Si2 0.500000 0.473416 0.152863
Si Si3 0.500000 0.677222 0.651281
Si Si4 0.372107 0.136384 0.582404
Si Si5 0.254294 0.493361 0.097413
Si Si6 0.871097 0.377987 0.886852
O O1 0.743654 0.270674 0.250000
O O2 0.612182 0.286209 0.124474
O O3 0.826704 0.292521 0.106988
O O4 0.711847 0.177952 0.145380
O O5 0.500000 0.474069 0.250000
O O6 0.500000 0.397693 0.124479
O O7 0.383009 0.503123 0.122949
O O8 0.500000 0.678595 0.750000
O O9 0.500000 0.126385 0.609975
O O10 0.292047 0.079099 0.617875
O O11 0.371220 0.129335 0.484824
O O12 0.175140 0.550073 0.132894
O O13 0.248170 0.500000 0.000000
O O14 0.000000 0.368638 0.858330
#
# Coordination Sequence:
#
# PCOD9474319 Si02
#       6
#    16   8   8  16  16  16
#     4  11  21  37  59  83 113 149 191 237 281 336
#     4  11  21  37  59  83 113 149 191 237 281 336
#     4   9  18  33  57  81 102 141 193 239 271 318
#     4  10  21  38  60  86 115 149 190 237 287 339
#     4  10  21  38  60  86 115 149 190 237 287 339
#     4  10  21  38  60  86 115 149 190 237 287 339
#
# _framework density 20.000287
#
# number of rings (size 3 to 8) (size 9 to 14) (size 15 to 20)
#    0.000    1.800    3.000    1.500    0.000    3.600 
#    1.800    0.000    0.000    3.600    0.000    0.000 
#    0.000    0.000    0.000    0.000    0.000    0.000 
#
# Total GULP energy -223337.480178 kJ/mol
# GULP energy per Si atom -5583.437004 kJ/mol
# Density = 1.995477 g / cm^3
# Si number density = 20.000287 Si / 1000 Ang^3
#
#
#
# Elastic Constant Matrix: (Units=GPa)
#
#
# Indices 1 2 3 4 5 6 
#
# 1 99.0372 16.3754 9.5205 0.0000 0.0000 0.0000
# 2 16.3754 75.5319 3.5518 0.0000 0.0000 0.0000
# 3 9.5205 3.5518 16.3091 0.0000 0.0000 0.0000
# 4 0.0000 0.0000 0.0000 7.3284 0.0000 0.0000
# 5 0.0000 0.0000 0.0000 0.0000 7.7678 0.0000
# 6 0.0000 0.0000 0.0000 0.0000 0.0000 42.5527
#
#
#
# Elastic Compliance Matrix: (Units=1/GPa)
#
#
# Indices 1 2 3 4 5 6 
#
# 1 0.011020 -0.002108 -0.005974 0.000000 0.000000 0.000000
# 2 -0.002108 0.013780 -0.001770 0.000000 0.000000 0.000000
# 3 -0.005974 -0.001770 0.065188 0.000000 0.000000 0.000000
# 4 0.000000 0.000000 0.000000 0.136455 0.000000 0.000000
# 5 0.000000 0.000000 0.000000 0.000000 0.128736 0.000000
# 6 0.000000 0.000000 0.000000 0.000000 0.000000 0.023500
#
#
# Mechanical properties :
#
#
# Convention : Reuss Voigt Hill
#
# Bulk Modulus (GPa) = 14.22813 27.75261 20.99037
# Shear Modulus (GPa) = 11.85362 22.29183 17.07272
#
# Velocity S-wave (km/s) = 2.43713 3.34215 2.92485
# Velocity P-wave (km/s) = 3.87929 5.36652 4.68233
#
# Compressibility (1/GPa) = 0.07028330
#
# Stress axis : x y z
#
# Youngs Moduli (GPa) = 90.74341 72.57019 15.34020
#
# Poissons Ratio (x) = 0.15300 0.09164
# Poissons Ratio (y) = 0.19131 0.02716
# Poissons Ratio (z) = 0.54209 0.12847
#
# Static dielectric constant tensor:
#      x y z
#    x 1.682260 0.000000 0.000000 
#    y 0.000000 1.707440 0.000000 
#    z 0.000000 0.000000 1.693920 
# 
# From -- ./inp_files/42158.got.cif
#   From: 2010.05.17/outbox.cif.g08.bks.cpg/sg63_22_cif.got.tgz:42158.got - 2010.06.03 15:47:04.
