data_PCOD9474646
_publ_section_title
;
Structure prediction by ZEFSAII (Michael W. Deem and Ramdas Pophale) SiO2 
 PCOD9474646
Probable space group: C M C M
;
_chemical_formula_sum "Si O2"
_cell_formula_units_Z 100
_cell_length_a 9.145728
_cell_length_b 20.284336
_cell_length_c 29.324271
_cell_angle_alpha 90.000000
_cell_angle_beta 90.000000
_cell_angle_gamma 90.000000
_cell_volume 5440.092713
_symmetry_space_group_name_H-M "C M C M"
_symmetry_group_IT_number 63
_symmetry_cell_setting 'orthorhombic'
loop_
_space_group_symop_operation_xyz
x,y,z
-x,-y,1/2+z
x,-y,-z
-x,y,1/2-z
-x,-y,-z
x,y,1/2-z
-x,y,z
x,-y,1/2+z
1/2+x,1/2+y,z
1/2-x,1/2-y,1/2+z
1/2+x,1/2-y,-z
1/2-x,1/2+y,1/2-z
1/2-x,1/2-y,-z
1/2+x,1/2+y,1/2-z
1/2-x,1/2+y,z
1/2+x,1/2-y,1/2+z
loop_
_atom_site_type_symbol
_atom_site_label
_atom_site_fract_x
_atom_site_fract_y
_atom_site_fract_z
Si Si1 0.174091 0.996908 0.369215
Si Si2 0.327264 0.949062 0.541099
Si Si3 0.161255 0.632424 0.657231
Si Si4 0.000000 0.389437 0.250000
Si Si5 0.825298 0.732417 0.140127
Si Si6 0.325635 0.799261 0.965274
Si Si7 0.674371 0.900503 0.803884
O O1 0.234577 0.029027 0.415546
O O2 0.237476 0.041606 0.328288
O O3 0.000000 0.995855 0.368414
O O4 0.240043 0.923843 0.364759
O O5 0.500000 0.947517 0.554242
O O6 0.286032 0.875371 0.526100
O O7 0.309442 0.000000 0.500000
O O8 0.124593 0.613363 0.709328
O O9 0.237131 0.703269 0.654965
O O10 0.000000 0.634955 0.634198
O O11 0.790391 0.716436 0.087466
O O12 0.791941 0.668649 0.171185
O O13 0.000000 0.744072 0.143609
O O14 0.500000 0.793004 0.970329
O O15 0.250000 0.750000 0.000000
O O16 0.703587 0.896765 0.750000
O O17 0.500000 0.913323 0.809762
#
# Coordination Sequence:
#
# PCOD9474646 Si02
#       7
#    16  16  16   4  16  16  16
#     4  12  25  41  62  94 128 165 209 264 315 376
#     4  10  22  43  68  92 123 167 214 258 311 379
#     4  10  23  41  64  86 123 163 212 254 310 370
#     4   8  24  44  62  92 118 172 212 266 308 372
#     4  10  21  41  64  93 126 164 206 260 316 375
#     4  10  22  40  63  92 130 164 207 257 311 375
#     4  10  22  40  66  91 124 167 210 257 317 376
#
# _framework density 18.38204
#
# number of rings (size 3 to 8) (size 9 to 14) (size 15 to 20)
#    0.480    1.280    1.600    1.920    4.480    2.560 
#    0.000    0.800    0.000    0.000    0.000    0.000 
#    0.000    0.000    0.000    0.000    0.000    0.000 
#
# Total GULP energy -278672.006729 kJ/mol
# GULP energy per Si atom -5573.440135 kJ/mol
# Density = 1.834020 g / cm^3
# Si number density = 18.382040 Si / 1000 Ang^3
#
#
#
# Elastic Constant Matrix: (Units=GPa)
#
#
# Indices 1 2 3 4 5 6 
#
# 1 76.4238 53.8136 41.4512 0.0000 0.0000 0.0000
# 2 53.8136 75.1292 14.9300 0.0000 0.0000 0.0000
# 3 41.4512 14.9300 70.9361 0.0000 0.0000 0.0000
# 4 0.0000 0.0000 0.0000 17.4840 0.0000 0.0000
# 5 0.0000 0.0000 0.0000 0.0000 26.4654 0.0000
# 6 0.0000 0.0000 0.0000 0.0000 0.0000 20.5971
#
#
#
# Elastic Compliance Matrix: (Units=1/GPa)
#
#
# Indices 1 2 3 4 5 6 
#
# 1 0.041736 -0.026142 -0.018886 0.000000 0.000000 0.000000
# 2 -0.026142 0.030265 0.008906 0.000000 0.000000 0.000000
# 3 -0.018886 0.008906 0.023259 0.000000 0.000000 0.000000
# 4 0.000000 0.000000 0.000000 0.057195 0.000000 0.000000
# 5 0.000000 0.000000 0.000000 0.000000 0.037785 0.000000
# 6 0.000000 0.000000 0.000000 0.000000 0.000000 0.048551
#
#
# Mechanical properties :
#
#
# Convention : Reuss Voigt Hill
#
# Bulk Modulus (GPa) = 43.44778 49.20875 46.32826
# Shear Modulus (GPa) = 15.68833 20.39557 18.04195
#
# Velocity S-wave (km/s) = 2.92457 3.33459 3.13629
# Velocity P-wave (km/s) = 5.92381 6.45400 6.19458
#
# Compressibility (1/GPa) = 0.02301614
#
# Stress axis : x y z
#
# Youngs Moduli (GPa) = 23.95995 33.04097 42.99418
#
# Poissons Ratio (x) = 0.86375 0.81200
# Poissons Ratio (y) = 0.62636 -0.38290
# Poissons Ratio (z) = 0.45252 -0.29426
#
# Static dielectric constant tensor:
#      x y z
#    x 1.622130 0.000000 0.000000 
#    y 0.000000 1.616740 0.000000 
#    z 0.000000 0.000000 1.490630 
# 
# From -- ./inp_files/67079.got.cif
#   From: 2010.05.17/outbox.cif.g08.bks.cpg/sg63_34_cif.got.tgz:67079.got - 2010.06.03 15:47:04.
