data_PCOD9474951
_publ_section_title
;
Structure prediction by ZEFSAII (Michael W. Deem and Ramdas Pophale) SiO2 
 PCOD9474951
Probable space group: C M C M
;
_chemical_formula_sum "Si O2"
_cell_formula_units_Z 100
_cell_length_a 28.771768
_cell_length_b 20.091268
_cell_length_c 8.037876
_cell_angle_alpha 90.000000
_cell_angle_beta 90.000000
_cell_angle_gamma 90.000000
_cell_volume 4646.385064
_symmetry_space_group_name_H-M "C M C M"
_symmetry_group_IT_number 63
_symmetry_cell_setting 'orthorhombic'
loop_
_space_group_symop_operation_xyz
x,y,z
-x,-y,1/2+z
x,-y,-z
-x,y,1/2-z
-x,-y,-z
x,y,1/2-z
-x,y,z
x,-y,1/2+z
1/2+x,1/2+y,z
1/2-x,1/2-y,1/2+z
1/2+x,1/2-y,-z
1/2-x,1/2+y,1/2-z
1/2-x,1/2-y,-z
1/2+x,1/2+y,1/2-z
1/2-x,1/2+y,z
1/2+x,1/2-y,1/2+z
loop_
_atom_site_type_symbol
_atom_site_label
_atom_site_fract_x
_atom_site_fract_y
_atom_site_fract_z
Si Si1 0.000000 0.261655 0.250000
Si Si2 0.311456 0.427844 0.451173
Si Si3 0.363226 0.827471 0.557772
Si Si4 0.917514 0.927934 0.448744
Si Si5 0.934213 0.221398 0.950085
Si Si6 0.447286 0.077125 0.550171
Si Si7 0.261107 0.823642 0.056635
O O1 0.960897 0.258151 0.401051
O O2 0.293439 0.500000 0.500000
O O3 0.314618 0.424084 0.250000
O O4 0.364538 0.423227 0.514509
O O5 0.275930 0.374089 0.521372
O O6 0.352270 0.836268 0.750000
O O7 0.382420 0.752007 0.536832
O O8 0.405902 0.876799 0.515649
O O9 0.315189 0.840419 0.466543
O O10 0.916441 0.928974 0.250000
O O11 0.940256 0.856966 0.490361
O O12 0.937362 0.000000 0.500000
O O13 0.946392 0.231330 0.750000
O O14 0.447931 0.082414 0.750000
O O15 0.500000 0.095239 0.491579
O O16 0.439947 0.000000 0.500000
O O17 0.251508 0.826055 0.250000
O O18 0.250000 0.750000 0.000000
#
# Coordination Sequence:
#
# PCOD9474951 Si02
#       7
#     4  16  16  16  16  16  16
#     4  12  26  40  70  90 124 156 216 248 322 374
#     4   9  19  36  58  88 118 157 199 249 297 357
#     4  11  24  41  63  89 123 165 205 258 318 369
#     4   9  18  36  62  87 121 159 206 252 305 365
#     4  10  24  43  63  92 127 161 206 260 314 371
#     4  10  22  40  64  93 124 159 208 258 311 375
#     4  11  23  39  60  88 127 162 206 254 311 370
#
# _framework density 21.522107999999999
#
# number of rings (size 3 to 8) (size 9 to 14) (size 15 to 20)
#    0.000    1.920    0.000    2.640    4.480    5.440 
#    0.000    2.000    0.000    0.000    0.000    0.000 
#    0.000    0.000    0.000    0.000    0.000    0.000 
#
# Total GULP energy -278424.589817 kJ/mol
# GULP energy per Si atom -5568.491796 kJ/mol
# Density = 2.147312 g / cm^3
# Si number density = 21.522108 Si / 1000 Ang^3
#
#
#
# Elastic Constant Matrix: (Units=GPa)
#
#
# Indices 1 2 3 4 5 6 
#
# 1 53.2130 15.3631 -0.8615 0.0000 0.0000 0.0000
# 2 15.3631 86.7845 -3.6934 0.0000 0.0000 0.0000
# 3 -0.8615 -3.6934 54.9348 0.0000 0.0000 0.0000
# 4 0.0000 0.0000 0.0000 29.9704 0.0000 0.0000
# 5 0.0000 0.0000 0.0000 0.0000 5287.4644 0.0000
# 6 0.0000 0.0000 0.0000 0.0000 0.0000 328.4821
#
#
#
# Elastic Compliance Matrix: (Units=1/GPa)
#
#
# Indices 1 2 3 4 5 6 
#
# 1 0.019805 -0.003503 0.000075 0.000000 0.000000 0.000000
# 2 -0.003503 0.012175 0.000764 0.000000 0.000000 0.000000
# 3 0.000075 0.000764 0.018256 0.000000 0.000000 0.000000
# 4 0.000000 0.000000 0.000000 0.033366 0.000000 0.000000
# 5 0.000000 0.000000 0.000000 0.000000 0.000189 0.000000
# 6 0.000000 0.000000 0.000000 0.000000 0.000000 0.003044
#
#
# Mechanical properties :
#
#
# Convention : Reuss Voigt Hill
#
# Bulk Modulus (GPa) = 22.26768 24.06094 23.16431
# Shear Modulus (GPa) = 46.67079 1141.45831 594.06455
#
# Velocity S-wave (km/s) = 4.66177 23.05465 16.63203
# Velocity P-wave (km/s) = 6.27256 26.83082 19.48381
#
# Compressibility (1/GPa) = 0.04490814
#
# Stress axis : x y z
#
# Youngs Moduli (GPa) = 50.49253 82.13301 54.77673
#
# Poissons Ratio (x) = 0.28769 -0.00411
# Poissons Ratio (y) = 0.17686 -0.04183
# Poissons Ratio (z) = -0.00379 -0.06272
#
# Static dielectric constant tensor:
#      x y z
#    x 1.829110 0.000000 0.000000 
#    y 0.000000 1.750580 0.000000 
#    z 0.000000 0.000000 1.760370 
# 
# From -- ./inp_files/12559.got.cif
#   From: 2010.05.17/outbox.cif.g08.bks.cpg/sg63_7_cif.got.tgz:12559.got - 2010.06.03 15:47:04.
