data_PCOD9474632
_publ_section_title
;
Structure prediction by ZEFSAII (Michael W. Deem and Ramdas Pophale) SiO2 
 PCOD9474632
Probable space group: C M C M
;
_chemical_formula_sum "Si O2"
_cell_formula_units_Z 56
_cell_length_a 29.150840
_cell_length_b 5.162024
_cell_length_c 17.152905
_cell_angle_alpha 90.000000
_cell_angle_beta 90.000000
_cell_angle_gamma 90.000000
_cell_volume 2581.123444
_symmetry_space_group_name_H-M "C M C M"
_symmetry_group_IT_number 63
_symmetry_cell_setting 'orthorhombic'
loop_
_space_group_symop_operation_xyz
x,y,z
-x,-y,1/2+z
x,-y,-z
-x,y,1/2-z
-x,-y,-z
x,y,1/2-z
-x,y,z
x,-y,1/2+z
1/2+x,1/2+y,z
1/2-x,1/2-y,1/2+z
1/2+x,1/2-y,-z
1/2-x,1/2+y,1/2-z
1/2-x,1/2-y,-z
1/2+x,1/2+y,1/2-z
1/2-x,1/2+y,z
1/2+x,1/2-y,1/2+z
loop_
_atom_site_type_symbol
_atom_site_label
_atom_site_fract_x
_atom_site_fract_y
_atom_site_fract_z
Si Si1 0.500000 0.243571 0.945085
Si Si2 0.447943 0.549871 0.839288
Si Si3 0.131003 0.746154 0.446036
Si Si4 0.280219 0.141709 0.158212
O O1 0.456983 0.284144 0.887341
O O2 0.500000 0.500000 0.000000
O O3 0.500000 0.000000 0.000000
O O4 0.434623 0.507197 0.750000
O O5 0.500000 0.666247 0.838990
O O6 0.410866 0.705879 0.887047
O O7 0.122362 0.500000 0.500000
O O8 0.176684 0.696812 0.396059
O O9 0.135983 0.000000 0.500000
O O10 0.292951 0.159199 0.250000
O O11 0.241633 0.360323 0.143958
#
# Coordination Sequence:
#
# PCOD9474632 Si02
#       4
#     8  16  16  16
#     4  10  21  40  67  96 129 168 221 286 345 396
#     4   9  22  46  70  98 136 187 237 287 345 418
#     4  12  26  42  67 102 139 182 228 289 352 414
#     4  10  22  43  70  98 133 179 228 283 345 416
#
# _framework density 21.695979000000001
#
# number of rings (size 3 to 8) (size 9 to 14) (size 15 to 20)
#    0.857    0.857    0.000    3.429    0.000    8.571 
#    0.000   10.000    0.000    0.000    0.000    0.000 
#    0.000    0.000    0.000    0.000    0.000    0.000 
#
# Total GULP energy -156578.218421 kJ/mol
# GULP energy per Si atom -5592.079229 kJ/mol
# Density = 2.164660 g / cm^3
# Si number density = 21.695979 Si / 1000 Ang^3
#
#
#
# Elastic Constant Matrix: (Units=GPa)
#
#
# Indices 1 2 3 4 5 6 
#
# 1 79.7120 6.0615 69.1047 0.0000 0.0000 0.0000
# 2 6.0615 104.8625 60.7024 0.0000 0.0000 0.0000
# 3 69.1047 60.7024 175.5639 0.0000 0.0000 0.0000
# 4 0.0000 0.0000 0.0000 22.5338 0.0000 0.0000
# 5 0.0000 0.0000 0.0000 0.0000 50.4565 0.0000
# 6 0.0000 0.0000 0.0000 0.0000 0.0000 21.7794
#
#
#
# Elastic Compliance Matrix: (Units=1/GPa)
#
#
# Indices 1 2 3 4 5 6 
#
# 1 0.020525 0.004364 -0.009588 0.000000 0.000000 0.000000
# 2 0.004364 0.012850 -0.006161 0.000000 0.000000 0.000000
# 3 -0.009588 -0.006161 0.011600 0.000000 0.000000 0.000000
# 4 0.000000 0.000000 0.000000 0.044378 0.000000 0.000000
# 5 0.000000 0.000000 0.000000 0.000000 0.019819 0.000000
# 6 0.000000 0.000000 0.000000 0.000000 0.000000 0.045915
#
#
# Mechanical properties :
#
#
# Convention : Reuss Voigt Hill
#
# Bulk Modulus (GPa) = 45.03294 70.20839 57.62067
# Shear Modulus (GPa) = 26.98919 33.90525 30.44722
#
# Velocity S-wave (km/s) = 3.53083 3.95744 3.75021
# Velocity P-wave (km/s) = 6.11749 7.30152 6.73557
#
# Compressibility (1/GPa) = 0.02220597
#
# Stress axis : x y z
#
# Youngs Moduli (GPa) = 48.72014 77.81883 86.20683
#
# Poissons Ratio (x) = -0.33958 0.82654
# Poissons Ratio (y) = -0.21260 0.53110
# Poissons Ratio (z) = 0.46712 0.47942
#
# Static dielectric constant tensor:
#      x y z
#    x 1.788060 0.000000 0.000000 
#    y 0.000000 1.801270 0.000000 
#    z 0.000000 0.000000 1.795880 
# 
# From -- ./inp_files/48583.got.cif
#   From: 2010.05.17/outbox.cif.g08.bks.cpg/sg63_25_cif.got.tgz:48583.got - 2010.06.03 15:47:04.
