data_PCOD9474576
_publ_section_title
;
Structure prediction by ZEFSAII (Michael W. Deem and Ramdas Pophale) SiO2 
 PCOD9474576
Probable space group: C M C M
;
_chemical_formula_sum "Si O2"
_cell_formula_units_Z 88
_cell_length_a 31.380449
_cell_length_b 13.779341
_cell_length_c 10.671434
_cell_angle_alpha 90.000000
_cell_angle_beta 90.000000
_cell_angle_gamma 90.000000
_cell_volume 4614.348417
_symmetry_space_group_name_H-M "C M C M"
_symmetry_group_IT_number 63
_symmetry_cell_setting 'orthorhombic'
loop_
_space_group_symop_operation_xyz
x,y,z
-x,-y,1/2+z
x,-y,-z
-x,y,1/2-z
-x,-y,-z
x,y,1/2-z
-x,y,z
x,-y,1/2+z
1/2+x,1/2+y,z
1/2-x,1/2-y,1/2+z
1/2+x,1/2-y,-z
1/2-x,1/2+y,1/2-z
1/2-x,1/2-y,-z
1/2+x,1/2+y,1/2-z
1/2-x,1/2+y,z
1/2+x,1/2-y,1/2+z
loop_
_atom_site_type_symbol
_atom_site_label
_atom_site_fract_x
_atom_site_fract_y
_atom_site_fract_z
Si Si1 0.952581 0.706800 0.603913
Si Si2 0.729060 0.685997 0.250000
Si Si3 0.663858 0.393767 0.951932
Si Si4 0.321439 0.095543 0.250000
Si Si5 0.681781 0.131596 0.750000
Si Si6 0.863729 0.311185 0.988243
Si Si7 0.932888 0.069034 0.385061
O O1 0.943692 0.679706 0.750000
O O2 0.914111 0.678263 0.513028
O O3 0.952141 0.824175 0.601999
O O4 0.000000 0.672082 0.571082
O O5 0.702194 0.644417 0.133289
O O6 0.777147 0.653080 0.250000
O O7 0.723879 0.802039 0.250000
O O8 0.650657 0.301051 0.037806
O O9 0.618344 0.414383 0.885740
O O10 0.676563 0.500000 0.000000
O O11 0.347166 0.124013 0.374940
O O12 0.311204 0.982027 0.250000
O O13 0.656803 0.161300 0.623149
O O14 0.945239 0.027559 0.250000
O O15 0.943680 0.000000 0.500000
#
# Coordination Sequence:
#
# PCOD9474576 Si02
#       7
#    16   8  16   8   8  16  16
#     4   9  17  34  62  84 105 153 205 240 287 361
#     4  10  22  38  58  84 117 159 211 238 277 349
#     4   9  18  33  56  81 118 163 199 244 282 333
#     4  12  26  38  61  94 118 152 193 247 309 342
#     4  10  22  44  67  80 119 163 196 239 290 357
#     4  10  21  40  60  87 120 154 197 245 299 358
#     4   9  16  29  49  79 116 159 199 235 288 348
#
# _framework density 19.070948000000001
#
# number of rings (size 3 to 8) (size 9 to 14) (size 15 to 20)
#    0.000    2.364    1.818    0.545    0.000    6.909 
#    9.818    0.455    0.000    3.273    0.000    0.000 
#    0.000    0.000    0.000    0.000    0.000    0.000 
#
# Total GULP energy -245195.235751 kJ/mol
# GULP energy per Si atom -5572.618994 kJ/mol
# Density = 1.902754 g / cm^3
# Si number density = 19.070948 Si / 1000 Ang^3
#
#
#
# Elastic Constant Matrix: (Units=GPa)
#
#
# Indices 1 2 3 4 5 6 
#
# 1 136.9553 35.9810 44.6043 0.0000 0.0000 0.0000
# 2 35.9810 115.9930 42.9506 0.0000 0.0000 0.0000
# 3 44.6043 42.9506 87.3972 0.0000 0.0000 0.0000
# 4 0.0000 0.0000 0.0000 -17.8810 0.0000 0.0000
# 5 0.0000 0.0000 0.0000 0.0000 22.1290 0.0000
# 6 0.0000 0.0000 0.0000 0.0000 0.0000 9.7370
#
#
#
# Elastic Compliance Matrix: (Units=1/GPa)
#
#
# Indices 1 2 3 4 5 6 
#
# 1 0.008920 -0.001322 -0.003903 0.000000 0.000000 0.000000
# 2 -0.001322 0.010735 -0.004601 0.000000 0.000000 0.000000
# 3 -0.003903 -0.004601 0.015695 0.000000 0.000000 0.000000
# 4 0.000000 0.000000 0.000000 -0.055925 0.000000 0.000000
# 5 0.000000 0.000000 0.000000 0.000000 0.045190 0.000000
# 6 0.000000 0.000000 0.000000 0.000000 0.000000 0.102701
#
#
# Mechanical properties :
#
#
# Convention : Reuss Voigt Hill
#
# Bulk Modulus (GPa) = 63.69978 65.26860 64.48419
# Shear Modulus (GPa) = 32.85163 17.25098 25.05130
#
# Velocity S-wave (km/s) = 4.15492 3.01087 3.62827
# Velocity P-wave (km/s) = 7.51611 6.81069 7.17208
#
# Compressibility (1/GPa) = 0.01569864
#
# Stress axis : x y z
#
# Youngs Moduli (GPa) = 112.10733 93.15400 63.71451
#
# Poissons Ratio (x) = 0.12313 0.24867
# Poissons Ratio (y) = 0.14818 0.29315
# Poissons Ratio (z) = 0.43754 0.42860
#
# Static dielectric constant tensor:
#      x y z
#    x 1.667750 0.000000 0.000000 
#    y 0.000000 1.670710 0.000000 
#    z 0.000000 0.000000 1.692430 
# 
# From -- ./inp_files/25785.got.cif
#   From: 2010.05.17/outbox.cif.g08.bks.cpg/sg63_13_cif.got.tgz:25785.got - 2010.06.03 15:47:04.
