data_PCOD9474246
_publ_section_title
;
Structure prediction by ZEFSAII (Michael W. Deem and Ramdas Pophale) SiO2 
 PCOD9474246
Probable space group: C M C M
;
_chemical_formula_sum "Si O2"
_cell_formula_units_Z 120
_cell_length_a 27.746201
_cell_length_b 16.605070
_cell_length_c 14.329654
_cell_angle_alpha 90.000000
_cell_angle_beta 90.000000
_cell_angle_gamma 90.000000
_cell_volume 6602.067237
_symmetry_space_group_name_H-M "C M C M"
_symmetry_group_IT_number 63
_symmetry_cell_setting 'orthorhombic'
loop_
_space_group_symop_operation_xyz
x,y,z
-x,-y,1/2+z
x,-y,-z
-x,y,1/2-z
-x,-y,-z
x,y,1/2-z
-x,y,z
x,-y,1/2+z
1/2+x,1/2+y,z
1/2-x,1/2-y,1/2+z
1/2+x,1/2-y,-z
1/2-x,1/2+y,1/2-z
1/2-x,1/2-y,-z
1/2+x,1/2+y,1/2-z
1/2-x,1/2+y,z
1/2+x,1/2-y,1/2+z
loop_
_atom_site_type_symbol
_atom_site_label
_atom_site_fract_x
_atom_site_fract_y
_atom_site_fract_z
Si Si1 0.824520 0.133178 0.361109
Si Si2 0.355880 0.940746 0.076246
Si Si3 0.137536 0.733629 0.499661
Si Si4 0.275337 0.217858 0.145157
Si Si5 0.947644 0.459640 0.859521
Si Si6 0.944152 0.266381 0.641041
Si Si7 0.744311 0.901780 0.148947
Si Si8 0.805147 0.000000 0.500000
O O1 0.835839 0.128148 0.250000
O O2 0.850496 0.206208 0.415823
O O3 0.766988 0.152965 0.367568
O O4 0.833450 0.054671 0.424769
O O5 0.311915 0.923368 0.144944
O O6 0.402305 0.990714 0.106478
O O7 0.373370 0.854674 0.039513
O O8 0.332718 0.000000 0.000000
O O9 0.184160 0.719090 0.433530
O O10 0.094830 0.765349 0.432602
O O11 0.296130 0.206764 0.250000
O O12 0.250462 0.305625 0.142411
O O13 0.949630 0.474683 0.750000
O O14 0.941698 0.363608 0.869503
O O15 0.000000 0.482610 0.898934
O O16 0.932972 0.247779 0.750000
O O17 0.000000 0.243042 0.623751
O O18 0.764143 0.928124 0.250000
O O19 0.773063 0.941663 0.064708
#
# Coordination Sequence:
#
# PCOD9474246 Si02
#       8
#    16  16  16  16  16  16  16   8
#     4  11  24  39  57  82 116 154 191 242 295 346
#     4  12  22  31  49  78 112 153 202 240 276 333
#     4  12  21  36  58  79 111 155 196 239 292 349
#     4  10  21  38  56  79 112 150 191 237 293 347
#     4   9  19  35  51  72 109 153 197 242 282 326
#     4   9  19  36  57  84 117 151 192 242 287 332
#     4  11  22  36  55  78 110 150 192 239 285 337
#     4  12  22  40  56  78 114 148 194 238 284 354
#
# _framework density 18.176124000000002
#
# number of rings (size 3 to 8) (size 9 to 14) (size 15 to 20)
#    0.000    1.333    4.667    3.200    0.000    1.333 
#    0.000    0.000    0.000    0.400    0.000    0.467 
#    0.000    0.000    0.000    0.000    0.000    0.000 
#
# Total GULP energy -334727.471372 kJ/mol
# GULP energy per Si atom -5578.791190 kJ/mol
# Density = 1.813475 g / cm^3
# Si number density = 18.176124 Si / 1000 Ang^3
#
#
#
# Elastic Constant Matrix: (Units=GPa)
#
#
# Indices 1 2 3 4 5 6 
#
# 1 40.0410 -14.5257 25.9520 0.0000 0.0000 0.0000
# 2 -14.5257 33.8198 23.3294 0.0000 0.0000 0.0000
# 3 25.9520 23.3294 132.1727 0.0000 0.0000 0.0000
# 4 0.0000 0.0000 0.0000 23.1080 0.0000 0.0000
# 5 0.0000 0.0000 0.0000 0.0000 34.4756 0.0000
# 6 0.0000 0.0000 0.0000 0.0000 0.0000 17.5357
#
#
#
# Elastic Compliance Matrix: (Units=1/GPa)
#
#
# Indices 1 2 3 4 5 6 
#
# 1 0.044141 0.028395 -0.013679 0.000000 0.000000 0.000000
# 2 0.028395 0.051933 -0.014742 0.000000 0.000000 0.000000
# 3 -0.013679 -0.014742 0.012854 0.000000 0.000000 0.000000
# 4 0.000000 0.000000 0.000000 0.043275 0.000000 0.000000
# 5 0.000000 0.000000 0.000000 0.000000 0.029006 0.000000
# 6 0.000000 0.000000 0.000000 0.000000 0.000000 0.057027
#
#
# Mechanical properties :
#
#
# Convention : Reuss Voigt Hill
#
# Bulk Modulus (GPa) = 9.18481 30.61611 19.90046
# Shear Modulus (GPa) = 18.20967 26.44238 22.32602
#
# Velocity S-wave (km/s) = 3.16863 3.81830 3.50854
# Velocity P-wave (km/s) = 4.29548 6.02660 5.23312
#
# Compressibility (1/GPa) = 0.10887541
#
# Stress axis : x y z
#
# Youngs Moduli (GPa) = 22.65474 19.25553 77.79845
#
# Poissons Ratio (x) = -0.54675 1.06419
# Poissons Ratio (y) = -0.64327 1.14689
# Poissons Ratio (z) = 0.30989 0.28386
#
# Static dielectric constant tensor:
#      x y z
#    x 1.637600 0.000000 0.000000 
#    y 0.000000 1.637530 0.000000 
#    z 0.000000 0.000000 1.679830 
# 
# From -- ./inp_files/38769.got.cif
#   From: 2010.05.17/outbox.cif.g08.bks.cpg/sg63_20_cif.got.tgz:38769.got - 2010.06.03 15:47:04.
