data_PCOD9474015
_publ_section_title
;
Structure prediction by ZEFSAII (Michael W. Deem and Ramdas Pophale) SiO2 
 PCOD9474015
Probable space group: C M C M
;
_chemical_formula_sum "Si O2"
_cell_formula_units_Z 96
_cell_length_a 23.206596
_cell_length_b 11.750573
_cell_length_c 15.561740
_cell_angle_alpha 90.000000
_cell_angle_beta 90.000000
_cell_angle_gamma 90.000000
_cell_volume 4243.543336
_symmetry_space_group_name_H-M "C M C M"
_symmetry_group_IT_number 63
_symmetry_cell_setting 'orthorhombic'
loop_
_space_group_symop_operation_xyz
x,y,z
-x,-y,1/2+z
x,-y,-z
-x,y,1/2-z
-x,-y,-z
x,y,1/2-z
-x,y,z
x,-y,1/2+z
1/2+x,1/2+y,z
1/2-x,1/2-y,1/2+z
1/2+x,1/2-y,-z
1/2-x,1/2+y,1/2-z
1/2-x,1/2-y,-z
1/2+x,1/2+y,1/2-z
1/2-x,1/2+y,z
1/2+x,1/2-y,1/2+z
loop_
_atom_site_type_symbol
_atom_site_label
_atom_site_fract_x
_atom_site_fract_y
_atom_site_fract_z
Si Si1 0.759859 0.435428 0.354249
Si Si2 0.934046 0.556936 0.906054
Si Si3 0.856245 0.256529 0.351731
Si Si4 0.435828 0.293782 0.149213
Si Si5 0.653979 0.118577 0.346813
Si Si6 0.634597 0.495773 0.099607
O O1 0.758729 0.441846 0.250000
O O2 0.798403 0.325865 0.377471
O O3 0.791633 0.551767 0.386201
O O4 0.695255 0.431877 0.386549
O O5 0.908259 0.682767 0.901825
O O6 0.893300 0.482114 0.845290
O O7 0.000000 0.553105 0.879323
O O8 0.929102 0.500000 0.000000
O O9 0.864000 0.275682 0.250000
O O10 0.855692 0.122865 0.367006
O O11 0.438367 0.261656 0.250000
O O12 0.500000 0.273148 0.112730
O O13 0.382974 0.219656 0.111243
O O14 0.415974 0.423889 0.143566
O O15 0.671184 0.154647 0.250000
O O16 0.620621 0.500000 0.000000
#
# Coordination Sequence:
#
# PCOD9474015 Si02
#       6
#    16  16  16  16  16  16
#     4   9  20  40  65  91 122 161 211 270 323 382
#     4  10  21  36  61  94 128 163 202 263 330 382
#     4  10  23  43  65  90 124 171 223 267 317 388
#     4  10  22  41  65  91 123 167 218 264 308 377
#     4   9  19  37  64  93 120 161 210 261 317 380
#     4  12  27  41  61  95 132 174 209 263 327 388
#
# _framework density 22.622603000000002
#
# number of rings (size 3 to 8) (size 9 to 14) (size 15 to 20)
#    0.000    2.000    0.000    3.500    4.667    6.333 
#    0.000    0.000    0.000    0.000    0.000    0.000 
#    0.000    0.000    0.000    0.000    0.000    0.000 
#
# Total GULP energy -268101.705379 kJ/mol
# GULP energy per Si atom -5585.452195 kJ/mol
# Density = 2.257111 g / cm^3
# Si number density = 22.622603 Si / 1000 Ang^3
#
#
#
# Elastic Constant Matrix: (Units=GPa)
#
#
# Indices 1 2 3 4 5 6 
#
# 1 73.5213 16.2084 -4.5189 0.0000 0.0000 0.0000
# 2 16.2084 104.9849 -5.8235 0.0000 0.0000 0.0000
# 3 -4.5189 -5.8235 34.3797 0.0000 0.0000 0.0000
# 4 0.0000 0.0000 0.0000 22.2455 0.0000 0.0000
# 5 0.0000 0.0000 0.0000 0.0000 13.9535 0.0000
# 6 0.0000 0.0000 0.0000 0.0000 0.0000 19.2428
#
#
#
# Elastic Compliance Matrix: (Units=1/GPa)
#
#
# Indices 1 2 3 4 5 6 
#
# 1 0.014157 -0.002102 0.001505 0.000000 0.000000 0.000000
# 2 -0.002102 0.009928 0.001405 0.000000 0.000000 0.000000
# 3 0.001505 0.001405 0.029523 0.000000 0.000000 0.000000
# 4 0.000000 0.000000 0.000000 0.044953 0.000000 0.000000
# 5 0.000000 0.000000 0.000000 0.000000 0.071667 0.000000
# 6 0.000000 0.000000 0.000000 0.000000 0.000000 0.051967
#
#
# Mechanical properties :
#
#
# Convention : Reuss Voigt Hill
#
# Bulk Modulus (GPa) = 18.10822 24.95752 21.53287
# Shear Modulus (GPa) = 20.92162 24.88968 22.90565
#
# Velocity S-wave (km/s) = 3.04437 3.32054 3.18545
# Velocity P-wave (km/s) = 4.51436 5.07518 4.80296
#
# Compressibility (1/GPa) = 0.05522354
#
# Stress axis : x y z
#
# Youngs Moduli (GPa) = 70.63414 100.72827 33.87220
#
# Poissons Ratio (x) = 0.21176 -0.05097
# Poissons Ratio (y) = 0.14849 -0.04760
# Poissons Ratio (z) = -0.10629 -0.14155
#
# Static dielectric constant tensor:
#      x y z
#    x 1.826740 0.000000 0.000000 
#    y 0.000000 1.890650 0.000000 
#    z 0.000000 0.000000 1.844690 
# 
# From -- ./inp_files/47967.got.cif
#   From: 2010.05.17/outbox.cif.g08.bks.cpg/sg63_24_cif.got.tgz:47967.got - 2010.06.03 15:47:04.
