data_PCOD9474961
_publ_section_title
;
Structure prediction by ZEFSAII (Michael W. Deem and Ramdas Pophale) SiO2 
 PCOD9474961
Probable space group: C M C M
;
_chemical_formula_sum "Si O2"
_cell_formula_units_Z 68
_cell_length_a 12.745392
_cell_length_b 14.092520
_cell_length_c 14.622775
_cell_angle_alpha 90.000000
_cell_angle_beta 90.000000
_cell_angle_gamma 90.000000
_cell_volume 2626.465223
_symmetry_space_group_name_H-M "C M C M"
_symmetry_group_IT_number 63
_symmetry_cell_setting 'orthorhombic'
loop_
_space_group_symop_operation_xyz
x,y,z
-x,-y,1/2+z
x,-y,-z
-x,y,1/2-z
-x,-y,-z
x,y,1/2-z
-x,y,z
x,-y,1/2+z
1/2+x,1/2+y,z
1/2-x,1/2-y,1/2+z
1/2+x,1/2-y,-z
1/2-x,1/2+y,1/2-z
1/2-x,1/2-y,-z
1/2+x,1/2+y,1/2-z
1/2-x,1/2+y,z
1/2+x,1/2-y,1/2+z
loop_
_atom_site_type_symbol
_atom_site_label
_atom_site_fract_x
_atom_site_fract_y
_atom_site_fract_z
Si Si1 0.154900 0.286655 0.411979
Si Si2 0.500000 0.842937 0.250000
Si Si3 0.337204 0.577845 0.354267
Si Si4 0.882377 0.864510 0.360985
Si Si5 0.112793 0.582603 0.075275
O O1 0.090502 0.335797 0.330668
O O2 0.133379 0.174091 0.405880
O O3 0.276824 0.313667 0.395545
O O4 0.120740 0.327805 0.508719
O O5 0.373387 0.589805 0.250000
O O6 0.374776 0.475948 0.388641
O O7 0.210882 0.576030 0.358754
O O8 0.875871 0.861673 0.250000
O O9 0.000000 0.830385 0.384517
O O10 0.000000 0.577016 0.122219
O O11 0.121071 0.500000 0.000000
#
# Coordination Sequence:
#
# PCOD9474961 Si02
#       5
#    16   4  16  16  16
#     4  12  23  44  69 102 137 178 231 283 343 409
#     4  12  24  40  76 104 132 178 236 278 340 416
#     4  11  24  42  68  98 133 180 236 277 346 416
#     4  10  22  40  65  95 135 175 221 280 335 400
#     4  11  24  43  65  97 141 181 228 290 344 407
#
# _framework density 25.890312000000002
#
# number of rings (size 3 to 8) (size 9 to 14) (size 15 to 20)
#    0.000    0.941    5.882    0.706    1.647    1.412 
#    0.000    2.353    0.000    0.000    0.000    0.000 
#    0.000    0.000    0.000    0.000    0.000    0.000 
#
# Total GULP energy -190076.309444 kJ/mol
# GULP energy per Si atom -5590.479690 kJ/mol
# Density = 2.583138 g / cm^3
# Si number density = 25.890312 Si / 1000 Ang^3
#
#
#
# Elastic Constant Matrix: (Units=GPa)
#
#
# Indices 1 2 3 4 5 6 
#
# 1 196.9872 20.3030 27.4427 0.0000 0.0000 0.0000
# 2 20.3030 137.6880 11.8865 0.0000 0.0000 0.0000
# 3 27.4427 11.8865 61.2718 0.0000 0.0000 0.0000
# 4 0.0000 0.0000 0.0000 17.3805 0.0000 0.0000
# 5 0.0000 0.0000 0.0000 0.0000 54.6107 0.0000
# 6 0.0000 0.0000 0.0000 0.0000 0.0000 9.3378
#
#
#
# Elastic Compliance Matrix: (Units=1/GPa)
#
#
# Indices 1 2 3 4 5 6 
#
# 1 0.005463 -0.000604 -0.002330 0.000000 0.000000 0.000000
# 2 -0.000604 0.007453 -0.001175 0.000000 0.000000 0.000000
# 3 -0.002330 -0.001175 0.017592 0.000000 0.000000 0.000000
# 4 0.000000 0.000000 0.000000 0.057536 0.000000 0.000000
# 5 0.000000 0.000000 0.000000 0.000000 0.018311 0.000000
# 6 0.000000 0.000000 0.000000 0.000000 0.000000 0.107092
#
#
# Mechanical properties :
#
#
# Convention : Reuss Voigt Hill
#
# Bulk Modulus (GPa) = 44.86289 57.24572 51.05431
# Shear Modulus (GPa) = 21.82488 38.68678 30.25583
#
# Velocity S-wave (km/s) = 2.90655 3.86976 3.42221
# Velocity P-wave (km/s) = 5.35068 6.49042 5.94791
#
# Compressibility (1/GPa) = 0.02229014
#
# Stress axis : x y z
#
# Youngs Moduli (GPa) = 183.03863 134.16721 56.84360
#
# Poissons Ratio (x) = 0.08110 0.13243
# Poissons Ratio (y) = 0.11064 0.06680
# Poissons Ratio (z) = 0.42642 0.15767
#
# Static dielectric constant tensor:
#      x y z
#    x 2.023850 0.000000 0.000000 
#    y 0.000000 2.109970 0.000000 
#    z 0.000000 0.000000 1.950600 
# 
# From -- ./inp_files/41880.got.cif
#   From: 2010.05.17/outbox.cif.g08.bks.cpg/sg63_21_cif.got.tgz:41880.got - 2010.06.03 15:47:04.
