data_PCOD9474314
_publ_section_title
;
Structure prediction by ZEFSAII (Michael W. Deem and Ramdas Pophale) SiO2 
 PCOD9474314
Probable space group: C M C M
;
_chemical_formula_sum "Si O2"
_cell_formula_units_Z 80
_cell_length_a 14.298685
_cell_length_b 30.232638
_cell_length_c 9.280078
_cell_angle_alpha 90.000000
_cell_angle_beta 90.000000
_cell_angle_gamma 90.000000
_cell_volume 4011.656777
_symmetry_space_group_name_H-M "C M C M"
_symmetry_group_IT_number 63
_symmetry_cell_setting 'orthorhombic'
loop_
_space_group_symop_operation_xyz
x,y,z
-x,-y,1/2+z
x,-y,-z
-x,y,1/2-z
-x,-y,-z
x,y,1/2-z
-x,y,z
x,-y,1/2+z
1/2+x,1/2+y,z
1/2-x,1/2-y,1/2+z
1/2+x,1/2-y,-z
1/2-x,1/2+y,1/2-z
1/2-x,1/2-y,-z
1/2+x,1/2+y,1/2-z
1/2-x,1/2+y,z
1/2+x,1/2-y,1/2+z
loop_
_atom_site_type_symbol
_atom_site_label
_atom_site_fract_x
_atom_site_fract_y
_atom_site_fract_z
Si Si1 0.385819 0.543222 0.412911
Si Si2 0.113981 0.544197 0.915256
Si Si3 0.108600 0.869325 0.418292
Si Si4 0.612670 0.133635 0.417140
Si Si5 0.764412 0.703588 0.921308
O O1 0.356545 0.500000 0.500000
O O2 0.351853 0.541424 0.250000
O O3 0.500000 0.542706 0.410984
O O4 0.359770 0.588907 0.488698
O O5 0.147633 0.545040 0.750000
O O6 0.000000 0.543684 0.910149
O O7 0.141934 0.500000 0.000000
O O8 0.140115 0.588379 0.001590
O O9 0.114274 0.882040 0.250000
O O10 0.172276 0.826734 0.440038
O O11 0.000000 0.859858 0.451411
O O12 0.643279 0.133373 0.250000
O O13 0.500000 0.135738 0.418454
O O14 0.654722 0.174999 0.502783
O O15 0.781101 0.709003 0.750000
O O16 0.750000 0.750000 0.000000
#
# Coordination Sequence:
#
# PCOD9474314 Si02
#       5
#    16  16  16  16  16
#     4   9  16  27  48  79 113 148 184 222 267 321
#     4   9  16  28  50  81 116 152 189 229 276 333
#     4   9  19  37  59  82 111 147 185 226 275 331
#     4  10  21  38  60  85 115 152 192 235 285 339
#     4  11  24  41  61  85 113 146 187 237 291 344
#
# _framework density 19.941884999999999
#
# number of rings (size 3 to 8) (size 9 to 14) (size 15 to 20)
#    0.000    2.400    0.000    2.400    0.000    8.400 
#    0.000    3.000    0.000    4.800    0.000    0.000 
#    0.000    0.000    0.000    0.000    0.000    0.000 
#
# Total GULP energy -223589.148727 kJ/mol
# GULP energy per Si atom -5589.728718 kJ/mol
# Density = 1.989650 g / cm^3
# Si number density = 19.941885 Si / 1000 Ang^3
#
#
#
# Elastic Constant Matrix: (Units=GPa)
#
#
# Indices 1 2 3 4 5 6 
#
# 1 62.2548 28.2840 45.9569 0.0000 0.0000 0.0000
# 2 28.2840 190.2080 132.1551 0.0000 0.0000 0.0000
# 3 45.9569 132.1551 188.5054 0.0000 0.0000 0.0000
# 4 0.0000 0.0000 0.0000 44.9050 0.0000 0.0000
# 5 0.0000 0.0000 0.0000 0.0000 15.6975 0.0000
# 6 0.0000 0.0000 0.0000 0.0000 0.0000 27.6811
#
#
#
# Elastic Compliance Matrix: (Units=1/GPa)
#
#
# Indices 1 2 3 4 5 6 
#
# 1 0.019649 0.000793 -0.005346 0.000000 0.000000 0.000000
# 2 0.000793 0.010282 -0.007402 0.000000 0.000000 0.000000
# 3 -0.005346 -0.007402 0.011797 0.000000 0.000000 0.000000
# 4 0.000000 0.000000 0.000000 0.022269 0.000000 0.000000
# 5 0.000000 0.000000 0.000000 0.000000 0.063704 0.000000
# 6 0.000000 0.000000 0.000000 0.000000 0.000000 0.036126
#
#
# Mechanical properties :
#
#
# Convention : Reuss Voigt Hill
#
# Bulk Modulus (GPa) = 56.12155 94.86222 75.49188
# Shear Modulus (GPa) = 25.81599 33.29488 29.55543
#
# Velocity S-wave (km/s) = 3.60190 4.09050 3.85395
# Velocity P-wave (km/s) = 6.74551 8.36554 7.59882
#
# Compressibility (1/GPa) = 0.01781847
#
# Stress axis : x y z
#
# Youngs Moduli (GPa) = 50.89196 97.25504 84.76453
#
# Poissons Ratio (x) = -0.07708 0.45316
# Poissons Ratio (y) = -0.04033 0.62741
# Poissons Ratio (z) = 0.27207 0.71986
#
# Static dielectric constant tensor:
#      x y z
#    x 1.754470 0.000000 0.000000 
#    y 0.000000 1.639440 0.000000 
#    z 0.000000 0.000000 1.679510 
# 
# From -- ./inp_files/6394.got.cif
#   From: 2010.05.17/outbox.cif.g08.bks.cpg/sg63_4_cif.got.tgz:6394.got - 2010.06.03 15:47:04.
