data_PCOD9474476
_publ_section_title
;
Structure prediction by ZEFSAII (Michael W. Deem and Ramdas Pophale) SiO2 
 PCOD9474476
Probable space group: C M C M
;
_chemical_formula_sum "Si O2"
_cell_formula_units_Z 64
_cell_length_a 20.708080
_cell_length_b 16.776366
_cell_length_c 10.342441
_cell_angle_alpha 90.000000
_cell_angle_beta 90.000000
_cell_angle_gamma 90.000000
_cell_volume 3593.029463
_symmetry_space_group_name_H-M "C M C M"
_symmetry_group_IT_number 63
_symmetry_cell_setting 'orthorhombic'
loop_
_space_group_symop_operation_xyz
x,y,z
-x,-y,1/2+z
x,-y,-z
-x,y,1/2-z
-x,-y,-z
x,y,1/2-z
-x,y,z
x,-y,1/2+z
1/2+x,1/2+y,z
1/2-x,1/2-y,1/2+z
1/2+x,1/2-y,-z
1/2-x,1/2+y,1/2-z
1/2-x,1/2-y,-z
1/2+x,1/2+y,1/2-z
1/2-x,1/2+y,z
1/2+x,1/2-y,1/2+z
loop_
_atom_site_type_symbol
_atom_site_label
_atom_site_fract_x
_atom_site_fract_y
_atom_site_fract_z
Si Si1 0.749672 0.983186 0.250000
Si Si2 0.886970 0.582195 0.750000
Si Si3 0.837018 0.000000 0.500000
Si Si4 0.924241 0.678417 0.004840
Si Si5 0.423502 0.645458 0.403911
Si Si6 0.364276 0.096727 0.250000
O O1 0.709686 0.066637 0.250000
O O2 0.691433 0.919131 0.250000
O O3 0.792500 0.978747 0.377607
O O4 0.912535 0.625330 0.877349
O O5 0.902895 0.487883 0.750000
O O6 0.881534 0.925340 0.537831
O O7 0.908648 0.769554 0.968742
O O8 0.000000 0.674361 0.039473
O O9 0.882589 0.644968 0.122592
O O10 0.411906 0.651376 0.250000
O O11 0.500000 0.629955 0.422148
#
# Coordination Sequence:
#
# PCOD9474476 Si02
#       6
#     8   8   8  16  16   8
#     4  10  24  40  60  88 124 162 208 260 274 360
#     4  10  21  39  61  84 128 167 204 250 300 354
#     4  12  21  44  66  86 115 172 202 242 320 358
#     4  11  21  38  63  92 126 160 200 254 314 364
#     4  10  22  41  65  96 125 150 199 262 314 370
#     4  10  23  39  57  90 134 159 202 258 290 350
#
# _framework density 17.812268
#
# number of rings (size 3 to 8) (size 9 to 14) (size 15 to 20)
#    0.750    0.750    2.500    3.375    0.000    4.000 
#    0.000    8.750    0.000    0.000    0.000    0.000 
#    0.000    0.000    0.000    0.000    0.000    0.000 
#
# Total GULP energy -178616.754654 kJ/mol
# GULP energy per Si atom -5581.773583 kJ/mol
# Density = 1.777173 g / cm^3
# Si number density = 17.812268 Si / 1000 Ang^3
#
#
#
# Elastic Constant Matrix: (Units=GPa)
#
#
# Indices 1 2 3 4 5 6 
#
# 1 52.2278 40.4246 25.1751 0.0000 0.0000 0.0000
# 2 40.4246 87.2847 19.5682 0.0000 0.0000 0.0000
# 3 25.1751 19.5682 97.8618 0.0000 0.0000 0.0000
# 4 0.0000 0.0000 0.0000 24.9578 0.0000 0.0000
# 5 0.0000 0.0000 0.0000 0.0000 45.3789 0.0000
# 6 0.0000 0.0000 0.0000 0.0000 0.0000 25.1654
#
#
#
# Elastic Compliance Matrix: (Units=1/GPa)
#
#
# Indices 1 2 3 4 5 6 
#
# 1 0.032543 -0.013814 -0.005609 0.000000 0.000000 0.000000
# 2 -0.013814 0.017858 -0.000017 0.000000 0.000000 0.000000
# 3 -0.005609 -0.000017 0.011665 0.000000 0.000000 0.000000
# 4 0.000000 0.000000 0.000000 0.040068 0.000000 0.000000
# 5 0.000000 0.000000 0.000000 0.000000 0.022037 0.000000
# 6 0.000000 0.000000 0.000000 0.000000 0.000000 0.039737
#
#
# Mechanical properties :
#
#
# Convention : Reuss Voigt Hill
#
# Bulk Modulus (GPa) = 43.13196 45.30111 44.21653
# Shear Modulus (GPa) = 23.75092 29.24750 26.49921
#
# Velocity S-wave (km/s) = 3.65554 4.05654 3.86125
# Velocity P-wave (km/s) = 6.48727 6.88683 6.69003
#
# Compressibility (1/GPa) = 0.02318466
#
# Stress axis : x y z
#
# Youngs Moduli (GPa) = 30.72847 55.99580 85.72667
#
# Poissons Ratio (x) = 0.77354 0.48088
# Poissons Ratio (y) = 0.42449 0.00147
# Poissons Ratio (z) = 0.17237 0.00096
#
# Static dielectric constant tensor:
#      x y z
#    x 1.602700 0.000000 0.000000 
#    y 0.000000 1.584070 0.000000 
#    z 0.000000 0.000000 1.571100 
# 
# From -- ./inp_files/7570.got.cif
#   From: 2010.05.17/outbox.cif.g08.bks.cpg/sg63_4_cif.got.tgz:7570.got - 2010.06.03 15:47:04.
