data_PCOD9474458
_publ_section_title
;
Structure prediction by ZEFSAII (Michael W. Deem and Ramdas Pophale) SiO2 
 PCOD9474458
Probable space group: C M C M
;
_chemical_formula_sum "Si O2"
_cell_formula_units_Z 72
_cell_length_a 28.231463
_cell_length_b 14.611478
_cell_length_c 8.899099
_cell_angle_alpha 90.000000
_cell_angle_beta 90.000000
_cell_angle_gamma 90.000000
_cell_volume 3670.908599
_symmetry_space_group_name_H-M "C M C M"
_symmetry_group_IT_number 63
_symmetry_cell_setting 'orthorhombic'
loop_
_space_group_symop_operation_xyz
x,y,z
-x,-y,1/2+z
x,-y,-z
-x,y,1/2-z
-x,-y,-z
x,y,1/2-z
-x,y,z
x,-y,1/2+z
1/2+x,1/2+y,z
1/2-x,1/2-y,1/2+z
1/2+x,1/2-y,-z
1/2-x,1/2+y,1/2-z
1/2-x,1/2-y,-z
1/2+x,1/2+y,1/2-z
1/2-x,1/2+y,z
1/2+x,1/2-y,1/2+z
loop_
_atom_site_type_symbol
_atom_site_label
_atom_site_fract_x
_atom_site_fract_y
_atom_site_fract_z
Si Si1 0.892011 0.591500 0.423899
Si Si2 0.787608 0.650264 0.425830
Si Si3 0.686185 0.338434 0.924946
Si Si4 0.090292 0.199583 0.569549
Si Si5 0.500000 0.399257 0.570227
O O1 0.911067 0.500000 0.500000
O O2 0.905354 0.588520 0.250000
O O3 0.834648 0.590264 0.433491
O O4 0.906313 0.693107 0.478966
O O5 0.785729 0.683157 0.250000
O O6 0.735675 0.609807 0.458346
O O7 0.798114 0.734087 0.537575
O O8 0.674441 0.349979 0.750000
O O9 0.639173 0.350791 0.022528
O O10 0.085834 0.197105 0.750000
O O11 0.046241 0.152862 0.490115
O O12 0.500000 0.500000 0.500000
O O13 0.500000 0.403640 0.750000
#
# Coordination Sequence:
#
# PCOD9474458 Si02
#       5
#    16  16  16  16   8
#     4   9  18  32  52  80 117 158 196 233 275 327
#     4   8  15  27  43  69 108 151 192 235 280 324
#     4   9  15  26  48  76 106 144 191 237 280 330
#     4  10  21  39  60  84 116 151 187 234 291 343
#     4  12  26  46  71  94 111 134 175 228 288 350
#
# _framework density 19.613671
#
# number of rings (size 3 to 8) (size 9 to 14) (size 15 to 20)
#    0.000    2.667    0.000    3.667    0.000    5.333 
#    0.000    1.667    0.000    2.667    0.000    0.000 
#    0.000    0.000    0.000    0.000    0.000    0.000 
#
# Total GULP energy -200469.011356 kJ/mol
# GULP energy per Si atom -5568.583649 kJ/mol
# Density = 1.956903 g / cm^3
# Si number density = 19.613671 Si / 1000 Ang^3
#
#
#
# Elastic Constant Matrix: (Units=GPa)
#
#
# Indices 1 2 3 4 5 6 
#
# 1 129.9275 47.9207 55.1403 0.0000 0.0000 0.0000
# 2 47.9207 86.0880 48.0901 0.0000 0.0000 0.0000
# 3 55.1403 48.0901 73.1029 0.0000 0.0000 0.0000
# 4 0.0000 0.0000 0.0000 23.3356 0.0000 0.0000
# 5 0.0000 0.0000 0.0000 0.0000 33.6422 0.0000
# 6 0.0000 0.0000 0.0000 0.0000 0.0000 -0.6924
#
#
#
# Elastic Compliance Matrix: (Units=1/GPa)
#
#
# Indices 1 2 3 4 5 6 
#
# 1 0.011649 -0.002492 -0.007147 0.000000 0.000000 0.000000
# 2 -0.002492 0.018898 -0.010552 0.000000 0.000000 0.000000
# 3 -0.007147 -0.010552 0.026012 0.000000 0.000000 0.000000
# 4 0.000000 0.000000 0.000000 0.042853 0.000000 0.000000
# 5 0.000000 0.000000 0.000000 0.000000 0.029725 0.000000
# 6 0.000000 0.000000 0.000000 0.000000 0.000000 -1.444282
#
#
# Mechanical properties :
#
#
# Convention : Reuss Voigt Hill
#
# Bulk Modulus (GPa) = 61.81963 65.71342 63.76653
# Shear Modulus (GPa) = -3.93896 20.45491 8.25798
#
# Velocity S-wave (km/s) = -1.41867 3.23288 2.05413
# Velocity P-wave (km/s) = 5.37620 6.89290 6.18124
#
# Compressibility (1/GPa) = 0.01617609
#
# Stress axis : x y z
#
# Youngs Moduli (GPa) = 85.84483 52.91672 38.44342
#
# Poissons Ratio (x) = 0.13185 0.27477
# Poissons Ratio (y) = 0.21390 0.40566
# Poissons Ratio (z) = 0.61357 0.55839
#
# Static dielectric constant tensor:
#      x y z
#    x 1.730350 0.000000 0.000000 
#    y 0.000000 1.704040 0.000000 
#    z 0.000000 0.000000 1.680080 
# 
# From -- ./inp_files/11700.got.cif
#   From: 2010.05.17/outbox.cif.g08.bks.cpg/sg63_6_cif.got.tgz:11700.got - 2010.06.03 15:47:04.
