data_PCOD9474287
_publ_section_title
;
Structure prediction by ZEFSAII (Michael W. Deem and Ramdas Pophale) SiO2 
 PCOD9474287
Probable space group: C M C M
;
_chemical_formula_sum "Si O2"
_cell_formula_units_Z 96
_cell_length_a 8.692518
_cell_length_b 29.707762
_cell_length_c 20.994755
_cell_angle_alpha 90.000000
_cell_angle_beta 90.000000
_cell_angle_gamma 90.000000
_cell_volume 5421.585931
_symmetry_space_group_name_H-M "C M C M"
_symmetry_group_IT_number 63
_symmetry_cell_setting 'orthorhombic'
loop_
_space_group_symop_operation_xyz
x,y,z
-x,-y,1/2+z
x,-y,-z
-x,y,1/2-z
-x,-y,-z
x,y,1/2-z
-x,y,z
x,-y,1/2+z
1/2+x,1/2+y,z
1/2-x,1/2-y,1/2+z
1/2+x,1/2-y,-z
1/2-x,1/2+y,1/2-z
1/2-x,1/2-y,-z
1/2+x,1/2+y,1/2-z
1/2-x,1/2+y,z
1/2+x,1/2-y,1/2+z
loop_
_atom_site_type_symbol
_atom_site_label
_atom_site_fract_x
_atom_site_fract_y
_atom_site_fract_z
Si Si1 0.185508 0.471548 0.562278
Si Si2 0.184741 0.221771 0.059528
Si Si3 0.184698 0.627682 0.479620
Si Si4 0.314622 0.783063 0.321813
Si Si5 0.685621 0.471535 0.322355
Si Si6 0.684540 0.625692 0.622546
O O1 0.235990 0.500000 0.500000
O O2 0.230306 0.419631 0.552329
O O3 0.250612 0.494013 0.625687
O O4 0.000000 0.473738 0.564387
O O5 0.247327 0.171304 0.054725
O O6 0.230942 0.247168 0.124362
O O7 0.000000 0.221356 0.055428
O O8 0.250000 0.250000 0.000000
O O9 0.244255 0.627440 0.552133
O O10 0.000000 0.630568 0.480439
O O11 0.272457 0.769705 0.250000
O O12 0.500000 0.787500 0.324922
O O13 0.242138 0.831064 0.339046
O O14 0.737104 0.480330 0.250000
O O15 0.500000 0.473440 0.323455
O O16 0.730136 0.420992 0.343697
O O17 0.500000 0.626906 0.617731
#
# Coordination Sequence:
#
# PCOD9474287 Si02
#       6
#    16  16  16  16  16  16
#     4  10  21  38  59  83 113 150 193 238 283 335
#     4  11  22  37  59  85 116 151 190 234 282 336
#     4  11  22  37  58  85 116 147 191 240 282 336
#     4  10  22  39  58  82 114 152 190 230 280 339
#     4  10  22  38  56  84 120 153 188 233 287 346
#     4  11  21  34  57  87 119 150 184 232 289 343
#
# _framework density 17.706994999999999
#
# number of rings (size 3 to 8) (size 9 to 14) (size 15 to 20)
#    0.000    1.500    3.333    2.000    0.000    4.333 
#    0.000    0.833    0.000    3.000    0.000    0.000 
#    0.000    0.000    0.000    0.000    0.000    0.000 
#
# Total GULP energy -268182.704288 kJ/mol
# GULP energy per Si atom -5587.139673 kJ/mol
# Density = 1.766669 g / cm^3
# Si number density = 17.706995 Si / 1000 Ang^3
#
#
#
# Elastic Constant Matrix: (Units=GPa)
#
#
# Indices 1 2 3 4 5 6 
#
# 1 26.0226 40.3329 40.6702 0.0000 0.0000 0.0000
# 2 40.3329 166.3346 100.0149 0.0000 0.0000 0.0000
# 3 40.6702 100.0149 175.3347 0.0000 0.0000 0.0000
# 4 0.0000 0.0000 0.0000 17.2924 0.0000 0.0000
# 5 0.0000 0.0000 0.0000 0.0000 26.2664 0.0000
# 6 0.0000 0.0000 0.0000 0.0000 0.0000 31.3173
#
#
#
# Elastic Compliance Matrix: (Units=1/GPa)
#
#
# Indices 1 2 3 4 5 6 
#
# 1 0.071929 -0.011277 -0.010252 0.000000 0.000000 0.000000
# 2 -0.011277 0.010919 -0.003612 0.000000 0.000000 0.000000
# 3 -0.010252 -0.003612 0.010142 0.000000 0.000000 0.000000
# 4 0.000000 0.000000 0.000000 0.057829 0.000000 0.000000
# 5 0.000000 0.000000 0.000000 0.000000 0.038071 0.000000
# 6 0.000000 0.000000 0.000000 0.000000 0.000000 0.031931
#
#
# Mechanical properties :
#
#
# Convention : Reuss Voigt Hill
#
# Bulk Modulus (GPa) = 23.41542 81.08087 52.24814
# Shear Modulus (GPa) = 17.52303 27.42016 22.47159
#
# Velocity S-wave (km/s) = 3.14922 3.93943 3.56628
# Velocity P-wave (km/s) = 5.14548 8.15977 6.82121
#
# Compressibility (1/GPa) = 0.04270691
#
# Stress axis : x y z
#
# Youngs Moduli (GPa) = 13.90262 91.58739 98.60079
#
# Poissons Ratio (x) = 1.03284 1.01083
# Poissons Ratio (y) = 0.15678 0.35618
# Poissons Ratio (z) = 0.14253 0.33085
#
# Static dielectric constant tensor:
#      x y z
#    x 1.600770 0.000000 0.000000 
#    y 0.000000 1.584910 0.000000 
#    z 0.000000 0.000000 1.589200 
# 
# From -- ./inp_files/51283.got.cif
#   From: 2010.05.17/outbox.cif.g08.bks.cpg/sg63_26_cif.got.tgz:51283.got - 2010.06.03 15:47:04.
