data_PCOD9474885
_publ_section_title
;
Structure prediction by ZEFSAII (Michael W. Deem and Ramdas Pophale) SiO2 
 PCOD9474885
Probable space group: C M C M
;
_chemical_formula_sum "Si O2"
_cell_formula_units_Z 88
_cell_length_a 23.854284
_cell_length_b 5.527640
_cell_length_c 29.105297
_cell_angle_alpha 90.000000
_cell_angle_beta 90.000000
_cell_angle_gamma 90.000000
_cell_volume 3837.763179
_symmetry_space_group_name_H-M "C M C M"
_symmetry_group_IT_number 63
_symmetry_cell_setting 'orthorhombic'
loop_
_space_group_symop_operation_xyz
x,y,z
-x,-y,1/2+z
x,-y,-z
-x,y,1/2-z
-x,-y,-z
x,y,1/2-z
-x,y,z
x,-y,1/2+z
1/2+x,1/2+y,z
1/2-x,1/2-y,1/2+z
1/2+x,1/2-y,-z
1/2-x,1/2+y,1/2-z
1/2-x,1/2-y,-z
1/2+x,1/2+y,1/2-z
1/2-x,1/2+y,z
1/2+x,1/2-y,1/2+z
loop_
_atom_site_type_symbol
_atom_site_label
_atom_site_fract_x
_atom_site_fract_y
_atom_site_fract_z
Si Si1 0.768600 0.360349 0.568151
Si Si2 0.882592 0.247407 0.970697
Si Si3 0.500000 0.883095 0.361948
Si Si4 0.000000 0.765518 0.297926
Si Si5 0.500000 0.888589 0.550364
Si Si6 0.775339 0.896863 0.672891
Si Si7 0.904046 0.150535 0.301796
O O1 0.763118 0.628644 0.546752
O O2 0.832926 0.279628 0.565905
O O3 0.743234 0.393421 0.619192
O O4 0.942853 0.239180 0.946258
O O5 0.881360 0.500000 0.000000
O O6 0.874552 0.000000 0.000000
O O7 0.500000 0.162405 0.348571
O O8 0.500000 0.880890 0.415863
O O9 0.443793 0.795532 0.336807
O O10 0.942751 0.915087 0.296154
O O11 0.000000 0.612590 0.250000
O O12 0.500000 0.000000 0.500000
O O13 0.749502 0.647369 0.692408
O O14 0.842102 0.891181 0.679182
O O15 0.898913 0.256661 0.250000
#
# Coordination Sequence:
#
# PCOD9474885 Si02
#       7
#    16  16   8   8   8  16  16
#     4  10  22  39  65  94 134 172 232 281 337 412
#     4  11  24  45  69  96 133 178 227 294 355 410
#     4  11  23  42  77 100 136 185 238 293 367 418
#     4   9  20  41  69 107 139 176 235 295 353 429
#     4  10  26  47  67 103 139 177 233 289 363 423
#     4  10  24  42  65  98 143 184 234 280 344 417
#     4  10  23  43  69 106 142 184 234 293 358 424
#
# _framework density 22.930022000000001
#
# number of rings (size 3 to 8) (size 9 to 14) (size 15 to 20)
#    0.000    1.818    0.000    2.727    7.636    4.364 
#   16.364    0.000    0.000    0.000    0.000    0.000 
#    0.000    0.000    0.000    0.000    0.000    0.000 
#
# Total GULP energy -245293.833876 kJ/mol
# GULP energy per Si atom -5574.859861 kJ/mol
# Density = 2.287783 g / cm^3
# Si number density = 22.930022 Si / 1000 Ang^3
#
#
#
# Elastic Constant Matrix: (Units=GPa)
#
#
# Indices 1 2 3 4 5 6 
#
# 1 232.3382 35.7287 35.2258 0.0000 0.0000 0.0000
# 2 35.7287 134.7685 12.1706 0.0000 0.0000 0.0000
# 3 35.2258 12.1706 82.6532 0.0000 0.0000 0.0000
# 4 0.0000 0.0000 0.0000 3.9951 0.0000 0.0000
# 5 0.0000 0.0000 0.0000 0.0000 83.9531 0.0000
# 6 0.0000 0.0000 0.0000 0.0000 0.0000 -165.9036
#
#
#
# Elastic Compliance Matrix: (Units=1/GPa)
#
#
# Indices 1 2 3 4 5 6 
#
# 1 0.004755 -0.001092 -0.001866 0.000000 0.000000 0.000000
# 2 -0.001092 0.007771 -0.000679 0.000000 0.000000 0.000000
# 3 -0.001866 -0.000679 0.012994 0.000000 0.000000 0.000000
# 4 0.000000 0.000000 0.000000 0.250308 0.000000 0.000000
# 5 0.000000 0.000000 0.000000 0.000000 0.011911 0.000000
# 6 0.000000 0.000000 0.000000 0.000000 0.000000 -0.006028
#
#
# Mechanical properties :
#
#
# Convention : Reuss Voigt Hill
#
# Bulk Modulus (GPa) = 54.80503 68.44557 61.62530
# Shear Modulus (GPa) = 16.94534 8.85125 12.89829
#
# Velocity S-wave (km/s) = 2.72141 1.96685 2.37430
# Velocity P-wave (km/s) = 5.81615 5.92221 5.86942
#
# Compressibility (1/GPa) = 0.01824650
#
# Stress axis : x y z
#
# Youngs Moduli (GPa) = 210.31061 128.68426 76.95966
#
# Poissons Ratio (x) = 0.14053 0.14358
# Poissons Ratio (y) = 0.22968 0.05224
# Poissons Ratio (z) = 0.39237 0.08735
#
# Static dielectric constant tensor:
#      x y z
#    x 1.818760 0.000000 0.000000 
#    y 0.000000 1.949240 0.000000 
#    z 0.000000 0.000000 2.254720 
# 
# From -- ./inp_files/74264.got.cif
#   From: 2010.05.17/outbox.cif.g08.bks.cpg/sg63_38_cif.got.tgz:74264.got - 2010.06.03 15:47:04.
