data_PCOD9474524
_publ_section_title
;
Structure prediction by ZEFSAII (Michael W. Deem and Ramdas Pophale) SiO2 
 PCOD9474524
Probable space group: C M C M
;
_chemical_formula_sum "Si O2"
_cell_formula_units_Z 64
_cell_length_a 16.769784
_cell_length_b 11.826670
_cell_length_c 15.017211
_cell_angle_alpha 90.000000
_cell_angle_beta 90.000000
_cell_angle_gamma 90.000000
_cell_volume 2978.373990
_symmetry_space_group_name_H-M "C M C M"
_symmetry_group_IT_number 63
_symmetry_cell_setting 'orthorhombic'
loop_
_space_group_symop_operation_xyz
x,y,z
-x,-y,1/2+z
x,-y,-z
-x,y,1/2-z
-x,-y,-z
x,y,1/2-z
-x,y,z
x,-y,1/2+z
1/2+x,1/2+y,z
1/2-x,1/2-y,1/2+z
1/2+x,1/2-y,-z
1/2-x,1/2+y,1/2-z
1/2-x,1/2-y,-z
1/2+x,1/2+y,1/2-z
1/2-x,1/2+y,z
1/2+x,1/2-y,1/2+z
loop_
_atom_site_type_symbol
_atom_site_label
_atom_site_fract_x
_atom_site_fract_y
_atom_site_fract_z
Si Si1 0.207188 0.281352 0.907075
Si Si2 0.090385 0.879578 0.474958
Si Si3 0.376333 0.758422 0.348137
Si Si4 0.908266 0.475394 0.643876
O O1 0.282645 0.272362 0.843997
O O2 0.157979 0.397545 0.902896
O O3 0.250000 0.250000 0.000000
O O4 0.140389 0.184869 0.900356
O O5 0.090056 0.808019 0.566793
O O6 0.000000 0.896919 0.444888
O O7 0.127484 0.000000 0.500000
O O8 0.410379 0.733292 0.250000
O O9 0.389360 0.891792 0.365776
O O10 0.904617 0.450339 0.750000
O O11 0.000000 0.453410 0.613918
#
# Coordination Sequence:
#
# PCOD9474524 Si02
#       4
#    16  16  16  16
#     4  10  22  36  59  86 123 159 199 248 307 364
#     4  10  22  39  59  86 123 163 204 246 297 367
#     4  10  22  39  64  91 121 161 206 257 310 366
#     4  10  21  39  63  91 121 156 206 262 310 361
#
# _framework density 21.488236000000001
#
# number of rings (size 3 to 8) (size 9 to 14) (size 15 to 20)
#    0.000    2.000    0.000    2.250    7.000    4.500 
#    0.000    7.500    0.000    3.000    0.000    0.000 
#    0.000    0.000    0.000    0.000    0.000    0.000 
#
# Total GULP energy -178524.869337 kJ/mol
# GULP energy per Si atom -5578.902167 kJ/mol
# Density = 2.143933 g / cm^3
# Si number density = 21.488236 Si / 1000 Ang^3
#
#
#
# Elastic Constant Matrix: (Units=GPa)
#
#
# Indices 1 2 3 4 5 6 
#
# 1 125.2966 27.9545 11.9311 0.0000 0.0000 0.0000
# 2 27.9545 92.3889 8.0118 0.0000 0.0000 0.0000
# 3 11.9311 8.0118 66.2185 0.0000 0.0000 0.0000
# 4 0.0000 0.0000 0.0000 24.4131 0.0000 0.0000
# 5 0.0000 0.0000 0.0000 0.0000 12.5486 0.0000
# 6 0.0000 0.0000 0.0000 0.0000 0.0000 15.7088
#
#
#
# Elastic Compliance Matrix: (Units=1/GPa)
#
#
# Indices 1 2 3 4 5 6 
#
# 1 0.008661 -0.002512 -0.001257 0.000000 0.000000 0.000000
# 2 -0.002512 0.011667 -0.000959 0.000000 0.000000 0.000000
# 3 -0.001257 -0.000959 0.015444 0.000000 0.000000 0.000000
# 4 0.000000 0.000000 0.000000 0.040962 0.000000 0.000000
# 5 0.000000 0.000000 0.000000 0.000000 0.079690 0.000000
# 6 0.000000 0.000000 0.000000 0.000000 0.000000 0.063659
#
#
# Mechanical properties :
#
#
# Convention : Reuss Voigt Hill
#
# Bulk Modulus (GPa) = 37.99777 42.18874 40.09325
# Shear Modulus (GPa) = 20.98110 26.26786 23.62448
#
# Velocity S-wave (km/s) = 3.12813 3.50012 3.31934
# Velocity P-wave (km/s) = 5.54692 6.00087 5.77836
#
# Compressibility (1/GPa) = 0.02631733
#
# Stress axis : x y z
#
# Youngs Moduli (GPa) = 115.45892 85.71224 64.75017
#
# Poissons Ratio (x) = 0.21528 0.08137
# Poissons Ratio (y) = 0.28999 0.06210
# Poissons Ratio (z) = 0.14509 0.08220
#
# Static dielectric constant tensor:
#      x y z
#    x 1.858430 0.000000 0.000000 
#    y 0.000000 1.764460 0.000000 
#    z 0.000000 0.000000 1.815430 
# 
# From -- ./inp_files/33342.got.cif
#   From: 2010.05.17/outbox.cif.g08.bks.cpg/sg63_17_cif.got.tgz:33342.got - 2010.06.03 15:47:04.
