data_PCOD9474907
_publ_section_title
;
Structure prediction by ZEFSAII (Michael W. Deem and Ramdas Pophale) SiO2 
 PCOD9474907
Probable space group: C M C M
;
_chemical_formula_sum "Si O2"
_cell_formula_units_Z 72
_cell_length_a 25.167513
_cell_length_b 16.073032
_cell_length_c 9.701064
_cell_angle_alpha 90.000000
_cell_angle_beta 90.000000
_cell_angle_gamma 90.000000
_cell_volume 3924.257353
_symmetry_space_group_name_H-M "C M C M"
_symmetry_group_IT_number 63
_symmetry_cell_setting 'orthorhombic'
loop_
_space_group_symop_operation_xyz
x,y,z
-x,-y,1/2+z
x,-y,-z
-x,y,1/2-z
-x,-y,-z
x,y,1/2-z
-x,y,z
x,-y,1/2+z
1/2+x,1/2+y,z
1/2-x,1/2-y,1/2+z
1/2+x,1/2-y,-z
1/2-x,1/2+y,1/2-z
1/2-x,1/2-y,-z
1/2+x,1/2+y,1/2-z
1/2-x,1/2+y,z
1/2+x,1/2-y,1/2+z
loop_
_atom_site_type_symbol
_atom_site_label
_atom_site_fract_x
_atom_site_fract_y
_atom_site_fract_z
Si Si1 0.562100 0.085773 0.250000
Si Si2 0.338602 0.394841 0.750000
Si Si3 0.227937 0.938405 0.250000
Si Si4 0.939290 0.799421 0.750000
Si Si5 0.606760 0.814936 0.008523
Si Si6 0.198634 0.804848 0.476549
Si Si7 0.147251 0.435247 0.250000
O O1 0.500000 0.059100 0.250000
O O2 0.573953 0.138393 0.389562
O O3 0.604584 0.010038 0.250000
O O4 0.311687 0.484094 0.750000
O O5 0.401770 0.380637 0.750000
O O6 0.318502 0.345086 0.618869
O O7 0.214111 0.879484 0.377507
O O8 0.290638 0.961634 0.250000
O O9 0.926204 0.743072 0.615000
O O10 0.000000 0.822800 0.750000
O O11 0.635922 0.879875 0.112879
O O12 0.650607 0.756290 0.935435
O O13 0.250000 0.750000 0.500000
#
# Coordination Sequence:
#
# PCOD9474907 Si02
#       7
#     8   8   8   8  16  16   8
#     4  12  26  39  57  87 121 157 202 249 290 334
#     4  10  24  36  57  92 120 151 197 235 302 352
#     4  12  23  38  61  89 127 154 189 242 299 358
#     4   9  19  41  67  83 111 156 204 246 284 346
#     4  10  22  40  60  88 114 154 204 241 296 348
#     4  11  21  38  61  86 120 156 192 240 292 356
#     4  11  24  38  56  85 119 162 196 234 297 358
#
# _framework density 18.347421000000001
#
# number of rings (size 3 to 8) (size 9 to 14) (size 15 to 20)
#    0.000    1.333    2.222    4.000    3.111    5.333 
#    0.000    0.000    0.000   13.333    0.000    0.000 
#    0.000    0.000    0.000    0.000    0.000    0.000 
#
# Total GULP energy -200952.656343 kJ/mol
# GULP energy per Si atom -5582.018232 kJ/mol
# Density = 1.830566 g / cm^3
# Si number density = 18.347421 Si / 1000 Ang^3
#
#
#
# Elastic Constant Matrix: (Units=GPa)
#
#
# Indices 1 2 3 4 5 6 
#
# 1 183.9316 81.2567 44.2522 0.0000 0.0000 0.0000
# 2 81.2567 110.7479 24.0477 0.0000 0.0000 0.0000
# 3 44.2522 24.0477 82.5314 0.0000 0.0000 0.0000
# 4 0.0000 0.0000 0.0000 17.2001 0.0000 0.0000
# 5 0.0000 0.0000 0.0000 0.0000 19.9950 0.0000
# 6 0.0000 0.0000 0.0000 0.0000 0.0000 30.5119
#
#
#
# Elastic Compliance Matrix: (Units=1/GPa)
#
#
# Indices 1 2 3 4 5 6 
#
# 1 0.008684 -0.005723 -0.002989 0.000000 0.000000 0.000000
# 2 -0.005723 0.013410 -0.000839 0.000000 0.000000 0.000000
# 3 -0.002989 -0.000839 0.013964 0.000000 0.000000 0.000000
# 4 0.000000 0.000000 0.000000 0.058139 0.000000 0.000000
# 5 0.000000 0.000000 0.000000 0.000000 0.050012 0.000000
# 6 0.000000 0.000000 0.000000 0.000000 0.000000 0.032774
#
#
# Mechanical properties :
#
#
# Convention : Reuss Voigt Hill
#
# Bulk Modulus (GPa) = 58.97240 75.14712 67.05976
# Shear Modulus (GPa) = 24.78473 28.71834 26.75153
#
# Velocity S-wave (km/s) = 3.67939 3.96062 3.82259
# Velocity P-wave (km/s) = 7.08960 7.87160 7.49081
#
# Compressibility (1/GPa) = 0.01695709
#
# Stress axis : x y z
#
# Youngs Moduli (GPa) = 115.15489 74.56907 71.61439
#
# Poissons Ratio (x) = 0.42672 0.21404
# Poissons Ratio (y) = 0.65897 0.06009
# Poissons Ratio (z) = 0.34418 0.06257
#
# Static dielectric constant tensor:
#      x y z
#    x 1.628160 0.000000 0.000000 
#    y 0.000000 1.623210 0.000000 
#    z 0.000000 0.000000 1.808940 
# 
# From -- ./inp_files/11813.got.cif
#   From: 2010.05.17/outbox.cif.g08.bks.cpg/sg63_6_cif.got.tgz:11813.got - 2010.06.03 15:47:04.
