data_PCOD9474723
_publ_section_title
;
Structure prediction by ZEFSAII (Michael W. Deem and Ramdas Pophale) SiO2 
 PCOD9474723
Probable space group: C M C M
;
_chemical_formula_sum "Si O2"
_cell_formula_units_Z 56
_cell_length_a 11.665257
_cell_length_b 9.994006
_cell_length_c 22.697660
_cell_angle_alpha 90.000000
_cell_angle_beta 90.000000
_cell_angle_gamma 90.000000
_cell_volume 2646.153316
_symmetry_space_group_name_H-M "C M C M"
_symmetry_group_IT_number 63
_symmetry_cell_setting 'orthorhombic'
loop_
_space_group_symop_operation_xyz
x,y,z
-x,-y,1/2+z
x,-y,-z
-x,y,1/2-z
-x,-y,-z
x,y,1/2-z
-x,y,z
x,-y,1/2+z
1/2+x,1/2+y,z
1/2-x,1/2-y,1/2+z
1/2+x,1/2-y,-z
1/2-x,1/2+y,1/2-z
1/2-x,1/2-y,-z
1/2+x,1/2+y,1/2-z
1/2-x,1/2+y,z
1/2+x,1/2-y,1/2+z
loop_
_atom_site_type_symbol
_atom_site_label
_atom_site_fract_x
_atom_site_fract_y
_atom_site_fract_z
Si Si1 0.500000 0.168419 0.355820
Si Si2 0.632891 0.485376 0.929916
Si Si3 0.500000 0.034737 0.750000
Si Si4 0.000000 0.881003 0.250000
Si Si5 0.733740 0.749372 0.619738
Si Si6 0.750124 0.835448 0.250000
O O1 0.500000 0.292398 0.309355
O O2 0.613437 0.178091 0.394194
O O3 0.500000 0.046482 0.310996
O O4 0.500000 0.510985 0.913512
O O5 0.714947 0.596627 0.900248
O O6 0.668224 0.337067 0.909661
O O7 0.642745 0.500000 0.000000
O O8 0.376265 0.103954 0.750000
O O9 0.134108 0.931431 0.250000
O O10 0.743821 0.750414 0.690399
#
# Coordination Sequence:
#
# PCOD9474723 Si02
#       6
#     8  16   4   4  16   8
#     4   9  18  36  59  84 129 172 206 261 341 390
#     4  11  25  45  69  97 135 181 234 286 334 398
#     4  11  20  34  56  99 136 165 226 279 312 423
#     4   7  16  34  52  77 122 175 200 247 330 409
#     4  11  22  44  68  97 135 180 220 282 346 417
#     4  10  22  36  65  98 133 172 224 273 348 412
#
# _framework density 21.162796
#
# number of rings (size 3 to 8) (size 9 to 14) (size 15 to 20)
#    0.000    1.714    1.429    3.429    2.000    1.143 
#    2.571    2.143    0.000    0.000    0.000    0.000 
#    0.000    0.000    0.000    0.000    0.000    0.000 
#
# Total GULP energy -156119.407806 kJ/mol
# GULP energy per Si atom -5575.693136 kJ/mol
# Density = 2.111463 g / cm^3
# Si number density = 21.162796 Si / 1000 Ang^3
#
#
#
# Elastic Constant Matrix: (Units=GPa)
#
#
# Indices 1 2 3 4 5 6 
#
# 1 113.6136 37.6838 14.4890 0.0000 0.0000 0.0000
# 2 37.6838 69.9254 14.4523 0.0000 0.0000 0.0000
# 3 14.4890 14.4523 58.0103 0.0000 0.0000 0.0000
# 4 0.0000 0.0000 0.0000 39.0672 0.0000 0.0000
# 5 0.0000 0.0000 0.0000 0.0000 -6.7978 0.0000
# 6 0.0000 0.0000 0.0000 0.0000 0.0000 39.7329
#
#
#
# Elastic Compliance Matrix: (Units=1/GPa)
#
#
# Indices 1 2 3 4 5 6 
#
# 1 0.010812 -0.005555 -0.001317 0.000000 0.000000 0.000000
# 2 -0.005555 0.017931 -0.003080 0.000000 0.000000 0.000000
# 3 -0.001317 -0.003080 0.018334 0.000000 0.000000 0.000000
# 4 0.000000 0.000000 0.000000 0.025597 0.000000 0.000000
# 5 0.000000 0.000000 0.000000 0.000000 -0.147105 0.000000
# 6 0.000000 0.000000 0.000000 0.000000 0.000000 0.025168
#
#
# Mechanical properties :
#
#
# Convention : Reuss Voigt Hill
#
# Bulk Modulus (GPa) = 36.79822 41.64442 39.22132
# Shear Modulus (GPa) = -246.27949 26.06206 -110.10872
#
# Velocity S-wave (km/s) = -10.79937 3.51309 -7.22096
# Velocity P-wave (km/s) = 11.75057 6.01469 7.13791
#
# Compressibility (1/GPa) = 0.02717523
#
# Stress axis : x y z
#
# Youngs Moduli (GPa) = 92.48931 55.76938 54.54205
#
# Poissons Ratio (x) = 0.30978 0.07181
# Poissons Ratio (y) = 0.51375 0.16798
# Poissons Ratio (z) = 0.12178 0.17176
#
# Static dielectric constant tensor:
#      x y z
#    x 1.854360 0.000000 0.000000 
#    y 0.000000 1.779700 0.000000 
#    z 0.000000 0.000000 1.824300 
# 
# From -- ./inp_files/67907.got.cif
#   From: 2010.05.17/outbox.cif.g08.bks.cpg/sg63_34_cif.got.tgz:67907.got - 2010.06.03 15:47:04.
