data_PCOD9474736
_publ_section_title
;
Structure prediction by ZEFSAII (Michael W. Deem and Ramdas Pophale) SiO2 
 PCOD9474736
Probable space group: C M C M
;
_chemical_formula_sum "Si O2"
_cell_formula_units_Z 96
_cell_length_a 12.179573
_cell_length_b 29.612013
_cell_length_c 14.371450
_cell_angle_alpha 90.000000
_cell_angle_beta 90.000000
_cell_angle_gamma 90.000000
_cell_volume 5183.231215
_symmetry_space_group_name_H-M "C M C M"
_symmetry_group_IT_number 63
_symmetry_cell_setting 'orthorhombic'
loop_
_space_group_symop_operation_xyz
x,y,z
-x,-y,1/2+z
x,-y,-z
-x,y,1/2-z
-x,-y,-z
x,y,1/2-z
-x,y,z
x,-y,1/2+z
1/2+x,1/2+y,z
1/2-x,1/2-y,1/2+z
1/2+x,1/2-y,-z
1/2-x,1/2+y,1/2-z
1/2-x,1/2-y,-z
1/2+x,1/2+y,1/2-z
1/2-x,1/2+y,z
1/2+x,1/2-y,1/2+z
loop_
_atom_site_type_symbol
_atom_site_label
_atom_site_fract_x
_atom_site_fract_y
_atom_site_fract_z
Si Si1 0.794482 0.141384 0.026442
Si Si2 0.629565 0.200718 0.139206
Si Si3 0.000000 0.173261 0.138556
Si Si4 0.184758 0.553648 0.000362
Si Si5 0.500000 0.051727 0.148015
Si Si6 0.000000 0.557224 0.852957
Si Si7 0.748629 0.203183 0.639089
Si Si8 0.000000 0.722456 0.862119
O O1 0.687642 0.162373 0.078152
O O2 0.782567 0.088517 0.006412
O O3 0.893269 0.150893 0.095678
O O4 0.806726 0.168234 0.929556
O O5 0.638302 0.190833 0.250000
O O6 0.500000 0.206115 0.117107
O O7 0.697940 0.247246 0.123619
O O8 0.000000 0.171710 0.250000
O O9 0.000000 0.225542 0.108148
O O10 0.106953 0.562484 0.088978
O O11 0.209035 0.500000 0.000000
O O12 0.108484 0.567127 0.912373
O O13 0.500000 0.072099 0.250000
O O14 0.500000 0.997214 0.154194
O O15 0.000000 0.577411 0.750000
O O16 0.758446 0.193686 0.750000
O O17 0.618726 0.202572 0.612474
O O18 0.000000 0.722165 0.750000
#
# Coordination Sequence:
#
# PCOD9474736 Si02
#       8
#    16  16   8  16   8   8  16   8
#     4  12  24  36  61  84 110 157 196 234 290 343
#     4  10  22  37  56  87 121 147 186 244 293 338
#     4  11  24  42  60  83 111 145 198 243 285 346
#     4   9  20  36  52  83 120 147 189 239 281 333
#     4   8  15  30  54  80 109 150 184 219 285 347
#     4   8  15  32  57  79 112 157 186 217 276 344
#     4  10  22  38  57  85 119 155 193 234 279 338
#     4   9  18  36  57  80 117 154 182 227 275 323
#
# _framework density 18.521263999999999
#
# number of rings (size 3 to 8) (size 9 to 14) (size 15 to 20)
#    0.000    2.167    1.667    2.000    4.667    2.000 
#    0.000    1.250    0.000    0.000    0.000    0.000 
#    0.000    0.000    0.000    0.000    0.000    0.000 
#
# Total GULP energy -267856.681653 kJ/mol
# GULP energy per Si atom -5580.347534 kJ/mol
# Density = 1.847911 g / cm^3
# Si number density = 18.521264 Si / 1000 Ang^3
#
#
#
# Elastic Constant Matrix: (Units=GPa)
#
#
# Indices 1 2 3 4 5 6 
#
# 1 66.9387 14.7473 29.9242 0.0000 0.0000 0.0000
# 2 14.7473 74.5827 37.2756 0.0000 0.0000 0.0000
# 3 29.9242 37.2756 100.0803 0.0000 0.0000 0.0000
# 4 0.0000 0.0000 0.0000 6.0368 0.0000 0.0000
# 5 0.0000 0.0000 0.0000 0.0000 21.8642 0.0000
# 6 0.0000 0.0000 0.0000 0.0000 0.0000 -8.7811
#
#
#
# Elastic Compliance Matrix: (Units=1/GPa)
#
#
# Indices 1 2 3 4 5 6 
#
# 1 0.017308 -0.001027 -0.004793 0.000000 0.000000 0.000000
# 2 -0.001027 0.016536 -0.005852 0.000000 0.000000 0.000000
# 3 -0.004793 -0.005852 0.013604 0.000000 0.000000 0.000000
# 4 0.000000 0.000000 0.000000 0.165650 0.000000 0.000000
# 5 0.000000 0.000000 0.000000 0.000000 0.045737 0.000000
# 6 0.000000 0.000000 0.000000 0.000000 0.000000 -0.113880
#
#
# Mechanical properties :
#
#
# Convention : Reuss Voigt Hill
#
# Bulk Modulus (GPa) = 41.48466 45.05509 43.26988
# Shear Modulus (GPa) = 28.35565 14.46762 21.41164
#
# Velocity S-wave (km/s) = 3.91702 2.79791 3.40377
# Velocity P-wave (km/s) = 6.55014 5.90057 6.23382
#
# Compressibility (1/GPa) = 0.02410529
#
# Stress axis : x y z
#
# Youngs Moduli (GPa) = 57.77761 60.47545 73.50529
#
# Poissons Ratio (x) = 0.06211 0.35228
# Poissons Ratio (y) = 0.05934 0.43013
# Poissons Ratio (z) = 0.27690 0.35389
#
# Static dielectric constant tensor:
#      x y z
#    x 1.639690 0.000000 0.000000 
#    y 0.000000 1.629800 0.000000 
#    z 0.000000 0.000000 1.676900 
# 
# From -- ./inp_files/30364.got.cif
#   From: 2010.05.17/outbox.cif.g08.bks.cpg/sg63_16_cif.got.tgz:30364.got - 2010.06.03 15:47:04.
