data_PCOD9474436
_publ_section_title
;
Structure prediction by ZEFSAII (Michael W. Deem and Ramdas Pophale) SiO2 
 PCOD9474436
Probable space group: C M C M
;
_chemical_formula_sum "Si O2"
_cell_formula_units_Z 84
_cell_length_a 8.285244
_cell_length_b 27.140868
_cell_length_c 18.679272
_cell_angle_alpha 90.000000
_cell_angle_beta 90.000000
_cell_angle_gamma 90.000000
_cell_volume 4200.383868
_symmetry_space_group_name_H-M "C M C M"
_symmetry_group_IT_number 63
_symmetry_cell_setting 'orthorhombic'
loop_
_space_group_symop_operation_xyz
x,y,z
-x,-y,1/2+z
x,-y,-z
-x,y,1/2-z
-x,-y,-z
x,y,1/2-z
-x,y,z
x,-y,1/2+z
1/2+x,1/2+y,z
1/2-x,1/2-y,1/2+z
1/2+x,1/2-y,-z
1/2-x,1/2+y,1/2-z
1/2-x,1/2-y,-z
1/2+x,1/2+y,1/2-z
1/2-x,1/2+y,z
1/2+x,1/2-y,1/2+z
loop_
_atom_site_type_symbol
_atom_site_label
_atom_site_fract_x
_atom_site_fract_y
_atom_site_fract_z
Si Si1 0.682945 0.184756 0.032995
Si Si2 0.743801 0.000000 0.000000
Si Si3 0.000000 0.512692 0.750000
Si Si4 0.000000 0.335046 0.332204
Si Si5 0.685480 0.280764 0.386870
Si Si6 0.315318 0.445099 0.750000
Si Si7 0.824039 0.908225 0.907592
Si Si8 0.000000 0.438160 0.095579
O O1 0.500000 0.196432 0.009850
O O2 0.716375 0.222905 0.097459
O O3 0.697341 0.129028 0.058844
O O4 0.798022 0.195372 0.966188
O O5 0.823579 0.961690 0.945070
O O6 0.646377 0.037645 0.948637
O O7 0.166276 0.482150 0.750000
O O8 0.000000 0.541422 0.824197
O O9 0.834060 0.304355 0.343550
O O10 0.000000 0.379757 0.390271
O O11 0.000000 0.353258 0.250000
O O12 0.500000 0.287662 0.360629
O O13 0.500000 0.466103 0.750000
O O14 0.299889 0.414802 0.823251
O O15 0.000000 0.885459 0.920048
#
# Coordination Sequence:
#
# PCOD9474436 Si02
#       8
#    16   8   4   8  16   8  16   8
#     4  10  21  38  66  96 125 161 215 269 326 379
#     4  11  23  38  64  98 128 162 218 273 311 388
#     4  12  20  46  66  80 134 172 204 252 330 364
#     4  12  25  43  66  94 135 176 217 264 319 395
#     4  10  22  42  65  94 126 165 213 271 323 378
#     4  10  24  42  60  89 125 171 213 250 312 392
#     4  11  23  39  61  93 130 168 210 263 318 383
#     4  11  24  39  66  97 122 171 221 256 323 386
#
# _framework density 19.998170999999999
#
# number of rings (size 3 to 8) (size 9 to 14) (size 15 to 20)
#    0.000    1.333    3.333    2.000    6.667    0.381 
#    1.714    1.905    0.000    0.000    0.000    0.000 
#    0.000    0.000    0.000    0.000    0.000    0.000 
#
# Total GULP energy -234125.569938 kJ/mol
# GULP energy per Si atom -5574.418332 kJ/mol
# Density = 1.995265 g / cm^3
# Si number density = 19.998171 Si / 1000 Ang^3
#
#
#
# Elastic Constant Matrix: (Units=GPa)
#
#
# Indices 1 2 3 4 5 6 
#
# 1 99.7466 30.5033 21.0699 0.0000 0.0000 0.0000
# 2 30.5033 97.9955 28.7803 0.0000 0.0000 0.0000
# 3 21.0699 28.7803 94.4366 0.0000 0.0000 0.0000
# 4 0.0000 0.0000 0.0000 27.9476 0.0000 0.0000
# 5 0.0000 0.0000 0.0000 0.0000 20.0846 0.0000
# 6 0.0000 0.0000 0.0000 0.0000 0.0000 34.4823
#
#
#
# Elastic Compliance Matrix: (Units=1/GPa)
#
#
# Indices 1 2 3 4 5 6 
#
# 1 0.011294 -0.003048 -0.001591 0.000000 0.000000 0.000000
# 2 -0.003048 0.012030 -0.002986 0.000000 0.000000 0.000000
# 3 -0.001591 -0.002986 0.011854 0.000000 0.000000 0.000000
# 4 0.000000 0.000000 0.000000 0.035781 0.000000 0.000000
# 5 0.000000 0.000000 0.000000 0.000000 0.049789 0.000000
# 6 0.000000 0.000000 0.000000 0.000000 0.000000 0.029000
#
#
# Mechanical properties :
#
#
# Convention : Reuss Voigt Hill
#
# Bulk Modulus (GPa) = 50.18155 50.32065 50.25110
# Shear Modulus (GPa) = 29.13038 30.62458 29.87748
#
# Velocity S-wave (km/s) = 3.82075 3.91752 3.86944
# Velocity P-wave (km/s) = 6.67920 6.75869 6.71906
#
# Compressibility (1/GPa) = 0.01992764
#
# Stress axis : x y z
#
# Youngs Moduli (GPa) = 88.54578 83.12265 84.35886
#
# Poissons Ratio (x) = 0.25337 0.13420
# Poissons Ratio (y) = 0.26991 0.25192
# Poissons Ratio (z) = 0.14086 0.24823
#
# Static dielectric constant tensor:
#      x y z
#    x 1.751980 0.000000 0.000000 
#    y 0.000000 1.701910 0.000000 
#    z 0.000000 0.000000 1.695010 
# 
# From -- ./inp_files/51021.got.cif
#   From: 2010.05.17/outbox.cif.g08.bks.cpg/sg63_26_cif.got.tgz:51021.got - 2010.06.03 15:47:04.
