data_PCOD9474829
_publ_section_title
;
Structure prediction by ZEFSAII (Michael W. Deem and Ramdas Pophale) SiO2 
 PCOD9474829
Probable space group: C M C M
;
_chemical_formula_sum "Si O2"
_cell_formula_units_Z 72
_cell_length_a 14.930077
_cell_length_b 30.172913
_cell_length_c 7.983848
_cell_angle_alpha 90.000000
_cell_angle_beta 90.000000
_cell_angle_gamma 90.000000
_cell_volume 3596.595099
_symmetry_space_group_name_H-M "C M C M"
_symmetry_group_IT_number 63
_symmetry_cell_setting 'orthorhombic'
loop_
_space_group_symop_operation_xyz
x,y,z
-x,-y,1/2+z
x,-y,-z
-x,y,1/2-z
-x,-y,-z
x,y,1/2-z
-x,y,z
x,-y,1/2+z
1/2+x,1/2+y,z
1/2-x,1/2-y,1/2+z
1/2+x,1/2-y,-z
1/2-x,1/2+y,1/2-z
1/2-x,1/2-y,-z
1/2+x,1/2+y,1/2-z
1/2-x,1/2+y,z
1/2+x,1/2-y,1/2+z
loop_
_atom_site_type_symbol
_atom_site_label
_atom_site_fract_x
_atom_site_fract_y
_atom_site_fract_z
Si Si1 0.500000 0.173050 0.938733
Si Si2 0.178316 0.373205 0.553382
Si Si3 0.000000 0.948065 0.548371
Si Si4 0.000000 0.771170 0.055444
Si Si5 0.304517 0.705934 0.547726
Si Si6 0.195252 0.051414 0.047499
O O1 0.500000 0.190017 0.750000
O O2 0.411865 0.144037 0.968877
O O3 0.500000 0.217631 0.047994
O O4 0.158439 0.378452 0.750000
O O5 0.253125 0.335473 0.529480
O O6 0.223664 0.418109 0.486486
O O7 0.903014 0.931379 0.487679
O O8 0.000000 0.944238 0.750000
O O9 0.000000 0.000000 0.500000
O O10 0.906408 0.788803 0.984590
O O11 0.000000 0.784141 0.250000
O O12 0.303990 0.702081 0.750000
O O13 0.250000 0.750000 0.500000
O O14 0.194755 0.054171 0.250000
O O15 0.204294 0.000000 0.000000
#
# Coordination Sequence:
#
# PCOD9474829 Si02
#       6
#     8  16   8   8  16  16
#     4  12  24  38  60  84 108 150 200 240 288 353
#     4  11  23  39  59  85 118 153 191 241 296 348
#     4   8  14  29  52  80 110 143 182 219 270 335
#     4  10  22  39  59  82 118 155 190 239 292 340
#     4  11  22  37  58  85 115 152 193 237 286 340
#     4   9  19  35  58  85 116 153 190 235 287 340
#
# _framework density 20.018934999999999
#
# number of rings (size 3 to 8) (size 9 to 14) (size 15 to 20)
#    0.000    1.778    2.222    2.333    0.000    3.556 
#    0.000    1.667    0.000    4.000    0.000    0.000 
#    0.000    0.000    0.000    0.000    0.000    0.000 
#
# Total GULP energy -200959.035964 kJ/mol
# GULP energy per Si atom -5582.195443 kJ/mol
# Density = 1.997337 g / cm^3
# Si number density = 20.018935 Si / 1000 Ang^3
#
#
#
# Elastic Constant Matrix: (Units=GPa)
#
#
# Indices 1 2 3 4 5 6 
#
# 1 162.6367 40.2251 -7.8073 0.0000 0.0000 0.0000
# 2 40.2251 63.9956 -19.7002 0.0000 0.0000 0.0000
# 3 -7.8073 -19.7002 25.8372 0.0000 0.0000 0.0000
# 4 0.0000 0.0000 0.0000 21.2536 0.0000 0.0000
# 5 0.0000 0.0000 0.0000 0.0000 26.3828 0.0000
# 6 0.0000 0.0000 0.0000 0.0000 0.0000 24.8923
#
#
#
# Elastic Compliance Matrix: (Units=1/GPa)
#
#
# Indices 1 2 3 4 5 6 
#
# 1 0.007337 -0.005134 -0.001698 0.000000 0.000000 0.000000
# 2 -0.005134 0.024012 0.016757 0.000000 0.000000 0.000000
# 3 -0.001698 0.016757 0.050967 0.000000 0.000000 0.000000
# 4 0.000000 0.000000 0.000000 0.047051 0.000000 0.000000
# 5 0.000000 0.000000 0.000000 0.000000 0.037904 0.000000
# 6 0.000000 0.000000 0.000000 0.000000 0.000000 0.040173
#
#
# Mechanical properties :
#
#
# Convention : Reuss Voigt Hill
#
# Bulk Modulus (GPa) = 9.78804 30.87830 20.33317
# Shear Modulus (GPa) = 22.55811 30.48919 26.52365
#
# Velocity S-wave (km/s) = 3.36048 3.90682 3.64390
# Velocity P-wave (km/s) = 4.46734 5.98406 5.28044
#
# Compressibility (1/GPa) = 0.10216548
#
# Stress axis : x y z
#
# Youngs Moduli (GPa) = 136.29404 41.64627 19.62035
#
# Poissons Ratio (x) = 0.21383 0.03331
# Poissons Ratio (y) = 0.69979 -0.32877
# Poissons Ratio (z) = 0.23140 -0.69786
#
# Static dielectric constant tensor:
#      x y z
#    x 0.779490 0.000000 0.000000 
#    y 0.000000 1.677850 0.000000 
#    z 0.000000 0.000000 1.713300 
# 
# From -- ./inp_files/4989.got.cif
#   From: 2010.05.17/outbox.cif.g08.bks.cpg/sg63_3_cif.got.tgz:4989.got - 2010.06.03 15:47:04.
