data_PCOD9474012
_publ_section_title
;
Structure prediction by ZEFSAII (Michael W. Deem and Ramdas Pophale) SiO2 
 PCOD9474012
Probable space group: C M C M
;
_chemical_formula_sum "Si O2"
_cell_formula_units_Z 96
_cell_length_a 24.942722
_cell_length_b 9.696457
_cell_length_c 19.372386
_cell_angle_alpha 90.000000
_cell_angle_beta 90.000000
_cell_angle_gamma 90.000000
_cell_volume 4685.328395
_symmetry_space_group_name_H-M "C M C M"
_symmetry_group_IT_number 63
_symmetry_cell_setting 'orthorhombic'
loop_
_space_group_symop_operation_xyz
x,y,z
-x,-y,1/2+z
x,-y,-z
-x,y,1/2-z
-x,-y,-z
x,y,1/2-z
-x,y,z
x,-y,1/2+z
1/2+x,1/2+y,z
1/2-x,1/2-y,1/2+z
1/2+x,1/2-y,-z
1/2-x,1/2+y,1/2-z
1/2-x,1/2-y,-z
1/2+x,1/2+y,1/2-z
1/2-x,1/2+y,z
1/2+x,1/2-y,1/2+z
loop_
_atom_site_type_symbol
_atom_site_label
_atom_site_fract_x
_atom_site_fract_y
_atom_site_fract_z
Si Si1 0.061056 0.464881 0.166207
Si Si2 0.846076 0.029905 0.871570
Si Si3 0.226844 0.211629 0.327930
Si Si4 0.345802 0.840079 0.669802
Si Si5 0.563322 0.643808 0.168035
Si Si6 0.756750 0.383501 0.452823
O O1 0.058958 0.478426 0.250000
O O2 0.106948 0.567298 0.138808
O O3 0.074757 0.304794 0.153499
O O4 0.000000 0.492698 0.141644
O O5 0.814416 0.913227 0.828411
O O6 0.902423 0.954417 0.881415
O O7 0.857376 0.177103 0.837039
O O8 0.802533 0.063292 0.930530
O O9 0.232523 0.266813 0.250000
O O10 0.284011 0.150377 0.353217
O O11 0.214407 0.331068 0.382908
O O12 0.343472 0.878649 0.750000
O O13 0.575384 0.617901 0.250000
O O14 0.500000 0.623021 0.159945
O O15 0.783374 0.500000 0.500000
O O16 0.750000 0.250000 0.500000
#
# Coordination Sequence:
#
# PCOD9474012 Si02
#       6
#    16  16  16  16  16  16
#     4   8  15  29  48  73 115 165 204 242 305 382
#     4  11  21  35  59  84 121 160 216 256 314 375
#     4  10  21  36  60  92 128 160 203 262 319 378
#     4   9  18  30  46  77 117 154 194 245 305 360
#     4   9  18  33  54  84 123 163 203 257 324 383
#     4  11  23  45  63  86 124 173 216 255 316 388
#
# _framework density 20.489491999999998
#
# number of rings (size 3 to 8) (size 9 to 14) (size 15 to 20)
#    0.000    2.333    1.667    2.500    0.000    4.667 
#    0.000    6.667    0.000    0.500    0.000    0.000 
#    0.000    7.333    0.000    0.000    0.000    0.000 
#
# Total GULP energy -267558.326653 kJ/mol
# GULP energy per Si atom -5574.131805 kJ/mol
# Density = 2.044286 g / cm^3
# Si number density = 20.489492 Si / 1000 Ang^3
#
#
#
# Elastic Constant Matrix: (Units=GPa)
#
#
# Indices 1 2 3 4 5 6 
#
# 1 104.0198 51.3853 6.4089 0.0000 0.0000 0.0000
# 2 51.3853 89.4791 20.3153 0.0000 0.0000 0.0000
# 3 6.4089 20.3153 77.5138 0.0000 0.0000 0.0000
# 4 0.0000 0.0000 0.0000 26.4543 0.0000 0.0000
# 5 0.0000 0.0000 0.0000 0.0000 14.7756 0.0000
# 6 0.0000 0.0000 0.0000 0.0000 0.0000 40.7352
#
#
#
# Elastic Compliance Matrix: (Units=1/GPa)
#
#
# Indices 1 2 3 4 5 6 
#
# 1 0.013490 -0.007968 0.000973 0.000000 0.000000 0.000000
# 2 -0.007968 0.016589 -0.003689 0.000000 0.000000 0.000000
# 3 0.000973 -0.003689 0.013787 0.000000 0.000000 0.000000
# 4 0.000000 0.000000 0.000000 0.037801 0.000000 0.000000
# 5 0.000000 0.000000 0.000000 0.000000 0.067679 0.000000
# 6 0.000000 0.000000 0.000000 0.000000 0.000000 0.024549
#
#
# Mechanical properties :
#
#
# Convention : Reuss Voigt Hill
#
# Bulk Modulus (GPa) = 44.44752 47.47022 45.95887
# Shear Modulus (GPa) = 24.65952 29.25323 26.95638
#
# Velocity S-wave (km/s) = 3.47294 3.78262 3.63108
# Velocity P-wave (km/s) = 6.14994 6.50353 6.32920
#
# Compressibility (1/GPa) = 0.02249844
#
# Stress axis : x y z
#
# Youngs Moduli (GPa) = 74.13150 60.28139 72.53046
#
# Poissons Ratio (x) = 0.48029 -0.07056
# Poissons Ratio (y) = 0.59065 0.26756
# Poissons Ratio (z) = -0.07212 0.22238
#
# Static dielectric constant tensor:
#      x y z
#    x 1.783750 0.000000 0.000000 
#    y 0.000000 1.767030 0.000000 
#    z 0.000000 0.000000 1.764270 
# 
# From -- ./inp_files/58116.got.cif
#   From: 2010.05.17/outbox.cif.g08.bks.cpg/sg63_30_cif.got.tgz:58116.got - 2010.06.03 15:47:04.
