data_PCOD9474708
_publ_section_title
;
Structure prediction by ZEFSAII (Michael W. Deem and Ramdas Pophale) SiO2 
 PCOD9474708
Probable space group: C M C M
;
_chemical_formula_sum "Si O2"
_cell_formula_units_Z 80
_cell_length_a 10.123188
_cell_length_b 20.009466
_cell_length_c 21.986564
_cell_angle_alpha 90.000000
_cell_angle_beta 90.000000
_cell_angle_gamma 90.000000
_cell_volume 4453.589304
_symmetry_space_group_name_H-M "C M C M"
_symmetry_group_IT_number 63
_symmetry_cell_setting 'orthorhombic'
loop_
_space_group_symop_operation_xyz
x,y,z
-x,-y,1/2+z
x,-y,-z
-x,y,1/2-z
-x,-y,-z
x,y,1/2-z
-x,y,z
x,-y,1/2+z
1/2+x,1/2+y,z
1/2-x,1/2-y,1/2+z
1/2+x,1/2-y,-z
1/2-x,1/2+y,1/2-z
1/2-x,1/2-y,-z
1/2+x,1/2+y,1/2-z
1/2-x,1/2+y,z
1/2+x,1/2-y,1/2+z
loop_
_atom_site_type_symbol
_atom_site_label
_atom_site_fract_x
_atom_site_fract_y
_atom_site_fract_z
Si Si1 0.500000 0.046239 0.060101
Si Si2 0.500000 0.305209 0.048920
Si Si3 0.275001 0.484378 0.880185
Si Si4 0.845652 0.004277 0.750000
Si Si5 0.841028 0.633465 0.750000
Si Si6 0.751752 0.355253 0.384852
Si Si7 0.000000 0.932649 0.537844
Si Si8 0.500000 0.830798 0.474095
O O1 0.627008 0.030685 0.100338
O O2 0.500000 0.119274 0.031271
O O3 0.500000 0.000000 0.000000
O O4 0.370789 0.311954 0.091200
O O5 0.500000 0.369372 0.004895
O O6 0.500000 0.241943 0.004397
O O7 0.314952 0.466444 0.811848
O O8 0.291051 0.565578 0.886493
O O9 0.369496 0.440670 0.922252
O O10 0.740184 0.064287 0.750000
O O11 0.000000 0.026299 0.750000
O O12 0.797288 0.662834 0.684151
O O13 0.000000 0.625351 0.750000
O O14 0.872970 0.344974 0.431461
O O15 0.000000 0.000000 0.500000
#
# Coordination Sequence:
#
# PCOD9474708 Si02
#       8
#     8   8  16   8   8  16   8   8
#     4  12  22  37  61  87 119 158 194 243 294 361
#     4  12  26  37  61  91 123 162 198 250 302 355
#     4  11  21  36  62  88 121 156 198 247 300 352
#     4  10  22  36  56  93 126 150 194 258 304 349
#     4  10  22  36  62  89 118 158 198 248 302 347
#     4  11  21  39  61  89 124 152 200 251 295 359
#     4  12  20  37  59  85 121 156 194 239 296 359
#     4  12  24  41  59  87 129 158 200 248 300 353
#
# _framework density 17.963038999999998
#
# number of rings (size 3 to 8) (size 9 to 14) (size 15 to 20)
#    0.000    0.800    6.000    2.400    8.400    0.000 
#    0.000    0.000    0.000    7.200    0.000    0.000 
#    0.000    0.000    0.000    0.000    0.000    0.000 
#
# Total GULP energy -223181.530774 kJ/mol
# GULP energy per Si atom -5579.538269 kJ/mol
# Density = 1.792215 g / cm^3
# Si number density = 17.963039 Si / 1000 Ang^3
#
#
#
# Elastic Constant Matrix: (Units=GPa)
#
#
# Indices 1 2 3 4 5 6 
#
# 1 121.3445 -3.8394 39.8979 0.0000 0.0000 0.0000
# 2 -3.8394 66.5708 27.9113 0.0000 0.0000 0.0000
# 3 39.8979 27.9113 118.6311 0.0000 0.0000 0.0000
# 4 0.0000 0.0000 0.0000 17.6379 0.0000 0.0000
# 5 0.0000 0.0000 0.0000 0.0000 41.9730 0.0000
# 6 0.0000 0.0000 0.0000 0.0000 0.0000 11.7463
#
#
#
# Elastic Compliance Matrix: (Units=1/GPa)
#
#
# Indices 1 2 3 4 5 6 
#
# 1 0.009523 0.002099 -0.003697 0.000000 0.000000 0.000000
# 2 0.002099 0.017128 -0.004736 0.000000 0.000000 0.000000
# 3 -0.003697 -0.004736 0.010787 0.000000 0.000000 0.000000
# 4 0.000000 0.000000 0.000000 0.056696 0.000000 0.000000
# 5 0.000000 0.000000 0.000000 0.000000 0.023825 0.000000
# 6 0.000000 0.000000 0.000000 0.000000 0.000000 0.085133
#
#
# Mechanical properties :
#
#
# Convention : Reuss Voigt Hill
#
# Bulk Modulus (GPa) = 40.36917 48.27621 44.32269
# Shear Modulus (GPa) = 22.31980 30.44320 26.38150
#
# Velocity S-wave (km/s) = 3.52879 4.12122 3.83646
# Velocity P-wave (km/s) = 6.25503 7.04128 6.65977
#
# Compressibility (1/GPa) = 0.02477138
#
# Stress axis : x y z
#
# Youngs Moduli (GPa) = 105.01057 58.38294 92.70436
#
# Poissons Ratio (x) = -0.12255 0.34269
# Poissons Ratio (y) = -0.22043 0.43904
# Poissons Ratio (z) = 0.38818 0.27650
#
# Static dielectric constant tensor:
#      x y z
#    x 1.899780 0.000000 0.000000 
#    y 0.000000 1.609510 0.000000 
#    z 0.000000 0.000000 1.651860 
# 
# From -- ./inp_files/51017.got.cif
#   From: 2010.05.17/outbox.cif.g08.bks.cpg/sg63_26_cif.got.tgz:51017.got - 2010.06.03 15:47:04.
