data_PCOD9474532
_publ_section_title
;
Structure prediction by ZEFSAII (Michael W. Deem and Ramdas Pophale) SiO2 
 PCOD9474532
Probable space group: C M C M
;
_chemical_formula_sum "Si O2"
_cell_formula_units_Z 96
_cell_length_a 23.600207
_cell_length_b 7.359053
_cell_length_c 26.417508
_cell_angle_alpha 90.000000
_cell_angle_beta 90.000000
_cell_angle_gamma 90.000000
_cell_volume 4588.065302
_symmetry_space_group_name_H-M "C M C M"
_symmetry_group_IT_number 63
_symmetry_cell_setting 'orthorhombic'
loop_
_space_group_symop_operation_xyz
x,y,z
-x,-y,1/2+z
x,-y,-z
-x,y,1/2-z
-x,-y,-z
x,y,1/2-z
-x,y,z
x,-y,1/2+z
1/2+x,1/2+y,z
1/2-x,1/2-y,1/2+z
1/2+x,1/2-y,-z
1/2-x,1/2+y,1/2-z
1/2-x,1/2-y,-z
1/2+x,1/2+y,1/2-z
1/2-x,1/2+y,z
1/2+x,1/2-y,1/2+z
loop_
_atom_site_type_symbol
_atom_site_label
_atom_site_fract_x
_atom_site_fract_y
_atom_site_fract_z
Si Si1 0.566381 0.879471 0.949034
Si Si2 0.562148 0.553632 0.190457
Si Si3 0.797095 0.552326 0.692860
Si Si4 0.676683 0.351259 0.339230
Si Si5 0.615579 0.190643 0.882135
Si Si6 0.853014 0.038143 0.945575
O O1 0.500000 0.855209 0.937841
O O2 0.597226 0.685870 0.953910
O O3 0.596987 0.001891 0.906590
O O4 0.570957 0.000000 0.000000
O O5 0.566026 0.590366 0.250000
O O6 0.500000 0.472184 0.180067
O O7 0.615270 0.430764 0.174358
O O8 0.569532 0.734818 0.157410
O O9 0.811744 0.608676 0.750000
O O10 0.729596 0.550310 0.686865
O O11 0.819613 0.352131 0.680977
O O12 0.826841 0.674628 0.650345
O O13 0.683665 0.377089 0.399794
O O14 0.623794 0.346924 0.924103
O O15 0.825071 0.000000 0.000000
#
# Coordination Sequence:
#
# PCOD9474532 Si02
#       6
#    16  16  16  16  16  16
#     4  11  23  41  68 100 135 181 234 281 337 411
#     4  10  21  39  63  93 133 177 218 273 345 411
#     4  12  24  44  72 100 135 180 233 292 342 409
#     4  11  24  42  67 100 135 176 234 283 346 410
#     4  11  23  42  65  99 136 172 228 280 340 401
#     4  11  23  42  65  95 139 177 222 281 339 406
#
# _framework density 20.923853000000001
#
# number of rings (size 3 to 8) (size 9 to 14) (size 15 to 20)
#    0.000    1.000    3.333    4.500    0.000    3.667 
#    0.000    4.167    0.000    3.000    0.000    0.000 
#    0.000    0.000    0.000    0.000    0.000    0.000 
#
# Total GULP energy -268194.314149 kJ/mol
# GULP energy per Si atom -5587.381545 kJ/mol
# Density = 2.087623 g / cm^3
# Si number density = 20.923853 Si / 1000 Ang^3
#
#
#
# Elastic Constant Matrix: (Units=GPa)
#
#
# Indices 1 2 3 4 5 6 
#
# 1 102.4219 29.1536 33.8305 0.0000 0.0000 0.0000
# 2 29.1536 82.8718 21.4210 0.0000 0.0000 0.0000
# 3 33.8305 21.4210 137.9182 0.0000 0.0000 0.0000
# 4 0.0000 0.0000 0.0000 26.2787 0.0000 0.0000
# 5 0.0000 0.0000 0.0000 0.0000 25.2719 0.0000
# 6 0.0000 0.0000 0.0000 0.0000 0.0000 26.9633
#
#
#
# Elastic Compliance Matrix: (Units=1/GPa)
#
#
# Indices 1 2 3 4 5 6 
#
# 1 0.011502 -0.003456 -0.002285 0.000000 0.000000 0.000000
# 2 -0.003456 0.013610 -0.001266 0.000000 0.000000 0.000000
# 3 -0.002285 -0.001266 0.008008 0.000000 0.000000 0.000000
# 4 0.000000 0.000000 0.000000 0.038054 0.000000 0.000000
# 5 0.000000 0.000000 0.000000 0.000000 0.039570 0.000000
# 6 0.000000 0.000000 0.000000 0.000000 0.000000 0.037087
#
#
# Mechanical properties :
#
#
# Convention : Reuss Voigt Hill
#
# Bulk Modulus (GPa) = 52.33850 54.66913 53.50382
# Shear Modulus (GPa) = 29.72445 31.62324 30.67384
#
# Velocity S-wave (km/s) = 3.77317 3.89182 3.83296
# Velocity P-wave (km/s) = 6.63706 6.81025 6.72421
#
# Compressibility (1/GPa) = 0.01910639
#
# Stress axis : x y z
#
# Youngs Moduli (GPa) = 86.94295 73.47643 124.87937
#
# Poissons Ratio (x) = 0.25391 0.28530
# Poissons Ratio (y) = 0.30045 0.15812
# Poissons Ratio (z) = 0.19863 0.09303
#
# Static dielectric constant tensor:
#      x y z
#    x 1.740650 0.000000 0.000000 
#    y 0.000000 1.764340 0.000000 
#    z 0.000000 0.000000 1.778390 
# 
# From -- ./inp_files/70322.got.cif
#   From: 2010.05.17/outbox.cif.g08.bks.cpg/sg63_36_cif.got.tgz:70322.got - 2010.06.03 15:47:04.
