data_PCOD9474592
_publ_section_title
;
Structure prediction by ZEFSAII (Michael W. Deem and Ramdas Pophale) SiO2 
 PCOD9474592
Probable space group: C M C M
;
_chemical_formula_sum "Si O2"
_cell_formula_units_Z 68
_cell_length_a 17.770989
_cell_length_b 22.372995
_cell_length_c 9.386258
_cell_angle_alpha 90.000000
_cell_angle_beta 90.000000
_cell_angle_gamma 90.000000
_cell_volume 3731.884646
_symmetry_space_group_name_H-M "C M C M"
_symmetry_group_IT_number 63
_symmetry_cell_setting 'orthorhombic'
loop_
_space_group_symop_operation_xyz
x,y,z
-x,-y,1/2+z
x,-y,-z
-x,y,1/2-z
-x,-y,-z
x,y,1/2-z
-x,y,z
x,-y,1/2+z
1/2+x,1/2+y,z
1/2-x,1/2-y,1/2+z
1/2+x,1/2-y,-z
1/2-x,1/2+y,1/2-z
1/2-x,1/2-y,-z
1/2+x,1/2+y,1/2-z
1/2-x,1/2+y,z
1/2+x,1/2-y,1/2+z
loop_
_atom_site_type_symbol
_atom_site_label
_atom_site_fract_x
_atom_site_fract_y
_atom_site_fract_z
Si Si1 0.000000 0.973755 0.750000
Si Si2 0.085527 0.219860 0.576881
Si Si3 0.000000 0.437291 0.579470
Si Si4 0.205307 0.880429 0.419239
Si Si5 0.880637 0.000000 0.000000
Si Si6 0.640716 0.147680 0.078528
O O1 0.934291 0.977494 0.873886
O O2 0.082844 0.218556 0.750000
O O3 0.143472 0.168678 0.532642
O O4 0.114568 0.285533 0.536504
O O5 0.000000 0.209621 0.526202
O O6 0.000000 0.500000 0.500000
O O7 0.073671 0.398216 0.544165
O O8 0.000000 0.446609 0.750000
O O9 0.217294 0.872648 0.250000
O O10 0.282627 0.869955 0.501786
O O11 0.170673 0.945279 0.447675
O O12 0.650798 0.147436 0.250000
#
# Coordination Sequence:
#
# PCOD9474592 Si02
#       6
#     4  16   8  16   8  16
#     4  10  24  42  64  80 126 156 208 242 290 350
#     4   9  18  36  63  88 115 157 202 246 298 358
#     4  10  22  40  62  89 115 157 200 246 300 355
#     4  11  24  38  60  91 125 160 198 244 303 358
#     4  11  24  42  62  91 122 162 198 249 296 356
#     4  10  21  40  64  88 119 153 202 253 301 356
#
# _framework density 18.221356
#
# number of rings (size 3 to 8) (size 9 to 14) (size 15 to 20)
#    0.000    1.882    2.353    0.706    6.588    0.941 
#    0.000    0.000    0.000    1.412    0.000    0.000 
#    0.000    0.000    0.000    0.000    0.000    0.000 
#
# Total GULP energy -189297.129446 kJ/mol
# GULP energy per Si atom -5567.562631 kJ/mol
# Density = 1.817988 g / cm^3
# Si number density = 18.221356 Si / 1000 Ang^3
#
#
#
# Elastic Constant Matrix: (Units=GPa)
#
#
# Indices 1 2 3 4 5 6 
#
# 1 197.3273 85.1452 41.5156 0.0000 0.0000 0.0000
# 2 85.1452 140.8453 13.8550 0.0000 0.0000 0.0000
# 3 41.5156 13.8550 42.4573 0.0000 0.0000 0.0000
# 4 0.0000 0.0000 0.0000 18.8068 0.0000 0.0000
# 5 0.0000 0.0000 0.0000 0.0000 20.3142 0.0000
# 6 0.0000 0.0000 0.0000 0.0000 0.0000 -3.8528
#
#
#
# Elastic Compliance Matrix: (Units=1/GPa)
#
#
# Indices 1 2 3 4 5 6 
#
# 1 0.008394 -0.004409 -0.006769 0.000000 0.000000 0.000000
# 2 -0.004409 0.009651 0.001162 0.000000 0.000000 0.000000
# 3 -0.006769 0.001162 0.029793 0.000000 0.000000 0.000000
# 4 0.000000 0.000000 0.000000 0.053172 0.000000 0.000000
# 5 0.000000 0.000000 0.000000 0.000000 0.049227 0.000000
# 6 0.000000 0.000000 0.000000 0.000000 0.000000 -0.259554
#
#
# Mechanical properties :
#
#
# Convention : Reuss Voigt Hill
#
# Bulk Modulus (GPa) = 35.96432 73.51794 54.74113
# Shear Modulus (GPa) = -62.48820 23.06127 -19.71346
#
# Velocity S-wave (km/s) = -5.86246 3.56141 -3.29277
# Velocity P-wave (km/s) = 5.10335 7.57273 3.95614
#
# Compressibility (1/GPa) = 0.02780533
#
# Stress axis : x y z
#
# Youngs Moduli (GPa) = 119.12950 103.61731 33.56468
#
# Poissons Ratio (x) = 0.45681 0.22721
# Poissons Ratio (y) = 0.52520 -0.03899
# Poissons Ratio (z) = 0.80643 -0.12035
#
# Static dielectric constant tensor:
#      x y z
#    x 1.596210 0.000000 0.000000 
#    y 0.000000 1.616530 0.000000 
#    z 0.000000 0.000000 1.612810 
# 
# From -- ./inp_files/5905.got.cif
#   From: 2010.05.17/outbox.cif.g08.bks.cpg/sg63_3_cif.got.tgz:5905.got - 2010.06.03 15:47:04.
