data_PCOD9474091
_publ_section_title
;
Structure prediction by ZEFSAII (Michael W. Deem and Ramdas Pophale) SiO2 
 PCOD9474091
Probable space group: C M C M
;
_chemical_formula_sum "Si O2"
_cell_formula_units_Z 80
_cell_length_a 26.148264
_cell_length_b 18.893293
_cell_length_c 8.633099
_cell_angle_alpha 90.000000
_cell_angle_beta 90.000000
_cell_angle_gamma 90.000000
_cell_volume 4264.982387
_symmetry_space_group_name_H-M "C M C M"
_symmetry_group_IT_number 63
_symmetry_cell_setting 'orthorhombic'
loop_
_space_group_symop_operation_xyz
x,y,z
-x,-y,1/2+z
x,-y,-z
-x,y,1/2-z
-x,-y,-z
x,y,1/2-z
-x,y,z
x,-y,1/2+z
1/2+x,1/2+y,z
1/2-x,1/2-y,1/2+z
1/2+x,1/2-y,-z
1/2-x,1/2+y,1/2-z
1/2-x,1/2-y,-z
1/2+x,1/2+y,1/2-z
1/2-x,1/2+y,z
1/2+x,1/2-y,1/2+z
loop_
_atom_site_type_symbol
_atom_site_label
_atom_site_fract_x
_atom_site_fract_y
_atom_site_fract_z
Si Si1 0.557970 0.578240 0.563114
Si Si2 0.750158 0.920644 0.564104
Si Si3 0.849571 0.331971 0.937002
Si Si4 0.655060 0.668941 0.562456
Si Si5 0.941178 0.577788 0.935425
O O1 0.569784 0.500000 0.500000
O O2 0.558333 0.575247 0.750000
O O3 0.500000 0.596704 0.513543
O O4 0.601341 0.633372 0.514648
O O5 0.751158 0.923027 0.750000
O O6 0.698535 0.879956 0.514421
O O7 0.798655 0.876652 0.504610
O O8 0.751087 0.000000 0.500000
O O9 0.851836 0.332919 0.750000
O O10 0.842245 0.250731 0.986393
O O11 0.901405 0.365540 0.001134
O O12 0.657886 0.666660 0.750000
O O13 0.938805 0.575689 0.750000
O O14 0.000000 0.592837 0.982015
O O15 0.927848 0.500000 0.000000
#
# Coordination Sequence:
#
# PCOD9474091 Si02
#       5
#    16  16  16  16  16
#     4   9  18  33  53  77 105 138 177 220 264 314
#     4  11  23  38  57  81 109 143 184 228 276 330
#     4  10  22  38  57  83 113 146 183 226 279 334
#     4  10  21  37  57  82 111 143 182 226 275 330
#     4  10  21  37  58  84 113 147 188 232 277 326
#
# _framework density 18.757406
#
# number of rings (size 3 to 8) (size 9 to 14) (size 15 to 20)
#    0.000    2.000    0.000    3.000    0.000    8.400 
#    0.000    2.000    0.000    2.400    0.000    0.000 
#    0.000    0.000    0.000    0.000    0.000    0.000 
#
# Total GULP energy -223462.664308 kJ/mol
# GULP energy per Si atom -5586.566608 kJ/mol
# Density = 1.871471 g / cm^3
# Si number density = 18.757406 Si / 1000 Ang^3
#
#
#
# Elastic Constant Matrix: (Units=GPa)
#
#
# Indices 1 2 3 4 5 6 
#
# 1 130.3529 116.4889 31.5373 0.0000 0.0000 0.0000
# 2 116.4889 192.6651 36.6204 0.0000 0.0000 0.0000
# 3 31.5373 36.6204 14.9220 0.0000 0.0000 0.0000
# 4 0.0000 0.0000 0.0000 25.4683 0.0000 0.0000
# 5 0.0000 0.0000 0.0000 0.0000 29.9556 0.0000
# 6 0.0000 0.0000 0.0000 0.0000 0.0000 -11.9701
#
#
#
# Elastic Compliance Matrix: (Units=1/GPa)
#
#
# Indices 1 2 3 4 5 6 
#
# 1 0.020478 -0.007788 -0.024168 0.000000 0.000000 0.000000
# 2 -0.007788 0.012690 -0.014683 0.000000 0.000000 0.000000
# 3 -0.024168 -0.014683 0.154128 0.000000 0.000000 0.000000
# 4 0.000000 0.000000 0.000000 0.039265 0.000000 0.000000
# 5 0.000000 0.000000 0.000000 0.000000 0.033383 0.000000
# 6 0.000000 0.000000 0.000000 0.000000 0.000000 -0.083542
#
#
# Mechanical properties :
#
#
# Convention : Reuss Voigt Hill
#
# Bulk Modulus (GPa) = 10.63625 78.58147 44.60886
# Shear Modulus (GPa) = 16.61029 18.91032 17.76030
#
# Velocity S-wave (km/s) = 2.97902 3.17859 3.08042
# Velocity P-wave (km/s) = 4.18515 7.44686 6.04033
#
# Compressibility (1/GPa) = 0.09401807
#
# Stress axis : x y z
#
# Youngs Moduli (GPa) = 48.83267 78.80308 6.48812
#
# Poissons Ratio (x) = 0.61370 0.15680
# Poissons Ratio (y) = 0.38030 0.09527
# Poissons Ratio (z) = 1.18018 1.15708
#
# Static dielectric constant tensor:
#      x y z
#    x 1.640110 0.000000 0.000000 
#    y 0.000000 1.612080 0.000000 
#    z 0.000000 0.000000 1.638300 
# 
# From -- ./inp_files/12024.got.cif
#   From: 2010.05.17/outbox.cif.g08.bks.cpg/sg63_7_cif.got.tgz:12024.got - 2010.06.03 15:47:04.
