data_PCOD9474042
_publ_section_title
;
Structure prediction by ZEFSAII (Michael W. Deem and Ramdas Pophale) SiO2 
 PCOD9474042
Probable space group: C M C M
;
_chemical_formula_sum "Si O2"
_cell_formula_units_Z 88
_cell_length_a 22.523800
_cell_length_b 25.144425
_cell_length_c 9.099761
_cell_angle_alpha 90.000000
_cell_angle_beta 90.000000
_cell_angle_gamma 90.000000
_cell_volume 5153.631441
_symmetry_space_group_name_H-M "C M C M"
_symmetry_group_IT_number 63
_symmetry_cell_setting 'orthorhombic'
loop_
_space_group_symop_operation_xyz
x,y,z
-x,-y,1/2+z
x,-y,-z
-x,y,1/2-z
-x,-y,-z
x,y,1/2-z
-x,y,z
x,-y,1/2+z
1/2+x,1/2+y,z
1/2-x,1/2-y,1/2+z
1/2+x,1/2-y,-z
1/2-x,1/2+y,1/2-z
1/2-x,1/2-y,-z
1/2+x,1/2+y,1/2-z
1/2-x,1/2+y,z
1/2+x,1/2-y,1/2+z
loop_
_atom_site_type_symbol
_atom_site_label
_atom_site_fract_x
_atom_site_fract_y
_atom_site_fract_z
Si Si1 0.615973 0.372432 0.925833
Si Si2 0.570992 0.268457 0.424209
Si Si3 0.647146 0.055972 0.924149
Si Si4 0.069896 0.353365 0.926252
Si Si5 0.000000 0.057603 0.426183
Si Si6 0.712269 0.556146 0.575434
O O1 0.622125 0.373053 0.750000
O O2 0.558480 0.408490 0.965708
O O3 0.603843 0.313266 0.983664
O O4 0.672654 0.398532 0.002565
O O5 0.582336 0.275676 0.250000
O O6 0.500000 0.274288 0.446044
O O7 0.586321 0.207621 0.463724
O O8 0.637401 0.052090 0.750000
O O9 0.717538 0.065008 0.949168
O O10 0.609359 0.103572 0.992109
O O11 0.631411 0.000000 0.000000
O O12 0.076382 0.359008 0.750000
O O13 0.000000 0.360448 0.960309
O O14 0.000000 0.050947 0.250000
O O15 0.000000 0.000000 0.500000
O O16 0.696394 0.500000 0.500000
O O17 0.701682 0.553094 0.750000
#
# Coordination Sequence:
#
# PCOD9474042 Si02
#       6
#    16  16  16  16   8  16
#     4  11  21  34  52  77 107 141 182 224 268 317
#     4   9  18  34  55  78 106 143 180 218 268 318
#     4  10  21  37  58  82 109 141 177 218 266 320
#     4   9  19  36  58  84 112 140 175 218 265 320
#     4  10  22  34  46  72 106 136 173 222 267 310
#     4  10  21  37  55  77 105 140 182 223 267 321
#
# _framework density 17.075337999999999
#
# number of rings (size 3 to 8) (size 9 to 14) (size 15 to 20)
#    0.000    2.182    0.909    3.273    0.000    6.545 
#    0.000    2.727    0.000    0.000    0.000    0.000 
#    0.000    0.000    0.000    0.000    0.000    0.000 
#
# Total GULP energy -245644.390332 kJ/mol
# GULP energy per Si atom -5582.827053 kJ/mol
# Density = 1.703647 g / cm^3
# Si number density = 17.075338 Si / 1000 Ang^3
#
#
#
# Elastic Constant Matrix: (Units=GPa)
#
#
# Indices 1 2 3 4 5 6 
#
# 1 63.5853 83.8323 59.9590 0.0000 0.0000 0.0000
# 2 83.8323 170.0649 87.1363 0.0000 0.0000 0.0000
# 3 59.9590 87.1363 74.7334 0.0000 0.0000 0.0000
# 4 0.0000 0.0000 0.0000 38.5155 0.0000 0.0000
# 5 0.0000 0.0000 0.0000 0.0000 10.6912 0.0000
# 6 0.0000 0.0000 0.0000 0.0000 0.0000 28.0129
#
#
#
# Elastic Compliance Matrix: (Units=1/GPa)
#
#
# Indices 1 2 3 4 5 6 
#
# 1 0.079059 -0.016076 -0.044685 0.000000 0.000000 0.000000
# 2 -0.016076 0.017874 -0.007943 0.000000 0.000000 0.000000
# 3 -0.044685 -0.007943 0.058493 0.000000 0.000000 0.000000
# 4 0.000000 0.000000 0.000000 0.025964 0.000000 0.000000
# 5 0.000000 0.000000 0.000000 0.000000 0.093535 0.000000
# 6 0.000000 0.000000 0.000000 0.000000 0.000000 0.035698
#
#
# Mechanical properties :
#
#
# Convention : Reuss Voigt Hill
#
# Bulk Modulus (GPa) = 55.50011 85.58210 70.54110
# Shear Modulus (GPa) = 11.01231 20.60766 15.80999
#
# Velocity S-wave (km/s) = 2.54229 3.47777 3.04615
# Velocity P-wave (km/s) = 6.41805 8.14589 7.33304
#
# Compressibility (1/GPa) = 0.01801798
#
# Stress axis : x y z
#
# Youngs Moduli (GPa) = 12.64882 55.94575 17.09593
#
# Poissons Ratio (x) = 0.89938 0.76394
# Poissons Ratio (y) = 0.20334 0.13579
# Poissons Ratio (z) = 0.56522 0.44438
#
# Static dielectric constant tensor:
#      x y z
#    x 1.564020 0.000000 0.000000 
#    y 0.000000 1.551930 0.000000 
#    z 0.000000 0.000000 1.566350 
# 
# From -- ./inp_files/8162.got.cif
#   From: 2010.05.17/outbox.cif.g08.bks.cpg/sg63_5_cif.got.tgz:8162.got - 2010.06.03 15:47:04.
