data_PCOD9474474
_publ_section_title
;
Structure prediction by ZEFSAII (Michael W. Deem and Ramdas Pophale) SiO2 
 PCOD9474474
Probable space group: C M C M
;
_chemical_formula_sum "Si O2"
_cell_formula_units_Z 96
_cell_length_a 22.241458
_cell_length_b 26.127700
_cell_length_c 7.991935
_cell_angle_alpha 90.000000
_cell_angle_beta 90.000000
_cell_angle_gamma 90.000000
_cell_volume 4644.258420
_symmetry_space_group_name_H-M "C M C M"
_symmetry_group_IT_number 63
_symmetry_cell_setting 'orthorhombic'
loop_
_space_group_symop_operation_xyz
x,y,z
-x,-y,1/2+z
x,-y,-z
-x,y,1/2-z
-x,-y,-z
x,y,1/2-z
-x,y,z
x,-y,1/2+z
1/2+x,1/2+y,z
1/2-x,1/2-y,1/2+z
1/2+x,1/2-y,-z
1/2-x,1/2+y,1/2-z
1/2-x,1/2-y,-z
1/2+x,1/2+y,1/2-z
1/2-x,1/2+y,z
1/2+x,1/2-y,1/2+z
loop_
_atom_site_type_symbol
_atom_site_label
_atom_site_fract_x
_atom_site_fract_y
_atom_site_fract_z
Si Si1 0.706212 0.845505 0.551850
Si Si2 0.656479 0.648015 0.454703
Si Si3 0.384359 0.239855 0.553689
Si Si4 0.867761 0.554963 0.950913
Si Si5 0.500000 0.818413 0.935757
Si Si6 0.431192 0.442209 0.548182
Si Si7 0.000000 0.427678 0.440556
O O1 0.708001 0.835232 0.750000
O O2 0.774188 0.854112 0.491048
O O3 0.672487 0.797584 0.469230
O O4 0.668156 0.896770 0.520150
O O5 0.656641 0.646872 0.250000
O O6 0.630035 0.702966 0.505040
O O7 0.615168 0.600911 0.512198
O O8 0.399540 0.242114 0.750000
O O9 0.440730 0.214931 0.461474
O O10 0.869370 0.559996 0.750000
O O11 0.936472 0.556650 0.018159
O O12 0.841294 0.500000 0.000000
O O13 0.500000 0.840915 0.750000
O O14 0.500000 0.866139 0.059909
O O15 0.413860 0.500000 0.500000
O O16 0.432256 0.439500 0.750000
O O17 0.500000 0.433420 0.488788
O O18 0.000000 0.447233 0.250000
#
# Coordination Sequence:
#
# PCOD9474474 Si02
#       7
#    16  16  16  16   8  16   8
#     4  11  22  39  59  85 122 157 197 245 297 350
#     4   9  21  38  61  89 116 155 199 241 287 353
#     4  11  22  39  62  87 118 157 201 241 292 353
#     4  11  23  39  60  86 116 156 204 249 300 352
#     4  12  24  37  59  90 122 156 193 245 303 347
#     4   9  18  36  61  86 114 148 189 236 292 349
#     4  10  21  39  61  84 116 154 198 245 294 353
#
# _framework density 20.670684999999999
#
# number of rings (size 3 to 8) (size 9 to 14) (size 15 to 20)
#    0.000    1.667    1.667    3.000    1.167    1.333 
#    0.000    7.500    0.000    0.000    0.000    0.000 
#    0.000    0.000    0.000    0.000    0.000    0.000 
#
# Total GULP energy -268247.779456 kJ/mol
# GULP energy per Si atom -5588.495405 kJ/mol
# Density = 2.062364 g / cm^3
# Si number density = 20.670685 Si / 1000 Ang^3
#
#
#
# Elastic Constant Matrix: (Units=GPa)
#
#
# Indices 1 2 3 4 5 6 
#
# 1 110.8597 72.4162 -3.1741 0.0000 0.0000 0.0000
# 2 72.4162 156.2073 -11.3404 0.0000 0.0000 0.0000
# 3 -3.1741 -11.3404 33.8525 0.0000 0.0000 0.0000
# 4 0.0000 0.0000 0.0000 25.4363 0.0000 0.0000
# 5 0.0000 0.0000 0.0000 0.0000 -4.0759 0.0000
# 6 0.0000 0.0000 0.0000 0.0000 0.0000 3.0800
#
#
#
# Elastic Compliance Matrix: (Units=1/GPa)
#
#
# Indices 1 2 3 4 5 6 
#
# 1 0.012961 -0.006068 -0.000817 0.000000 0.000000 0.000000
# 2 -0.006068 0.009402 0.002581 0.000000 0.000000 0.000000
# 3 -0.000817 0.002581 0.030328 0.000000 0.000000 0.000000
# 4 0.000000 0.000000 0.000000 0.039314 0.000000 0.000000
# 5 0.000000 0.000000 0.000000 0.000000 -0.245345 0.000000
# 6 0.000000 0.000000 0.000000 0.000000 0.000000 0.324680
#
#
# Mechanical properties :
#
#
# Convention : Reuss Voigt Hill
#
# Bulk Modulus (GPa) = 22.68526 46.30254 34.49390
# Shear Modulus (GPa) = 25.68826 21.08927 23.38876
#
# Velocity S-wave (km/s) = 3.52907 3.19760 3.36742
# Velocity P-wave (km/s) = 5.25397 6.00680 5.64295
#
# Compressibility (1/GPa) = 0.04408149
#
# Stress axis : x y z
#
# Youngs Moduli (GPa) = 77.15688 106.35966 32.97304
#
# Poissons Ratio (x) = 0.64536 0.02695
# Poissons Ratio (y) = 0.46817 -0.08509
# Poissons Ratio (z) = 0.06307 -0.27448
#
# Static dielectric constant tensor:
#      x y z
#    x 1.730640 0.000000 0.000000 
#    y 0.000000 1.705780 0.000000 
#    z 0.000000 0.000000 1.748020 
# 
# From -- ./inp_files/10555.got.cif
#   From: 2010.05.17/outbox.cif.g08.bks.cpg/sg63_6_cif.got.tgz:10555.got - 2010.06.03 15:47:04.
