data_PCOD9474790
_publ_section_title
;
Structure prediction by ZEFSAII (Michael W. Deem and Ramdas Pophale) SiO2 
 PCOD9474790
Probable space group: C M C M
;
_chemical_formula_sum "Si O2"
_cell_formula_units_Z 116
_cell_length_a 25.855323
_cell_length_b 9.343461
_cell_length_c 22.273166
_cell_angle_alpha 90.000000
_cell_angle_beta 90.000000
_cell_angle_gamma 90.000000
_cell_volume 5380.711397
_symmetry_space_group_name_H-M "C M C M"
_symmetry_group_IT_number 63
_symmetry_cell_setting 'orthorhombic'
loop_
_space_group_symop_operation_xyz
x,y,z
-x,-y,1/2+z
x,-y,-z
-x,y,1/2-z
-x,-y,-z
x,y,1/2-z
-x,y,z
x,-y,1/2+z
1/2+x,1/2+y,z
1/2-x,1/2-y,1/2+z
1/2+x,1/2-y,-z
1/2-x,1/2+y,1/2-z
1/2-x,1/2-y,-z
1/2+x,1/2+y,1/2-z
1/2-x,1/2+y,z
1/2+x,1/2-y,1/2+z
loop_
_atom_site_type_symbol
_atom_site_label
_atom_site_fract_x
_atom_site_fract_y
_atom_site_fract_z
Si Si1 0.000000 0.513277 0.250000
Si Si2 0.806269 0.177001 0.005710
Si Si3 0.442367 0.077745 0.632982
Si Si4 0.107037 0.318249 0.918183
Si Si5 0.442796 0.536331 0.569380
Si Si6 0.314297 0.789046 0.822504
Si Si7 0.136646 0.831013 0.870297
Si Si8 0.727688 0.491113 0.819130
O O1 0.044061 0.500883 0.195746
O O2 0.847148 0.258006 0.961303
O O3 0.750000 0.250000 0.000000
O O4 0.829528 0.206148 0.071438
O O5 0.804380 0.000000 0.000000
O O6 0.500000 0.128711 0.612378
O O7 0.402131 0.204501 0.646103
O O8 0.416064 0.977060 0.582576
O O9 0.061336 0.205762 0.925623
O O10 0.130631 0.302563 0.851787
O O11 0.432277 0.500000 0.500000
O O12 0.500000 0.485467 0.585150
O O13 0.399914 0.462879 0.610295
O O14 0.315802 0.786980 0.750000
O O15 0.288582 0.642021 0.845554
O O16 0.278064 0.917230 0.845509
O O17 0.178948 0.884860 0.823113
O O18 0.740111 0.518284 0.750000
#
# Coordination Sequence:
#
# PCOD9474790 Si02
#       8
#     4  16  16  16  16  16  16  16
#     4   8  24  56  60 100 140 176 232 286 362 384
#     4  12  26  44  69 102 144 180 225 280 333 412
#     4  10  26  43  70  95 131 172 228 285 333 419
#     4  12  22  43  65  97 128 178 217 274 337 397
#     4  11  22  42  67  90 131 171 210 270 335 391
#     4  10  22  38  60  91 124 163 215 269 327 401
#     4  12  22  43  65  97 128 178 217 274 337 397
#     4  10  22  38  60  91 124 163 215 269 327 401
#
# _framework density 21.558488000000001
#
# number of rings (size 3 to 8) (size 9 to 14) (size 15 to 20)
#    0.414    0.690    4.138    1.655    5.793    0.000 
#    0.000    0.690    0.000    1.655    0.000    0.000 
#    0.000    0.000    0.000    0.000    0.000    0.000 
#
# Total GULP energy -323043.581774 kJ/mol
# GULP energy per Si atom -5569.716927 kJ/mol
# Density = 2.150942 g / cm^3
# Si number density = 21.558488 Si / 1000 Ang^3
#
#
#
# Elastic Constant Matrix: (Units=GPa)
#
#
# Indices 1 2 3 4 5 6 
#
# 1 79.8588 5.2516 18.0570 0.0000 0.0000 0.0000
# 2 5.2516 22.1107 -5.6185 0.0000 0.0000 0.0000
# 3 18.0570 -5.6185 31.9448 0.0000 0.0000 0.0000
# 4 0.0000 0.0000 0.0000 14.7761 0.0000 0.0000
# 5 0.0000 0.0000 0.0000 0.0000 15.6444 0.0000
# 6 0.0000 0.0000 0.0000 0.0000 0.0000 12.9745
#
#
#
# Elastic Compliance Matrix: (Units=1/GPa)
#
#
# Indices 1 2 3 4 5 6 
#
# 1 0.015085 -0.006019 -0.009586 0.000000 0.000000 0.000000
# 2 -0.006019 0.049744 0.012151 0.000000 0.000000 0.000000
# 3 -0.009586 0.012151 0.038860 0.000000 0.000000 0.000000
# 4 0.000000 0.000000 0.000000 0.067677 0.000000 0.000000
# 5 0.000000 0.000000 0.000000 0.000000 0.063921 0.000000
# 6 0.000000 0.000000 0.000000 0.000000 0.000000 0.077074
#
#
# Mechanical properties :
#
#
# Convention : Reuss Voigt Hill
#
# Bulk Modulus (GPa) = 10.33243 18.81049 14.57146
# Shear Modulus (GPa) = 14.22364 16.42731 15.32547
#
# Velocity S-wave (km/s) = 2.57138 2.76341 2.66912
# Velocity P-wave (km/s) = 3.69042 4.35042 4.03394
#
# Compressibility (1/GPa) = 0.09678267
#
# Stress axis : x y z
#
# Youngs Moduli (GPa) = 66.28968 20.10287 25.73371
#
# Poissons Ratio (x) = 0.12099 0.24667
# Poissons Ratio (y) = 0.39898 -0.31270
# Poissons Ratio (z) = 0.63543 -0.24427
#
# Static dielectric constant tensor:
#      x y z
#    x 1.774440 0.000000 0.000000 
#    y 0.000000 1.881750 0.000000 
#    z 0.000000 0.000000 1.782600 
# 
# From -- ./inp_files/65478.got.cif
#   From: 2010.05.17/outbox.cif.g08.bks.cpg/sg63_33_cif.got.tgz:65478.got - 2010.06.03 15:47:04.
