data_PCOD9474787
_publ_section_title
;
Structure prediction by ZEFSAII (Michael W. Deem and Ramdas Pophale) SiO2 
 PCOD9474787
Probable space group: C M C M
;
_chemical_formula_sum "Si O2"
_cell_formula_units_Z 116
_cell_length_a 24.806162
_cell_length_b 9.742067
_cell_length_c 24.794736
_cell_angle_alpha 90.000000
_cell_angle_beta 90.000000
_cell_angle_gamma 90.000000
_cell_volume 5991.977531
_symmetry_space_group_name_H-M "C M C M"
_symmetry_group_IT_number 63
_symmetry_cell_setting 'orthorhombic'
loop_
_space_group_symop_operation_xyz
x,y,z
-x,-y,1/2+z
x,-y,-z
-x,y,1/2-z
-x,-y,-z
x,y,1/2-z
-x,y,z
x,-y,1/2+z
1/2+x,1/2+y,z
1/2-x,1/2-y,1/2+z
1/2+x,1/2-y,-z
1/2-x,1/2+y,1/2-z
1/2-x,1/2-y,-z
1/2+x,1/2+y,1/2-z
1/2-x,1/2+y,z
1/2+x,1/2-y,1/2+z
loop_
_atom_site_type_symbol
_atom_site_label
_atom_site_fract_x
_atom_site_fract_y
_atom_site_fract_z
Si Si1 0.395474 0.590725 0.917985
Si Si2 0.718070 0.183544 0.310969
Si Si3 0.775638 0.049045 0.872659
Si Si4 0.939660 0.482872 0.059998
Si Si5 0.906266 0.661865 0.158249
Si Si6 0.405377 0.299285 0.962010
Si Si7 0.291861 0.147868 0.970010
Si Si8 0.500000 0.132997 0.250000
O O1 0.331627 0.565591 0.905855
O O2 0.414390 0.687305 0.869100
O O3 0.415486 0.437270 0.928611
O O4 0.410578 0.667532 0.974042
O O5 0.733459 0.152188 0.250000
O O6 0.722020 0.344756 0.323442
O O7 0.654731 0.150563 0.319909
O O8 0.756486 0.098045 0.351214
O O9 0.730880 0.104680 0.912723
O O10 0.909601 0.555886 0.108289
O O11 0.940806 0.319760 0.063801
O O12 0.000000 0.541662 0.059189
O O13 0.916039 0.500000 0.000000
O O14 0.952086 0.635196 0.202473
O O15 0.345227 0.236865 0.960644
O O16 0.250000 0.250000 0.000000
O O17 0.297660 0.000000 0.000000
#
# Coordination Sequence:
#
# PCOD9474787 Si02
#       8
#    16  16  16  16  16  16  16   4
#     4  10  22  38  59  92 130 167 205 253 321 391
#     4  11  23  40  60  88 117 166 217 267 315 364
#     4  11  22  36  57  85 128 165 207 256 300 373
#     4  11  22  38  62  93 124 159 204 269 336 394
#     4  11  23  43  69  92 123 164 220 271 324 386
#     4  11  21  37  58  91 135 167 200 255 319 401
#     4  12  22  33  56  90 130 176 211 241 309 389
#     4  12  24  48  74  92 116 166 230 284 316 388
#
# _framework density 19.359217999999998
#
# number of rings (size 3 to 8) (size 9 to 14) (size 15 to 20)
#    0.000    0.966    4.138    4.138    1.931    0.000 
#    1.241    0.690    0.000    1.655    0.000    0.000 
#    0.000    0.000    0.000    0.000    0.000    0.000 
#
# Total GULP energy -322987.456317 kJ/mol
# GULP energy per Si atom -5568.749247 kJ/mol
# Density = 1.931516 g / cm^3
# Si number density = 19.359218 Si / 1000 Ang^3
#
#
#
# Elastic Constant Matrix: (Units=GPa)
#
#
# Indices 1 2 3 4 5 6 
#
# 1 52.2775 1.5862 6.0673 0.0000 0.0000 0.0000
# 2 1.5862 98.2974 26.2030 0.0000 0.0000 0.0000
# 3 6.0673 26.2030 88.3536 0.0000 0.0000 0.0000
# 4 0.0000 0.0000 0.0000 19.6790 0.0000 0.0000
# 5 0.0000 0.0000 0.0000 0.0000 12.3318 0.0000
# 6 0.0000 0.0000 0.0000 0.0000 0.0000 14.9657
#
#
#
# Elastic Compliance Matrix: (Units=1/GPa)
#
#
# Indices 1 2 3 4 5 6 
#
# 1 0.019283 0.000045 -0.001338 0.000000 0.000000 0.000000
# 2 0.000045 0.011047 -0.003279 0.000000 0.000000 0.000000
# 3 -0.001338 -0.003279 0.012383 0.000000 0.000000 0.000000
# 4 0.000000 0.000000 0.000000 0.050816 0.000000 0.000000
# 5 0.000000 0.000000 0.000000 0.000000 0.081091 0.000000
# 6 0.000000 0.000000 0.000000 0.000000 0.000000 0.066820
#
#
# Mechanical properties :
#
#
# Convention : Reuss Voigt Hill
#
# Bulk Modulus (GPa) = 29.78952 34.07129 31.93041
# Shear Modulus (GPa) = 19.10067 23.06674 21.08371
#
# Velocity S-wave (km/s) = 3.14450 3.45557 3.30370
# Velocity P-wave (km/s) = 5.34836 5.79302 5.57513
#
# Compressibility (1/GPa) = 0.03356885
#
# Stress axis : x y z
#
# Youngs Moduli (GPa) = 51.86037 90.52554 80.75892
#
# Poissons Ratio (x) = -0.00411 0.10802
# Poissons Ratio (y) = -0.00235 0.26483
# Poissons Ratio (z) = 0.06937 0.29685
#
# Static dielectric constant tensor:
#      x y z
#    x 1.594300 0.000000 0.000000 
#    y 0.000000 1.739230 0.000000 
#    z 0.000000 0.000000 1.669030 
# 
# From -- ./inp_files/65479.got.cif
#   From: 2010.05.17/outbox.cif.g08.bks.cpg/sg63_33_cif.got.tgz:65479.got - 2010.06.03 15:47:04.
