data_PCOD9474806
_publ_section_title
;
Structure prediction by ZEFSAII (Michael W. Deem and Ramdas Pophale) SiO2 
 PCOD9474806
Probable space group: C M C M
;
_chemical_formula_sum "Si O2"
_cell_formula_units_Z 60
_cell_length_a 12.636571
_cell_length_b 14.378037
_cell_length_c 18.329499
_cell_angle_alpha 90.000000
_cell_angle_beta 90.000000
_cell_angle_gamma 90.000000
_cell_volume 3330.269909
_symmetry_space_group_name_H-M "C M C M"
_symmetry_group_IT_number 63
_symmetry_cell_setting 'orthorhombic'
loop_
_space_group_symop_operation_xyz
x,y,z
-x,-y,1/2+z
x,-y,-z
-x,y,1/2-z
-x,-y,-z
x,y,1/2-z
-x,y,z
x,-y,1/2+z
1/2+x,1/2+y,z
1/2-x,1/2-y,1/2+z
1/2+x,1/2-y,-z
1/2-x,1/2+y,1/2-z
1/2-x,1/2-y,-z
1/2+x,1/2+y,1/2-z
1/2-x,1/2+y,z
1/2+x,1/2-y,1/2+z
loop_
_atom_site_type_symbol
_atom_site_label
_atom_site_fract_x
_atom_site_fract_y
_atom_site_fract_z
Si Si1 0.877148 0.504836 0.750000
Si Si2 0.500000 0.223005 0.584814
Si Si3 0.288232 0.147723 0.978793
Si Si4 0.229415 0.982233 0.611527
Si Si5 0.500000 0.433402 0.571862
Si Si6 0.500000 0.813350 0.250000
O O1 0.805812 0.479494 0.680698
O O2 0.000000 0.467112 0.750000
O O3 0.900252 0.615742 0.750000
O O4 0.599515 0.163876 0.558654
O O5 0.500000 0.325074 0.549047
O O6 0.500000 0.237377 0.672413
O O7 0.223015 0.086827 0.920683
O O8 0.250000 0.250000 0.000000
O O9 0.283282 0.084258 0.050821
O O10 0.107902 0.949648 0.616880
O O11 0.500000 0.500000 0.500000
#
# Coordination Sequence:
#
# PCOD9474806 Si02
#       6
#     8   8  16  16   8   4
#     4  10  22  42  58  92 131 159 209 274 311 383
#     4  12  22  38  67  93 127 170 221 269 317 384
#     4  11  21  38  62  95 121 164 214 264 313 378
#     4  11  23  38  65  90 128 171 205 258 333 369
#     4  12  22  42  62  95 133 161 216 268 313 394
#     4  10  22  38  62  94 126 160 208 278 308 374
#
# _framework density 18.016559000000001
#
# number of rings (size 3 to 8) (size 9 to 14) (size 15 to 20)
#    0.400    0.533    8.000    0.000    1.867    2.667 
#    0.000    1.333    0.000    0.000    0.000    0.000 
#    0.000    0.000    0.000    0.000    0.000    0.000 
#
# Total GULP energy -167103.686626 kJ/mol
# GULP energy per Si atom -5570.122888 kJ/mol
# Density = 1.797555 g / cm^3
# Si number density = 18.016559 Si / 1000 Ang^3
#
#
#
# Elastic Constant Matrix: (Units=GPa)
#
#
# Indices 1 2 3 4 5 6 
#
# 1 121.4928 27.6778 53.1055 0.0000 0.0000 0.0000
# 2 27.6778 88.5918 21.7840 0.0000 0.0000 0.0000
# 3 53.1055 21.7840 121.5958 0.0000 0.0000 0.0000
# 4 0.0000 0.0000 0.0000 19.9289 0.0000 0.0000
# 5 0.0000 0.0000 0.0000 0.0000 25.2764 0.0000
# 6 0.0000 0.0000 0.0000 0.0000 0.0000 25.9990
#
#
#
# Elastic Compliance Matrix: (Units=1/GPa)
#
#
# Indices 1 2 3 4 5 6 
#
# 1 0.010593 -0.002272 -0.004219 0.000000 0.000000 0.000000
# 2 -0.002272 0.012295 -0.001210 0.000000 0.000000 0.000000
# 3 -0.004219 -0.001210 0.010284 0.000000 0.000000 0.000000
# 4 0.000000 0.000000 0.000000 0.050178 0.000000 0.000000
# 5 0.000000 0.000000 0.000000 0.000000 0.039563 0.000000
# 6 0.000000 0.000000 0.000000 0.000000 0.000000 0.038463
#
#
# Mechanical properties :
#
#
# Convention : Reuss Voigt Hill
#
# Bulk Modulus (GPa) = 56.28026 59.64611 57.96318
# Shear Modulus (GPa) = 27.36707 29.51508 28.44107
#
# Velocity S-wave (km/s) = 3.90166 4.05188 3.97748
# Velocity P-wave (km/s) = 7.18353 7.42081 7.30314
#
# Compressibility (1/GPa) = 0.01776822
#
# Stress axis : x y z
#
# Youngs Moduli (GPa) = 94.40391 81.33285 97.24287
#
# Poissons Ratio (x) = 0.18478 0.41029
# Poissons Ratio (y) = 0.21448 0.11771
# Poissons Ratio (z) = 0.39831 0.09845
#
# Static dielectric constant tensor:
#      x y z
#    x 1.655330 0.000000 0.000000 
#    y 0.000000 1.609600 0.000000 
#    z 0.000000 0.000000 1.644960 
# 
# From -- ./inp_files/41470.got.cif
#   From: 2010.05.17/outbox.cif.g08.bks.cpg/sg63_21_cif.got.tgz:41470.got - 2010.06.03 15:47:04.
