data_PCOD9474208
_publ_section_title
;
Structure prediction by ZEFSAII (Michael W. Deem and Ramdas Pophale) SiO2 
 PCOD9474208
Probable space group: C M C M
;
_chemical_formula_sum "Si O2"
_cell_formula_units_Z 96
_cell_length_a 15.311561
_cell_length_b 19.753492
_cell_length_c 13.795776
_cell_angle_alpha 90.000000
_cell_angle_beta 90.000000
_cell_angle_gamma 90.000000
_cell_volume 4172.626231
_symmetry_space_group_name_H-M "C M C M"
_symmetry_group_IT_number 63
_symmetry_cell_setting 'orthorhombic'
loop_
_space_group_symop_operation_xyz
x,y,z
-x,-y,1/2+z
x,-y,-z
-x,y,1/2-z
-x,-y,-z
x,y,1/2-z
-x,y,z
x,-y,1/2+z
1/2+x,1/2+y,z
1/2-x,1/2-y,1/2+z
1/2+x,1/2-y,-z
1/2-x,1/2+y,1/2-z
1/2-x,1/2-y,-z
1/2+x,1/2+y,1/2-z
1/2-x,1/2+y,z
1/2+x,1/2-y,1/2+z
loop_
_atom_site_type_symbol
_atom_site_label
_atom_site_fract_x
_atom_site_fract_y
_atom_site_fract_z
Si Si1 0.833657 0.575419 0.135607
Si Si2 0.000000 0.330842 0.052811
Si Si3 0.500000 0.019759 0.634687
Si Si4 0.807127 0.316522 0.028402
Si Si5 0.500000 0.636692 0.134325
Si Si6 0.000000 0.216097 0.942688
Si Si7 0.359051 0.474650 0.634359
Si Si8 0.148425 0.877801 0.365497
O O1 0.836001 0.593173 0.250000
O O2 0.742594 0.536969 0.116293
O O3 0.914650 0.525904 0.115786
O O4 0.829144 0.640806 0.067861
O O5 0.099570 0.308421 0.083165
O O6 0.000000 0.410754 0.074597
O O7 0.000000 0.296890 0.944775
O O8 0.500000 0.036995 0.750000
O O9 0.743020 0.361911 0.092790
O O10 0.750000 0.250000 0.000000
O O11 0.500000 0.653702 0.250000
O O12 0.583403 0.590111 0.109536
O O13 0.500000 0.695965 0.056582
O O14 0.916599 0.181552 0.895984
O O15 0.372008 0.478690 0.750000
O O16 0.384358 0.548863 0.597007
O O17 0.151970 0.880020 0.250000
#
# Coordination Sequence:
#
# PCOD9474208 Si02
#       8
#    16   8   8  16   8   8  16  16
#     4  10  22  43  71 103 138 180 236 298 365 436
#     4  12  27  45  67 103 149 183 249 306 357 446
#     4  10  23  46  76 109 143 192 252 314 378 434
#     4  12  26  45  68 103 143 187 241 296 363 446
#     4  10  21  37  60  96 143 186 232 290 358 439
#     4  12  24  42  65  98 145 194 248 288 363 455
#     4   9  19  36  62  97 130 172 232 290 351 424
#     4  11  24  44  69  98 139 185 240 304 365 440
#
# _framework density 23.007093000000001
#
# number of rings (size 3 to 8) (size 9 to 14) (size 15 to 20)
#    0.000    1.333    1.667    3.250    0.000   10.333 
#    0.000    0.000    0.000    0.000    0.000    1.167 
#    0.000    0.000    0.000    0.000    0.000    0.000 
#
# Total GULP energy -268189.303926 kJ/mol
# GULP energy per Si atom -5587.277165 kJ/mol
# Density = 2.295473 g / cm^3
# Si number density = 23.007093 Si / 1000 Ang^3
#
#
#
# Elastic Constant Matrix: (Units=GPa)
#
#
# Indices 1 2 3 4 5 6 
#
# 1 149.0735 41.2850 22.3069 0.0000 0.0000 0.0000
# 2 41.2850 131.1332 45.8351 0.0000 0.0000 0.0000
# 3 22.3069 45.8351 112.4110 0.0000 0.0000 0.0000
# 4 0.0000 0.0000 0.0000 8.7752 0.0000 0.0000
# 5 0.0000 0.0000 0.0000 0.0000 14.6101 0.0000
# 6 0.0000 0.0000 0.0000 0.0000 0.0000 67.4712
#
#
#
# Elastic Compliance Matrix: (Units=1/GPa)
#
#
# Indices 1 2 3 4 5 6 
#
# 1 0.007384 -0.002114 -0.000603 0.000000 0.000000 0.000000
# 2 -0.002114 0.009498 -0.003453 0.000000 0.000000 0.000000
# 3 -0.000603 -0.003453 0.010424 0.000000 0.000000 0.000000
# 4 0.000000 0.000000 0.000000 0.113957 0.000000 0.000000
# 5 0.000000 0.000000 0.000000 0.000000 0.068446 0.000000
# 6 0.000000 0.000000 0.000000 0.000000 0.000000 0.014821
#
#
# Mechanical properties :
#
#
# Convention : Reuss Voigt Hill
#
# Bulk Modulus (GPa) = 66.82356 67.94129 67.38243
# Shear Modulus (GPa) = 20.67319 37.05069 28.86194
#
# Velocity S-wave (km/s) = 3.00085 4.01734 3.54571
# Velocity P-wave (km/s) = 6.41207 7.14936 6.79073
#
# Compressibility (1/GPa) = 0.01496478
#
# Stress axis : x y z
#
# Youngs Moduli (GPa) = 135.43200 105.28079 95.93430
#
# Poissons Ratio (x) = 0.22254 0.05788
# Poissons Ratio (y) = 0.28627 0.33131
# Poissons Ratio (z) = 0.08172 0.36359
#
# Static dielectric constant tensor:
#      x y z
#    x 1.863270 0.000000 0.000000 
#    y 0.000000 2.004490 0.000000 
#    z 0.000000 0.000000 1.868190 
# 
# From -- ./inp_files/32029.got.cif
#   From: 2010.05.17/outbox.cif.g08.bks.cpg/sg63_17_cif.got.tgz:32029.got - 2010.06.03 15:47:04.
