data_PCOD9474046
_publ_section_title
;
Structure prediction by ZEFSAII (Michael W. Deem and Ramdas Pophale) SiO2 
 PCOD9474046
Probable space group: C M C M
;
_chemical_formula_sum "Si O2"
_cell_formula_units_Z 80
_cell_length_a 17.434605
_cell_length_b 9.624148
_cell_length_c 23.102583
_cell_angle_alpha 90.000000
_cell_angle_beta 90.000000
_cell_angle_gamma 90.000000
_cell_volume 3876.456765
_symmetry_space_group_name_H-M "C M C M"
_symmetry_group_IT_number 63
_symmetry_cell_setting 'orthorhombic'
loop_
_space_group_symop_operation_xyz
x,y,z
-x,-y,1/2+z
x,-y,-z
-x,y,1/2-z
-x,-y,-z
x,y,1/2-z
-x,y,z
x,-y,1/2+z
1/2+x,1/2+y,z
1/2-x,1/2-y,1/2+z
1/2+x,1/2-y,-z
1/2-x,1/2+y,1/2-z
1/2-x,1/2-y,-z
1/2+x,1/2+y,1/2-z
1/2-x,1/2+y,z
1/2+x,1/2-y,1/2+z
loop_
_atom_site_type_symbol
_atom_site_label
_atom_site_fract_x
_atom_site_fract_y
_atom_site_fract_z
Si Si1 0.587446 0.333418 0.990718
Si Si2 0.794001 0.712523 0.814791
Si Si3 0.644622 0.717245 0.609140
Si Si4 0.910760 0.907517 0.637050
Si Si5 0.085417 0.534019 0.316793
O O1 0.500000 0.286700 0.002311
O O2 0.641505 0.268943 0.039551
O O3 0.588953 0.500000 0.000000
O O4 0.602900 0.320616 0.922676
O O5 0.760319 0.704441 0.750000
O O6 0.728384 0.719725 0.862599
O O7 0.849756 0.845268 0.818959
O O8 0.848866 0.580252 0.824060
O O9 0.606654 0.568734 0.624511
O O10 0.598453 0.840447 0.639588
O O11 0.000000 0.892481 0.653188
O O12 0.090022 0.583581 0.250000
O O13 0.000000 0.473341 0.324844
#
# Coordination Sequence:
#
# PCOD9474046 Si02
#       5
#    16  16  16  16  16
#     4   8  16  33  57  85 114 141 177 232 286 325
#     4  11  24  39  54  80 119 152 181 230 288 329
#     4  11  20  35  60  85 112 145 185 231 279 332
#     4  10  21  39  63  86 109 146 194 233 271 332
#     4  10  21  37  55  77 110 150 187 227 279 331
#
# _framework density 20.637404
#
# number of rings (size 3 to 8) (size 9 to 14) (size 15 to 20)
#    0.000    2.000    0.000    5.400    0.000    5.200 
#    0.000    3.000    0.000    3.600    0.000    0.000 
#    0.000    0.000    0.000    0.000    0.000    0.000 
#
# Total GULP energy -223338.943059 kJ/mol
# GULP energy per Si atom -5583.473576 kJ/mol
# Density = 2.059043 g / cm^3
# Si number density = 20.637404 Si / 1000 Ang^3
#
#
#
# Elastic Constant Matrix: (Units=GPa)
#
#
# Indices 1 2 3 4 5 6 
#
# 1 99.2301 -15.8468 20.1650 0.0000 0.0000 0.0000
# 2 -15.8468 26.6640 -9.6101 0.0000 0.0000 0.0000
# 3 20.1650 -9.6101 50.6200 0.0000 0.0000 0.0000
# 4 0.0000 0.0000 0.0000 18.0271 0.0000 0.0000
# 5 0.0000 0.0000 0.0000 0.0000 -27.0763 0.0000
# 6 0.0000 0.0000 0.0000 0.0000 0.0000 26.0336
#
#
#
# Elastic Compliance Matrix: (Units=1/GPa)
#
#
# Indices 1 2 3 4 5 6 
#
# 1 0.011712 0.005667 -0.003590 0.000000 0.000000 0.000000
# 2 0.005667 0.043000 0.005906 0.000000 0.000000 0.000000
# 3 -0.003590 0.005906 0.022306 0.000000 0.000000 0.000000
# 4 0.000000 0.000000 0.000000 0.055472 0.000000 0.000000
# 5 0.000000 0.000000 0.000000 0.000000 -0.036933 0.000000
# 6 0.000000 0.000000 0.000000 0.000000 0.000000 0.038412
#
#
# Mechanical properties :
#
#
# Convention : Reuss Voigt Hill
#
# Bulk Modulus (GPa) = 10.75445 18.43671 14.59558
# Shear Modulus (GPa) = 33.55736 15.51729 24.53732
#
# Velocity S-wave (km/s) = 4.03680 2.74506 3.45189
# Velocity P-wave (km/s) = 5.19135 4.35892 4.79324
#
# Compressibility (1/GPa) = 0.09298476
#
# Stress axis : x y z
#
# Youngs Moduli (GPa) = 85.38206 23.25570 44.83035
#
# Poissons Ratio (x) = -0.13179 0.16093
# Poissons Ratio (y) = -0.48385 -0.26477
# Poissons Ratio (z) = 0.30650 -0.13735
#
# Static dielectric constant tensor:
#      x y z
#    x 1.727910 0.000000 0.000000 
#    y 0.000000 1.717900 0.000000 
#    z 0.000000 0.000000 1.791960 
# 
# From -- ./inp_files/62569.got.cif
#   From: 2010.05.17/outbox.cif.g08.bks.cpg/sg63_32_cif.got.tgz:62569.got - 2010.06.03 15:47:04.
