data_PCOD9474295
_publ_section_title
;
Structure prediction by ZEFSAII (Michael W. Deem and Ramdas Pophale) SiO2 
 PCOD9474295
Probable space group: C M C M
;
_chemical_formula_sum "Si O2"
_cell_formula_units_Z 96
_cell_length_a 8.764920
_cell_length_b 20.525742
_cell_length_c 29.004180
_cell_angle_alpha 90.000000
_cell_angle_beta 90.000000
_cell_angle_gamma 90.000000
_cell_volume 5218.040120
_symmetry_space_group_name_H-M "C M C M"
_symmetry_group_IT_number 63
_symmetry_cell_setting 'orthorhombic'
loop_
_space_group_symop_operation_xyz
x,y,z
-x,-y,1/2+z
x,-y,-z
-x,y,1/2-z
-x,-y,-z
x,y,1/2-z
-x,y,z
x,-y,1/2+z
1/2+x,1/2+y,z
1/2-x,1/2-y,1/2+z
1/2+x,1/2-y,-z
1/2-x,1/2+y,1/2-z
1/2-x,1/2-y,-z
1/2+x,1/2+y,1/2-z
1/2-x,1/2+y,z
1/2+x,1/2-y,1/2+z
loop_
_atom_site_type_symbol
_atom_site_label
_atom_site_fract_x
_atom_site_fract_y
_atom_site_fract_z
Si Si1 0.317190 0.497944 0.803936
Si Si2 0.814347 0.431726 0.520703
Si Si3 0.684708 0.105546 0.375386
Si Si4 0.183272 0.303690 0.465713
Si Si5 0.177289 0.637778 0.694774
Si Si6 0.317351 0.743034 0.869803
O O1 0.273890 0.487276 0.750000
O O2 0.500000 0.499001 0.806509
O O3 0.251905 0.442238 0.836957
O O4 0.252781 0.568724 0.818249
O O5 0.760322 0.500000 0.500000
O O6 0.766220 0.416437 0.573126
O O7 0.771107 0.373351 0.486608
O O8 0.000000 0.433345 0.521848
O O9 0.500000 0.102078 0.373609
O O10 0.729183 0.180977 0.367471
O O11 0.250000 0.250000 0.500000
O O12 0.248094 0.289059 0.415571
O O13 0.000000 0.300116 0.465128
O O14 0.185838 0.642484 0.750000
O O15 0.260096 0.699001 0.672103
O O16 0.000000 0.637288 0.680793
O O17 0.500000 0.741563 0.872574
#
# Coordination Sequence:
#
# PCOD9474295 Si02
#       6
#    16  16  16  16  16  16
#     4  10  22  40  61  87 120 154 190 242 302 352
#     4   9  19  36  57  83 115 152 194 241 290 344
#     4  10  21  38  59  85 119 158 200 240 290 353
#     4  11  21  37  60  85 117 158 199 243 297 352
#     4  10  22  41  64  89 116 152 199 244 294 360
#     4  11  23  39  59  88 123 158 198 246 300 354
#
# _framework density 18.397713
#
# number of rings (size 3 to 8) (size 9 to 14) (size 15 to 20)
#    0.000    1.833    1.667    2.000    2.333    4.000 
#    0.000    3.333    0.000    2.500    0.000    0.000 
#    0.000    0.000    0.000    0.000    0.000    0.000 
#
# Total GULP energy -268085.124212 kJ/mol
# GULP energy per Si atom -5585.106754 kJ/mol
# Density = 1.835584 g / cm^3
# Si number density = 18.397713 Si / 1000 Ang^3
#
#
#
# Elastic Constant Matrix: (Units=GPa)
#
#
# Indices 1 2 3 4 5 6 
#
# 1 51.8834 53.2124 35.4361 0.0000 0.0000 0.0000
# 2 53.2124 201.3409 83.5567 0.0000 0.0000 0.0000
# 3 35.4361 83.5567 74.1315 0.0000 0.0000 0.0000
# 4 0.0000 0.0000 0.0000 39.0339 0.0000 0.0000
# 5 0.0000 0.0000 0.0000 0.0000 34.3557 0.0000
# 6 0.0000 0.0000 0.0000 0.0000 0.0000 29.7829
#
#
#
# Elastic Compliance Matrix: (Units=1/GPa)
#
#
# Indices 1 2 3 4 5 6 
#
# 1 0.030029 -0.003719 -0.010163 0.000000 0.000000 0.000000
# 2 -0.003719 0.009792 -0.009260 0.000000 0.000000 0.000000
# 3 -0.010163 -0.009260 0.028785 0.000000 0.000000 0.000000
# 4 0.000000 0.000000 0.000000 0.025619 0.000000 0.000000
# 5 0.000000 0.000000 0.000000 0.000000 0.029107 0.000000
# 6 0.000000 0.000000 0.000000 0.000000 0.000000 0.033576
#
#
# Mechanical properties :
#
#
# Convention : Reuss Voigt Hill
#
# Bulk Modulus (GPa) = 44.79602 74.64070 59.71836
# Shear Modulus (GPa) = 23.73803 30.97787 27.35795
#
# Velocity S-wave (km/s) = 3.59593 4.10785 3.86039
# Velocity P-wave (km/s) = 6.45310 7.94720 7.23880
#
# Compressibility (1/GPa) = 0.02232341
#
# Stress axis : x y z
#
# Youngs Moduli (GPa) = 33.30078 102.12068 34.74087
#
# Poissons Ratio (x) = 0.37977 0.35307
# Poissons Ratio (y) = 0.12384 0.32169
# Poissons Ratio (z) = 0.33843 0.94560
#
# Static dielectric constant tensor:
#      x y z
#    x 1.623650 0.000000 0.000000 
#    y 0.000000 1.615780 0.000000 
#    z 0.000000 0.000000 1.582610 
# 
# From -- ./inp_files/66988.got.cif
#   From: 2010.05.17/outbox.cif.g08.bks.cpg/sg63_34_cif.got.tgz:66988.got - 2010.06.03 15:47:04.
