data_PCOD9474362
_publ_section_title
;
Structure prediction by ZEFSAII (Michael W. Deem and Ramdas Pophale) SiO2 
 PCOD9474362
Probable space group: C M C M
;
_chemical_formula_sum "Si O2"
_cell_formula_units_Z 112
_cell_length_a 16.577497
_cell_length_b 11.680292
_cell_length_c 26.411106
_cell_angle_alpha 90.000000
_cell_angle_beta 90.000000
_cell_angle_gamma 90.000000
_cell_volume 5113.982602
_symmetry_space_group_name_H-M "C M C M"
_symmetry_group_IT_number 63
_symmetry_cell_setting 'orthorhombic'
loop_
_space_group_symop_operation_xyz
x,y,z
-x,-y,1/2+z
x,-y,-z
-x,y,1/2-z
-x,-y,-z
x,y,1/2-z
-x,y,z
x,-y,1/2+z
1/2+x,1/2+y,z
1/2-x,1/2-y,1/2+z
1/2+x,1/2-y,-z
1/2-x,1/2+y,1/2-z
1/2-x,1/2-y,-z
1/2+x,1/2+y,1/2-z
1/2-x,1/2+y,z
1/2+x,1/2-y,1/2+z
loop_
_atom_site_type_symbol
_atom_site_label
_atom_site_fract_x
_atom_site_fract_y
_atom_site_fract_z
Si Si1 0.734619 0.590150 0.543360
Si Si2 0.911601 0.602729 0.657734
Si Si3 0.595715 0.424513 0.194419
Si Si4 0.411530 0.885300 0.034902
Si Si5 0.676374 0.672956 0.191777
Si Si6 0.405116 0.275826 0.094836
Si Si7 0.306911 0.924686 0.627819
O O1 0.714930 0.500000 0.500000
O O2 0.818204 0.657443 0.529345
O O3 0.657421 0.665089 0.556846
O O4 0.758249 0.508444 0.590810
O O5 0.914969 0.601435 0.596100
O O6 0.883711 0.726045 0.676432
O O7 0.846343 0.505948 0.670208
O O8 0.000000 0.574818 0.677317
O O9 0.620279 0.379674 0.250000
O O10 0.500000 0.445350 0.195392
O O11 0.636997 0.547308 0.187016
O O12 0.609373 0.338034 0.148730
O O13 0.500000 0.829542 0.022549
O O14 0.410828 0.000000 0.000000
O O15 0.700899 0.688951 0.250000
O O16 0.749252 0.669197 0.152394
O O17 0.500000 0.286679 0.083150
O O18 0.377933 0.144433 0.099946
#
# Coordination Sequence:
#
# PCOD9474362 Si02
#       7
#    16  16  16  16  16  16  16
#     4  10  21  39  64  92 129 168 214 270 322 385
#     4  10  21  38  61  89 124 162 205 258 316 376
#     4   9  19  38  63  89 120 164 214 260 314 384
#     4   8  15  31  57  88 121 155 198 252 311 373
#     4  11  23  38  62  92 125 162 208 265 322 378
#     4  11  23  41  64  91 129 171 212 264 322 386
#     4  11  22  40  62  93 122 161 210 261 321 382
#
# _framework density 21.900739999999999
#
# number of rings (size 3 to 8) (size 9 to 14) (size 15 to 20)
#    0.000    2.000    1.429    2.571    0.000    3.429 
#    0.000    1.429    0.000    9.429    0.000    0.000 
#    0.000    0.000    0.000    0.000    0.000    0.000 
#
# Total GULP energy -312421.216466 kJ/mol
# GULP energy per Si atom -5578.950294 kJ/mol
# Density = 2.185089 g / cm^3
# Si number density = 21.900740 Si / 1000 Ang^3
#
#
#
# Elastic Constant Matrix: (Units=GPa)
#
#
# Indices 1 2 3 4 5 6 
#
# 1 111.4515 41.5478 42.9520 0.0000 0.0000 0.0000
# 2 41.5478 59.4243 23.1850 0.0000 0.0000 0.0000
# 3 42.9520 23.1850 68.3266 0.0000 0.0000 0.0000
# 4 0.0000 0.0000 0.0000 31.2437 0.0000 0.0000
# 5 0.0000 0.0000 0.0000 0.0000 1.7114 0.0000
# 6 0.0000 0.0000 0.0000 0.0000 0.0000 4.3611
#
#
#
# Elastic Compliance Matrix: (Units=1/GPa)
#
#
# Indices 1 2 3 4 5 6 
#
# 1 0.014217 -0.007438 -0.006413 0.000000 0.000000 0.000000
# 2 -0.007438 0.023287 -0.003226 0.000000 0.000000 0.000000
# 3 -0.006413 -0.003226 0.019762 0.000000 0.000000 0.000000
# 4 0.000000 0.000000 0.000000 0.032006 0.000000 0.000000
# 5 0.000000 0.000000 0.000000 0.000000 0.584329 0.000000
# 6 0.000000 0.000000 0.000000 0.000000 0.000000 0.229298
#
#
# Mechanical properties :
#
#
# Convention : Reuss Voigt Hill
#
# Bulk Modulus (GPa) = 43.26911 50.50799 46.88855
# Shear Modulus (GPa) = 5.29236 16.23108 10.76172
#
# Velocity S-wave (km/s) = 1.55620 2.72531 2.21913
# Velocity P-wave (km/s) = 4.79884 5.74590 5.29359
#
# Compressibility (1/GPa) = 0.02311118
#
# Stress axis : x y z
#
# Youngs Moduli (GPa) = 70.33913 42.94192 50.60240
#
# Poissons Ratio (x) = 0.31940 0.32453
# Poissons Ratio (y) = 0.52317 0.16326
# Poissons Ratio (z) = 0.45110 0.13854
#
# Static dielectric constant tensor:
#      x y z
#    x 1.836920 0.000000 0.000000 
#    y 0.000000 1.769880 0.000000 
#    z 0.000000 0.000000 1.832270 
# 
# From -- ./inp_files/73412.got.cif
#   From: 2010.05.17/outbox.cif.g08.bks.cpg/sg63_37_cif.got.tgz:73412.got - 2010.06.03 15:47:04.
