data_PCOD9474341
_publ_section_title
;
Structure prediction by ZEFSAII (Michael W. Deem and Ramdas Pophale) SiO2 
 PCOD9474341
Probable space group: C M C M
;
_chemical_formula_sum "Si O2"
_cell_formula_units_Z 68
_cell_length_a 10.771855
_cell_length_b 19.814437
_cell_length_c 14.787118
_cell_angle_alpha 90.000000
_cell_angle_beta 90.000000
_cell_angle_gamma 90.000000
_cell_volume 3156.136474
_symmetry_space_group_name_H-M "C M C M"
_symmetry_group_IT_number 63
_symmetry_cell_setting 'orthorhombic'
loop_
_space_group_symop_operation_xyz
x,y,z
-x,-y,1/2+z
x,-y,-z
-x,y,1/2-z
-x,-y,-z
x,y,1/2-z
-x,y,z
x,-y,1/2+z
1/2+x,1/2+y,z
1/2-x,1/2-y,1/2+z
1/2+x,1/2-y,-z
1/2-x,1/2+y,1/2-z
1/2-x,1/2-y,-z
1/2+x,1/2+y,1/2-z
1/2-x,1/2+y,z
1/2+x,1/2-y,1/2+z
loop_
_atom_site_type_symbol
_atom_site_label
_atom_site_fract_x
_atom_site_fract_y
_atom_site_fract_z
Si Si1 0.361312 0.936882 0.639903
Si Si2 0.640499 0.688180 0.897580
Si Si3 0.000000 0.849975 0.750000
Si Si4 0.708016 0.313237 0.894405
Si Si5 0.138569 0.968619 0.142294
O O1 0.359265 0.934556 0.750000
O O2 0.500000 0.957283 0.612801
O O3 0.325184 0.863436 0.603316
O O4 0.252174 0.986799 0.608111
O O5 0.500000 0.705131 0.868587
O O6 0.741778 0.740766 0.861673
O O7 0.662416 0.610505 0.872155
O O8 0.651256 0.693614 0.006058
O O9 0.108360 0.845626 0.828121
O O10 0.132246 0.981098 0.250000
O O11 0.000000 0.985109 0.106526
#
# Coordination Sequence:
#
# PCOD9474341 Si02
#       5
#    16  16   4  16  16
#     4  10  21  38  60  90 121 161 207 257 306 369
#     4  10  22  42  61  90 125 160 205 260 311 368
#     4  12  24  40  62  98 122 166 214 250 320 370
#     4  11  23  39  63  91 123 161 205 261 308 373
#     4   9  20  37  61  86 118 159 203 250 304 367
#
# _framework density 21.545328999999999
#
# number of rings (size 3 to 8) (size 9 to 14) (size 15 to 20)
#    0.000    1.882    2.353    0.706    3.294    0.941 
#    2.118    3.529    0.000    0.000    0.000    0.000 
#    0.000    0.000    0.000    0.000    0.000    0.000 
#
# Total GULP energy -189495.677682 kJ/mol
# GULP energy per Si atom -5573.402285 kJ/mol
# Density = 2.149629 g / cm^3
# Si number density = 21.545329 Si / 1000 Ang^3
#
#
#
# Elastic Constant Matrix: (Units=GPa)
#
#
# Indices 1 2 3 4 5 6 
#
# 1 142.6766 60.7965 5.5707 0.0000 0.0000 0.0000
# 2 60.7965 73.1487 -9.4814 0.0000 0.0000 0.0000
# 3 5.5707 -9.4814 48.1473 0.0000 0.0000 0.0000
# 4 0.0000 0.0000 0.0000 22.9847 0.0000 0.0000
# 5 0.0000 0.0000 0.0000 0.0000 47.8637 0.0000
# 6 0.0000 0.0000 0.0000 0.0000 0.0000 -8.9972
#
#
#
# Elastic Compliance Matrix: (Units=1/GPa)
#
#
# Indices 1 2 3 4 5 6 
#
# 1 0.011326 -0.009835 -0.003247 0.000000 0.000000 0.000000
# 2 -0.009835 0.022568 0.005582 0.000000 0.000000 0.000000
# 3 -0.003247 0.005582 0.022245 0.000000 0.000000 0.000000
# 4 0.000000 0.000000 0.000000 0.043507 0.000000 0.000000
# 5 0.000000 0.000000 0.000000 0.000000 0.020893 0.000000
# 6 0.000000 0.000000 0.000000 0.000000 0.000000 -0.111146
#
#
# Mechanical properties :
#
#
# Convention : Reuss Voigt Hill
#
# Bulk Modulus (GPa) = 24.30734 41.97156 33.13945
# Shear Modulus (GPa) = 131.21466 26.17604 78.69535
#
# Velocity S-wave (km/s) = 7.81242 3.48936 6.05019
# Velocity P-wave (km/s) = 9.62730 5.97972 8.01380
#
# Compressibility (1/GPa) = 0.04113984
#
# Stress axis : x y z
#
# Youngs Moduli (GPa) = 88.29020 44.31020 44.95482
#
# Poissons Ratio (x) = 0.43577 0.14597
# Poissons Ratio (y) = 0.86830 -0.25094
# Poissons Ratio (z) = 0.28669 -0.24734
#
# Static dielectric constant tensor:
#      x y z
#    x 1.779620 0.000000 0.000000 
#    y 0.000000 1.783590 0.000000 
#    z 0.000000 0.000000 1.774980 
# 
# From -- ./inp_files/39943.got.cif
#   From: 2010.05.17/outbox.cif.g08.bks.cpg/sg63_20_cif.got.tgz:39943.got - 2010.06.03 15:47:04.
