data_PCOD9474003
_publ_section_title
;
Structure prediction by ZEFSAII (Michael W. Deem and Ramdas Pophale) SiO2 
 PCOD9474003
Probable space group: C M C M
;
_chemical_formula_sum "Si O2"
_cell_formula_units_Z 80
_cell_length_a 9.195685
_cell_length_b 26.142491
_cell_length_c 16.913101
_cell_angle_alpha 90.000000
_cell_angle_beta 90.000000
_cell_angle_gamma 90.000000
_cell_volume 4065.877554
_symmetry_space_group_name_H-M "C M C M"
_symmetry_group_IT_number 63
_symmetry_cell_setting 'orthorhombic'
loop_
_space_group_symop_operation_xyz
x,y,z
-x,-y,1/2+z
x,-y,-z
-x,y,1/2-z
-x,-y,-z
x,y,1/2-z
-x,y,z
x,-y,1/2+z
1/2+x,1/2+y,z
1/2-x,1/2-y,1/2+z
1/2+x,1/2-y,-z
1/2-x,1/2+y,1/2-z
1/2-x,1/2-y,-z
1/2+x,1/2+y,1/2-z
1/2-x,1/2+y,z
1/2+x,1/2-y,1/2+z
loop_
_atom_site_type_symbol
_atom_site_label
_atom_site_fract_x
_atom_site_fract_y
_atom_site_fract_z
Si Si1 0.825425 0.231927 0.080671
Si Si2 0.337144 0.678403 0.656244
Si Si3 0.328684 0.514536 0.407941
Si Si4 0.663910 0.081345 0.844564
Si Si5 0.323489 0.375187 0.658023
O O1 0.767417 0.273972 0.141903
O O2 0.779200 0.175643 0.110437
O O3 0.000000 0.233201 0.074365
O O4 0.750000 0.250000 0.000000
O O5 0.350905 0.671562 0.750000
O O6 0.500000 0.686415 0.623357
O O7 0.264363 0.626976 0.622609
O O8 0.314152 0.500000 0.500000
O O9 0.500000 0.509641 0.387097
O O10 0.235841 0.472862 0.361667
O O11 0.282142 0.572017 0.385285
O O12 0.656334 0.087894 0.750000
O O13 0.500000 0.084532 0.876212
O O14 0.274728 0.374366 0.750000
O O15 0.500000 0.374218 0.659640
#
# Coordination Sequence:
#
# PCOD9474003 Si02
#       5
#    16  16  16  16  16
#     4  11  23  38  59  87 120 159 201 250 306 363
#     4  10  21  38  61  87 116 153 198 249 302 360
#     4  10  21  36  59  89 120 156 198 247 298 353
#     4  10  21  37  58  86 119 155 195 242 298 359
#     4   9  19  37  60  85 117 160 205 244 292 361
#
# _framework density 19.67595
#
# number of rings (size 3 to 8) (size 9 to 14) (size 15 to 20)
#    0.000    2.000    0.000    3.000    2.800    4.400 
#    0.000    2.000    0.000    4.800    0.000    0.000 
#    0.000    0.000    0.000    0.000    0.000    0.000 
#
# Total GULP energy -223243.529034 kJ/mol
# GULP energy per Si atom -5581.088226 kJ/mol
# Density = 1.963117 g / cm^3
# Si number density = 19.675950 Si / 1000 Ang^3
#
#
#
# Elastic Constant Matrix: (Units=GPa)
#
#
# Indices 1 2 3 4 5 6 
#
# 1 87.1279 57.4191 30.7516 0.0000 0.0000 0.0000
# 2 57.4191 188.7023 44.4196 0.0000 0.0000 0.0000
# 3 30.7516 44.4196 56.7428 0.0000 0.0000 0.0000
# 4 0.0000 0.0000 0.0000 24.7446 0.0000 0.0000
# 5 0.0000 0.0000 0.0000 0.0000 26.4882 0.0000
# 6 0.0000 0.0000 0.0000 0.0000 0.0000 22.1844
#
#
#
# Elastic Compliance Matrix: (Units=1/GPa)
#
#
# Indices 1 2 3 4 5 6 
#
# 1 0.015813 -0.003426 -0.005888 0.000000 0.000000 0.000000
# 2 -0.003426 0.007239 -0.003810 0.000000 0.000000 0.000000
# 3 -0.005888 -0.003810 0.023797 0.000000 0.000000 0.000000
# 4 0.000000 0.000000 0.000000 0.040413 0.000000 0.000000
# 5 0.000000 0.000000 0.000000 0.000000 0.037753 0.000000
# 6 0.000000 0.000000 0.000000 0.000000 0.000000 0.045077
#
#
# Mechanical properties :
#
#
# Convention : Reuss Voigt Hill
#
# Bulk Modulus (GPa) = 48.54124 66.41707 57.47915
# Shear Modulus (GPa) = 24.60562 28.01564 26.31063
#
# Velocity S-wave (km/s) = 3.54014 3.77749 3.66074
# Velocity P-wave (km/s) = 6.43692 7.27012 6.86617
#
# Compressibility (1/GPa) = 0.02060104
#
# Stress axis : x y z
#
# Youngs Moduli (GPa) = 63.23845 138.14871 42.02205
#
# Poissons Ratio (x) = 0.47325 0.24743
# Poissons Ratio (y) = 0.21663 0.16010
# Poissons Ratio (z) = 0.37236 0.52635
#
# Static dielectric constant tensor:
#      x y z
#    x 1.691980 0.000000 0.000000 
#    y 0.000000 1.675540 0.000000 
#    z 0.000000 0.000000 1.764320 
# 
# From -- ./inp_files/40482.got.cif
#   From: 2010.05.17/outbox.cif.g08.bks.cpg/sg63_21_cif.got.tgz:40482.got - 2010.06.03 15:47:04.
