data_PCOD9474938
_publ_section_title
;
Structure prediction by ZEFSAII (Michael W. Deem and Ramdas Pophale) SiO2 
 PCOD9474938
Probable space group: C M C M
;
_chemical_formula_sum "Si O2"
_cell_formula_units_Z 64
_cell_length_a 11.858925
_cell_length_b 16.800385
_cell_length_c 16.287509
_cell_angle_alpha 90.000000
_cell_angle_beta 90.000000
_cell_angle_gamma 90.000000
_cell_volume 3245.033804
_symmetry_space_group_name_H-M "C M C M"
_symmetry_group_IT_number 63
_symmetry_cell_setting 'orthorhombic'
loop_
_space_group_symop_operation_xyz
x,y,z
-x,-y,1/2+z
x,-y,-z
-x,y,1/2-z
-x,-y,-z
x,y,1/2-z
-x,y,z
x,-y,1/2+z
1/2+x,1/2+y,z
1/2-x,1/2-y,1/2+z
1/2+x,1/2-y,-z
1/2-x,1/2+y,1/2-z
1/2-x,1/2-y,-z
1/2+x,1/2+y,1/2-z
1/2-x,1/2+y,z
1/2+x,1/2-y,1/2+z
loop_
_atom_site_type_symbol
_atom_site_label
_atom_site_fract_x
_atom_site_fract_y
_atom_site_fract_z
Si Si1 0.000000 0.975335 0.095938
Si Si2 0.758010 0.789949 0.910314
Si Si3 0.500000 0.344115 0.653938
Si Si4 0.125839 0.594132 0.993046
Si Si5 0.211806 0.870545 0.155348
O O1 0.892451 0.921380 0.119816
O O2 0.000000 0.060151 0.142061
O O3 0.000000 0.000000 0.000000
O O4 0.693322 0.871592 0.928811
O O5 0.698899 0.725452 0.851746
O O6 0.885853 0.808709 0.885160
O O7 0.750000 0.750000 0.000000
O O8 0.500000 0.325044 0.750000
O O9 0.000000 0.628222 0.993721
O O10 0.122186 0.500000 0.000000
O O11 0.185267 0.613028 0.906515
O O12 0.230725 0.892090 0.250000
#
# Coordination Sequence:
#
# PCOD9474938 Si02
#       5
#     8  16   8  16  16
#     4  12  24  42  68  94 126 171 221 271 329 402
#     4  10  23  38  63  91 126 167 213 263 321 389
#     4  12  24  42  66  96 128 167 221 281 327 378
#     4  10  22  40  63  90 124 170 217 254 311 394
#     4  11  23  39  63  94 128 163 211 272 333 381
#
# _framework density 19.722443999999999
#
# number of rings (size 3 to 8) (size 9 to 14) (size 15 to 20)
#    0.000    1.250    0.000    7.125    8.750    0.500 
#    0.000    1.250    0.000    3.000    0.000    0.000 
#    0.000    0.000    0.000    0.000    0.000    0.000 
#
# Total GULP energy -178589.268914 kJ/mol
# GULP energy per Si atom -5580.914654 kJ/mol
# Density = 1.967755 g / cm^3
# Si number density = 19.722444 Si / 1000 Ang^3
#
#
#
# Elastic Constant Matrix: (Units=GPa)
#
#
# Indices 1 2 3 4 5 6 
#
# 1 156.5879 54.9528 77.8444 0.0000 0.0000 0.0000
# 2 54.9528 108.2584 29.7854 0.0000 0.0000 0.0000
# 3 77.8444 29.7854 137.8593 0.0000 0.0000 0.0000
# 4 0.0000 0.0000 0.0000 30.7144 0.0000 0.0000
# 5 0.0000 0.0000 0.0000 0.0000 -5.8408 0.0000
# 6 0.0000 0.0000 0.0000 0.0000 0.0000 1637.4226
#
#
#
# Elastic Compliance Matrix: (Units=1/GPa)
#
#
# Indices 1 2 3 4 5 6 
#
# 1 0.010168 -0.003808 -0.004919 0.000000 0.000000 0.000000
# 2 -0.003808 0.011247 -0.000280 0.000000 0.000000 0.000000
# 3 -0.004919 -0.000280 0.010092 0.000000 0.000000 0.000000
# 4 0.000000 0.000000 0.000000 0.032558 0.000000 0.000000
# 5 0.000000 0.000000 0.000000 0.000000 -0.171209 0.000000
# 6 0.000000 0.000000 0.000000 0.000000 0.000000 0.000611
#
#
# Mechanical properties :
#
#
# Convention : Reuss Voigt Hill
#
# Bulk Modulus (GPa) = 74.10876 80.87451 77.49163
# Shear Modulus (GPa) = -59.50721 348.46744 144.48012
#
# Velocity S-wave (km/s) = -5.49889 13.30674 8.56830
# Velocity P-wave (km/s) = 1.63085 16.64896 11.71597
#
# Compressibility (1/GPa) = 0.01349368
#
# Stress axis : x y z
#
# Youngs Moduli (GPa) = 98.35018 88.91199 99.09220
#
# Poissons Ratio (x) = 0.33857 0.48740
# Poissons Ratio (y) = 0.37451 0.02772
# Poissons Ratio (z) = 0.48375 0.02488
#
# Static dielectric constant tensor:
#      x y z
#    x 1.728230 0.000000 0.000000 
#    y 0.000000 1.809680 0.000000 
#    z 0.000000 0.000000 1.648030 
# 
# From -- ./inp_files/41772.got.cif
#   From: 2010.05.17/outbox.cif.g08.bks.cpg/sg63_21_cif.got.tgz:41772.got - 2010.06.03 15:47:04.
