data_PCOD9474770
_publ_section_title
;
Structure prediction by ZEFSAII (Michael W. Deem and Ramdas Pophale) SiO2 
 PCOD9474770
Probable space group: C M C M
;
_chemical_formula_sum "Si O2"
_cell_formula_units_Z 88
_cell_length_a 9.984493
_cell_length_b 13.565037
_cell_length_c 27.291609
_cell_angle_alpha 90.000000
_cell_angle_beta 90.000000
_cell_angle_gamma 90.000000
_cell_volume 3696.375986
_symmetry_space_group_name_H-M "C M C M"
_symmetry_group_IT_number 63
_symmetry_cell_setting 'orthorhombic'
loop_
_space_group_symop_operation_xyz
x,y,z
-x,-y,1/2+z
x,-y,-z
-x,y,1/2-z
-x,-y,-z
x,y,1/2-z
-x,y,z
x,-y,1/2+z
1/2+x,1/2+y,z
1/2-x,1/2-y,1/2+z
1/2+x,1/2-y,-z
1/2-x,1/2+y,1/2-z
1/2-x,1/2-y,-z
1/2+x,1/2+y,1/2-z
1/2-x,1/2+y,z
1/2+x,1/2-y,1/2+z
loop_
_atom_site_type_symbol
_atom_site_label
_atom_site_fract_x
_atom_site_fract_y
_atom_site_fract_z
Si Si1 0.351129 0.196763 0.378071
Si Si2 0.770260 0.000000 0.000000
Si Si3 0.345659 0.554504 0.693698
Si Si4 0.850140 0.539624 0.895470
Si Si5 0.644939 0.685048 0.305497
Si Si6 0.149633 0.204473 0.461687
O O1 0.500000 0.235760 0.388864
O O2 0.289464 0.217393 0.325362
O O3 0.226576 0.226488 0.411831
O O4 0.357996 0.078783 0.386236
O O5 0.850756 0.088065 0.025693
O O6 0.690477 0.953949 0.046808
O O7 0.302255 0.579367 0.750000
O O8 0.500000 0.587707 0.687023
O O9 0.252479 0.577984 0.646357
O O10 0.351237 0.434322 0.692953
O O11 0.000000 0.578633 0.888129
O O12 0.637264 0.717432 0.250000
O O13 0.500000 0.712135 0.329101
O O14 0.250000 0.250000 0.500000
O O15 0.000000 0.242292 0.464673
#
# Coordination Sequence:
#
# PCOD9474770 Si02
#       6
#    16   8  16  16  16  16
#     4   9  17  29  45  69 102 138 177 223 272 322
#     4  10  22  38  58  84 116 150 186 228 278 336
#     4   8  14  24  38  60  94 134 176 223 272 323
#     4   9  17  28  46  71 101 139 180 225 275 325
#     4   8  13  22  38  62  94 133 175 219 268 320
#     4  11  23  39  59  83 111 146 187 229 275 329
#
# _framework density 23.807099999999998
#
# number of rings (size 3 to 8) (size 9 to 14) (size 15 to 20)
#    0.000    2.909    0.000    2.727    0.000    8.000 
#    0.000    3.636    0.000    0.000    0.000    1.273 
#    0.000    1.455    0.000    0.000    0.000    0.000 
#
# Total GULP energy -245343.859380 kJ/mol
# GULP energy per Si atom -5575.996804 kJ/mol
# Density = 2.375291 g / cm^3
# Si number density = 23.807100 Si / 1000 Ang^3
#
#
#
# Elastic Constant Matrix: (Units=GPa)
#
#
# Indices 1 2 3 4 5 6 
#
# 1 231.5004 13.2712 101.3584 0.0000 0.0000 0.0000
# 2 13.2712 66.8739 4.4666 0.0000 0.0000 0.0000
# 3 101.3584 4.4666 151.0103 0.0000 0.0000 0.0000
# 4 0.0000 0.0000 0.0000 19.3803 0.0000 0.0000
# 5 0.0000 0.0000 0.0000 0.0000 20.8229 0.0000
# 6 0.0000 0.0000 0.0000 0.0000 0.0000 5.5041
#
#
#
# Elastic Compliance Matrix: (Units=1/GPa)
#
#
# Indices 1 2 3 4 5 6 
#
# 1 0.006177 -0.000951 -0.004118 0.000000 0.000000 0.000000
# 2 -0.000951 0.015129 0.000191 0.000000 0.000000 0.000000
# 3 -0.004118 0.000191 0.009380 0.000000 0.000000 0.000000
# 4 0.000000 0.000000 0.000000 0.051599 0.000000 0.000000
# 5 0.000000 0.000000 0.000000 0.000000 0.048024 0.000000
# 6 0.000000 0.000000 0.000000 0.000000 0.000000 0.181684
#
#
# Mechanical properties :
#
#
# Convention : Reuss Voigt Hill
#
# Bulk Modulus (GPa) = 47.77645 76.39743 62.08694
# Shear Modulus (GPa) = 15.21021 31.16070 23.18546
#
# Velocity S-wave (km/s) = 2.53038 3.62177 3.12410
# Velocity P-wave (km/s) = 5.35246 7.04624 6.25693
#
# Compressibility (1/GPa) = 0.02093081
#
# Stress axis : x y z
#
# Youngs Moduli (GPa) = 161.88724 66.09617 106.60500
#
# Poissons Ratio (x) = 0.06284 0.43900
# Poissons Ratio (y) = 0.15392 -0.02033
# Poissons Ratio (z) = 0.66665 -0.01260
#
# Static dielectric constant tensor:
#      x y z
#    x 1.844500 0.000000 0.000000 
#    y 0.000000 2.151440 0.000000 
#    z 0.000000 0.000000 2.503580 
# 
# From -- ./inp_files/71654.got.cif
#   From: 2010.05.17/outbox.cif.g08.bks.cpg/sg63_36_cif.got.tgz:71654.got - 2010.06.03 15:47:04.
