data_PCOD9474356
_publ_section_title
;
Structure prediction by ZEFSAII (Michael W. Deem and Ramdas Pophale) SiO2 
 PCOD9474356
Probable space group: C M C M
;
_chemical_formula_sum "Si O2"
_cell_formula_units_Z 80
_cell_length_a 8.662338
_cell_length_b 18.713791
_cell_length_c 25.773350
_cell_angle_alpha 90.000000
_cell_angle_beta 90.000000
_cell_angle_gamma 90.000000
_cell_volume 4177.993616
_symmetry_space_group_name_H-M "C M C M"
_symmetry_group_IT_number 63
_symmetry_cell_setting 'orthorhombic'
loop_
_space_group_symop_operation_xyz
x,y,z
-x,-y,1/2+z
x,-y,-z
-x,y,1/2-z
-x,-y,-z
x,y,1/2-z
-x,y,z
x,-y,1/2+z
1/2+x,1/2+y,z
1/2-x,1/2-y,1/2+z
1/2+x,1/2-y,-z
1/2-x,1/2+y,1/2-z
1/2-x,1/2-y,-z
1/2+x,1/2+y,1/2-z
1/2-x,1/2+y,z
1/2+x,1/2-y,1/2+z
loop_
_atom_site_type_symbol
_atom_site_label
_atom_site_fract_x
_atom_site_fract_y
_atom_site_fract_z
Si Si1 0.815892 0.083505 0.498089
Si Si2 0.314713 0.073072 0.309750
Si Si3 0.682198 0.832426 0.095120
Si Si4 0.315757 0.174560 0.403870
Si Si5 0.816268 0.916661 0.310536
O O1 0.769125 0.121763 0.551379
O O2 0.731509 0.123767 0.451293
O O3 0.000000 0.088722 0.490471
O O4 0.773511 0.000000 0.500000
O O5 0.277927 0.091828 0.250000
O O6 0.500000 0.062131 0.313202
O O7 0.272597 0.133998 0.350640
O O8 0.233027 0.998157 0.322338
O O9 0.500000 0.839207 0.087141
O O10 0.732853 0.750315 0.091107
O O11 0.730139 0.863911 0.150775
O O12 0.500000 0.185936 0.404042
O O13 0.778244 0.903720 0.250000
O O14 0.000000 0.908993 0.317102
#
# Coordination Sequence:
#
# PCOD9474356 Si02
#       5
#    16  16  16  16  16
#     4  11  24  42  64  88 116 151 193 241 292 349
#     4   9  19  37  61  88 118 154 195 238 286 342
#     4  12  25  40  60  86 119 156 195 241 292 347
#     4  11  23  39  60  87 121 157 195 241 292 347
#     4  10  21  38  61  88 119 155 195 240 289 343
#
# _framework density 19.147946000000001
#
# number of rings (size 3 to 8) (size 9 to 14) (size 15 to 20)
#    0.000    1.400    0.000    5.400    0.000    8.400 
#    0.000    2.000    0.000    0.000    0.000    0.000 
#    0.000    0.000    0.000    0.000    0.000    0.000 
#
# Total GULP energy -223728.554330 kJ/mol
# GULP energy per Si atom -5593.213858 kJ/mol
# Density = 1.910436 g / cm^3
# Si number density = 19.147946 Si / 1000 Ang^3
#
#
#
# Elastic Constant Matrix: (Units=GPa)
#
#
# Indices 1 2 3 4 5 6 
#
# 1 12.7663 1.3814 -1.5346 0.0000 0.0000 0.0000
# 2 1.3814 93.5691 35.3318 0.0000 0.0000 0.0000
# 3 -1.5346 35.3318 56.9399 0.0000 0.0000 0.0000
# 4 0.0000 0.0000 0.0000 1813.2162 0.0000 0.0000
# 5 0.0000 0.0000 0.0000 0.0000 29.3799 0.0000
# 6 0.0000 0.0000 0.0000 0.0000 0.0000 74.8817
#
#
#
# Elastic Compliance Matrix: (Units=1/GPa)
#
#
# Indices 1 2 3 4 5 6 
#
# 1 0.079058 -0.002575 0.003729 0.000000 0.000000 0.000000
# 2 -0.002575 0.014042 -0.008782 0.000000 0.000000 0.000000
# 3 0.003729 -0.008782 0.023112 0.000000 0.000000 0.000000
# 4 0.000000 0.000000 0.000000 0.000552 0.000000 0.000000
# 5 0.000000 0.000000 0.000000 0.000000 0.034037 0.000000
# 6 0.000000 0.000000 0.000000 0.000000 0.000000 0.013354
#
#
# Mechanical properties :
#
#
# Convention : Reuss Voigt Hill
#
# Bulk Modulus (GPa) = 9.90545 25.95915 17.93230
# Shear Modulus (GPa) = 23.46715 392.03534 207.75125
#
# Velocity S-wave (km/s) = 3.50461 14.32427 10.42753
# Velocity P-wave (km/s) = 4.64336 16.94598 12.42431
#
# Compressibility (1/GPa) = 0.10095455
#
# Stress axis : x y z
#
# Youngs Moduli (GPa) = 12.64891 71.21745 43.26691
#
# Poissons Ratio (x) = 0.18339 -0.16133
# Poissons Ratio (y) = 0.03257 0.37998
# Poissons Ratio (z) = -0.04716 0.62545
#
# Static dielectric constant tensor:
#      x y z
#    x 1.640330 0.000000 0.000000 
#    y 0.000000 1.623340 0.000000 
#    z 0.000000 0.000000 1.655830 
# 
# From -- ./inp_files/66623.got.cif
#   From: 2010.05.17/outbox.cif.g08.bks.cpg/sg63_34_cif.got.tgz:66623.got - 2010.06.03 15:47:04.
