data_PCOD9474037
_publ_section_title
;
Structure prediction by ZEFSAII (Michael W. Deem and Ramdas Pophale) SiO2 
 PCOD9474037
Probable space group: C M C M
;
_chemical_formula_sum "Si O2"
_cell_formula_units_Z 96
_cell_length_a 7.502222
_cell_length_b 22.585601
_cell_length_c 24.211847
_cell_angle_alpha 90.000000
_cell_angle_beta 90.000000
_cell_angle_gamma 90.000000
_cell_volume 4102.508445
_symmetry_space_group_name_H-M "C M C M"
_symmetry_group_IT_number 63
_symmetry_cell_setting 'orthorhombic'
loop_
_space_group_symop_operation_xyz
x,y,z
-x,-y,1/2+z
x,-y,-z
-x,y,1/2-z
-x,-y,-z
x,y,1/2-z
-x,y,z
x,-y,1/2+z
1/2+x,1/2+y,z
1/2-x,1/2-y,1/2+z
1/2+x,1/2-y,-z
1/2-x,1/2+y,1/2-z
1/2-x,1/2-y,-z
1/2+x,1/2+y,1/2-z
1/2-x,1/2+y,z
1/2+x,1/2-y,1/2+z
loop_
_atom_site_type_symbol
_atom_site_label
_atom_site_fract_x
_atom_site_fract_y
_atom_site_fract_z
Si Si1 0.283675 0.649016 0.312213
Si Si2 0.289230 0.403454 0.522072
Si Si3 0.713475 0.412254 0.187610
Si Si4 0.782199 0.215498 0.081060
Si Si5 0.782809 0.028167 0.124255
Si Si6 0.290111 0.155055 0.583100
O O1 0.217924 0.655890 0.250000
O O2 0.500000 0.649584 0.310406
O O3 0.231883 0.698982 0.356143
O O4 0.236341 0.585751 0.339031
O O5 0.500000 0.403596 0.532071
O O6 0.219283 0.340258 0.544931
O O7 0.221206 0.455653 0.561855
O O8 0.269506 0.398450 0.456592
O O9 0.781963 0.406841 0.250000
O O10 0.500000 0.418500 0.191360
O O11 0.784000 0.470052 0.155233
O O12 0.749549 0.358224 0.146597
O O13 0.715271 0.280679 0.066086
O O14 0.000000 0.216031 0.077989
O O15 0.000000 0.023437 0.123380
O O16 0.500000 0.157823 0.576762
#
# Coordination Sequence:
#
# PCOD9474037 Si02
#       6
#    16  16  16  16  16  16
#     4   8  12  21  42  71  97 120 154 206 260 298
#     4   9  17  33  56  78  99 125 164 212 257 295
#     4  10  21  37  55  74  98 131 169 205 244 293
#     4   8  16  29  46  71 101 133 167 204 247 294
#     4   8  15  29  51  76  97 120 158 210 258 294
#     4  11  22  34  49  73 106 139 168 198 240 297
#
# _framework density 23.400319
#
# number of rings (size 3 to 8) (size 9 to 14) (size 15 to 20)
#    0.000    3.000    0.000    3.500    0.000    3.667 
#    0.000    6.667    0.000    0.000    0.000    0.000 
#    0.000    5.333    0.000    0.000    0.000    0.000 
#
# Total GULP energy -267895.582873 kJ/mol
# GULP energy per Si atom -5581.157977 kJ/mol
# Density = 2.334706 g / cm^3
# Si number density = 23.400319 Si / 1000 Ang^3
#
#
#
# Elastic Constant Matrix: (Units=GPa)
#
#
# Indices 1 2 3 4 5 6 
#
# 1 63.0340 -0.5003 -6.8071 0.0000 0.0000 0.0000
# 2 -0.5003 56.5280 4.1451 0.0000 0.0000 0.0000
# 3 -6.8071 4.1451 112.6380 0.0000 0.0000 0.0000
# 4 0.0000 0.0000 0.0000 25.1065 0.0000 0.0000
# 5 0.0000 0.0000 0.0000 0.0000 3.7190 0.0000
# 6 0.0000 0.0000 0.0000 0.0000 0.0000 4.3910
#
#
#
# Elastic Compliance Matrix: (Units=1/GPa)
#
#
# Indices 1 2 3 4 5 6 
#
# 1 0.015969 0.000071 0.000962 0.000000 0.000000 0.000000
# 2 0.000071 0.017739 -0.000649 0.000000 0.000000 0.000000
# 3 0.000962 -0.000649 0.008960 0.000000 0.000000 0.000000
# 4 0.000000 0.000000 0.000000 0.039830 0.000000 0.000000
# 5 0.000000 0.000000 0.000000 0.000000 0.268888 0.000000
# 6 0.000000 0.000000 0.000000 0.000000 0.000000 0.227741
#
#
# Mechanical properties :
#
#
# Convention : Reuss Voigt Hill
#
# Bulk Modulus (GPa) = 23.02189 25.09727 24.05958
# Shear Modulus (GPa) = 8.43404 22.33412 15.38408
#
# Velocity S-wave (km/s) = 1.90054 3.09275 2.56682
# Velocity P-wave (km/s) = 3.83089 4.84788 4.36908
#
# Compressibility (1/GPa) = 0.04343693
#
# Stress axis : x y z
#
# Youngs Moduli (GPa) = 62.62149 56.37446 111.60681
#
# Poissons Ratio (x) = -0.00399 -0.10742
# Poissons Ratio (y) = -0.00443 0.07238
# Poissons Ratio (z) = -0.06027 0.03656
#
# Static dielectric constant tensor:
#      x y z
#    x 1.908240 0.000000 0.000000 
#    y 0.000000 1.889470 0.000000 
#    z 0.000000 0.000000 2.408170 
# 
# From -- ./inp_files/59869.got.cif
#   From: 2010.05.17/outbox.cif.g08.bks.cpg/sg63_30_cif.got.tgz:59869.got - 2010.06.03 15:47:04.
