data_PCOD9474969
_publ_section_title
;
Structure prediction by ZEFSAII (Michael W. Deem and Ramdas Pophale) SiO2 
 PCOD9474969
Probable space group: C M C M
;
_chemical_formula_sum "Si O2"
_cell_formula_units_Z 96
_cell_length_a 14.698395
_cell_length_b 19.955048
_cell_length_c 16.985742
_cell_angle_alpha 90.000000
_cell_angle_beta 90.000000
_cell_angle_gamma 90.000000
_cell_volume 4982.040048
_symmetry_space_group_name_H-M "C M C M"
_symmetry_group_IT_number 63
_symmetry_cell_setting 'orthorhombic'
loop_
_space_group_symop_operation_xyz
x,y,z
-x,-y,1/2+z
x,-y,-z
-x,y,1/2-z
-x,-y,-z
x,y,1/2-z
-x,y,z
x,-y,1/2+z
1/2+x,1/2+y,z
1/2-x,1/2-y,1/2+z
1/2+x,1/2-y,-z
1/2-x,1/2+y,1/2-z
1/2-x,1/2-y,-z
1/2+x,1/2+y,1/2-z
1/2-x,1/2+y,z
1/2+x,1/2-y,1/2+z
loop_
_atom_site_type_symbol
_atom_site_label
_atom_site_fract_x
_atom_site_fract_y
_atom_site_fract_z
Si Si1 0.676842 0.590510 0.341880
Si Si2 0.000000 0.937437 0.558094
Si Si3 0.301619 0.017905 0.592626
Si Si4 0.500000 0.052079 0.928227
Si Si5 0.684958 0.359838 0.342391
Si Si6 0.500000 0.677151 0.569832
Si Si7 0.500000 0.792073 0.453192
Si Si8 0.163832 0.753757 0.658373
O O1 0.656744 0.583779 0.250000
O O2 0.590836 0.563010 0.390050
O O3 0.764835 0.547356 0.363186
O O4 0.688386 0.669262 0.359264
O O5 0.000000 0.870040 0.506911
O O6 0.000000 0.000000 0.500000
O O7 0.404312 0.039228 0.615310
O O8 0.233745 0.078699 0.613160
O O9 0.298937 0.000000 0.500000
O O10 0.500000 0.127898 0.959892
O O11 0.500000 0.000000 0.000000
O O12 0.675095 0.377173 0.250000
O O13 0.589123 0.341068 0.380579
O O14 0.750957 0.295665 0.348493
O O15 0.500000 0.752376 0.535481
O O16 0.586941 0.770046 0.401718
O O17 0.131861 0.750685 0.750000
#
# Coordination Sequence:
#
# PCOD9474969 Si02
#       8
#    16   8  16   8  16   8   8  16
#     4  11  22  40  63  92 126 167 211 267 328 383
#     4  12  23  39  58  90 126 163 207 264 319 390
#     4  11  23  41  66  92 130 172 218 267 321 387
#     4  10  24  43  63  98 134 168 214 273 325 375
#     4  11  24  43  63  92 131 173 216 267 325 391
#     4  12  25  38  63  97 125 167 216 260 330 395
#     4  12  21  42  68  99 128 168 221 273 334 372
#     4  10  22  40  66  94 127 168 219 273 324 380
#
# _framework density 19.269214999999999
#
# number of rings (size 3 to 8) (size 9 to 14) (size 15 to 20)
#    0.000    1.000    3.333    3.750    0.000    4.667 
#    0.000    4.167    0.000    2.000    0.000    1.167 
#    0.000    0.000    0.000    0.000    0.000    0.000 
#
# Total GULP energy -268375.846923 kJ/mol
# GULP energy per Si atom -5591.163478 kJ/mol
# Density = 1.922536 g / cm^3
# Si number density = 19.269215 Si / 1000 Ang^3
#
#
#
# Elastic Constant Matrix: (Units=GPa)
#
#
# Indices 1 2 3 4 5 6 
#
# 1 145.1681 58.5541 62.5185 0.0000 0.0000 0.0000
# 2 58.5541 153.4574 51.5072 0.0000 0.0000 0.0000
# 3 62.5185 51.5072 80.0583 0.0000 0.0000 0.0000
# 4 0.0000 0.0000 0.0000 35.4921 0.0000 0.0000
# 5 0.0000 0.0000 0.0000 0.0000 6.6126 0.0000
# 6 0.0000 0.0000 0.0000 0.0000 0.0000 26.4937
#
#
#
# Elastic Compliance Matrix: (Units=1/GPa)
#
#
# Indices 1 2 3 4 5 6 
#
# 1 0.010689 -0.001629 -0.007299 0.000000 0.000000 0.000000
# 2 -0.001629 0.008559 -0.004235 0.000000 0.000000 0.000000
# 3 -0.007299 -0.004235 0.020916 0.000000 0.000000 0.000000
# 4 0.000000 0.000000 0.000000 0.028175 0.000000 0.000000
# 5 0.000000 0.000000 0.000000 0.000000 0.151227 0.000000
# 6 0.000000 0.000000 0.000000 0.000000 0.000000 0.037745
#
#
# Mechanical properties :
#
#
# Convention : Reuss Voigt Hill
#
# Bulk Modulus (GPa) = 72.26432 80.42705 76.34568
# Shear Modulus (GPa) = 17.34601 27.45992 22.40296
#
# Velocity S-wave (km/s) = 3.00358 3.77910 3.41343
# Velocity P-wave (km/s) = 7.04362 7.80201 7.43249
#
# Compressibility (1/GPa) = 0.01383809
#
# Stress axis : x y z
#
# Youngs Moduli (GPa) = 93.55369 116.83123 47.81061
#
# Poissons Ratio (x) = 0.19027 0.34899
# Poissons Ratio (y) = 0.15236 0.20248
# Poissons Ratio (z) = 0.68289 0.49479
#
# Static dielectric constant tensor:
#      x y z
#    x 1.662330 0.000000 0.000000 
#    y 0.000000 1.668540 0.000000 
#    z 0.000000 0.000000 1.637190 
# 
# From -- ./inp_files/32023.got.cif
#   From: 2010.05.17/outbox.cif.g08.bks.cpg/sg63_17_cif.got.tgz:32023.got - 2010.06.03 15:47:04.
