data_PCOD9474542
_publ_section_title
;
Structure prediction by ZEFSAII (Michael W. Deem and Ramdas Pophale) SiO2 
 PCOD9474542
Probable space group: C M C M
;
_chemical_formula_sum "Si O2"
_cell_formula_units_Z 64
_cell_length_a 9.830491
_cell_length_b 17.710774
_cell_length_c 18.916283
_cell_angle_alpha 90.000000
_cell_angle_beta 90.000000
_cell_angle_gamma 90.000000
_cell_volume 3293.430885
_symmetry_space_group_name_H-M "C M C M"
_symmetry_group_IT_number 63
_symmetry_cell_setting 'orthorhombic'
loop_
_space_group_symop_operation_xyz
x,y,z
-x,-y,1/2+z
x,-y,-z
-x,y,1/2-z
-x,-y,-z
x,y,1/2-z
-x,y,z
x,-y,1/2+z
1/2+x,1/2+y,z
1/2-x,1/2-y,1/2+z
1/2+x,1/2-y,-z
1/2-x,1/2+y,1/2-z
1/2-x,1/2-y,-z
1/2+x,1/2+y,1/2-z
1/2-x,1/2+y,z
1/2+x,1/2-y,1/2+z
loop_
_atom_site_type_symbol
_atom_site_label
_atom_site_fract_x
_atom_site_fract_y
_atom_site_fract_z
Si Si1 0.274680 0.813952 0.440750
Si Si2 0.500000 0.424853 0.599241
Si Si3 0.000000 0.901847 0.429893
Si Si4 0.195862 0.805870 0.831483
Si Si5 0.500000 0.086694 0.015434
Si Si6 0.000000 0.642156 0.328686
O O1 0.250000 0.750000 0.500000
O O2 0.340753 0.767929 0.376295
O O3 0.370873 0.873783 0.479112
O O4 0.136270 0.854202 0.415766
O O5 0.500000 0.412716 0.515031
O O6 0.500000 0.515713 0.607304
O O7 0.372050 0.379923 0.632927
O O8 0.154984 0.802169 0.750000
O O9 0.359700 0.811862 0.833383
O O10 0.500000 0.094487 0.099944
O O11 0.500000 0.000000 0.000000
O O12 0.000000 0.605349 0.250000
#
# Coordination Sequence:
#
# PCOD9474542 Si02
#       6
#    16   8   8  16   8   8
#     4  12  22  41  66  94 127 162 217 264 306 375
#     4  11  22  39  62  96 129 165 206 263 313 387
#     4  11  24  37  66  98 127 160 210 268 318 359
#     4  11  23  41  66  94 127 172 212 259 320 379
#     4  12  26  39  64  98 127 170 208 263 318 371
#     4  10  21  39  64  92 126 164 210 253 313 383
#
# _framework density 19.432624000000001
#
# number of rings (size 3 to 8) (size 9 to 14) (size 15 to 20)
#    0.000    0.750    5.000    2.625    7.000    0.000 
#    0.000    3.750    0.000    0.000    0.000    0.000 
#    0.000    0.000    0.000    0.000    0.000    0.000 
#
# Total GULP energy -178693.880795 kJ/mol
# GULP energy per Si atom -5584.183775 kJ/mol
# Density = 1.938839 g / cm^3
# Si number density = 19.432624 Si / 1000 Ang^3
#
#
#
# Elastic Constant Matrix: (Units=GPa)
#
#
# Indices 1 2 3 4 5 6 
#
# 1 139.4440 63.6156 24.5609 0.0000 0.0000 0.0000
# 2 63.6156 175.4930 72.9776 0.0000 0.0000 0.0000
# 3 24.5609 72.9776 147.1195 0.0000 0.0000 0.0000
# 4 0.0000 0.0000 0.0000 20.0380 0.0000 0.0000
# 5 0.0000 0.0000 0.0000 0.0000 63.8035 0.0000
# 6 0.0000 0.0000 0.0000 0.0000 0.0000 33.6367
#
#
#
# Elastic Compliance Matrix: (Units=1/GPa)
#
#
# Indices 1 2 3 4 5 6 
#
# 1 0.008595 -0.003173 0.000139 0.000000 0.000000 0.000000
# 2 -0.003173 0.008351 -0.003613 0.000000 0.000000 0.000000
# 3 0.000139 -0.003613 0.008566 0.000000 0.000000 0.000000
# 4 0.000000 0.000000 0.000000 0.049905 0.000000 0.000000
# 5 0.000000 0.000000 0.000000 0.000000 0.015673 0.000000
# 6 0.000000 0.000000 0.000000 0.000000 0.000000 0.029729
#
#
# Mechanical properties :
#
#
# Convention : Reuss Voigt Hill
#
# Bulk Modulus (GPa) = 81.84670 87.15163 84.49917
# Shear Modulus (GPa) = 36.18337 43.55581 39.86959
#
# Velocity S-wave (km/s) = 4.31976 4.73945 4.53447
# Velocity P-wave (km/s) = 8.19085 8.65421 8.42572
#
# Compressibility (1/GPa) = 0.01221796
#
# Stress axis : x y z
#
# Youngs Moduli (GPa) = 116.35289 119.74804 116.74144
#
# Poissons Ratio (x) = 0.38001 -0.01627
# Poissons Ratio (y) = 0.36924 0.42174
# Poissons Ratio (z) = -0.01621 0.43260
#
# Static dielectric constant tensor:
#      x y z
#    x 1.722330 0.000000 0.000000 
#    y 0.000000 1.603950 0.000000 
#    z 0.000000 0.000000 1.654360 
# 
# From -- ./inp_files/41603.got.cif
#   From: 2010.05.17/outbox.cif.g08.bks.cpg/sg63_21_cif.got.tgz:41603.got - 2010.06.03 15:47:04.
