data_PCOD9474268
_publ_section_title
;
Structure prediction by ZEFSAII (Michael W. Deem and Ramdas Pophale) SiO2 
 PCOD9474268
Probable space group: C M C M
;
_chemical_formula_sum "Si O2"
_cell_formula_units_Z 80
_cell_length_a 8.140481
_cell_length_b 18.682391
_cell_length_c 26.202225
_cell_angle_alpha 90.000000
_cell_angle_beta 90.000000
_cell_angle_gamma 90.000000
_cell_volume 3984.929989
_symmetry_space_group_name_H-M "C M C M"
_symmetry_group_IT_number 63
_symmetry_cell_setting 'orthorhombic'
loop_
_space_group_symop_operation_xyz
x,y,z
-x,-y,1/2+z
x,-y,-z
-x,y,1/2-z
-x,-y,-z
x,y,1/2-z
-x,y,z
x,-y,1/2+z
1/2+x,1/2+y,z
1/2-x,1/2-y,1/2+z
1/2+x,1/2-y,-z
1/2-x,1/2+y,1/2-z
1/2-x,1/2-y,-z
1/2+x,1/2+y,1/2-z
1/2-x,1/2+y,z
1/2+x,1/2-y,1/2+z
loop_
_atom_site_type_symbol
_atom_site_label
_atom_site_fract_x
_atom_site_fract_y
_atom_site_fract_z
Si Si1 0.687481 0.435092 0.250000
Si Si2 0.199108 0.081985 0.940321
Si Si3 0.303510 0.325178 0.848895
Si Si4 0.299940 0.583841 0.443914
Si Si5 0.194306 0.663346 0.841104
Si Si6 0.689247 0.092039 0.250000
O O1 0.500000 0.459908 0.250000
O O2 0.721128 0.386869 0.299434
O O3 0.794590 0.506595 0.250000
O O4 0.275814 0.130770 0.896933
O O5 0.000000 0.086328 0.936980
O O6 0.245887 0.998553 0.932624
O O7 0.249106 0.101760 0.998133
O O8 0.500000 0.319017 0.855018
O O9 0.238921 0.362927 0.900263
O O10 0.241723 0.244768 0.839732
O O11 0.269206 0.374864 0.800519
O O12 0.500000 0.584834 0.443557
O O13 0.000000 0.663694 0.829509
O O14 0.500000 0.113117 0.250000
#
# Coordination Sequence:
#
# PCOD9474268 Si02
#       6
#     8  16  16  16  16   8
#     4  12  25  42  63  81 105 147 191 230 283 346
#     4   9  17  33  58  83 109 147 196 240 279 333
#     4  10  21  38  58  81 116 158 191 225 279 339
#     4   8  16  33  57  82 107 145 197 240 275 329
#     4  11  23  37  55  84 119 150 187 237 284 328
#     4  12  25  40  61  89 115 139 181 238 285 334
#
# _framework density 20.075635999999999
#
# number of rings (size 3 to 8) (size 9 to 14) (size 15 to 20)
#    0.000    2.000    0.000    5.400    0.000    6.400 
#    0.000    3.000    0.000    0.000    0.000    0.000 
#    0.000    0.000    0.000    0.000    0.000    0.000 
#
# Total GULP energy -223479.534345 kJ/mol
# GULP energy per Si atom -5586.988359 kJ/mol
# Density = 2.002994 g / cm^3
# Si number density = 20.075636 Si / 1000 Ang^3
#
#
#
# Elastic Constant Matrix: (Units=GPa)
#
#
# Indices 1 2 3 4 5 6 
#
# 1 13.1610 -14.0726 -16.5777 0.0000 0.0000 0.0000
# 2 -14.0726 109.1533 61.9261 0.0000 0.0000 0.0000
# 3 -16.5777 61.9261 108.5186 0.0000 0.0000 0.0000
# 4 0.0000 0.0000 0.0000 -202.6214 0.0000 0.0000
# 5 0.0000 0.0000 0.0000 0.0000 -0.6462 0.0000
# 6 0.0000 0.0000 0.0000 0.0000 0.0000 11.3518
#
#
#
# Elastic Compliance Matrix: (Units=1/GPa)
#
#
# Indices 1 2 3 4 5 6 
#
# 1 0.096709 0.006043 0.011325 0.000000 0.000000 0.000000
# 2 0.006043 0.013925 -0.007023 0.000000 0.000000 0.000000
# 3 0.011325 -0.007023 0.014953 0.000000 0.000000 0.000000
# 4 0.000000 0.000000 0.000000 -0.004935 0.000000 0.000000
# 5 0.000000 0.000000 0.000000 0.000000 -1.547582 0.000000
# 6 0.000000 0.000000 0.000000 0.000000 0.000000 0.088092
#
#
# Mechanical properties :
#
#
# Convention : Reuss Voigt Hill
#
# Bulk Modulus (GPa) = 6.83632 32.59828 19.71730
# Shear Modulus (GPa) = -3.81455 -25.07937 -14.44696
#
# Velocity S-wave (km/s) = -1.37993 -3.53830 -2.68550
# Velocity P-wave (km/s) = 0.93473 0.64789 0.47642
#
# Compressibility (1/GPa) = 0.14627754
#
# Stress axis : x y z
#
# Youngs Moduli (GPa) = 10.34026 71.81344 66.87692
#
# Poissons Ratio (x) = -0.43397 -0.75740
# Poissons Ratio (y) = -0.06249 0.46968
# Poissons Ratio (z) = -0.11711 0.50435
#
# Static dielectric constant tensor:
#      x y z
#    x 1.702360 0.000000 0.000000 
#    y 0.000000 1.685090 0.000000 
#    z 0.000000 0.000000 1.758280 
# 
# From -- ./inp_files/66704.got.cif
#   From: 2010.05.17/outbox.cif.g08.bks.cpg/sg63_34_cif.got.tgz:66704.got - 2010.06.03 15:47:04.
