data_PCOD9474976
_publ_section_title
;
Structure prediction by ZEFSAII (Michael W. Deem and Ramdas Pophale) SiO2 
 PCOD9474976
Probable space group: C M C M
;
_chemical_formula_sum "Si O2"
_cell_formula_units_Z 104
_cell_length_a 19.467350
_cell_length_b 13.877162
_cell_length_c 20.074284
_cell_angle_alpha 90.000000
_cell_angle_beta 90.000000
_cell_angle_gamma 90.000000
_cell_volume 5423.099332
_symmetry_space_group_name_H-M "C M C M"
_symmetry_group_IT_number 63
_symmetry_cell_setting 'orthorhombic'
loop_
_space_group_symop_operation_xyz
x,y,z
-x,-y,1/2+z
x,-y,-z
-x,y,1/2-z
-x,-y,-z
x,y,1/2-z
-x,y,z
x,-y,1/2+z
1/2+x,1/2+y,z
1/2-x,1/2-y,1/2+z
1/2+x,1/2-y,-z
1/2-x,1/2+y,1/2-z
1/2-x,1/2-y,-z
1/2+x,1/2+y,1/2-z
1/2-x,1/2+y,z
1/2+x,1/2-y,1/2+z
loop_
_atom_site_type_symbol
_atom_site_label
_atom_site_fract_x
_atom_site_fract_y
_atom_site_fract_z
Si Si1 0.578409 0.248240 0.448217
Si Si2 0.800959 0.842110 0.126086
Si Si3 0.224115 0.303474 0.750000
Si Si4 0.830222 0.244174 0.421489
Si Si5 0.739579 0.439727 0.623948
Si Si6 0.110241 0.463304 0.926583
Si Si7 0.920892 0.363667 0.172766
O O1 0.500000 0.278911 0.457781
O O2 0.624934 0.318712 0.404457
O O3 0.618960 0.236442 0.517726
O O4 0.579661 0.142238 0.415220
O O5 0.790219 0.778095 0.191536
O O6 0.741318 0.802984 0.075671
O O7 0.807960 0.547721 0.079910
O O8 0.238844 0.384589 0.808853
O O9 0.812347 0.132360 0.413300
O O10 0.869004 0.284591 0.356009
O O11 0.710199 0.545282 0.637186
O O12 0.088059 0.541193 0.871888
O O13 0.090793 0.500000 0.000000
O O14 0.905633 0.383685 0.250000
O O15 0.000000 0.331368 0.167369
#
# Coordination Sequence:
#
# PCOD9474976 Si02
#       7
#    16  16   8  16  16  16  16
#     4  12  25  43  64  95 135 177 220 271 336 404
#     4  11  23  42  66  99 134 166 221 274 330 389
#     4  10  22  40  67  98 129 170 206 278 330 378
#     4  11  23  40  68  91 131 170 220 270 329 387
#     4  11  24  38  68 102 129 162 224 271 326 389
#     4  12  23  38  67  94 130 169 214 280 341 396
#     4  11  25  41  61  94 134 172 213 272 340 406
#
# _framework density 19.177226000000001
#
# number of rings (size 3 to 8) (size 9 to 14) (size 15 to 20)
#    0.000    0.769    6.154    1.846    7.538    0.615 
#    0.000    2.692    0.000    0.000    0.000    0.000 
#    0.000    0.000    0.000    0.000    0.000    0.000 
#
# Total GULP energy -289674.069028 kJ/mol
# GULP energy per Si atom -5570.655174 kJ/mol
# Density = 1.913358 g / cm^3
# Si number density = 19.177226 Si / 1000 Ang^3
#
#
#
# Elastic Constant Matrix: (Units=GPa)
#
#
# Indices 1 2 3 4 5 6 
#
# 1 116.1844 31.6186 33.9587 0.0000 0.0000 0.0000
# 2 31.6186 134.7800 21.7867 0.0000 0.0000 0.0000
# 3 33.9587 21.7867 66.4574 0.0000 0.0000 0.0000
# 4 0.0000 0.0000 0.0000 15.2154 0.0000 0.0000
# 5 0.0000 0.0000 0.0000 0.0000 10.6358 0.0000
# 6 0.0000 0.0000 0.0000 0.0000 0.0000 13.0203
#
#
#
# Elastic Compliance Matrix: (Units=1/GPa)
#
#
# Indices 1 2 3 4 5 6 
#
# 1 0.010466 -0.001680 -0.004797 0.000000 0.000000 0.000000
# 2 -0.001680 0.008104 -0.001798 0.000000 0.000000 0.000000
# 3 -0.004797 -0.001798 0.018088 0.000000 0.000000 0.000000
# 4 0.000000 0.000000 0.000000 0.065723 0.000000 0.000000
# 5 0.000000 0.000000 0.000000 0.000000 0.094022 0.000000
# 6 0.000000 0.000000 0.000000 0.000000 0.000000 0.076803
#
#
# Mechanical properties :
#
#
# Convention : Reuss Voigt Hill
#
# Bulk Modulus (GPa) = 49.73292 54.68330 52.20811
# Shear Modulus (GPa) = 16.86560 23.11149 19.98854
#
# Velocity S-wave (km/s) = 2.96879 3.47530 3.23198
# Velocity P-wave (km/s) = 6.14339 6.68432 6.41956
#
# Compressibility (1/GPa) = 0.02010741
#
# Stress axis : x y z
#
# Youngs Moduli (GPa) = 95.54407 123.39141 55.28460
#
# Poissons Ratio (x) = 0.20728 0.26522
# Poissons Ratio (y) = 0.16050 0.09943
# Poissons Ratio (z) = 0.45837 0.22191
#
# Static dielectric constant tensor:
#      x y z
#    x 1.699270 0.000000 0.000000 
#    y 0.000000 1.656770 0.000000 
#    z 0.000000 0.000000 1.675980 
# 
# From -- ./inp_files/56763.got.cif
#   From: 2010.05.17/outbox.cif.g08.bks.cpg/sg63_29_cif.got.tgz:56763.got - 2010.06.03 15:47:04.
