data_PCOD9474601
_publ_section_title
;
Structure prediction by ZEFSAII (Michael W. Deem and Ramdas Pophale) SiO2 
 PCOD9474601
Probable space group: C M C M
;
_chemical_formula_sum "Si O2"
_cell_formula_units_Z 64
_cell_length_a 15.697380
_cell_length_b 8.847487
_cell_length_c 22.335429
_cell_angle_alpha 90.000000
_cell_angle_beta 90.000000
_cell_angle_gamma 90.000000
_cell_volume 3101.997214
_symmetry_space_group_name_H-M "C M C M"
_symmetry_group_IT_number 63
_symmetry_cell_setting 'orthorhombic'
loop_
_space_group_symop_operation_xyz
x,y,z
-x,-y,1/2+z
x,-y,-z
-x,y,1/2-z
-x,-y,-z
x,y,1/2-z
-x,y,z
x,-y,1/2+z
1/2+x,1/2+y,z
1/2-x,1/2-y,1/2+z
1/2+x,1/2-y,-z
1/2-x,1/2+y,1/2-z
1/2-x,1/2-y,-z
1/2+x,1/2+y,1/2-z
1/2-x,1/2+y,z
1/2+x,1/2-y,1/2+z
loop_
_atom_site_type_symbol
_atom_site_label
_atom_site_fract_x
_atom_site_fract_y
_atom_site_fract_z
Si Si1 0.000000 0.924604 0.119007
Si Si2 0.672748 0.060043 0.566897
Si Si3 0.357988 0.287195 0.750000
Si Si4 0.000000 0.413550 0.615757
Si Si5 0.500000 0.458738 0.250000
Si Si6 0.000000 0.470862 0.250000
Si Si7 0.673114 0.619676 0.381158
O O1 0.000000 0.874933 0.188408
O O2 0.084061 0.027900 0.111512
O O3 0.000000 0.758890 0.089935
O O4 0.583968 0.996716 0.591877
O O5 0.750099 0.992493 0.605418
O O6 0.683713 0.000000 0.500000
O O7 0.673082 0.240408 0.573209
O O8 0.419860 0.431390 0.750000
O O9 0.314273 0.306929 0.814647
O O10 0.417070 0.138984 0.750000
O O11 0.000000 0.439753 0.687667
#
# Coordination Sequence:
#
# PCOD9474601 Si02
#       7
#     8  16   8   8   4   4  16
#     4  10  21  40  65 100 131 173 220 271 342 403
#     4  12  26  45  65  96 136 185 234 277 331 403
#     4   9  18  37  67  97 128 164 214 272 349 401
#     4  12  24  41  69  99 131 177 223 283 340 404
#     4   7  15  32  58  90 128 160 194 260 324 406
#     4  11  19  40  70 100 132 166 216 280 354 410
#     4  11  23  43  69  97 137 177 224 286 340 403
#
# _framework density 20.631868000000001
#
# number of rings (size 3 to 8) (size 9 to 14) (size 15 to 20)
#    0.000    1.250    2.500    4.500    0.000    2.000 
#    0.000    4.375    0.000    0.000    0.000    0.000 
#    0.000    0.000    0.000    0.000    0.000    0.000 
#
# Total GULP energy -178613.012430 kJ/mol
# GULP energy per Si atom -5581.656638 kJ/mol
# Density = 2.058491 g / cm^3
# Si number density = 20.631868 Si / 1000 Ang^3
#
#
#
# Elastic Constant Matrix: (Units=GPa)
#
#
# Indices 1 2 3 4 5 6 
#
# 1 145.0784 52.6207 18.7240 0.0000 0.0000 0.0000
# 2 52.6207 122.8538 -12.3555 0.0000 0.0000 0.0000
# 3 18.7240 -12.3555 52.0744 0.0000 0.0000 0.0000
# 4 0.0000 0.0000 0.0000 -15.3699 0.0000 0.0000
# 5 0.0000 0.0000 0.0000 0.0000 23.6947 0.0000
# 6 0.0000 0.0000 0.0000 0.0000 0.0000 120.0866
#
#
#
# Elastic Compliance Matrix: (Units=1/GPa)
#
#
# Indices 1 2 3 4 5 6 
#
# 1 0.008993 -0.004279 -0.004249 0.000000 0.000000 0.000000
# 2 -0.004279 0.010375 0.004000 0.000000 0.000000 0.000000
# 3 -0.004249 0.004000 0.021680 0.000000 0.000000 0.000000
# 4 0.000000 0.000000 0.000000 -0.065062 0.000000 0.000000
# 5 0.000000 0.000000 0.000000 0.000000 0.042204 0.000000
# 6 0.000000 0.000000 0.000000 0.000000 0.000000 0.008327
#
#
# Mechanical properties :
#
#
# Convention : Reuss Voigt Hill
#
# Bulk Modulus (GPa) = 31.25730 48.66499 39.96114
# Shear Modulus (GPa) = 108.13747 43.08345 75.61046
#
# Velocity S-wave (km/s) = 7.24752 4.57464 6.06028
# Velocity P-wave (km/s) = 9.23138 7.17925 8.26922
#
# Compressibility (1/GPa) = 0.03199253
#
# Stress axis : x y z
#
# Youngs Moduli (GPa) = 111.19322 96.38548 46.12495
#
# Poissons Ratio (x) = 0.41247 0.19599
# Poissons Ratio (y) = 0.47584 -0.18452
# Poissons Ratio (z) = 0.47246 -0.38557
#
# Static dielectric constant tensor:
#      x y z
#    x 1.693000 0.000000 0.000000 
#    y 0.000000 1.692460 0.000000 
#    z 0.000000 0.000000 1.796030 
# 
# From -- ./inp_files/62420.got.cif
#   From: 2010.05.17/outbox.cif.g08.bks.cpg/sg63_32_cif.got.tgz:62420.got - 2010.06.03 15:47:04.
