data_PCOD9474919
_publ_section_title
;
Structure prediction by ZEFSAII (Michael W. Deem and Ramdas Pophale) SiO2 
 PCOD9474919
Probable space group: C M C M
;
_chemical_formula_sum "Si O2"
_cell_formula_units_Z 72
_cell_length_a 27.099872
_cell_length_b 15.017888
_cell_length_c 8.921173
_cell_angle_alpha 90.000000
_cell_angle_beta 90.000000
_cell_angle_gamma 90.000000
_cell_volume 3630.764346
_symmetry_space_group_name_H-M "C M C M"
_symmetry_group_IT_number 63
_symmetry_cell_setting 'orthorhombic'
loop_
_space_group_symop_operation_xyz
x,y,z
-x,-y,1/2+z
x,-y,-z
-x,y,1/2-z
-x,-y,-z
x,y,1/2-z
-x,y,z
x,-y,1/2+z
1/2+x,1/2+y,z
1/2-x,1/2-y,1/2+z
1/2+x,1/2-y,-z
1/2-x,1/2+y,1/2-z
1/2-x,1/2-y,-z
1/2+x,1/2+y,1/2-z
1/2-x,1/2+y,z
1/2+x,1/2-y,1/2+z
loop_
_atom_site_type_symbol
_atom_site_label
_atom_site_fract_x
_atom_site_fract_y
_atom_site_fract_z
Si Si1 0.000000 0.901285 0.428106
Si Si2 0.829855 0.916753 0.574809
Si Si3 0.374822 0.904912 0.431098
Si Si4 0.235161 0.344090 0.429176
Si Si5 0.916121 0.781389 0.573535
O O1 0.953580 0.842235 0.482280
O O2 0.000000 0.911257 0.250000
O O3 0.000000 0.000000 0.500000
O O4 0.820833 0.932552 0.750000
O O5 0.779395 0.905776 0.484934
O O6 0.862711 0.828444 0.562266
O O7 0.857636 0.000000 0.500000
O O8 0.375617 0.910377 0.250000
O O9 0.318557 0.879615 0.476596
O O10 0.409377 0.821173 0.474172
O O11 0.388302 0.000000 0.500000
O O12 0.234683 0.336382 0.250000
O O13 0.250000 0.250000 0.500000
O O14 0.930136 0.783311 0.750000
#
# Coordination Sequence:
#
# PCOD9474919 Si02
#       5
#     8  16  16  16  16
#     4  12  26  44  69 100 125 154 197 244 310 376
#     4  11  22  37  57  86 121 160 205 250 303 365
#     4  10  22  40  61  89 123 164 209 253 304 359
#     4  11  21  36  57  85 122 165 210 255 304 357
#     4  10  22  43  65  88 123 160 201 253 308 364
#
# _framework density 19.830535000000001
#
# number of rings (size 3 to 8) (size 9 to 14) (size 15 to 20)
#    0.000    1.333    2.222    3.667    0.000    8.000 
#    0.000    0.556    0.000    0.000    0.000    0.000 
#    0.000    0.000    0.000    0.000    0.000    0.000 
#
# Total GULP energy -201128.811347 kJ/mol
# GULP energy per Si atom -5586.911426 kJ/mol
# Density = 1.978540 g / cm^3
# Si number density = 19.830535 Si / 1000 Ang^3
#
#
#
# Elastic Constant Matrix: (Units=GPa)
#
#
# Indices 1 2 3 4 5 6 
#
# 1 74.0623 43.5889 40.8020 0.0000 0.0000 0.0000
# 2 43.5889 192.2900 61.1387 0.0000 0.0000 0.0000
# 3 40.8020 61.1387 80.9894 0.0000 0.0000 0.0000
# 4 0.0000 0.0000 0.0000 40.0806 0.0000 0.0000
# 5 0.0000 0.0000 0.0000 0.0000 27.2536 0.0000
# 6 0.0000 0.0000 0.0000 0.0000 0.0000 25.2706
#
#
#
# Elastic Compliance Matrix: (Units=1/GPa)
#
#
# Indices 1 2 3 4 5 6 
#
# 1 0.019089 -0.001670 -0.008356 0.000000 0.000000 0.000000
# 2 -0.001670 0.006989 -0.004435 0.000000 0.000000 0.000000
# 3 -0.008356 -0.004435 0.019905 0.000000 0.000000 0.000000
# 4 0.000000 0.000000 0.000000 0.024950 0.000000 0.000000
# 5 0.000000 0.000000 0.000000 0.000000 0.036692 0.000000
# 6 0.000000 0.000000 0.000000 0.000000 0.000000 0.039572
#
#
# Mechanical properties :
#
#
# Convention : Reuss Voigt Hill
#
# Bulk Modulus (GPa) = 58.61373 70.93341 64.77357
# Shear Modulus (GPa) = 27.50213 31.97511 29.73862
#
# Velocity S-wave (km/s) = 3.72809 4.01985 3.87672
# Velocity P-wave (km/s) = 6.93924 7.57582 7.26451
#
# Compressibility (1/GPa) = 0.01706085
#
# Stress axis : x y z
#
# Youngs Moduli (GPa) = 52.38748 143.08043 50.23989
#
# Poissons Ratio (x) = 0.23899 0.41979
# Poissons Ratio (y) = 0.08750 0.22279
# Poissons Ratio (z) = 0.43774 0.63450
#
# Static dielectric constant tensor:
#      x y z
#    x 1.731690 0.000000 0.000000 
#    y 0.000000 1.745560 0.000000 
#    z 0.000000 0.000000 1.662140 
# 
# From -- ./inp_files/11722.got.cif
#   From: 2010.05.17/outbox.cif.g08.bks.cpg/sg63_6_cif.got.tgz:11722.got - 2010.06.03 15:47:04.
