data_PCOD9474482
_publ_section_title
;
Structure prediction by ZEFSAII (Michael W. Deem and Ramdas Pophale) SiO2 
 PCOD9474482
Probable space group: C M C M
;
_chemical_formula_sum "Si O2"
_cell_formula_units_Z 116
_cell_length_a 25.366871
_cell_length_b 9.242209
_cell_length_c 26.886696
_cell_angle_alpha 90.000000
_cell_angle_beta 90.000000
_cell_angle_gamma 90.000000
_cell_volume 6303.476272
_symmetry_space_group_name_H-M "C M C M"
_symmetry_group_IT_number 63
_symmetry_cell_setting 'orthorhombic'
loop_
_space_group_symop_operation_xyz
x,y,z
-x,-y,1/2+z
x,-y,-z
-x,y,1/2-z
-x,-y,-z
x,y,1/2-z
-x,y,z
x,-y,1/2+z
1/2+x,1/2+y,z
1/2-x,1/2-y,1/2+z
1/2+x,1/2-y,-z
1/2-x,1/2+y,1/2-z
1/2-x,1/2-y,-z
1/2+x,1/2+y,1/2-z
1/2-x,1/2+y,z
1/2+x,1/2-y,1/2+z
loop_
_atom_site_type_symbol
_atom_site_label
_atom_site_fract_x
_atom_site_fract_y
_atom_site_fract_z
Si Si1 0.000000 0.492843 0.750000
Si Si2 0.681937 0.748793 0.192698
Si Si3 0.108348 0.692044 0.601220
Si Si4 0.694819 0.982870 0.943385
Si Si5 0.438785 0.486504 0.940616
Si Si6 0.232977 0.037035 0.649799
Si Si7 0.444328 0.931596 0.649724
Si Si8 0.638551 0.723189 0.607169
O O1 0.954980 0.483867 0.705603
O O2 0.665785 0.751619 0.250000
O O3 0.634435 0.761806 0.153599
O O4 0.722146 0.878606 0.180045
O O5 0.712064 0.600680 0.179438
O O6 0.154427 0.613536 0.569651
O O7 0.066591 0.567865 0.614493
O O8 0.083102 0.829884 0.575326
O O9 0.741225 0.989377 0.902783
O O10 0.664266 0.832376 0.933093
O O11 0.712707 0.000000 0.000000
O O12 0.500000 0.501896 0.924864
O O13 0.400792 0.607301 0.916971
O O14 0.436816 0.500000 0.000000
O O15 0.184825 0.142485 0.636439
O O16 0.500000 0.859173 0.634509
O O17 0.395708 0.824735 0.643466
#
# Coordination Sequence:
#
# PCOD9474482 Si02
#       8
#     4  16  16  16  16  16  16  16
#     4   8  20  40  64  90 106 148 220 234 300 336
#     4  11  23  40  59  86 118 156 198 238 296 356
#     4  10  21  39  61  88 121 153 197 247 297 352
#     4  10  22  39  62  87 117 158 200 241 292 357
#     4  11  23  38  60  89 122 158 197 245 305 358
#     4  11  22  41  57  88 120 155 197 244 292 351
#     4   9  20  39  61  85 114 148 198 247 285 349
#     4  11  21  39  60  82 122 156 190 243 299 344
#
# _framework density 18.402543999999999
#
# number of rings (size 3 to 8) (size 9 to 14) (size 15 to 20)
#    0.414    1.241    2.759    2.069    0.966    1.103 
#    2.483    0.000    0.000    7.448    0.000    0.000 
#    0.000    0.000    0.000    0.000    0.000    0.000 
#
# Total GULP energy -323160.433088 kJ/mol
# GULP energy per Si atom -5571.731605 kJ/mol
# Density = 1.836066 g / cm^3
# Si number density = 18.402544 Si / 1000 Ang^3
#
#
#
# Elastic Constant Matrix: (Units=GPa)
#
#
# Indices 1 2 3 4 5 6 
#
# 1 61.0469 8.4867 5.9189 0.0000 0.0000 0.0000
# 2 8.4867 68.9168 11.3080 0.0000 0.0000 0.0000
# 3 5.9189 11.3080 81.0320 0.0000 0.0000 0.0000
# 4 0.0000 0.0000 0.0000 12.5692 0.0000 0.0000
# 5 0.0000 0.0000 0.0000 0.0000 13.5638 0.0000
# 6 0.0000 0.0000 0.0000 0.0000 0.0000 18.2325
#
#
#
# Elastic Compliance Matrix: (Units=1/GPa)
#
#
# Indices 1 2 3 4 5 6 
#
# 1 0.016738 -0.001904 -0.000957 0.000000 0.000000 0.000000
# 2 -0.001904 0.015067 -0.001963 0.000000 0.000000 0.000000
# 3 -0.000957 -0.001963 0.012685 0.000000 0.000000 0.000000
# 4 0.000000 0.000000 0.000000 0.079559 0.000000 0.000000
# 5 0.000000 0.000000 0.000000 0.000000 0.073726 0.000000
# 6 0.000000 0.000000 0.000000 0.000000 0.000000 0.054847
#
#
# Mechanical properties :
#
#
# Convention : Reuss Voigt Hill
#
# Bulk Modulus (GPa) = 28.70204 29.15811 28.93008
# Shear Modulus (GPa) = 18.25584 21.22525 19.74054
#
# Velocity S-wave (km/s) = 3.15306 3.39984 3.27877
# Velocity P-wave (km/s) = 5.37461 5.59383 5.48531
#
# Compressibility (1/GPa) = 0.03484073
#
# Stress axis : x y z
#
# Youngs Moduli (GPa) = 59.74309 66.37058 78.83512
#
# Poissons Ratio (x) = 0.12638 0.07544
# Poissons Ratio (y) = 0.11376 0.15479
# Poissons Ratio (z) = 0.05717 0.13032
#
# Static dielectric constant tensor:
#      x y z
#    x 1.639680 0.000000 0.000000 
#    y 0.000000 1.633350 0.000000 
#    z 0.000000 0.000000 1.594150 
# 
# From -- ./inp_files/65481.got.cif
#   From: 2010.05.17/outbox.cif.g08.bks.cpg/sg63_33_cif.got.tgz:65481.got - 2010.06.03 15:47:04.
