data_PCOD9474520
_publ_section_title
;
Structure prediction by ZEFSAII (Michael W. Deem and Ramdas Pophale) SiO2 
 PCOD9474520
Probable space group: C M C M
;
_chemical_formula_sum "Si O2"
_cell_formula_units_Z 96
_cell_length_a 14.061995
_cell_length_b 23.635584
_cell_length_c 15.248442
_cell_angle_alpha 90.000000
_cell_angle_beta 90.000000
_cell_angle_gamma 90.000000
_cell_volume 5068.025004
_symmetry_space_group_name_H-M "C M C M"
_symmetry_group_IT_number 63
_symmetry_cell_setting 'orthorhombic'
loop_
_space_group_symop_operation_xyz
x,y,z
-x,-y,1/2+z
x,-y,-z
-x,y,1/2-z
-x,-y,-z
x,y,1/2-z
-x,y,z
x,-y,1/2+z
1/2+x,1/2+y,z
1/2-x,1/2-y,1/2+z
1/2+x,1/2-y,-z
1/2-x,1/2+y,1/2-z
1/2-x,1/2-y,-z
1/2+x,1/2+y,1/2-z
1/2-x,1/2+y,z
1/2+x,1/2-y,1/2+z
loop_
_atom_site_type_symbol
_atom_site_label
_atom_site_fract_x
_atom_site_fract_y
_atom_site_fract_z
Si Si1 0.614967 0.000000 0.600898
Si Si2 0.612818 0.125620 0.349725
Si Si3 0.767294 0.683570 0.000001
Si Si4 0.387179 0.874379 0.150277
Si Si5 0.384755 0.500001 0.148796
Si Si6 0.614088 0.410131 0.000001
O O1 0.500000 0.000001 0.602377
O O2 0.642449 0.059498 0.642927
O O3 0.646479 0.000000 0.500000
O O4 0.642449 0.940503 0.642927
O O5 0.625021 0.144277 0.250000
O O6 0.500000 0.128017 0.371624
O O7 0.672427 0.162698 0.416471
O O8 0.750000 0.750000 0.000000
O O9 0.827579 0.662697 0.916478
O O10 0.669650 0.648285 0.999998
O O11 0.374960 0.855721 0.250000
O O12 0.500000 0.871982 0.128392
O O13 0.350044 0.500001 0.250000
O O14 0.500000 0.500000 0.153427
O O15 0.359797 0.446414 0.087124
O O16 0.359798 0.553587 0.087123
O O17 0.500000 0.403597 0.000001
#
# Coordination Sequence:
#
# PCOD9474520 Si02
#       6
#    16  16  16  16  16  16
#     4   9  15  29  58  92 123 147 175 220 287 363
#     4  10  21  39  63  90 120 152 187 234 294 355
#     4  12  26  40  57  80 116 159 205 249 278 325
#     4  10  21  39  63  90 120 152 187 234 294 355
#     4   8  15  33  61  87 111 139 177 234 299 354
#     4   9  20  37  57  85 115 146 187 233 288 348
#
# _framework density 18.94229
#
# number of rings (size 3 to 8) (size 9 to 14) (size 15 to 20)
#    0.000    2.333    1.667    2.000    0.000    8.000 
#    0.000    0.000    0.000    4.000    0.000    0.000 
#    0.000    0.000    0.000    0.000    0.000    0.000 
#
# Total GULP energy -268056.087191 kJ/mol
# GULP energy per Si atom -5584.501816 kJ/mol
# Density = 1.889918 g / cm^3
# Si number density = 18.942290 Si / 1000 Ang^3
#
#
#
# Elastic Constant Matrix: (Units=GPa)
#
#
# Indices 1 2 3 4 5 6 
#
# 1 103.7859 60.2203 57.5788 0.0000 0.0000 0.0000
# 2 60.2203 172.7270 79.1464 0.0000 0.0000 0.0000
# 3 57.5788 79.1464 137.2942 0.0000 0.0000 0.0000
# 4 0.0000 0.0000 0.0000 -34.1187 0.0000 0.0000
# 5 0.0000 0.0000 0.0000 0.0000 16.0465 0.0000
# 6 0.0000 0.0000 0.0000 0.0000 0.0000 30.8050
#
#
#
# Elastic Compliance Matrix: (Units=1/GPa)
#
#
# Indices 1 2 3 4 5 6 
#
# 1 0.013533 -0.002878 -0.004017 0.000000 0.000000 0.000000
# 2 -0.002878 0.008480 -0.003681 0.000000 0.000000 0.000000
# 3 -0.004017 -0.003681 0.011090 0.000000 0.000000 0.000000
# 4 0.000000 0.000000 0.000000 -0.029309 0.000000 0.000000
# 5 0.000000 0.000000 0.000000 0.000000 0.062319 0.000000
# 6 0.000000 0.000000 0.000000 0.000000 0.000000 0.032462
#
#
# Mechanical properties :
#
#
# Convention : Reuss Voigt Hill
#
# Bulk Modulus (GPa) = 83.67037 89.74423 86.70730
# Shear Modulus (GPa) = 40.41679 17.00400 28.71040
#
# Velocity S-wave (km/s) = 4.62419 2.99937 3.89739
# Velocity P-wave (km/s) = 8.53100 7.71204 8.13183
#
# Compressibility (1/GPa) = 0.01195166
#
# Stress axis : x y z
#
# Youngs Moduli (GPa) = 73.89107 117.92859 90.16813
#
# Poissons Ratio (x) = 0.33938 0.36218
# Poissons Ratio (y) = 0.21265 0.33195
# Poissons Ratio (z) = 0.29680 0.43414
#
# Static dielectric constant tensor:
#      x y z
#    x 1.701020 0.000000 0.000000 
#    y 0.000000 1.615580 0.000000 
#    z 0.000000 0.000000 1.657430 
# 
# From -- ./inp_files/31921.got.cif
#   From: 2010.05.17/outbox.cif.g08.bks.cpg/sg63_16_cif.got.tgz:31921.got - 2010.06.03 15:47:04.
