data_PCOD9474119
_publ_section_title
;
Structure prediction by ZEFSAII (Michael W. Deem and Ramdas Pophale) SiO2 
 PCOD9474119
Probable space group: C M C M
;
_chemical_formula_sum "Si O2"
_cell_formula_units_Z 112
_cell_length_a 23.804068
_cell_length_b 11.505149
_cell_length_c 21.110298
_cell_angle_alpha 90.000000
_cell_angle_beta 90.000000
_cell_angle_gamma 90.000000
_cell_volume 5781.463574
_symmetry_space_group_name_H-M "C M C M"
_symmetry_group_IT_number 63
_symmetry_cell_setting 'orthorhombic'
loop_
_space_group_symop_operation_xyz
x,y,z
-x,-y,1/2+z
x,-y,-z
-x,y,1/2-z
-x,-y,-z
x,y,1/2-z
-x,y,z
x,-y,1/2+z
1/2+x,1/2+y,z
1/2-x,1/2-y,1/2+z
1/2+x,1/2-y,-z
1/2-x,1/2+y,1/2-z
1/2-x,1/2-y,-z
1/2+x,1/2+y,1/2-z
1/2-x,1/2+y,z
1/2+x,1/2-y,1/2+z
loop_
_atom_site_type_symbol
_atom_site_label
_atom_site_fract_x
_atom_site_fract_y
_atom_site_fract_z
Si Si1 0.740679 0.374023 0.463823
Si Si2 0.158220 0.371385 0.136456
Si Si3 0.674508 0.877626 0.821031
Si Si4 0.193769 0.874659 0.677527
Si Si5 0.935748 0.726479 0.950311
Si Si6 0.893077 0.974961 0.924370
Si Si7 0.619736 0.712071 0.918681
O O1 0.741345 0.500000 0.500000
O O2 0.750000 0.250000 0.500000
O O3 0.790321 0.381691 0.413074
O O4 0.679904 0.348076 0.434164
O O5 0.157023 0.488635 0.175580
O O6 0.171440 0.256881 0.176546
O O7 0.101947 0.350017 0.096375
O O8 0.672011 0.831229 0.750000
O O9 0.740351 0.872696 0.840352
O O10 0.634353 0.804815 0.866080
O O11 0.188895 0.922000 0.750000
O O12 0.158144 0.937457 0.622297
O O13 0.931272 0.860031 0.925753
O O14 0.000000 0.690108 0.954388
O O15 0.906006 0.729509 0.019000
O O16 0.916428 0.098473 0.900141
O O17 0.883408 0.000000 0.000000
#
# Coordination Sequence:
#
# PCOD9474119 Si02
#       7
#    16  16  16  16  16  16  16
#     4  12  22  33  58  91 130 164 199 247 321 389
#     4  11  22  38  59  86 125 160 205 256 304 375
#     4  11  24  39  57  85 122 168 207 248 311 377
#     4  10  21  37  57  86 124 170 207 245 300 378
#     4  10  22  40  63  90 117 155 203 256 317 372
#     4   9  20  36  59  90 123 156 199 253 314 370
#     4  11  21  36  58  89 126 156 194 246 314 383
#
# _framework density 19.372257000000001
#
# number of rings (size 3 to 8) (size 9 to 14) (size 15 to 20)
#    0.000    1.429    2.857    3.429    2.000    3.143 
#    2.571    1.429    0.000   12.000    0.000    8.000 
#    0.000    0.000    0.000    0.000    0.000    0.000 
#
# Total GULP energy -312220.055690 kJ/mol
# GULP energy per Si atom -5575.358137 kJ/mol
# Density = 1.932816 g / cm^3
# Si number density = 19.372257 Si / 1000 Ang^3
#
#
#
# Elastic Constant Matrix: (Units=GPa)
#
#
# Indices 1 2 3 4 5 6 
#
# 1 91.8969 -0.8409 36.8252 0.0000 0.0000 0.0000
# 2 -0.8409 76.7540 24.4097 0.0000 0.0000 0.0000
# 3 36.8252 24.4097 72.1635 0.0000 0.0000 0.0000
# 4 0.0000 0.0000 0.0000 21.2394 0.0000 0.0000
# 5 0.0000 0.0000 0.0000 0.0000 3.6851 0.0000
# 6 0.0000 0.0000 0.0000 0.0000 0.0000 5.3889
#
#
#
# Elastic Compliance Matrix: (Units=1/GPa)
#
#
# Indices 1 2 3 4 5 6 
#
# 1 0.014180 0.002753 -0.008167 0.000000 0.000000 0.000000
# 2 0.002753 0.015133 -0.006524 0.000000 0.000000 0.000000
# 3 -0.008167 -0.006524 0.020232 0.000000 0.000000 0.000000
# 4 0.000000 0.000000 0.000000 0.047082 0.000000 0.000000
# 5 0.000000 0.000000 0.000000 0.000000 0.271364 0.000000
# 6 0.000000 0.000000 0.000000 0.000000 0.000000 0.185567
#
#
# Mechanical properties :
#
#
# Convention : Reuss Voigt Hill
#
# Bulk Modulus (GPa) = 38.95775 40.17804 39.56789
# Shear Modulus (GPa) = 8.53255 18.09070 13.31163
#
# Velocity S-wave (km/s) = 2.10097 3.05920 2.62420
# Velocity P-wave (km/s) = 5.10286 5.76744 5.44530
#
# Compressibility (1/GPa) = 0.02566884
#
# Stress axis : x y z
#
# Youngs Moduli (GPa) = 70.52356 66.07862 49.42727
#
# Poissons Ratio (x) = -0.18189 0.40367
# Poissons Ratio (y) = -0.19413 0.32245
# Poissons Ratio (z) = 0.57597 0.43108
#
# Static dielectric constant tensor:
#      x y z
#    x 1.700460 0.000000 0.000000 
#    y 0.000000 1.769180 0.000000 
#    z 0.000000 0.000000 1.696990 
# 
# From -- ./inp_files/57621.got.cif
#   From: 2010.05.17/outbox.cif.g08.bks.cpg/sg63_29_cif.got.tgz:57621.got - 2010.06.03 15:47:04.
