data_PCOD9474272
_publ_section_title
;
Structure prediction by ZEFSAII (Michael W. Deem and Ramdas Pophale) SiO2 
 PCOD9474272
Probable space group: C M C M
;
_chemical_formula_sum "Si O2"
_cell_formula_units_Z 128
_cell_length_a 22.550917
_cell_length_b 12.244944
_cell_length_c 25.615789
_cell_angle_alpha 90.000000
_cell_angle_beta 90.000000
_cell_angle_gamma 90.000000
_cell_volume 7073.408616
_symmetry_space_group_name_H-M "C M C M"
_symmetry_group_IT_number 63
_symmetry_cell_setting 'orthorhombic'
loop_
_space_group_symop_operation_xyz
x,y,z
-x,-y,1/2+z
x,-y,-z
-x,y,1/2-z
-x,-y,-z
x,y,1/2-z
-x,y,z
x,-y,1/2+z
1/2+x,1/2+y,z
1/2-x,1/2-y,1/2+z
1/2+x,1/2-y,-z
1/2-x,1/2+y,1/2-z
1/2-x,1/2-y,-z
1/2+x,1/2+y,1/2-z
1/2-x,1/2+y,z
1/2+x,1/2-y,1/2+z
loop_
_atom_site_type_symbol
_atom_site_label
_atom_site_fract_x
_atom_site_fract_y
_atom_site_fract_z
Si Si1 0.570407 0.200830 0.911104
Si Si2 0.657063 0.504903 0.191339
Si Si3 0.352085 0.236193 0.809802
Si Si4 0.930554 0.179764 0.810526
Si Si5 0.751625 0.133177 0.872483
Si Si6 0.928569 0.129709 0.997900
Si Si7 0.639637 0.765332 0.592323
Si Si8 0.653903 0.012825 0.941191
O O1 0.500000 0.194750 0.906917
O O2 0.600352 0.204602 0.854046
O O3 0.585027 0.305892 0.947876
O O4 0.597783 0.094010 0.938574
O O5 0.677516 0.477122 0.250000
O O6 0.651617 0.633260 0.187641
O O7 0.594460 0.443422 0.184202
O O8 0.703095 0.453882 0.151472
O O9 0.366060 0.204062 0.750000
O O10 0.288868 0.188057 0.827882
O O11 0.920908 0.213062 0.750000
O O12 0.893106 0.246990 0.852359
O O13 0.000000 0.185423 0.821664
O O14 0.793131 0.221571 0.901198
O O15 0.705673 0.071828 0.909385
O O16 0.000000 0.138283 0.989264
O O17 0.893941 0.192770 0.951623
O O18 0.913976 0.000000 0.000000
O O19 0.639080 0.892761 0.579446
O O20 0.674256 0.000000 0.000000
#
# Coordination Sequence:
#
# PCOD9474272 Si02
#       8
#    16  16  16  16  16  16  16  16
#     4  10  23  41  61  87 120 154 195 245 291 349
#     4   9  18  34  57  83 113 153 194 234 290 349
#     4  10  21  38  58  83 117 154 195 239 293 355
#     4   9  19  35  56  87 120 147 189 245 293 344
#     4  10  22  37  57  85 115 151 194 248 292 337
#     4  10  22  39  61  90 122 157 196 242 295 348
#     4  11  22  39  63  88 116 160 197 237 295 352
#     4  11  23  42  59  85 117 153 200 240 289 349
#
# _framework density 18.095942999999998
#
# number of rings (size 3 to 8) (size 9 to 14) (size 15 to 20)
#    0.000    2.000    1.250    1.500    3.500    3.500 
#    0.000    4.375    0.000    0.000    0.000    0.000 
#    0.000    0.000    0.000    0.000    0.000    0.000 
#
# Total GULP energy -357017.796022 kJ/mol
# GULP energy per Si atom -5578.403063 kJ/mol
# Density = 1.805476 g / cm^3
# Si number density = 18.095943 Si / 1000 Ang^3
#
#
#
# Elastic Constant Matrix: (Units=GPa)
#
#
# Indices 1 2 3 4 5 6 
#
# 1 73.5501 32.5900 31.2717 0.0000 0.0000 0.0000
# 2 32.5900 108.1541 39.8052 0.0000 0.0000 0.0000
# 3 31.2717 39.8052 83.3894 0.0000 0.0000 0.0000
# 4 0.0000 0.0000 0.0000 28.9286 0.0000 0.0000
# 5 0.0000 0.0000 0.0000 0.0000 20.8176 0.0000
# 6 0.0000 0.0000 0.0000 0.0000 0.0000 17.5911
#
#
#
# Elastic Compliance Matrix: (Units=1/GPa)
#
#
# Indices 1 2 3 4 5 6 
#
# 1 0.017146 -0.003397 -0.004808 0.000000 0.000000 0.000000
# 2 -0.003397 0.011890 -0.004402 0.000000 0.000000 0.000000
# 3 -0.004808 -0.004402 0.015896 0.000000 0.000000 0.000000
# 4 0.000000 0.000000 0.000000 0.034568 0.000000 0.000000
# 5 0.000000 0.000000 0.000000 0.000000 0.048036 0.000000
# 6 0.000000 0.000000 0.000000 0.000000 0.000000 0.056847
#
#
# Mechanical properties :
#
#
# Convention : Reuss Voigt Hill
#
# Bulk Modulus (GPa) = 50.71513 52.49196 51.60355
# Shear Modulus (GPa) = 23.13008 24.22923 23.67966
#
# Velocity S-wave (km/s) = 3.57906 3.66311 3.62133
# Velocity P-wave (km/s) = 6.72057 6.85286 6.78704
#
# Compressibility (1/GPa) = 0.01971798
#
# Stress axis : x y z
#
# Youngs Moduli (GPa) = 58.32371 84.10720 62.90834
#
# Poissons Ratio (x) = 0.28570 0.30248
# Poissons Ratio (y) = 0.19812 0.27689
# Poissons Ratio (z) = 0.28044 0.37020
#
# Static dielectric constant tensor:
#      x y z
#    x 1.605530 0.000000 0.000000 
#    y 0.000000 1.605310 0.000000 
#    z 0.000000 0.000000 1.637460 
# 
# From -- ./inp_files/65177.got.cif
#   From: 2010.05.17/outbox.cif.g08.bks.cpg/sg63_33_cif.got.tgz:65177.got - 2010.06.03 15:47:04.
