data_PCOD9474399
_publ_section_title
;
Structure prediction by ZEFSAII (Michael W. Deem and Ramdas Pophale) SiO2 
 PCOD9474399
Probable space group: C M C M
;
_chemical_formula_sum "Si O2"
_cell_formula_units_Z 88
_cell_length_a 21.372649
_cell_length_b 9.021948
_cell_length_c 22.808667
_cell_angle_alpha 90.000000
_cell_angle_beta 90.000000
_cell_angle_gamma 90.000000
_cell_volume 4398.033952
_symmetry_space_group_name_H-M "C M C M"
_symmetry_group_IT_number 63
_symmetry_cell_setting 'orthorhombic'
loop_
_space_group_symop_operation_xyz
x,y,z
-x,-y,1/2+z
x,-y,-z
-x,y,1/2-z
-x,-y,-z
x,y,1/2-z
-x,y,z
x,-y,1/2+z
1/2+x,1/2+y,z
1/2-x,1/2-y,1/2+z
1/2+x,1/2-y,-z
1/2-x,1/2+y,1/2-z
1/2-x,1/2-y,-z
1/2+x,1/2+y,1/2-z
1/2-x,1/2+y,z
1/2+x,1/2-y,1/2+z
loop_
_atom_site_type_symbol
_atom_site_label
_atom_site_fract_x
_atom_site_fract_y
_atom_site_fract_z
Si Si1 0.605957 0.920387 0.317992
Si Si2 0.149959 0.842375 0.617513
Si Si3 0.122159 0.820991 0.385825
Si Si4 0.181222 0.677769 0.998993
Si Si5 0.500000 0.865582 0.637154
Si Si6 0.718642 0.860403 0.818376
O O1 0.589363 0.945497 0.250000
O O2 0.612054 0.749364 0.334017
O O3 0.555035 0.006611 0.355629
O O4 0.674298 0.995779 0.327173
O O5 0.150173 0.739239 0.560134
O O6 0.220796 0.862127 0.640984
O O7 0.123791 0.004015 0.604606
O O8 0.143870 0.737098 0.444843
O O9 0.173825 0.775234 0.337142
O O10 0.055322 0.760372 0.367109
O O11 0.184984 0.500000 0.000000
O O12 0.250000 0.750000 0.000000
O O13 0.735995 0.850579 0.750000
#
# Coordination Sequence:
#
# PCOD9474399 Si02
#       6
#    16  16  16  16   8  16
#     4  10  22  41  64  91 128 177 221 269 333 401
#     4  12  23  38  65 100 131 167 222 280 340 397
#     4  11  24  42  65  98 130 177 223 277 334 398
#     4  12  24  41  65  97 136 175 218 271 338 405
#     4  10  23  46  66  84 128 174 224 266 321 392
#     4  10  21  38  62  94 133 170 211 272 344 405
#
# _framework density 20.008941
#
# number of rings (size 3 to 8) (size 9 to 14) (size 15 to 20)
#    0.000    1.091    1.818    5.727    0.000    4.364 
#    0.000    5.909    0.000    0.000    0.000    0.000 
#    0.000    0.000    0.000    0.000    0.000    0.000 
#
# Total GULP energy -245002.068828 kJ/mol
# GULP energy per Si atom -5568.228837 kJ/mol
# Density = 1.996340 g / cm^3
# Si number density = 20.008941 Si / 1000 Ang^3
#
#
#
# Elastic Constant Matrix: (Units=GPa)
#
#
# Indices 1 2 3 4 5 6 
#
# 1 110.2007 43.0731 6.8671 0.0000 0.0000 0.0000
# 2 43.0731 186.1485 24.3212 0.0000 0.0000 0.0000
# 3 6.8671 24.3212 48.9903 0.0000 0.0000 0.0000
# 4 0.0000 0.0000 0.0000 25.6998 0.0000 0.0000
# 5 0.0000 0.0000 0.0000 0.0000 -5.7360 0.0000
# 6 0.0000 0.0000 0.0000 0.0000 0.0000 7.0496
#
#
#
# Elastic Compliance Matrix: (Units=1/GPa)
#
#
# Indices 1 2 3 4 5 6 
#
# 1 0.009980 -0.002274 -0.000270 0.000000 0.000000 0.000000
# 2 -0.002274 0.006263 -0.002790 0.000000 0.000000 0.000000
# 3 -0.000270 -0.002790 0.021835 0.000000 0.000000 0.000000
# 4 0.000000 0.000000 0.000000 0.038911 0.000000 0.000000
# 5 0.000000 0.000000 0.000000 0.000000 -0.174338 0.000000
# 6 0.000000 0.000000 0.000000 0.000000 0.000000 0.141853
#
#
# Mechanical properties :
#
#
# Convention : Reuss Voigt Hill
#
# Bulk Modulus (GPa) = 36.48396 54.87360 45.67878
# Shear Modulus (GPa) = 77.74932 23.47455 50.61193
#
# Velocity S-wave (km/s) = 6.24032 3.42892 5.03484
# Velocity P-wave (km/s) = 8.37828 6.56968 7.52849
#
# Compressibility (1/GPa) = 0.02740931
#
# Stress axis : x y z
#
# Youngs Moduli (GPa) = 100.20049 159.67250 45.79732
#
# Poissons Ratio (x) = 0.36310 0.01237
# Poissons Ratio (y) = 0.22786 0.12779
# Poissons Ratio (z) = 0.02705 0.44555
#
# Static dielectric constant tensor:
#      x y z
#    x 1.669270 0.000000 0.000000 
#    y 0.000000 1.714050 0.000000 
#    z 0.000000 0.000000 1.761930 
# 
# From -- ./inp_files/64393.got.cif
#   From: 2010.05.17/outbox.cif.g08.bks.cpg/sg63_33_cif.got.tgz:64393.got - 2010.06.03 15:47:04.
