data_PCOD9474464
_publ_section_title
;
Structure prediction by ZEFSAII (Michael W. Deem and Ramdas Pophale) SiO2 
 PCOD9474464
Probable space group: C M C M
;
_chemical_formula_sum "Si O2"
_cell_formula_units_Z 88
_cell_length_a 7.731840
_cell_length_b 33.922080
_cell_length_c 17.715682
_cell_angle_alpha 90.000000
_cell_angle_beta 90.000000
_cell_angle_gamma 90.000000
_cell_volume 4646.470758
_symmetry_space_group_name_H-M "C M C M"
_symmetry_group_IT_number 63
_symmetry_cell_setting 'orthorhombic'
loop_
_space_group_symop_operation_xyz
x,y,z
-x,-y,1/2+z
x,-y,-z
-x,y,1/2-z
-x,-y,-z
x,y,1/2-z
-x,y,z
x,-y,1/2+z
1/2+x,1/2+y,z
1/2-x,1/2-y,1/2+z
1/2+x,1/2-y,-z
1/2-x,1/2+y,1/2-z
1/2-x,1/2-y,-z
1/2+x,1/2+y,1/2-z
1/2-x,1/2+y,z
1/2+x,1/2-y,1/2+z
loop_
_atom_site_type_symbol
_atom_site_label
_atom_site_fract_x
_atom_site_fract_y
_atom_site_fract_z
Si Si1 0.000000 0.768781 0.660082
Si Si2 0.197717 0.935254 0.092882
Si Si3 0.197355 0.177234 0.056271
Si Si4 0.298106 0.987032 0.835035
Si Si5 0.292878 0.588190 0.076949
Si Si6 0.500000 0.886097 0.336724
Si Si7 0.000000 0.691219 0.559399
O O1 0.162939 0.793537 0.626268
O O2 0.000000 0.726993 0.618236
O O3 0.000000 0.766453 0.750000
O O4 0.331002 0.912452 0.146257
O O5 0.000000 0.921673 0.102631
O O6 0.207239 0.981587 0.110848
O O7 0.252477 0.926363 0.007148
O O8 0.256452 0.133950 0.083062
O O9 0.000000 0.172708 0.023645
O O10 0.331898 0.192531 0.994760
O O11 0.230193 0.990885 0.750000
O O12 0.500000 0.997560 0.834943
O O13 0.281557 0.942596 0.863964
O O14 0.500000 0.586156 0.084623
O O15 0.500000 0.873157 0.250000
O O16 0.500000 0.849470 0.394084
#
# Coordination Sequence:
#
# PCOD9474464 Si02
#       7
#     8  16  16  16  16   8   8
#     4  10  23  44  68 100 137 165 208 269 321 381
#     4  11  23  41  62  87 123 165 217 260 318 380
#     4   9  22  40  67  95 127 165 212 258 317 382
#     4  11  24  37  55  87 126 166 216 269 318 368
#     4  10  21  39  60  89 115 160 217 258 309 378
#     4  12  25  38  62  95 129 164 206 268 322 376
#     4  12  21  42  72  96 126 174 213 256 320 396
#
# _framework density 18.939105000000001
#
# number of rings (size 3 to 8) (size 9 to 14) (size 15 to 20)
#    0.545    0.909    2.727    2.455    2.545    5.455 
#    0.000    0.455    0.000    1.091    0.000    0.000 
#    0.000    0.000    0.000    0.000    0.000    0.000 
#
# Total GULP energy -245585.182394 kJ/mol
# GULP energy per Si atom -5581.481418 kJ/mol
# Density = 1.889600 g / cm^3
# Si number density = 18.939105 Si / 1000 Ang^3
#
#
#
# Elastic Constant Matrix: (Units=GPa)
#
#
# Indices 1 2 3 4 5 6 
#
# 1 64.7862 18.8105 24.1259 0.0000 0.0000 0.0000
# 2 18.8105 123.5915 49.6841 0.0000 0.0000 0.0000
# 3 24.1259 49.6841 63.0907 0.0000 0.0000 0.0000
# 4 0.0000 0.0000 0.0000 18.0045 0.0000 0.0000
# 5 0.0000 0.0000 0.0000 0.0000 33.6998 0.0000
# 6 0.0000 0.0000 0.0000 0.0000 0.0000 15.0430
#
#
#
# Elastic Compliance Matrix: (Units=1/GPa)
#
#
# Indices 1 2 3 4 5 6 
#
# 1 0.017999 0.000040 -0.006914 0.000000 0.000000 0.000000
# 2 0.000040 0.011839 -0.009339 0.000000 0.000000 0.000000
# 3 -0.006914 -0.009339 0.025849 0.000000 0.000000 0.000000
# 4 0.000000 0.000000 0.000000 0.055542 0.000000 0.000000
# 5 0.000000 0.000000 0.000000 0.000000 0.029674 0.000000
# 6 0.000000 0.000000 0.000000 0.000000 0.000000 0.066476
#
#
# Mechanical properties :
#
#
# Convention : Reuss Voigt Hill
#
# Bulk Modulus (GPa) = 42.99127 48.52327 45.75727
# Shear Modulus (GPa) = 20.19735 23.93933 22.06834
#
# Velocity S-wave (km/s) = 3.26918 3.55916 3.41724
# Velocity P-wave (km/s) = 6.08268 6.52430 6.30736
#
# Compressibility (1/GPa) = 0.02326053
#
# Stress axis : x y z
#
# Youngs Moduli (GPa) = 55.56007 84.46449 38.68678
#
# Poissons Ratio (x) = -0.00340 0.26749
# Poissons Ratio (y) = -0.00223 0.36129
# Poissons Ratio (z) = 0.38416 0.78880
#
# Static dielectric constant tensor:
#      x y z
#    x 1.684930 0.000000 0.000000 
#    y 0.000000 1.662210 0.000000 
#    z 0.000000 0.000000 1.631950 
# 
# From -- ./inp_files/40851.got.cif
#   From: 2010.05.17/outbox.cif.g08.bks.cpg/sg63_21_cif.got.tgz:40851.got - 2010.06.03 15:47:04.
