data_PCOD9474237
_publ_section_title
;
Structure prediction by ZEFSAII (Michael W. Deem and Ramdas Pophale) SiO2 
 PCOD9474237
Probable space group: C M C M
;
_chemical_formula_sum "Si O2"
_cell_formula_units_Z 96
_cell_length_a 15.020136
_cell_length_b 21.884741
_cell_length_c 14.488247
_cell_angle_alpha 90.000000
_cell_angle_beta 90.000000
_cell_angle_gamma 90.000000
_cell_volume 4762.457549
_symmetry_space_group_name_H-M "C M C M"
_symmetry_group_IT_number 63
_symmetry_cell_setting 'orthorhombic'
loop_
_space_group_symop_operation_xyz
x,y,z
-x,-y,1/2+z
x,-y,-z
-x,y,1/2-z
-x,-y,-z
x,y,1/2-z
-x,y,z
x,-y,1/2+z
1/2+x,1/2+y,z
1/2-x,1/2-y,1/2+z
1/2+x,1/2-y,-z
1/2-x,1/2+y,1/2-z
1/2-x,1/2-y,-z
1/2+x,1/2+y,1/2-z
1/2-x,1/2+y,z
1/2+x,1/2-y,1/2+z
loop_
_atom_site_type_symbol
_atom_site_label
_atom_site_fract_x
_atom_site_fract_y
_atom_site_fract_z
Si Si1 0.101906 0.532500 0.401696
Si Si2 0.200137 0.981477 0.643823
Si Si3 0.603826 0.831526 0.647323
Si Si4 0.657129 0.280834 0.024084
Si Si5 0.897229 0.139655 0.141953
Si Si6 0.105740 0.103477 0.638352
O O1 0.097945 0.500000 0.500000
O O2 0.193540 0.507581 0.357886
O O3 0.124391 0.604743 0.403087
O O4 0.000000 0.525480 0.362022
O O5 0.171139 0.978708 0.750000
O O6 0.148368 0.039776 0.604765
O O7 0.167180 0.915407 0.609185
O O8 0.647737 0.828581 0.750000
O O9 0.500000 0.836172 0.662651
O O10 0.614168 0.772536 0.584756
O O11 0.654563 0.340477 0.088833
O O12 0.750000 0.250000 0.000000
O O13 0.614931 0.303807 0.927714
O O14 0.879097 0.154970 0.250000
O O15 0.000000 0.118703 0.136688
O O16 0.115245 0.108219 0.750000
O O17 0.000000 0.106283 0.617492
#
# Coordination Sequence:
#
# PCOD9474237 Si02
#       6
#    16  16  16  16  16  16
#     4  10  22  38  60  89 124 161 203 260 317 378
#     4  10  21  37  63  93 123 163 210 259 316 378
#     4  10  21  40  65  88 114 157 213 263 309 366
#     4  12  25  37  59  90 124 166 207 261 313 373
#     4  10  22  41  63  92 131 171 213 261 318 384
#     4  10  22  41  64  93 127 162 209 267 318 367
#
# _framework density 20.157658999999999
#
# number of rings (size 3 to 8) (size 9 to 14) (size 15 to 20)
#    0.000    1.667    0.000    4.000    4.667    7.000 
#    0.000    1.667    0.000    0.000    0.000    0.000 
#    0.000    0.000    0.000    0.000    0.000    0.000 
#
# Total GULP energy -267401.726404 kJ/mol
# GULP energy per Si atom -5570.869300 kJ/mol
# Density = 2.011178 g / cm^3
# Si number density = 20.157659 Si / 1000 Ang^3
#
#
#
# Elastic Constant Matrix: (Units=GPa)
#
#
# Indices 1 2 3 4 5 6 
#
# 1 109.4815 41.4333 16.2779 0.0000 0.0000 0.0000
# 2 41.4333 130.5244 67.5180 0.0000 0.0000 0.0000
# 3 16.2779 67.5180 111.8909 0.0000 0.0000 0.0000
# 4 0.0000 0.0000 0.0000 18.7411 0.0000 0.0000
# 5 0.0000 0.0000 0.0000 0.0000 24.7220 0.0000
# 6 0.0000 0.0000 0.0000 0.0000 0.0000 57.1941
#
#
#
# Elastic Compliance Matrix: (Units=1/GPa)
#
#
# Indices 1 2 3 4 5 6 
#
# 1 0.010418 -0.003668 0.000698 0.000000 0.000000 0.000000
# 2 -0.003668 0.012430 -0.006967 0.000000 0.000000 0.000000
# 3 0.000698 -0.006967 0.013040 0.000000 0.000000 0.000000
# 4 0.000000 0.000000 0.000000 0.053359 0.000000 0.000000
# 5 0.000000 0.000000 0.000000 0.000000 0.040450 0.000000
# 6 0.000000 0.000000 0.000000 0.000000 0.000000 0.017484
#
#
# Mechanical properties :
#
#
# Convention : Reuss Voigt Hill
#
# Bulk Modulus (GPa) = 62.44718 66.92836 64.68777
# Shear Modulus (GPa) = 29.00361 35.24262 32.12311
#
# Velocity S-wave (km/s) = 3.79732 4.18586 3.99631
# Velocity P-wave (km/s) = 7.09033 7.52572 7.31127
#
# Compressibility (1/GPa) = 0.01601353
#
# Stress axis : x y z
#
# Youngs Moduli (GPa) = 95.98376 80.45340 76.68915
#
# Poissons Ratio (x) = 0.29511 -0.05351
# Poissons Ratio (y) = 0.35208 0.53427
# Poissons Ratio (z) = -0.06698 0.56049
#
# Static dielectric constant tensor:
#      x y z
#    x 1.675790 0.000000 0.000000 
#    y 0.000000 1.909090 0.000000 
#    z 0.000000 0.000000 1.808290 
# 
# From -- ./inp_files/31858.got.cif
#   From: 2010.05.17/outbox.cif.g08.bks.cpg/sg63_16_cif.got.tgz:31858.got - 2010.06.03 15:47:04.
