data_PCOD9474100
_publ_section_title
;
Structure prediction by ZEFSAII (Michael W. Deem and Ramdas Pophale) SiO2 
 PCOD9474100
Probable space group: C M C M
;
_chemical_formula_sum "Si O2"
_cell_formula_units_Z 56
_cell_length_a 14.272920
_cell_length_b 18.866643
_cell_length_c 10.018347
_cell_angle_alpha 90.000000
_cell_angle_beta 90.000000
_cell_angle_gamma 90.000000
_cell_volume 2697.761381
_symmetry_space_group_name_H-M "C M C M"
_symmetry_group_IT_number 63
_symmetry_cell_setting 'orthorhombic'
loop_
_space_group_symop_operation_xyz
x,y,z
-x,-y,1/2+z
x,-y,-z
-x,y,1/2-z
-x,-y,-z
x,y,1/2-z
-x,y,z
x,-y,1/2+z
1/2+x,1/2+y,z
1/2-x,1/2-y,1/2+z
1/2+x,1/2-y,-z
1/2-x,1/2+y,1/2-z
1/2-x,1/2-y,-z
1/2+x,1/2+y,1/2-z
1/2-x,1/2+y,z
1/2+x,1/2-y,1/2+z
loop_
_atom_site_type_symbol
_atom_site_label
_atom_site_fract_x
_atom_site_fract_y
_atom_site_fract_z
Si Si1 0.396302 0.802431 0.497232
Si Si2 0.401300 0.089330 0.750000
Si Si3 0.697518 0.590395 0.750000
Si Si4 0.305073 0.343307 0.960402
Si Si5 0.891299 0.944560 0.750000
O O1 0.500000 0.800293 0.560897
O O2 0.401355 0.859624 0.378376
O O3 0.370012 0.725288 0.438732
O O4 0.302279 0.823821 0.576918
O O5 0.500000 0.047855 0.750000
O O6 0.300490 0.052582 0.750000
O O7 0.691367 0.637511 0.617316
O O8 0.622362 0.528495 0.750000
O O9 0.342253 0.409180 0.877460
O O10 0.000000 0.926154 0.750000
#
# Coordination Sequence:
#
# PCOD9474100 Si02
#       5
#    16   8   8  16   8
#     4   9  17  32  57  85 112 141 176 224 277 321
#     4   8  15  32  57  82 108 142 179 216 268 328
#     4  10  22  38  55  79 111 144 183 225 260 309
#     4  10  21  37  57  83 112 142 181 225 268 320
#     4  12  25  40  56  75 107 150 186 217 266 331
#
# _framework density 20.757952
#
# number of rings (size 3 to 8) (size 9 to 14) (size 15 to 20)
#    0.000    2.286    0.000    2.571    0.000    8.000 
#    0.000    3.571    0.000    6.857    0.000    0.000 
#    0.000    0.000    0.000    0.000    0.000    0.000 
#
# Total GULP energy -156131.065857 kJ/mol
# GULP energy per Si atom -5576.109495 kJ/mol
# Density = 2.071071 g / cm^3
# Si number density = 20.757952 Si / 1000 Ang^3
#
#
#
# Elastic Constant Matrix: (Units=GPa)
#
#
# Indices 1 2 3 4 5 6 
#
# 1 141.4961 18.8268 14.1326 0.0000 0.0000 0.0000
# 2 18.8268 33.9272 -4.6973 0.0000 0.0000 0.0000
# 3 14.1326 -4.6973 65.5579 0.0000 0.0000 0.0000
# 4 0.0000 0.0000 0.0000 4.8891 0.0000 0.0000
# 5 0.0000 0.0000 0.0000 0.0000 9.3314 0.0000
# 6 0.0000 0.0000 0.0000 0.0000 0.0000 27.3120
#
#
#
# Elastic Compliance Matrix: (Units=1/GPa)
#
#
# Indices 1 2 3 4 5 6 
#
# 1 0.007891 -0.004660 -0.002035 0.000000 0.000000 0.000000
# 2 -0.004660 0.032523 0.003335 0.000000 0.000000 0.000000
# 3 -0.002035 0.003335 0.015931 0.000000 0.000000 0.000000
# 4 0.000000 0.000000 0.000000 0.204538 0.000000 0.000000
# 5 0.000000 0.000000 0.000000 0.000000 0.107165 0.000000
# 6 0.000000 0.000000 0.000000 0.000000 0.000000 0.036614
#
#
# Mechanical properties :
#
#
# Convention : Reuss Voigt Hill
#
# Bulk Modulus (GPa) = 20.15156 33.05615 26.60386
# Shear Modulus (GPa) = 11.68430 22.48776 17.08603
#
# Velocity S-wave (km/s) = 2.37509 3.29497 2.87210
# Velocity P-wave (km/s) = 4.15335 5.51679 4.88289
#
# Compressibility (1/GPa) = 0.04962395
#
# Stress axis : x y z
#
# Youngs Moduli (GPa) = 126.73187 30.74767 62.76939
#
# Poissons Ratio (x) = 0.14330 0.12773
# Poissons Ratio (y) = 0.59062 -0.20933
# Poissons Ratio (z) = 0.25789 -0.10254
#
# Static dielectric constant tensor:
#      x y z
#    x 1.807440 0.000000 0.000000 
#    y 0.000000 1.687340 0.000000 
#    z 0.000000 0.000000 1.743080 
# 
# From -- ./inp_files/4054.got.cif
#   From: 2010.05.17/outbox.cif.g08.bks.cpg/sg63_3_cif.got.tgz:4054.got - 2010.06.03 15:47:04.
