data_PCOD9474244
_publ_section_title
;
Structure prediction by ZEFSAII (Michael W. Deem and Ramdas Pophale) SiO2 
 PCOD9474244
Probable space group: C M C M
;
_chemical_formula_sum "Si O2"
_cell_formula_units_Z 96
_cell_length_a 23.539915
_cell_length_b 24.764438
_cell_length_c 8.709311
_cell_angle_alpha 90.000000
_cell_angle_beta 90.000000
_cell_angle_gamma 90.000000
_cell_volume 5077.116933
_symmetry_space_group_name_H-M "C M C M"
_symmetry_group_IT_number 63
_symmetry_cell_setting 'orthorhombic'
loop_
_space_group_symop_operation_xyz
x,y,z
-x,-y,1/2+z
x,-y,-z
-x,y,1/2-z
-x,-y,-z
x,y,1/2-z
-x,y,z
x,-y,1/2+z
1/2+x,1/2+y,z
1/2-x,1/2-y,1/2+z
1/2+x,1/2-y,-z
1/2-x,1/2+y,1/2-z
1/2-x,1/2-y,-z
1/2+x,1/2+y,1/2-z
1/2-x,1/2+y,z
1/2+x,1/2-y,1/2+z
loop_
_atom_site_type_symbol
_atom_site_label
_atom_site_fract_x
_atom_site_fract_y
_atom_site_fract_z
Si Si1 0.435145 0.379494 0.935862
Si Si2 0.671488 0.443673 0.932572
Si Si3 0.066224 0.558236 0.935138
Si Si4 0.236621 0.833604 0.565792
Si Si5 0.863287 0.335918 0.434481
Si Si6 0.628403 0.723749 0.566904
O O1 0.431188 0.374534 0.750000
O O2 0.500000 0.389798 0.977793
O O3 0.391735 0.426480 0.984759
O O4 0.411928 0.324175 0.007701
O O5 0.670577 0.448831 0.750000
O O6 0.710700 0.392658 0.969688
O O7 0.690611 0.500000 0.000000
O O8 0.068226 0.555619 0.750000
O O9 0.104338 0.609345 0.983579
O O10 0.000000 0.566286 0.980385
O O11 0.084813 0.500000 0.000000
O O12 0.237851 0.825900 0.750000
O O13 0.299292 0.833389 0.497830
O O14 0.191651 0.791588 0.494282
O O15 0.862868 0.334361 0.250000
O O16 0.890713 0.281013 0.498617
O O17 0.629528 0.725707 0.750000
#
# Coordination Sequence:
#
# PCOD9474244 Si02
#       6
#    16  16  16  16  16  16
#     4   9  19  37  57  77 107 147 186 225 272 322
#     4   9  19  34  53  77 106 142 181 222 269 319
#     4   9  20  39  60  81 108 142 178 218 265 316
#     4  10  21  38  56  77 109 146 182 222 272 323
#     4  11  22  36  57  84 110 141 181 219 265 326
#     4  11  22  36  55  81 112 143 179 225 274 320
#
# _framework density 18.908369
#
# number of rings (size 3 to 8) (size 9 to 14) (size 15 to 20)
#    0.000    2.167    0.000    4.000    0.000    6.667 
#    0.000    5.000    0.000    0.000    0.000    0.000 
#    0.000    0.000    0.000    0.000    0.000    0.000 
#
# Total GULP energy -267973.335321 kJ/mol
# GULP energy per Si atom -5582.777819 kJ/mol
# Density = 1.886533 g / cm^3
# Si number density = 18.908369 Si / 1000 Ang^3
#
#
#
# Elastic Constant Matrix: (Units=GPa)
#
#
# Indices 1 2 3 4 5 6 
#
# 1 21.3668 3.4634 6.9096 0.0000 0.0000 0.0000
# 2 3.4634 118.3429 22.2060 0.0000 0.0000 0.0000
# 3 6.9096 22.2060 31.3523 0.0000 0.0000 0.0000
# 4 0.0000 0.0000 0.0000 30.9662 0.0000 0.0000
# 5 0.0000 0.0000 0.0000 0.0000 26.3226 0.0000
# 6 0.0000 0.0000 0.0000 0.0000 0.0000 6.9223
#
#
#
# Elastic Compliance Matrix: (Units=1/GPa)
#
#
# Indices 1 2 3 4 5 6 
#
# 1 0.050444 0.000703 -0.011615 0.000000 0.000000 0.000000
# 2 0.000703 0.009755 -0.007064 0.000000 0.000000 0.000000
# 3 -0.011615 -0.007064 0.039459 0.000000 0.000000 0.000000
# 4 0.000000 0.000000 0.000000 0.032293 0.000000 0.000000
# 5 0.000000 0.000000 0.000000 0.000000 0.037990 0.000000
# 6 0.000000 0.000000 0.000000 0.000000 0.000000 0.144462
#
#
# Mechanical properties :
#
#
# Convention : Reuss Voigt Hill
#
# Bulk Modulus (GPa) = 15.69727 26.24664 20.97195
# Shear Modulus (GPa) = 13.45571 22.07442 17.76507
#
# Velocity S-wave (km/s) = 2.67053 3.42049 3.06851
# Velocity P-wave (km/s) = 4.22241 5.43238 4.86516
#
# Compressibility (1/GPa) = 0.06370536
#
# Stress axis : x y z
#
# Youngs Moduli (GPa) = 19.82407 102.51195 25.34297
#
# Poissons Ratio (x) = -0.07209 0.29436
# Poissons Ratio (y) = -0.01394 0.17903
# Poissons Ratio (z) = 0.23026 0.72416
#
# Static dielectric constant tensor:
#      x y z
#    x 1.658580 0.000000 0.000000 
#    y 0.000000 1.805660 0.000000 
#    z 0.000000 0.000000 1.633330 
# 
# From -- ./inp_files/10465.got.cif
#   From: 2010.05.17/outbox.cif.g08.bks.cpg/sg63_6_cif.got.tgz:10465.got - 2010.06.03 15:47:04.
