data_PCOD9474167
_publ_section_title
;
Structure prediction by ZEFSAII (Michael W. Deem and Ramdas Pophale) SiO2 
 PCOD9474167
Probable space group: C M C M
;
_chemical_formula_sum "Si O2"
_cell_formula_units_Z 80
_cell_length_a 8.577301
_cell_length_b 15.693123
_cell_length_c 30.671422
_cell_angle_alpha 90.000000
_cell_angle_beta 90.000000
_cell_angle_gamma 90.000000
_cell_volume 4128.515704
_symmetry_space_group_name_H-M "C M C M"
_symmetry_group_IT_number 63
_symmetry_cell_setting 'orthorhombic'
loop_
_space_group_symop_operation_xyz
x,y,z
-x,-y,1/2+z
x,-y,-z
-x,y,1/2-z
-x,-y,-z
x,y,1/2-z
-x,y,z
x,-y,1/2+z
1/2+x,1/2+y,z
1/2-x,1/2-y,1/2+z
1/2+x,1/2-y,-z
1/2-x,1/2+y,1/2-z
1/2-x,1/2-y,-z
1/2+x,1/2+y,1/2-z
1/2-x,1/2+y,z
1/2+x,1/2-y,1/2+z
loop_
_atom_site_type_symbol
_atom_site_label
_atom_site_fract_x
_atom_site_fract_y
_atom_site_fract_z
Si Si1 0.188935 0.368071 0.300369
Si Si2 0.322294 0.275362 0.953882
Si Si3 0.813561 0.523323 0.358955
Si Si4 0.813645 0.279448 0.861146
Si Si5 0.819263 0.546720 0.045819
O O1 0.237820 0.368526 0.250000
O O2 0.247569 0.452508 0.325851
O O3 0.245731 0.284377 0.325564
O O4 0.000000 0.368684 0.301606
O O5 0.500000 0.246620 0.951975
O O6 0.236714 0.248555 0.909451
O O7 0.302146 0.377030 0.953704
O O8 0.250000 0.250000 0.000000
O O9 0.758729 0.621754 0.354945
O O10 0.791523 0.495514 0.409506
O O11 0.000000 0.527201 0.351907
O O12 0.000000 0.279452 0.858795
O O13 0.000000 0.579780 0.049397
O O14 0.808754 0.500000 0.000000
#
# Coordination Sequence:
#
# PCOD9474167 Si02
#       5
#    16  16  16  16  16
#     4  10  21  37  59  87 115 151 197 241 291 353
#     4  11  22  36  55  82 116 154 195 238 291 348
#     4   8  17  35  56  79 112 152 192 232 283 349
#     4  10  21  39  60  85 116 153 196 244 298 351
#     4   9  18  33  54  81 112 151 195 236 284 343
#
# _framework density 19.377424999999999
#
# number of rings (size 3 to 8) (size 9 to 14) (size 15 to 20)
#    0.000    2.400    0.000    3.600    2.800    1.600 
#    0.000    7.000    0.000    0.000    0.000    0.000 
#    0.000    0.000    0.000    0.000    0.000    0.000 
#
# Total GULP energy -222973.902774 kJ/mol
# GULP energy per Si atom -5574.347569 kJ/mol
# Density = 1.933332 g / cm^3
# Si number density = 19.377425 Si / 1000 Ang^3
#
#
#
# Elastic Constant Matrix: (Units=GPa)
#
#
# Indices 1 2 3 4 5 6 
#
# 1 29.1603 13.7073 32.8378 0.0000 0.0000 0.0000
# 2 13.7073 90.6214 89.9567 0.0000 0.0000 0.0000
# 3 32.8378 89.9567 196.1055 0.0000 0.0000 0.0000
# 4 0.0000 0.0000 0.0000 36.9235 0.0000 0.0000
# 5 0.0000 0.0000 0.0000 0.0000 24.5577 0.0000
# 6 0.0000 0.0000 0.0000 0.0000 0.0000 24.9309
#
#
#
# Elastic Compliance Matrix: (Units=1/GPa)
#
#
# Indices 1 2 3 4 5 6 
#
# 1 0.042329 0.001163 -0.007621 0.000000 0.000000 0.000000
# 2 0.001163 0.020293 -0.009503 0.000000 0.000000 0.000000
# 3 -0.007621 -0.009503 0.010735 0.000000 0.000000 0.000000
# 4 0.000000 0.000000 0.000000 0.027083 0.000000 0.000000
# 5 0.000000 0.000000 0.000000 0.000000 0.040720 0.000000
# 6 0.000000 0.000000 0.000000 0.000000 0.000000 0.040111
#
#
# Mechanical properties :
#
#
# Convention : Reuss Voigt Hill
#
# Bulk Modulus (GPa) = 24.13541 65.43231 44.78386
# Shear Modulus (GPa) = 22.02592 29.24145 25.63369
#
# Velocity S-wave (km/s) = 3.37513 3.88886 3.64106
# Velocity P-wave (km/s) = 5.26033 7.34880 6.39046
#
# Compressibility (1/GPa) = 0.04143290
#
# Stress axis : x y z
#
# Youngs Moduli (GPa) = 23.62440 49.27912 93.15502
#
# Poissons Ratio (x) = -0.05731 0.70997
# Poissons Ratio (y) = -0.02747 0.88528
# Poissons Ratio (z) = 0.18005 0.46831
#
# Static dielectric constant tensor:
#      x y z
#    x 1.696880 0.000000 0.000000 
#    y 0.000000 1.674610 0.000000 
#    z 0.000000 0.000000 1.687660 
# 
# From -- ./inp_files/66636.got.cif
#   From: 2010.05.17/outbox.cif.g08.bks.cpg/sg63_34_cif.got.tgz:66636.got - 2010.06.03 15:47:04.
