data_PCOD9474461
_publ_section_title
;
Structure prediction by ZEFSAII (Michael W. Deem and Ramdas Pophale) SiO2 
 PCOD9474461
Probable space group: C M C M
;
_chemical_formula_sum "Si O2"
_cell_formula_units_Z 96
_cell_length_a 28.877280
_cell_length_b 9.191990
_cell_length_c 18.425500
_cell_angle_alpha 90.000000
_cell_angle_beta 90.000000
_cell_angle_gamma 90.000000
_cell_volume 4890.858621
_symmetry_space_group_name_H-M "C M C M"
_symmetry_group_IT_number 63
_symmetry_cell_setting 'orthorhombic'
loop_
_space_group_symop_operation_xyz
x,y,z
-x,-y,1/2+z
x,-y,-z
-x,y,1/2-z
-x,-y,-z
x,y,1/2-z
-x,y,z
x,-y,1/2+z
1/2+x,1/2+y,z
1/2-x,1/2-y,1/2+z
1/2+x,1/2-y,-z
1/2-x,1/2+y,1/2-z
1/2-x,1/2-y,-z
1/2+x,1/2+y,1/2-z
1/2-x,1/2+y,z
1/2+x,1/2-y,1/2+z
loop_
_atom_site_type_symbol
_atom_site_label
_atom_site_fract_x
_atom_site_fract_y
_atom_site_fract_z
Si Si1 0.948864 0.939480 0.081873
Si Si2 0.051912 0.243660 0.337269
Si Si3 0.204004 0.100976 0.333634
Si Si4 0.856561 0.394828 0.334441
Si Si5 0.206219 0.598551 0.431629
Si Si6 0.348639 0.384835 0.434168
O O1 0.901945 0.846204 0.085129
O O2 0.000000 0.876565 0.099452
O O3 0.941160 0.082118 0.131400
O O4 0.951510 0.000000 0.000000
O O5 0.054753 0.235630 0.250000
O O6 0.092323 0.351396 0.361475
O O7 0.000000 0.289918 0.357992
O O8 0.216699 0.072582 0.250000
O O9 0.172500 0.244770 0.336486
O O10 0.249184 0.125746 0.382163
O O11 0.175567 0.966717 0.367109
O O12 0.858666 0.441911 0.250000
O O13 0.830896 0.510915 0.383585
O O14 0.219591 0.500000 0.500000
O O15 0.181984 0.747293 0.455775
O O16 0.349665 0.500000 0.500000
#
# Coordination Sequence:
#
# PCOD9474461 Si02
#       6
#    16  16  16  16  16  16
#     4   9  18  33  58  88 117 149 192 244 288 336
#     4   9  17  33  60  89 116 152 196 239 290 351
#     4  11  23  41  63  86 113 152 200 246 292 349
#     4  10  21  39  60  87 120 151 188 238 295 354
#     4  12  26  39  57  85 120 159 196 241 299 353
#     4  11  23  40  62  86 117 156 201 243 288 346
#
# _framework density 19.628454999999999
#
# number of rings (size 3 to 8) (size 9 to 14) (size 15 to 20)
#    0.000    1.667    1.667    3.000    2.333    4.667 
#    0.000    0.833    0.000    1.000    0.000    0.000 
#    0.000    0.000    0.000    0.000    0.000    0.000 
#
# Total GULP energy -268186.033598 kJ/mol
# GULP energy per Si atom -5587.209033 kJ/mol
# Density = 1.958378 g / cm^3
# Si number density = 19.628455 Si / 1000 Ang^3
#
#
#
# Elastic Constant Matrix: (Units=GPa)
#
#
# Indices 1 2 3 4 5 6 
#
# 1 144.3174 16.3605 30.6949 0.0000 0.0000 0.0000
# 2 16.3605 43.1098 14.9889 0.0000 0.0000 0.0000
# 3 30.6949 14.9889 58.5962 0.0000 0.0000 0.0000
# 4 0.0000 0.0000 0.0000 22.8804 0.0000 0.0000
# 5 0.0000 0.0000 0.0000 0.0000 21.7224 0.0000
# 6 0.0000 0.0000 0.0000 0.0000 0.0000 14.5629
#
#
#
# Elastic Compliance Matrix: (Units=1/GPa)
#
#
# Indices 1 2 3 4 5 6 
#
# 1 0.007912 -0.001714 -0.003706 0.000000 0.000000 0.000000
# 2 -0.001714 0.025832 -0.005710 0.000000 0.000000 0.000000
# 3 -0.003706 -0.005710 0.020468 0.000000 0.000000 0.000000
# 4 0.000000 0.000000 0.000000 0.043706 0.000000 0.000000
# 5 0.000000 0.000000 0.000000 0.000000 0.046035 0.000000
# 6 0.000000 0.000000 0.000000 0.000000 0.000000 0.068667
#
#
# Mechanical properties :
#
#
# Convention : Reuss Voigt Hill
#
# Bulk Modulus (GPa) = 31.29706 41.12356 36.21031
# Shear Modulus (GPa) = 20.36400 24.09841 22.23121
#
# Velocity S-wave (km/s) = 3.22448 3.50770 3.36906
# Velocity P-wave (km/s) = 5.46282 6.11569 5.79845
#
# Compressibility (1/GPa) = 0.03195188
#
# Stress axis : x y z
#
# Youngs Moduli (GPa) = 126.39489 38.71111 48.85695
#
# Poissons Ratio (x) = 0.06635 0.18106
# Poissons Ratio (y) = 0.21664 0.27898
# Poissons Ratio (z) = 0.46842 0.22104
#
# Static dielectric constant tensor:
#      x y z
#    x 1.734710 0.000000 0.000000 
#    y 0.000000 1.650290 0.000000 
#    z 0.000000 0.000000 1.682380 
# 
# From -- ./inp_files/58119.got.cif
#   From: 2010.05.17/outbox.cif.g08.bks.cpg/sg63_30_cif.got.tgz:58119.got - 2010.06.03 15:47:04.
