data_PCOD9474443
_publ_section_title
;
Structure prediction by ZEFSAII (Michael W. Deem and Ramdas Pophale) SiO2 
 PCOD9474443
Probable space group: C M C M
;
_chemical_formula_sum "Si O2"
_cell_formula_units_Z 96
_cell_length_a 13.943857
_cell_length_b 14.583730
_cell_length_c 26.344520
_cell_angle_alpha 90.000000
_cell_angle_beta 90.000000
_cell_angle_gamma 90.000000
_cell_volume 5357.248916
_symmetry_space_group_name_H-M "C M C M"
_symmetry_group_IT_number 63
_symmetry_cell_setting 'orthorhombic'
loop_
_space_group_symop_operation_xyz
x,y,z
-x,-y,1/2+z
x,-y,-z
-x,y,1/2-z
-x,-y,-z
x,y,1/2-z
-x,y,z
x,-y,1/2+z
1/2+x,1/2+y,z
1/2-x,1/2-y,1/2+z
1/2+x,1/2-y,-z
1/2-x,1/2+y,1/2-z
1/2-x,1/2-y,-z
1/2+x,1/2+y,1/2-z
1/2-x,1/2+y,z
1/2+x,1/2-y,1/2+z
loop_
_atom_site_type_symbol
_atom_site_label
_atom_site_fract_x
_atom_site_fract_y
_atom_site_fract_z
Si Si1 0.267039 0.398515 0.595827
Si Si2 0.610738 0.250000 0.963077
Si Si3 0.887738 0.639386 0.808190
Si Si4 0.612262 0.639385 0.308190
Si Si5 0.610714 0.750000 0.585183
Si Si6 0.267039 0.898514 0.095827
O O1 0.334461 0.337797 0.559315
O O2 0.321469 0.405033 0.649542
O O3 0.170078 0.339466 0.602227
O O4 0.250000 0.500000 0.575569
O O5 0.500000 0.250000 0.946321
O O6 0.665540 0.162204 0.940686
O O7 0.613920 0.250001 0.023749
O O8 0.863440 0.615883 0.750000
O O9 0.878206 0.750000 0.813536
O O10 0.821471 0.594968 0.850458
O O11 0.000000 0.617647 0.816380
O O12 0.636558 0.615882 0.250000
O O13 0.500000 0.617646 0.316381
O O14 0.500000 0.750000 0.601168
O O15 0.670078 0.660534 0.602227
#
# Coordination Sequence:
#
# PCOD9474443 Si02
#       6
#    16  16  16  16  16  16
#     4  11  21  34  57  83 109 139 178 223 270 319
#     4  10  21  39  58  76 105 143 185 227 265 312
#     4   9  17  32  57  84 107 136 178 224 265 310
#     4   9  17  32  57  84 107 136 178 224 265 310
#     4  10  23  39  52  75 113 148 177 218 271 323
#     4  11  21  34  57  83 109 139 178 223 270 319
#
# _framework density 17.919644999999999
#
# number of rings (size 3 to 8) (size 9 to 14) (size 15 to 20)
#    0.000    2.000    3.333    4.000    0.000    6.000 
#    0.000    3.333    0.000    2.000    0.000    0.000 
#    0.000    0.000    0.000    0.000    0.000    0.000 
#
# Total GULP energy -267961.646135 kJ/mol
# GULP energy per Si atom -5582.534294 kJ/mol
# Density = 1.787886 g / cm^3
# Si number density = 17.919645 Si / 1000 Ang^3
#
#
#
# Elastic Constant Matrix: (Units=GPa)
#
#
# Indices 1 2 3 4 5 6 
#
# 1 112.7544 44.6712 24.2649 0.0000 0.0000 0.0000
# 2 44.6712 117.4494 11.8247 0.0000 0.0000 0.0000
# 3 24.2649 11.8247 59.8637 0.0000 0.0000 0.0000
# 4 0.0000 0.0000 0.0000 -13.3943 0.0000 0.0000
# 5 0.0000 0.0000 0.0000 0.0000 36.4635 0.0000
# 6 0.0000 0.0000 0.0000 0.0000 0.0000 3.8420
#
#
#
# Elastic Compliance Matrix: (Units=1/GPa)
#
#
# Indices 1 2 3 4 5 6 
#
# 1 0.011223 -0.003888 -0.003781 0.000000 0.000000 0.000000
# 2 -0.003888 0.010034 -0.000406 0.000000 0.000000 0.000000
# 3 -0.003781 -0.000406 0.018317 0.000000 0.000000 0.000000
# 4 0.000000 0.000000 0.000000 -0.074658 0.000000 0.000000
# 5 0.000000 0.000000 0.000000 0.000000 0.027425 0.000000
# 6 0.000000 0.000000 0.000000 0.000000 0.000000 0.260283
#
#
# Mechanical properties :
#
#
# Convention : Reuss Voigt Hill
#
# Bulk Modulus (GPa) = 42.69095 50.17657 46.43376
# Shear Modulus (GPa) = 18.07789 19.33600 18.70694
#
# Velocity S-wave (km/s) = 3.17966 3.28844 3.23450
# Velocity P-wave (km/s) = 6.11192 6.51767 6.31805
#
# Compressibility (1/GPa) = 0.02342417
#
# Stress axis : x y z
#
# Youngs Moduli (GPa) = 89.10411 99.66203 54.59281
#
# Poissons Ratio (x) = 0.38747 0.20642
# Poissons Ratio (y) = 0.34642 0.02217
# Poissons Ratio (z) = 0.33691 0.04047
#
# Static dielectric constant tensor:
#      x y z
#    x 1.616050 0.000000 0.000000 
#    y 0.000000 1.611040 0.000000 
#    z 0.000000 0.000000 1.626800 
# 
# From -- ./inp_files/73486.got.cif
#   From: 2010.05.17/outbox.cif.g08.bks.cpg/sg63_37_cif.got.tgz:73486.got - 2010.06.03 15:47:04.
