data_PCOD9474172
_publ_section_title
;
Structure prediction by ZEFSAII (Michael W. Deem and Ramdas Pophale) SiO2 
 PCOD9474172
Probable space group: C M C M
;
_chemical_formula_sum "Si O2"
_cell_formula_units_Z 96
_cell_length_a 20.119572
_cell_length_b 27.676410
_cell_length_c 8.853649
_cell_angle_alpha 90.000000
_cell_angle_beta 90.000000
_cell_angle_gamma 90.000000
_cell_volume 4930.043985
_symmetry_space_group_name_H-M "C M C M"
_symmetry_group_IT_number 63
_symmetry_cell_setting 'orthorhombic'
loop_
_space_group_symop_operation_xyz
x,y,z
-x,-y,1/2+z
x,-y,-z
-x,y,1/2-z
-x,-y,-z
x,y,1/2-z
-x,y,z
x,-y,1/2+z
1/2+x,1/2+y,z
1/2-x,1/2-y,1/2+z
1/2+x,1/2-y,-z
1/2-x,1/2+y,1/2-z
1/2-x,1/2-y,-z
1/2+x,1/2+y,1/2-z
1/2-x,1/2+y,z
1/2+x,1/2-y,1/2+z
loop_
_atom_site_type_symbol
_atom_site_label
_atom_site_fract_x
_atom_site_fract_y
_atom_site_fract_z
Si Si1 0.576223 0.053545 0.430430
Si Si2 0.922686 0.243979 0.570268
Si Si3 0.203432 0.600072 0.568941
Si Si4 0.921668 0.140899 0.071294
Si Si5 0.829032 0.050776 0.430876
Si Si6 0.702119 0.790187 0.430051
O O1 0.586218 0.051519 0.250000
O O2 0.500000 0.069151 0.458859
O O3 0.630903 0.087301 0.506210
O O4 0.583820 0.000000 0.500000
O O5 0.915759 0.248758 0.750000
O O6 0.905449 0.189225 0.520765
O O7 0.871972 0.279200 0.487773
O O8 0.000000 0.252095 0.529575
O O9 0.204385 0.595472 0.750000
O O10 0.256986 0.564418 0.495954
O O11 0.221453 0.655227 0.527343
O O12 0.910886 0.150674 0.250000
O O13 0.878081 0.094797 0.027961
O O14 0.000000 0.130709 0.050159
O O15 0.826391 0.047301 0.250000
O O16 0.851206 0.000000 0.500000
O O17 0.704600 0.786342 0.250000
O O18 0.750000 0.750000 0.500000
#
# Coordination Sequence:
#
# PCOD9474172 Si02
#       6
#    16  16  16  16  16  16
#     4  10  21  38  61  87 115 148 185 227 277 332
#     4  10  21  37  59  87 118 152 189 231 280 335
#     4  11  24  40  58  82 113 148 188 233 280 332
#     4   9  19  37  60  85 114 150 191 233 280 334
#     4  11  23  38  58  83 113 149 188 233 283 335
#     4  11  24  40  60  85 114 150 190 236 287 338
#
# _framework density 19.472442000000001
#
# number of rings (size 3 to 8) (size 9 to 14) (size 15 to 20)
#    0.000    1.667    0.000    4.000    0.000    9.667 
#    0.000    3.333    0.000    0.000    0.000    0.000 
#    0.000    0.000    0.000    0.000    0.000    0.000 
#
# Total GULP energy -268378.442474 kJ/mol
# GULP energy per Si atom -5591.217552 kJ/mol
# Density = 1.942812 g / cm^3
# Si number density = 19.472442 Si / 1000 Ang^3
#
#
#
# Elastic Constant Matrix: (Units=GPa)
#
#
# Indices 1 2 3 4 5 6 
#
# 1 32.8688 -0.2627 7.0824 0.0000 0.0000 0.0000
# 2 -0.2627 36.3043 9.9602 0.0000 0.0000 0.0000
# 3 7.0824 9.9602 34.6118 0.0000 0.0000 0.0000
# 4 0.0000 0.0000 0.0000 32.6733 0.0000 0.0000
# 5 0.0000 0.0000 0.0000 0.0000 29.0122 0.0000
# 6 0.0000 0.0000 0.0000 0.0000 0.0000 38.8356
#
#
#
# Elastic Compliance Matrix: (Units=1/GPa)
#
#
# Indices 1 2 3 4 5 6 
#
# 1 0.031988 0.002201 -0.007179 0.000000 0.000000 0.000000
# 2 0.002201 0.030058 -0.009100 0.000000 0.000000 0.000000
# 3 -0.007179 -0.009100 0.032980 0.000000 0.000000 0.000000
# 4 0.000000 0.000000 0.000000 0.030606 0.000000 0.000000
# 5 0.000000 0.000000 0.000000 0.000000 0.034468 0.000000
# 6 0.000000 0.000000 0.000000 0.000000 0.000000 0.025750
#
#
# Mechanical properties :
#
#
# Convention : Reuss Voigt Hill
#
# Bulk Modulus (GPa) = 14.95445 15.26051 15.10748
# Shear Modulus (GPa) = 21.15998 25.90457 23.53228
#
# Velocity S-wave (km/s) = 3.30003 3.65131 3.48011
# Velocity P-wave (km/s) = 4.71347 5.06262 4.89116
#
# Compressibility (1/GPa) = 0.06686971
#
# Stress axis : x y z
#
# Youngs Moduli (GPa) = 31.26127 33.26952 30.32181
#
# Poissons Ratio (x) = -0.07323 0.21768
# Poissons Ratio (y) = -0.06881 0.27593
# Poissons Ratio (z) = 0.22442 0.30275
#
# Static dielectric constant tensor:
#      x y z
#    x 1.679260 0.000000 0.000000 
#    y 0.000000 1.664590 0.000000 
#    z 0.000000 0.000000 1.650110 
# 
# From -- ./inp_files/8643.got.cif
#   From: 2010.05.17/outbox.cif.g08.bks.cpg/sg63_5_cif.got.tgz:8643.got - 2010.06.03 15:47:04.
