data_PCOD9474013
_publ_section_title
;
Structure prediction by ZEFSAII (Michael W. Deem and Ramdas Pophale) SiO2 
 PCOD9474013
Probable space group: C M C M
;
_chemical_formula_sum "Si O2"
_cell_formula_units_Z 104
_cell_length_a 26.923657
_cell_length_b 9.060315
_cell_length_c 21.442978
_cell_angle_alpha 90.000000
_cell_angle_beta 90.000000
_cell_angle_gamma 90.000000
_cell_volume 5230.731723
_symmetry_space_group_name_H-M "C M C M"
_symmetry_group_IT_number 63
_symmetry_cell_setting 'orthorhombic'
loop_
_space_group_symop_operation_xyz
x,y,z
-x,-y,1/2+z
x,-y,-z
-x,y,1/2-z
-x,-y,-z
x,y,1/2-z
-x,y,z
x,-y,1/2+z
1/2+x,1/2+y,z
1/2-x,1/2-y,1/2+z
1/2+x,1/2-y,-z
1/2-x,1/2+y,1/2-z
1/2-x,1/2-y,-z
1/2+x,1/2+y,1/2-z
1/2-x,1/2+y,z
1/2+x,1/2-y,1/2+z
loop_
_atom_site_type_symbol
_atom_site_label
_atom_site_fract_x
_atom_site_fract_y
_atom_site_fract_z
Si Si1 0.655101 0.326963 0.512323
Si Si2 0.078091 0.715014 0.153323
Si Si3 0.554980 0.175733 0.008536
Si Si4 0.137113 0.209877 0.250000
Si Si5 0.310143 0.724152 0.874858
Si Si6 0.053793 0.037467 0.750000
Si Si7 0.291636 0.375176 0.639013
Si Si8 0.444302 0.036409 0.750000
O O1 0.645518 0.500000 0.500000
O O2 0.602194 0.250151 0.523993
O O3 0.680395 0.264327 0.449609
O O4 0.690393 0.317330 0.571652
O O5 0.061099 0.711278 0.081912
O O6 0.137726 0.729234 0.155111
O O7 0.057616 0.855578 0.190320
O O8 0.060996 0.570343 0.190132
O O9 0.500000 0.224210 0.987296
O O10 0.558119 0.000000 0.000000
O O11 0.172707 0.196468 0.190369
O O12 0.100819 0.349612 0.250000
O O13 0.099611 0.071962 0.250000
O O14 0.298250 0.552566 0.860207
O O15 0.264978 0.825442 0.853064
O O16 0.000000 0.963070 0.750000
O O17 0.500000 0.100714 0.750000
#
# Coordination Sequence:
#
# PCOD9474013 Si02
#       8
#    16  16  16   8  16   8  16   8
#     4   9  21  41  62  89 123 160 209 253 304 375
#     4  10  21  42  64  92 120 161 211 256 304 388
#     4  10  21  36  60  93 125 158 204 260 317 365
#     4  12  27  40  60  93 132 155 212 262 307 364
#     4  10  22  41  68  91 123 159 207 255 314 366
#     4  11  21  42  68  84 119 170 209 253 308 375
#     4  11  24  41  61  93 125 166 204 256 309 370
#     4  11  25  42  64  89 123 165 208 253 309 369
#
# _framework density 19.882496
#
# number of rings (size 3 to 8) (size 9 to 14) (size 15 to 20)
#    0.000    1.692    1.538    2.538    4.308    3.385 
#    0.000    1.538    0.000    0.000    0.000    0.000 
#    0.000    0.000    0.000    0.000    0.000    0.000 
#
# Total GULP energy -290615.150356 kJ/mol
# GULP energy per Si atom -5588.752891 kJ/mol
# Density = 1.983724 g / cm^3
# Si number density = 19.882496 Si / 1000 Ang^3
#
#
#
# Elastic Constant Matrix: (Units=GPa)
#
#
# Indices 1 2 3 4 5 6 
#
# 1 174.2049 32.0481 11.9806 0.0000 0.0000 0.0000
# 2 32.0481 39.2532 3.5578 0.0000 0.0000 0.0000
# 3 11.9806 3.5578 29.6072 0.0000 0.0000 0.0000
# 4 0.0000 0.0000 0.0000 3.5846 0.0000 0.0000
# 5 0.0000 0.0000 0.0000 0.0000 11.9260 0.0000
# 6 0.0000 0.0000 0.0000 0.0000 0.0000 51.7725
#
#
#
# Elastic Compliance Matrix: (Units=1/GPa)
#
#
# Indices 1 2 3 4 5 6 
#
# 1 0.006886 -0.005428 -0.002134 0.000000 0.000000 0.000000
# 2 -0.005428 0.030036 -0.001413 0.000000 0.000000 0.000000
# 3 -0.002134 -0.001413 0.034809 0.000000 0.000000 0.000000
# 4 0.000000 0.000000 0.000000 0.278973 0.000000 0.000000
# 5 0.000000 0.000000 0.000000 0.000000 0.083850 0.000000
# 6 0.000000 0.000000 0.000000 0.000000 0.000000 0.019315
#
#
# Mechanical properties :
#
#
# Convention : Reuss Voigt Hill
#
# Bulk Modulus (GPa) = 18.59423 37.58203 28.08813
# Shear Modulus (GPa) = 10.20937 26.48854 18.34896
#
# Velocity S-wave (km/s) = 2.26848 3.65397 3.04117
# Velocity P-wave (km/s) = 4.02911 6.06177 5.14678
#
# Compressibility (1/GPa) = 0.05378013
#
# Stress axis : x y z
#
# Youngs Moduli (GPa) = 145.22664 33.29371 28.72832
#
# Poissons Ratio (x) = 0.18073 0.06131
# Poissons Ratio (y) = 0.78836 0.04058
# Poissons Ratio (z) = 0.30992 0.04703
#
# Static dielectric constant tensor:
#      x y z
#    x 1.682210 0.000000 0.000000 
#    y 0.000000 1.673020 0.000000 
#    z 0.000000 0.000000 1.701560 
# 
# From -- ./inp_files/58244.got.cif
#   From: 2010.05.17/outbox.cif.g08.bks.cpg/sg63_30_cif.got.tgz:58244.got - 2010.06.03 15:47:04.
