data_PCOD9474163
_publ_section_title
;
Structure prediction by ZEFSAII (Michael W. Deem and Ramdas Pophale) SiO2 
 PCOD9474163
Probable space group: C M C M
;
_chemical_formula_sum "Si O2"
_cell_formula_units_Z 96
_cell_length_a 16.416618
_cell_length_b 12.025492
_cell_length_c 25.607577
_cell_angle_alpha 90.000000
_cell_angle_beta 90.000000
_cell_angle_gamma 90.000000
_cell_volume 5055.394291
_symmetry_space_group_name_H-M "C M C M"
_symmetry_group_IT_number 63
_symmetry_cell_setting 'orthorhombic'
loop_
_space_group_symop_operation_xyz
x,y,z
-x,-y,1/2+z
x,-y,-z
-x,y,1/2-z
-x,-y,-z
x,y,1/2-z
-x,y,z
x,-y,1/2+z
1/2+x,1/2+y,z
1/2-x,1/2-y,1/2+z
1/2+x,1/2-y,-z
1/2-x,1/2+y,1/2-z
1/2-x,1/2-y,-z
1/2+x,1/2+y,1/2-z
1/2-x,1/2+y,z
1/2+x,1/2-y,1/2+z
loop_
_atom_site_type_symbol
_atom_site_label
_atom_site_fract_x
_atom_site_fract_y
_atom_site_fract_z
Si Si1 0.282404 0.906480 0.750000
Si Si2 0.591530 0.855413 0.146570
Si Si3 0.403044 0.717593 0.451272
Si Si4 0.792586 0.994422 0.941357
Si Si5 0.649923 0.087057 0.365305
Si Si6 0.903725 0.208775 0.932284
Si Si7 0.700021 0.839048 0.250000
O O1 0.330515 0.899597 0.804357
O O2 0.234991 0.787370 0.750000
O O3 0.251357 0.039218 0.750000
O O4 0.500000 0.815304 0.157682
O O5 0.627528 0.791239 0.096658
O O6 0.646279 0.844269 0.197561
O O7 0.589532 0.983727 0.130582
O O8 0.500000 0.709746 0.446059
O O9 0.362373 0.598238 0.446992
O O10 0.387214 0.759534 0.509884
O O11 0.729266 0.952904 0.898044
O O12 0.840194 0.107376 0.926958
O O13 0.754991 0.000000 0.000000
O O14 0.614984 0.198616 0.389760
O O15 0.000000 0.175291 0.930752
#
# Coordination Sequence:
#
# PCOD9474163 Si02
#       7
#     8  16  16  16  16  16   8
#     4  10  24  40  60  88 120 155 195 253 319 353
#     4  10  21  37  59  85 116 154 198 245 296 357
#     4   9  19  36  58  84 120 158 195 243 296 355
#     4  10  22  35  59  88 121 155 201 245 298 358
#     4  11  24  37  60  87 119 155 197 252 298 362
#     4  10  22  39  59  85 122 162 197 241 303 362
#     4  10  21  40  62  86 115 155 201 249 302 369
#
# _framework density 18.989616999999999
#
# number of rings (size 3 to 8) (size 9 to 14) (size 15 to 20)
#    0.000    2.000    0.000    2.250    9.333    3.333 
#    0.000    3.750    0.000    0.000    0.000    0.000 
#    0.000    0.000    0.000    0.000    0.000    0.000 
#
# Total GULP energy -267438.067514 kJ/mol
# GULP energy per Si atom -5571.626407 kJ/mol
# Density = 1.894640 g / cm^3
# Si number density = 18.989617 Si / 1000 Ang^3
#
#
#
# Elastic Constant Matrix: (Units=GPa)
#
#
# Indices 1 2 3 4 5 6 
#
# 1 28.6441 17.1415 23.7918 0.0000 0.0000 0.0000
# 2 17.1415 88.8006 33.8109 0.0000 0.0000 0.0000
# 3 23.7918 33.8109 123.9981 0.0000 0.0000 0.0000
# 4 0.0000 0.0000 0.0000 26.0133 0.0000 0.0000
# 5 0.0000 0.0000 0.0000 0.0000 14.7915 0.0000
# 6 0.0000 0.0000 0.0000 0.0000 0.0000 25.7513
#
#
#
# Elastic Compliance Matrix: (Units=1/GPa)
#
#
# Indices 1 2 3 4 5 6 
#
# 1 0.044145 -0.005910 -0.006859 0.000000 0.000000 0.000000
# 2 -0.005910 0.013357 -0.002508 0.000000 0.000000 0.000000
# 3 -0.006859 -0.002508 0.010065 0.000000 0.000000 0.000000
# 4 0.000000 0.000000 0.000000 0.038442 0.000000 0.000000
# 5 0.000000 0.000000 0.000000 0.000000 0.067606 0.000000
# 6 0.000000 0.000000 0.000000 0.000000 0.000000 0.038833
#
#
# Mechanical properties :
#
#
# Convention : Reuss Voigt Hill
#
# Bulk Modulus (GPa) = 27.01775 43.43680 35.22727
# Shear Modulus (GPa) = 19.58187 24.42448 22.00318
#
# Velocity S-wave (km/s) = 3.21470 3.59026 3.40765
# Velocity P-wave (km/s) = 5.29505 6.33326 5.83728
#
# Compressibility (1/GPa) = 0.03701271
#
# Stress axis : x y z
#
# Youngs Moduli (GPa) = 22.65279 74.86731 99.35892
#
# Poissons Ratio (x) = 0.44246 0.68147
# Poissons Ratio (y) = 0.13388 0.24920
# Poissons Ratio (z) = 0.15537 0.18778
#
# Static dielectric constant tensor:
#      x y z
#    x 1.665780 0.000000 0.000000 
#    y 0.000000 1.683500 0.000000 
#    z 0.000000 0.000000 1.655720 
# 
# From -- ./inp_files/63755.got.cif
#   From: 2010.05.17/outbox.cif.g08.bks.cpg/sg63_32_cif.got.tgz:63755.got - 2010.06.03 15:47:04.
