data_PCOD9474730
_publ_section_title
;
Structure prediction by ZEFSAII (Michael W. Deem and Ramdas Pophale) SiO2 
 PCOD9474730
Probable space group: C M C M
;
_chemical_formula_sum "Si O2"
_cell_formula_units_Z 88
_cell_length_a 17.187974
_cell_length_b 30.535417
_cell_length_c 10.318802
_cell_angle_alpha 90.000000
_cell_angle_beta 90.000000
_cell_angle_gamma 90.000000
_cell_volume 5415.740199
_symmetry_space_group_name_H-M "C M C M"
_symmetry_group_IT_number 63
_symmetry_cell_setting 'orthorhombic'
loop_
_space_group_symop_operation_xyz
x,y,z
-x,-y,1/2+z
x,-y,-z
-x,y,1/2-z
-x,-y,-z
x,y,1/2-z
-x,y,z
x,-y,1/2+z
1/2+x,1/2+y,z
1/2-x,1/2-y,1/2+z
1/2+x,1/2-y,-z
1/2-x,1/2+y,1/2-z
1/2-x,1/2-y,-z
1/2+x,1/2+y,1/2-z
1/2-x,1/2+y,z
1/2+x,1/2-y,1/2+z
loop_
_atom_site_type_symbol
_atom_site_label
_atom_site_fract_x
_atom_site_fract_y
_atom_site_fract_z
Si Si1 0.910543 0.166376 0.250000
Si Si2 0.907709 0.738668 0.250000
Si Si3 0.188993 0.133295 0.006972
Si Si4 0.325754 0.458301 0.597085
Si Si5 0.811638 0.710203 0.001601
Si Si6 0.000000 0.963979 0.891930
Si Si7 0.093385 0.844764 0.250000
Si Si8 0.589170 0.771880 0.250000
O O1 0.864580 0.150507 0.375644
O O2 0.910940 0.218986 0.250000
O O3 0.000000 0.150679 0.250000
O O4 0.865658 0.718228 0.374287
O O5 0.897400 0.791700 0.250000
O O6 0.000000 0.730540 0.250000
O O7 0.261755 0.166025 0.000789
O O8 0.137408 0.136654 0.876460
O O9 0.216657 0.084150 0.040518
O O10 0.318612 0.500000 0.500000
O O11 0.308138 0.467631 0.750000
O O12 0.416527 0.442009 0.595493
O O13 0.865042 0.712775 0.875786
O O14 0.750000 0.750000 0.000000
O O15 0.000000 0.985341 0.750000
O O16 0.000000 0.000000 0.000000
O O17 0.000000 0.854162 0.250000
O O18 0.500000 0.786625 0.250000
#
# Coordination Sequence:
#
# PCOD9474730 Si02
#       8
#     8   8  16  16  16   8   8   8
#     4  11  21  33  54  78 107 147 194 229 268 319
#     4  11  22  38  56  78 115 151 186 229 272 322
#     4  12  23  35  54  78 108 149 184 235 277 322
#     4  10  22  37  53  75 103 139 186 229 275 324
#     4  12  21  36  56  81 114 146 185 229 277 325
#     4   8  16  32  50  66  92 130 172 220 258 296
#     4  11  23  35  48  78 113 149 190 227 270 319
#     4  11  22  38  56  80 111 153 192 227 266 324
#
# _framework density 16.248933000000001
#
# number of rings (size 3 to 8) (size 9 to 14) (size 15 to 20)
#    0.000    1.091    4.545    2.727    3.818    2.909 
#    0.000    0.000    0.000    0.000    0.000    0.000 
#    0.000    4.364    0.000    0.000    0.000    0.000 
#
# Total GULP energy -245539.297934 kJ/mol
# GULP energy per Si atom -5580.438589 kJ/mol
# Density = 1.621195 g / cm^3
# Si number density = 16.248933 Si / 1000 Ang^3
#
#
#
# Elastic Constant Matrix: (Units=GPa)
#
#
# Indices 1 2 3 4 5 6 
#
# 1 97.2552 45.7476 68.9235 0.0000 0.0000 0.0000
# 2 45.7476 109.4633 51.0054 0.0000 0.0000 0.0000
# 3 68.9235 51.0054 170.9301 0.0000 0.0000 0.0000
# 4 0.0000 0.0000 0.0000 5.8123 0.0000 0.0000
# 5 0.0000 0.0000 0.0000 0.0000 23.7551 0.0000
# 6 0.0000 0.0000 0.0000 0.0000 0.0000 20.7040
#
#
#
# Elastic Compliance Matrix: (Units=1/GPa)
#
#
# Indices 1 2 3 4 5 6 
#
# 1 0.015940 -0.004259 -0.005157 0.000000 0.000000 0.000000
# 2 -0.004259 0.011749 -0.001788 0.000000 0.000000 0.000000
# 3 -0.005157 -0.001788 0.008463 0.000000 0.000000 0.000000
# 4 0.000000 0.000000 0.000000 0.172049 0.000000 0.000000
# 5 0.000000 0.000000 0.000000 0.000000 0.042096 0.000000
# 6 0.000000 0.000000 0.000000 0.000000 0.000000 0.048300
#
#
# Mechanical properties :
#
#
# Convention : Reuss Voigt Hill
#
# Bulk Modulus (GPa) = 72.75901 78.77792 75.76847
# Shear Modulus (GPa) = 15.35690 24.18576 19.77133
#
# Velocity S-wave (km/s) = 3.07759 3.86223 3.49202
# Velocity P-wave (km/s) = 7.58312 8.27504 7.93662
#
# Compressibility (1/GPa) = 0.01374400
#
# Stress axis : x y z
#
# Youngs Moduli (GPa) = 62.73536 85.11517 118.15757
#
# Poissons Ratio (x) = 0.36251 0.60928
# Poissons Ratio (y) = 0.26719 0.21132
# Poissons Ratio (z) = 0.32350 0.15223
#
# Static dielectric constant tensor:
#      x y z
#    x 1.544820 0.000000 0.000000 
#    y 0.000000 1.557680 0.000000 
#    z 0.000000 0.000000 1.698160 
# 
# From -- ./inp_files/6966.got.cif
#   From: 2010.05.17/outbox.cif.g08.bks.cpg/sg63_4_cif.got.tgz:6966.got - 2010.06.03 15:47:04.
