data_PCOD9474727
_publ_section_title
;
Structure prediction by ZEFSAII (Michael W. Deem and Ramdas Pophale) SiO2 
 PCOD9474727
Probable space group: C M C M
;
_chemical_formula_sum "Si O2"
_cell_formula_units_Z 96
_cell_length_a 7.610545
_cell_length_b 21.073729
_cell_length_c 28.557457
_cell_angle_alpha 90.000000
_cell_angle_beta 90.000000
_cell_angle_gamma 90.000000
_cell_volume 4580.118143
_symmetry_space_group_name_H-M "C M C M"
_symmetry_group_IT_number 63
_symmetry_cell_setting 'orthorhombic'
loop_
_space_group_symop_operation_xyz
x,y,z
-x,-y,1/2+z
x,-y,-z
-x,y,1/2-z
-x,-y,-z
x,y,1/2-z
-x,y,z
x,-y,1/2+z
1/2+x,1/2+y,z
1/2-x,1/2-y,1/2+z
1/2+x,1/2-y,-z
1/2-x,1/2+y,1/2-z
1/2-x,1/2-y,-z
1/2+x,1/2+y,1/2-z
1/2-x,1/2+y,z
1/2+x,1/2-y,1/2+z
loop_
_atom_site_type_symbol
_atom_site_label
_atom_site_fract_x
_atom_site_fract_y
_atom_site_fract_z
Si Si1 0.286103 0.202842 0.301657
Si Si2 0.783777 0.235532 0.897786
Si Si3 0.287606 0.945004 0.801952
Si Si4 0.703428 0.394350 0.059776
Si Si5 0.795829 0.025601 0.096754
Si Si6 0.701413 0.853312 0.958106
O O1 0.229682 0.224866 0.250000
O O2 0.500000 0.203305 0.302020
O O3 0.227712 0.243113 0.346098
O O4 0.234283 0.129035 0.306688
O O5 0.722084 0.166179 0.912881
O O6 0.726226 0.289379 0.934759
O O7 0.000000 0.236245 0.898716
O O8 0.232255 0.966818 0.750000
O O9 0.500000 0.946894 0.803267
O O10 0.219466 0.981008 0.847370
O O11 0.500000 0.399261 0.074590
O O12 0.779918 0.463219 0.071570
O O13 0.709056 0.377871 0.005078
O O14 0.706543 0.090427 0.079969
O O15 0.000000 0.033199 0.083569
O O16 0.500000 0.840782 0.971125
#
# Coordination Sequence:
#
# PCOD9474727 Si02
#       6
#    16  16  16  16  16  16
#     4   8  13  25  50  80 102 123 161 213 258 295
#     4   9  17  32  53  77 104 133 172 219 261 308
#     4   9  17  32  56  82 105 133 174 220 259 300
#     4  10  22  37  51  73 109 144 172 211 267 319
#     4  11  22  35  52  77 111 144 171 209 262 318
#     4  11  21  35  57  79  99 133 184 229 260 302
#
# _framework density 20.960159000000001
#
# number of rings (size 3 to 8) (size 9 to 14) (size 15 to 20)
#    0.000    2.333    1.667    3.000    0.000    3.667 
#    0.000    1.667    0.000    3.000    0.000    0.000 
#    0.000    0.000    0.000    0.000    0.000    0.000 
#
# Total GULP energy -267974.707389 kJ/mol
# GULP energy per Si atom -5582.806404 kJ/mol
# Density = 2.091245 g / cm^3
# Si number density = 20.960159 Si / 1000 Ang^3
#
#
#
# Elastic Constant Matrix: (Units=GPa)
#
#
# Indices 1 2 3 4 5 6 
#
# 1 44.6131 1.1166 -10.0944 0.0000 0.0000 0.0000
# 2 1.1166 41.3488 -10.5747 0.0000 0.0000 0.0000
# 3 -10.0944 -10.5747 80.8083 0.0000 0.0000 0.0000
# 4 0.0000 0.0000 0.0000 -4.0071 0.0000 0.0000
# 5 0.0000 0.0000 0.0000 0.0000 13.7319 0.0000
# 6 0.0000 0.0000 0.0000 0.0000 0.0000 -1.6547
#
#
#
# Elastic Compliance Matrix: (Units=1/GPa)
#
#
# Indices 1 2 3 4 5 6 
#
# 1 0.023067 0.000118 0.002897 0.000000 0.000000 0.000000
# 2 0.000118 0.025022 0.003289 0.000000 0.000000 0.000000
# 3 0.002897 0.003289 0.013167 0.000000 0.000000 0.000000
# 4 0.000000 0.000000 0.000000 -0.249559 0.000000 0.000000
# 5 0.000000 0.000000 0.000000 0.000000 0.072823 0.000000
# 6 0.000000 0.000000 0.000000 0.000000 0.000000 -0.604343
#
#
# Mechanical properties :
#
#
# Convention : Reuss Voigt Hill
#
# Bulk Modulus (GPa) = 13.53811 14.18503 13.86157
# Shear Modulus (GPa) = -7.06406 14.03555 3.48574
#
# Velocity S-wave (km/s) = -1.83781 2.59053 1.29099
# Velocity P-wave (km/s) = 1.40342 3.96612 2.97487
#
# Compressibility (1/GPa) = 0.07386553
#
# Stress axis : x y z
#
# Youngs Moduli (GPa) = 43.35113 39.96404 75.94588
#
# Poissons Ratio (x) = -0.00471 -0.22001
# Poissons Ratio (y) = -0.00511 -0.24980
# Poissons Ratio (z) = -0.12559 -0.13145
#
# Static dielectric constant tensor:
#      x y z
#    x 1.787190 0.000000 0.000000 
#    y 0.000000 1.734240 0.000000 
#    z 0.000000 0.000000 1.742670 
# 
# From -- ./inp_files/66923.got.cif
#   From: 2010.05.17/outbox.cif.g08.bks.cpg/sg63_34_cif.got.tgz:66923.got - 2010.06.03 15:47:04.
