data_PCOD9474415
_publ_section_title
;
Structure prediction by ZEFSAII (Michael W. Deem and Ramdas Pophale) SiO2 
 PCOD9474415
Probable space group: C M C M
;
_chemical_formula_sum "Si O2"
_cell_formula_units_Z 96
_cell_length_a 14.816790
_cell_length_b 14.879242
_cell_length_c 21.514853
_cell_angle_alpha 90.000000
_cell_angle_beta 90.000000
_cell_angle_gamma 90.000000
_cell_volume 4743.220519
_symmetry_space_group_name_H-M "C M C M"
_symmetry_group_IT_number 63
_symmetry_cell_setting 'orthorhombic'
loop_
_space_group_symop_operation_xyz
x,y,z
-x,-y,1/2+z
x,-y,-z
-x,y,1/2-z
-x,-y,-z
x,y,1/2-z
-x,y,z
x,-y,1/2+z
1/2+x,1/2+y,z
1/2-x,1/2-y,1/2+z
1/2+x,1/2-y,-z
1/2-x,1/2+y,1/2-z
1/2-x,1/2-y,-z
1/2+x,1/2+y,1/2-z
1/2-x,1/2+y,z
1/2+x,1/2-y,1/2+z
loop_
_atom_site_type_symbol
_atom_site_label
_atom_site_fract_x
_atom_site_fract_y
_atom_site_fract_z
Si Si1 0.897203 0.358675 0.152963
Si Si2 0.231292 0.008876 0.678825
Si Si3 0.343305 0.425794 0.452478
Si Si4 0.596036 0.244853 0.409411
Si Si5 0.758324 0.206821 0.320291
Si Si6 0.863227 0.601819 0.987158
O O1 0.827528 0.438189 0.173477
O O2 0.849742 0.263975 0.169972
O O3 0.898969 0.364626 0.078457
O O4 0.000000 0.367397 0.176077
O O5 0.197941 0.026402 0.750000
O O6 0.236868 0.900797 0.671571
O O7 0.174341 0.040753 0.618524
O O8 0.379857 0.500000 0.500000
O O9 0.400581 0.336392 0.448024
O O10 0.245359 0.399002 0.480385
O O11 0.500000 0.237408 0.375802
O O12 0.682629 0.244756 0.365670
O O13 0.606835 0.163140 0.456612
O O14 0.729237 0.223689 0.250000
O O15 0.891041 0.500000 0.000000
#
# Coordination Sequence:
#
# PCOD9474415 Si02
#       6
#    16  16  16  16  16  16
#     4  11  23  40  68 100 130 167 215 272 325 386
#     4  10  22  41  65  91 126 171 211 259 325 389
#     4  10  21  38  64  88 121 166 213 261 315 379
#     4  12  24  38  62  93 126 168 213 259 319 390
#     4  11  24  42  64  91 129 169 214 270 328 387
#     4  10  21  39  63  92 129 163 201 259 328 389
#
# _framework density 20.239412999999999
#
# number of rings (size 3 to 8) (size 9 to 14) (size 15 to 20)
#    0.000    1.333    3.333    4.500    2.333    5.333 
#    0.000    2.500    0.000    1.000    0.000    0.000 
#    0.000    0.000    0.000    0.000    0.000    0.000 
#
# Total GULP energy -267999.190574 kJ/mol
# GULP energy per Si atom -5583.316470 kJ/mol
# Density = 2.019335 g / cm^3
# Si number density = 20.239413 Si / 1000 Ang^3
#
#
#
# Elastic Constant Matrix: (Units=GPa)
#
#
# Indices 1 2 3 4 5 6 
#
# 1 64.1563 49.1418 26.4374 0.0000 0.0000 0.0000
# 2 49.1418 149.0175 38.9129 0.0000 0.0000 0.0000
# 3 26.4374 38.9129 81.8459 0.0000 0.0000 0.0000
# 4 0.0000 0.0000 0.0000 13.6045 0.0000 0.0000
# 5 0.0000 0.0000 0.0000 0.0000 -11.0853 0.0000
# 6 0.0000 0.0000 0.0000 0.0000 0.0000 462.8536
#
#
#
# Elastic Compliance Matrix: (Units=1/GPa)
#
#
# Indices 1 2 3 4 5 6 
#
# 1 0.022042 -0.006176 -0.004183 0.000000 0.000000 0.000000
# 2 -0.006176 0.009393 -0.002471 0.000000 0.000000 0.000000
# 3 -0.004183 -0.002471 0.014744 0.000000 0.000000 0.000000
# 4 0.000000 0.000000 0.000000 0.073505 0.000000 0.000000
# 5 0.000000 0.000000 0.000000 0.000000 -0.090209 0.000000
# 6 0.000000 0.000000 0.000000 0.000000 0.000000 0.002161
#
#
# Mechanical properties :
#
#
# Convention : Reuss Voigt Hill
#
# Bulk Modulus (GPa) = 48.73820 58.22265 53.48042
# Shear Modulus (GPa) = 77.96194 105.10973 91.53583
#
# Velocity S-wave (km/s) = 6.21317 7.21429 6.73236
# Velocity P-wave (km/s) = 8.69508 9.91080 9.32278
#
# Compressibility (1/GPa) = 0.02051779
#
# Stress axis : x y z
#
# Youngs Moduli (GPa) = 45.36866 106.46749 67.82446
#
# Poissons Ratio (x) = 0.65758 0.28373
# Poissons Ratio (y) = 0.28021 0.16756
# Poissons Ratio (z) = 0.18979 0.26303
#
# Static dielectric constant tensor:
#      x y z
#    x 1.731000 0.000000 0.000000 
#    y 0.000000 1.725600 0.000000 
#    z 0.000000 0.000000 1.712760 
# 
# From -- ./inp_files/54152.got.cif
#   From: 2010.05.17/outbox.cif.g08.bks.cpg/sg63_28_cif.got.tgz:54152.got - 2010.06.03 15:47:04.
