data_PCOD9474420
_publ_section_title
;
Structure prediction by ZEFSAII (Michael W. Deem and Ramdas Pophale) SiO2 
 PCOD9474420
Probable space group: C M C M
;
_chemical_formula_sum "Si O2"
_cell_formula_units_Z 112
_cell_length_a 16.115402
_cell_length_b 11.723738
_cell_length_c 27.559837
_cell_angle_alpha 90.000000
_cell_angle_beta 90.000000
_cell_angle_gamma 90.000000
_cell_volume 5206.955816
_symmetry_space_group_name_H-M "C M C M"
_symmetry_group_IT_number 63
_symmetry_cell_setting 'orthorhombic'
loop_
_space_group_symop_operation_xyz
x,y,z
-x,-y,1/2+z
x,-y,-z
-x,y,1/2-z
-x,-y,-z
x,y,1/2-z
-x,y,z
x,-y,1/2+z
1/2+x,1/2+y,z
1/2-x,1/2-y,1/2+z
1/2+x,1/2-y,-z
1/2-x,1/2+y,1/2-z
1/2-x,1/2-y,-z
1/2+x,1/2+y,1/2-z
1/2-x,1/2+y,z
1/2+x,1/2-y,1/2+z
loop_
_atom_site_type_symbol
_atom_site_label
_atom_site_fract_x
_atom_site_fract_y
_atom_site_fract_z
Si Si1 0.909298 0.012860 0.194157
Si Si2 0.408986 0.253436 0.169088
Si Si3 0.093383 0.489854 0.942054
Si Si4 0.675219 0.786859 0.096233
Si Si5 0.096120 0.885018 0.526233
Si Si6 0.730599 0.314406 0.807289
Si Si7 0.852505 0.249703 0.935517
O O1 0.916738 0.048361 0.250000
O O2 0.824919 0.075386 0.178901
O O3 0.000000 0.040519 0.170660
O O4 0.899777 0.877133 0.193131
O O5 0.500000 0.206151 0.181040
O O6 0.329320 0.178169 0.182918
O O7 0.403491 0.282542 0.112021
O O8 0.117128 0.607540 0.916828
O O9 0.154760 0.386053 0.931325
O O10 0.000000 0.455514 0.927151
O O11 0.093651 0.500000 0.000000
O O12 0.638864 0.670023 0.073185
O O13 0.696406 0.776047 0.153136
O O14 0.762252 0.805015 0.068524
O O15 0.104540 0.788170 0.484785
O O16 0.000000 0.906839 0.537606
O O17 0.129642 0.000000 0.500000
O O18 0.720341 0.287044 0.750000
#
# Coordination Sequence:
#
# PCOD9474420 Si02
#       7
#    16  16  16  16  16  16  16
#     4   9  19  37  62  89 120 165 214 262 323 393
#     4  10  21  38  64  93 124 166 216 268 326 390
#     4  11  23  41  64  89 127 175 218 254 309 398
#     4  11  25  39  65  94 128 171 215 261 323 385
#     4  11  24  39  61  95 133 166 206 265 324 383
#     4  10  23  41  62  95 132 167 218 278 330 383
#     4  11  24  39  62  92 131 168 209 263 321 387
#
# _framework density 21.509689000000002
#
# number of rings (size 3 to 8) (size 9 to 14) (size 15 to 20)
#    0.000    1.571    1.429    2.571    4.000    5.429 
#    0.000    0.000    0.000    1.714    0.000    2.000 
#    0.000    0.000    0.000    0.000    0.000    0.000 
#
# Total GULP energy -312393.755308 kJ/mol
# GULP energy per Si atom -5578.459916 kJ/mol
# Density = 2.146073 g / cm^3
# Si number density = 21.509689 Si / 1000 Ang^3
#
#
#
# Elastic Constant Matrix: (Units=GPa)
#
#
# Indices 1 2 3 4 5 6 
#
# 1 130.8047 31.0932 19.6590 0.0000 0.0000 0.0000
# 2 31.0932 60.9644 10.8342 0.0000 0.0000 0.0000
# 3 19.6590 10.8342 108.5116 0.0000 0.0000 0.0000
# 4 0.0000 0.0000 0.0000 24.8376 0.0000 0.0000
# 5 0.0000 0.0000 0.0000 0.0000 14.5191 0.0000
# 6 0.0000 0.0000 0.0000 0.0000 0.0000 15.5365
#
#
#
# Elastic Compliance Matrix: (Units=1/GPa)
#
#
# Indices 1 2 3 4 5 6 
#
# 1 0.008844 -0.004302 -0.001173 0.000000 0.000000 0.000000
# 2 -0.004302 0.018792 -0.001097 0.000000 0.000000 0.000000
# 3 -0.001173 -0.001097 0.009538 0.000000 0.000000 0.000000
# 4 0.000000 0.000000 0.000000 0.040262 0.000000 0.000000
# 5 0.000000 0.000000 0.000000 0.000000 0.068875 0.000000
# 6 0.000000 0.000000 0.000000 0.000000 0.000000 0.064364
#
#
# Mechanical properties :
#
#
# Convention : Reuss Voigt Hill
#
# Bulk Modulus (GPa) = 41.61440 47.05040 44.33240
# Shear Modulus (GPa) = 21.56773 26.89160 24.22966
#
# Velocity S-wave (km/s) = 3.16998 3.53966 3.35991
# Velocity P-wave (km/s) = 5.72601 6.21508 5.97555
#
# Compressibility (1/GPa) = 0.02403015
#
# Stress axis : x y z
#
# Youngs Moduli (GPa) = 113.07236 53.21372 104.84840
#
# Poissons Ratio (x) = 0.22893 0.12296
# Poissons Ratio (y) = 0.48646 0.11500
# Poissons Ratio (z) = 0.13260 0.05837
#
# Static dielectric constant tensor:
#      x y z
#    x 1.804010 0.000000 0.000000 
#    y 0.000000 1.788620 0.000000 
#    z 0.000000 0.000000 1.824040 
# 
# From -- ./inp_files/73394.got.cif
#   From: 2010.05.17/outbox.cif.g08.bks.cpg/sg63_37_cif.got.tgz:73394.got - 2010.06.03 15:47:04.
