data_PCOD9474706
_publ_section_title
;
Structure prediction by ZEFSAII (Michael W. Deem and Ramdas Pophale) SiO2 
 PCOD9474706
Probable space group: C M C M
;
_chemical_formula_sum "Si O2"
_cell_formula_units_Z 48
_cell_length_a 9.472553
_cell_length_b 15.914119
_cell_length_c 14.524915
_cell_angle_alpha 90.000000
_cell_angle_beta 90.000000
_cell_angle_gamma 90.000000
_cell_volume 2189.592237
_symmetry_space_group_name_H-M "C M C M"
_symmetry_group_IT_number 63
_symmetry_cell_setting 'orthorhombic'
loop_
_space_group_symop_operation_xyz
x,y,z
-x,-y,1/2+z
x,-y,-z
-x,y,1/2-z
-x,-y,-z
x,y,1/2-z
-x,y,z
x,-y,1/2+z
1/2+x,1/2+y,z
1/2-x,1/2-y,1/2+z
1/2+x,1/2-y,-z
1/2-x,1/2+y,1/2-z
1/2-x,1/2-y,-z
1/2+x,1/2+y,1/2-z
1/2-x,1/2+y,z
1/2+x,1/2-y,1/2+z
loop_
_atom_site_type_symbol
_atom_site_label
_atom_site_fract_x
_atom_site_fract_y
_atom_site_fract_z
Si Si1 0.249065 0.000000 0.000000
Si Si2 0.500000 0.076880 0.411737
Si Si3 0.000000 0.880636 0.750000
Si Si4 0.000000 0.886854 0.542767
Si Si5 0.500000 0.808855 0.090471
Si Si6 0.699473 0.222055 0.750000
Si Si7 0.500000 0.211033 0.250000
O O1 0.356999 0.022126 0.083258
O O2 0.140468 0.077904 0.994519
O O3 0.500000 0.147178 0.335125
O O4 0.500000 0.871991 0.492643
O O5 0.000000 0.922269 0.649285
O O6 0.865924 0.817132 0.750000
O O7 0.000000 0.786623 0.552065
O O8 0.366864 0.817829 0.158642
O O9 0.864009 0.230813 0.750000
#
# Coordination Sequence:
#
# PCOD9474706 Si02
#       7
#     8   8   4   8   8   8   4
#     4  10  22  36  54  84 118 148 190 236 290 338
#     4  11  23  39  59  86 117 153 192 239 289 340
#     4   8  14  32  58  80 110 152 190 220 274 350
#     4   9  18  36  60  85 113 151 193 232 278 342
#     4   9  19  40  64  81 114 157 193 232 282 341
#     4   8  18  34  57  90 114 144 192 240 282 332
#     4  12  22  34  58  88 114 148 198 234 280 354
#
# _framework density 21.921890999999999
#
# number of rings (size 3 to 8) (size 9 to 14) (size 15 to 20)
#    0.000    3.000    0.000    4.000    0.000    5.333 
#    0.000   11.667    0.000    6.000    0.000    0.000 
#    0.000    0.000    0.000    0.000    0.000    0.000 
#
# Total GULP energy -133898.638244 kJ/mol
# GULP energy per Si atom -5579.109927 kJ/mol
# Density = 2.187200 g / cm^3
# Si number density = 21.921891 Si / 1000 Ang^3
#
#
#
# Elastic Constant Matrix: (Units=GPa)
#
#
# Indices 1 2 3 4 5 6 
#
# 1 196.5981 30.7186 43.3296 0.0000 0.0000 0.0000
# 2 30.7186 76.2010 43.6421 0.0000 0.0000 0.0000
# 3 43.3296 43.6421 116.1666 0.0000 0.0000 0.0000
# 4 0.0000 0.0000 0.0000 -1.6252 0.0000 0.0000
# 5 0.0000 0.0000 0.0000 0.0000 10.4869 0.0000
# 6 0.0000 0.0000 0.0000 0.0000 0.0000 1.3787
#
#
#
# Elastic Compliance Matrix: (Units=1/GPa)
#
#
# Indices 1 2 3 4 5 6 
#
# 1 0.005651 -0.001365 -0.001595 0.000000 0.000000 0.000000
# 2 -0.001365 0.017050 -0.005897 0.000000 0.000000 0.000000
# 3 -0.001595 -0.005897 0.011419 0.000000 0.000000 0.000000
# 4 0.000000 0.000000 0.000000 -0.615305 0.000000 0.000000
# 5 0.000000 0.000000 0.000000 0.000000 0.095357 0.000000
# 6 0.000000 0.000000 0.000000 0.000000 0.000000 0.725305
#
#
# Mechanical properties :
#
#
# Convention : Reuss Voigt Hill
#
# Bulk Modulus (GPa) = 60.94783 69.37182 65.15982
# Shear Modulus (GPa) = 19.03608 20.13310 19.58459
#
# Velocity S-wave (km/s) = 2.94999 3.03380 2.99219
# Velocity P-wave (km/s) = 6.28219 6.63217 6.45955
#
# Compressibility (1/GPa) = 0.01640748
#
# Stress axis : x y z
#
# Youngs Moduli (GPa) = 176.94964 58.64956 87.57607
#
# Poissons Ratio (x) = 0.08003 0.13971
# Poissons Ratio (y) = 0.24146 0.51640
# Poissons Ratio (z) = 0.28228 0.34584
#
# Static dielectric constant tensor:
#      x y z
#    x 1.856170 0.000000 0.000000 
#    y 0.000000 1.804940 0.000000 
#    z 0.000000 0.000000 1.809170 
# 
# From -- ./inp_files/39378.got.cif
#   From: 2010.05.17/outbox.cif.g08.bks.cpg/sg63_20_cif.got.tgz:39378.got - 2010.06.03 15:47:04.
