data_PCOD9474665
_publ_section_title
;
Structure prediction by ZEFSAII (Michael W. Deem and Ramdas Pophale) SiO2 
 PCOD9474665
Probable space group: C M C M
;
_chemical_formula_sum "Si O2"
_cell_formula_units_Z 48
_cell_length_a 18.565475
_cell_length_b 10.866737
_cell_length_c 10.683258
_cell_angle_alpha 90.000000
_cell_angle_beta 90.000000
_cell_angle_gamma 90.000000
_cell_volume 2155.306001
_symmetry_space_group_name_H-M "C M C M"
_symmetry_group_IT_number 63
_symmetry_cell_setting 'orthorhombic'
loop_
_space_group_symop_operation_xyz
x,y,z
-x,-y,1/2+z
x,-y,-z
-x,y,1/2-z
-x,-y,-z
x,y,1/2-z
-x,y,z
x,-y,1/2+z
1/2+x,1/2+y,z
1/2-x,1/2-y,1/2+z
1/2+x,1/2-y,-z
1/2-x,1/2+y,1/2-z
1/2-x,1/2-y,-z
1/2+x,1/2+y,1/2-z
1/2-x,1/2+y,z
1/2+x,1/2-y,1/2+z
loop_
_atom_site_type_symbol
_atom_site_label
_atom_site_fract_x
_atom_site_fract_y
_atom_site_fract_z
Si Si1 0.748455 0.917436 0.750000
Si Si2 0.167535 0.000000 0.000000
Si Si3 0.917893 0.761200 0.986075
Si Si4 0.500000 0.081669 0.120439
Si Si5 0.826711 0.331257 0.250000
O O1 0.686210 0.022188 0.750000
O O2 0.787991 0.957030 0.620773
O O3 0.757859 0.766331 0.750000
O O4 0.118151 0.884522 0.033316
O O5 0.871500 0.703689 0.874386
O O6 0.000000 0.784724 0.940480
O O7 0.930701 0.668242 0.100898
O O8 0.500000 0.013609 0.250000
O O9 0.500000 0.000000 0.000000
#
# Coordination Sequence:
#
# PCOD9474665 Si02
#       5
#     8   8  16   8   8
#     4  10  24  40  64  90 130 178 220 262 326 374
#     4  10  21  42  64  96 129 164 218 274 312 398
#     4   9  21  38  68  94 128 163 210 267 340 375
#     4  10  24  41  60  98 134 167 209 254 335 400
#     4  10  21  46  62  96 131 174 218 272 318 394
#
# _framework density 22.270617999999999
#
# number of rings (size 3 to 8) (size 9 to 14) (size 15 to 20)
#    1.000    1.333    0.000    1.000    4.667    5.333 
#    9.000    1.667    0.000    0.000    0.000    0.000 
#    0.000    0.000    0.000    0.000    0.000    0.000 
#
# Total GULP energy -133684.197363 kJ/mol
# GULP energy per Si atom -5570.174890 kJ/mol
# Density = 2.221993 g / cm^3
# Si number density = 22.270618 Si / 1000 Ang^3
#
#
#
# Elastic Constant Matrix: (Units=GPa)
#
#
# Indices 1 2 3 4 5 6 
#
# 1 19.6245 7.8294 -3.9430 0.0000 0.0000 0.0000
# 2 7.8294 64.1541 21.4257 0.0000 0.0000 0.0000
# 3 -3.9430 21.4257 111.6637 0.0000 0.0000 0.0000
# 4 0.0000 0.0000 0.0000 33.1329 0.0000 0.0000
# 5 0.0000 0.0000 0.0000 0.0000 5.0824 0.0000
# 6 0.0000 0.0000 0.0000 0.0000 0.0000 36.5877
#
#
#
# Elastic Compliance Matrix: (Units=1/GPa)
#
#
# Indices 1 2 3 4 5 6 
#
# 1 0.054772 -0.007832 0.003437 0.000000 0.000000 0.000000
# 2 -0.007832 0.017775 -0.003687 0.000000 0.000000 0.000000
# 3 0.003437 -0.003687 0.009784 0.000000 0.000000 0.000000
# 4 0.000000 0.000000 0.000000 0.030181 0.000000 0.000000
# 5 0.000000 0.000000 0.000000 0.000000 0.196759 0.000000
# 6 0.000000 0.000000 0.000000 0.000000 0.000000 0.027332
#
#
# Mechanical properties :
#
#
# Convention : Reuss Voigt Hill
#
# Bulk Modulus (GPa) = 15.11350 27.34074 21.22712
# Shear Modulus (GPa) = 13.33962 26.30260 19.82111
#
# Velocity S-wave (km/s) = 2.45006 3.44036 2.98654
# Velocity P-wave (km/s) = 3.84769 5.29950 4.63084
#
# Compressibility (1/GPa) = 0.06616601
#
# Stress axis : x y z
#
# Youngs Moduli (GPa) = 18.25751 56.25963 102.20459
#
# Poissons Ratio (x) = 0.44064 -0.35127
# Poissons Ratio (y) = 0.14300 0.37684
# Poissons Ratio (z) = -0.06275 0.20744
#
# Static dielectric constant tensor:
#      x y z
#    x 1.909450 0.000000 0.000000 
#    y 0.000000 1.886080 0.000000 
#    z 0.000000 0.000000 1.772420 
# 
# From -- ./inp_files/20349.got.cif
#   From: 2010.05.17/outbox.cif.g08.bks.cpg/sg63_11_cif.got.tgz:20349.got - 2010.06.03 15:47:04.
