data_PCOD9474766
_publ_section_title
;
Structure prediction by ZEFSAII (Michael W. Deem and Ramdas Pophale) SiO2 
 PCOD9474766
Probable space group: C M C M
;
_chemical_formula_sum "Si O2"
_cell_formula_units_Z 96
_cell_length_a 19.481978
_cell_length_b 15.124037
_cell_length_c 17.350026
_cell_angle_alpha 90.000000
_cell_angle_beta 90.000000
_cell_angle_gamma 90.000000
_cell_volume 5112.118469
_symmetry_space_group_name_H-M "C M C M"
_symmetry_group_IT_number 63
_symmetry_cell_setting 'orthorhombic'
loop_
_space_group_symop_operation_xyz
x,y,z
-x,-y,1/2+z
x,-y,-z
-x,y,1/2-z
-x,-y,-z
x,y,1/2-z
-x,y,z
x,-y,1/2+z
1/2+x,1/2+y,z
1/2-x,1/2-y,1/2+z
1/2+x,1/2-y,-z
1/2-x,1/2+y,1/2-z
1/2-x,1/2-y,-z
1/2+x,1/2+y,1/2-z
1/2-x,1/2+y,z
1/2+x,1/2-y,1/2+z
loop_
_atom_site_type_symbol
_atom_site_label
_atom_site_fract_x
_atom_site_fract_y
_atom_site_fract_z
Si Si1 0.785724 0.972640 0.340927
Si Si2 0.711239 0.699191 0.930528
Si Si3 0.079247 0.078061 0.159840
Si Si4 0.081126 0.404560 0.972920
Si Si5 0.683219 0.135764 0.338281
Si Si6 0.420074 0.717020 0.473391
O O1 0.780831 0.946957 0.250000
O O2 0.763868 0.894485 0.398338
O O3 0.864036 0.003558 0.356331
O O4 0.739299 0.059505 0.351800
O O5 0.712327 0.768686 0.860795
O O6 0.750000 0.750000 0.000000
O O7 0.634124 0.685589 0.962927
O O8 0.087174 0.102499 0.250000
O O9 0.091439 0.161575 0.104163
O O10 0.000000 0.049173 0.148247
O O11 0.120663 0.379788 0.895808
O O12 0.000000 0.411010 0.958856
O O13 0.106039 0.500000 0.000000
O O14 0.091570 0.322986 0.031980
O O15 0.662108 0.132530 0.250000
O O16 0.500000 0.704629 0.495771
#
# Coordination Sequence:
#
# PCOD9474766 Si02
#       6
#    16  16  16  16  16  16
#     4  10  22  39  57  82 114 147 186 232 281 334
#     4  11  23  36  58  83 109 149 190 229 279 340
#     4   9  18  35  58  82 113 149 184 227 281 340
#     4   9  19  36  58  80 110 145 186 236 279 329
#     4  10  22  38  57  81 113 147 185 234 284 336
#     4   9  19  35  54  82 111 141 182 230 281 326
#
# _framework density 18.778907
#
# number of rings (size 3 to 8) (size 9 to 14) (size 15 to 20)
#    0.000    2.333    0.000    1.500    4.667    3.000 
#    0.000    3.333    0.000    6.000    0.000    0.000 
#    0.000    0.000    0.000    0.000    0.000    0.000 
#
# Total GULP energy -267653.796783 kJ/mol
# GULP energy per Si atom -5576.120766 kJ/mol
# Density = 1.873617 g / cm^3
# Si number density = 18.778907 Si / 1000 Ang^3
#
#
#
# Elastic Constant Matrix: (Units=GPa)
#
#
# Indices 1 2 3 4 5 6 
#
# 1 45.5655 23.9178 30.3074 0.0000 0.0000 0.0000
# 2 23.9178 80.3804 47.4006 0.0000 0.0000 0.0000
# 3 30.3074 47.4006 65.5075 0.0000 0.0000 0.0000
# 4 0.0000 0.0000 0.0000 35.1325 0.0000 0.0000
# 5 0.0000 0.0000 0.0000 0.0000 26.0696 0.0000
# 6 0.0000 0.0000 0.0000 0.0000 0.0000 22.6284
#
#
#
# Elastic Compliance Matrix: (Units=1/GPa)
#
#
# Indices 1 2 3 4 5 6 
#
# 1 0.031789 -0.001371 -0.013715 0.000000 0.000000 0.000000
# 2 -0.001371 0.021760 -0.015111 0.000000 0.000000 0.000000
# 3 -0.013715 -0.015111 0.032545 0.000000 0.000000 0.000000
# 4 0.000000 0.000000 0.000000 0.028464 0.000000 0.000000
# 5 0.000000 0.000000 0.000000 0.000000 0.038359 0.000000
# 6 0.000000 0.000000 0.000000 0.000000 0.000000 0.044192
#
#
# Mechanical properties :
#
#
# Convention : Reuss Voigt Hill
#
# Bulk Modulus (GPa) = 38.91169 43.85611 41.38390
# Shear Modulus (GPa) = 18.79220 22.75461 20.77340
#
# Velocity S-wave (km/s) = 3.16683 3.48474 3.32958
# Velocity P-wave (km/s) = 5.84275 6.29252 6.07180
#
# Compressibility (1/GPa) = 0.02569922
#
# Stress axis : x y z
#
# Youngs Moduli (GPa) = 31.45785 45.95658 30.72698
#
# Poissons Ratio (x) = 0.06301 0.42142
# Poissons Ratio (y) = 0.04313 0.46431
# Poissons Ratio (z) = 0.43144 0.69444
#
# Static dielectric constant tensor:
#      x y z
#    x 1.672190 0.000000 0.000000 
#    y 0.000000 1.662310 0.000000 
#    z 0.000000 0.000000 1.623410 
# 
# From -- ./inp_files/35394.got.cif
#   From: 2010.05.17/outbox.cif.g08.bks.cpg/sg63_18_cif.got.tgz:35394.got - 2010.06.03 15:47:04.
