data_PCOD9474391
_publ_section_title
;
Structure prediction by ZEFSAII (Michael W. Deem and Ramdas Pophale) SiO2 
 PCOD9474391
Probable space group: C M C M
;
_chemical_formula_sum "Si O2"
_cell_formula_units_Z 72
_cell_length_a 13.208760
_cell_length_b 16.840445
_cell_length_c 16.033745
_cell_angle_alpha 90.000000
_cell_angle_beta 90.000000
_cell_angle_gamma 90.000000
_cell_volume 3566.568626
_symmetry_space_group_name_H-M "C M C M"
_symmetry_group_IT_number 63
_symmetry_cell_setting 'orthorhombic'
loop_
_space_group_symop_operation_xyz
x,y,z
-x,-y,1/2+z
x,-y,-z
-x,y,1/2-z
-x,-y,-z
x,y,1/2-z
-x,y,z
x,-y,1/2+z
1/2+x,1/2+y,z
1/2-x,1/2-y,1/2+z
1/2+x,1/2-y,-z
1/2-x,1/2+y,1/2-z
1/2-x,1/2-y,-z
1/2+x,1/2+y,1/2-z
1/2-x,1/2+y,z
1/2+x,1/2-y,1/2+z
loop_
_atom_site_type_symbol
_atom_site_label
_atom_site_fract_x
_atom_site_fract_y
_atom_site_fract_z
Si Si1 0.887778 0.398090 0.653573
Si Si2 0.000000 0.891542 0.654557
Si Si3 0.805448 0.792881 0.603681
Si Si4 0.000000 0.070756 0.849776
Si Si5 0.173667 0.500000 0.500000
Si Si6 0.701140 0.645021 0.924436
O O1 0.874370 0.426802 0.750000
O O2 0.795784 0.339415 0.632011
O O3 0.883716 0.463498 0.579979
O O4 0.000000 0.360377 0.649883
O O5 0.901235 0.838430 0.640279
O O6 0.000000 0.912966 0.750000
O O7 0.000000 0.979711 0.613356
O O8 0.780420 0.701441 0.624234
O O9 0.827608 0.802095 0.504896
O O10 0.101095 0.115863 0.878824
O O11 0.000000 0.071422 0.750000
O O12 0.242532 0.430901 0.461641
#
# Coordination Sequence:
#
# PCOD9474391 Si02
#       6
#    16   8  16   8   8  16
#     4  10  21  38  62  91 125 168 215 267 325 387
#     4  11  23  41  63  88 125 167 202 252 318 389
#     4  10  22  40  61  89 122 164 211 258 322 388
#     4  11  23  37  63  95 125 164 214 268 322 385
#     4  10  21  41  64  88 128 171 214 265 324 392
#     4  10  22  39  61  91 122 162 209 267 317 381
#
# _framework density 20.187472
#
# number of rings (size 3 to 8) (size 9 to 14) (size 15 to 20)
#    0.000    1.778    0.000    4.333    1.556    5.778 
#   14.000    0.000    0.000    0.000    0.000    0.000 
#    0.000    0.000    0.000    0.000    0.000    0.000 
#
# Total GULP energy -200584.475754 kJ/mol
# GULP energy per Si atom -5571.790993 kJ/mol
# Density = 2.014152 g / cm^3
# Si number density = 20.187472 Si / 1000 Ang^3
#
#
#
# Elastic Constant Matrix: (Units=GPa)
#
#
# Indices 1 2 3 4 5 6 
#
# 1 160.4688 80.5541 51.0887 0.0000 0.0000 0.0000
# 2 80.5541 137.8373 34.1884 0.0000 0.0000 0.0000
# 3 51.0887 34.1884 106.6011 0.0000 0.0000 0.0000
# 4 0.0000 0.0000 0.0000 10.1703 0.0000 0.0000
# 5 0.0000 0.0000 0.0000 0.0000 32.1627 0.0000
# 6 0.0000 0.0000 0.0000 0.0000 0.0000 24.5538
#
#
#
# Elastic Compliance Matrix: (Units=1/GPa)
#
#
# Indices 1 2 3 4 5 6 
#
# 1 0.009659 -0.004885 -0.003062 0.000000 0.000000 0.000000
# 2 -0.004885 0.010353 -0.000979 0.000000 0.000000 0.000000
# 3 -0.003062 -0.000979 0.011162 0.000000 0.000000 0.000000
# 4 0.000000 0.000000 0.000000 0.098325 0.000000 0.000000
# 5 0.000000 0.000000 0.000000 0.000000 0.031092 0.000000
# 6 0.000000 0.000000 0.000000 0.000000 0.000000 0.040727
#
#
# Mechanical properties :
#
#
# Convention : Reuss Voigt Hill
#
# Bulk Modulus (GPa) = 75.06970 81.84107 78.45539
# Shear Modulus (GPa) = 22.36017 29.31578 25.83797
#
# Velocity S-wave (km/s) = 3.33171 3.81488 3.58145
# Velocity P-wave (km/s) = 7.21578 7.74809 7.48667
#
# Compressibility (1/GPa) = 0.01332095
#
# Stress axis : x y z
#
# Youngs Moduli (GPa) = 103.52911 96.59202 89.58671
#
# Poissons Ratio (x) = 0.47189 0.27435
# Poissons Ratio (y) = 0.50578 0.08770
# Poissons Ratio (z) = 0.31704 0.09456
#
# Static dielectric constant tensor:
#      x y z
#    x 1.696780 0.000000 0.000000 
#    y 0.000000 1.798200 0.000000 
#    z 0.000000 0.000000 1.762820 
# 
# From -- ./inp_files/41945.got.cif
#   From: 2010.05.17/outbox.cif.g08.bks.cpg/sg63_21_cif.got.tgz:41945.got - 2010.06.03 15:47:04.
