data_PCOD9474491
_publ_section_title
;
Structure prediction by ZEFSAII (Michael W. Deem and Ramdas Pophale) SiO2 
 PCOD9474491
Probable space group: C M C M
;
_chemical_formula_sum "Si O2"
_cell_formula_units_Z 64
_cell_length_a 13.099596
_cell_length_b 14.569011
_cell_length_c 12.793100
_cell_angle_alpha 90.000000
_cell_angle_beta 90.000000
_cell_angle_gamma 90.000000
_cell_volume 2441.539573
_symmetry_space_group_name_H-M "C M C M"
_symmetry_group_IT_number 63
_symmetry_cell_setting 'orthorhombic'
loop_
_space_group_symop_operation_xyz
x,y,z
-x,-y,1/2+z
x,-y,-z
-x,y,1/2-z
-x,-y,-z
x,y,1/2-z
-x,y,z
x,-y,1/2+z
1/2+x,1/2+y,z
1/2-x,1/2-y,1/2+z
1/2+x,1/2-y,-z
1/2-x,1/2+y,1/2-z
1/2-x,1/2-y,-z
1/2+x,1/2+y,1/2-z
1/2-x,1/2+y,z
1/2+x,1/2-y,1/2+z
loop_
_atom_site_type_symbol
_atom_site_label
_atom_site_fract_x
_atom_site_fract_y
_atom_site_fract_z
Si Si1 0.830673 0.260990 0.624450
Si Si2 0.106643 0.401106 0.448319
Si Si3 0.616357 0.647131 0.124233
Si Si4 0.174369 0.940581 0.370094
O O1 0.848968 0.273238 0.750000
O O2 0.880955 0.334368 0.548087
O O3 0.709140 0.281465 0.606419
O O4 0.867285 0.158562 0.592381
O O5 0.098823 0.500000 0.500000
O O6 0.205689 0.416342 0.377177
O O7 0.000000 0.378302 0.392374
O O8 0.613221 0.643366 0.250000
O O9 0.500000 0.665364 0.091901
O O10 0.650915 0.543674 0.089999
O O11 0.141047 0.944584 0.250000
#
# Coordination Sequence:
#
# PCOD9474491 Si02
#       4
#    16  16  16  16
#     4  10  21  39  62  86 118 158 198 247 303 356
#     4  11  23  38  58  85 120 160 200 242 292 356
#     4   9  18  35  59  86 115 149 194 246 298 354
#     4  10  21  39  62  86 118 158 198 247 303 356
#
# _framework density 26.212966999999999
#
# number of rings (size 3 to 8) (size 9 to 14) (size 15 to 20)
#    0.000    2.000    2.500    0.750    0.000    3.000 
#    0.000   10.000    0.000    0.000    0.000    0.000 
#    0.000    0.000    0.000    0.000    0.000    0.000 
#
# Total GULP energy -178737.688424 kJ/mol
# GULP energy per Si atom -5585.552763 kJ/mol
# Density = 2.615330 g / cm^3
# Si number density = 26.212967 Si / 1000 Ang^3
#
#
#
# Elastic Constant Matrix: (Units=GPa)
#
#
# Indices 1 2 3 4 5 6 
#
# 1 140.3015 31.4033 9.5033 0.0000 0.0000 0.0000
# 2 31.4033 254.3922 45.6379 0.0000 0.0000 0.0000
# 3 9.5033 45.6379 74.3265 0.0000 0.0000 0.0000
# 4 0.0000 0.0000 0.0000 42.0104 0.0000 0.0000
# 5 0.0000 0.0000 0.0000 0.0000 29.5510 0.0000
# 6 0.0000 0.0000 0.0000 0.0000 0.0000 -791.3147
#
#
#
# Elastic Compliance Matrix: (Units=1/GPa)
#
#
# Indices 1 2 3 4 5 6 
#
# 1 0.007342 -0.000829 -0.000430 0.000000 0.000000 0.000000
# 2 -0.000829 0.004511 -0.002664 0.000000 0.000000 0.000000
# 3 -0.000430 -0.002664 0.015145 0.000000 0.000000 0.000000
# 4 0.000000 0.000000 0.000000 0.023804 0.000000 0.000000
# 5 0.000000 0.000000 0.000000 0.000000 0.033840 0.000000
# 6 0.000000 0.000000 0.000000 0.000000 0.000000 -0.001264
#
#
# Mechanical properties :
#
#
# Convention : Reuss Voigt Hill
#
# Bulk Modulus (GPa) = 52.21214 71.34545 61.77879
# Shear Modulus (GPa) = 51.22542 -118.45228 -33.61343
#
# Velocity S-wave (km/s) = 4.42543 -6.72953 -3.58484
# Velocity P-wave (km/s) = 6.78780 5.75372 2.54646
#
# Compressibility (1/GPa) = 0.01915263
#
# Stress axis : x y z
#
# Youngs Moduli (GPa) = 136.19855 221.66956 66.02931
#
# Poissons Ratio (x) = 0.18383 0.02836
# Poissons Ratio (y) = 0.11295 0.17590
# Poissons Ratio (z) = 0.05851 0.59051
#
# Static dielectric constant tensor:
#      x y z
#    x 2.190070 0.000000 0.000000 
#    y 0.000000 2.061440 0.000000 
#    z 0.000000 0.000000 2.083490 
# 
# From -- ./inp_files/29118.got.cif
#   From: 2010.05.17/outbox.cif.g08.bks.cpg/sg63_15_cif.got.tgz:29118.got - 2010.06.03 15:47:04.
