data_PCOD9474801
_publ_section_title
;
Structure prediction by ZEFSAII (Michael W. Deem and Ramdas Pophale) SiO2 
 PCOD9474801
Probable space group: C M C M
;
_chemical_formula_sum "Si O2"
_cell_formula_units_Z 96
_cell_length_a 23.112281
_cell_length_b 9.704623
_cell_length_c 23.008712
_cell_angle_alpha 90.000000
_cell_angle_beta 90.000000
_cell_angle_gamma 90.000000
_cell_volume 5160.761463
_symmetry_space_group_name_H-M "C M C M"
_symmetry_group_IT_number 63
_symmetry_cell_setting 'orthorhombic'
loop_
_space_group_symop_operation_xyz
x,y,z
-x,-y,1/2+z
x,-y,-z
-x,y,1/2-z
-x,-y,-z
x,y,1/2-z
-x,y,z
x,-y,1/2+z
1/2+x,1/2+y,z
1/2-x,1/2-y,1/2+z
1/2+x,1/2-y,-z
1/2-x,1/2+y,1/2-z
1/2-x,1/2-y,-z
1/2+x,1/2+y,1/2-z
1/2-x,1/2+y,z
1/2+x,1/2-y,1/2+z
loop_
_atom_site_type_symbol
_atom_site_label
_atom_site_fract_x
_atom_site_fract_y
_atom_site_fract_z
Si Si1 0.500000 0.908226 0.441830
Si Si2 0.671088 0.224528 0.125950
Si Si3 0.304236 0.344859 0.750000
Si Si4 0.127989 0.457926 0.431655
Si Si5 0.684061 0.322085 0.250000
Si Si6 0.000000 0.079271 0.438635
Si Si7 0.877116 0.974707 0.431630
Si Si8 0.808516 0.207353 0.121616
O O1 0.560925 0.946087 0.413672
O O2 0.500000 0.742852 0.450176
O O3 0.500000 0.000000 0.500000
O O4 0.654041 0.278420 0.189937
O O5 0.633911 0.315879 0.081586
O O6 0.740413 0.240703 0.119578
O O7 0.658081 0.068010 0.110144
O O8 0.302880 0.512963 0.750000
O O9 0.240925 0.275140 0.750000
O O10 0.329505 0.292332 0.811192
O O11 0.132549 0.500000 0.500000
O O12 0.157959 0.312669 0.419443
O O13 0.000000 0.000000 0.500000
O O14 0.939372 0.031968 0.409980
O O15 0.874509 0.000000 0.500000
O O16 0.824788 0.056408 0.401371
#
# Coordination Sequence:
#
# PCOD9474801 Si02
#       8
#     8  16   8  16   8   8  16  16
#     4  10  22  40  60  83 118 160 209 244 288 359
#     4  11  24  37  61  90 123 160 197 247 301 358
#     4  10  22  38  62  85 118 162 209 246 284 357
#     4  11  24  39  61  90 124 160 199 246 301 361
#     4  10  22  40  60  87 118 160 213 242 288 357
#     4  10  22  38  62  85 114 162 211 242 288 359
#     4  11  22  37  60  88 122 157 200 245 301 358
#     4  11  22  39  60  88 125 157 200 244 301 357
#
# _framework density 18.601906
#
# number of rings (size 3 to 8) (size 9 to 14) (size 15 to 20)
#    0.000    1.333    3.333    2.000   14.000    4.000 
#    0.000    0.000    0.000    6.000    0.000    0.000 
#    0.000    0.000    0.000    0.000    0.000    0.000 
#
# Total GULP energy -267581.637726 kJ/mol
# GULP energy per Si atom -5574.617453 kJ/mol
# Density = 1.855957 g / cm^3
# Si number density = 18.601906 Si / 1000 Ang^3
#
#
#
# Elastic Constant Matrix: (Units=GPa)
#
#
# Indices 1 2 3 4 5 6 
#
# 1 79.9896 -2.4535 14.2844 0.0000 0.0000 0.0000
# 2 -2.4535 41.5095 -11.5747 0.0000 0.0000 0.0000
# 3 14.2844 -11.5747 67.5431 0.0000 0.0000 0.0000
# 4 0.0000 0.0000 0.0000 30.2956 0.0000 0.0000
# 5 0.0000 0.0000 0.0000 0.0000 -6.9128 0.0000
# 6 0.0000 0.0000 0.0000 0.0000 0.0000 28.5980
#
#
#
# Elastic Compliance Matrix: (Units=1/GPa)
#
#
# Indices 1 2 3 4 5 6 
#
# 1 0.012992 0.000002 -0.002747 0.000000 0.000000 0.000000
# 2 0.000002 0.025300 0.004335 0.000000 0.000000 0.000000
# 3 -0.002747 0.004335 0.016129 0.000000 0.000000 0.000000
# 4 0.000000 0.000000 0.000000 0.033008 0.000000 0.000000
# 5 0.000000 0.000000 0.000000 0.000000 -0.144658 0.000000
# 6 0.000000 0.000000 0.000000 0.000000 0.000000 0.034967
#
#
# Mechanical properties :
#
#
# Convention : Reuss Voigt Hill
#
# Bulk Modulus (GPa) = 17.36088 21.06162 19.21125
# Shear Modulus (GPa) = -801.20443 22.98190 -389.11127
#
# Velocity S-wave (km/s) = -20.77609 3.51872 -14.47868
# Velocity P-wave (km/s) = 23.79443 5.27782 16.40609
#
# Compressibility (1/GPa) = 0.05760076
#
# Stress axis : x y z
#
# Youngs Moduli (GPa) = 76.96866 39.52597 61.99894
#
# Poissons Ratio (x) = -0.00007 0.17033
# Poissons Ratio (y) = -0.00014 -0.26878
# Poissons Ratio (z) = 0.21146 -0.17135
#
# Static dielectric constant tensor:
#      x y z
#    x 1.666350 0.000000 0.000000 
#    y 0.000000 1.614910 0.000000 
#    z 0.000000 0.000000 1.634030 
# 
# From -- ./inp_files/65037.got.cif
#   From: 2010.05.17/outbox.cif.g08.bks.cpg/sg63_33_cif.got.tgz:65037.got - 2010.06.03 15:47:04.
