data_PCOD9474936
_publ_section_title
;
Structure prediction by ZEFSAII (Michael W. Deem and Ramdas Pophale) SiO2 
 PCOD9474936
Probable space group: C M C M
;
_chemical_formula_sum "Si O2"
_cell_formula_units_Z 68
_cell_length_a 23.241625
_cell_length_b 16.256502
_cell_length_c 7.963998
_cell_angle_alpha 90.000000
_cell_angle_beta 90.000000
_cell_angle_gamma 90.000000
_cell_volume 3009.017640
_symmetry_space_group_name_H-M "C M C M"
_symmetry_group_IT_number 63
_symmetry_cell_setting 'orthorhombic'
loop_
_space_group_symop_operation_xyz
x,y,z
-x,-y,1/2+z
x,-y,-z
-x,y,1/2-z
-x,-y,-z
x,y,1/2-z
-x,y,z
x,-y,1/2+z
1/2+x,1/2+y,z
1/2-x,1/2-y,1/2+z
1/2+x,1/2-y,-z
1/2-x,1/2+y,1/2-z
1/2-x,1/2-y,-z
1/2+x,1/2+y,1/2-z
1/2-x,1/2+y,z
1/2+x,1/2-y,1/2+z
loop_
_atom_site_type_symbol
_atom_site_label
_atom_site_fract_x
_atom_site_fract_y
_atom_site_fract_z
Si Si1 0.420304 0.372075 0.059654
Si Si2 0.296975 0.405433 0.556220
Si Si3 0.822944 0.593590 0.942801
Si Si4 0.500000 0.426727 0.750000
Si Si5 0.437804 0.178068 0.053030
O O1 0.436566 0.401083 0.250000
O O2 0.437613 0.276723 0.043430
O O3 0.351327 0.373147 0.045463
O O4 0.450201 0.417900 0.903007
O O5 0.290437 0.500000 0.500000
O O6 0.312566 0.400171 0.750000
O O7 0.233065 0.369174 0.533688
O O8 0.806184 0.590894 0.750000
O O9 0.833793 0.500000 0.000000
O O10 0.881490 0.643054 0.966581
O O11 0.434202 0.155764 0.250000
O O12 0.500000 0.148809 0.986812
#
# Coordination Sequence:
#
# PCOD9474936 Si02
#       5
#    16  16  16   4  16
#     4  11  23  41  66  93 128 164 210 256 308 368
#     4  11  22  41  66  90 124 163 206 259 311 367
#     4  11  23  39  62  90 122 161 207 256 311 372
#     4  12  22  40  66  94 124 172 204 254 310 376
#     4  10  22  40  63  88 124 163 202 256 310 366
#
# _framework density 22.598738000000001
#
# number of rings (size 3 to 8) (size 9 to 14) (size 15 to 20)
#    0.000    1.176    2.353    6.000    1.647    1.882 
#    0.000    0.588    0.000    0.000    0.000    0.000 
#    0.000    0.000    0.000    0.000    0.000    0.000 
#
# Total GULP energy -189551.373815 kJ/mol
# GULP energy per Si atom -5575.040406 kJ/mol
# Density = 2.254730 g / cm^3
# Si number density = 22.598738 Si / 1000 Ang^3
#
#
#
# Elastic Constant Matrix: (Units=GPa)
#
#
# Indices 1 2 3 4 5 6 
#
# 1 193.3293 25.2724 28.2121 0.0000 0.0000 0.0000
# 2 25.2724 29.5380 13.5491 0.0000 0.0000 0.0000
# 3 28.2121 13.5491 153.9062 0.0000 0.0000 0.0000
# 4 0.0000 0.0000 0.0000 19.2342 0.0000 0.0000
# 5 0.0000 0.0000 0.0000 0.0000 -49.6190 0.0000
# 6 0.0000 0.0000 0.0000 0.0000 0.0000 -2.8955
#
#
#
# Elastic Compliance Matrix: (Units=1/GPa)
#
#
# Indices 1 2 3 4 5 6 
#
# 1 0.005888 -0.004734 -0.000663 0.000000 0.000000 0.000000
# 2 -0.004734 0.039085 -0.002573 0.000000 0.000000 0.000000
# 3 -0.000663 -0.002573 0.006845 0.000000 0.000000 0.000000
# 4 0.000000 0.000000 0.000000 0.051991 0.000000 0.000000
# 5 0.000000 0.000000 0.000000 0.000000 -0.020154 0.000000
# 6 0.000000 0.000000 0.000000 0.000000 0.000000 -0.345369
#
#
# Mechanical properties :
#
#
# Convention : Reuss Voigt Hill
#
# Bulk Modulus (GPa) = 27.87097 56.76010 42.31553
# Shear Modulus (GPa) = -21.38451 13.99327 -3.69562
#
# Velocity S-wave (km/s) = -3.07949 2.49108 -1.28018
# Velocity P-wave (km/s) = 0.53346 5.78317 4.07188
#
# Compressibility (1/GPa) = 0.03587963
#
# Stress axis : x y z
#
# Youngs Moduli (GPa) = 169.83626 25.58515 146.08258
#
# Poissons Ratio (x) = 0.12112 0.09679
# Poissons Ratio (y) = 0.80397 0.37589
# Poissons Ratio (z) = 0.11253 0.06583
#
# Static dielectric constant tensor:
#      x y z
#    x 1.882820 0.000000 0.000000 
#    y 0.000000 1.840220 0.000000 
#    z 0.000000 0.000000 2.047040 
# 
# From -- ./inp_files/7625.got.cif
#   From: 2010.05.17/outbox.cif.g08.bks.cpg/sg63_4_cif.got.tgz:7625.got - 2010.06.03 15:47:04.
