data_PCOD9474982
_publ_section_title
;
Structure prediction by ZEFSAII (Michael W. Deem and Ramdas Pophale) SiO2 
 PCOD9474982
Probable space group: C M C M
;
_chemical_formula_sum "Si O2"
_cell_formula_units_Z 84
_cell_length_a 12.120135
_cell_length_b 12.994151
_cell_length_c 27.952198
_cell_angle_alpha 90.000000
_cell_angle_beta 90.000000
_cell_angle_gamma 90.000000
_cell_volume 4402.215823
_symmetry_space_group_name_H-M "C M C M"
_symmetry_group_IT_number 63
_symmetry_cell_setting 'orthorhombic'
loop_
_space_group_symop_operation_xyz
x,y,z
-x,-y,1/2+z
x,-y,-z
-x,y,1/2-z
-x,-y,-z
x,y,1/2-z
-x,y,z
x,-y,1/2+z
1/2+x,1/2+y,z
1/2-x,1/2-y,1/2+z
1/2+x,1/2-y,-z
1/2-x,1/2+y,1/2-z
1/2-x,1/2-y,-z
1/2+x,1/2+y,1/2-z
1/2-x,1/2+y,z
1/2+x,1/2-y,1/2+z
loop_
_atom_site_type_symbol
_atom_site_label
_atom_site_fract_x
_atom_site_fract_y
_atom_site_fract_z
Si Si1 0.372017 0.387179 0.750000
Si Si2 0.368995 0.381494 0.498402
Si Si3 0.000000 0.415697 0.355136
Si Si4 0.798634 0.287718 0.930160
Si Si5 0.252561 0.602378 0.750000
Si Si6 0.500000 0.049379 0.750000
Si Si7 0.500000 0.942215 0.948820
Si Si8 0.704304 0.232301 0.831744
O O1 0.500000 0.416680 0.750000
O O2 0.295318 0.487307 0.750000
O O3 0.346357 0.318219 0.703402
O O4 0.333638 0.500000 0.500000
O O5 0.500000 0.376790 0.503439
O O6 0.310053 0.320899 0.540994
O O7 0.334189 0.323758 0.449990
O O8 0.000000 0.487363 0.306213
O O9 0.107304 0.341617 0.351976
O O10 0.000000 0.479550 0.403952
O O11 0.771009 0.282639 0.874689
O O12 0.893640 0.368549 0.943750
O O13 0.282728 0.662967 0.797909
O O14 0.117909 0.606357 0.750000
O O15 0.500000 0.000000 0.000000
#
# Coordination Sequence:
#
# PCOD9474982 Si02
#       8
#     8  16   8  16   8   4   8  16
#     4  11  22  43  67  95 131 172 209 262 328 404
#     4  10  23  43  64  88 126 169 209 267 329 381
#     4  10  22  40  70  93 126 169 217 278 327 379
#     4  11  25  41  64  96 126 164 224 268 319 397
#     4   9  21  41  65  93 128 167 202 268 328 386
#     4   8  18  40  68  92 120 158 228 258 316 392
#     4  12  28  44  65  95 136 176 222 282 337 393
#     4  10  23  40  65  96 124 165 220 263 320 394
#
# _framework density 19.081301
#
# number of rings (size 3 to 8) (size 9 to 14) (size 15 to 20)
#    0.000    1.714    1.905    1.143   16.000    0.000 
#    1.714    1.905    2.095    0.000    0.000    0.000 
#    0.000    0.000    0.000    0.000    0.000    0.000 
#
# Total GULP energy -234292.933681 kJ/mol
# GULP energy per Si atom -5578.403183 kJ/mol
# Density = 1.903787 g / cm^3
# Si number density = 19.081301 Si / 1000 Ang^3
#
#
#
# Elastic Constant Matrix: (Units=GPa)
#
#
# Indices 1 2 3 4 5 6 
#
# 1 56.4277 36.6237 32.9346 0.0000 0.0000 0.0000
# 2 36.6237 85.7318 36.7750 0.0000 0.0000 0.0000
# 3 32.9346 36.7750 142.7966 0.0000 0.0000 0.0000
# 4 0.0000 0.0000 0.0000 34.8213 0.0000 0.0000
# 5 0.0000 0.0000 0.0000 0.0000 16.8994 0.0000
# 6 0.0000 0.0000 0.0000 0.0000 0.0000 8.0398
#
#
#
# Elastic Compliance Matrix: (Units=1/GPa)
#
#
# Indices 1 2 3 4 5 6 
#
# 1 0.026010 -0.009598 -0.003527 0.000000 0.000000 0.000000
# 2 -0.009598 0.016655 -0.002075 0.000000 0.000000 0.000000
# 3 -0.003527 -0.002075 0.008351 0.000000 0.000000 0.000000
# 4 0.000000 0.000000 0.000000 0.028718 0.000000 0.000000
# 5 0.000000 0.000000 0.000000 0.000000 0.059174 0.000000
# 6 0.000000 0.000000 0.000000 0.000000 0.000000 0.124381
#
#
# Mechanical properties :
#
#
# Convention : Reuss Voigt Hill
#
# Bulk Modulus (GPa) = 48.51011 55.29142 51.90077
# Shear Modulus (GPa) = 16.63552 23.86029 20.24790
#
# Velocity S-wave (km/s) = 2.95587 3.54001 3.26105
# Velocity P-wave (km/s) = 6.09324 6.76377 6.43724
#
# Compressibility (1/GPa) = 0.02061426
#
# Stress axis : x y z
#
# Youngs Moduli (GPa) = 38.44668 60.04265 119.74685
#
# Poissons Ratio (x) = 0.57631 0.42236
# Poissons Ratio (y) = 0.36902 0.24853
# Poissons Ratio (z) = 0.13560 0.12462
#
# Static dielectric constant tensor:
#      x y z
#    x 1.653450 0.000000 0.000000 
#    y 0.000000 1.665920 0.000000 
#    z 0.000000 0.000000 1.676460 
# 
# From -- ./inp_files/72668.got.cif
#   From: 2010.05.17/outbox.cif.g08.bks.cpg/sg63_37_cif.got.tgz:72668.got - 2010.06.03 15:47:04.
