data_PCOD9474298
_publ_section_title
;
Structure prediction by ZEFSAII (Michael W. Deem and Ramdas Pophale) SiO2 
 PCOD9474298
Probable space group: C M C M
;
_chemical_formula_sum "Si O2"
_cell_formula_units_Z 96
_cell_length_a 8.687997
_cell_length_b 30.384216
_cell_length_c 19.187796
_cell_angle_alpha 90.000000
_cell_angle_beta 90.000000
_cell_angle_gamma 90.000000
_cell_volume 5065.155580
_symmetry_space_group_name_H-M "C M C M"
_symmetry_group_IT_number 63
_symmetry_cell_setting 'orthorhombic'
loop_
_space_group_symop_operation_xyz
x,y,z
-x,-y,1/2+z
x,-y,-z
-x,y,1/2-z
-x,-y,-z
x,y,1/2-z
-x,y,z
x,-y,1/2+z
1/2+x,1/2+y,z
1/2-x,1/2-y,1/2+z
1/2+x,1/2-y,-z
1/2-x,1/2+y,1/2-z
1/2-x,1/2-y,-z
1/2+x,1/2+y,1/2-z
1/2-x,1/2+y,z
1/2+x,1/2-y,1/2+z
loop_
_atom_site_type_symbol
_atom_site_label
_atom_site_fract_x
_atom_site_fract_y
_atom_site_fract_z
Si Si1 0.183806 0.185799 0.579349
Si Si2 0.814327 0.155967 0.073910
Si Si3 0.682067 0.107174 0.829961
Si Si4 0.185765 0.765118 0.829723
Si Si5 0.183314 0.560540 0.450648
Si Si6 0.316516 0.527037 0.597692
O O1 0.228422 0.180572 0.498375
O O2 0.241032 0.142363 0.619240
O O3 0.253308 0.227365 0.619267
O O4 0.000000 0.188211 0.582609
O O5 0.772052 0.187642 0.137751
O O6 0.736420 0.108383 0.074079
O O7 0.000000 0.150073 0.073455
O O8 0.703147 0.121150 0.750000
O O9 0.500000 0.104858 0.844493
O O10 0.756820 0.059782 0.843261
O O11 0.239010 0.759460 0.750000
O O12 0.000000 0.762435 0.829756
O O13 0.261847 0.549542 0.525071
O O14 0.240540 0.521051 0.401189
O O15 0.000000 0.558661 0.458888
O O16 0.500000 0.523409 0.597828
#
# Coordination Sequence:
#
# PCOD9474298 Si02
#       6
#    16  16  16  16  16  16
#     4  11  22  36  58  86 116 151 194 245 295 350
#     4  10  21  38  59  86 116 151 196 246 295 345
#     4  11  23  38  57  84 120 158 197 243 294 351
#     4  10  22  40  60  82 114 155 196 240 293 352
#     4  11  21  35  59  87 115 150 192 238 291 342
#     4  11  21  36  58  84 117 153 192 238 288 345
#
# _framework density 18.953019999999999
#
# number of rings (size 3 to 8) (size 9 to 14) (size 15 to 20)
#    0.000    1.333    1.667    6.000    0.000    5.000 
#    0.000    0.833    0.000    3.000    0.000    0.000 
#    0.000    0.000    0.000    0.000    0.000    0.000 
#
# Total GULP energy -268299.137298 kJ/mol
# GULP energy per Si atom -5589.565360 kJ/mol
# Density = 1.890988 g / cm^3
# Si number density = 18.953020 Si / 1000 Ang^3
#
#
#
# Elastic Constant Matrix: (Units=GPa)
#
#
# Indices 1 2 3 4 5 6 
#
# 1 34.8250 17.9781 13.0399 0.0000 0.0000 0.0000
# 2 17.9781 115.1671 20.8945 0.0000 0.0000 0.0000
# 3 13.0399 20.8945 36.2517 0.0000 0.0000 0.0000
# 4 0.0000 0.0000 0.0000 17.7751 0.0000 0.0000
# 5 0.0000 0.0000 0.0000 0.0000 20.2470 0.0000
# 6 0.0000 0.0000 0.0000 0.0000 0.0000 31.0480
#
#
#
# Elastic Compliance Matrix: (Units=1/GPa)
#
#
# Indices 1 2 3 4 5 6 
#
# 1 0.034396 -0.003490 -0.010361 0.000000 0.000000 0.000000
# 2 -0.003490 0.010051 -0.004538 0.000000 0.000000 0.000000
# 3 -0.010361 -0.004538 0.033927 0.000000 0.000000 0.000000
# 4 0.000000 0.000000 0.000000 0.056258 0.000000 0.000000
# 5 0.000000 0.000000 0.000000 0.000000 0.049390 0.000000
# 6 0.000000 0.000000 0.000000 0.000000 0.000000 0.032208
#
#
# Mechanical properties :
#
#
# Convention : Reuss Voigt Hill
#
# Bulk Modulus (GPa) = 24.04007 32.22987 28.13497
# Shear Modulus (GPa) = 18.73542 22.76947 20.75244
#
# Velocity S-wave (km/s) = 3.14748 3.46983 3.31258
# Velocity P-wave (km/s) = 5.09121 5.75283 5.43210
#
# Compressibility (1/GPa) = 0.04159722
#
# Stress axis : x y z
#
# Youngs Moduli (GPa) = 29.07307 99.49181 29.47468
#
# Poissons Ratio (x) = 0.34718 0.30539
# Poissons Ratio (y) = 0.10145 0.13375
# Poissons Ratio (z) = 0.30123 0.45149
#
# Static dielectric constant tensor:
#      x y z
#    x 1.636460 0.000000 0.000000 
#    y 0.000000 1.652560 0.000000 
#    z 0.000000 0.000000 1.653530 
# 
# From -- ./inp_files/51252.got.cif
#   From: 2010.05.17/outbox.cif.g08.bks.cpg/sg63_26_cif.got.tgz:51252.got - 2010.06.03 15:47:04.
