data_PCOD9474814
_publ_section_title
;
Structure prediction by ZEFSAII (Michael W. Deem and Ramdas Pophale) SiO2 
 PCOD9474814
Probable space group: C M C M
;
_chemical_formula_sum "Si O2"
_cell_formula_units_Z 80
_cell_length_a 7.575528
_cell_length_b 14.765334
_cell_length_c 31.703883
_cell_angle_alpha 90.000000
_cell_angle_beta 90.000000
_cell_angle_gamma 90.000000
_cell_volume 3546.244210
_symmetry_space_group_name_H-M "C M C M"
_symmetry_group_IT_number 63
_symmetry_cell_setting 'orthorhombic'
loop_
_space_group_symop_operation_xyz
x,y,z
-x,-y,1/2+z
x,-y,-z
-x,y,1/2-z
-x,-y,-z
x,y,1/2-z
-x,y,z
x,-y,1/2+z
1/2+x,1/2+y,z
1/2-x,1/2-y,1/2+z
1/2+x,1/2-y,-z
1/2-x,1/2+y,1/2-z
1/2-x,1/2-y,-z
1/2+x,1/2+y,1/2-z
1/2-x,1/2+y,z
1/2+x,1/2-y,1/2+z
loop_
_atom_site_type_symbol
_atom_site_label
_atom_site_fract_x
_atom_site_fract_y
_atom_site_fract_z
Si Si1 0.288781 0.650400 0.886253
Si Si2 0.285887 0.857478 0.886225
Si Si3 0.703298 0.120609 0.295767
Si Si4 0.709317 0.506762 0.952826
Si Si5 0.290325 0.830906 0.295155
O O1 0.500000 0.653344 0.890374
O O2 0.223779 0.753762 0.889699
O O3 0.216842 0.585513 0.922537
O O4 0.251829 0.618950 0.838412
O O5 0.500000 0.856692 0.883664
O O6 0.219522 0.900178 0.841854
O O7 0.232825 0.915367 0.926346
O O8 0.782611 0.096048 0.250000
O O9 0.500000 0.088345 0.295220
O O10 0.703607 0.231133 0.296676
O O11 0.500000 0.524413 0.957034
O O12 0.782988 0.500000 0.000000
O O13 0.240415 0.873273 0.250000
O O14 0.500000 0.816361 0.294816
#
# Coordination Sequence:
#
# PCOD9474814 Si02
#       5
#    16  16  16  16  16
#     4   9  19  36  55  75 104 140 172 205 254 313
#     4   9  18  33  54  79 105 135 172 210 250 302
#     4   8  14  27  48  73 104 142 174 200 243 304
#     4  10  22  39  56  75 101 133 171 217 266 312
#     4   9  16  26  45  76 108 135 168 210 249 289
#
# _framework density 22.559078
#
# number of rings (size 3 to 8) (size 9 to 14) (size 15 to 20)
#    0.000    3.000    0.000    1.800    0.000    6.400 
#    0.000    1.000    0.000    3.600    0.000    0.000 
#    0.000    0.000    0.000    0.000    0.000    0.000 
#
# Total GULP energy -223100.413217 kJ/mol
# GULP energy per Si atom -5577.510330 kJ/mol
# Density = 2.250773 g / cm^3
# Si number density = 22.559078 Si / 1000 Ang^3
#
#
#
# Elastic Constant Matrix: (Units=GPa)
#
#
# Indices 1 2 3 4 5 6 
#
# 1 54.5896 -3.5453 3.2147 0.0000 0.0000 0.0000
# 2 -3.5453 80.6620 71.1463 0.0000 0.0000 0.0000
# 3 3.2147 71.1463 269.4451 0.0000 0.0000 0.0000
# 4 0.0000 0.0000 0.0000 33.6114 0.0000 0.0000
# 5 0.0000 0.0000 0.0000 0.0000 -667.9877 0.0000
# 6 0.0000 0.0000 0.0000 0.0000 0.0000 3.1167
#
#
#
# Elastic Compliance Matrix: (Units=1/GPa)
#
#
# Indices 1 2 3 4 5 6 
#
# 1 0.018437 0.001309 -0.000566 0.000000 0.000000 0.000000
# 2 0.001309 0.016254 -0.004308 0.000000 0.000000 0.000000
# 3 -0.000566 -0.004308 0.004855 0.000000 0.000000 0.000000
# 4 0.000000 0.000000 0.000000 0.029752 0.000000 0.000000
# 5 0.000000 0.000000 0.000000 0.000000 -0.001497 0.000000
# 6 0.000000 0.000000 0.000000 0.000000 0.000000 0.320851
#
#
# Mechanical properties :
#
#
# Convention : Reuss Voigt Hill
#
# Bulk Modulus (GPa) = 30.84628 60.70312 45.77470
# Shear Modulus (GPa) = 12.29751 -103.99318 -45.84784
#
# Velocity S-wave (km/s) = 2.33732 -6.79693 -4.51304
# Velocity P-wave (km/s) = 4.58119 5.88479 2.61183
#
# Compressibility (1/GPa) = 0.03241882
#
# Stress axis : x y z
#
# Youngs Moduli (GPa) = 54.23923 61.52203 205.95304
#
# Poissons Ratio (x) = -0.08055 0.11651
# Poissons Ratio (y) = -0.07102 0.88715
# Poissons Ratio (z) = 0.03068 0.26501
#
# Static dielectric constant tensor:
#      x y z
#    x 1.844840 0.000000 0.000000 
#    y 0.000000 1.842920 0.000000 
#    z 0.000000 0.000000 1.869970 
# 
# From -- ./inp_files/71566.got.cif
#   From: 2010.05.17/outbox.cif.g08.bks.cpg/sg63_36_cif.got.tgz:71566.got - 2010.06.03 15:47:04.
