data_PCOD9474058
_publ_section_title
;
Structure prediction by ZEFSAII (Michael W. Deem and Ramdas Pophale) SiO2 
 PCOD9474058
Probable space group: C M C M
;
_chemical_formula_sum "Si O2"
_cell_formula_units_Z 96
_cell_length_a 26.063988
_cell_length_b 24.191269
_cell_length_c 8.613069
_cell_angle_alpha 90.000000
_cell_angle_beta 90.000000
_cell_angle_gamma 90.000000
_cell_volume 5430.720405
_symmetry_space_group_name_H-M "C M C M"
_symmetry_group_IT_number 63
_symmetry_cell_setting 'orthorhombic'
loop_
_space_group_symop_operation_xyz
x,y,z
-x,-y,1/2+z
x,-y,-z
-x,y,1/2-z
-x,-y,-z
x,y,1/2-z
-x,y,z
x,-y,1/2+z
1/2+x,1/2+y,z
1/2-x,1/2-y,1/2+z
1/2+x,1/2-y,-z
1/2-x,1/2+y,1/2-z
1/2-x,1/2-y,-z
1/2+x,1/2+y,1/2-z
1/2-x,1/2+y,z
1/2+x,1/2-y,1/2+z
loop_
_atom_site_type_symbol
_atom_site_label
_atom_site_fract_x
_atom_site_fract_y
_atom_site_fract_z
Si Si1 0.441279 0.560607 0.562662
Si Si2 0.656437 0.871292 0.437825
Si Si3 0.808023 0.750362 0.936191
Si Si4 0.746668 0.438017 0.935315
Si Si5 0.941848 0.439035 0.437330
Si Si6 0.846822 0.864822 0.436600
O O1 0.426711 0.500000 0.500000
O O2 0.440705 0.558227 0.750000
O O3 0.500000 0.571970 0.512691
O O4 0.400162 0.606508 0.514079
O O5 0.660529 0.875235 0.250000
O O6 0.665597 0.807565 0.480502
O O7 0.701252 0.908219 0.510638
O O8 0.601403 0.895582 0.485438
O O9 0.805838 0.753650 0.750000
O O10 0.750000 0.750000 0.000000
O O11 0.837714 0.803451 0.000334
O O12 0.743901 0.438942 0.750000
O O13 0.744983 0.500000 0.000000
O O14 0.699444 0.402812 0.002240
O O15 0.929103 0.500000 0.500000
O O16 0.941719 0.441303 0.250000
O O17 0.000000 0.425499 0.488130
O O18 0.844897 0.863611 0.250000
#
# Coordination Sequence:
#
# PCOD9474058 Si02
#       6
#    16  16  16  16  16  16
#     4   9  19  36  58  83 111 145 183 227 280 334
#     4  10  21  37  56  79 109 143 184 228 273 329
#     4  11  22  37  57  80 110 149 190 231 278 329
#     4  12  24  36  54  80 112 144 179 226 279 335
#     4   9  18  34  56  81 109 142 178 221 273 326
#     4  11  22  37  57  81 112 146 186 231 277 332
#
# _framework density 17.677212999999998
#
# number of rings (size 3 to 8) (size 9 to 14) (size 15 to 20)
#    0.000    1.667    1.667    3.500    0.000    5.333 
#    0.000    0.833    0.000    1.000    0.000    0.000 
#    0.000    0.000    0.000    0.000    0.000    0.000 
#
# Total GULP energy -268123.611596 kJ/mol
# GULP energy per Si atom -5585.908575 kJ/mol
# Density = 1.763698 g / cm^3
# Si number density = 17.677213 Si / 1000 Ang^3
#
#
#
# Elastic Constant Matrix: (Units=GPa)
#
#
# Indices 1 2 3 4 5 6 
#
# 1 131.7030 94.9537 32.1804 0.0000 0.0000 0.0000
# 2 94.9537 158.9758 40.0324 0.0000 0.0000 0.0000
# 3 32.1804 40.0324 37.2248 0.0000 0.0000 0.0000
# 4 0.0000 0.0000 0.0000 29.6004 0.0000 0.0000
# 5 0.0000 0.0000 0.0000 0.0000 6.1182 0.0000
# 6 0.0000 0.0000 0.0000 0.0000 0.0000 19.0044
#
#
#
# Elastic Compliance Matrix: (Units=1/GPa)
#
#
# Indices 1 2 3 4 5 6 
#
# 1 0.013799 -0.007183 -0.004204 0.000000 0.000000 0.000000
# 2 -0.007183 0.012366 -0.007088 0.000000 0.000000 0.000000
# 3 -0.004204 -0.007088 0.038121 0.000000 0.000000 0.000000
# 4 0.000000 0.000000 0.000000 0.033783 0.000000 0.000000
# 5 0.000000 0.000000 0.000000 0.000000 0.163446 0.000000
# 6 0.000000 0.000000 0.000000 0.000000 0.000000 0.052619
#
#
# Mechanical properties :
#
#
# Convention : Reuss Voigt Hill
#
# Bulk Modulus (GPa) = 36.58400 73.58186 55.08293
# Shear Modulus (GPa) = 13.88126 21.66040 17.77083
#
# Velocity S-wave (km/s) = 2.80529 3.50427 3.17408
# Velocity P-wave (km/s) = 5.58869 7.62160 6.68290
#
# Compressibility (1/GPa) = 0.02733435
#
# Stress axis : x y z
#
# Youngs Moduli (GPa) = 72.46911 80.86873 26.23212
#
# Poissons Ratio (x) = 0.58090 0.11028
# Poissons Ratio (y) = 0.52057 0.18595
# Poissons Ratio (z) = 0.30466 0.57324
#
# Static dielectric constant tensor:
#      x y z
#    x 1.599950 0.000000 0.000000 
#    y 0.000000 1.572720 0.000000 
#    z 0.000000 0.000000 1.600510 
# 
# From -- ./inp_files/10424.got.cif
#   From: 2010.05.17/outbox.cif.g08.bks.cpg/sg63_6_cif.got.tgz:10424.got - 2010.06.03 15:47:04.
