data_PCOD9474255
_publ_section_title
;
Structure prediction by ZEFSAII (Michael W. Deem and Ramdas Pophale) SiO2 
 PCOD9474255
Probable space group: C M C M
;
_chemical_formula_sum "Si O2"
_cell_formula_units_Z 96
_cell_length_a 19.322414
_cell_length_b 9.147065
_cell_length_c 30.815800
_cell_angle_alpha 90.000000
_cell_angle_beta 90.000000
_cell_angle_gamma 90.000000
_cell_volume 5446.488551
_symmetry_space_group_name_H-M "C M C M"
_symmetry_group_IT_number 63
_symmetry_cell_setting 'orthorhombic'
loop_
_space_group_symop_operation_xyz
x,y,z
-x,-y,1/2+z
x,-y,-z
-x,y,1/2-z
-x,-y,-z
x,y,1/2-z
-x,y,z
x,-y,1/2+z
1/2+x,1/2+y,z
1/2-x,1/2-y,1/2+z
1/2+x,1/2-y,-z
1/2-x,1/2+y,1/2-z
1/2-x,1/2-y,-z
1/2+x,1/2+y,1/2-z
1/2-x,1/2+y,z
1/2+x,1/2-y,1/2+z
loop_
_atom_site_type_symbol
_atom_site_label
_atom_site_fract_x
_atom_site_fract_y
_atom_site_fract_z
Si Si1 0.668302 0.966250 0.126414
Si Si2 0.418403 0.813106 0.199024
Si Si3 0.314236 0.694596 0.613163
Si Si4 0.419545 0.456875 0.639344
Si Si5 0.918207 0.717797 0.936770
Si Si6 0.178113 0.829022 0.011323
O O1 0.629033 0.917190 0.169969
O O2 0.738619 0.874832 0.119967
O O3 0.618636 0.918945 0.086505
O O4 0.684481 0.136992 0.126571
O O5 0.404651 0.822180 0.250000
O O6 0.500000 0.846111 0.191298
O O7 0.407388 0.650157 0.180066
O O8 0.369137 0.593578 0.637962
O O9 0.333399 0.687192 0.562353
O O10 0.500000 0.500831 0.638898
O O11 0.407612 0.352951 0.597106
O O12 0.000000 0.695462 0.941496
O O13 0.881122 0.758295 0.981478
O O14 0.250000 0.750000 0.000000
O O15 0.183280 0.000000 0.000000
#
# Coordination Sequence:
#
# PCOD9474255 Si02
#       6
#    16  16  16  16  16  16
#     4  11  22  38  59  85 119 156 195 241 297 351
#     4   9  19  40  68  91 116 152 189 234 297 364
#     4  12  23  37  59  86 119 159 200 244 295 346
#     4   9  19  37  60  88 117 149 192 239 293 357
#     4  10  21  38  57  81 115 155 199 246 293 344
#     4  12  23  37  58  82 113 159 208 248 289 341
#
# _framework density 17.626035000000002
#
# number of rings (size 3 to 8) (size 9 to 14) (size 15 to 20)
#    0.000    1.500    3.333    4.500    0.000    2.333 
#    0.000    5.000    0.000    2.000    0.000    0.000 
#    0.000    0.000    0.000    0.000    0.000    0.000 
#
# Total GULP energy -268142.658056 kJ/mol
# GULP energy per Si atom -5586.305376 kJ/mol
# Density = 1.758592 g / cm^3
# Si number density = 17.626035 Si / 1000 Ang^3
#
#
#
# Elastic Constant Matrix: (Units=GPa)
#
#
# Indices 1 2 3 4 5 6 
#
# 1 114.8266 78.6643 52.2784 0.0000 0.0000 0.0000
# 2 78.6643 130.6242 49.9222 0.0000 0.0000 0.0000
# 3 52.2784 49.9222 119.8399 0.0000 0.0000 0.0000
# 4 0.0000 0.0000 0.0000 13.1433 0.0000 0.0000
# 5 0.0000 0.0000 0.0000 0.0000 26.6058 0.0000
# 6 0.0000 0.0000 0.0000 0.0000 0.0000 33.2461
#
#
#
# Elastic Compliance Matrix: (Units=1/GPa)
#
#
# Indices 1 2 3 4 5 6 
#
# 1 0.015986 -0.008280 -0.003524 0.000000 0.000000 0.000000
# 2 -0.008280 0.013394 -0.001968 0.000000 0.000000 0.000000
# 3 -0.003524 -0.001968 0.010702 0.000000 0.000000 0.000000
# 4 0.000000 0.000000 0.000000 0.076085 0.000000 0.000000
# 5 0.000000 0.000000 0.000000 0.000000 0.037586 0.000000
# 6 0.000000 0.000000 0.000000 0.000000 0.000000 0.030079
#
#
# Mechanical properties :
#
#
# Convention : Reuss Voigt Hill
#
# Bulk Modulus (GPa) = 79.76085 80.78007 80.27046
# Shear Modulus (GPa) = 23.19619 26.89410 25.04514
#
# Velocity S-wave (km/s) = 3.63163 3.91041 3.77360
# Velocity P-wave (km/s) = 7.93316 8.14358 8.03906
#
# Compressibility (1/GPa) = 0.01253748
#
# Stress axis : x y z
#
# Youngs Moduli (GPa) = 62.55599 74.66125 93.44467
#
# Poissons Ratio (x) = 0.61819 0.32933
# Poissons Ratio (y) = 0.51796 0.18385
# Poissons Ratio (z) = 0.22047 0.14690
#
# Static dielectric constant tensor:
#      x y z
#    x 1.601910 0.000000 0.000000 
#    y 0.000000 1.548190 0.000000 
#    z 0.000000 0.000000 1.543230 
# 
# From -- ./inp_files/70282.got.cif
#   From: 2010.05.17/outbox.cif.g08.bks.cpg/sg63_36_cif.got.tgz:70282.got - 2010.06.03 15:47:04.
