data_PCOD9474571
_publ_section_title
;
Structure prediction by ZEFSAII (Michael W. Deem and Ramdas Pophale) SiO2 
 PCOD9474571
Probable space group: C M C M
;
_chemical_formula_sum "Si O2"
_cell_formula_units_Z 84
_cell_length_a 12.994991
_cell_length_b 14.091317
_cell_length_c 23.217682
_cell_angle_alpha 90.000000
_cell_angle_beta 90.000000
_cell_angle_gamma 90.000000
_cell_volume 4251.541539
_symmetry_space_group_name_H-M "C M C M"
_symmetry_group_IT_number 63
_symmetry_cell_setting 'orthorhombic'
loop_
_space_group_symop_operation_xyz
x,y,z
-x,-y,1/2+z
x,-y,-z
-x,y,1/2-z
-x,-y,-z
x,y,1/2-z
-x,y,z
x,-y,1/2+z
1/2+x,1/2+y,z
1/2-x,1/2-y,1/2+z
1/2+x,1/2-y,-z
1/2-x,1/2+y,1/2-z
1/2-x,1/2-y,-z
1/2+x,1/2+y,1/2-z
1/2-x,1/2+y,z
1/2+x,1/2-y,1/2+z
loop_
_atom_site_type_symbol
_atom_site_label
_atom_site_fract_x
_atom_site_fract_y
_atom_site_fract_z
Si Si1 0.796771 0.848281 0.250000
Si Si2 0.116178 0.106478 0.124173
Si Si3 0.825789 0.712550 0.548437
Si Si4 0.000000 0.715268 0.250000
Si Si5 0.720389 0.047950 0.638220
Si Si6 0.500000 0.944061 0.650446
Si Si7 0.884462 0.804320 0.750000
Si Si8 0.000000 0.392705 0.979912
O O1 0.900324 0.784691 0.250000
O O2 0.780251 0.913850 0.305692
O O3 0.701766 0.775164 0.250000
O O4 0.129739 0.200185 0.085509
O O5 0.125574 0.135804 0.191464
O O6 0.000000 0.068189 0.115386
O O7 0.208813 0.034674 0.111600
O O8 0.750000 0.750000 0.500000
O O9 0.786271 0.635543 0.594373
O O10 0.906178 0.658207 0.509362
O O11 0.000000 0.640895 0.196763
O O12 0.605423 0.007445 0.653170
O O13 0.500000 0.893941 0.588417
O O14 0.000000 0.762290 0.750000
O O15 0.000000 0.500000 0.000000
#
# Coordination Sequence:
#
# PCOD9474571 Si02
#       8
#     8  16  16   4  16   8   8   8
#     4  12  26  43  72 106 144 180 234 287 368 417
#     4  11  24  46  68 101 142 184 231 286 357 428
#     4  12  26  44  70 103 138 187 238 291 348 421
#     4  12  30  48  72 108 142 188 238 302 364 418
#     4  12  26  45  74 103 144 184 239 293 356 426
#     4  12  26  48  78 104 142 184 247 299 353 414
#     4  10  21  39  75  99 133 175 226 284 347 416
#     4  12  24  46  73 104 141 183 239 294 347 414
#
# _framework density 19.757539999999999
#
# number of rings (size 3 to 8) (size 9 to 14) (size 15 to 20)
#    0.000    0.381    4.762    3.429    5.333    0.000 
#    1.714    0.952    0.000    0.000    0.000    0.000 
#    0.000    0.000    0.000    0.000    0.000    0.000 
#
# Total GULP energy -234696.920180 kJ/mol
# GULP energy per Si atom -5588.021909 kJ/mol
# Density = 1.971257 g / cm^3
# Si number density = 19.757540 Si / 1000 Ang^3
#
#
#
# Elastic Constant Matrix: (Units=GPa)
#
#
# Indices 1 2 3 4 5 6 
#
# 1 134.6734 86.0154 33.5348 0.0000 0.0000 0.0000
# 2 86.0154 124.5179 52.5185 0.0000 0.0000 0.0000
# 3 33.5348 52.5185 156.0219 0.0000 0.0000 0.0000
# 4 0.0000 0.0000 0.0000 35.4981 0.0000 0.0000
# 5 0.0000 0.0000 0.0000 0.0000 22.4553 0.0000
# 6 0.0000 0.0000 0.0000 0.0000 0.0000 11.7778
#
#
#
# Elastic Compliance Matrix: (Units=1/GPa)
#
#
# Indices 1 2 3 4 5 6 
#
# 1 0.013298 -0.009301 0.000273 0.000000 0.000000 0.000000
# 2 -0.009301 0.015865 -0.003341 0.000000 0.000000 0.000000
# 3 0.000273 -0.003341 0.007475 0.000000 0.000000 0.000000
# 4 0.000000 0.000000 0.000000 0.028171 0.000000 0.000000
# 5 0.000000 0.000000 0.000000 0.000000 0.044533 0.000000
# 6 0.000000 0.000000 0.000000 0.000000 0.000000 0.084906
#
#
# Mechanical properties :
#
#
# Convention : Reuss Voigt Hill
#
# Bulk Modulus (GPa) = 84.03853 84.37226 84.20539
# Shear Modulus (GPa) = 22.42616 30.15589 26.29103
#
# Velocity S-wave (km/s) = 3.37273 3.91102 3.65181
# Velocity P-wave (km/s) = 7.60226 7.94930 7.77772
#
# Compressibility (1/GPa) = 0.01189930
#
# Stress axis : x y z
#
# Youngs Moduli (GPa) = 75.19880 63.03051 133.77088
#
# Poissons Ratio (x) = 0.58625 -0.03647
# Poissons Ratio (y) = 0.69943 0.44697
# Poissons Ratio (z) = -0.02050 0.21060
#
# Static dielectric constant tensor:
#      x y z
#    x 1.692920 0.000000 0.000000 
#    y 0.000000 1.662660 0.000000 
#    z 0.000000 0.000000 1.591480 
# 
# From -- ./inp_files/61337.got.cif
#   From: 2010.05.17/outbox.cif.g08.bks.cpg/sg63_31_cif.got.tgz:61337.got - 2010.06.03 15:47:04.
