data_PCOD9474653
_publ_section_title
;
Structure prediction by ZEFSAII (Michael W. Deem and Ramdas Pophale) SiO2 
 PCOD9474653
Probable space group: C M C M
;
_chemical_formula_sum "Si O2"
_cell_formula_units_Z 88
_cell_length_a 14.934791
_cell_length_b 11.283123
_cell_length_c 25.787217
_cell_angle_alpha 90.000000
_cell_angle_beta 90.000000
_cell_angle_gamma 90.000000
_cell_volume 4345.431886
_symmetry_space_group_name_H-M "C M C M"
_symmetry_group_IT_number 63
_symmetry_cell_setting 'orthorhombic'
loop_
_space_group_symop_operation_xyz
x,y,z
-x,-y,1/2+z
x,-y,-z
-x,y,1/2-z
-x,-y,-z
x,y,1/2-z
-x,y,z
x,-y,1/2+z
1/2+x,1/2+y,z
1/2-x,1/2-y,1/2+z
1/2+x,1/2-y,-z
1/2-x,1/2+y,1/2-z
1/2-x,1/2-y,-z
1/2+x,1/2+y,1/2-z
1/2-x,1/2+y,z
1/2+x,1/2-y,1/2+z
loop_
_atom_site_type_symbol
_atom_site_label
_atom_site_fract_x
_atom_site_fract_y
_atom_site_fract_z
Si Si1 0.500000 0.117596 0.620068
Si Si2 0.097346 0.948186 0.808258
Si Si3 0.000000 0.776059 0.984385
Si Si4 0.849809 0.834996 0.368564
Si Si5 0.808515 0.132446 0.512539
Si Si6 0.500000 0.839276 0.599467
Si Si7 0.667458 0.202299 0.688580
O O1 0.500000 0.196621 0.567511
O O2 0.588610 0.145693 0.654140
O O3 0.500000 0.979621 0.604692
O O4 0.111971 0.994450 0.750000
O O5 0.165116 0.844201 0.819894
O O6 0.000000 0.887667 0.808341
O O7 0.096097 0.053008 0.848209
O O8 0.907288 0.850547 0.986807
O O9 0.000000 0.701369 0.038750
O O10 0.818289 0.862292 0.426070
O O11 0.764810 0.832873 0.331013
O O12 0.913196 0.720316 0.373243
O O13 0.750000 0.250000 0.500000
O O14 0.772596 0.000000 0.500000
O O15 0.653973 0.179988 0.750000
#
# Coordination Sequence:
#
# PCOD9474653 Si02
#       7
#     8  16   8  16  16   8  16
#     4  12  24  42  71  93 139 171 212 272 344 385
#     4  10  21  41  67  91 123 166 220 272 316 382
#     4  10  24  45  69  98 130 176 222 267 323 400
#     4  11  24  42  68  91 133 170 218 266 331 382
#     4  11  26  43  67 102 137 173 223 272 326 400
#     4  10  25  45  62 103 130 174 214 274 325 404
#     4  11  25  43  64  97 128 171 223 268 327 391
#
# _framework density 20.251151
#
# number of rings (size 3 to 8) (size 9 to 14) (size 15 to 20)
#    0.000    1.273    1.818    2.455    7.636    4.364 
#    0.000    2.727    0.000    0.000    0.000    0.000 
#    0.000    0.000    0.000    0.000    0.000    0.000 
#
# Total GULP energy -245596.414023 kJ/mol
# GULP energy per Si atom -5581.736682 kJ/mol
# Density = 2.020506 g / cm^3
# Si number density = 20.251151 Si / 1000 Ang^3
#
#
#
# Elastic Constant Matrix: (Units=GPa)
#
#
# Indices 1 2 3 4 5 6 
#
# 1 99.1089 28.2636 23.1050 0.0000 0.0000 0.0000
# 2 28.2636 109.7036 46.9290 0.0000 0.0000 0.0000
# 3 23.1050 46.9290 57.8262 0.0000 0.0000 0.0000
# 4 0.0000 0.0000 0.0000 24.9914 0.0000 0.0000
# 5 0.0000 0.0000 0.0000 0.0000 43.8485 0.0000
# 6 0.0000 0.0000 0.0000 0.0000 0.0000 44.0124
#
#
#
# Elastic Compliance Matrix: (Units=1/GPa)
#
#
# Indices 1 2 3 4 5 6 
#
# 1 0.011285 -0.001499 -0.003293 0.000000 0.000000 0.000000
# 2 -0.001499 0.014162 -0.010894 0.000000 0.000000 0.000000
# 3 -0.003293 -0.010894 0.027450 0.000000 0.000000 0.000000
# 4 0.000000 0.000000 0.000000 0.040014 0.000000 0.000000
# 5 0.000000 0.000000 0.000000 0.000000 0.022806 0.000000
# 6 0.000000 0.000000 0.000000 0.000000 0.000000 0.022721
#
#
# Mechanical properties :
#
#
# Convention : Reuss Voigt Hill
#
# Bulk Modulus (GPa) = 46.45656 51.47041 48.96348
# Shear Modulus (GPa) = 28.25111 33.79321 31.02216
#
# Velocity S-wave (km/s) = 3.73907 4.08941 3.91816
# Velocity P-wave (km/s) = 6.45220 6.91151 6.68580
#
# Compressibility (1/GPa) = 0.02152548
#
# Stress axis : x y z
#
# Youngs Moduli (GPa) = 88.61358 70.61140 36.42976
#
# Poissons Ratio (x) = 0.10584 0.11995
# Poissons Ratio (y) = 0.13282 0.39688
# Poissons Ratio (z) = 0.29176 0.76926
#
# Static dielectric constant tensor:
#      x y z
#    x 1.644450 0.000000 0.000000 
#    y 0.000000 1.699750 0.000000 
#    z 0.000000 0.000000 1.686410 
# 
# From -- ./inp_files/62712.got.cif
#   From: 2010.05.17/outbox.cif.g08.bks.cpg/sg63_32_cif.got.tgz:62712.got - 2010.06.03 15:47:04.
