data_PCOD9474711
_publ_section_title
;
Structure prediction by ZEFSAII (Michael W. Deem and Ramdas Pophale) SiO2 
 PCOD9474711
Probable space group: C M C M
;
_chemical_formula_sum "Si O2"
_cell_formula_units_Z 116
_cell_length_a 28.510751
_cell_length_b 12.193276
_cell_length_c 17.039410
_cell_angle_alpha 90.000000
_cell_angle_beta 90.000000
_cell_angle_gamma 90.000000
_cell_volume 5923.571221
_symmetry_space_group_name_H-M "C M C M"
_symmetry_group_IT_number 63
_symmetry_cell_setting 'orthorhombic'
loop_
_space_group_symop_operation_xyz
x,y,z
-x,-y,1/2+z
x,-y,-z
-x,y,1/2-z
-x,-y,-z
x,y,1/2-z
-x,y,z
x,-y,1/2+z
1/2+x,1/2+y,z
1/2-x,1/2-y,1/2+z
1/2+x,1/2-y,-z
1/2-x,1/2+y,1/2-z
1/2-x,1/2-y,-z
1/2+x,1/2+y,1/2-z
1/2-x,1/2+y,z
1/2+x,1/2-y,1/2+z
loop_
_atom_site_type_symbol
_atom_site_label
_atom_site_fract_x
_atom_site_fract_y
_atom_site_fract_z
Si Si1 0.055417 0.772834 0.061398
Si Si2 0.303217 0.420423 0.658803
Si Si3 0.000000 0.278073 0.250000
Si Si4 0.127589 0.597621 0.437689
Si Si5 0.701720 0.976724 0.160377
Si Si6 0.700714 0.774759 0.041764
Si Si7 0.390848 0.455201 0.159494
Si Si8 0.448620 0.666800 0.382153
O O1 0.080306 0.659686 0.084881
O O2 0.082554 0.871130 0.104112
O O3 0.000000 0.775485 0.078229
O O4 0.061842 0.787827 0.967733
O O5 0.312636 0.387756 0.750000
O O6 0.248677 0.450890 0.652941
O O7 0.314043 0.328098 0.594999
O O8 0.335789 0.526576 0.643237
O O9 0.040574 0.261253 0.180910
O O10 0.119039 0.500000 0.500000
O O11 0.156831 0.546386 0.366424
O O12 0.161752 0.686564 0.479564
O O13 0.697902 0.939449 0.250000
O O14 0.706698 0.876331 0.100973
O O15 0.750000 0.750000 0.000000
O O16 0.397063 0.422173 0.250000
O O17 0.412836 0.576101 0.147388
O O18 0.500000 0.608068 0.386924
#
# Coordination Sequence:
#
# PCOD9474711 Si02
#       8
#    16  16   4  16  16  16  16  16
#     4  11  24  38  61  93 121 163 211 265 323 381
#     4  10  22  36  57  89 127 167 208 252 310 381
#     4   8  16  32  62  76 116 166 198 248 314 380
#     4  10  23  43  62  85 117 162 210 264 315 366
#     4  10  22  41  61  85 122 165 209 255 315 378
#     4  11  21  37  62  89 120 159 209 256 311 378
#     4  11  21  35  54  87 127 164 202 252 314 383
#     4   9  17  34  54  80 117 156 200 246 311 378
#
# _framework density 19.582781000000001
#
# number of rings (size 3 to 8) (size 9 to 14) (size 15 to 20)
#    0.414    1.379    2.069    2.069    1.931    2.759 
#    0.000    0.000    1.517    0.000    0.000    0.000 
#    0.000    0.000    0.000    0.000    0.000    0.000 
#
# Total GULP energy -323153.553293 kJ/mol
# GULP energy per Si atom -5571.612988 kJ/mol
# Density = 1.953821 g / cm^3
# Si number density = 19.582781 Si / 1000 Ang^3
#
#
#
# Elastic Constant Matrix: (Units=GPa)
#
#
# Indices 1 2 3 4 5 6 
#
# 1 47.1588 23.4782 21.8529 0.0000 0.0000 0.0000
# 2 23.4782 43.4453 26.6904 0.0000 0.0000 0.0000
# 3 21.8529 26.6904 89.0492 0.0000 0.0000 0.0000
# 4 0.0000 0.0000 0.0000 4.0987 0.0000 0.0000
# 5 0.0000 0.0000 0.0000 0.0000 24.8411 0.0000
# 6 0.0000 0.0000 0.0000 0.0000 0.0000 25.4020
#
#
#
# Elastic Compliance Matrix: (Units=1/GPa)
#
#
# Indices 1 2 3 4 5 6 
#
# 1 0.029664 -0.014167 -0.003033 0.000000 0.000000 0.000000
# 2 -0.014167 0.034978 -0.007007 0.000000 0.000000 0.000000
# 3 -0.003033 -0.007007 0.014074 0.000000 0.000000 0.000000
# 4 0.000000 0.000000 0.000000 0.243980 0.000000 0.000000
# 5 0.000000 0.000000 0.000000 0.000000 0.040256 0.000000
# 6 0.000000 0.000000 0.000000 0.000000 0.000000 0.039367
#
#
# Mechanical properties :
#
#
# Convention : Reuss Voigt Hill
#
# Bulk Modulus (GPa) = 33.00205 35.96627 34.48416
# Shear Modulus (GPa) = 10.84987 18.04382 14.44685
#
# Velocity S-wave (km/s) = 2.35638 3.03877 2.71907
# Velocity P-wave (km/s) = 4.92875 5.54241 5.24456
#
# Compressibility (1/GPa) = 0.03030115
#
# Stress axis : x y z
#
# Youngs Moduli (GPa) = 33.71136 28.58921 71.05096
#
# Poissons Ratio (x) = 0.40502 0.21552
# Poissons Ratio (y) = 0.47759 0.49788
# Poissons Ratio (z) = 0.10226 0.20033
#
# Static dielectric constant tensor:
#      x y z
#    x 1.728730 0.000000 0.000000 
#    y 0.000000 1.675850 0.000000 
#    z 0.000000 0.000000 1.678330 
# 
# From -- ./inp_files/49080.got.cif
#   From: 2010.05.17/outbox.cif.g08.bks.cpg/sg63_25_cif.got.tgz:49080.got - 2010.06.03 15:47:04.
