data_PCOD9474833
_publ_section_title
;
Structure prediction by ZEFSAII (Michael W. Deem and Ramdas Pophale) SiO2 
 PCOD9474833
Probable space group: C M C M
;
_chemical_formula_sum "Si O2"
_cell_formula_units_Z 120
_cell_length_a 28.191026
_cell_length_b 25.056739
_cell_length_c 8.947774
_cell_angle_alpha 90.000000
_cell_angle_beta 90.000000
_cell_angle_gamma 90.000000
_cell_volume 6320.485475
_symmetry_space_group_name_H-M "C M C M"
_symmetry_group_IT_number 63
_symmetry_cell_setting 'orthorhombic'
loop_
_space_group_symop_operation_xyz
x,y,z
-x,-y,1/2+z
x,-y,-z
-x,y,1/2-z
-x,-y,-z
x,y,1/2-z
-x,y,z
x,-y,1/2+z
1/2+x,1/2+y,z
1/2-x,1/2-y,1/2+z
1/2+x,1/2-y,-z
1/2-x,1/2+y,1/2-z
1/2-x,1/2-y,-z
1/2+x,1/2+y,1/2-z
1/2-x,1/2+y,z
1/2+x,1/2-y,1/2+z
loop_
_atom_site_type_symbol
_atom_site_label
_atom_site_fract_x
_atom_site_fract_y
_atom_site_fract_z
Si Si1 0.444971 0.852297 0.929215
Si Si2 0.908835 0.129066 0.429981
Si Si3 0.881836 0.555373 0.570986
Si Si4 0.500000 0.558489 0.070065
Si Si5 0.393817 0.257433 0.071256
Si Si6 0.181424 0.942459 0.571182
Si Si7 0.721078 0.904309 0.427248
Si Si8 0.704953 0.221708 0.572664
O O1 0.439755 0.859152 0.750000
O O2 0.500000 0.859425 0.968064
O O3 0.427810 0.792457 0.965409
O O4 0.412409 0.895326 0.011109
O O5 0.909473 0.135314 0.250000
O O6 0.953149 0.091799 0.472642
O O7 0.911247 0.186797 0.504679
O O8 0.859773 0.099397 0.471073
O O9 0.898538 0.500000 0.500000
O O10 0.884438 0.553425 0.750000
O O11 0.826782 0.564975 0.528226
O O12 0.500000 0.553332 0.250000
O O13 0.500000 0.500000 0.000000
O O14 0.390205 0.261503 0.250000
O O15 0.342660 0.243271 0.002871
O O16 0.181726 0.947196 0.750000
O O17 0.232530 0.922677 0.514712
O O18 0.171267 0.000000 0.500000
O O19 0.729194 0.912917 0.250000
O O20 0.710512 0.841715 0.449992
O O21 0.703219 0.232040 0.750000
O O22 0.750000 0.250000 0.500000
#
# Coordination Sequence:
#
# PCOD9474833 Si02
#       8
#    16  16  16   8  16  16  16  16
#     4  10  23  43  65  91 124 161 204 255 308 367
#     4  10  23  41  61  89 123 162 206 255 310 373
#     4  11  23  41  64  92 122 159 203 251 305 366
#     4  10  22  42  66  92 124 164 211 262 319 374
#     4  11  23  39  63  93 125 162 204 252 307 364
#     4  11  23  38  59  86 119 158 202 251 304 362
#     4  10  22  39  59  86 120 158 202 246 298 361
#     4  11  22  38  60  89 126 164 205 250 299 362
#
# _framework density 18.985883999999999
#
# number of rings (size 3 to 8) (size 9 to 14) (size 15 to 20)
#    0.000    1.467    1.333    3.200    0.933    8.000 
#    0.000    0.000    0.000    0.000    0.000    0.000 
#    0.000    0.000    0.000    0.000    0.000    0.000 
#
# Total GULP energy -335515.582857 kJ/mol
# GULP energy per Si atom -5591.926381 kJ/mol
# Density = 1.894267 g / cm^3
# Si number density = 18.985884 Si / 1000 Ang^3
#
#
#
# Elastic Constant Matrix: (Units=GPa)
#
#
# Indices 1 2 3 4 5 6 
#
# 1 131.6195 72.6666 49.8251 0.0000 0.0000 0.0000
# 2 72.6666 159.1203 66.0841 0.0000 0.0000 0.0000
# 3 49.8251 66.0841 47.5460 0.0000 0.0000 0.0000
# 4 0.0000 0.0000 0.0000 38.0061 0.0000 0.0000
# 5 0.0000 0.0000 0.0000 0.0000 21.3873 0.0000
# 6 0.0000 0.0000 0.0000 0.0000 0.0000 19.6374
#
#
#
# Elastic Compliance Matrix: (Units=1/GPa)
#
#
# Indices 1 2 3 4 5 6 
#
# 1 0.012621 -0.000641 -0.012336 0.000000 0.000000 0.000000
# 2 -0.000641 0.014898 -0.020035 0.000000 0.000000 0.000000
# 3 -0.012336 -0.020035 0.061806 0.000000 0.000000 0.000000
# 4 0.000000 0.000000 0.000000 0.026312 0.000000 0.000000
# 5 0.000000 0.000000 0.000000 0.000000 0.046757 0.000000
# 6 0.000000 0.000000 0.000000 0.000000 0.000000 0.050923
#
#
# Mechanical properties :
#
#
# Convention : Reuss Voigt Hill
#
# Bulk Modulus (GPa) = 42.91461 79.49307 61.20384
# Shear Modulus (GPa) = 17.41512 25.78682 21.60097
#
# Velocity S-wave (km/s) = 3.03193 3.68939 3.37670
# Velocity P-wave (km/s) = 5.90841 7.75302 6.89270
#
# Compressibility (1/GPa) = 0.02330209
#
# Stress axis : x y z
#
# Youngs Moduli (GPa) = 79.23277 67.12332 16.17966
#
# Poissons Ratio (x) = 0.04300 0.19958
# Poissons Ratio (y) = 0.05076 0.32416
# Poissons Ratio (z) = 0.97738 1.34483
#
# Static dielectric constant tensor:
#      x y z
#    x 1.632410 0.000000 0.000000 
#    y 0.000000 1.637190 0.000000 
#    z 0.000000 0.000000 1.635830 
# 
# From -- ./inp_files/13173.got.cif
#   From: 2010.05.17/outbox.cif.g08.bks.cpg/sg63_7_cif.got.tgz:13173.got - 2010.06.03 15:47:04.
