data_PCOD9474719
_publ_section_title
;
Structure prediction by ZEFSAII (Michael W. Deem and Ramdas Pophale) SiO2 
 PCOD9474719
Probable space group: C M C M
;
_chemical_formula_sum "Si O2"
_cell_formula_units_Z 92
_cell_length_a 21.507833
_cell_length_b 17.513068
_cell_length_c 14.129077
_cell_angle_alpha 90.000000
_cell_angle_beta 90.000000
_cell_angle_gamma 90.000000
_cell_volume 5321.973180
_symmetry_space_group_name_H-M "C M C M"
_symmetry_group_IT_number 63
_symmetry_cell_setting 'orthorhombic'
loop_
_space_group_symop_operation_xyz
x,y,z
-x,-y,1/2+z
x,-y,-z
-x,y,1/2-z
-x,-y,-z
x,y,1/2-z
-x,y,z
x,-y,1/2+z
1/2+x,1/2+y,z
1/2-x,1/2-y,1/2+z
1/2+x,1/2-y,-z
1/2-x,1/2+y,1/2-z
1/2-x,1/2-y,-z
1/2+x,1/2+y,1/2-z
1/2-x,1/2+y,z
1/2+x,1/2-y,1/2+z
loop_
_atom_site_type_symbol
_atom_site_label
_atom_site_fract_x
_atom_site_fract_y
_atom_site_fract_z
Si Si1 0.000000 0.080992 0.045965
Si Si2 0.667822 0.054003 0.585991
Si Si3 0.864921 0.119319 0.986739
Si Si4 0.194127 0.004447 0.139855
Si Si5 0.426133 0.084426 0.750000
Si Si6 0.500000 0.366396 0.750000
Si Si7 0.815785 0.267291 0.048120
Si Si8 0.877888 0.242568 0.250000
O O1 0.936453 0.116215 0.012030
O O2 0.000000 0.082196 0.158031
O O3 0.000000 0.000000 0.000000
O O4 0.734079 0.022244 0.625599
O O5 0.612152 0.052837 0.660820
O O6 0.675894 0.141656 0.551755
O O7 0.651550 0.000000 0.500000
O O8 0.854342 0.209458 0.982775
O O9 0.825578 0.074782 0.070558
O O10 0.846348 0.068113 0.896419
O O11 0.183323 0.022509 0.250000
O O12 0.500000 0.070410 0.750000
O O13 0.412260 0.175286 0.750000
O O14 0.564385 0.316933 0.750000
O O15 0.834734 0.240814 0.155569
O O16 0.750000 0.250000 0.000000
#
# Coordination Sequence:
#
# PCOD9474719 Si02
#       8
#     8  16  16  16   8   4  16   8
#     4  12  24  38  56  90 126 164 204 256 306 366
#     4  11  21  39  61  88 120 153 193 253 311 360
#     4  11  23  38  57  89 122 160 207 252 303 363
#     4  11  21  36  58  85 120 158 198 251 305 359
#     4  10  22  38  62  87 115 147 198 249 307 368
#     4  12  22  38  64  82 128 160 218 252 302 354
#     4  11  21  37  60  88 122 153 201 255 307 360
#     4  10  22  36  61  91 112 154 201 262 303 345
#
# _framework density 17.286821
#
# number of rings (size 3 to 8) (size 9 to 14) (size 15 to 20)
#    0.000    1.043    8.261    0.000    2.435    0.348 
#    0.000    0.000    0.000    0.000    0.000    0.000 
#    0.000    0.000    0.000    0.000    0.000    0.000 
#
# Total GULP energy -256099.433663 kJ/mol
# GULP energy per Si atom -5567.378993 kJ/mol
# Density = 1.724748 g / cm^3
# Si number density = 17.286821 Si / 1000 Ang^3
#
#
#
# Elastic Constant Matrix: (Units=GPa)
#
#
# Indices 1 2 3 4 5 6 
#
# 1 146.1696 34.5223 42.8193 0.0000 0.0000 0.0000
# 2 34.5223 85.0645 34.4600 0.0000 0.0000 0.0000
# 3 42.8193 34.4600 96.2387 0.0000 0.0000 0.0000
# 4 0.0000 0.0000 0.0000 -35.2754 0.0000 0.0000
# 5 0.0000 0.0000 0.0000 0.0000 25.5407 0.0000
# 6 0.0000 0.0000 0.0000 0.0000 0.0000 -8.5418
#
#
#
# Elastic Compliance Matrix: (Units=1/GPa)
#
#
# Indices 1 2 3 4 5 6 
#
# 1 0.008193 -0.002162 -0.002871 0.000000 0.000000 0.000000
# 2 -0.002162 0.014321 -0.004166 0.000000 0.000000 0.000000
# 3 -0.002871 -0.004166 0.013160 0.000000 0.000000 0.000000
# 4 0.000000 0.000000 0.000000 -0.028348 0.000000 0.000000
# 5 0.000000 0.000000 0.000000 0.000000 0.039153 0.000000
# 6 0.000000 0.000000 0.000000 0.000000 0.000000 -0.117072
#
#
# Mechanical properties :
#
#
# Convention : Reuss Voigt Hill
#
# Bulk Modulus (GPa) = 57.88454 61.23066 59.55760
# Shear Modulus (GPa) = -107.67404 10.72279 -48.47562
#
# Velocity S-wave (km/s) = -7.90076 2.49326 -5.30121
# Velocity P-wave (km/s) = 7.04783 6.61708 1.71553
#
# Compressibility (1/GPa) = 0.01727577
#
# Stress axis : x y z
#
# Youngs Moduli (GPa) = 122.05439 69.82844 75.98778
#
# Poissons Ratio (x) = 0.15096 0.21818
# Poissons Ratio (y) = 0.26387 0.31656
# Poissons Ratio (z) = 0.35045 0.29090
#
# Static dielectric constant tensor:
#      x y z
#    x 1.581320 0.000000 0.000000 
#    y 0.000000 1.511450 0.000000 
#    z 0.000000 0.000000 1.587740 
# 
# From -- ./inp_files/35586.got.cif
#   From: 2010.05.17/outbox.cif.g08.bks.cpg/sg63_18_cif.got.tgz:35586.got - 2010.06.03 15:47:04.
