data_PCOD9474028
_publ_section_title
;
Structure prediction by ZEFSAII (Michael W. Deem and Ramdas Pophale) SiO2 
 PCOD9474028
Probable space group: C M C M
;
_chemical_formula_sum "Si O2"
_cell_formula_units_Z 96
_cell_length_a 24.369610
_cell_length_b 22.106463
_cell_length_c 7.360090
_cell_angle_alpha 90.000000
_cell_angle_beta 90.000000
_cell_angle_gamma 90.000000
_cell_volume 3965.070975
_symmetry_space_group_name_H-M "C M C M"
_symmetry_group_IT_number 63
_symmetry_cell_setting 'orthorhombic'
loop_
_space_group_symop_operation_xyz
x,y,z
-x,-y,1/2+z
x,-y,-z
-x,y,1/2-z
-x,-y,-z
x,y,1/2-z
-x,y,z
x,-y,1/2+z
1/2+x,1/2+y,z
1/2-x,1/2-y,1/2+z
1/2+x,1/2-y,-z
1/2-x,1/2+y,1/2-z
1/2-x,1/2-y,-z
1/2+x,1/2+y,1/2-z
1/2-x,1/2+y,z
1/2+x,1/2-y,1/2+z
loop_
_atom_site_type_symbol
_atom_site_label
_atom_site_fract_x
_atom_site_fract_y
_atom_site_fract_z
Si Si1 0.000000 0.415633 0.959825
Si Si2 0.666594 0.350727 0.972632
Si Si3 0.061586 0.928450 0.532934
Si Si4 0.618778 0.088637 0.039558
Si Si5 0.881025 0.730071 0.969141
Si Si6 0.762681 0.434258 0.533566
Si Si7 0.500000 0.773491 0.030988
O O1 0.059717 0.430415 0.041447
O O2 0.000000 0.435689 0.750000
O O3 0.000000 0.342455 0.962551
O O4 0.666519 0.351827 0.750000
O O5 0.613030 0.388879 0.032057
O O6 0.661175 0.281009 0.028774
O O7 0.721917 0.383074 0.035066
O O8 0.059842 0.919350 0.750000
O O9 0.000000 0.913417 0.464007
O O10 0.070691 0.000000 0.500000
O O11 0.616549 0.069823 0.250000
O O12 0.675653 0.066259 0.956701
O O13 0.623973 0.161738 0.036059
O O14 0.879134 0.726097 0.750000
O O15 0.941914 0.753696 0.022296
O O16 0.737508 0.500000 0.500000
O O17 0.767827 0.425414 0.750000
O O18 0.500000 0.775858 0.250000
#
# Coordination Sequence:
#
# PCOD9474028 Si02
#       7
#     8  16  16  16  16  16   8
#     4   8  14  28  49  69  93 125 153 182 232 290
#     4   9  18  31  48  71  98 128 161 199 240 283
#     4   9  17  29  46  66  91 125 164 204 243 278
#     4   9  18  33  52  73  99 128 158 194 241 293
#     4   9  17  29  48  74 101 129 160 196 236 285
#     4  10  21  37  54  71  94 127 165 203 243 289
#     4   8  14  24  42  69  98 125 156 190 225 270
#
# _framework density 24.211421000000001
#
# number of rings (size 3 to 8) (size 9 to 14) (size 15 to 20)
#    0.000    3.000    0.000    0.500    1.167    1.333 
#    0.000    2.083    0.000    0.000    0.000    0.000 
#    0.000    0.000    0.000    0.000    0.000    0.000 
#
# Total GULP energy -267973.078504 kJ/mol
# GULP energy per Si atom -5582.772469 kJ/mol
# Density = 2.415632 g / cm^3
# Si number density = 24.211421 Si / 1000 Ang^3
#
#
#
# Elastic Constant Matrix: (Units=GPa)
#
#
# Indices 1 2 3 4 5 6 
#
# 1 119.0276 56.9379 15.0468 0.0000 0.0000 0.0000
# 2 56.9379 88.3782 -13.8339 0.0000 0.0000 0.0000
# 3 15.0468 -13.8339 89.5257 0.0000 0.0000 0.0000
# 4 0.0000 0.0000 0.0000 40.3963 0.0000 0.0000
# 5 0.0000 0.0000 0.0000 0.0000 -10.5946 0.0000
# 6 0.0000 0.0000 0.0000 0.0000 0.0000 52.1106
#
#
#
# Elastic Compliance Matrix: (Units=1/GPa)
#
#
# Indices 1 2 3 4 5 6 
#
# 1 0.013197 -0.009069 -0.003619 0.000000 0.000000 0.000000
# 2 -0.009069 0.017827 0.004279 0.000000 0.000000 0.000000
# 3 -0.003619 0.004279 0.012440 0.000000 0.000000 0.000000
# 4 0.000000 0.000000 0.000000 0.024755 0.000000 0.000000
# 5 0.000000 0.000000 0.000000 0.000000 -0.094387 0.000000
# 6 0.000000 0.000000 0.000000 0.000000 0.000000 0.019190
#
#
# Mechanical properties :
#
#
# Convention : Reuss Voigt Hill
#
# Bulk Modulus (GPa) = 37.52979 45.91481 41.72230
# Shear Modulus (GPa) = 267.06926 32.30115 149.68520
#
# Velocity S-wave (km/s) = 10.51411 3.65654 7.87137
# Velocity P-wave (km/s) = 12.76440 6.06896 9.99405
#
# Compressibility (1/GPa) = 0.02664550
#
# Stress axis : x y z
#
# Youngs Moduli (GPa) = 75.77414 56.09336 80.38906
#
# Poissons Ratio (x) = 0.50870 0.29096
# Poissons Ratio (y) = 0.68718 -0.34398
# Poissons Ratio (z) = 0.27426 -0.24002
#
# Static dielectric constant tensor:
#      x y z
#    x 1.952670 0.000000 0.000000 
#    y 0.000000 1.881560 0.000000 
#    z 0.000000 0.000000 1.903200 
# 
# From -- ./inp_files/10576.got.cif
#   From: 2010.05.17/outbox.cif.g08.bks.cpg/sg63_6_cif.got.tgz:10576.got - 2010.06.03 15:47:04.
