data_PCOD9474703
_publ_section_title
;
Structure prediction by ZEFSAII (Michael W. Deem and Ramdas Pophale) SiO2 
 PCOD9474703
Probable space group: C M C M
;
_chemical_formula_sum "Si O2"
_cell_formula_units_Z 56
_cell_length_a 12.591794
_cell_length_b 8.879752
_cell_length_c 21.018380
_cell_angle_alpha 90.000000
_cell_angle_beta 90.000000
_cell_angle_gamma 90.000000
_cell_volume 2350.107272
_symmetry_space_group_name_H-M "C M C M"
_symmetry_group_IT_number 63
_symmetry_cell_setting 'orthorhombic'
loop_
_space_group_symop_operation_xyz
x,y,z
-x,-y,1/2+z
x,-y,-z
-x,y,1/2-z
-x,-y,-z
x,y,1/2-z
-x,y,z
x,-y,1/2+z
1/2+x,1/2+y,z
1/2-x,1/2-y,1/2+z
1/2+x,1/2-y,-z
1/2-x,1/2+y,1/2-z
1/2-x,1/2-y,-z
1/2+x,1/2+y,1/2-z
1/2-x,1/2+y,z
1/2+x,1/2-y,1/2+z
loop_
_atom_site_type_symbol
_atom_site_label
_atom_site_fract_x
_atom_site_fract_y
_atom_site_fract_z
Si Si1 0.377982 0.073679 0.569459
Si Si2 0.500000 0.947667 0.750000
Si Si3 0.000000 0.809418 0.358767
Si Si4 0.717281 0.219099 0.117212
Si Si5 0.318026 0.202255 0.750000
Si Si6 0.500000 0.447502 0.750000
O O1 0.500000 0.090180 0.591369
O O2 0.309668 0.956259 0.611300
O O3 0.379518 0.000000 0.500000
O O4 0.314923 0.229105 0.573969
O O5 0.500000 0.835535 0.810697
O O6 0.395348 0.055669 0.750000
O O7 0.105878 0.797784 0.400027
O O8 0.000000 0.951271 0.312775
O O9 0.746296 0.275098 0.187910
O O10 0.398080 0.342313 0.750000
#
# Coordination Sequence:
#
# PCOD9474703 Si02
#       6
#    16   4   8  16   8   4
#     4  11  26  49  74 100 137 187 241 292 342 403
#     4  10  22  40  64  96 146 188 218 270 332 432
#     4  11  22  38  62  94 140 182 220 273 344 402
#     4  12  24  44  70 103 139 184 225 289 347 421
#     4  11  24  37  66 103 137 180 223 275 355 418
#     4  10  22  36  52  94 140 170 226 264 326 428
#
# _framework density 23.828699
#
# number of rings (size 3 to 8) (size 9 to 14) (size 15 to 20)
#    0.000    0.857    1.429    6.000    4.000    3.429 
#    2.571    0.714    0.000    0.000    0.000    0.000 
#    0.000    0.000    0.000    0.000    0.000    0.000 
#
# Total GULP energy -156834.236179 kJ/mol
# GULP energy per Si atom -5601.222721 kJ/mol
# Density = 2.377446 g / cm^3
# Si number density = 23.828699 Si / 1000 Ang^3
#
#
#
# Elastic Constant Matrix: (Units=GPa)
#
#
# Indices 1 2 3 4 5 6 
#
# 1 170.3579 61.3763 21.8239 0.0000 0.0000 0.0000
# 2 61.3763 101.7076 5.5400 0.0000 0.0000 0.0000
# 3 21.8239 5.5400 55.1278 0.0000 0.0000 0.0000
# 4 0.0000 0.0000 0.0000 17.3549 0.0000 0.0000
# 5 0.0000 0.0000 0.0000 0.0000 28.2894 0.0000
# 6 0.0000 0.0000 0.0000 0.0000 0.0000 28.2608
#
#
#
# Elastic Compliance Matrix: (Units=1/GPa)
#
#
# Indices 1 2 3 4 5 6 
#
# 1 0.007868 -0.004604 -0.002652 0.000000 0.000000 0.000000
# 2 -0.004604 0.012580 0.000558 0.000000 0.000000 0.000000
# 3 -0.002652 0.000558 0.019134 0.000000 0.000000 0.000000
# 4 0.000000 0.000000 0.000000 0.057621 0.000000 0.000000
# 5 0.000000 0.000000 0.000000 0.000000 0.035349 0.000000
# 6 0.000000 0.000000 0.000000 0.000000 0.000000 0.035385
#
#
# Mechanical properties :
#
#
# Convention : Reuss Voigt Hill
#
# Bulk Modulus (GPa) = 38.18780 56.07487 47.13133
# Shear Modulus (GPa) = 26.30743 30.67788 28.49266
#
# Velocity S-wave (km/s) = 3.32629 3.59198 3.46168
# Velocity P-wave (km/s) = 5.55095 6.38644 5.98330
#
# Compressibility (1/GPa) = 0.02618638
#
# Stress axis : x y z
#
# Youngs Moduli (GPa) = 127.09046 79.49201 52.26419
#
# Poissons Ratio (x) = 0.36596 0.13862
# Poissons Ratio (y) = 0.58510 -0.02918
# Poissons Ratio (z) = 0.33708 -0.04438
#
# Static dielectric constant tensor:
#      x y z
#    x 1.934600 0.000000 0.000000 
#    y 0.000000 1.905990 0.000000 
#    z 0.000000 0.000000 1.950590 
# 
# From -- ./inp_files/62327.got.cif
#   From: 2010.05.17/outbox.cif.g08.bks.cpg/sg63_32_cif.got.tgz:62327.got - 2010.06.03 15:47:04.
