data_PCOD9474390
_publ_section_title
;
Structure prediction by ZEFSAII (Michael W. Deem and Ramdas Pophale) SiO2 
 PCOD9474390
Probable space group: C M C M
;
_chemical_formula_sum "Si O2"
_cell_formula_units_Z 112
_cell_length_a 16.921570
_cell_length_b 14.282645
_cell_length_c 22.527456
_cell_angle_alpha 90.000000
_cell_angle_beta 90.000000
_cell_angle_gamma 90.000000
_cell_volume 5444.543183
_symmetry_space_group_name_H-M "C M C M"
_symmetry_group_IT_number 63
_symmetry_cell_setting 'orthorhombic'
loop_
_space_group_symop_operation_xyz
x,y,z
-x,-y,1/2+z
x,-y,-z
-x,y,1/2-z
-x,-y,-z
x,y,1/2-z
-x,y,z
x,-y,1/2+z
1/2+x,1/2+y,z
1/2-x,1/2-y,1/2+z
1/2+x,1/2-y,-z
1/2-x,1/2+y,1/2-z
1/2-x,1/2-y,-z
1/2+x,1/2+y,1/2-z
1/2-x,1/2+y,z
1/2+x,1/2-y,1/2+z
loop_
_atom_site_type_symbol
_atom_site_label
_atom_site_fract_x
_atom_site_fract_y
_atom_site_fract_z
Si Si1 0.090834 0.653455 0.591853
Si Si2 0.342108 0.501377 0.817379
Si Si3 0.093467 0.061727 0.557093
Si Si4 0.658631 0.757226 0.982513
Si Si5 0.196325 0.630083 0.181204
Si Si6 0.593462 0.061135 0.081749
Si Si7 0.768367 0.682612 0.817739
O O1 0.106667 0.731466 0.542210
O O2 0.104239 0.548068 0.565362
O O3 0.154942 0.669996 0.642502
O O4 0.000000 0.655770 0.611954
O O5 0.378757 0.496934 0.750000
O O6 0.391008 0.515442 0.878095
O O7 0.283211 0.414412 0.825074
O O8 0.282195 0.588751 0.816463
O O9 0.133645 0.163508 0.551660
O O10 0.000000 0.074618 0.550717
O O11 0.121233 0.000000 0.500000
O O12 0.640429 0.856094 0.950833
O O13 0.750000 0.750000 0.000000
O O14 0.174947 0.631074 0.250000
O O15 0.130024 0.572196 0.147200
O O16 0.209930 0.735856 0.160107
O O17 0.500000 0.081143 0.077817
O O18 0.790953 0.706562 0.750000
#
# Coordination Sequence:
#
# PCOD9474390 Si02
#       7
#    16  16  16  16  16  16  16
#     4  11  23  39  62  91 125 163 202 260 333 393
#     4  10  21  41  66  92 128 168 217 269 315 385
#     4  11  26  44  64  94 132 171 215 270 324 383
#     4  12  26  41  64  90 123 168 213 266 315 389
#     4  10  21  38  62  91 125 164 210 259 312 378
#     4  11  23  39  63  94 128 161 204 264 329 391
#     4  10  21  39  61  91 124 164 216 264 314 378
#
# _framework density 20.571055000000001
#
# number of rings (size 3 to 8) (size 9 to 14) (size 15 to 20)
#    0.000    1.286    1.429    4.286    4.000    2.000 
#    0.000    1.429    0.000    6.857    0.000    0.000 
#    0.000    0.000    0.000    0.000    0.000    0.000 
#
# Total GULP energy -312571.970463 kJ/mol
# GULP energy per Si atom -5581.642330 kJ/mol
# Density = 2.052423 g / cm^3
# Si number density = 20.571055 Si / 1000 Ang^3
#
#
#
# Elastic Constant Matrix: (Units=GPa)
#
#
# Indices 1 2 3 4 5 6 
#
# 1 54.0115 6.4692 29.5537 0.0000 0.0000 0.0000
# 2 6.4692 51.4550 29.2215 0.0000 0.0000 0.0000
# 3 29.5537 29.2215 103.3146 0.0000 0.0000 0.0000
# 4 0.0000 0.0000 0.0000 35.0424 0.0000 0.0000
# 5 0.0000 0.0000 0.0000 0.0000 16.6403 0.0000
# 6 0.0000 0.0000 0.0000 0.0000 0.0000 26.1560
#
#
#
# Elastic Compliance Matrix: (Units=1/GPa)
#
#
# Indices 1 2 3 4 5 6 
#
# 1 0.021990 0.000962 -0.006563 0.000000 0.000000 0.000000
# 2 0.000962 0.023196 -0.006836 0.000000 0.000000 0.000000
# 3 -0.006563 -0.006836 0.013490 0.000000 0.000000 0.000000
# 4 0.000000 0.000000 0.000000 0.028537 0.000000 0.000000
# 5 0.000000 0.000000 0.000000 0.000000 0.060095 0.000000
# 6 0.000000 0.000000 0.000000 0.000000 0.000000 0.038232
#
#
# Mechanical properties :
#
#
# Convention : Reuss Voigt Hill
#
# Bulk Modulus (GPa) = 29.58299 37.69665 33.63982
# Shear Modulus (GPa) = 22.55501 25.13684 23.84593
#
# Velocity S-wave (km/s) = 3.31485 3.49944 3.40839
# Velocity P-wave (km/s) = 5.39102 5.89007 5.64606
#
# Compressibility (1/GPa) = 0.03380321
#
# Stress axis : x y z
#
# Youngs Moduli (GPa) = 45.47475 43.11156 74.12947
#
# Poissons Ratio (x) = -0.04148 0.48648
# Poissons Ratio (y) = -0.04376 0.50674
# Poissons Ratio (z) = 0.29843 0.29471
#
# Static dielectric constant tensor:
#      x y z
#    x 1.674980 0.000000 0.000000 
#    y 0.000000 1.740860 0.000000 
#    z 0.000000 0.000000 1.868370 
# 
# From -- ./inp_files/62961.got.cif
#   From: 2010.05.17/outbox.cif.g08.bks.cpg/sg63_32_cif.got.tgz:62961.got - 2010.06.03 15:47:04.
