data_PCOD9474825
_publ_section_title
;
Structure prediction by ZEFSAII (Michael W. Deem and Ramdas Pophale) SiO2 
 PCOD9474825
Probable space group: C M C M
;
_chemical_formula_sum "Si O2"
_cell_formula_units_Z 96
_cell_length_a 8.645727
_cell_length_b 20.978164
_cell_length_c 29.043388
_cell_angle_alpha 90.000000
_cell_angle_beta 90.000000
_cell_angle_gamma 90.000000
_cell_volume 5267.642234
_symmetry_space_group_name_H-M "C M C M"
_symmetry_group_IT_number 63
_symmetry_cell_setting 'orthorhombic'
loop_
_space_group_symop_operation_xyz
x,y,z
-x,-y,1/2+z
x,-y,-z
-x,y,1/2-z
-x,-y,-z
x,y,1/2-z
-x,y,z
x,-y,1/2+z
1/2+x,1/2+y,z
1/2-x,1/2-y,1/2+z
1/2+x,1/2-y,-z
1/2-x,1/2+y,1/2-z
1/2-x,1/2-y,-z
1/2+x,1/2+y,1/2-z
1/2-x,1/2+y,z
1/2+x,1/2-y,1/2+z
loop_
_atom_site_type_symbol
_atom_site_label
_atom_site_fract_x
_atom_site_fract_y
_atom_site_fract_z
Si Si1 0.815196 0.258433 0.103938
Si Si2 0.314842 0.133019 0.443897
Si Si3 0.685691 0.507984 0.396104
Si Si4 0.686989 0.886775 0.050204
Si Si5 0.188044 0.948762 0.301097
Si Si6 0.186476 0.799944 0.197988
O O1 0.747526 0.198820 0.076556
O O2 0.766536 0.324755 0.079698
O O3 0.759001 0.260596 0.156587
O O4 0.000000 0.255299 0.102446
O O5 0.500000 0.133755 0.442512
O O6 0.267749 0.123560 0.497153
O O7 0.253263 0.073725 0.414548
O O8 0.500000 0.511289 0.396257
O O9 0.739398 0.450015 0.428588
O O10 0.739566 0.490301 0.344338
O O11 0.500000 0.892721 0.052298
O O12 0.239830 0.969056 0.250000
O O13 0.231979 0.874530 0.307632
O O14 0.000000 0.949753 0.300921
O O15 0.230437 0.780504 0.250000
O O16 0.000000 0.797026 0.194863
#
# Coordination Sequence:
#
# PCOD9474825 Si02
#       6
#    16  16  16  16  16  16
#     4  11  22  37  58  85 114 143 187 238 282 328
#     4  11  24  40  56  76 113 156 190 228 282 340
#     4  11  21  35  59  87 113 144 186 233 279 332
#     4  10  22  39  58  81 110 148 189 233 282 335
#     4   8  15  30  54  83 111 140 177 221 270 325
#     4   9  17  33  58  85 112 145 184 223 272 335
#
# _framework density 18.224473
#
# number of rings (size 3 to 8) (size 9 to 14) (size 15 to 20)
#    0.000    2.000    1.667    3.500    0.000    4.333 
#    0.000    0.833    0.000    5.000    0.000    0.000 
#    0.000    0.000    0.000    0.000    0.000    0.000 
#
# Total GULP energy -268019.823213 kJ/mol
# GULP energy per Si atom -5583.746317 kJ/mol
# Density = 1.818299 g / cm^3
# Si number density = 18.224473 Si / 1000 Ang^3
#
#
#
# Elastic Constant Matrix: (Units=GPa)
#
#
# Indices 1 2 3 4 5 6 
#
# 1 20.8404 5.5169 10.4633 0.0000 0.0000 0.0000
# 2 5.5169 34.2312 -11.7517 0.0000 0.0000 0.0000
# 3 10.4633 -11.7517 88.7866 0.0000 0.0000 0.0000
# 4 0.0000 0.0000 0.0000 -6.3353 0.0000 0.0000
# 5 0.0000 0.0000 0.0000 0.0000 26.3017 0.0000
# 6 0.0000 0.0000 0.0000 0.0000 0.0000 30.4298
#
#
#
# Elastic Compliance Matrix: (Units=1/GPa)
#
#
# Indices 1 2 3 4 5 6 
#
# 1 0.055098 -0.011638 -0.008033 0.000000 0.000000 0.000000
# 2 -0.011638 0.033062 0.005748 0.000000 0.000000 0.000000
# 3 -0.008033 0.005748 0.012970 0.000000 0.000000 0.000000
# 4 0.000000 0.000000 0.000000 -0.157847 0.000000 0.000000
# 5 0.000000 0.000000 0.000000 0.000000 0.038020 0.000000
# 6 0.000000 0.000000 0.000000 0.000000 0.000000 0.032862
#
#
# Mechanical properties :
#
#
# Convention : Reuss Voigt Hill
#
# Bulk Modulus (GPa) = 13.64584 16.92393 15.28488
# Shear Modulus (GPa) = 75.25450 19.38792 47.32121
#
# Velocity S-wave (km/s) = 6.43294 3.26519 5.10119
# Velocity P-wave (km/s) = 7.91713 4.84993 6.56516
#
# Compressibility (1/GPa) = 0.07328242
#
# Stress axis : x y z
#
# Youngs Moduli (GPa) = 18.14956 30.24634 77.09853
#
# Poissons Ratio (x) = 0.35200 0.61937
# Poissons Ratio (y) = 0.21122 -0.44312
# Poissons Ratio (z) = 0.14580 -0.17384
#
# Static dielectric constant tensor:
#      x y z
#    x 1.620070 0.000000 0.000000 
#    y 0.000000 1.584180 0.000000 
#    z 0.000000 0.000000 1.636500 
# 
# From -- ./inp_files/66934.got.cif
#   From: 2010.05.17/outbox.cif.g08.bks.cpg/sg63_34_cif.got.tgz:66934.got - 2010.06.03 15:47:04.
