data_PCOD9474331
_publ_section_title
;
Structure prediction by ZEFSAII (Michael W. Deem and Ramdas Pophale) SiO2 
 PCOD9474331
Probable space group: C M C M
;
_chemical_formula_sum "Si O2"
_cell_formula_units_Z 80
_cell_length_a 15.887476
_cell_length_b 10.163299
_cell_length_c 27.868457
_cell_angle_alpha 90.000000
_cell_angle_beta 90.000000
_cell_angle_gamma 90.000000
_cell_volume 4499.896592
_symmetry_space_group_name_H-M "C M C M"
_symmetry_group_IT_number 63
_symmetry_cell_setting 'orthorhombic'
loop_
_space_group_symop_operation_xyz
x,y,z
-x,-y,1/2+z
x,-y,-z
-x,y,1/2-z
-x,-y,-z
x,y,1/2-z
-x,y,z
x,-y,1/2+z
1/2+x,1/2+y,z
1/2-x,1/2-y,1/2+z
1/2+x,1/2-y,-z
1/2-x,1/2+y,1/2-z
1/2-x,1/2-y,-z
1/2+x,1/2+y,1/2-z
1/2-x,1/2+y,z
1/2+x,1/2-y,1/2+z
loop_
_atom_site_type_symbol
_atom_site_label
_atom_site_fract_x
_atom_site_fract_y
_atom_site_fract_z
Si Si1 0.168546 0.959751 0.696037
Si Si2 0.827608 0.733005 0.196479
Si Si3 0.254050 0.124514 0.465918
Si Si4 0.905435 0.963863 0.906250
Si Si5 0.905769 0.278282 0.596414
O O1 0.132475 0.942284 0.750000
O O2 0.197327 0.112651 0.692857
O O3 0.246972 0.861032 0.691385
O O4 0.108260 0.939356 0.650598
O O5 0.862952 0.713078 0.250000
O O6 0.891087 0.706442 0.153318
O O7 0.250000 0.250000 0.500000
O O8 0.168359 0.106007 0.435659
O O9 0.332627 0.144346 0.430545
O O10 0.265192 0.000000 0.500000
O O11 0.000000 0.925082 0.920580
O O12 0.897000 0.121644 0.913965
O O13 0.000000 0.318649 0.582838
#
# Coordination Sequence:
#
# PCOD9474331 Si02
#       5
#    16  16  16  16  16
#     4   9  17  31  56  86 115 147 183 225 274 333
#     4   9  17  31  56  85 114 148 184 223 274 336
#     4  12  24  40  62  83 111 148 194 244 287 332
#     4  10  21  38  61  87 115 150 190 230 283 345
#     4  10  21  38  60  87 117 147 188 235 284 340
#
# _framework density 17.778185000000001
#
# number of rings (size 3 to 8) (size 9 to 14) (size 15 to 20)
#    0.000    2.000    4.000    0.000    0.000    2.400 
#    0.000    4.000    0.000    0.000    0.000    5.600 
#    0.000    0.000    0.000    0.000    0.000    0.000 
#
# Total GULP energy -223046.546578 kJ/mol
# GULP energy per Si atom -5576.163664 kJ/mol
# Density = 1.773772 g / cm^3
# Si number density = 17.778185 Si / 1000 Ang^3
#
#
#
# Elastic Constant Matrix: (Units=GPa)
#
#
# Indices 1 2 3 4 5 6 
#
# 1 148.9754 44.6049 75.6166 0.0000 0.0000 0.0000
# 2 44.6049 63.4515 47.6622 0.0000 0.0000 0.0000
# 3 75.6166 47.6622 108.8675 0.0000 0.0000 0.0000
# 4 0.0000 0.0000 0.0000 28.1916 0.0000 0.0000
# 5 0.0000 0.0000 0.0000 0.0000 0.6380 0.0000
# 6 0.0000 0.0000 0.0000 0.0000 0.0000 24.0351
#
#
#
# Elastic Compliance Matrix: (Units=1/GPa)
#
#
# Indices 1 2 3 4 5 6 
#
# 1 0.010713 -0.002893 -0.006174 0.000000 0.000000 0.000000
# 2 -0.002893 0.024264 -0.008613 0.000000 0.000000 0.000000
# 3 -0.006174 -0.008613 0.017245 0.000000 0.000000 0.000000
# 4 0.000000 0.000000 0.000000 0.035472 0.000000 0.000000
# 5 0.000000 0.000000 0.000000 0.000000 1.567370 0.000000
# 6 0.000000 0.000000 0.000000 0.000000 0.000000 0.041606
#
#
# Mechanical properties :
#
#
# Convention : Reuss Voigt Hill
#
# Bulk Modulus (GPa) = 59.31089 73.00685 66.15887
# Shear Modulus (GPa) = 2.87745 20.80032 11.83889
#
# Velocity S-wave (km/s) = 1.27359 3.42422 2.58335
# Velocity P-wave (km/s) = 5.96630 7.53580 6.79651
#
# Compressibility (1/GPa) = 0.01686031
#
# Stress axis : x y z
#
# Youngs Moduli (GPa) = 93.34852 41.21389 57.98855
#
# Poissons Ratio (x) = 0.11923 0.35803
# Poissons Ratio (y) = 0.27005 0.49947
# Poissons Ratio (z) = 0.57635 0.35499
#
# Static dielectric constant tensor:
#      x y z
#    x 1.585640 0.000000 0.000000 
#    y 0.000000 1.583230 0.000000 
#    z 0.000000 0.000000 1.636230 
# 
# From -- ./inp_files/62535.got.cif
#   From: 2010.05.17/outbox.cif.g08.bks.cpg/sg63_32_cif.got.tgz:62535.got - 2010.06.03 15:47:04.
