data_PCOD9474169
_publ_section_title
;
Structure prediction by ZEFSAII (Michael W. Deem and Ramdas Pophale) SiO2 
 PCOD9474169
Probable space group: C M C M
;
_chemical_formula_sum "Si O2"
_cell_formula_units_Z 64
_cell_length_a 13.812234
_cell_length_b 20.434515
_cell_length_c 10.113289
_cell_angle_alpha 90.000000
_cell_angle_beta 90.000000
_cell_angle_gamma 90.000000
_cell_volume 2854.438430
_symmetry_space_group_name_H-M "C M C M"
_symmetry_group_IT_number 63
_symmetry_cell_setting 'orthorhombic'
loop_
_space_group_symop_operation_xyz
x,y,z
-x,-y,1/2+z
x,-y,-z
-x,y,1/2-z
-x,-y,-z
x,y,1/2-z
-x,y,z
x,-y,1/2+z
1/2+x,1/2+y,z
1/2-x,1/2-y,1/2+z
1/2+x,1/2-y,-z
1/2-x,1/2+y,1/2-z
1/2-x,1/2-y,-z
1/2+x,1/2+y,1/2-z
1/2-x,1/2+y,z
1/2+x,1/2-y,1/2+z
loop_
_atom_site_type_symbol
_atom_site_label
_atom_site_fract_x
_atom_site_fract_y
_atom_site_fract_z
Si Si1 0.137035 0.058723 0.095875
Si Si2 0.672829 0.326204 0.398088
Si Si3 0.607742 0.809787 0.010707
Si Si4 0.368027 0.050893 0.107327
O O1 0.103075 0.060739 0.250000
O O2 0.251996 0.048970 0.106804
O O3 0.130667 0.125799 0.011204
O O4 0.102040 0.000000 0.000000
O O5 0.649962 0.349935 0.250000
O O6 0.628416 0.254917 0.425078
O O7 0.790900 0.319663 0.408791
O O8 0.500000 0.803434 0.074675
O O9 0.604169 0.875157 0.923622
O O10 0.399989 0.029592 0.250000
O O11 0.400975 0.000000 0.000000
#
# Coordination Sequence:
#
# PCOD9474169 Si02
#       4
#    16  16  16  16
#     4   9  17  32  56  84 115 150 188 234 290 350
#     4  10  21  37  59  87 116 149 195 246 294 348
#     4  10  22  38  57  82 116 157 197 238 289 348
#     4   9  18  32  51  77 109 146 187 228 273 332
#
# _framework density 22.421222
#
# number of rings (size 3 to 8) (size 9 to 14) (size 15 to 20)
#    0.000    2.500    0.000    1.500    0.000   15.000 
#    0.000    0.000    0.000    0.750    0.000    0.000 
#    0.000    0.000    0.000    0.000    0.000    0.000 
#
# Total GULP energy -178385.853490 kJ/mol
# GULP energy per Si atom -5574.557922 kJ/mol
# Density = 2.237019 g / cm^3
# Si number density = 22.421222 Si / 1000 Ang^3
#
#
#
# Elastic Constant Matrix: (Units=GPa)
#
#
# Indices 1 2 3 4 5 6 
#
# 1 139.8782 34.2292 15.8034 0.0000 0.0000 0.0000
# 2 34.2292 151.1253 110.2019 0.0000 0.0000 0.0000
# 3 15.8034 110.2019 209.8442 0.0000 0.0000 0.0000
# 4 0.0000 0.0000 0.0000 18.0066 0.0000 0.0000
# 5 0.0000 0.0000 0.0000 0.0000 -19.2263 0.0000
# 6 0.0000 0.0000 0.0000 0.0000 0.0000 23.8659
#
#
#
# Elastic Compliance Matrix: (Units=1/GPa)
#
#
# Indices 1 2 3 4 5 6 
#
# 1 0.007606 -0.002115 0.000538 0.000000 0.000000 0.000000
# 2 -0.002115 0.011312 -0.005781 0.000000 0.000000 0.000000
# 3 0.000538 -0.005781 0.007761 0.000000 0.000000 0.000000
# 4 0.000000 0.000000 0.000000 0.055535 0.000000 0.000000
# 5 0.000000 0.000000 0.000000 0.000000 -0.052012 0.000000
# 6 0.000000 0.000000 0.000000 0.000000 0.000000 0.041901
#
#
# Mechanical properties :
#
#
# Convention : Reuss Voigt Hill
#
# Bulk Modulus (GPa) = 83.59743 91.25741 87.42742
# Shear Modulus (GPa) = 55.06213 27.23678 41.14946
#
# Velocity S-wave (km/s) = 4.96098 3.48915 4.28868
# Velocity P-wave (km/s) = 8.37741 7.55128 7.97505
#
# Compressibility (1/GPa) = 0.01196209
#
# Stress axis : x y z
#
# Youngs Moduli (GPa) = 131.47794 88.40369 128.84948
#
# Poissons Ratio (x) = 0.18697 -0.06930
# Poissons Ratio (y) = 0.27806 0.74491
# Poissons Ratio (z) = -0.07072 0.51108
#
# Static dielectric constant tensor:
#      x y z
#    x 1.847280 0.000000 0.000000 
#    y 0.000000 1.765660 0.000000 
#    z 0.000000 0.000000 1.808750 
# 
# From -- ./inp_files/6014.got.cif
#   From: 2010.05.17/outbox.cif.g08.bks.cpg/sg63_4_cif.got.tgz:6014.got - 2010.06.03 15:47:04.
