data_PCOD9474759
_publ_section_title
;
Structure prediction by ZEFSAII (Michael W. Deem and Ramdas Pophale) SiO2 
 PCOD9474759
Probable space group: C M C M
;
_chemical_formula_sum "Si O2"
_cell_formula_units_Z 80
_cell_length_a 7.658774
_cell_length_b 20.865466
_cell_length_c 22.766548
_cell_angle_alpha 90.000000
_cell_angle_beta 90.000000
_cell_angle_gamma 90.000000
_cell_volume 3638.182898
_symmetry_space_group_name_H-M "C M C M"
_symmetry_group_IT_number 63
_symmetry_cell_setting 'orthorhombic'
loop_
_space_group_symop_operation_xyz
x,y,z
-x,-y,1/2+z
x,-y,-z
-x,y,1/2-z
-x,-y,-z
x,y,1/2-z
-x,y,z
x,-y,1/2+z
1/2+x,1/2+y,z
1/2-x,1/2-y,1/2+z
1/2+x,1/2-y,-z
1/2-x,1/2+y,1/2-z
1/2-x,1/2-y,-z
1/2+x,1/2+y,1/2-z
1/2-x,1/2+y,z
1/2+x,1/2-y,1/2+z
loop_
_atom_site_type_symbol
_atom_site_label
_atom_site_fract_x
_atom_site_fract_y
_atom_site_fract_z
Si Si1 0.714738 0.765627 0.127514
Si Si2 0.210024 0.055116 0.250000
Si Si3 0.702226 0.896799 0.422970
Si Si4 0.795764 0.530688 0.379918
Si Si5 0.212689 0.203501 0.250000
Si Si6 0.700347 0.650790 0.048477
O O1 0.500000 0.765161 0.126148
O O2 0.776232 0.837132 0.113522
O O3 0.768786 0.739003 0.190723
O O4 0.772060 0.715708 0.077154
O O5 0.275002 0.024001 0.310163
O O6 0.268450 0.129525 0.250000
O O7 0.000000 0.053727 0.250000
O O8 0.500000 0.902705 0.404800
O O9 0.708820 0.876148 0.490690
O O10 0.777535 0.967117 0.411350
O O11 0.706393 0.595577 0.402101
O O12 0.000000 0.538462 0.394958
O O13 0.000000 0.203222 0.250000
O O14 0.500000 0.662448 0.031745
#
# Coordination Sequence:
#
# PCOD9474759 Si02
#       6
#    16   8  16  16   8  16
#     4   9  18  34  58  85 111 146 192 237 284 336
#     4  11  21  38  63  87 113 146 190 237 283 337
#     4  10  22  38  56  83 118 153 189 235 287 339
#     4  11  23  38  58  86 118 151 189 232 284 341
#     4   9  16  32  59  85 107 136 184 235 277 333
#     4  11  21  36  60  86 113 152 197 238 282 335
#
# _framework density 21.988997999999999
#
# number of rings (size 3 to 8) (size 9 to 14) (size 15 to 20)
#    0.000    1.800    2.000    2.700    0.000    4.800 
#    0.000    4.000    0.000    0.000    0.000    0.000 
#    0.000    0.000    0.000    0.000    0.000    0.000 
#
# Total GULP energy -223588.163829 kJ/mol
# GULP energy per Si atom -5589.704096 kJ/mol
# Density = 2.193895 g / cm^3
# Si number density = 21.988998 Si / 1000 Ang^3
#
#
#
# Elastic Constant Matrix: (Units=GPa)
#
#
# Indices 1 2 3 4 5 6 
#
# 1 49.4013 5.4229 -11.1360 0.0000 0.0000 0.0000
# 2 5.4229 57.9319 -16.3588 0.0000 0.0000 0.0000
# 3 -11.1360 -16.3588 62.9559 0.0000 0.0000 0.0000
# 4 0.0000 0.0000 0.0000 -2.1523 0.0000 0.0000
# 5 0.0000 0.0000 0.0000 0.0000 16.7659 0.0000
# 6 0.0000 0.0000 0.0000 0.0000 0.0000 5.0213
#
#
#
# Elastic Compliance Matrix: (Units=1/GPa)
#
#
# Indices 1 2 3 4 5 6 
#
# 1 0.021136 -0.000996 0.003480 0.000000 0.000000 0.000000
# 2 -0.000996 0.018675 0.004677 0.000000 0.000000 0.000000
# 3 0.003480 0.004677 0.017715 0.000000 0.000000 0.000000
# 4 0.000000 0.000000 0.000000 -0.464627 0.000000 0.000000
# 5 0.000000 0.000000 0.000000 0.000000 0.059645 0.000000
# 6 0.000000 0.000000 0.000000 0.000000 0.000000 0.199150
#
#
# Mechanical properties :
#
#
# Convention : Reuss Voigt Hill
#
# Bulk Modulus (GPa) = 13.91832 14.01614 13.96723
# Shear Modulus (GPa) = -36.05499 16.75106 -9.65197
#
# Velocity S-wave (km/s) = -4.05369 2.76305 -2.09738
# Velocity P-wave (km/s) = 3.94544 4.07029 0.70739
#
# Compressibility (1/GPa) = 0.07184774
#
# Stress axis : x y z
#
# Youngs Moduli (GPa) = 47.31231 53.54626 56.44974
#
# Poissons Ratio (x) = 0.05332 -0.19644
# Poissons Ratio (y) = 0.04712 -0.26399
# Poissons Ratio (z) = -0.16464 -0.25041
#
# Static dielectric constant tensor:
#      x y z
#    x 1.817770 0.000000 0.000000 
#    y 0.000000 1.795440 0.000000 
#    z 0.000000 0.000000 1.765640 
# 
# From -- ./inp_files/50916.got.cif
#   From: 2010.05.17/outbox.cif.g08.bks.cpg/sg63_26_cif.got.tgz:50916.got - 2010.06.03 15:47:04.
