data_PCOD9474898
_publ_section_title
;
Structure prediction by ZEFSAII (Michael W. Deem and Ramdas Pophale) SiO2 
 PCOD9474898
Probable space group: C M C M
;
_chemical_formula_sum "Si O2"
_cell_formula_units_Z 88
_cell_length_a 10.449936
_cell_length_b 19.708698
_cell_length_c 21.390718
_cell_angle_alpha 90.000000
_cell_angle_beta 90.000000
_cell_angle_gamma 90.000000
_cell_volume 4405.517470
_symmetry_space_group_name_H-M "C M C M"
_symmetry_group_IT_number 63
_symmetry_cell_setting 'orthorhombic'
loop_
_space_group_symop_operation_xyz
x,y,z
-x,-y,1/2+z
x,-y,-z
-x,y,1/2-z
-x,-y,-z
x,y,1/2-z
-x,y,z
x,-y,1/2+z
1/2+x,1/2+y,z
1/2-x,1/2-y,1/2+z
1/2+x,1/2-y,-z
1/2-x,1/2+y,1/2-z
1/2-x,1/2-y,-z
1/2+x,1/2+y,1/2-z
1/2-x,1/2+y,z
1/2+x,1/2-y,1/2+z
loop_
_atom_site_type_symbol
_atom_site_label
_atom_site_fract_x
_atom_site_fract_y
_atom_site_fract_z
Si Si1 0.849946 0.604217 0.136147
Si Si2 0.143812 0.241905 0.676800
Si Si3 0.787454 0.028344 0.819880
Si Si4 0.763475 0.421192 0.001225
Si Si5 0.500000 0.438435 0.072404
Si Si6 0.857291 0.352898 0.376094
O O1 0.843608 0.677631 0.168156
O O2 0.771676 0.546055 0.171334
O O3 0.000000 0.585301 0.132216
O O4 0.791511 0.608413 0.066761
O O5 0.155323 0.224940 0.750000
O O6 0.250057 0.202694 0.638318
O O7 0.000000 0.221065 0.655741
O O8 0.839309 0.036729 0.750000
O O9 0.888711 0.043269 0.874692
O O10 0.676213 0.083383 0.831948
O O11 0.614359 0.422232 0.020868
O O12 0.839688 0.380059 0.053674
O O13 0.805815 0.500000 0.000000
O O14 0.000000 0.327651 0.365373
#
# Coordination Sequence:
#
# PCOD9474898 Si02
#       6
#    16  16  16  16   8  16
#     4  11  23  41  67  96 128 173 221 275 333 394
#     4  10  24  46  67  91 132 180 223 268 328 401
#     4  11  23  38  65  97 128 170 223 274 326 391
#     4  11  22  40  67  94 134 166 216 272 333 392
#     4  10  22  40  58  96 133 171 204 269 333 391
#     4  11  24  41  66  99 130 170 214 272 333 389
#
# _framework density 19.974951999999998
#
# number of rings (size 3 to 8) (size 9 to 14) (size 15 to 20)
#    0.000    1.273    3.636    2.727    5.091    4.727 
#    3.273    0.000    0.000    0.000    0.000    0.000 
#    0.000    0.000    0.000    0.000    0.000    0.000 
#
# Total GULP energy -244936.595605 kJ/mol
# GULP energy per Si atom -5566.740809 kJ/mol
# Density = 1.992949 g / cm^3
# Si number density = 19.974952 Si / 1000 Ang^3
#
#
#
# Elastic Constant Matrix: (Units=GPa)
#
#
# Indices 1 2 3 4 5 6 
#
# 1 114.2031 27.5762 12.6928 0.0000 0.0000 0.0000
# 2 27.5762 40.0402 0.2232 0.0000 0.0000 0.0000
# 3 12.6928 0.2232 74.4247 0.0000 0.0000 0.0000
# 4 0.0000 0.0000 0.0000 -18.5759 0.0000 0.0000
# 5 0.0000 0.0000 0.0000 0.0000 8.5703 0.0000
# 6 0.0000 0.0000 0.0000 0.0000 0.0000 8.1578
#
#
#
# Elastic Compliance Matrix: (Units=1/GPa)
#
#
# Indices 1 2 3 4 5 6 
#
# 1 0.010741 -0.007388 -0.001810 0.000000 0.000000 0.000000
# 2 -0.007388 0.030056 0.001170 0.000000 0.000000 0.000000
# 3 -0.001810 0.001170 0.013742 0.000000 0.000000 0.000000
# 4 0.000000 0.000000 0.000000 -0.053833 0.000000 0.000000
# 5 0.000000 0.000000 0.000000 0.000000 0.116682 0.000000
# 6 0.000000 0.000000 0.000000 0.000000 0.000000 0.122583
#
#
# Mechanical properties :
#
#
# Convention : Reuss Voigt Hill
#
# Bulk Modulus (GPa) = 25.98476 34.40583 30.19530
# Shear Modulus (GPa) = 18.59749 12.17548 15.38648
#
# Velocity S-wave (km/s) = 3.05461 2.47156 2.77842
# Velocity P-wave (km/s) = 5.04755 5.04050 5.04403
#
# Compressibility (1/GPa) = 0.03848409
#
# Stress axis : x y z
#
# Youngs Moduli (GPa) = 93.09833 33.27082 72.77209
#
# Poissons Ratio (x) = 0.24579 0.13170
# Poissons Ratio (y) = 0.68777 -0.08513
# Poissons Ratio (z) = 0.16848 -0.03892
#
# Static dielectric constant tensor:
#      x y z
#    x 1.700410 0.000000 0.000000 
#    y 0.000000 1.721150 0.000000 
#    z 0.000000 0.000000 1.669550 
# 
# From -- ./inp_files/59615.got.cif
#   From: 2010.05.17/outbox.cif.g08.bks.cpg/sg63_30_cif.got.tgz:59615.got - 2010.06.03 15:47:04.
