data_PCOD9474103
_publ_section_title
;
Structure prediction by ZEFSAII (Michael W. Deem and Ramdas Pophale) SiO2 
 PCOD9474103
Probable space group: C M C M
;
_chemical_formula_sum "Si O2"
_cell_formula_units_Z 116
_cell_length_a 28.736375
_cell_length_b 9.850919
_cell_length_c 20.062183
_cell_angle_alpha 90.000000
_cell_angle_beta 90.000000
_cell_angle_gamma 90.000000
_cell_volume 5679.196795
_symmetry_space_group_name_H-M "C M C M"
_symmetry_group_IT_number 63
_symmetry_cell_setting 'orthorhombic'
loop_
_space_group_symop_operation_xyz
x,y,z
-x,-y,1/2+z
x,-y,-z
-x,y,1/2-z
-x,-y,-z
x,y,1/2-z
-x,y,z
x,-y,1/2+z
1/2+x,1/2+y,z
1/2-x,1/2-y,1/2+z
1/2+x,1/2-y,-z
1/2-x,1/2+y,1/2-z
1/2-x,1/2-y,-z
1/2+x,1/2+y,1/2-z
1/2-x,1/2+y,z
1/2+x,1/2-y,1/2+z
loop_
_atom_site_type_symbol
_atom_site_label
_atom_site_fract_x
_atom_site_fract_y
_atom_site_fract_z
Si Si1 0.283921 0.812566 0.168234
Si Si2 0.053069 0.619947 0.648641
Si Si3 0.406472 0.831707 0.865559
Si Si4 0.950436 0.716227 0.497348
Si Si5 0.199801 0.623001 0.329941
Si Si6 0.948411 0.952694 0.329313
Si Si7 0.000000 0.000000 0.500000
Si Si8 0.873946 0.157085 0.324280
O O1 0.285914 0.814861 0.250000
O O2 0.236945 0.735875 0.147453
O O3 0.327497 0.719913 0.145148
O O4 0.289219 0.969071 0.146237
O O5 0.068726 0.467131 0.659982
O O6 0.056123 0.655489 0.570105
O O7 0.089948 0.719568 0.681184
O O8 0.000000 0.645701 0.669457
O O9 0.411496 0.823144 0.945271
O O10 0.352775 0.835504 0.846121
O O11 0.434610 0.702392 0.838520
O O12 0.960158 0.877013 0.500873
O O13 0.000000 0.659403 0.469680
O O14 0.203868 0.618246 0.250000
O O15 0.951731 0.982523 0.250000
O O16 0.000000 0.981151 0.360653
O O17 0.905821 0.041233 0.357028
O O18 0.860844 0.106066 0.250000
#
# Coordination Sequence:
#
# PCOD9474103 Si02
#       8
#    16  16  16  16  16  16   4  16
#     4   9  19  37  58  82 112 148 197 247 296 351
#     4  11  22  36  57  86 119 155 194 238 290 356
#     4  12  22  35  57  85 117 151 196 248 294 348
#     4   9  21  37  59  83 114 155 201 242 287 338
#     4  10  21  37  59  87 116 152 196 247 303 359
#     4  10  22  35  50  79 119 159 193 231 287 353
#     4   8  20  40  58  84 110 156 210 252 272 346
#     4  10  21  37  57  83 116 155 196 240 294 357
#
# _framework density 20.425424
#
# number of rings (size 3 to 8) (size 9 to 14) (size 15 to 20)
#    0.414    1.517    1.379    2.483    3.862    2.483 
#    0.000    0.000    0.000    0.828    0.000    0.000 
#    0.000    0.000    0.000    0.000    0.000    0.000 
#
# Total GULP energy -323262.320398 kJ/mol
# GULP energy per Si atom -5573.488283 kJ/mol
# Density = 2.037893 g / cm^3
# Si number density = 20.425424 Si / 1000 Ang^3
#
#
#
# Elastic Constant Matrix: (Units=GPa)
#
#
# Indices 1 2 3 4 5 6 
#
# 1 90.0357 3.5329 0.9044 0.0000 0.0000 0.0000
# 2 3.5329 83.6240 -9.1174 0.0000 0.0000 0.0000
# 3 0.9044 -9.1174 21.7160 0.0000 0.0000 0.0000
# 4 0.0000 0.0000 0.0000 21.0079 0.0000 0.0000
# 5 0.0000 0.0000 0.0000 0.0000 18.4374 0.0000
# 6 0.0000 0.0000 0.0000 0.0000 0.0000 29.3613
#
#
#
# Elastic Compliance Matrix: (Units=1/GPa)
#
#
# Indices 1 2 3 4 5 6 
#
# 1 0.011135 -0.000546 -0.000693 0.000000 0.000000 0.000000
# 2 -0.000546 0.012559 0.005295 0.000000 0.000000 0.000000
# 3 -0.000693 0.005295 0.048301 0.000000 0.000000 0.000000
# 4 0.000000 0.000000 0.000000 0.047601 0.000000 0.000000
# 5 0.000000 0.000000 0.000000 0.000000 0.054238 0.000000
# 6 0.000000 0.000000 0.000000 0.000000 0.000000 0.034058
#
#
# Mechanical properties :
#
#
# Convention : Reuss Voigt Hill
#
# Bulk Modulus (GPa) = 12.48313 20.66839 16.57576
# Shear Modulus (GPa) = 22.07682 27.09837 24.58759
#
# Velocity S-wave (km/s) = 3.29119 3.64634 3.47331
# Velocity P-wave (km/s) = 4.53514 5.27907 4.92118
#
# Compressibility (1/GPa) = 0.08010810
#
# Stress axis : x y z
#
# Youngs Moduli (GPa) = 89.80622 79.62598 20.70340
#
# Poissons Ratio (x) = 0.04347 0.01435
# Poissons Ratio (y) = 0.04903 -0.10963
# Poissons Ratio (z) = 0.06223 -0.42166
#
# Static dielectric constant tensor:
#      x y z
#    x 1.710140 0.000000 0.000000 
#    y 0.000000 2.158230 0.000000 
#    z 0.000000 0.000000 1.780610 
# 
# From -- ./inp_files/65499.got.cif
#   From: 2010.05.17/outbox.cif.g08.bks.cpg/sg63_33_cif.got.tgz:65499.got - 2010.06.03 15:47:04.
