data_PCOD9474864
_publ_section_title
;
Structure prediction by ZEFSAII (Michael W. Deem and Ramdas Pophale) SiO2 
 PCOD9474864
Probable space group: C M C M
;
_chemical_formula_sum "Si O2"
_cell_formula_units_Z 80
_cell_length_a 8.820495
_cell_length_b 25.378226
_cell_length_c 18.703499
_cell_angle_alpha 90.000000
_cell_angle_beta 90.000000
_cell_angle_gamma 90.000000
_cell_volume 4186.750487
_symmetry_space_group_name_H-M "C M C M"
_symmetry_group_IT_number 63
_symmetry_cell_setting 'orthorhombic'
loop_
_space_group_symop_operation_xyz
x,y,z
-x,-y,1/2+z
x,-y,-z
-x,y,1/2-z
-x,-y,-z
x,y,1/2-z
-x,y,z
x,-y,1/2+z
1/2+x,1/2+y,z
1/2-x,1/2-y,1/2+z
1/2+x,1/2-y,-z
1/2-x,1/2+y,1/2-z
1/2-x,1/2-y,-z
1/2+x,1/2+y,1/2-z
1/2-x,1/2+y,z
1/2+x,1/2-y,1/2+z
loop_
_atom_site_type_symbol
_atom_site_label
_atom_site_fract_x
_atom_site_fract_y
_atom_site_fract_z
Si Si1 0.181042 0.325373 0.666657
Si Si2 0.817714 0.981567 0.332199
Si Si3 0.319626 0.110103 0.579379
Si Si4 0.819241 0.225350 0.927877
Si Si5 0.818840 0.917818 0.572374
O O1 0.220681 0.329033 0.750000
O O2 0.209884 0.267392 0.634928
O O3 0.269877 0.367904 0.619823
O O4 0.000000 0.335255 0.659035
O O5 0.779050 0.993852 0.250000
O O6 0.739732 0.928533 0.359149
O O7 0.000000 0.975337 0.336636
O O8 0.775290 0.029667 0.384287
O O9 0.500000 0.112553 0.578771
O O10 0.252428 0.168629 0.586310
O O11 0.260371 0.086874 0.504071
O O12 0.000000 0.219740 0.936680
O O13 0.750000 0.250000 0.000000
O O14 0.000000 0.918008 0.562078
#
# Coordination Sequence:
#
# PCOD9474864 Si02
#       5
#    16  16  16  16  16
#     4  10  22  39  61  91 125 160 200 250 312 374
#     4  10  23  43  64  89 123 162 205 256 314 372
#     4  12  25  40  62  92 125 164 209 257 308 366
#     4  11  22  39  63  90 123 164 205 252 306 363
#     4  11  22  39  65  93 122 160 207 257 309 368
#
# _framework density 19.107897000000001
#
# number of rings (size 3 to 8) (size 9 to 14) (size 15 to 20)
#    0.000    1.200    2.000    4.200    0.000    7.200 
#    0.000    2.000    0.000    0.000    0.000    0.000 
#    0.000    0.000    0.000    0.000    0.000    0.000 
#
# Total GULP energy -223749.326615 kJ/mol
# GULP energy per Si atom -5593.733165 kJ/mol
# Density = 1.906441 g / cm^3
# Si number density = 19.107897 Si / 1000 Ang^3
#
#
#
# Elastic Constant Matrix: (Units=GPa)
#
#
# Indices 1 2 3 4 5 6 
#
# 1 43.4062 30.9299 5.8189 0.0000 0.0000 0.0000
# 2 30.9299 107.2867 -6.4160 0.0000 0.0000 0.0000
# 3 5.8189 -6.4160 27.6762 0.0000 0.0000 0.0000
# 4 0.0000 0.0000 0.0000 12.5885 0.0000 0.0000
# 5 0.0000 0.0000 0.0000 0.0000 28.7807 0.0000
# 6 0.0000 0.0000 0.0000 0.0000 0.0000 33.2085
#
#
#
# Elastic Compliance Matrix: (Units=1/GPa)
#
#
# Indices 1 2 3 4 5 6 
#
# 1 0.030927 -0.009436 -0.008690 0.000000 0.000000 0.000000
# 2 -0.009436 0.012331 0.004842 0.000000 0.000000 0.000000
# 3 -0.008690 0.004842 0.039082 0.000000 0.000000 0.000000
# 4 0.000000 0.000000 0.000000 0.079438 0.000000 0.000000
# 5 0.000000 0.000000 0.000000 0.000000 0.034745 0.000000
# 6 0.000000 0.000000 0.000000 0.000000 0.000000 0.030113
#
#
# Mechanical properties :
#
#
# Convention : Reuss Voigt Hill
#
# Bulk Modulus (GPa) = 17.92979 26.55940 22.24460
# Shear Modulus (GPa) = 18.39645 24.78463 21.59054
#
# Velocity S-wave (km/s) = 3.10621 3.60542 3.36509
# Velocity P-wave (km/s) = 4.71896 5.59124 5.17351
#
# Compressibility (1/GPa) = 0.05577310
#
# Stress axis : x y z
#
# Youngs Moduli (GPa) = 32.33466 81.09917 25.58747
#
# Poissons Ratio (x) = 0.76521 0.22235
# Poissons Ratio (y) = 0.30509 -0.12390
# Poissons Ratio (z) = 0.28098 -0.39271
#
# Static dielectric constant tensor:
#      x y z
#    x 1.641880 0.000000 0.000000 
#    y 0.000000 1.640710 0.000000 
#    z 0.000000 0.000000 1.641580 
# 
# From -- ./inp_files/40534.got.cif
#   From: 2010.05.17/outbox.cif.g08.bks.cpg/sg63_21_cif.got.tgz:40534.got - 2010.06.03 15:47:04.
