data_PCOD9474406
_publ_section_title
;
Structure prediction by ZEFSAII (Michael W. Deem and Ramdas Pophale) SiO2 
 PCOD9474406
Probable space group: C M C M
;
_chemical_formula_sum "Si O2"
_cell_formula_units_Z 88
_cell_length_a 12.205401
_cell_length_b 20.663562
_cell_length_c 19.023001
_cell_angle_alpha 90.000000
_cell_angle_beta 90.000000
_cell_angle_gamma 90.000000
_cell_volume 4797.735160
_symmetry_space_group_name_H-M "C M C M"
_symmetry_group_IT_number 63
_symmetry_cell_setting 'orthorhombic'
loop_
_space_group_symop_operation_xyz
x,y,z
-x,-y,1/2+z
x,-y,-z
-x,y,1/2-z
-x,-y,-z
x,y,1/2-z
-x,y,z
x,-y,1/2+z
1/2+x,1/2+y,z
1/2-x,1/2-y,1/2+z
1/2+x,1/2-y,-z
1/2-x,1/2+y,1/2-z
1/2-x,1/2-y,-z
1/2+x,1/2+y,1/2-z
1/2-x,1/2+y,z
1/2+x,1/2-y,1/2+z
loop_
_atom_site_type_symbol
_atom_site_label
_atom_site_fract_x
_atom_site_fract_y
_atom_site_fract_z
Si Si1 0.500000 0.459605 0.666927
Si Si2 0.500000 0.221069 0.671752
Si Si3 0.744827 0.507307 0.168551
Si Si4 0.281088 0.322733 0.477840
Si Si5 0.724603 0.142327 0.670912
Si Si6 0.629605 0.932571 0.957310
Si Si7 0.000000 0.161757 0.064501
O O1 0.500000 0.444415 0.750000
O O2 0.385328 0.495416 0.652267
O O3 0.500000 0.396156 0.619884
O O4 0.500000 0.252116 0.750000
O O5 0.607301 0.176968 0.667146
O O6 0.500000 0.272733 0.609961
O O7 0.757142 0.527333 0.250000
O O8 0.789178 0.434531 0.161405
O O9 0.807799 0.554631 0.116021
O O10 0.250000 0.250000 0.500000
O O11 0.292720 0.329628 0.393919
O O12 0.187589 0.373454 0.502399
O O13 0.392372 0.341170 0.517056
O O14 0.769748 0.152492 0.750000
O O15 0.500000 0.920905 0.948149
O O16 0.642582 0.000000 0.000000
#
# Coordination Sequence:
#
# PCOD9474406 Si02
#       7
#     8   8  16  16  16  16   8
#     4  10  21  39  61  93 131 165 207 259 312 373
#     4  10  21  38  63  90 121 162 216 266 304 365
#     4  10  21  39  64  94 128 165 208 261 318 375
#     4  12  25  41  63  95 131 165 211 260 315 377
#     4  10  22  40  62  91 124 163 209 260 314 371
#     4  11  24  41  65  91 127 165 207 265 318 372
#     4  12  23  39  65  90 123 172 210 261 307 375
#
# _framework density 18.341988000000001
#
# number of rings (size 3 to 8) (size 9 to 14) (size 15 to 20)
#    0.000    1.273    5.455    0.273    3.818    1.091 
#    0.000    4.091    0.000    0.000    0.000    0.000 
#    0.000    0.000    0.000    0.000    0.000    0.000 
#
# Total GULP energy -245685.066030 kJ/mol
# GULP energy per Si atom -5583.751501 kJ/mol
# Density = 1.830024 g / cm^3
# Si number density = 18.341988 Si / 1000 Ang^3
#
#
#
# Elastic Constant Matrix: (Units=GPa)
#
#
# Indices 1 2 3 4 5 6 
#
# 1 90.0125 17.1877 46.0165 0.0000 0.0000 0.0000
# 2 17.1877 73.3258 41.7569 0.0000 0.0000 0.0000
# 3 46.0165 41.7569 114.6506 0.0000 0.0000 0.0000
# 4 0.0000 0.0000 0.0000 96.0643 0.0000 0.0000
# 5 0.0000 0.0000 0.0000 0.0000 29.3850 0.0000
# 6 0.0000 0.0000 0.0000 0.0000 0.0000 25.4811
#
#
#
# Elastic Compliance Matrix: (Units=1/GPa)
#
#
# Indices 1 2 3 4 5 6 
#
# 1 0.013978 -0.000103 -0.005573 0.000000 0.000000 0.000000
# 2 -0.000103 0.017207 -0.006226 0.000000 0.000000 0.000000
# 3 -0.005573 -0.006226 0.013226 0.000000 0.000000 0.000000
# 4 0.000000 0.000000 0.000000 0.010410 0.000000 0.000000
# 5 0.000000 0.000000 0.000000 0.000000 0.034031 0.000000
# 6 0.000000 0.000000 0.000000 0.000000 0.000000 0.039245
#
#
# Mechanical properties :
#
#
# Convention : Reuss Voigt Hill
#
# Bulk Modulus (GPa) = 48.52299 54.21232 51.36766
# Shear Modulus (GPa) = 31.49213 41.72129 36.60671
#
# Velocity S-wave (km/s) = 4.14810 4.77449 4.47227
# Velocity P-wave (km/s) = 7.03237 7.74693 7.39828
#
# Compressibility (1/GPa) = 0.02060879
#
# Stress axis : x y z
#
# Youngs Moduli (GPa) = 71.54001 58.11493 75.60657
#
# Poissons Ratio (x) = 0.00598 0.42134
# Poissons Ratio (y) = 0.00736 0.47071
# Poissons Ratio (z) = 0.39868 0.36181
#
# Static dielectric constant tensor:
#      x y z
#    x 1.613940 0.000000 0.000000 
#    y 0.000000 1.602940 0.000000 
#    z 0.000000 0.000000 1.654630 
# 
# From -- ./inp_files/42295.got.cif
#   From: 2010.05.17/outbox.cif.g08.bks.cpg/sg63_22_cif.got.tgz:42295.got - 2010.06.03 15:47:04.
