data_PCOD9474760
_publ_section_title
;
Structure prediction by ZEFSAII (Michael W. Deem and Ramdas Pophale) SiO2 
 PCOD9474760
Probable space group: C M C M
;
_chemical_formula_sum "Si O2"
_cell_formula_units_Z 88
_cell_length_a 10.904674
_cell_length_b 26.981903
_cell_length_c 15.757006
_cell_angle_alpha 90.000000
_cell_angle_beta 90.000000
_cell_angle_gamma 90.000000
_cell_volume 4636.165851
_symmetry_space_group_name_H-M "C M C M"
_symmetry_group_IT_number 63
_symmetry_cell_setting 'orthorhombic'
loop_
_space_group_symop_operation_xyz
x,y,z
-x,-y,1/2+z
x,-y,-z
-x,y,1/2-z
-x,-y,-z
x,y,1/2-z
-x,y,z
x,-y,1/2+z
1/2+x,1/2+y,z
1/2-x,1/2-y,1/2+z
1/2+x,1/2-y,-z
1/2-x,1/2+y,1/2-z
1/2-x,1/2-y,-z
1/2+x,1/2+y,1/2-z
1/2-x,1/2+y,z
1/2+x,1/2-y,1/2+z
loop_
_atom_site_type_symbol
_atom_site_label
_atom_site_fract_x
_atom_site_fract_y
_atom_site_fract_z
Si Si1 0.639065 0.777283 0.952285
Si Si2 0.500000 0.712269 0.844049
Si Si3 0.000000 0.011935 0.600052
Si Si4 0.733984 0.114620 0.474372
Si Si5 0.000000 0.881287 0.033853
Si Si6 0.264243 0.027663 0.153949
Si Si7 0.143288 0.582357 0.844076
O O1 0.500000 0.773746 0.992093
O O2 0.615538 0.747633 0.865065
O O3 0.673159 0.834625 0.943829
O O4 0.750000 0.750000 0.000000
O O5 0.500000 0.693152 0.750000
O O6 0.500000 0.668248 0.911263
O O7 0.000000 0.071677 0.597860
O O8 0.000000 0.000000 0.500000
O O9 0.876837 0.989544 0.639400
O O10 0.880752 0.117422 0.475151
O O11 0.699110 0.067797 0.416452
O O12 0.702417 0.106836 0.573598
O O13 0.278400 0.046834 0.250000
O O14 0.339636 0.976761 0.146197
O O15 0.193928 0.595518 0.750000
O O16 0.000000 0.594487 0.844688
#
# Coordination Sequence:
#
# PCOD9474760 Si02
#       7
#    16   8   8  16   8  16  16
#     4  10  22  42  67  95 124 167 211 268 333 396
#     4  10  24  44  67  98 128 159 215 284 329 383
#     4  12  19  37  58  88 125 168 211 256 322 379
#     4  12  21  39  63  90 125 167 214 255 330 390
#     4  12  22  35  68  96 119 166 214 266 326 390
#     4  11  23  36  56  87 128 169 211 260 311 383
#     4  10  22  38  56  84 120 159 210 266 315 380
#
# _framework density 18.981202
#
# number of rings (size 3 to 8) (size 9 to 14) (size 15 to 20)
#    0.545    0.545    5.455    1.364    0.000    4.364 
#    0.000    0.000    0.000    0.545    0.000    0.000 
#    0.000    0.000    0.000    0.000    0.000    0.000 
#
# Total GULP energy -245391.992130 kJ/mol
# GULP energy per Si atom -5577.090730 kJ/mol
# Density = 1.893800 g / cm^3
# Si number density = 18.981202 Si / 1000 Ang^3
#
#
#
# Elastic Constant Matrix: (Units=GPa)
#
#
# Indices 1 2 3 4 5 6 
#
# 1 66.8762 -9.8773 -11.0630 0.0000 0.0000 0.0000
# 2 -9.8773 82.9336 4.1474 0.0000 0.0000 0.0000
# 3 -11.0630 4.1474 56.7416 0.0000 0.0000 0.0000
# 4 0.0000 0.0000 0.0000 17.5825 0.0000 0.0000
# 5 0.0000 0.0000 0.0000 0.0000 15.3553 0.0000
# 6 0.0000 0.0000 0.0000 0.0000 0.0000 27.2625
#
#
#
# Elastic Compliance Matrix: (Units=1/GPa)
#
#
# Indices 1 2 3 4 5 6 
#
# 1 0.015693 0.001722 0.002934 0.000000 0.000000 0.000000
# 2 0.001722 0.012291 -0.000563 0.000000 0.000000 0.000000
# 3 0.002934 -0.000563 0.018237 0.000000 0.000000 0.000000
# 4 0.000000 0.000000 0.000000 0.056875 0.000000 0.000000
# 5 0.000000 0.000000 0.000000 0.000000 0.065124 0.000000
# 6 0.000000 0.000000 0.000000 0.000000 0.000000 0.036680
#
#
# Mechanical properties :
#
#
# Convention : Reuss Voigt Hill
#
# Bulk Modulus (GPa) = 18.37982 19.21839 18.79911
# Shear Modulus (GPa) = 23.27219 26.92969 25.10094
#
# Velocity S-wave (km/s) = 3.50532 3.77072 3.64044
# Velocity P-wave (km/s) = 5.10756 5.39488 5.25319
#
# Compressibility (1/GPa) = 0.05440749
#
# Stress axis : x y z
#
# Youngs Moduli (GPa) = 63.72392 81.35969 54.83401
#
# Poissons Ratio (x) = -0.14012 -0.16087
# Poissons Ratio (y) = -0.10975 0.03085
# Poissons Ratio (z) = -0.18695 0.04577
#
# Static dielectric constant tensor:
#      x y z
#    x 1.695210 0.000000 0.000000 
#    y 0.000000 1.666360 0.000000 
#    z 0.000000 0.000000 1.655620 
# 
# From -- ./inp_files/30162.got.cif
#   From: 2010.05.17/outbox.cif.g08.bks.cpg/sg63_16_cif.got.tgz:30162.got - 2010.06.03 15:47:04.
