data_PCOD9474371
_publ_section_title
;
Structure prediction by ZEFSAII (Michael W. Deem and Ramdas Pophale) SiO2 
 PCOD9474371
Probable space group: C M C M
;
_chemical_formula_sum "Si O2"
_cell_formula_units_Z 100
_cell_length_a 20.811203
_cell_length_b 27.248993
_cell_length_c 9.359124
_cell_angle_alpha 90.000000
_cell_angle_beta 90.000000
_cell_angle_gamma 90.000000
_cell_volume 5307.412515
_symmetry_space_group_name_H-M "C M C M"
_symmetry_group_IT_number 63
_symmetry_cell_setting 'orthorhombic'
loop_
_space_group_symop_operation_xyz
x,y,z
-x,-y,1/2+z
x,-y,-z
-x,y,1/2-z
-x,-y,-z
x,y,1/2-z
-x,y,z
x,-y,1/2+z
1/2+x,1/2+y,z
1/2-x,1/2-y,1/2+z
1/2+x,1/2-y,-z
1/2-x,1/2+y,1/2-z
1/2-x,1/2-y,-z
1/2+x,1/2+y,1/2-z
1/2-x,1/2+y,z
1/2+x,1/2-y,1/2+z
loop_
_atom_site_type_symbol
_atom_site_label
_atom_site_fract_x
_atom_site_fract_y
_atom_site_fract_z
Si Si1 0.234063 0.549342 0.913444
Si Si2 0.233689 0.298360 0.587166
Si Si3 0.340484 0.628894 0.506842
Si Si4 0.572804 0.544679 0.088499
Si Si5 0.359484 0.131839 0.582407
Si Si6 0.425954 0.321877 0.250000
Si Si7 0.500000 0.171292 0.574358
Si Si8 0.500000 0.774389 0.750000
O O1 0.226243 0.534799 0.750000
O O2 0.291028 0.589613 0.923653
O O3 0.170489 0.579481 0.961317
O O4 0.245574 0.500000 0.000000
O O5 0.218329 0.286780 0.750000
O O6 0.250000 0.250000 0.500000
O O7 0.295637 0.333896 0.578586
O O8 0.176226 0.327190 0.510521
O O9 0.387892 0.594316 0.419276
O O10 0.384630 0.659010 0.616678
O O11 0.569976 0.527421 0.250000
O O12 0.500000 0.553336 0.035503
O O13 0.601835 0.500000 0.000000
O O14 0.341676 0.138447 0.750000
O O15 0.435123 0.139753 0.569360
O O16 0.500000 0.342129 0.250000
O O17 0.439199 0.263413 0.250000
O O18 0.500000 0.191811 0.750000
O O19 0.500000 0.200379 0.413913
#
# Coordination Sequence:
#
# PCOD9474371 Si02
#       8
#    16  16  16  16  16   8   8   4
#     4  10  21  38  61  91 123 162 207 262 317 386
#     4  11  25  38  60  88 121 160 204 262 318 387
#     4  11  22  39  61  82 120 160 208 252 319 372
#     4  10  22  38  57  83 113 151 198 248 301 366
#     4   9  21  41  64  91 124 168 209 261 325 388
#     4  10  24  40  62  89 121 169 215 274 322 379
#     4  10  22  44  71  95 136 174 217 270 335 403
#     4  10  26  42  66 106 122 176 226 274 322 394
#
# _framework density 18.841573
#
# number of rings (size 3 to 8) (size 9 to 14) (size 15 to 20)
#    0.240    1.600    0.800    1.920    6.720    4.480 
#    0.000    1.200    0.000    0.000    0.000    0.000 
#    0.000    0.000    0.000    0.000    0.000    0.000 
#
# Total GULP energy -278467.508584 kJ/mol
# GULP energy per Si atom -5569.350172 kJ/mol
# Density = 1.879869 g / cm^3
# Si number density = 18.841573 Si / 1000 Ang^3
#
#
#
# Elastic Constant Matrix: (Units=GPa)
#
#
# Indices 1 2 3 4 5 6 
#
# 1 118.7459 42.5873 33.5819 0.0000 0.0000 0.0000
# 2 42.5873 92.4535 38.8069 0.0000 0.0000 0.0000
# 3 33.5819 38.8069 87.6265 0.0000 0.0000 0.0000
# 4 0.0000 0.0000 0.0000 27.7592 0.0000 0.0000
# 5 0.0000 0.0000 0.0000 0.0000 68.7130 0.0000
# 6 0.0000 0.0000 0.0000 0.0000 0.0000 18.7057
#
#
#
# Elastic Compliance Matrix: (Units=1/GPa)
#
#
# Indices 1 2 3 4 5 6 
#
# 1 0.010453 -0.003849 -0.002301 0.000000 0.000000 0.000000
# 2 -0.003849 0.014703 -0.005037 0.000000 0.000000 0.000000
# 3 -0.002301 -0.005037 0.014525 0.000000 0.000000 0.000000
# 4 0.000000 0.000000 0.000000 0.036024 0.000000 0.000000
# 5 0.000000 0.000000 0.000000 0.000000 0.014553 0.000000
# 6 0.000000 0.000000 0.000000 0.000000 0.000000 0.053460
#
#
# Mechanical properties :
#
#
# Convention : Reuss Voigt Hill
#
# Bulk Modulus (GPa) = 57.78034 58.75313 58.26674
# Shear Modulus (GPa) = 29.09350 35.29223 32.19286
#
# Velocity S-wave (km/s) = 3.93378 4.33263 4.13802
# Velocity P-wave (km/s) = 7.16700 7.50196 7.33639
#
# Compressibility (1/GPa) = 0.01730692
#
# Stress axis : x y z
#
# Youngs Moduli (GPa) = 95.67076 68.01233 68.84898
#
# Poissons Ratio (x) = 0.26177 0.15844
# Poissons Ratio (y) = 0.36822 0.34676
# Poissons Ratio (z) = 0.22017 0.34255
#
# Static dielectric constant tensor:
#      x y z
#    x 1.675320 0.000000 0.000000 
#    y 0.000000 1.629590 0.000000 
#    z 0.000000 0.000000 1.697150 
# 
# From -- ./inp_files/8867.got.cif
#   From: 2010.05.17/outbox.cif.g08.bks.cpg/sg63_5_cif.got.tgz:8867.got - 2010.06.03 15:47:04.
