data_PCOD9474599
_publ_section_title
;
Structure prediction by ZEFSAII (Michael W. Deem and Ramdas Pophale) SiO2 
 PCOD9474599
Probable space group: C M C M
;
_chemical_formula_sum "Si O2"
_cell_formula_units_Z 72
_cell_length_a 14.829010
_cell_length_b 8.947903
_cell_length_c 25.968211
_cell_angle_alpha 90.000000
_cell_angle_beta 90.000000
_cell_angle_gamma 90.000000
_cell_volume 3445.684084
_symmetry_space_group_name_H-M "C M C M"
_symmetry_group_IT_number 63
_symmetry_cell_setting 'orthorhombic'
loop_
_space_group_symop_operation_xyz
x,y,z
-x,-y,1/2+z
x,-y,-z
-x,y,1/2-z
-x,-y,-z
x,y,1/2-z
-x,y,z
x,-y,1/2+z
1/2+x,1/2+y,z
1/2-x,1/2-y,1/2+z
1/2+x,1/2-y,-z
1/2-x,1/2+y,1/2-z
1/2-x,1/2-y,-z
1/2+x,1/2+y,1/2-z
1/2-x,1/2+y,z
1/2+x,1/2-y,1/2+z
loop_
_atom_site_type_symbol
_atom_site_label
_atom_site_fract_x
_atom_site_fract_y
_atom_site_fract_z
Si Si1 0.694226 0.080229 0.691233
Si Si2 0.000000 0.819427 0.010979
Si Si3 0.500000 0.670662 0.396675
Si Si4 0.678189 0.848952 0.968327
Si Si5 0.500000 0.920997 0.191377
Si Si6 0.305616 0.621271 0.127954
O O1 0.701783 0.133752 0.750000
O O2 0.596334 0.998881 0.686278
O O3 0.693618 0.211173 0.649473
O O4 0.776335 0.976909 0.676084
O O5 0.089298 0.753262 0.037555
O O6 0.000000 0.753746 0.952588
O O7 0.000000 0.000000 0.000000
O O8 0.500000 0.789169 0.350248
O O9 0.594504 0.583955 0.392226
O O10 0.730139 0.892369 0.916051
O O11 0.750000 0.750000 0.000000
O O12 0.657168 0.000000 0.000000
O O13 0.500000 0.858918 0.250000
#
# Coordination Sequence:
#
# PCOD9474599 Si02
#       6
#    16   8   8  16   8  16
#     4  10  21  40  64  93 124 163 209 267 324 391
#     4  12  27  44  67  92 135 175 226 276 333 399
#     4  10  22  39  63  86 126 166 215 255 323 380
#     4  12  25  43  65  96 132 176 222 272 329 392
#     4   8  18  37  62  87 119 158 205 254 317 384
#     4  11  23  39  66  91 128 166 218 262 329 391
#
# _framework density 20.895703999999999
#
# number of rings (size 3 to 8) (size 9 to 14) (size 15 to 20)
#    0.000    1.333    2.222    3.000    6.222    1.778 
#    0.000    1.111    0.000    0.000    0.000    0.000 
#    0.000    0.000    0.000    0.000    0.000    0.000 
#
# Total GULP energy -200814.692824 kJ/mol
# GULP energy per Si atom -5578.185912 kJ/mol
# Density = 2.084814 g / cm^3
# Si number density = 20.895704 Si / 1000 Ang^3
#
#
#
# Elastic Constant Matrix: (Units=GPa)
#
#
# Indices 1 2 3 4 5 6 
#
# 1 159.2777 33.1865 34.3211 0.0000 0.0000 0.0000
# 2 33.1865 63.6045 -4.7440 0.0000 0.0000 0.0000
# 3 34.3211 -4.7440 85.4386 0.0000 0.0000 0.0000
# 4 0.0000 0.0000 0.0000 31.6963 0.0000 0.0000
# 5 0.0000 0.0000 0.0000 0.0000 32.3540 0.0000
# 6 0.0000 0.0000 0.0000 0.0000 0.0000 11.6720
#
#
#
# Elastic Compliance Matrix: (Units=1/GPa)
#
#
# Indices 1 2 3 4 5 6 
#
# 1 0.007933 -0.004395 -0.003431 0.000000 0.000000 0.000000
# 2 -0.004395 0.018223 0.002777 0.000000 0.000000 0.000000
# 3 -0.003431 0.002777 0.013237 0.000000 0.000000 0.000000
# 4 0.000000 0.000000 0.000000 0.031549 0.000000 0.000000
# 5 0.000000 0.000000 0.000000 0.000000 0.030908 0.000000
# 6 0.000000 0.000000 0.000000 0.000000 0.000000 0.085675
#
#
# Mechanical properties :
#
#
# Convention : Reuss Voigt Hill
#
# Bulk Modulus (GPa) = 34.13530 48.20533 41.17031
# Shear Modulus (GPa) = 24.10938 31.51493 27.81216
#
# Velocity S-wave (km/s) = 3.40044 3.88777 3.65224
# Velocity P-wave (km/s) = 5.63816 6.57819 6.12623
#
# Compressibility (1/GPa) = 0.02929519
#
# Stress axis : x y z
#
# Youngs Moduli (GPa) = 126.04903 54.87691 75.54723
#
# Poissons Ratio (x) = 0.24120 0.25920
# Poissons Ratio (y) = 0.55402 -0.20983
# Poissons Ratio (z) = 0.43247 -0.15242
#
# Static dielectric constant tensor:
#      x y z
#    x 1.802470 0.000000 0.000000 
#    y 0.000000 1.743810 0.000000 
#    z 0.000000 0.000000 1.768550 
# 
# From -- ./inp_files/69089.got.cif
#   From: 2010.05.17/outbox.cif.g08.bks.cpg/sg63_35_cif.got.tgz:69089.got - 2010.06.03 15:47:04.
