data_PCOD9474536
_publ_section_title
;
Structure prediction by ZEFSAII (Michael W. Deem and Ramdas Pophale) SiO2 
 PCOD9474536
Probable space group: C M C M
;
_chemical_formula_sum "Si O2"
_cell_formula_units_Z 80
_cell_length_a 27.228837
_cell_length_b 8.968268
_cell_length_c 16.957825
_cell_angle_alpha 90.000000
_cell_angle_beta 90.000000
_cell_angle_gamma 90.000000
_cell_volume 4141.024683
_symmetry_space_group_name_H-M "C M C M"
_symmetry_group_IT_number 63
_symmetry_cell_setting 'orthorhombic'
loop_
_space_group_symop_operation_xyz
x,y,z
-x,-y,1/2+z
x,-y,-z
-x,y,1/2-z
-x,-y,-z
x,y,1/2-z
-x,y,z
x,-y,1/2+z
1/2+x,1/2+y,z
1/2-x,1/2-y,1/2+z
1/2+x,1/2-y,-z
1/2-x,1/2+y,1/2-z
1/2-x,1/2-y,-z
1/2+x,1/2+y,1/2-z
1/2-x,1/2+y,z
1/2+x,1/2-y,1/2+z
loop_
_atom_site_type_symbol
_atom_site_label
_atom_site_fract_x
_atom_site_fract_y
_atom_site_fract_z
Si Si1 0.589376 0.148864 0.037583
Si Si2 0.277292 0.240232 0.658248
Si Si3 0.867543 0.898537 0.926580
Si Si4 0.444456 0.386209 0.342191
Si Si5 0.198777 0.434446 0.915047
O O1 0.560114 0.240054 0.103174
O O2 0.641389 0.101592 0.076831
O O3 0.603322 0.262163 0.967091
O O4 0.566813 0.000000 0.000000
O O5 0.270412 0.271840 0.750000
O O6 0.322375 0.334961 0.622730
O O7 0.229268 0.290370 0.610125
O O8 0.289734 0.067354 0.645068
O O9 0.904394 0.997680 0.874660
O O10 0.850001 0.000000 0.000000
O O11 0.435882 0.353772 0.250000
O O12 0.500000 0.445994 0.350490
O O13 0.214131 0.500000 0.000000
#
# Coordination Sequence:
#
# PCOD9474536 Si02
#       5
#    16  16  16  16  16
#     4  10  21  41  64  89 119 159 206 251 302 358
#     4  12  24  37  57  89 121 160 207 252 302 355
#     4  10  21  39  64  87 118 161 205 248 297 361
#     4  10  23  42  65  93 125 158 196 251 314 366
#     4  11  23  40  59  82 122 164 203 248 298 360
#
# _framework density 19.318888999999999
#
# number of rings (size 3 to 8) (size 9 to 14) (size 15 to 20)
#    0.000    1.400    4.000    2.400    5.600    5.600 
#    0.000    0.000    0.000    2.400    0.000    0.000 
#    0.000    0.000    0.000    0.000    0.000    0.000 
#
# Total GULP energy -223517.192668 kJ/mol
# GULP energy per Si atom -5587.929817 kJ/mol
# Density = 1.927492 g / cm^3
# Si number density = 19.318889 Si / 1000 Ang^3
#
#
#
# Elastic Constant Matrix: (Units=GPa)
#
#
# Indices 1 2 3 4 5 6 
#
# 1 55.8482 0.4637 8.0968 0.0000 0.0000 0.0000
# 2 0.4637 66.1504 -9.5611 0.0000 0.0000 0.0000
# 3 8.0968 -9.5611 64.5529 0.0000 0.0000 0.0000
# 4 0.0000 0.0000 0.0000 31.2299 0.0000 0.0000
# 5 0.0000 0.0000 0.0000 0.0000 32.9414 0.0000
# 6 0.0000 0.0000 0.0000 0.0000 0.0000 17.0256
#
#
#
# Elastic Compliance Matrix: (Units=1/GPa)
#
#
# Indices 1 2 3 4 5 6 
#
# 1 0.018252 -0.000469 -0.002359 0.000000 0.000000 0.000000
# 2 -0.000469 0.015460 0.002349 0.000000 0.000000 0.000000
# 3 -0.002359 0.002349 0.016135 0.000000 0.000000 0.000000
# 4 0.000000 0.000000 0.000000 0.032021 0.000000 0.000000
# 5 0.000000 0.000000 0.000000 0.000000 0.030357 0.000000
# 6 0.000000 0.000000 0.000000 0.000000 0.000000 0.058735
#
#
# Mechanical properties :
#
#
# Convention : Reuss Voigt Hill
#
# Bulk Modulus (GPa) = 20.45479 20.50558 20.48019
# Shear Modulus (GPa) = 26.56564 28.74285 27.65425
#
# Velocity S-wave (km/s) = 3.71227 3.86140 3.78757
# Velocity P-wave (km/s) = 5.38383 5.52430 5.45451
#
# Compressibility (1/GPa) = 0.04888830
#
# Stress axis : x y z
#
# Youngs Moduli (GPa) = 54.78990 64.68387 61.97751
#
# Poissons Ratio (x) = 0.03033 0.14619
# Poissons Ratio (y) = 0.02569 -0.14556
# Poissons Ratio (z) = 0.12923 -0.15192
#
# Static dielectric constant tensor:
#      x y z
#    x 1.651760 0.000000 0.000000 
#    y 0.000000 1.691220 0.000000 
#    z 0.000000 0.000000 1.657690 
# 
# From -- ./inp_files/48747.got.cif
#   From: 2010.05.17/outbox.cif.g08.bks.cpg/sg63_25_cif.got.tgz:48747.got - 2010.06.03 15:47:04.
