data_PCOD9474202
_publ_section_title
;
Structure prediction by ZEFSAII (Michael W. Deem and Ramdas Pophale) SiO2 
 PCOD9474202
Probable space group: C M C M
;
_chemical_formula_sum "Si O2"
_cell_formula_units_Z 104
_cell_length_a 23.291195
_cell_length_b 27.556617
_cell_length_c 8.818595
_cell_angle_alpha 90.000000
_cell_angle_beta 90.000000
_cell_angle_gamma 90.000000
_cell_volume 5660.008317
_symmetry_space_group_name_H-M "C M C M"
_symmetry_group_IT_number 63
_symmetry_cell_setting 'orthorhombic'
loop_
_space_group_symop_operation_xyz
x,y,z
-x,-y,1/2+z
x,-y,-z
-x,y,1/2-z
-x,-y,-z
x,y,1/2-z
-x,y,z
x,-y,1/2+z
1/2+x,1/2+y,z
1/2-x,1/2-y,1/2+z
1/2+x,1/2-y,-z
1/2-x,1/2+y,1/2-z
1/2-x,1/2-y,-z
1/2+x,1/2+y,1/2-z
1/2-x,1/2+y,z
1/2+x,1/2-y,1/2+z
loop_
_atom_site_type_symbol
_atom_site_label
_atom_site_fract_x
_atom_site_fract_y
_atom_site_fract_z
Si Si1 0.935875 0.159163 0.250000
Si Si2 0.125706 0.824679 0.424904
Si Si3 0.065296 0.956602 0.750000
Si Si4 0.694534 0.227034 0.076958
Si Si5 0.277227 0.592362 0.920307
Si Si6 0.647463 0.500000 0.000000
Si Si7 0.933606 0.553070 0.931389
Si Si8 0.836715 0.620782 0.429759
O O1 0.908467 0.171112 0.415586
O O2 0.937917 0.100980 0.250000
O O3 0.000000 0.179773 0.250000
O O4 0.101738 0.834194 0.250000
O O5 0.148097 0.769654 0.422489
O O6 0.178440 0.862922 0.440570
O O7 0.000000 0.976026 0.750000
O O8 0.103726 0.974150 0.612338
O O9 0.711334 0.215985 0.250000
O O10 0.671500 0.176260 0.012589
O O11 0.750000 0.250000 0.000000
O O12 0.253328 0.596168 0.750000
O O13 0.312398 0.542487 0.934964
O O14 0.224401 0.595586 0.034965
O O15 0.929985 0.550266 0.750000
O O16 0.000000 0.564894 0.972564
O O17 0.920607 0.500000 0.000000
O O18 0.888280 0.591987 0.992139
O O19 0.847517 0.621437 0.250000
#
# Coordination Sequence:
#
# PCOD9474202 Si02
#       8
#     8  16   8  16  16   8  16  16
#     4  11  24  42  66  91 118 164 216 263 313 377
#     4  10  22  41  63  91 126 163 204 261 321 375
#     4  11  24  42  62  85 116 158 218 263 305 373
#     4  10  21  37  60  91 124 163 206 251 307 371
#     4  11  23  37  57  86 126 162 200 254 315 373
#     4  12  23  40  58  84 121 162 198 258 322 364
#     4  10  22  43  68  92 124 164 206 253 305 371
#     4  11  24  38  62  96 125 163 207 251 309 374
#
# _framework density 18.374531999999999
#
# number of rings (size 3 to 8) (size 9 to 14) (size 15 to 20)
#    0.000    1.385    3.846    1.154    4.308    1.846 
#    0.000    0.769    0.000    2.769    0.000    0.000 
#    0.000    0.000    0.000    0.000    0.000    0.000 
#
# Total GULP energy -289834.777171 kJ/mol
# GULP energy per Si atom -5573.745715 kJ/mol
# Density = 1.833271 g / cm^3
# Si number density = 18.374532 Si / 1000 Ang^3
#
#
#
# Elastic Constant Matrix: (Units=GPa)
#
#
# Indices 1 2 3 4 5 6 
#
# 1 90.1377 62.1066 51.8976 0.0000 0.0000 0.0000
# 2 62.1066 117.0874 31.8500 0.0000 0.0000 0.0000
# 3 51.8976 31.8500 105.1649 0.0000 0.0000 0.0000
# 4 0.0000 0.0000 0.0000 26.6247 0.0000 0.0000
# 5 0.0000 0.0000 0.0000 0.0000 11.8534 0.0000
# 6 0.0000 0.0000 0.0000 0.0000 0.0000 18.3543
#
#
#
# Elastic Compliance Matrix: (Units=1/GPa)
#
#
# Indices 1 2 3 4 5 6 
#
# 1 0.022473 -0.009703 -0.008151 0.000000 0.000000 0.000000
# 2 -0.009703 0.013497 0.000701 0.000000 0.000000 0.000000
# 3 -0.008151 0.000701 0.013319 0.000000 0.000000 0.000000
# 4 0.000000 0.000000 0.000000 0.037559 0.000000 0.000000
# 5 0.000000 0.000000 0.000000 0.000000 0.084364 0.000000
# 6 0.000000 0.000000 0.000000 0.000000 0.000000 0.054483
#
#
# Mechanical properties :
#
#
# Convention : Reuss Voigt Hill
#
# Bulk Modulus (GPa) = 66.74896 67.12203 66.93549
# Shear Modulus (GPa) = 18.86819 22.46887 20.66853
#
# Velocity S-wave (km/s) = 3.20795 3.50069 3.35751
# Velocity P-wave (km/s) = 7.08004 7.27661 7.17900
#
# Compressibility (1/GPa) = 0.01498151
#
# Stress axis : x y z
#
# Youngs Moduli (GPa) = 44.49800 74.09190 75.07883
#
# Poissons Ratio (x) = 0.71891 0.61200
# Poissons Ratio (y) = 0.43176 -0.05261
# Poissons Ratio (z) = 0.36273 -0.05191
#
# Static dielectric constant tensor:
#      x y z
#    x 1.614230 0.000000 0.000000 
#    y 0.000000 1.625400 0.000000 
#    z 0.000000 0.000000 1.671370 
# 
# From -- ./inp_files/8854.got.cif
#   From: 2010.05.17/outbox.cif.g08.bks.cpg/sg63_5_cif.got.tgz:8854.got - 2010.06.03 15:47:04.
