data_PCOD9474086
_publ_section_title
;
Structure prediction by ZEFSAII (Michael W. Deem and Ramdas Pophale) SiO2 
 PCOD9474086
Probable space group: C M C M
;
_chemical_formula_sum "Si O2"
_cell_formula_units_Z 96
_cell_length_a 19.413666
_cell_length_b 30.468643
_cell_length_c 8.522919
_cell_angle_alpha 90.000000
_cell_angle_beta 90.000000
_cell_angle_gamma 90.000000
_cell_volume 5041.375272
_symmetry_space_group_name_H-M "C M C M"
_symmetry_group_IT_number 63
_symmetry_cell_setting 'orthorhombic'
loop_
_space_group_symop_operation_xyz
x,y,z
-x,-y,1/2+z
x,-y,-z
-x,y,1/2-z
-x,-y,-z
x,y,1/2-z
-x,y,z
x,-y,1/2+z
1/2+x,1/2+y,z
1/2-x,1/2-y,1/2+z
1/2+x,1/2-y,-z
1/2-x,1/2+y,1/2-z
1/2-x,1/2-y,-z
1/2+x,1/2+y,1/2-z
1/2-x,1/2+y,z
1/2+x,1/2-y,1/2+z
loop_
_atom_site_type_symbol
_atom_site_label
_atom_site_fract_x
_atom_site_fract_y
_atom_site_fract_z
Si Si1 0.921028 0.201064 0.439658
Si Si2 0.824301 0.120302 0.434332
Si Si3 0.324191 0.870925 0.064477
Si Si4 0.179421 0.272563 0.563688
Si Si5 0.419738 0.951954 0.060515
Si Si6 0.078492 0.950912 0.064944
O O1 0.921548 0.201472 0.250000
O O2 0.870766 0.161416 0.488352
O O3 0.884996 0.244824 0.500771
O O4 0.000000 0.195790 0.492894
O O5 0.808249 0.126165 0.250000
O O6 0.754329 0.116016 0.529742
O O7 0.870645 0.078207 0.464264
O O8 0.335812 0.865847 0.250000
O O9 0.374228 0.910246 0.007594
O O10 0.330182 0.822968 0.987359
O O11 0.183109 0.270233 0.750000
O O12 0.250000 0.250000 0.500000
O O13 0.416854 0.953069 0.250000
O O14 0.500000 0.946344 0.013580
O O15 0.396658 0.000000 0.000000
O O16 0.095538 0.949775 0.250000
O O17 0.000000 0.934480 0.047192
O O18 0.080359 0.000000 0.000000
#
# Coordination Sequence:
#
# PCOD9474086 Si02
#       6
#    16  16  16  16  16  16
#     4  10  22  40  62  88 119 158 201 247 302 363
#     4  11  22  37  59  86 118 157 198 243 298 361
#     4  11  23  39  62  91 123 161 203 249 304 367
#     4  12  24  40  62  88 121 162 206 254 309 365
#     4   9  20  40  65  92 123 160 202 251 309 369
#     4  10  21  37  57  81 112 151 196 246 297 350
#
# _framework density 19.042421999999998
#
# number of rings (size 3 to 8) (size 9 to 14) (size 15 to 20)
#    0.000    1.500    1.667    3.500    0.000    5.333 
#    0.000    3.333    0.000    0.000    0.000    0.000 
#    0.000    0.000    0.000    0.000    0.000    0.000 
#
# Total GULP energy -268102.600120 kJ/mol
# GULP energy per Si atom -5585.470836 kJ/mol
# Density = 1.899908 g / cm^3
# Si number density = 19.042422 Si / 1000 Ang^3
#
#
#
# Elastic Constant Matrix: (Units=GPa)
#
#
# Indices 1 2 3 4 5 6 
#
# 1 101.2740 67.5949 15.7136 0.0000 0.0000 0.0000
# 2 67.5949 120.0376 -1.4489 0.0000 0.0000 0.0000
# 3 15.7136 -1.4489 12.3798 0.0000 0.0000 0.0000
# 4 0.0000 0.0000 0.0000 32.5124 0.0000 0.0000
# 5 0.0000 0.0000 0.0000 0.0000 249.4531 0.0000
# 6 0.0000 0.0000 0.0000 0.0000 0.0000 34.6793
#
#
#
# Elastic Compliance Matrix: (Units=1/GPa)
#
#
# Indices 1 2 3 4 5 6 
#
# 1 0.024326 -0.014091 -0.032526 0.000000 0.000000 0.000000
# 2 -0.014091 0.016505 0.019817 0.000000 0.000000 0.000000
# 3 -0.032526 0.019817 0.124380 0.000000 0.000000 0.000000
# 4 0.000000 0.000000 0.000000 0.030757 0.000000 0.000000
# 5 0.000000 0.000000 0.000000 0.000000 0.004009 0.000000
# 6 0.000000 0.000000 0.000000 0.000000 0.000000 0.028836
#
#
# Mechanical properties :
#
#
# Convention : Reuss Voigt Hill
#
# Bulk Modulus (GPa) = 8.95961 44.15675 26.55818
# Shear Modulus (GPa) = 15.64381 73.45110 44.54745
#
# Velocity S-wave (km/s) = 2.86933 6.21740 4.84196
# Velocity P-wave (km/s) = 3.96140 8.64757 6.72581
#
# Compressibility (1/GPa) = 0.11161200
#
# Stress axis : x y z
#
# Youngs Moduli (GPa) = 41.10888 60.58914 8.03985
#
# Poissons Ratio (x) = 0.85374 0.26150
# Poissons Ratio (y) = 0.57925 -0.15932
# Poissons Ratio (z) = 1.33709 -1.20069
#
# Static dielectric constant tensor:
#      x y z
#    x 1.654170 0.000000 0.000000 
#    y 0.000000 1.667920 0.000000 
#    z 0.000000 0.000000 1.908920 
# 
# From -- ./inp_files/8619.got.cif
#   From: 2010.05.17/outbox.cif.g08.bks.cpg/sg63_5_cif.got.tgz:8619.got - 2010.06.03 15:47:04.
