data_PCOD9474944
_publ_section_title
;
Structure prediction by ZEFSAII (Michael W. Deem and Ramdas Pophale) SiO2 
 PCOD9474944
Probable space group: C M C M
;
_chemical_formula_sum "Si O2"
_cell_formula_units_Z 72
_cell_length_a 17.380930
_cell_length_b 16.541835
_cell_length_c 13.497587
_cell_angle_alpha 90.000000
_cell_angle_beta 90.000000
_cell_angle_gamma 90.000000
_cell_volume 3880.724661
_symmetry_space_group_name_H-M "C M C M"
_symmetry_group_IT_number 63
_symmetry_cell_setting 'orthorhombic'
loop_
_space_group_symop_operation_xyz
x,y,z
-x,-y,1/2+z
x,-y,-z
-x,y,1/2-z
-x,-y,-z
x,y,1/2-z
-x,y,z
x,-y,1/2+z
1/2+x,1/2+y,z
1/2-x,1/2-y,1/2+z
1/2+x,1/2-y,-z
1/2-x,1/2+y,1/2-z
1/2-x,1/2-y,-z
1/2+x,1/2+y,1/2-z
1/2-x,1/2+y,z
1/2+x,1/2-y,1/2+z
loop_
_atom_site_type_symbol
_atom_site_label
_atom_site_fract_x
_atom_site_fract_y
_atom_site_fract_z
Si Si1 0.167306 0.500000 0.500000
Si Si2 0.590055 0.397823 0.868129
Si Si3 0.091534 0.633009 0.363708
Si Si4 0.164786 0.783836 0.025370
Si Si5 0.696662 0.554827 0.866478
O O1 0.119121 0.557679 0.429096
O O2 0.225054 0.452220 0.428096
O O3 0.594305 0.384100 0.750000
O O4 0.500000 0.409665 0.894433
O O5 0.640777 0.478379 0.889074
O O6 0.625650 0.322473 0.927691
O O7 0.121844 0.630157 0.250000
O O8 0.120200 0.711580 0.421976
O O9 0.000000 0.633536 0.358852
O O10 0.163175 0.859532 0.100608
O O11 0.250000 0.750000 0.000000
O O12 0.711394 0.552711 0.750000
#
# Coordination Sequence:
#
# PCOD9474944 Si02
#       5
#     8  16  16  16  16
#     4  12  21  44  63  88 120 162 206 260 303 364
#     4  10  22  40  63  94 131 167 205 252 307 368
#     4  11  25  43  64  91 123 160 205 257 310 366
#     4  12  22  40  62  92 128 164 204 253 306 367
#     4  11  22  38  63  93 123 163 208 251 304 365
#
# _framework density 18.553235000000001
#
# number of rings (size 3 to 8) (size 9 to 14) (size 15 to 20)
#    0.000    0.889    4.444    2.333    0.000    6.222 
#    0.000    2.222    0.000    4.000    0.000    0.000 
#    0.000    0.000    0.000    0.000    0.000    0.000 
#
# Total GULP energy -201062.946946 kJ/mol
# GULP energy per Si atom -5585.081860 kJ/mol
# Density = 1.851101 g / cm^3
# Si number density = 18.553235 Si / 1000 Ang^3
#
#
#
# Elastic Constant Matrix: (Units=GPa)
#
#
# Indices 1 2 3 4 5 6 
#
# 1 86.9375 29.8512 35.4998 0.0000 0.0000 0.0000
# 2 29.8512 111.0431 39.8030 0.0000 0.0000 0.0000
# 3 35.4998 39.8030 112.2457 0.0000 0.0000 0.0000
# 4 0.0000 0.0000 0.0000 24.8287 0.0000 0.0000
# 5 0.0000 0.0000 0.0000 0.0000 25.5098 0.0000
# 6 0.0000 0.0000 0.0000 0.0000 0.0000 32.2726
#
#
#
# Elastic Compliance Matrix: (Units=1/GPa)
#
#
# Indices 1 2 3 4 5 6 
#
# 1 0.013767 -0.002452 -0.003485 0.000000 0.000000 0.000000
# 2 -0.002452 0.010754 -0.003038 0.000000 0.000000 0.000000
# 3 -0.003485 -0.003038 0.011088 0.000000 0.000000 0.000000
# 4 0.000000 0.000000 0.000000 0.040276 0.000000 0.000000
# 5 0.000000 0.000000 0.000000 0.000000 0.039201 0.000000
# 6 0.000000 0.000000 0.000000 0.000000 0.000000 0.030986
#
#
# Mechanical properties :
#
#
# Convention : Reuss Voigt Hill
#
# Bulk Modulus (GPa) = 56.62396 57.83712 57.23054
# Shear Modulus (GPa) = 29.42777 30.19372 29.81074
#
# Velocity S-wave (km/s) = 3.98694 4.03849 4.01280
# Velocity P-wave (km/s) = 7.19585 7.27923 7.23766
#
# Compressibility (1/GPa) = 0.01766037
#
# Stress axis : x y z
#
# Youngs Moduli (GPa) = 72.63556 92.99266 90.18473
#
# Poissons Ratio (x) = 0.22801 0.31427
# Poissons Ratio (y) = 0.17810 0.27396
# Poissons Ratio (z) = 0.25311 0.28249
#
# Static dielectric constant tensor:
#      x y z
#    x 1.637440 0.000000 0.000000 
#    y 0.000000 1.634670 0.000000 
#    z 0.000000 0.000000 1.642150 
# 
# From -- ./inp_files/33684.got.cif
#   From: 2010.05.17/outbox.cif.g08.bks.cpg/sg63_17_cif.got.tgz:33684.got - 2010.06.03 15:47:04.
