data_PCOD9474109
_publ_section_title
;
Structure prediction by ZEFSAII (Michael W. Deem and Ramdas Pophale) SiO2 
 PCOD9474109
Probable space group: C M C M
;
_chemical_formula_sum "Si O2"
_cell_formula_units_Z 40
_cell_length_a 27.380854
_cell_length_b 4.950188
_cell_length_c 13.741811
_cell_angle_alpha 90.000000
_cell_angle_beta 90.000000
_cell_angle_gamma 90.000000
_cell_volume 1862.570215
_symmetry_space_group_name_H-M "C M C M"
_symmetry_group_IT_number 63
_symmetry_cell_setting 'orthorhombic'
loop_
_space_group_symop_operation_xyz
x,y,z
-x,-y,1/2+z
x,-y,-z
-x,y,1/2-z
-x,-y,-z
x,y,1/2-z
-x,y,z
x,-y,1/2+z
1/2+x,1/2+y,z
1/2-x,1/2-y,1/2+z
1/2+x,1/2-y,-z
1/2-x,1/2+y,1/2-z
1/2-x,1/2-y,-z
1/2+x,1/2+y,1/2-z
1/2-x,1/2+y,z
1/2+x,1/2-y,1/2+z
loop_
_atom_site_type_symbol
_atom_site_label
_atom_site_fract_x
_atom_site_fract_y
_atom_site_fract_z
Si Si1 0.719687 0.480572 0.884726
Si Si2 0.639811 0.766386 0.250000
Si Si3 0.075715 0.224244 0.750000
Si Si4 0.500000 0.246109 0.074305
O O1 0.735512 0.782030 0.856869
O O2 0.672431 0.341337 0.839530
O O3 0.714221 0.500000 0.000000
O O4 0.591216 0.587399 0.250000
O O5 0.622438 0.074992 0.250000
O O6 0.045165 0.266894 0.650699
O O7 0.500000 0.500000 0.000000
O O8 0.500000 0.000000 0.000000
#
# Coordination Sequence:
#
# PCOD9474109 Si02
#       4
#    16   8   8   8
#     4  10  21  37  57  84 122 169 211 247 300 362
#     4  12  22  38  62  91 128 157 204 270 308 352
#     4  11  26  41  64 101 122 155 216 257 310 395
#     4  11  24  47  70  88 126 167 196 253 328 386
#
# _framework density 21.475698000000001
#
# number of rings (size 3 to 8) (size 9 to 14) (size 15 to 20)
#    0.000    1.200    0.000    6.000    0.000    8.000 
#    0.000    0.000    0.000    0.000    0.000    0.000 
#    0.000    0.000    0.000    0.000    0.000    0.000 
#
# Total GULP energy -111641.225778 kJ/mol
# GULP energy per Si atom -5582.061289 kJ/mol
# Density = 2.142682 g / cm^3
# Si number density = 21.475698 Si / 1000 Ang^3
#
#
#
# Elastic Constant Matrix: (Units=GPa)
#
#
# Indices 1 2 3 4 5 6 
#
# 1 67.3132 6.4235 38.5083 0.0000 0.0000 0.0000
# 2 6.4235 123.2091 36.6191 0.0000 0.0000 0.0000
# 3 38.5083 36.6191 190.3376 0.0000 0.0000 0.0000
# 4 0.0000 0.0000 0.0000 -2.9000 0.0000 0.0000
# 5 0.0000 0.0000 0.0000 0.0000 33.4508 0.0000
# 6 0.0000 0.0000 0.0000 0.0000 0.0000 40.6445
#
#
#
# Elastic Compliance Matrix: (Units=1/GPa)
#
#
# Indices 1 2 3 4 5 6 
#
# 1 0.016803 0.000143 -0.003427 0.000000 0.000000 0.000000
# 2 0.000143 0.008610 -0.001685 0.000000 0.000000 0.000000
# 3 -0.003427 -0.001685 0.006271 0.000000 0.000000 0.000000
# 4 0.000000 0.000000 0.000000 -0.344829 0.000000 0.000000
# 5 0.000000 0.000000 0.000000 0.000000 0.029895 0.000000
# 6 0.000000 0.000000 0.000000 0.000000 0.000000 0.024604
#
#
# Mechanical properties :
#
#
# Convention : Reuss Voigt Hill
#
# Bulk Modulus (GPa) = 45.98847 60.44020 53.21433
# Shear Modulus (GPa) = -20.70745 34.19300 6.74277
#
# Velocity S-wave (km/s) = -3.10857 3.99453 1.77385
# Velocity P-wave (km/s) = 2.92855 7.03418 5.38777
#
# Compressibility (1/GPa) = 0.02174458
#
# Stress axis : x y z
#
# Youngs Moduli (GPa) = 59.51399 116.14764 159.45497
#
# Poissons Ratio (x) = -0.01655 0.54643
# Poissons Ratio (y) = -0.00848 0.26872
# Poissons Ratio (z) = 0.20395 0.19574
#
# Static dielectric constant tensor:
#      x y z
#    x 1.794400 0.000000 0.000000 
#    y 0.000000 1.763450 0.000000 
#    z 0.000000 0.000000 1.760830 
# 
# From -- ./inp_files/37282.got.cif
#   From: 2010.05.17/outbox.cif.g08.bks.cpg/sg63_19_cif.got.tgz:37282.got - 2010.06.03 15:47:04.
