data_PCOD9474365
_publ_section_title
;
Structure prediction by ZEFSAII (Michael W. Deem and Ramdas Pophale) SiO2 
 PCOD9474365
Probable space group: C M C M
;
_chemical_formula_sum "Si O2"
_cell_formula_units_Z 72
_cell_length_a 22.196944
_cell_length_b 19.831310
_cell_length_c 8.718304
_cell_angle_alpha 90.000000
_cell_angle_beta 90.000000
_cell_angle_gamma 90.000000
_cell_volume 3837.749274
_symmetry_space_group_name_H-M "C M C M"
_symmetry_group_IT_number 63
_symmetry_cell_setting 'orthorhombic'
loop_
_space_group_symop_operation_xyz
x,y,z
-x,-y,1/2+z
x,-y,-z
-x,y,1/2-z
-x,-y,-z
x,y,1/2-z
-x,y,z
x,-y,1/2+z
1/2+x,1/2+y,z
1/2-x,1/2-y,1/2+z
1/2+x,1/2-y,-z
1/2-x,1/2+y,1/2-z
1/2-x,1/2-y,-z
1/2+x,1/2+y,1/2-z
1/2-x,1/2+y,z
1/2+x,1/2-y,1/2+z
loop_
_atom_site_type_symbol
_atom_site_label
_atom_site_fract_x
_atom_site_fract_y
_atom_site_fract_z
Si Si1 0.610831 0.339075 0.566364
Si Si2 0.428904 0.198930 0.066717
Si Si3 0.858625 0.426448 0.066836
Si Si4 0.773507 0.072826 0.433777
Si Si5 0.000000 0.075349 0.566409
O O1 0.602923 0.338604 0.750000
O O2 0.604226 0.264014 0.501923
O O3 0.675237 0.372697 0.531765
O O4 0.558498 0.384587 0.492557
O O5 0.421170 0.197361 0.250000
O O6 0.500000 0.205644 0.033409
O O7 0.402594 0.131081 0.994520
O O8 0.859074 0.429069 0.250000
O O9 0.874500 0.500000 0.000000
O O10 0.790987 0.411031 0.007690
O O11 0.766556 0.067518 0.250000
O O12 0.792434 0.000000 0.500000
O O13 0.000000 0.073433 0.750000
O O14 0.000000 0.000000 0.500000
#
# Coordination Sequence:
#
# PCOD9474365 Si02
#       5
#    16  16  16  16   8
#     4  11  23  39  61  89 123 162 204 251 304 362
#     4  11  24  42  64  90 122 161 203 252 306 363
#     4  11  23  41  66  92 121 158 199 252 307 365
#     4  10  21  38  61  90 123 160 202 252 303 360
#     4  12  24  38  58  86 121 164 209 254 300 354
#
# _framework density 18.760995000000001
#
# number of rings (size 3 to 8) (size 9 to 14) (size 15 to 20)
#    0.000    1.111    1.111    7.000    0.000    8.000 
#    0.000    0.000    0.000    0.000    0.000    0.000 
#    0.000    0.000    0.000    0.000    0.000    0.000 
#
# Total GULP energy -201391.233145 kJ/mol
# GULP energy per Si atom -5594.200921 kJ/mol
# Density = 1.871829 g / cm^3
# Si number density = 18.760995 Si / 1000 Ang^3
#
#
#
# Elastic Constant Matrix: (Units=GPa)
#
#
# Indices 1 2 3 4 5 6 
#
# 1 48.8896 53.4433 49.4932 0.0000 0.0000 0.0000
# 2 53.4433 118.7657 56.7957 0.0000 0.0000 0.0000
# 3 49.4932 56.7957 111.0053 0.0000 0.0000 0.0000
# 4 0.0000 0.0000 0.0000 38.4021 0.0000 0.0000
# 5 0.0000 0.0000 0.0000 0.0000 31.6997 0.0000
# 6 0.0000 0.0000 0.0000 0.0000 0.0000 78.3768
#
#
#
# Elastic Compliance Matrix: (Units=1/GPa)
#
#
# Indices 1 2 3 4 5 6 
#
# 1 0.055532 -0.017408 -0.015853 0.000000 0.000000 0.000000
# 2 -0.017408 0.016604 -0.000734 0.000000 0.000000 0.000000
# 3 -0.015853 -0.000734 0.016453 0.000000 0.000000 0.000000
# 4 0.000000 0.000000 0.000000 0.026040 0.000000 0.000000
# 5 0.000000 0.000000 0.000000 0.000000 0.031546 0.000000
# 6 0.000000 0.000000 0.000000 0.000000 0.000000 0.012759
#
#
# Mechanical properties :
#
#
# Convention : Reuss Voigt Hill
#
# Bulk Modulus (GPa) = 48.54582 66.45833 57.50207
# Shear Modulus (GPa) = 21.38671 37.62429 29.50550
#
# Velocity S-wave (km/s) = 3.37999 4.48309 3.97004
# Velocity P-wave (km/s) = 6.41596 7.89291 7.19244
#
# Compressibility (1/GPa) = 0.02059910
#
# Stress axis : x y z
#
# Youngs Moduli (GPa) = 18.00762 60.22560 60.78092
#
# Poissons Ratio (x) = 1.04838 0.96357
# Poissons Ratio (y) = 0.31347 0.04462
# Poissons Ratio (z) = 0.28548 0.04421
#
# Static dielectric constant tensor:
#      x y z
#    x 1.631960 0.000000 0.000000 
#    y 0.000000 1.618880 0.000000 
#    z 0.000000 0.000000 1.626120 
# 
# From -- ./inp_files/9834.got.cif
#   From: 2010.05.17/outbox.cif.g08.bks.cpg/sg63_5_cif.got.tgz:9834.got - 2010.06.03 15:47:04.
