data_PCOD9474519
_publ_section_title
;
Structure prediction by ZEFSAII (Michael W. Deem and Ramdas Pophale) SiO2 
 PCOD9474519
Probable space group: C M C M
;
_chemical_formula_sum "Si O2"
_cell_formula_units_Z 60
_cell_length_a 27.412774
_cell_length_b 5.056262
_cell_length_c 22.286539
_cell_angle_alpha 90.000000
_cell_angle_beta 90.000000
_cell_angle_gamma 90.000000
_cell_volume 3089.051757
_symmetry_space_group_name_H-M "C M C M"
_symmetry_group_IT_number 63
_symmetry_cell_setting 'orthorhombic'
loop_
_space_group_symop_operation_xyz
x,y,z
-x,-y,1/2+z
x,-y,-z
-x,y,1/2-z
-x,-y,-z
x,y,1/2-z
-x,y,z
x,-y,1/2+z
1/2+x,1/2+y,z
1/2-x,1/2-y,1/2+z
1/2+x,1/2-y,-z
1/2-x,1/2+y,1/2-z
1/2-x,1/2-y,-z
1/2+x,1/2+y,1/2-z
1/2-x,1/2+y,z
1/2+x,1/2-y,1/2+z
loop_
_atom_site_type_symbol
_atom_site_label
_atom_site_fract_x
_atom_site_fract_y
_atom_site_fract_z
Si Si1 0.500000 0.509806 0.250000
Si Si2 0.111452 0.429633 0.380051
Si Si3 0.425453 0.010268 0.250000
Si Si4 0.556571 0.428307 0.429540
Si Si5 0.780955 0.512978 0.427942
O O1 0.458320 0.746127 0.250000
O O2 0.457949 0.274622 0.250000
O O3 0.105349 0.501344 0.310817
O O4 0.079873 0.643656 0.417590
O O5 0.167302 0.445438 0.399666
O O6 0.087749 0.146246 0.394496
O O7 0.557559 0.500000 0.500000
O O8 0.500000 0.432943 0.408623
O O9 0.787288 0.500000 0.500000
O O10 0.760452 0.800052 0.411919
#
# Coordination Sequence:
#
# PCOD9474519 Si02
#       5
#     4  16   8  16  16
#     4  10  24  42  60  84 122 172 216 254 276 356
#     4  12  24  40  64  90 128 163 211 258 306 371
#     4  11  26  40  64  91 122 169 220 244 309 356
#     4  11  24  39  60  92 126 164 203 254 320 374
#     4  10  21  39  63  90 119 158 206 257 315 370
#
# _framework density 19.423438000000001
#
# number of rings (size 3 to 8) (size 9 to 14) (size 15 to 20)
#    0.000    1.067    0.000    6.400   11.200    4.267 
#    0.000    1.333    0.000    0.000    0.000    0.000 
#    0.000    0.000    0.000    0.000    0.000    0.000 
#
# Total GULP energy -167338.471332 kJ/mol
# GULP energy per Si atom -5577.949044 kJ/mol
# Density = 1.937923 g / cm^3
# Si number density = 19.423438 Si / 1000 Ang^3
#
#
#
# Elastic Constant Matrix: (Units=GPa)
#
#
# Indices 1 2 3 4 5 6 
#
# 1 119.2962 1.7280 25.2641 0.0000 0.0000 0.0000
# 2 1.7280 95.4336 -6.4210 0.0000 0.0000 0.0000
# 3 25.2641 -6.4210 46.4350 0.0000 0.0000 0.0000
# 4 0.0000 0.0000 0.0000 12.9083 0.0000 0.0000
# 5 0.0000 0.0000 0.0000 0.0000 -26.0935 0.0000
# 6 0.0000 0.0000 0.0000 0.0000 0.0000 38.4795
#
#
#
# Elastic Compliance Matrix: (Units=1/GPa)
#
#
# Indices 1 2 3 4 5 6 
#
# 1 0.009500 -0.000525 -0.005241 0.000000 0.000000 0.000000
# 2 -0.000525 0.010606 0.001752 0.000000 0.000000 0.000000
# 3 -0.005241 0.001752 0.024629 0.000000 0.000000 0.000000
# 4 0.000000 0.000000 0.000000 0.077470 0.000000 0.000000
# 5 0.000000 0.000000 0.000000 0.000000 -0.038324 0.000000
# 6 0.000000 0.000000 0.000000 0.000000 0.000000 0.025988
#
#
# Mechanical properties :
#
#
# Convention : Reuss Voigt Hill
#
# Bulk Modulus (GPa) = 27.24243 33.58968 30.41605
# Shear Modulus (GPa) = 38.42231 21.09844 29.76037
#
# Velocity S-wave (km/s) = 4.45246 3.29939 3.91856
# Velocity P-wave (km/s) = 6.36305 5.64318 6.01390
#
# Compressibility (1/GPa) = 0.03670745
#
# Stress axis : x y z
#
# Youngs Moduli (GPa) = 105.26228 94.28745 40.60188
#
# Poissons Ratio (x) = 0.04947 0.21281
# Poissons Ratio (y) = 0.05523 -0.07114
# Poissons Ratio (z) = 0.55171 -0.16519
#
# Static dielectric constant tensor:
#      x y z
#    x 1.631680 0.000000 0.000000 
#    y 0.000000 1.657950 0.000000 
#    z 0.000000 0.000000 1.698980 
# 
# From -- ./inp_files/57153.got.cif
#   From: 2010.05.17/outbox.cif.g08.bks.cpg/sg63_29_cif.got.tgz:57153.got - 2010.06.03 15:47:04.
