data_PCOD9474840
_publ_section_title
;
Structure prediction by ZEFSAII (Michael W. Deem and Ramdas Pophale) SiO2 
 PCOD9474840
Probable space group: C M C M
;
_chemical_formula_sum "Si O2"
_cell_formula_units_Z 80
_cell_length_a 8.965928
_cell_length_b 15.525538
_cell_length_c 30.544638
_cell_angle_alpha 90.000000
_cell_angle_beta 90.000000
_cell_angle_gamma 90.000000
_cell_volume 4251.839752
_symmetry_space_group_name_H-M "C M C M"
_symmetry_group_IT_number 63
_symmetry_cell_setting 'orthorhombic'
loop_
_space_group_symop_operation_xyz
x,y,z
-x,-y,1/2+z
x,-y,-z
-x,y,1/2-z
-x,-y,-z
x,y,1/2-z
-x,y,z
x,-y,1/2+z
1/2+x,1/2+y,z
1/2-x,1/2-y,1/2+z
1/2+x,1/2-y,-z
1/2-x,1/2+y,1/2-z
1/2-x,1/2-y,-z
1/2+x,1/2+y,1/2-z
1/2-x,1/2+y,z
1/2+x,1/2-y,1/2+z
loop_
_atom_site_type_symbol
_atom_site_label
_atom_site_fract_x
_atom_site_fract_y
_atom_site_fract_z
Si Si1 0.820160 0.623103 0.699795
Si Si2 0.320395 0.274732 0.864423
Si Si3 0.173035 0.277800 0.544900
Si Si4 0.670501 0.547908 0.454015
Si Si5 0.175158 0.976565 0.642370
O O1 0.768038 0.623535 0.750000
O O2 0.773441 0.709117 0.673546
O O3 0.763585 0.539709 0.673780
O O4 0.000000 0.622258 0.700035
O O5 0.500000 0.272208 0.868140
O O6 0.250295 0.245591 0.910594
O O7 0.280423 0.375169 0.855562
O O8 0.250000 0.250000 0.500000
O O9 0.204383 0.379656 0.546258
O O10 0.000000 0.255244 0.544474
O O11 0.676868 0.500000 0.500000
O O12 0.500000 0.585319 0.450622
O O13 0.690435 0.496174 0.408854
O O14 0.000000 0.981141 0.653451
#
# Coordination Sequence:
#
# PCOD9474840 Si02
#       5
#    16  16  16  16  16
#     4  10  22  39  60  86 115 149 192 242 294 345
#     4   9  20  40  60  81 113 154 195 237 289 347
#     4  11  22  35  54  82 115 151 192 234 284 341
#     4   9  19  36  56  81 114 150 188 233 285 341
#     4   9  19  36  58  84 115 149 188 236 289 344
#
# _framework density 18.815384000000002
#
# number of rings (size 3 to 8) (size 9 to 14) (size 15 to 20)
#    0.000    2.400    0.000    3.000    2.800    5.600 
#    0.000    2.000    0.000    0.000    0.000    0.000 
#    0.000    0.000    0.000    0.000    0.000    0.000 
#
# Total GULP energy -223022.514504 kJ/mol
# GULP energy per Si atom -5575.562863 kJ/mol
# Density = 1.877256 g / cm^3
# Si number density = 18.815384 Si / 1000 Ang^3
#
#
#
# Elastic Constant Matrix: (Units=GPa)
#
#
# Indices 1 2 3 4 5 6 
#
# 1 34.9043 24.8238 45.3158 0.0000 0.0000 0.0000
# 2 24.8238 77.7504 79.5692 0.0000 0.0000 0.0000
# 3 45.3158 79.5692 190.3520 0.0000 0.0000 0.0000
# 4 0.0000 0.0000 0.0000 33.2081 0.0000 0.0000
# 5 0.0000 0.0000 0.0000 0.0000 29.0886 0.0000
# 6 0.0000 0.0000 0.0000 0.0000 0.0000 28.6604
#
#
#
# Elastic Compliance Matrix: (Units=1/GPa)
#
#
# Indices 1 2 3 4 5 6 
#
# 1 0.042847 -0.005664 -0.007833 0.000000 0.000000 0.000000
# 2 -0.005664 0.023226 -0.008360 0.000000 0.000000 0.000000
# 3 -0.007833 -0.008360 0.010613 0.000000 0.000000 0.000000
# 4 0.000000 0.000000 0.000000 0.030113 0.000000 0.000000
# 5 0.000000 0.000000 0.000000 0.000000 0.034378 0.000000
# 6 0.000000 0.000000 0.000000 0.000000 0.000000 0.034891
#
#
# Mechanical properties :
#
#
# Convention : Reuss Voigt Hill
#
# Bulk Modulus (GPa) = 30.32903 66.93605 48.63254
# Shear Modulus (GPa) = 21.66633 28.41129 25.03881
#
# Velocity S-wave (km/s) = 3.39709 3.89009 3.65192
# Velocity P-wave (km/s) = 5.61616 7.47191 6.60949
#
# Compressibility (1/GPa) = 0.03297171
#
# Stress axis : x y z
#
# Youngs Moduli (GPa) = 23.33877 43.05530 94.22601
#
# Poissons Ratio (x) = 0.24387 0.73804
# Poissons Ratio (y) = 0.13219 0.78776
# Poissons Ratio (z) = 0.18280 0.35995
#
# Static dielectric constant tensor:
#      x y z
#    x 1.643570 0.000000 0.000000 
#    y 0.000000 1.618950 0.000000 
#    z 0.000000 0.000000 1.664950 
# 
# From -- ./inp_files/66617.got.cif
#   From: 2010.05.17/outbox.cif.g08.bks.cpg/sg63_34_cif.got.tgz:66617.got - 2010.06.03 15:47:04.
