data_PCOD9474793
_publ_section_title
;
Structure prediction by ZEFSAII (Michael W. Deem and Ramdas Pophale) SiO2 
 PCOD9474793
Probable space group: C M C M
;
_chemical_formula_sum "Si O2"
_cell_formula_units_Z 64
_cell_length_a 19.738896
_cell_length_b 4.813950
_cell_length_c 28.993623
_cell_angle_alpha 90.000000
_cell_angle_beta 90.000000
_cell_angle_gamma 90.000000
_cell_volume 2755.033738
_symmetry_space_group_name_H-M "C M C M"
_symmetry_group_IT_number 63
_symmetry_cell_setting 'orthorhombic'
loop_
_space_group_symop_operation_xyz
x,y,z
-x,-y,1/2+z
x,-y,-z
-x,y,1/2-z
-x,-y,-z
x,y,1/2-z
-x,y,z
x,-y,1/2+z
1/2+x,1/2+y,z
1/2-x,1/2-y,1/2+z
1/2+x,1/2-y,-z
1/2-x,1/2+y,1/2-z
1/2-x,1/2-y,-z
1/2+x,1/2+y,1/2-z
1/2-x,1/2+y,z
1/2+x,1/2-y,1/2+z
loop_
_atom_site_type_symbol
_atom_site_label
_atom_site_fract_x
_atom_site_fract_y
_atom_site_fract_z
Si Si1 0.121720 0.303261 0.859067
Si Si2 0.706233 0.507727 0.571197
Si Si3 0.423126 0.714726 0.303655
Si Si4 0.575472 0.794855 0.956793
O O1 0.186758 0.133910 0.878413
O O2 0.128079 0.560430 0.824966
O O3 0.085780 0.424512 0.905400
O O4 0.080420 0.065849 0.832972
O O5 0.728433 0.197020 0.560460
O O6 0.637414 0.581071 0.545028
O O7 0.409416 0.659003 0.250000
O O8 0.500000 0.828844 0.307197
O O9 0.500000 0.669957 0.957088
O O10 0.580288 0.000000 0.000000
#
# Coordination Sequence:
#
# PCOD9474793 Si02
#       4
#    16  16  16  16
#     4  10  22  38  61  88 127 159 201 253 310 349
#     4  10  22  41  62  88 123 167 210 246 300 367
#     4  11  21  36  61  93 124 157 203 256 313 369
#     4   9  20  38  64  97 128 162 205 253 309 366
#
# _framework density 23.230204000000001
#
# number of rings (size 3 to 8) (size 9 to 14) (size 15 to 20)
#    1.500    0.500    0.000    4.500    0.000    3.000 
#    0.000    5.000    0.000   28.500    0.000    0.000 
#    0.000    0.000    0.000    0.000    0.000    0.000 
#
# Total GULP energy -178429.894328 kJ/mol
# GULP energy per Si atom -5575.934198 kJ/mol
# Density = 2.317733 g / cm^3
# Si number density = 23.230204 Si / 1000 Ang^3
#
#
#
# Elastic Constant Matrix: (Units=GPa)
#
#
# Indices 1 2 3 4 5 6 
#
# 1 86.3092 -3.5627 12.1667 0.0000 0.0000 0.0000
# 2 -3.5627 71.5035 21.5534 0.0000 0.0000 0.0000
# 3 12.1667 21.5534 127.0583 0.0000 0.0000 0.0000
# 4 0.0000 0.0000 0.0000 34.6719 0.0000 0.0000
# 5 0.0000 0.0000 0.0000 0.0000 -43.4406 0.0000
# 6 0.0000 0.0000 0.0000 0.0000 0.0000**********
#
#
#
# Elastic Compliance Matrix: (Units=1/GPa)
#
#
# Indices 1 2 3 4 5 6 
#
# 1 0.011810 0.000979 -0.001297 0.000000 0.000000 0.000000
# 2 0.000979 0.014820 -0.002608 0.000000 0.000000 0.000000
# 3 -0.001297 -0.002608 0.008437 0.000000 0.000000 0.000000
# 4 0.000000 0.000000 0.000000 0.028842 0.000000 0.000000
# 5 0.000000 0.000000 0.000000 0.000000 -0.023020 0.000000
# 6 0.000000 0.000000 0.000000 0.000000 0.000000 -0.000023
#
#
# Mechanical properties :
#
#
# Convention : Reuss Voigt Hill
#
# Bulk Modulus (GPa) = 34.22797 38.35397 36.29097
# Shear Modulus (GPa) = 88.56654 -8578.35767 -4244.89556
#
# Velocity S-wave (km/s) = 6.18129 -60.83401 -42.79351
# Velocity P-wave (km/s) = 8.10622 70.12719 49.25501
#
# Compressibility (1/GPa) = 0.02921588
#
# Stress axis : x y z
#
# Youngs Moduli (GPa) = 84.67756 67.47544 118.52596
#
# Poissons Ratio (x) = -0.06608 0.15373
# Poissons Ratio (y) = -0.08293 0.30909
# Poissons Ratio (z) = 0.10982 0.17596
#
# Static dielectric constant tensor:
#      x y z
#    x 1.924030 0.000000 0.000000 
#    y 0.000000 1.894660 0.000000 
#    z 0.000000 0.000000 1.919700 
# 
# From -- ./inp_files/70147.got.cif
#   From: 2010.05.17/outbox.cif.g08.bks.cpg/sg63_36_cif.got.tgz:70147.got - 2010.06.03 15:47:04.
