data_PCOD9474488
_publ_section_title
;
Structure prediction by ZEFSAII (Michael W. Deem and Ramdas Pophale) SiO2 
 PCOD9474488
Probable space group: C M C M
;
_chemical_formula_sum "Si O2"
_cell_formula_units_Z 96
_cell_length_a 20.514203
_cell_length_b 15.513253
_cell_length_c 15.593597
_cell_angle_alpha 90.000000
_cell_angle_beta 90.000000
_cell_angle_gamma 90.000000
_cell_volume 4962.537828
_symmetry_space_group_name_H-M "C M C M"
_symmetry_group_IT_number 63
_symmetry_cell_setting 'orthorhombic'
loop_
_space_group_symop_operation_xyz
x,y,z
-x,-y,1/2+z
x,-y,-z
-x,y,1/2-z
-x,-y,-z
x,y,1/2-z
-x,y,z
x,-y,1/2+z
1/2+x,1/2+y,z
1/2-x,1/2-y,1/2+z
1/2+x,1/2-y,-z
1/2-x,1/2+y,1/2-z
1/2-x,1/2-y,-z
1/2+x,1/2+y,1/2-z
1/2-x,1/2+y,z
1/2+x,1/2-y,1/2+z
loop_
_atom_site_type_symbol
_atom_site_label
_atom_site_fract_x
_atom_site_fract_y
_atom_site_fract_z
Si Si1 0.827913 0.114563 0.656301
Si Si2 0.630635 0.554807 0.086431
Si Si3 0.000000 0.656394 0.649200
Si Si4 0.248594 0.646522 0.004585
Si Si5 0.402511 0.101201 0.500912
Si Si6 0.000000 0.138475 0.152070
Si Si7 0.572328 0.767574 0.848938
O O1 0.802751 0.135871 0.750000
O O2 0.772481 0.111416 0.586396
O O3 0.877147 0.191361 0.630565
O O4 0.860262 0.020775 0.655367
O O5 0.696829 0.610695 0.071407
O O6 0.566387 0.608715 0.106292
O O7 0.620255 0.500000 0.000000
O O8 0.937197 0.632292 0.589398
O O9 0.000000 0.624222 0.750000
O O10 0.000000 0.758992 0.654653
O O11 0.250000 0.750000 0.000000
O O12 0.174979 0.614540 0.011272
O O13 0.427090 0.157159 0.419422
O O14 0.417360 0.000000 0.500000
O O15 0.000000 0.105282 0.250000
O O16 0.584834 0.797144 0.750000
O O17 0.500000 0.728846 0.849864
#
# Coordination Sequence:
#
# PCOD9474488 Si02
#       7
#    16  16   8  16  16   8  16
#     4  10  21  39  61  94 128 159 204 262 317 376
#     4  10  22  37  62  94 121 162 210 256 310 378
#     4  11  27  44  63  94 131 171 214 258 323 392
#     4  11  22  42  65  88 125 167 213 255 316 384
#     4  12  24  43  68  92 123 168 214 271 324 379
#     4  11  23  40  60  90 131 171 201 245 308 382
#     4  10  22  39  64  96 125 161 211 268 324 378
#
# _framework density 19.344940000000001
#
# number of rings (size 3 to 8) (size 9 to 14) (size 15 to 20)
#    0.000    1.333    2.500    3.500    3.500    1.333 
#    0.000    5.000    0.000    0.000    0.000    0.000 
#    0.000    0.000    0.000    0.000    0.000    0.000 
#
# Total GULP energy -267514.935618 kJ/mol
# GULP energy per Si atom -5573.227825 kJ/mol
# Density = 1.930091 g / cm^3
# Si number density = 19.344940 Si / 1000 Ang^3
#
#
#
# Elastic Constant Matrix: (Units=GPa)
#
#
# Indices 1 2 3 4 5 6 
#
# 1 139.1716 29.8250 45.1412 0.0000 0.0000 0.0000
# 2 29.8250 106.0250 30.1295 0.0000 0.0000 0.0000
# 3 45.1412 30.1295 97.2903 0.0000 0.0000 0.0000
# 4 0.0000 0.0000 0.0000 20.3270 0.0000 0.0000
# 5 0.0000 0.0000 0.0000 0.0000 -147.0221 0.0000
# 6 0.0000 0.0000 0.0000 0.0000 0.0000 -3.1301
#
#
#
# Elastic Compliance Matrix: (Units=1/GPa)
#
#
# Indices 1 2 3 4 5 6 
#
# 1 0.008648 -0.001417 -0.003574 0.000000 0.000000 0.000000
# 2 -0.001417 0.010574 -0.002617 0.000000 0.000000 0.000000
# 3 -0.003574 -0.002617 0.012747 0.000000 0.000000 0.000000
# 4 0.000000 0.000000 0.000000 0.049196 0.000000 0.000000
# 5 0.000000 0.000000 0.000000 0.000000 -0.006802 0.000000
# 6 0.000000 0.000000 0.000000 0.000000 0.000000 -0.319475
#
#
# Mechanical properties :
#
#
# Convention : Reuss Voigt Hill
#
# Bulk Modulus (GPa) = 59.68941 61.40872 60.54906
# Shear Modulus (GPa) = -22.29050 -10.13897 -16.21474
#
# Velocity S-wave (km/s) = -3.39819 -2.29184 -2.89829
# Velocity P-wave (km/s) = 3.94023 4.98093 4.49082
#
# Compressibility (1/GPa) = 0.01675339
#
# Stress axis : x y z
#
# Youngs Moduli (GPa) = 115.63015 94.57062 78.44877
#
# Poissons Ratio (x) = 0.13403 0.28036
# Poissons Ratio (y) = 0.16387 0.20531
# Poissons Ratio (z) = 0.41324 0.24750
#
# Static dielectric constant tensor:
#      x y z
#    x 1.671320 0.000000 0.000000 
#    y 0.000000 1.694400 0.000000 
#    z 0.000000 0.000000 1.737500 
# 
# From -- ./inp_files/35438.got.cif
#   From: 2010.05.17/outbox.cif.g08.bks.cpg/sg63_18_cif.got.tgz:35438.got - 2010.06.03 15:47:04.
