data_PCOD9474609
_publ_section_title
;
Structure prediction by ZEFSAII (Michael W. Deem and Ramdas Pophale) SiO2 
 PCOD9474609
Probable space group: C M C M
;
_chemical_formula_sum "Si O2"
_cell_formula_units_Z 64
_cell_length_a 31.788261
_cell_length_b 9.136303
_cell_length_c 10.238787
_cell_angle_alpha 90.000000
_cell_angle_beta 90.000000
_cell_angle_gamma 90.000000
_cell_volume 2973.622079
_symmetry_space_group_name_H-M "C M C M"
_symmetry_group_IT_number 63
_symmetry_cell_setting 'orthorhombic'
loop_
_space_group_symop_operation_xyz
x,y,z
-x,-y,1/2+z
x,-y,-z
-x,y,1/2-z
-x,-y,-z
x,y,1/2-z
-x,y,z
x,-y,1/2+z
1/2+x,1/2+y,z
1/2-x,1/2-y,1/2+z
1/2+x,1/2-y,-z
1/2-x,1/2+y,1/2-z
1/2-x,1/2-y,-z
1/2+x,1/2+y,1/2-z
1/2-x,1/2+y,z
1/2+x,1/2-y,1/2+z
loop_
_atom_site_type_symbol
_atom_site_label
_atom_site_fract_x
_atom_site_fract_y
_atom_site_fract_z
Si Si1 0.614817 0.000000 0.500000
Si Si2 0.839169 0.229934 0.954400
Si Si3 0.906016 0.000000 0.500000
Si Si4 0.807895 0.217420 0.250000
Si Si5 0.046158 0.728345 0.598693
Si Si6 0.724877 0.388150 0.250000
O O1 0.645126 0.892370 0.581817
O O2 0.582444 0.883243 0.441508
O O3 0.874667 0.108342 0.921951
O O4 0.832940 0.226428 0.112513
O O5 0.797827 0.182193 0.876894
O O6 0.936010 0.109404 0.422722
O O7 0.773311 0.344913 0.250000
O O8 0.784373 0.060619 0.250000
O O9 0.041026 0.704445 0.750000
O O10 0.000000 0.708702 0.534072
#
# Coordination Sequence:
#
# PCOD9474609 Si02
#       6
#     8  16   8   8  16   8
#     4  10  25  38  65  92 134 170 214 266 323 386
#     4  11  25  41  68  95 131 173 220 268 324 398
#     4  10  21  40  65  92 126 168 216 270 321 384
#     4  12  26  46  66  96 133 167 220 274 335 391
#     4  10  22  41  66  95 131 171 218 274 333 391
#     4  12  26  44  68  96 129 171 216 274 333 395
#
# _framework density 21.522572
#
# number of rings (size 3 to 8) (size 9 to 14) (size 15 to 20)
#    0.000    1.250    2.500    1.500   14.000    0.000 
#    0.000    0.000    0.000    7.500    0.000    0.000 
#    0.000    0.000    0.000    0.000    0.000    0.000 
#
# Total GULP energy -178555.063864 kJ/mol
# GULP energy per Si atom -5579.845746 kJ/mol
# Density = 2.147359 g / cm^3
# Si number density = 21.522572 Si / 1000 Ang^3
#
#
#
# Elastic Constant Matrix: (Units=GPa)
#
#
# Indices 1 2 3 4 5 6 
#
# 1 83.3480 30.1544 13.7971 0.0000 0.0000 0.0000
# 2 30.1544 133.7764 0.3558 0.0000 0.0000 0.0000
# 3 13.7971 0.3558 77.3287 0.0000 0.0000 0.0000
# 4 0.0000 0.0000 0.0000 2.4996 0.0000 0.0000
# 5 0.0000 0.0000 0.0000 0.0000 29.6479 0.0000
# 6 0.0000 0.0000 0.0000 0.0000 0.0000 59.0759
#
#
#
# Elastic Compliance Matrix: (Units=1/GPa)
#
#
# Indices 1 2 3 4 5 6 
#
# 1 0.013492 -0.003035 -0.002393 0.000000 0.000000 0.000000
# 2 -0.003035 0.008158 0.000504 0.000000 0.000000 0.000000
# 3 -0.002393 0.000504 0.013357 0.000000 0.000000 0.000000
# 4 0.000000 0.000000 0.000000 0.400057 0.000000 0.000000
# 5 0.000000 0.000000 0.000000 0.000000 0.033729 0.000000
# 6 0.000000 0.000000 0.000000 0.000000 0.000000 0.016927
#
#
# Mechanical properties :
#
#
# Convention : Reuss Voigt Hill
#
# Bulk Modulus (GPa) = 39.74876 42.56308 41.15592
# Shear Modulus (GPa) = 9.92154 34.92108 22.42131
#
# Velocity S-wave (km/s) = 2.14938 4.03244 3.23113
# Velocity P-wave (km/s) = 4.96672 6.44203 5.75187
#
# Compressibility (1/GPa) = 0.02515802
#
# Stress axis : x y z
#
# Youngs Moduli (GPa) = 74.11773 122.58047 74.86987
#
# Poissons Ratio (x) = 0.37202 0.17919
# Poissons Ratio (y) = 0.22494 -0.03773
# Poissons Ratio (z) = 0.17739 -0.06177
#
# Static dielectric constant tensor:
#      x y z
#    x 1.953460 0.000000 0.000000 
#    y 0.000000 1.781610 0.000000 
#    z 0.000000 0.000000 1.786030 
# 
# From -- ./inp_files/25519.got.cif
#   From: 2010.05.17/outbox.cif.g08.bks.cpg/sg63_13_cif.got.tgz:25519.got - 2010.06.03 15:47:04.
