data_PCOD9474410
_publ_section_title
;
Structure prediction by ZEFSAII (Michael W. Deem and Ramdas Pophale) SiO2 
 PCOD9474410
Probable space group: C M C M
;
_chemical_formula_sum "Si O2"
_cell_formula_units_Z 92
_cell_length_a 22.595692
_cell_length_b 22.672059
_cell_length_c 9.184793
_cell_angle_alpha 90.000000
_cell_angle_beta 90.000000
_cell_angle_gamma 90.000000
_cell_volume 4705.285525
_symmetry_space_group_name_H-M "C M C M"
_symmetry_group_IT_number 63
_symmetry_cell_setting 'orthorhombic'
loop_
_space_group_symop_operation_xyz
x,y,z
-x,-y,1/2+z
x,-y,-z
-x,y,1/2-z
-x,-y,-z
x,y,1/2-z
-x,y,z
x,-y,1/2+z
1/2+x,1/2+y,z
1/2-x,1/2-y,1/2+z
1/2+x,1/2-y,-z
1/2-x,1/2+y,1/2-z
1/2-x,1/2-y,-z
1/2+x,1/2+y,1/2-z
1/2-x,1/2+y,z
1/2+x,1/2-y,1/2+z
loop_
_atom_site_type_symbol
_atom_site_label
_atom_site_fract_x
_atom_site_fract_y
_atom_site_fract_z
Si Si1 0.429453 0.556342 0.585797
Si Si2 0.759835 0.187951 0.081137
Si Si3 0.338901 0.880624 0.421493
Si Si4 0.500000 0.027628 0.250000
Si Si5 0.431959 0.795345 0.577839
Si Si6 0.096100 0.500000 0.500000
Si Si7 0.900827 0.175213 0.418803
O O1 0.404574 0.500000 0.500000
O O2 0.405413 0.561601 0.750000
O O3 0.500000 0.547728 0.598488
O O4 0.420347 0.615026 0.493538
O O5 0.741178 0.192674 0.250000
O O6 0.829655 0.176481 0.077321
O O7 0.750000 0.250000 0.000000
O O8 0.721612 0.137670 0.001799
O O9 0.333406 0.868492 0.250000
O O10 0.388216 0.837768 0.491484
O O11 0.362473 0.946591 0.445531
O O12 0.447627 0.024304 0.375667
O O13 0.418265 0.794637 0.750000
O O14 0.500000 0.815396 0.562225
O O15 0.424995 0.730518 0.509756
O O16 0.919760 0.179010 0.250000
#
# Coordination Sequence:
#
# PCOD9474410 Si02
#       7
#    16  16  16   4  16   8  16
#     4  10  21  38  63  93 126 164 205 252 313 379
#     4  11  24  43  68  93 124 169 214 263 320 381
#     4  12  26  43  66  96 131 171 223 269 327 390
#     4  10  24  46  72  98 136 178 220 270 340 406
#     4  11  25  39  62  95 129 167 209 262 322 386
#     4  11  26  44  70 102 134 176 223 276 334 402
#     4  11  23  41  63  92 126 164 211 261 319 382
#
# _framework density 19.552481
#
# number of rings (size 3 to 8) (size 9 to 14) (size 15 to 20)
#    0.000    1.043    2.609    3.130    4.870    6.609 
#    1.565    0.000    0.000    0.000    0.000    0.000 
#    0.000    0.000    0.000    0.000    0.000    0.000 
#
# Total GULP energy -256655.951811 kJ/mol
# GULP energy per Si atom -5579.477213 kJ/mol
# Density = 1.950798 g / cm^3
# Si number density = 19.552481 Si / 1000 Ang^3
#
#
#
# Elastic Constant Matrix: (Units=GPa)
#
#
# Indices 1 2 3 4 5 6 
#
# 1 52.9159 -8.1640 25.6048 0.0000 0.0000 0.0000
# 2 -8.1640 74.7953 18.3191 0.0000 0.0000 0.0000
# 3 25.6048 18.3191 161.4668 0.0000 0.0000 0.0000
# 4 0.0000 0.0000 0.0000 19.3871 0.0000 0.0000
# 5 0.0000 0.0000 0.0000 0.0000 31.2090 0.0000
# 6 0.0000 0.0000 0.0000 0.0000 0.0000 27.0643
#
#
#
# Elastic Compliance Matrix: (Units=1/GPa)
#
#
# Indices 1 2 3 4 5 6 
#
# 1 0.021200 0.003227 -0.003728 0.000000 0.000000 0.000000
# 2 0.003227 0.014243 -0.002128 0.000000 0.000000 0.000000
# 3 -0.003728 -0.002128 0.007026 0.000000 0.000000 0.000000
# 4 0.000000 0.000000 0.000000 0.051581 0.000000 0.000000
# 5 0.000000 0.000000 0.000000 0.000000 0.032042 0.000000
# 6 0.000000 0.000000 0.000000 0.000000 0.000000 0.036949
#
#
# Mechanical properties :
#
#
# Convention : Reuss Voigt Hill
#
# Bulk Modulus (GPa) = 26.87343 40.07754 33.47549
# Shear Modulus (GPa) = 27.66999 32.42662 30.04831
#
# Velocity S-wave (km/s) = 3.76595 4.07681 3.92446
# Velocity P-wave (km/s) = 5.71699 6.53471 6.13948
#
# Compressibility (1/GPa) = 0.03721147
#
# Stress axis : x y z
#
# Youngs Moduli (GPa) = 47.17067 70.20909 142.33323
#
# Poissons Ratio (x) = -0.22656 0.53060
# Poissons Ratio (y) = -0.15222 0.30284
# Poissons Ratio (z) = 0.17585 0.14938
#
# Static dielectric constant tensor:
#      x y z
#    x 1.671120 0.000000 0.000000 
#    y 0.000000 1.669500 0.000000 
#    z 0.000000 0.000000 1.673590 
# 
# From -- ./inp_files/10293.got.cif
#   From: 2010.05.17/outbox.cif.g08.bks.cpg/sg63_6_cif.got.tgz:10293.got - 2010.06.03 15:47:04.
