data_PCOD9474061
_publ_section_title
;
Structure prediction by ZEFSAII (Michael W. Deem and Ramdas Pophale) SiO2 
 PCOD9474061
Probable space group: C M C M
;
_chemical_formula_sum "Si O2"
_cell_formula_units_Z 96
_cell_length_a 15.913811
_cell_length_b 11.972036
_cell_length_c 27.204294
_cell_angle_alpha 90.000000
_cell_angle_beta 90.000000
_cell_angle_gamma 90.000000
_cell_volume 5182.981631
_symmetry_space_group_name_H-M "C M C M"
_symmetry_group_IT_number 63
_symmetry_cell_setting 'orthorhombic'
loop_
_space_group_symop_operation_xyz
x,y,z
-x,-y,1/2+z
x,-y,-z
-x,y,1/2-z
-x,-y,-z
x,y,1/2-z
-x,y,z
x,-y,1/2+z
1/2+x,1/2+y,z
1/2-x,1/2-y,1/2+z
1/2+x,1/2-y,-z
1/2-x,1/2+y,1/2-z
1/2-x,1/2-y,-z
1/2+x,1/2+y,1/2-z
1/2-x,1/2+y,z
1/2+x,1/2-y,1/2+z
loop_
_atom_site_type_symbol
_atom_site_label
_atom_site_fract_x
_atom_site_fract_y
_atom_site_fract_z
Si Si1 0.901341 0.191225 0.438247
Si Si2 0.397672 0.687563 0.805757
Si Si3 0.160372 0.136120 0.955844
Si Si4 0.899129 0.660729 0.396756
Si Si5 0.649918 0.056178 0.947580
Si Si6 0.404024 0.510144 0.371453
O O1 0.859242 0.140965 0.486879
O O2 0.891769 0.323884 0.439016
O O3 0.866709 0.127489 0.389928
O O4 0.000000 0.165364 0.441318
O O5 0.368961 0.702738 0.750000
O O6 0.500000 0.681390 0.805215
O O7 0.378057 0.787400 0.843575
O O8 0.365953 0.571495 0.830316
O O9 0.150410 0.262329 0.935933
O O10 0.251547 0.084388 0.947925
O O11 0.098615 0.065577 0.920974
O O12 0.874193 0.533819 0.406498
O O13 0.000000 0.673459 0.404700
O O14 0.626264 0.000000 0.000000
O O15 0.500000 0.531028 0.356069
#
# Coordination Sequence:
#
# PCOD9474061 Si02
#       6
#    16  16  16  16  16  16
#     4  11  21  33  50  72 109 151 185 220 263 318
#     4   8  15  32  59  84 101 126 175 232 272 311
#     4  11  21  33  52  74 107 144 186 220 259 312
#     4  10  21  37  56  80 107 142 184 221 266 321
#     4  12  24  33  50  75 114 150 186 219 264 317
#     4   9  18  31  51  79 104 130 174 223 269 313
#
# _framework density 18.522158000000001
#
# number of rings (size 3 to 8) (size 9 to 14) (size 15 to 20)
#    0.000    1.833    1.667    5.000    2.333    2.000 
#    0.000    0.000    0.000    5.000    0.000    4.667 
#    0.000    0.000    0.000    0.000    0.000    0.000 
#
# Total GULP energy -267739.209765 kJ/mol
# GULP energy per Si atom -5577.900203 kJ/mol
# Density = 1.848000 g / cm^3
# Si number density = 18.522158 Si / 1000 Ang^3
#
#
#
# Elastic Constant Matrix: (Units=GPa)
#
#
# Indices 1 2 3 4 5 6 
#
# 1 36.9420 13.4805 17.4988 0.0000 0.0000 0.0000
# 2 13.4805 111.1587 49.0962 0.0000 0.0000 0.0000
# 3 17.4988 49.0962 115.6819 0.0000 0.0000 0.0000
# 4 0.0000 0.0000 0.0000 17.1051 0.0000 0.0000
# 5 0.0000 0.0000 0.0000 0.0000 0.7785 0.0000
# 6 0.0000 0.0000 0.0000 0.0000 0.0000 32.2570
#
#
#
# Elastic Compliance Matrix: (Units=1/GPa)
#
#
# Indices 1 2 3 4 5 6 
#
# 1 0.029508 -0.001978 -0.003624 0.000000 0.000000 0.000000
# 2 -0.001978 0.011204 -0.004456 0.000000 0.000000 0.000000
# 3 -0.003624 -0.004456 0.011084 0.000000 0.000000 0.000000
# 4 0.000000 0.000000 0.000000 0.058462 0.000000 0.000000
# 5 0.000000 0.000000 0.000000 0.000000 1.284446 0.000000
# 6 0.000000 0.000000 0.000000 0.000000 0.000000 0.031001
#
#
# Mechanical properties :
#
#
# Convention : Reuss Voigt Hill
#
# Bulk Modulus (GPa) = 31.56568 47.10372 39.33470
# Shear Modulus (GPa) = 3.43317 22.27527 12.85422
#
# Velocity S-wave (km/s) = 1.36293 3.47166 2.63723
# Velocity P-wave (km/s) = 4.42220 6.44640 5.52775
#
# Compressibility (1/GPa) = 0.03167998
#
# Stress axis : x y z
#
# Youngs Moduli (GPa) = 33.88921 89.25326 90.22227
#
# Poissons Ratio (x) = 0.17652 0.32698
# Poissons Ratio (y) = 0.06703 0.40202
# Poissons Ratio (z) = 0.12282 0.39771
#
# Static dielectric constant tensor:
#      x y z
#    x 1.676270 0.000000 0.000000 
#    y 0.000000 1.699530 0.000000 
#    z 0.000000 0.000000 1.634910 
# 
# From -- ./inp_files/63667.got.cif
#   From: 2010.05.17/outbox.cif.g08.bks.cpg/sg63_32_cif.got.tgz:63667.got - 2010.06.03 15:47:04.
