data_PCOD9474055
_publ_section_title
;
Structure prediction by ZEFSAII (Michael W. Deem and Ramdas Pophale) SiO2 
 PCOD9474055
Probable space group: C M C M
;
_chemical_formula_sum "Si O2"
_cell_formula_units_Z 64
_cell_length_a 15.016787
_cell_length_b 28.711605
_cell_length_c 8.507298
_cell_angle_alpha 90.000000
_cell_angle_beta 90.000000
_cell_angle_gamma 90.000000
_cell_volume 3667.973059
_symmetry_space_group_name_H-M "C M C M"
_symmetry_group_IT_number 63
_symmetry_cell_setting 'orthorhombic'
loop_
_space_group_symop_operation_xyz
x,y,z
-x,-y,1/2+z
x,-y,-z
-x,y,1/2-z
-x,-y,-z
x,y,1/2-z
-x,y,z
x,-y,1/2+z
1/2+x,1/2+y,z
1/2-x,1/2-y,1/2+z
1/2+x,1/2-y,-z
1/2-x,1/2+y,1/2-z
1/2-x,1/2-y,-z
1/2+x,1/2+y,1/2-z
1/2-x,1/2+y,z
1/2+x,1/2-y,1/2+z
loop_
_atom_site_type_symbol
_atom_site_label
_atom_site_fract_x
_atom_site_fract_y
_atom_site_fract_z
Si Si1 0.277610 0.365423 0.938051
Si Si2 0.397952 0.826249 0.060310
Si Si3 0.398029 0.279863 0.558785
Si Si4 0.398344 0.448129 0.061739
O O1 0.280255 0.365444 0.750000
O O2 0.331039 0.319498 0.996822
O O3 0.176504 0.360226 0.994161
O O4 0.329097 0.410529 0.998937
O O5 0.394637 0.826947 0.250000
O O6 0.500000 0.836522 0.013924
O O7 0.377390 0.772947 0.007985
O O8 0.396087 0.279658 0.750000
O O9 0.500000 0.290557 0.512446
O O10 0.396183 0.448491 0.250000
O O11 0.500000 0.436115 0.011105
O O12 0.379421 0.500000 0.000000
#
# Coordination Sequence:
#
# PCOD9474055 Si02
#       4
#    16  16  16  16
#     4  11  20  30  50  77 104 134 168 208 253 302
#     4   9  18  33  50  68  97 138 179 216 251 289
#     4   8  15  28  46  70 101 136 171 206 247 295
#     4  10  21  37  56  78 104 132 163 201 246 298
#
# _framework density 17.448328
#
# number of rings (size 3 to 8) (size 9 to 14) (size 15 to 20)
#    0.000    2.500    0.000    4.500    0.000    3.000 
#    0.000    1.250    0.000    3.750    0.000    0.000 
#    0.000    0.000    0.000    0.000    0.000    0.000 
#
# Total GULP energy -178556.503573 kJ/mol
# GULP energy per Si atom -5579.890737 kJ/mol
# Density = 1.740861 g / cm^3
# Si number density = 17.448328 Si / 1000 Ang^3
#
#
#
# Elastic Constant Matrix: (Units=GPa)
#
#
# Indices 1 2 3 4 5 6 
#
# 1 140.8360 102.6341 36.1784 0.0000 0.0000 0.0000
# 2 102.6341 105.3770 31.0753 0.0000 0.0000 0.0000
# 3 36.1784 31.0753 30.1650 0.0000 0.0000 0.0000
# 4 0.0000 0.0000 0.0000 16.2508 0.0000 0.0000
# 5 0.0000 0.0000 0.0000 0.0000 20.4495 0.0000
# 6 0.0000 0.0000 0.0000 0.0000 0.0000 32.3200
#
#
#
# Elastic Compliance Matrix: (Units=1/GPa)
#
#
# Indices 1 2 3 4 5 6 
#
# 1 0.025504 -0.022723 -0.007180 0.000000 0.000000 0.000000
# 2 -0.022723 0.033876 -0.007645 0.000000 0.000000 0.000000
# 3 -0.007180 -0.007645 0.049638 0.000000 0.000000 0.000000
# 4 0.000000 0.000000 0.000000 0.061535 0.000000 0.000000
# 5 0.000000 0.000000 0.000000 0.000000 0.048901 0.000000
# 6 0.000000 0.000000 0.000000 0.000000 0.000000 0.030941
#
#
# Mechanical properties :
#
#
# Convention : Reuss Voigt Hill
#
# Bulk Modulus (GPa) = 29.47936 68.46150 48.97043
# Shear Modulus (GPa) = 14.84567 20.90342 17.87455
#
# Velocity S-wave (km/s) = 2.92007 3.46500 3.20414
# Velocity P-wave (km/s) = 5.31987 7.43842 6.46650
#
# Compressibility (1/GPa) = 0.03392204
#
# Stress axis : x y z
#
# Youngs Moduli (GPa) = 39.20921 29.51944 20.14585
#
# Poissons Ratio (x) = 0.67077 0.14464
# Poissons Ratio (y) = 0.89096 0.15402
# Poissons Ratio (z) = 0.28151 0.22569
#
# Static dielectric constant tensor:
#      x y z
#    x 1.593840 0.000000 0.000000 
#    y 0.000000 1.572480 0.000000 
#    z 0.000000 0.000000 1.588910 
# 
# From -- ./inp_files/4247.got.cif
#   From: 2010.05.17/outbox.cif.g08.bks.cpg/sg63_3_cif.got.tgz:4247.got - 2010.06.03 15:47:04.
