data_PCOD9474361
_publ_section_title
;
Structure prediction by ZEFSAII (Michael W. Deem and Ramdas Pophale) SiO2 
 PCOD9474361
Probable space group: C M C M
;
_chemical_formula_sum "Si O2"
_cell_formula_units_Z 96
_cell_length_a 25.352459
_cell_length_b 24.038677
_cell_length_c 8.771153
_cell_angle_alpha 90.000000
_cell_angle_beta 90.000000
_cell_angle_gamma 90.000000
_cell_volume 5345.487740
_symmetry_space_group_name_H-M "C M C M"
_symmetry_group_IT_number 63
_symmetry_cell_setting 'orthorhombic'
loop_
_space_group_symop_operation_xyz
x,y,z
-x,-y,1/2+z
x,-y,-z
-x,y,1/2-z
-x,-y,-z
x,y,1/2-z
-x,y,z
x,-y,1/2+z
1/2+x,1/2+y,z
1/2-x,1/2-y,1/2+z
1/2+x,1/2-y,-z
1/2-x,1/2+y,1/2-z
1/2-x,1/2-y,-z
1/2+x,1/2+y,1/2-z
1/2-x,1/2+y,z
1/2+x,1/2-y,1/2+z
loop_
_atom_site_type_symbol
_atom_site_label
_atom_site_fract_x
_atom_site_fract_y
_atom_site_fract_z
Si Si1 0.937600 0.560411 0.931269
Si Si2 0.062134 0.939526 0.931841
Si Si3 0.650111 0.362150 0.068772
Si Si4 0.847872 0.633633 0.068059
Si Si5 0.247247 0.438599 0.068188
Si Si6 0.809050 0.251437 0.432085
O O1 0.927925 0.560060 0.750000
O O2 0.000000 0.569242 0.957013
O O3 0.923789 0.500000 0.000000
O O4 0.902159 0.606719 0.010659
O O5 0.070035 0.940463 0.750000
O O6 0.000000 0.930090 0.962353
O O7 0.098540 0.893043 0.006995
O O8 0.076013 0.000000 0.000000
O O9 0.646427 0.352866 0.250000
O O10 0.699932 0.402868 0.040970
O O11 0.661580 0.304277 0.985403
O O12 0.846476 0.636982 0.250000
O O13 0.801259 0.593406 0.009051
O O14 0.837518 0.693917 0.996265
O O15 0.238488 0.441665 0.250000
O O16 0.252579 0.500000 0.000000
O O17 0.805870 0.254205 0.250000
O O18 0.750000 0.250000 0.500000
#
# Coordination Sequence:
#
# PCOD9474361 Si02
#       6
#    16  16  16  16  16  16
#     4  10  21  39  63  90 122 159 199 246 300 356
#     4  10  21  38  61  89 122 160 201 248 301 356
#     4  11  23  39  61  88 119 156 200 247 297 355
#     4  12  24  39  61  87 119 157 200 246 296 353
#     4  11  23  37  56  84 120 154 193 243 297 356
#     4  12  24  41  63  87 119 158 201 245 295 355
#
# _framework density 17.959071999999999
#
# number of rings (size 3 to 8) (size 9 to 14) (size 15 to 20)
#    0.000    1.000    1.667    6.000    0.000    5.333 
#    0.000    0.833    0.000    5.000    0.000    0.000 
#    0.000    0.000    0.000    0.000    0.000    0.000 
#
# Total GULP energy -268551.366686 kJ/mol
# GULP energy per Si atom -5594.820139 kJ/mol
# Density = 1.791820 g / cm^3
# Si number density = 17.959072 Si / 1000 Ang^3
#
#
#
# Elastic Constant Matrix: (Units=GPa)
#
#
# Indices 1 2 3 4 5 6 
#
# 1 79.3327 74.4270 70.3958 0.0000 0.0000 0.0000
# 2 74.4270 177.4306 97.8809 0.0000 0.0000 0.0000
# 3 70.3958 97.8809 149.7611 0.0000 0.0000 0.0000
# 4 0.0000 0.0000 0.0000 36.6890 0.0000 0.0000
# 5 0.0000 0.0000 0.0000 0.0000 30.5921 0.0000
# 6 0.0000 0.0000 0.0000 0.0000 0.0000 10.8249
#
#
#
# Elastic Compliance Matrix: (Units=1/GPa)
#
#
# Indices 1 2 3 4 5 6 
#
# 1 0.025559 -0.006402 -0.007830 0.000000 0.000000 0.000000
# 2 -0.006402 0.010417 -0.003799 0.000000 0.000000 0.000000
# 3 -0.007830 -0.003799 0.012841 0.000000 0.000000 0.000000
# 4 0.000000 0.000000 0.000000 0.027256 0.000000 0.000000
# 5 0.000000 0.000000 0.000000 0.000000 0.032688 0.000000
# 6 0.000000 0.000000 0.000000 0.000000 0.000000 0.092380
#
#
# Mechanical properties :
#
#
# Convention : Reuss Voigt Hill
#
# Bulk Modulus (GPa) = 78.40061 99.10353 88.75207
# Shear Modulus (GPa) = 20.70772 26.54257 23.62514
#
# Velocity S-wave (km/s) = 3.39934 3.84858 3.63092
# Velocity P-wave (km/s) = 7.69138 8.66323 8.19173
#
# Compressibility (1/GPa) = 0.01275500
#
# Stress axis : x y z
#
# Youngs Moduli (GPa) = 39.12505 95.99403 77.87522
#
# Poissons Ratio (x) = 0.61453 0.60977
# Poissons Ratio (y) = 0.25047 0.29588
# Poissons Ratio (z) = 0.30635 0.36472
#
# Static dielectric constant tensor:
#      x y z
#    x 1.598980 0.000000 0.000000 
#    y 0.000000 1.580790 0.000000 
#    z 0.000000 0.000000 1.598060 
# 
# From -- ./inp_files/10505.got.cif
#   From: 2010.05.17/outbox.cif.g08.bks.cpg/sg63_6_cif.got.tgz:10505.got - 2010.06.03 15:47:04.
