data_PCOD9474964
_publ_section_title
;
Structure prediction by ZEFSAII (Michael W. Deem and Ramdas Pophale) SiO2 
 PCOD9474964
Probable space group: C M C M
;
_chemical_formula_sum "Si O2"
_cell_formula_units_Z 112
_cell_length_a 29.804850
_cell_length_b 5.671045
_cell_length_c 28.540201
_cell_angle_alpha 90.000000
_cell_angle_beta 90.000000
_cell_angle_gamma 90.000000
_cell_volume 4823.997358
_symmetry_space_group_name_H-M "C M C M"
_symmetry_group_IT_number 63
_symmetry_cell_setting 'orthorhombic'
loop_
_space_group_symop_operation_xyz
x,y,z
-x,-y,1/2+z
x,-y,-z
-x,y,1/2-z
-x,-y,-z
x,y,1/2-z
-x,y,z
x,-y,1/2+z
1/2+x,1/2+y,z
1/2-x,1/2-y,1/2+z
1/2+x,1/2-y,-z
1/2-x,1/2+y,1/2-z
1/2-x,1/2-y,-z
1/2+x,1/2+y,1/2-z
1/2-x,1/2+y,z
1/2+x,1/2-y,1/2+z
loop_
_atom_site_type_symbol
_atom_site_label
_atom_site_fract_x
_atom_site_fract_y
_atom_site_fract_z
Si Si1 0.734370 0.630702 0.696480
Si Si2 0.450724 0.979323 0.801000
Si Si3 0.548731 0.341338 0.453651
Si Si4 0.233867 0.302875 0.947293
Si Si5 0.415843 0.310131 0.621444
Si Si6 0.866994 0.180571 0.673717
Si Si7 0.365713 0.066981 0.427184
O O1 0.752186 0.616448 0.750000
O O2 0.745277 0.372363 0.675442
O O3 0.681122 0.670172 0.696918
O O4 0.449441 0.107408 0.750000
O O5 0.500000 0.862336 0.803190
O O6 0.408232 0.807728 0.801325
O O7 0.445380 0.129462 0.848589
O O8 0.548849 0.500000 0.500000
O O9 0.500000 0.218531 0.451185
O O10 0.555122 0.502179 0.407282
O O11 0.592295 0.178858 0.453999
O O12 0.258878 0.537021 0.926300
O O13 0.182025 0.379839 0.949020
O O14 0.250000 0.250000 0.000000
O O15 0.384309 0.423507 0.660687
O O16 0.381819 0.196204 0.583795
O O17 0.862094 0.314002 0.624087
#
# Coordination Sequence:
#
# PCOD9474964 Si02
#       7
#    16  16  16  16  16  16  16
#     4  10  23  41  65  94 128 174 226 283 341 404
#     4  10  22  40  65  98 133 173 223 281 349 424
#     4  10  23  41  66  96 132 176 224 279 345 414
#     4  10  24  41  65  95 129 174 226 278 346 407
#     4  10  23  41  64  96 134 177 224 281 349 413
#     4  10  23  41  62  91 130 172 218 275 340 409
#     4  10  24  41  64  92 132 170 222 280 339 407
#
# _framework density 23.217257
#
# number of rings (size 3 to 8) (size 9 to 14) (size 15 to 20)
#    0.000    2.000    0.000    0.857   10.000   10.286 
#    0.000    2.857    0.000    0.000    0.000    0.000 
#    0.000    0.000    0.000    0.000    0.000    0.000 
#
# Total GULP energy -312460.347321 kJ/mol
# GULP energy per Si atom -5579.649059 kJ/mol
# Density = 2.316441 g / cm^3
# Si number density = 23.217257 Si / 1000 Ang^3
#
#
#
# Elastic Constant Matrix: (Units=GPa)
#
#
# Indices 1 2 3 4 5 6 
#
# 1 180.2261 32.4203 23.0488 0.0000 0.0000 0.0000
# 2 32.4203 93.2829 3.5543 0.0000 0.0000 0.0000
# 3 23.0488 3.5543 78.9958 0.0000 0.0000 0.0000
# 4 0.0000 0.0000 0.0000 15.4538 0.0000 0.0000
# 5 0.0000 0.0000 0.0000 0.0000 25.4368 0.0000
# 6 0.0000 0.0000 0.0000 0.0000 0.0000 15.9556
#
#
#
# Elastic Compliance Matrix: (Units=1/GPa)
#
#
# Indices 1 2 3 4 5 6 
#
# 1 0.006138 -0.002068 -0.001698 0.000000 0.000000 0.000000
# 2 -0.002068 0.011436 0.000089 0.000000 0.000000 0.000000
# 3 -0.001698 0.000089 0.013150 0.000000 0.000000 0.000000
# 4 0.000000 0.000000 0.000000 0.064709 0.000000 0.000000
# 5 0.000000 0.000000 0.000000 0.000000 0.039313 0.000000
# 6 0.000000 0.000000 0.000000 0.000000 0.000000 0.062674
#
#
# Mechanical properties :
#
#
# Convention : Reuss Voigt Hill
#
# Bulk Modulus (GPa) = 42.79149 52.28351 47.53750
# Shear Modulus (GPa) = 23.52231 30.93466 27.22848
#
# Velocity S-wave (km/s) = 3.18644 3.65416 3.42829
# Velocity P-wave (km/s) = 5.65763 6.35390 6.01584
#
# Compressibility (1/GPa) = 0.02336913
#
# Stress axis : x y z
#
# Youngs Moduli (GPa) = 162.92469 87.44628 76.04411
#
# Poissons Ratio (x) = 0.18088 0.12911
# Poissons Ratio (y) = 0.33701 -0.00677
# Poissons Ratio (z) = 0.27661 -0.00778
#
# Static dielectric constant tensor:
#      x y z
#    x 1.823780 0.000000 0.000000 
#    y 0.000000 1.994600 0.000000 
#    z 0.000000 0.000000 1.899840 
# 
# From -- ./inp_files/74528.got.cif
#   From: 2010.05.17/outbox.cif.g08.bks.cpg/sg63_38_cif.got.tgz:74528.got - 2010.06.03 15:47:04.
