data_PCOD9474459
_publ_section_title
;
Structure prediction by ZEFSAII (Michael W. Deem and Ramdas Pophale) SiO2 
 PCOD9474459
Probable space group: C M C M
;
_chemical_formula_sum "Si O2"
_cell_formula_units_Z 116
_cell_length_a 24.687529
_cell_length_b 14.696705
_cell_length_c 17.945048
_cell_angle_alpha 90.000000
_cell_angle_beta 90.000000
_cell_angle_gamma 90.000000
_cell_volume 6510.917978
_symmetry_space_group_name_H-M "C M C M"
_symmetry_group_IT_number 63
_symmetry_cell_setting 'orthorhombic'
loop_
_space_group_symop_operation_xyz
x,y,z
-x,-y,1/2+z
x,-y,-z
-x,y,1/2-z
-x,-y,-z
x,y,1/2-z
-x,y,z
x,-y,1/2+z
1/2+x,1/2+y,z
1/2-x,1/2-y,1/2+z
1/2+x,1/2-y,-z
1/2-x,1/2+y,1/2-z
1/2-x,1/2-y,-z
1/2+x,1/2+y,1/2-z
1/2-x,1/2+y,z
1/2+x,1/2-y,1/2+z
loop_
_atom_site_type_symbol
_atom_site_label
_atom_site_fract_x
_atom_site_fract_y
_atom_site_fract_z
Si Si1 0.279785 0.992990 0.913088
Si Si2 0.173107 0.020602 0.331245
Si Si3 0.500000 0.285164 0.750000
Si Si4 0.437302 0.396875 0.490160
Si Si5 0.190630 0.312579 0.838393
Si Si6 0.293132 0.810779 0.338682
Si Si7 0.896009 0.839926 0.165886
Si Si8 0.101158 0.809854 0.635427
O O1 0.217344 0.968693 0.894569
O O2 0.290486 0.090489 0.875758
O O3 0.312445 0.909164 0.878272
O O4 0.289236 0.000000 0.000000
O O5 0.199964 0.034431 0.250000
O O6 0.148452 0.920460 0.332869
O O7 0.125423 0.093361 0.337479
O O8 0.548348 0.287623 0.684456
O O9 0.414527 0.500000 0.500000
O O10 0.500000 0.402223 0.512059
O O11 0.432334 0.364916 0.404851
O O12 0.410591 0.327531 0.548265
O O13 0.197150 0.326557 0.750000
O O14 0.243275 0.254074 0.864125
O O15 0.137108 0.252043 0.848523
O O16 0.286621 0.821979 0.250000
O O17 0.350341 0.761770 0.353611
O O18 0.920240 0.837904 0.250000
#
# Coordination Sequence:
#
# PCOD9474459 Si02
#       8
#    16  16   4  16  16  16  16  16
#     4  12  26  36  55  92 127 161 200 250 301 374
#     4  11  20  36  56  84 122 165 198 240 296 358
#     4  12  24  44  58 100 120 158 228 248 306 368
#     4  11  24  39  56  89 126 163 204 258 310 360
#     4  10  21  39  60  84 120 160 203 248 298 369
#     4  11  22  39  62  88 118 164 204 245 309 369
#     4  10  22  38  60  85 117 168 205 244 301 371
#     4  12  23  38  64  88 126 163 205 261 306 357
#
# _framework density 17.816227999999999
#
# number of rings (size 3 to 8) (size 9 to 14) (size 15 to 20)
#    0.000    0.966    6.207    1.241    3.862    0.828 
#    0.000    0.000    0.000    0.000    1.793    1.448 
#    0.000    0.000    0.000    0.000    0.000    0.000 
#
# Total GULP energy -323236.073530 kJ/mol
# GULP energy per Si atom -5573.035751 kJ/mol
# Density = 1.777568 g / cm^3
# Si number density = 17.816228 Si / 1000 Ang^3
#
#
#
# Elastic Constant Matrix: (Units=GPa)
#
#
# Indices 1 2 3 4 5 6 
#
# 1 30.2383 1.2204 8.7836 0.0000 0.0000 0.0000
# 2 1.2204 86.4915 36.5148 0.0000 0.0000 0.0000
# 3 8.7836 36.5148 99.1274 0.0000 0.0000 0.0000
# 4 0.0000 0.0000 0.0000 25.9241 0.0000 0.0000
# 5 0.0000 0.0000 0.0000 0.0000 27.2309 0.0000
# 6 0.0000 0.0000 0.0000 0.0000 0.0000 9.9808
#
#
#
# Elastic Compliance Matrix: (Units=1/GPa)
#
#
# Indices 1 2 3 4 5 6 
#
# 1 0.034008 0.000938 -0.003359 0.000000 0.000000 0.000000
# 2 0.000938 0.013717 -0.005136 0.000000 0.000000 0.000000
# 3 -0.003359 -0.005136 0.012278 0.000000 0.000000 0.000000
# 4 0.000000 0.000000 0.000000 0.038574 0.000000 0.000000
# 5 0.000000 0.000000 0.000000 0.000000 0.036723 0.000000
# 6 0.000000 0.000000 0.000000 0.000000 0.000000 0.100193
#
#
# Mechanical properties :
#
#
# Convention : Reuss Voigt Hill
#
# Bulk Modulus (GPa) = 22.27694 34.32164 28.29929
# Shear Modulus (GPa) = 18.82749 23.91640 21.37194
#
# Velocity S-wave (km/s) = 3.25431 3.66784 3.46725
# Velocity P-wave (km/s) = 5.16252 6.10275 5.65222
#
# Compressibility (1/GPa) = 0.04488946
#
# Stress axis : x y z
#
# Youngs Moduli (GPa) = 29.40443 72.90292 81.44947
#
# Poissons Ratio (x) = -0.06840 0.27360
# Poissons Ratio (y) = -0.02759 0.41832
# Poissons Ratio (z) = 0.09877 0.37442
#
# Static dielectric constant tensor:
#      x y z
#    x 1.599770 0.000000 0.000000 
#    y 0.000000 1.603700 0.000000 
#    z 0.000000 0.000000 1.654430 
# 
# From -- ./inp_files/48276.got.cif
#   From: 2010.05.17/outbox.cif.g08.bks.cpg/sg63_25_cif.got.tgz:48276.got - 2010.06.03 15:47:04.
