data_PCOD9474372
_publ_section_title
;
Structure prediction by ZEFSAII (Michael W. Deem and Ramdas Pophale) SiO2 
 PCOD9474372
Probable space group: C M C M
;
_chemical_formula_sum "Si O2"
_cell_formula_units_Z 112
_cell_length_a 17.619101
_cell_length_b 12.795586
_cell_length_c 22.460209
_cell_angle_alpha 90.000000
_cell_angle_beta 90.000000
_cell_angle_gamma 90.000000
_cell_volume 5063.580496
_symmetry_space_group_name_H-M "C M C M"
_symmetry_group_IT_number 63
_symmetry_cell_setting 'orthorhombic'
loop_
_space_group_symop_operation_xyz
x,y,z
-x,-y,1/2+z
x,-y,-z
-x,y,1/2-z
-x,-y,-z
x,y,1/2-z
-x,y,z
x,-y,1/2+z
1/2+x,1/2+y,z
1/2-x,1/2-y,1/2+z
1/2+x,1/2-y,-z
1/2-x,1/2+y,1/2-z
1/2-x,1/2-y,-z
1/2+x,1/2+y,1/2-z
1/2-x,1/2+y,z
1/2+x,1/2-y,1/2+z
loop_
_atom_site_type_symbol
_atom_site_label
_atom_site_fract_x
_atom_site_fract_y
_atom_site_fract_z
Si Si1 0.709590 0.913256 0.313054
Si Si2 0.087395 0.917635 0.054511
Si Si3 0.081613 0.629728 0.961250
Si Si4 0.413757 0.052376 0.362769
Si Si5 0.678186 0.203756 0.062670
Si Si6 0.627474 0.479433 0.680975
Si Si7 0.837648 0.220822 0.387441
O O1 0.709229 0.857271 0.250000
O O2 0.699071 0.826050 0.361814
O O3 0.640129 0.993250 0.316904
O O4 0.787744 0.973827 0.319094
O O5 0.147509 0.821840 0.053539
O O6 0.000000 0.880310 0.046050
O O7 0.090791 0.969052 0.121219
O O8 0.102319 0.000000 0.000000
O O9 0.084024 0.530628 0.917883
O O10 0.090882 0.736599 0.923915
O O11 0.000000 0.629151 0.992770
O O12 0.150824 0.637386 0.006019
O O13 0.500000 0.070482 0.343735
O O14 0.370746 0.156285 0.383095
O O15 0.766609 0.180842 0.073856
O O16 0.598425 0.492813 0.750000
O O17 0.636086 0.358440 0.662931
#
# Coordination Sequence:
#
# PCOD9474372 Si02
#       7
#    16  16  16  16  16  16  16
#     4  10  21  40  61  86 123 161 205 261 316 375
#     4  11  25  44  66  94 133 175 218 269 326 384
#     4  10  22  38  59  89 129 166 206 263 324 381
#     4  10  21  38  61  91 124 159 206 261 326 387
#     4  12  21  38  62  91 125 169 212 263 319 390
#     4  11  23  42  65  91 128 170 214 265 321 383
#     4  11  22  39  63  94 117 165 215 265 316 389
#
# _framework density 22.118735999999998
#
# number of rings (size 3 to 8) (size 9 to 14) (size 15 to 20)
#    0.000    1.286    2.857    3.429    0.000    3.429 
#    0.000    0.714    0.000    4.286    0.000    0.000 
#    0.000    0.000    0.000    0.000    0.000    0.000 
#
# Total GULP energy -312481.282229 kJ/mol
# GULP energy per Si atom -5580.022897 kJ/mol
# Density = 2.206839 g / cm^3
# Si number density = 22.118736 Si / 1000 Ang^3
#
#
#
# Elastic Constant Matrix: (Units=GPa)
#
#
# Indices 1 2 3 4 5 6 
#
# 1 85.0773 5.9805 22.8346 0.0000 0.0000 0.0000
# 2 5.9805 56.6617 17.5323 0.0000 0.0000 0.0000
# 3 22.8346 17.5323 103.9499 0.0000 0.0000 0.0000
# 4 0.0000 0.0000 0.0000 31.7120 0.0000 0.0000
# 5 0.0000 0.0000 0.0000 0.0000 7.3382 0.0000
# 6 0.0000 0.0000 0.0000 0.0000 0.0000 20.5722
#
#
#
# Elastic Compliance Matrix: (Units=1/GPa)
#
#
# Indices 1 2 3 4 5 6 
#
# 1 0.012504 -0.000496 -0.002663 0.000000 0.000000 0.000000
# 2 -0.000496 0.018640 -0.003035 0.000000 0.000000 0.000000
# 3 -0.002663 -0.003035 0.010717 0.000000 0.000000 0.000000
# 4 0.000000 0.000000 0.000000 0.031534 0.000000 0.000000
# 5 0.000000 0.000000 0.000000 0.000000 0.136273 0.000000
# 6 0.000000 0.000000 0.000000 0.000000 0.000000 0.048609
#
#
# Mechanical properties :
#
#
# Convention : Reuss Voigt Hill
#
# Bulk Modulus (GPa) = 33.92929 37.59820 35.76375
# Shear Modulus (GPa) = 17.82606 25.21392 21.51999
#
# Velocity S-wave (km/s) = 2.84196 3.37995 3.12257
# Velocity P-wave (km/s) = 5.11292 5.68044 5.40413
#
# Compressibility (1/GPa) = 0.02947306
#
# Stress axis : x y z
#
# Youngs Moduli (GPa) = 79.97683 53.64803 93.31063
#
# Poissons Ratio (x) = 0.02659 0.24849
# Poissons Ratio (y) = 0.03965 0.28319
# Poissons Ratio (z) = 0.21298 0.16282
#
# Static dielectric constant tensor:
#      x y z
#    x 1.787550 0.000000 0.000000 
#    y 0.000000 1.817450 0.000000 
#    z 0.000000 0.000000 1.891910 
# 
# From -- ./inp_files/64624.got.cif
#   From: 2010.05.17/outbox.cif.g08.bks.cpg/sg63_33_cif.got.tgz:64624.got - 2010.06.03 15:47:04.
