data_PCOD9474638
_publ_section_title
;
Structure prediction by ZEFSAII (Michael W. Deem and Ramdas Pophale) SiO2 
 PCOD9474638
Probable space group: C M C M
;
_chemical_formula_sum "Si O2"
_cell_formula_units_Z 104
_cell_length_a 23.856326
_cell_length_b 8.988757
_cell_length_c 25.336320
_cell_angle_alpha 90.000000
_cell_angle_beta 90.000000
_cell_angle_gamma 90.000000
_cell_volume 5433.087963
_symmetry_space_group_name_H-M "C M C M"
_symmetry_group_IT_number 63
_symmetry_cell_setting 'orthorhombic'
loop_
_space_group_symop_operation_xyz
x,y,z
-x,-y,1/2+z
x,-y,-z
-x,y,1/2-z
-x,-y,-z
x,y,1/2-z
-x,y,z
x,-y,1/2+z
1/2+x,1/2+y,z
1/2-x,1/2-y,1/2+z
1/2+x,1/2-y,-z
1/2-x,1/2+y,1/2-z
1/2-x,1/2-y,-z
1/2+x,1/2+y,1/2-z
1/2-x,1/2+y,z
1/2+x,1/2-y,1/2+z
loop_
_atom_site_type_symbol
_atom_site_label
_atom_site_fract_x
_atom_site_fract_y
_atom_site_fract_z
Si Si1 0.319386 0.062400 0.089082
Si Si2 0.266698 0.500000 0.000000
Si Si3 0.131670 0.846092 0.442517
Si Si4 0.765415 0.403372 0.312277
Si Si5 0.667287 0.603582 0.311289
Si Si6 0.912793 0.636235 0.533953
Si Si7 0.563280 0.608364 0.111225
O O1 0.353118 0.214466 0.097714
O O2 0.297467 0.998720 0.143808
O O3 0.359973 0.941040 0.062278
O O4 0.272033 0.083788 0.043248
O O5 0.309542 0.410807 0.037065
O O6 0.105467 0.757310 0.491216
O O7 0.089685 0.973746 0.423470
O O8 0.776458 0.439386 0.250000
O O9 0.700654 0.449622 0.321347
O O10 0.787179 0.235476 0.320801
O O11 0.652435 0.609585 0.250000
O O12 0.611627 0.626062 0.344966
O O13 0.939161 0.500000 0.500000
O O14 0.940522 0.737746 0.578526
O O15 0.500000 0.571061 0.129079
#
# Coordination Sequence:
#
# PCOD9474638 Si02
#       7
#    16   8  16  16  16  16  16
#     4  11  22  34  60  90 130 162 200 253 313 381
#     4  12  20  32  61  90 123 170 204 244 308 374
#     4  11  23  37  55  91 126 162 208 251 305 367
#     4  10  22  39  66  96 128 162 198 257 323 380
#     4  10  23  43  65  96 125 159 205 255 319 377
#     4  10  21  41  58  87 124 161 208 254 308 362
#     4  12  25  43  64  88 122 172 218 258 306 365
#
# _framework density 19.141969
#
# number of rings (size 3 to 8) (size 9 to 14) (size 15 to 20)
#    0.000    1.231    5.385    1.385    4.308    1.846 
#    0.000    2.308    0.000    0.000    0.000    0.000 
#    0.000    0.000    0.000    0.000    0.000    0.000 
#
# Total GULP energy -289813.490667 kJ/mol
# GULP energy per Si atom -5573.336359 kJ/mol
# Density = 1.909840 g / cm^3
# Si number density = 19.141969 Si / 1000 Ang^3
#
#
#
# Elastic Constant Matrix: (Units=GPa)
#
#
# Indices 1 2 3 4 5 6 
#
# 1 134.5650 58.4082 54.1251 0.0000 0.0000 0.0000
# 2 58.4082 85.5291 48.7588 0.0000 0.0000 0.0000
# 3 54.1251 48.7588 86.6802 0.0000 0.0000 0.0000
# 4 0.0000 0.0000 0.0000 26.5074 0.0000 0.0000
# 5 0.0000 0.0000 0.0000 0.0000 -16.0404 0.0000
# 6 0.0000 0.0000 0.0000 0.0000 0.0000 30.9057
#
#
#
# Elastic Compliance Matrix: (Units=1/GPa)
#
#
# Indices 1 2 3 4 5 6 
#
# 1 0.011453 -0.005512 -0.004051 0.000000 0.000000 0.000000
# 2 -0.005512 0.019864 -0.007732 0.000000 0.000000 0.000000
# 3 -0.004051 -0.007732 0.018416 0.000000 0.000000 0.000000
# 4 0.000000 0.000000 0.000000 0.037725 0.000000 0.000000
# 5 0.000000 0.000000 0.000000 0.000000 -0.062343 0.000000
# 6 0.000000 0.000000 0.000000 0.000000 0.000000 0.032356
#
#
# Mechanical properties :
#
#
# Convention : Reuss Voigt Hill
#
# Bulk Modulus (GPa) = 66.03829 69.92871 67.98350
# Shear Modulus (GPa) = 51.48812 17.97335 34.73073
#
# Velocity S-wave (km/s) = 5.19196 3.06755 4.26417
# Velocity P-wave (km/s) = 8.39738 7.01124 7.73542
#
# Compressibility (1/GPa) = 0.01514273
#
# Stress axis : x y z
#
# Youngs Moduli (GPa) = 87.31091 50.34246 54.30189
#
# Poissons Ratio (x) = 0.27749 0.21998
# Poissons Ratio (y) = 0.48126 0.41986
# Poissons Ratio (z) = 0.35371 0.38924
#
# Static dielectric constant tensor:
#      x y z
#    x 1.667770 0.000000 0.000000 
#    y 0.000000 1.718110 0.000000 
#    z 0.000000 0.000000 1.688570 
# 
# From -- ./inp_files/70711.got.cif
#   From: 2010.05.17/outbox.cif.g08.bks.cpg/sg63_36_cif.got.tgz:70711.got - 2010.06.03 15:47:04.
