data_PCOD9474132
_publ_section_title
;
Structure prediction by ZEFSAII (Michael W. Deem and Ramdas Pophale) SiO2 
 PCOD9474132
Probable space group: C M C M
;
_chemical_formula_sum "Si O2"
_cell_formula_units_Z 88
_cell_length_a 27.362468
_cell_length_b 19.637099
_cell_length_c 9.065229
_cell_angle_alpha 90.000000
_cell_angle_beta 90.000000
_cell_angle_gamma 90.000000
_cell_volume 4870.924250
_symmetry_space_group_name_H-M "C M C M"
_symmetry_group_IT_number 63
_symmetry_cell_setting 'orthorhombic'
loop_
_space_group_symop_operation_xyz
x,y,z
-x,-y,1/2+z
x,-y,-z
-x,y,1/2-z
-x,-y,-z
x,y,1/2-z
-x,y,z
x,-y,1/2+z
1/2+x,1/2+y,z
1/2-x,1/2-y,1/2+z
1/2+x,1/2-y,-z
1/2-x,1/2+y,1/2-z
1/2-x,1/2-y,-z
1/2+x,1/2+y,1/2-z
1/2-x,1/2+y,z
1/2+x,1/2-y,1/2+z
loop_
_atom_site_type_symbol
_atom_site_label
_atom_site_fract_x
_atom_site_fract_y
_atom_site_fract_z
Si Si1 0.886810 0.305446 0.073324
Si Si2 0.558857 0.070191 0.421815
Si Si3 0.596672 0.659806 0.572422
Si Si4 0.227126 0.683313 0.572985
Si Si5 0.306289 0.573624 0.572787
Si Si6 0.000000 0.074156 0.927383
O O1 0.892023 0.304366 0.250000
O O2 0.829992 0.320055 0.036637
O O3 0.918781 0.365176 0.003504
O O4 0.901273 0.232467 0.006546
O O5 0.573001 0.069675 0.250000
O O6 0.500000 0.073778 0.429584
O O7 0.574295 0.000000 0.500000
O O8 0.596413 0.670156 0.750000
O O9 0.645165 0.616724 0.534405
O O10 0.548459 0.616826 0.532592
O O11 0.231585 0.689551 0.750000
O O12 0.250000 0.750000 0.500000
O O13 0.259045 0.617918 0.528019
O O14 0.307146 0.500000 0.500000
O O15 0.305783 0.566033 0.750000
O O16 0.000000 0.066053 0.750000
O O17 0.000000 0.000000 0.000000
#
# Coordination Sequence:
#
# PCOD9474132 Si02
#       6
#    16  16  16  16  16   8
#     4  11  23  37  59  90 121 153 196 244 291 350
#     4  10  22  41  64  88 118 156 195 239 292 350
#     4  10  21  38  58  83 117 156 195 239 291 347
#     4  10  21  38  58  83 115 152 195 239 287 343
#     4  10  21  37  58  83 114 151 193 237 287 342
#     4  10  22  38  58  84 115 152 195 240 290 348
#
# _framework density 18.066386999999999
#
# number of rings (size 3 to 8) (size 9 to 14) (size 15 to 20)
#    0.000    1.818    1.818    1.636    1.273    4.727 
#    0.000    1.818    0.000    0.000    0.000    0.000 
#    0.000    0.000    0.000    0.000    0.000    0.000 
#
# Total GULP energy -245798.231520 kJ/mol
# GULP energy per Si atom -5586.323444 kJ/mol
# Density = 1.802527 g / cm^3
# Si number density = 18.066387 Si / 1000 Ang^3
#
#
#
# Elastic Constant Matrix: (Units=GPa)
#
#
# Indices 1 2 3 4 5 6 
#
# 1 94.8674 80.7710 48.9872 0.0000 0.0000 0.0000
# 2 80.7710 206.9955 72.8005 0.0000 0.0000 0.0000
# 3 48.9872 72.8005 51.4682 0.0000 0.0000 0.0000
# 4 0.0000 0.0000 0.0000 43.5165 0.0000 0.0000
# 5 0.0000 0.0000 0.0000 0.0000 19.6774 0.0000
# 6 0.0000 0.0000 0.0000 0.0000 0.0000 35.2454
#
#
#
# Elastic Compliance Matrix: (Units=1/GPa)
#
#
# Indices 1 2 3 4 5 6 
#
# 1 0.021288 -0.002349 -0.016939 0.000000 0.000000 0.000000
# 2 -0.002349 0.009873 -0.011729 0.000000 0.000000 0.000000
# 3 -0.016939 -0.011729 0.052141 0.000000 0.000000 0.000000
# 4 0.000000 0.000000 0.000000 0.022980 0.000000 0.000000
# 5 0.000000 0.000000 0.000000 0.000000 0.050820 0.000000
# 6 0.000000 0.000000 0.000000 0.000000 0.000000 0.028372
#
#
# Mechanical properties :
#
#
# Convention : Reuss Voigt Hill
#
# Bulk Modulus (GPa) = 47.01714 84.27203 65.64458
# Shear Modulus (GPa) = 19.63885 29.73934 24.68910
#
# Velocity S-wave (km/s) = 3.30060 4.06164 3.70073
# Velocity P-wave (km/s) = 6.37232 8.29113 7.39423
#
# Compressibility (1/GPa) = 0.02126884
#
# Stress axis : x y z
#
# Youngs Moduli (GPa) = 46.97471 101.28928 19.17859
#
# Poissons Ratio (x) = 0.23797 0.32486
# Poissons Ratio (y) = 0.11036 0.22494
# Poissons Ratio (z) = 0.79569 1.18798
#
# Static dielectric constant tensor:
#      x y z
#    x 1.618810 0.000000 0.000000 
#    y 0.000000 1.568100 0.000000 
#    z 0.000000 0.000000 1.605400 
# 
# From -- ./inp_files/14242.got.cif
#   From: 2010.05.17/outbox.cif.g08.bks.cpg/sg63_8_cif.got.tgz:14242.got - 2010.06.03 15:47:04.
