data_PCOD9474906
_publ_section_title
;
Structure prediction by ZEFSAII (Michael W. Deem and Ramdas Pophale) SiO2 
 PCOD9474906
Probable space group: C M C M
;
_chemical_formula_sum "Si O2"
_cell_formula_units_Z 80
_cell_length_a 25.925292
_cell_length_b 10.869317
_cell_length_c 15.192403
_cell_angle_alpha 90.000000
_cell_angle_beta 90.000000
_cell_angle_gamma 90.000000
_cell_volume 4281.070539
_symmetry_space_group_name_H-M "C M C M"
_symmetry_group_IT_number 63
_symmetry_cell_setting 'orthorhombic'
loop_
_space_group_symop_operation_xyz
x,y,z
-x,-y,1/2+z
x,-y,-z
-x,y,1/2-z
-x,-y,-z
x,y,1/2-z
-x,y,z
x,-y,1/2+z
1/2+x,1/2+y,z
1/2-x,1/2-y,1/2+z
1/2+x,1/2-y,-z
1/2-x,1/2+y,1/2-z
1/2-x,1/2-y,-z
1/2+x,1/2+y,1/2-z
1/2-x,1/2+y,z
1/2+x,1/2-y,1/2+z
loop_
_atom_site_type_symbol
_atom_site_label
_atom_site_fract_x
_atom_site_fract_y
_atom_site_fract_z
Si Si1 0.440538 0.855007 0.014496
Si Si2 0.342699 0.484121 0.354484
Si Si3 0.440510 0.324569 0.147104
Si Si4 0.756369 0.376455 0.445495
Si Si5 0.852323 0.268971 0.353887
O O1 0.500000 0.830385 0.041003
O O2 0.431858 0.784816 0.922014
O O3 0.400259 0.810542 0.087049
O O4 0.434687 0.000000 0.000000
O O5 0.334757 0.474863 0.250000
O O6 0.399071 0.429620 0.373869
O O7 0.298201 0.407516 0.401187
O O8 0.339937 0.627312 0.378067
O O9 0.433372 0.287954 0.250000
O O10 0.500000 0.365898 0.138026
O O11 0.770053 0.500000 0.500000
O O12 0.750000 0.250000 0.500000
O O13 0.802353 0.349819 0.377289
O O14 0.863754 0.274404 0.250000
#
# Coordination Sequence:
#
# PCOD9474906 Si02
#       5
#    16  16  16  16  16
#     4  10  22  40  61  88 123 161 204 254 308 370
#     4  10  22  40  60  87 124 158 200 255 310 369
#     4   9  19  37  63  91 119 157 202 250 309 372
#     4  12  23  40  63  88 121 162 208 259 312 370
#     4  11  24  41  61  90 125 163 208 254 309 374
#
# _framework density 18.686916
#
# number of rings (size 3 to 8) (size 9 to 14) (size 15 to 20)
#    0.000    1.600    2.000    2.400    0.000    2.000 
#    0.000    8.000    0.000    0.000    0.000    0.000 
#    0.000    0.000    0.000    0.000    0.000    0.000 
#
# Total GULP energy -223389.577654 kJ/mol
# GULP energy per Si atom -5584.739441 kJ/mol
# Density = 1.864438 g / cm^3
# Si number density = 18.686916 Si / 1000 Ang^3
#
#
#
# Elastic Constant Matrix: (Units=GPa)
#
#
# Indices 1 2 3 4 5 6 
#
# 1 135.2976 69.1343 79.4741 0.0000 0.0000 0.0000
# 2 69.1343 120.0059 53.6459 0.0000 0.0000 0.0000
# 3 79.4741 53.6459 81.2336 0.0000 0.0000 0.0000
# 4 0.0000 0.0000 0.0000 31.3980 0.0000 0.0000
# 5 0.0000 0.0000 0.0000 0.0000 39.1580 0.0000
# 6 0.0000 0.0000 0.0000 0.0000 0.0000 35.3131
#
#
#
# Elastic Compliance Matrix: (Units=1/GPa)
#
#
# Indices 1 2 3 4 5 6 
#
# 1 0.018427 -0.003628 -0.015633 0.000000 0.000000 0.000000
# 2 -0.003628 0.012537 -0.004731 0.000000 0.000000 0.000000
# 3 -0.015633 -0.004731 0.030728 0.000000 0.000000 0.000000
# 4 0.000000 0.000000 0.000000 0.031849 0.000000 0.000000
# 5 0.000000 0.000000 0.000000 0.000000 0.025538 0.000000
# 6 0.000000 0.000000 0.000000 0.000000 0.000000 0.028318
#
#
# Mechanical properties :
#
#
# Convention : Reuss Voigt Hill
#
# Bulk Modulus (GPa) = 72.93172 82.33839 77.63506
# Shear Modulus (GPa) = 25.00628 30.12601 27.56615
#
# Velocity S-wave (km/s) = 3.66207 4.01951 3.84494
# Velocity P-wave (km/s) = 7.54943 8.10553 7.83242
#
# Compressibility (1/GPa) = 0.01371146
#
# Stress axis : x y z
#
# Youngs Moduli (GPa) = 54.26712 79.76099 32.54350
#
# Poissons Ratio (x) = 0.28935 0.50874
# Poissons Ratio (y) = 0.19686 0.15395
# Poissons Ratio (z) = 0.84833 0.37731
#
# Static dielectric constant tensor:
#      x y z
#    x 1.632630 0.000000 0.000000 
#    y 0.000000 1.627270 0.000000 
#    z 0.000000 0.000000 1.647020 
# 
# From -- ./inp_files/36450.got.cif
#   From: 2010.05.17/outbox.cif.g08.bks.cpg/sg63_19_cif.got.tgz:36450.got - 2010.06.03 15:47:04.
