data_PCOD9474810
_publ_section_title
;
Structure prediction by ZEFSAII (Michael W. Deem and Ramdas Pophale) SiO2 
 PCOD9474810
Probable space group: C M C M
;
_chemical_formula_sum "Si O2"
_cell_formula_units_Z 96
_cell_length_a 16.069631
_cell_length_b 17.519547
_cell_length_c 15.904214
_cell_angle_alpha 90.000000
_cell_angle_beta 90.000000
_cell_angle_gamma 90.000000
_cell_volume 4477.555602
_symmetry_space_group_name_H-M "C M C M"
_symmetry_group_IT_number 63
_symmetry_cell_setting 'orthorhombic'
loop_
_space_group_symop_operation_xyz
x,y,z
-x,-y,1/2+z
x,-y,-z
-x,y,1/2-z
-x,-y,-z
x,y,1/2-z
-x,y,z
x,-y,1/2+z
1/2+x,1/2+y,z
1/2-x,1/2-y,1/2+z
1/2+x,1/2-y,-z
1/2-x,1/2+y,1/2-z
1/2-x,1/2-y,-z
1/2+x,1/2+y,1/2-z
1/2-x,1/2+y,z
1/2+x,1/2-y,1/2+z
loop_
_atom_site_type_symbol
_atom_site_label
_atom_site_fract_x
_atom_site_fract_y
_atom_site_fract_z
Si Si1 0.844701 0.357050 0.346566
Si Si2 0.500000 0.570890 0.352533
Si Si3 0.401574 0.022004 0.148495
Si Si4 0.788135 0.654527 0.079920
Si Si5 0.326111 0.672441 0.581970
Si Si6 0.372411 0.307602 0.845327
Si Si7 0.500000 0.605196 0.853321
O O1 0.872383 0.358494 0.250000
O O2 0.875281 0.437249 0.382218
O O3 0.744848 0.349036 0.349870
O O4 0.878545 0.277140 0.384523
O O5 0.500000 0.566302 0.250000
O O6 0.576567 0.622537 0.382624
O O7 0.500000 0.483946 0.378538
O O8 0.384923 0.027397 0.250000
O O9 0.500000 0.032238 0.136543
O O10 0.348668 0.085611 0.100139
O O11 0.833030 0.736151 0.071993
O O12 0.723012 0.668068 0.154755
O O13 0.724795 0.644738 0.001158
O O14 0.415202 0.640069 0.608121
O O15 0.402047 0.299592 0.750000
O O16 0.500000 0.613039 0.750000
#
# Coordination Sequence:
#
# PCOD9474810 Si02
#       7
#    16   8  16  16  16  16   8
#     4   9  19  37  61  88 122 164 212 264 319 384
#     4   9  20  35  57  92 122 155 208 267 318 370
#     4  10  22  38  64  98 126 158 212 275 326 378
#     4  10  22  41  61  87 127 166 209 258 325 399
#     4  10  23  42  62  89 125 170 211 257 327 389
#     4   9  18  35  60  85 118 167 216 260 314 377
#     4  11  24  41  67 100 131 163 216 277 323 371
#
# _framework density 21.440270000000002
#
# number of rings (size 3 to 8) (size 9 to 14) (size 15 to 20)
#    0.000    2.333    0.000    1.000    4.667    3.333 
#    0.000    2.500    0.000    0.000    0.000    0.000 
#    0.000    0.000    0.000    0.000    0.000    0.000 
#
# Total GULP energy -267510.691380 kJ/mol
# GULP energy per Si atom -5573.139404 kJ/mol
# Density = 2.139147 g / cm^3
# Si number density = 21.440270 Si / 1000 Ang^3
#
#
#
# Elastic Constant Matrix: (Units=GPa)
#
#
# Indices 1 2 3 4 5 6 
#
# 1 138.7914 111.7773 40.5443 0.0000 0.0000 0.0000
# 2 111.7773 188.4359 52.3839 0.0000 0.0000 0.0000
# 3 40.5443 52.3839 70.5882 0.0000 0.0000 0.0000
# 4 0.0000 0.0000 0.0000 10.4276 0.0000 0.0000
# 5 0.0000 0.0000 0.0000 0.0000 28.3192 0.0000
# 6 0.0000 0.0000 0.0000 0.0000 0.0000 37.2923
#
#
#
# Elastic Compliance Matrix: (Units=1/GPa)
#
#
# Indices 1 2 3 4 5 6 
#
# 1 0.014107 -0.007705 -0.002385 0.000000 0.000000 0.000000
# 2 -0.007705 0.010895 -0.003659 0.000000 0.000000 0.000000
# 3 -0.002385 -0.003659 0.018252 0.000000 0.000000 0.000000
# 4 0.000000 0.000000 0.000000 0.095900 0.000000 0.000000
# 5 0.000000 0.000000 0.000000 0.000000 0.035312 0.000000
# 6 0.000000 0.000000 0.000000 0.000000 0.000000 0.026815
#
#
# Mechanical properties :
#
#
# Convention : Reuss Voigt Hill
#
# Bulk Modulus (GPa) = 63.47061 89.69182 76.58122
# Shear Modulus (GPa) = 21.36469 28.08180 24.72325
#
# Velocity S-wave (km/s) = 3.16012 3.62300 3.39945
# Velocity P-wave (km/s) = 6.55613 7.70880 7.15572
#
# Compressibility (1/GPa) = 0.01575532
#
# Stress axis : x y z
#
# Youngs Moduli (GPa) = 70.88579 91.78740 54.78837
#
# Poissons Ratio (x) = 0.70724 0.13066
# Poissons Ratio (y) = 0.54619 0.20049
# Poissons Ratio (z) = 0.16905 0.33588
#
# Static dielectric constant tensor:
#      x y z
#    x 1.762360 0.000000 0.000000 
#    y 0.000000 1.775410 0.000000 
#    z 0.000000 0.000000 1.905280 
# 
# From -- ./inp_files/54249.got.cif
#   From: 2010.05.17/outbox.cif.g08.bks.cpg/sg63_28_cif.got.tgz:54249.got - 2010.06.03 15:47:04.
