data_PCOD9474092
_publ_section_title
;
Structure prediction by ZEFSAII (Michael W. Deem and Ramdas Pophale) SiO2 
 PCOD9474092
Probable space group: C M C M
;
_chemical_formula_sum "Si O2"
_cell_formula_units_Z 96
_cell_length_a 25.555725
_cell_length_b 24.217525
_cell_length_c 8.885994
_cell_angle_alpha 90.000000
_cell_angle_beta 90.000000
_cell_angle_gamma 90.000000
_cell_volume 5499.509778
_symmetry_space_group_name_H-M "C M C M"
_symmetry_group_IT_number 63
_symmetry_cell_setting 'orthorhombic'
loop_
_space_group_symop_operation_xyz
x,y,z
-x,-y,1/2+z
x,-y,-z
-x,y,1/2-z
-x,-y,-z
x,y,1/2-z
-x,y,z
x,-y,1/2+z
1/2+x,1/2+y,z
1/2-x,1/2-y,1/2+z
1/2+x,1/2-y,-z
1/2-x,1/2+y,1/2-z
1/2-x,1/2-y,-z
1/2+x,1/2+y,1/2-z
1/2-x,1/2+y,z
1/2+x,1/2-y,1/2+z
loop_
_atom_site_type_symbol
_atom_site_label
_atom_site_fract_x
_atom_site_fract_y
_atom_site_fract_z
Si Si1 0.938475 0.559666 0.929327
Si Si2 0.939091 0.059019 0.070402
Si Si3 0.648134 0.366329 0.069771
Si Si4 0.847587 0.628144 0.069332
Si Si5 0.248830 0.439394 0.069788
Si Si6 0.692125 0.248964 0.431231
O O1 0.930481 0.557599 0.750000
O O2 0.000000 0.569852 0.958604
O O3 0.925198 0.500000 0.000000
O O4 0.901423 0.605142 0.002776
O O5 0.935149 0.055318 0.250000
O O6 0.000000 0.068781 0.030135
O O7 0.901336 0.106187 0.009026
O O8 0.923514 0.000000 0.000000
O O9 0.640087 0.366969 0.250000
O O10 0.699417 0.403362 0.037720
O O11 0.660869 0.303798 0.021881
O O12 0.847646 0.623203 0.250000
O O13 0.836178 0.691794 0.028791
O O14 0.800850 0.591397 0.001346
O O15 0.242518 0.443005 0.250000
O O16 0.254022 0.500000 0.000000
O O17 0.697169 0.250945 0.250000
O O18 0.750000 0.250000 0.500000
#
# Coordination Sequence:
#
# PCOD9474092 Si02
#       6
#    16  16  16  16  16  16
#     4  10  21  38  60  84 112 147 186 230 281 333
#     4  10  21  37  58  84 113 147 186 229 280 334
#     4  10  21  37  57  82 111 145 187 230 276 329
#     4  11  22  36  57  83 112 146 186 228 276 332
#     4  11  22  35  53  79 113 145 180 228 278 333
#     4  10  21  38  58  82 111 148 189 229 276 328
#
# _framework density 17.456102000000001
#
# number of rings (size 3 to 8) (size 9 to 14) (size 15 to 20)
#    0.000    1.667    1.667    3.000    0.000    6.000 
#    0.000    0.833    0.000    5.000    0.000    0.000 
#    0.000    0.000    0.000    0.000    0.000    0.000 
#
# Total GULP energy -268201.356354 kJ/mol
# GULP energy per Si atom -5587.528257 kJ/mol
# Density = 1.741637 g / cm^3
# Si number density = 17.456102 Si / 1000 Ang^3
#
#
#
# Elastic Constant Matrix: (Units=GPa)
#
#
# Indices 1 2 3 4 5 6 
#
# 1 97.2089 85.5914 51.0044 0.0000 0.0000 0.0000
# 2 85.5914 176.7816 61.7246 0.0000 0.0000 0.0000
# 3 51.0044 61.7246 51.1744 0.0000 0.0000 0.0000
# 4 0.0000 0.0000 0.0000 19.8089 0.0000 0.0000
# 5 0.0000 0.0000 0.0000 0.0000 32.3308 0.0000
# 6 0.0000 0.0000 0.0000 0.0000 0.0000 20.5163
#
#
#
# Elastic Compliance Matrix: (Units=1/GPa)
#
#
# Indices 1 2 3 4 5 6 
#
# 1 0.024563 -0.005778 -0.017512 0.000000 0.000000 0.000000
# 2 -0.005778 0.011131 -0.007667 0.000000 0.000000 0.000000
# 3 -0.017512 -0.007667 0.046243 0.000000 0.000000 0.000000
# 4 0.000000 0.000000 0.000000 0.050482 0.000000 0.000000
# 5 0.000000 0.000000 0.000000 0.000000 0.030930 0.000000
# 6 0.000000 0.000000 0.000000 0.000000 0.000000 0.048742
#
#
# Mechanical properties :
#
#
# Convention : Reuss Voigt Hill
#
# Bulk Modulus (GPa) = 49.94432 80.20064 65.07248
# Shear Modulus (GPa) = 17.81382 22.98752 20.40067
#
# Velocity S-wave (km/s) = 3.19798 3.63282 3.42231
# Velocity P-wave (km/s) = 6.50458 7.97749 7.27839
#
# Compressibility (1/GPa) = 0.02002230
#
# Stress axis : x y z
#
# Youngs Moduli (GPa) = 40.71140 89.83654 21.62487
#
# Poissons Ratio (x) = 0.51908 0.37870
# Poissons Ratio (y) = 0.23523 0.16580
# Poissons Ratio (z) = 0.71295 0.68880
#
# Static dielectric constant tensor:
#      x y z
#    x 1.570780 0.000000 0.000000 
#    y 0.000000 1.577700 0.000000 
#    z 0.000000 0.000000 1.590080 
# 
# From -- ./inp_files/10507.got.cif
#   From: 2010.05.17/outbox.cif.g08.bks.cpg/sg63_6_cif.got.tgz:10507.got - 2010.06.03 15:47:04.
