data_PCOD9474113
_publ_section_title
;
Structure prediction by ZEFSAII (Michael W. Deem and Ramdas Pophale) SiO2 
 PCOD9474113
Probable space group: C M C M
;
_chemical_formula_sum "Si O2"
_cell_formula_units_Z 80
_cell_length_a 17.052837
_cell_length_b 9.715741
_cell_length_c 26.461767
_cell_angle_alpha 90.000000
_cell_angle_beta 90.000000
_cell_angle_gamma 90.000000
_cell_volume 4384.210632
_symmetry_space_group_name_H-M "C M C M"
_symmetry_group_IT_number 63
_symmetry_cell_setting 'orthorhombic'
loop_
_space_group_symop_operation_xyz
x,y,z
-x,-y,1/2+z
x,-y,-z
-x,y,1/2-z
-x,-y,-z
x,y,1/2-z
-x,y,z
x,-y,1/2+z
1/2+x,1/2+y,z
1/2-x,1/2-y,1/2+z
1/2+x,1/2-y,-z
1/2-x,1/2+y,1/2-z
1/2-x,1/2-y,-z
1/2+x,1/2+y,1/2-z
1/2-x,1/2+y,z
1/2+x,1/2-y,1/2+z
loop_
_atom_site_type_symbol
_atom_site_label
_atom_site_fract_x
_atom_site_fract_y
_atom_site_fract_z
Si Si1 0.304849 0.039272 0.370418
Si Si2 0.590433 0.759719 0.692224
Si Si3 0.147862 0.045282 0.191203
Si Si4 0.293633 0.634111 0.033021
Si Si5 0.407429 0.232270 0.610851
O O1 0.355747 0.162026 0.347202
O O2 0.233668 0.013092 0.331530
O O3 0.264997 0.084696 0.422685
O O4 0.359070 0.906724 0.378342
O O5 0.613977 0.794866 0.750000
O O6 0.500000 0.798983 0.685539
O O7 0.599647 0.596041 0.687054
O O8 0.152524 0.084861 0.250000
O O9 0.109744 0.163570 0.157112
O O10 0.368753 0.698532 0.061242
O O11 0.313433 0.500000 0.000000
O O12 0.250000 0.750000 0.000000
O O13 0.500000 0.208376 0.605641
#
# Coordination Sequence:
#
# PCOD9474113 Si02
#       5
#    16  16  16  16  16
#     4  11  22  38  63  87 118 156 201 248 294 363
#     4  10  21  37  57  85 121 157 193 237 292 352
#     4  10  21  38  60  87 121 163 204 240 288 356
#     4  11  23  44  66  87 117 157 202 251 306 364
#     4  11  24  40  61  93 125 155 199 256 311 360
#
# _framework density 18.247299000000002
#
# number of rings (size 3 to 8) (size 9 to 14) (size 15 to 20)
#    0.000    1.400    2.000    4.200    2.800    4.800 
#    0.000    3.000    0.000    0.000    0.000    0.000 
#    0.000    0.000    0.000    0.000    0.000    0.000 
#
# Total GULP energy -223515.299818 kJ/mol
# GULP energy per Si atom -5587.882495 kJ/mol
# Density = 1.820577 g / cm^3
# Si number density = 18.247299 Si / 1000 Ang^3
#
#
#
# Elastic Constant Matrix: (Units=GPa)
#
#
# Indices 1 2 3 4 5 6 
#
# 1 103.1110 17.3531 28.1320 0.0000 0.0000 0.0000
# 2 17.3531 50.8596 16.3524 0.0000 0.0000 0.0000
# 3 28.1320 16.3524 88.0742 0.0000 0.0000 0.0000
# 4 0.0000 0.0000 0.0000 37.2799 0.0000 0.0000
# 5 0.0000 0.0000 0.0000 0.0000 13.3706 0.0000
# 6 0.0000 0.0000 0.0000 0.0000 0.0000 -5.8323
#
#
#
# Elastic Compliance Matrix: (Units=1/GPa)
#
#
# Indices 1 2 3 4 5 6 
#
# 1 0.010983 -0.002786 -0.002991 0.000000 0.000000 0.000000
# 2 -0.002786 0.021617 -0.003124 0.000000 0.000000 0.000000
# 3 -0.002991 -0.003124 0.012889 0.000000 0.000000 0.000000
# 4 0.000000 0.000000 0.000000 0.026824 0.000000 0.000000
# 5 0.000000 0.000000 0.000000 0.000000 0.074791 0.000000
# 6 0.000000 0.000000 0.000000 0.000000 0.000000 -0.171460
#
#
# Mechanical properties :
#
#
# Convention : Reuss Voigt Hill
#
# Bulk Modulus (GPa) = 36.11605 40.63553 38.37579
# Shear Modulus (GPa) = 1869.13132 20.97747 945.05439
#
# Velocity S-wave (km/s) = 32.03993 3.39428 22.78243
# Velocity P-wave (km/s) = 37.26363 6.13834 26.70447
#
# Compressibility (1/GPa) = 0.02768852
#
# Stress axis : x y z
#
# Youngs Moduli (GPa) = 91.04864 46.26036 77.58328
#
# Poissons Ratio (x) = 0.12887 0.23205
# Poissons Ratio (y) = 0.25364 0.24235
# Poissons Ratio (z) = 0.27232 0.14450
#
# Static dielectric constant tensor:
#      x y z
#    x 1.613310 0.000000 0.000000 
#    y 0.000000 1.610720 0.000000 
#    z 0.000000 0.000000 1.615850 
# 
# From -- ./inp_files/69741.got.cif
#   From: 2010.05.17/outbox.cif.g08.bks.cpg/sg63_35_cif.got.tgz:69741.got - 2010.06.03 15:47:04.
