data_PCOD9474886
_publ_section_title
;
Structure prediction by ZEFSAII (Michael W. Deem and Ramdas Pophale) SiO2 
 PCOD9474886
Probable space group: C M C M
;
_chemical_formula_sum "Si O2"
_cell_formula_units_Z 80
_cell_length_a 15.004090
_cell_length_b 8.842647
_cell_length_c 29.253968
_cell_angle_alpha 90.000000
_cell_angle_beta 90.000000
_cell_angle_gamma 90.000000
_cell_volume 3881.295697
_symmetry_space_group_name_H-M "C M C M"
_symmetry_group_IT_number 63
_symmetry_cell_setting 'orthorhombic'
loop_
_space_group_symop_operation_xyz
x,y,z
-x,-y,1/2+z
x,-y,-z
-x,y,1/2-z
-x,-y,-z
x,y,1/2-z
-x,y,z
x,-y,1/2+z
1/2+x,1/2+y,z
1/2-x,1/2-y,1/2+z
1/2+x,1/2-y,-z
1/2-x,1/2+y,1/2-z
1/2-x,1/2-y,-z
1/2+x,1/2+y,1/2-z
1/2-x,1/2+y,z
1/2+x,1/2-y,1/2+z
loop_
_atom_site_type_symbol
_atom_site_label
_atom_site_fract_x
_atom_site_fract_y
_atom_site_fract_z
Si Si1 0.500000 0.784292 0.933821
Si Si2 0.346949 0.031634 0.548367
Si Si3 0.000000 0.825775 0.631118
Si Si4 0.824988 0.316625 0.802944
Si Si5 0.822913 0.371971 0.144271
Si Si6 0.000000 0.150137 0.667763
Si Si7 0.500000 0.721515 0.468252
O O1 0.500000 0.710438 0.884471
O O2 0.586966 0.893381 0.938219
O O3 0.500000 0.676420 0.978620
O O4 0.292527 0.075395 0.593382
O O5 0.414109 0.169373 0.537373
O O6 0.298880 0.000000 0.500000
O O7 0.913617 0.722222 0.638713
O O8 0.000000 0.876483 0.577688
O O9 0.000000 0.969699 0.663841
O O10 0.800126 0.333027 0.750000
O O11 0.839972 0.479571 0.825703
O O12 0.748960 0.231817 0.831306
O O13 0.913329 0.216433 0.807976
#
# Coordination Sequence:
#
# PCOD9474886 Si02
#       7
#     8  16   8  16  16   8   8
#     4   9  14  30  59  93 123 164 202 247 304 362
#     4   8  14  30  60  93 124 161 201 245 304 374
#     4  10  22  39  65  95 127 167 201 251 307 373
#     4  12  26  44  65  90 121 162 212 267 319 370
#     4  11  22  43  67  92 126 165 205 258 315 373
#     4  12  23  40  65  92 127 162 215 258 311 371
#     4   7  14  27  55  90 127 161 204 240 294 369
#
# _framework density 20.611674000000001
#
# number of rings (size 3 to 8) (size 9 to 14) (size 15 to 20)
#    0.000    2.000    2.000    4.500    0.000    0.400 
#    0.000    5.500    4.400    0.000    0.000    0.000 
#    0.000    0.000    0.000    0.000    0.000    0.000 
#
# Total GULP energy -223362.541068 kJ/mol
# GULP energy per Si atom -5584.063527 kJ/mol
# Density = 2.056476 g / cm^3
# Si number density = 20.611674 Si / 1000 Ang^3
#
#
#
# Elastic Constant Matrix: (Units=GPa)
#
#
# Indices 1 2 3 4 5 6 
#
# 1 66.4232 20.2191 33.8872 0.0000 0.0000 0.0000
# 2 20.2191 94.6342 39.4368 0.0000 0.0000 0.0000
# 3 33.8872 39.4368 172.8435 0.0000 0.0000 0.0000
# 4 0.0000 0.0000 0.0000 22.2453 0.0000 0.0000
# 5 0.0000 0.0000 0.0000 0.0000 30.2870 0.0000
# 6 0.0000 0.0000 0.0000 0.0000 0.0000 -41.3949
#
#
#
# Elastic Compliance Matrix: (Units=1/GPa)
#
#
# Indices 1 2 3 4 5 6 
#
# 1 0.017254 -0.002516 -0.002809 0.000000 0.000000 0.000000
# 2 -0.002516 0.012044 -0.002255 0.000000 0.000000 0.000000
# 3 -0.002809 -0.002255 0.006851 0.000000 0.000000 0.000000
# 4 0.000000 0.000000 0.000000 0.044953 0.000000 0.000000
# 5 0.000000 0.000000 0.000000 0.000000 0.033017 0.000000
# 6 0.000000 0.000000 0.000000 0.000000 0.000000 -0.024158
#
#
# Mechanical properties :
#
#
# Convention : Reuss Voigt Hill
#
# Bulk Modulus (GPa) = 47.64202 57.88746 52.76474
# Shear Modulus (GPa) = 44.59626 18.25135 31.42380
#
# Velocity S-wave (km/s) = 4.65654 2.97894 3.90880
# Velocity P-wave (km/s) = 7.21633 6.32281 6.78430
#
# Compressibility (1/GPa) = 0.02098987
#
# Stress axis : x y z
#
# Youngs Moduli (GPa) = 57.95852 83.02769 145.97027
#
# Poissons Ratio (x) = 0.20889 0.40998
# Poissons Ratio (y) = 0.14582 0.32913
# Poissons Ratio (z) = 0.16279 0.18721
#
# Static dielectric constant tensor:
#      x y z
#    x 1.730870 0.000000 0.000000 
#    y 0.000000 1.724610 0.000000 
#    z 0.000000 0.000000 1.771000 
# 
# From -- ./inp_files/69816.got.cif
#   From: 2010.05.17/outbox.cif.g08.bks.cpg/sg63_35_cif.got.tgz:69816.got - 2010.06.03 15:47:04.
