data_PCOD9474623
_publ_section_title
;
Structure prediction by ZEFSAII (Michael W. Deem and Ramdas Pophale) SiO2 
 PCOD9474623
Probable space group: C M C M
;
_chemical_formula_sum "Si O2"
_cell_formula_units_Z 80
_cell_length_a 19.089400
_cell_length_b 7.842463
_cell_length_c 27.715306
_cell_angle_alpha 90.000000
_cell_angle_beta 90.000000
_cell_angle_gamma 90.000000
_cell_volume 4149.200625
_symmetry_space_group_name_H-M "C M C M"
_symmetry_group_IT_number 63
_symmetry_cell_setting 'orthorhombic'
loop_
_space_group_symop_operation_xyz
x,y,z
-x,-y,1/2+z
x,-y,-z
-x,y,1/2-z
-x,-y,-z
x,y,1/2-z
-x,y,z
x,-y,1/2+z
1/2+x,1/2+y,z
1/2-x,1/2-y,1/2+z
1/2+x,1/2-y,-z
1/2-x,1/2+y,1/2-z
1/2-x,1/2-y,-z
1/2+x,1/2+y,1/2-z
1/2-x,1/2+y,z
1/2+x,1/2-y,1/2+z
loop_
_atom_site_type_symbol
_atom_site_label
_atom_site_fract_x
_atom_site_fract_y
_atom_site_fract_z
Si Si1 0.155219 0.970476 0.556652
Si Si2 0.171315 0.602179 0.308347
Si Si3 0.670104 0.709021 0.308081
Si Si4 0.795743 0.632469 0.536619
Si Si5 0.417504 0.595803 0.646398
O O1 0.156868 0.766379 0.564578
O O2 0.103119 0.071134 0.590511
O O3 0.140088 0.000000 0.500000
O O4 0.234992 0.037097 0.566300
O O5 0.165513 0.616435 0.250000
O O6 0.250852 0.653784 0.321446
O O7 0.157968 0.405693 0.322024
O O8 0.119446 0.736153 0.332684
O O9 0.666421 0.701804 0.250000
O O10 0.616972 0.570231 0.328705
O O11 0.832132 0.500000 0.500000
O O12 0.750000 0.750000 0.500000
O O13 0.500000 0.601500 0.653798
#
# Coordination Sequence:
#
# PCOD9474623 Si02
#       5
#    16  16  16  16  16
#     4   9  19  35  55  85 117 155 200 250 306 357
#     4  10  21  40  67  95 120 157 206 256 309 367
#     4  10  21  40  66  94 120 154 206 257 305 368
#     4   7  13  29  53  80 103 135 195 250 290 336
#     4  12  26  39  59  93 130 167 204 251 309 365
#
# _framework density 19.280822000000001
#
# number of rings (size 3 to 8) (size 9 to 14) (size 15 to 20)
#    0.000    2.800    2.000    0.600    2.800    2.800 
#    7.200    2.000    0.000    0.600    0.000    0.000 
#    0.000    0.000    0.000    0.000    0.000    0.000 
#
# Total GULP energy -223093.074922 kJ/mol
# GULP energy per Si atom -5577.326873 kJ/mol
# Density = 1.923694 g / cm^3
# Si number density = 19.280822 Si / 1000 Ang^3
#
#
#
# Elastic Constant Matrix: (Units=GPa)
#
#
# Indices 1 2 3 4 5 6 
#
# 1 112.0211 48.7992 42.9677 0.0000 0.0000 0.0000
# 2 48.7992 138.5221 52.0340 0.0000 0.0000 0.0000
# 3 42.9677 52.0340 69.1565 0.0000 0.0000 0.0000
# 4 0.0000 0.0000 0.0000 25.2397 0.0000 0.0000
# 5 0.0000 0.0000 0.0000 0.0000 95.3974 0.0000
# 6 0.0000 0.0000 0.0000 0.0000 0.0000 21.8702
#
#
#
# Elastic Compliance Matrix: (Units=1/GPa)
#
#
# Indices 1 2 3 4 5 6 
#
# 1 0.012107 -0.002007 -0.006013 0.000000 0.000000 0.000000
# 2 -0.002007 0.010396 -0.006575 0.000000 0.000000 0.000000
# 3 -0.006013 -0.006575 0.023143 0.000000 0.000000 0.000000
# 4 0.000000 0.000000 0.000000 0.039620 0.000000 0.000000
# 5 0.000000 0.000000 0.000000 0.000000 0.010482 0.000000
# 6 0.000000 0.000000 0.000000 0.000000 0.000000 0.045724
#
#
# Mechanical properties :
#
#
# Convention : Reuss Voigt Hill
#
# Bulk Modulus (GPa) = 60.76373 67.47795 64.12084
# Shear Modulus (GPa) = 28.38532 40.22804 34.30668
#
# Velocity S-wave (km/s) = 3.84109 4.57270 4.22277
# Velocity P-wave (km/s) = 7.15930 7.93428 7.55673
#
# Compressibility (1/GPa) = 0.01645718
#
# Stress axis : x y z
#
# Youngs Moduli (GPa) = 82.59500 96.19209 43.20989
#
# Poissons Ratio (x) = 0.19303 0.25980
# Poissons Ratio (y) = 0.16574 0.28411
# Poissons Ratio (z) = 0.49661 0.63248
#
# Static dielectric constant tensor:
#      x y z
#    x 1.637120 0.000000 0.000000 
#    y 0.000000 1.727080 0.000000 
#    z 0.000000 0.000000 1.749950 
# 
# From -- ./inp_files/69729.got.cif
#   From: 2010.05.17/outbox.cif.g08.bks.cpg/sg63_35_cif.got.tgz:69729.got - 2010.06.03 15:47:04.
