data_PCOD9474094
_publ_section_title
;
Structure prediction by ZEFSAII (Michael W. Deem and Ramdas Pophale) SiO2 
 PCOD9474094
Probable space group: C M C M
;
_chemical_formula_sum "Si O2"
_cell_formula_units_Z 96
_cell_length_a 28.437456
_cell_length_b 19.938541
_cell_length_c 8.884945
_cell_angle_alpha 90.000000
_cell_angle_beta 90.000000
_cell_angle_gamma 90.000000
_cell_volume 5037.776097
_symmetry_space_group_name_H-M "C M C M"
_symmetry_group_IT_number 63
_symmetry_cell_setting 'orthorhombic'
loop_
_space_group_symop_operation_xyz
x,y,z
-x,-y,1/2+z
x,-y,-z
-x,y,1/2-z
-x,-y,-z
x,y,1/2-z
-x,y,z
x,-y,1/2+z
1/2+x,1/2+y,z
1/2-x,1/2-y,1/2+z
1/2+x,1/2-y,-z
1/2-x,1/2+y,1/2-z
1/2-x,1/2-y,-z
1/2+x,1/2+y,1/2-z
1/2-x,1/2+y,z
1/2+x,1/2-y,1/2+z
loop_
_atom_site_type_symbol
_atom_site_label
_atom_site_fract_x
_atom_site_fract_y
_atom_site_fract_z
Si Si1 0.443509 0.293066 0.921488
Si Si2 0.379392 0.807539 0.923141
Si Si3 0.557484 0.431081 0.077331
Si Si4 0.272644 0.570398 0.069682
Si Si5 0.331710 0.068940 0.929115
Si Si6 0.291728 0.706878 0.925108
O O1 0.426704 0.286635 0.750000
O O2 0.500000 0.293555 0.921311
O O3 0.424665 0.231914 0.019361
O O4 0.427886 0.364379 0.989819
O O5 0.383658 0.829482 0.750000
O O6 0.337661 0.752867 0.931353
O O7 0.364549 0.869391 0.026531
O O8 0.572964 0.428042 0.250000
O O9 0.500000 0.432009 0.076845
O O10 0.573095 0.500000 0.000000
O O11 0.272527 0.567125 0.250000
O O12 0.289980 0.500000 0.000000
O O13 0.219144 0.579161 0.008077
O O14 0.298435 0.636678 0.010467
O O15 0.325470 0.063247 0.750000
O O16 0.350517 0.000000 0.000000
O O17 0.280126 0.693488 0.750000
O O18 0.250000 0.750000 0.000000
#
# Coordination Sequence:
#
# PCOD9474094 Si02
#       6
#    16  16  16  16  16  16
#     4  10  21  37  57  82 112 147 189 236 287 340
#     4  11  23  38  58  85 115 148 190 233 282 338
#     4   9  16  28  49  76 105 138 178 225 275 327
#     4  11  21  35  55  80 113 152 193 233 280 334
#     4  11  21  35  57  83 114 147 187 232 278 331
#     4  11  22  36  56  82 114 149 186 230 279 333
#
# _framework density 19.056028000000001
#
# number of rings (size 3 to 8) (size 9 to 14) (size 15 to 20)
#    0.000    1.500    1.667    6.000    0.000    5.000 
#    0.000    0.833    0.000    4.500    0.000    0.000 
#    0.000    0.000    0.000    0.000    0.000    0.000 
#
# Total GULP energy -268292.102706 kJ/mol
# GULP energy per Si atom -5589.418806 kJ/mol
# Density = 1.901266 g / cm^3
# Si number density = 19.056028 Si / 1000 Ang^3
#
#
#
# Elastic Constant Matrix: (Units=GPa)
#
#
# Indices 1 2 3 4 5 6 
#
# 1 13.6693 9.0467 15.0075 0.0000 0.0000 0.0000
# 2 9.0467 118.3162 50.5150 0.0000 0.0000 0.0000
# 3 15.0075 50.5150 162.8152 0.0000 0.0000 0.0000
# 4 0.0000 0.0000 0.0000 39.7554 0.0000 0.0000
# 5 0.0000 0.0000 0.0000 0.0000 18.0321 0.0000
# 6 0.0000 0.0000 0.0000 0.0000 0.0000 12.4452
#
#
#
# Elastic Compliance Matrix: (Units=1/GPa)
#
#
# Indices 1 2 3 4 5 6 
#
# 1 0.082657 -0.003536 -0.006522 0.000000 0.000000 0.000000
# 2 -0.003536 0.009894 -0.002744 0.000000 0.000000 0.000000
# 3 -0.006522 -0.002744 0.007594 0.000000 0.000000 0.000000
# 4 0.000000 0.000000 0.000000 0.025154 0.000000 0.000000
# 5 0.000000 0.000000 0.000000 0.000000 0.055457 0.000000
# 6 0.000000 0.000000 0.000000 0.000000 0.000000 0.080353
#
#
# Mechanical properties :
#
#
# Convention : Reuss Voigt Hill
#
# Bulk Modulus (GPa) = 13.41512 49.32657 31.37084
# Shear Modulus (GPa) = 16.04834 28.72861 22.38848
#
# Velocity S-wave (km/s) = 2.90516 3.88698 3.43137
# Velocity P-wave (km/s) = 4.27883 6.78867 5.67426
#
# Compressibility (1/GPa) = 0.07454276
#
# Stress axis : x y z
#
# Youngs Moduli (GPa) = 12.09814 101.07440 131.67657
#
# Poissons Ratio (x) = 0.35736 0.85879
# Poissons Ratio (y) = 0.04277 0.36128
# Poissons Ratio (z) = 0.07890 0.27732
#
# Static dielectric constant tensor:
#      x y z
#    x 1.676780 0.000000 0.000000 
#    y 0.000000 1.656880 0.000000 
#    z 0.000000 0.000000 1.656520 
# 
# From -- ./inp_files/12426.got.cif
#   From: 2010.05.17/outbox.cif.g08.bks.cpg/sg63_7_cif.got.tgz:12426.got - 2010.06.03 15:47:04.
