data_PCOD9474129
_publ_section_title
;
Structure prediction by ZEFSAII (Michael W. Deem and Ramdas Pophale) SiO2 
 PCOD9474129
Probable space group: C M C M
;
_chemical_formula_sum "Si O2"
_cell_formula_units_Z 104
_cell_length_a 26.958781
_cell_length_b 21.846520
_cell_length_c 7.610722
_cell_angle_alpha 90.000000
_cell_angle_beta 90.000000
_cell_angle_gamma 90.000000
_cell_volume 4482.376948
_symmetry_space_group_name_H-M "C M C M"
_symmetry_group_IT_number 63
_symmetry_cell_setting 'orthorhombic'
loop_
_space_group_symop_operation_xyz
x,y,z
-x,-y,1/2+z
x,-y,-z
-x,y,1/2-z
-x,-y,-z
x,y,1/2-z
-x,y,z
x,-y,1/2+z
1/2+x,1/2+y,z
1/2-x,1/2-y,1/2+z
1/2+x,1/2-y,-z
1/2-x,1/2+y,1/2-z
1/2-x,1/2-y,-z
1/2+x,1/2+y,1/2-z
1/2-x,1/2+y,z
1/2+x,1/2-y,1/2+z
loop_
_atom_site_type_symbol
_atom_site_label
_atom_site_fract_x
_atom_site_fract_y
_atom_site_fract_z
Si Si1 0.781647 0.666059 0.448634
Si Si2 0.443857 0.843150 0.962075
Si Si3 0.638328 0.255494 0.036380
Si Si4 0.861478 0.570315 0.951745
Si Si5 0.000000 0.928067 0.960912
Si Si6 0.291684 0.433289 0.961929
Si Si7 0.606676 0.391684 0.955527
O O1 0.767050 0.682199 0.250000
O O2 0.809711 0.725216 0.525795
O O3 0.825736 0.615296 0.441295
O O4 0.737763 0.626091 0.532321
O O5 0.444728 0.842211 0.750000
O O6 0.500000 0.836270 0.025425
O O7 0.406763 0.789045 0.018990
O O8 0.417171 0.905437 0.019945
O O9 0.639897 0.256230 0.250000
O O10 0.625597 0.322430 0.970738
O O11 0.847381 0.578991 0.750000
O O12 0.856619 0.500000 0.000000
O O13 0.948250 0.900663 0.031288
O O14 0.000000 0.917974 0.750000
O O15 0.000000 0.000000 0.000000
O O16 0.291762 0.427306 0.750000
O O17 0.347952 0.430989 0.031482
O O18 0.269187 0.500000 0.000000
O O19 0.603045 0.408316 0.750000
#
# Coordination Sequence:
#
# PCOD9474129 Si02
#       7
#    16  16  16  16   8  16  16
#     4   9  19  37  57  79 110 145 183 232 282 331
#     4   9  19  36  55  75 104 141 182 233 283 330
#     4   9  19  35  56  82 110 143 185 226 273 334
#     4  11  21  33  51  76 106 142 184 228 279 338
#     4  10  22  40  60  84 116 152 189 236 287 336
#     4  10  21  37  58  83 112 147 188 234 284 337
#     4  10  22  38  56  83 117 150 185 232 287 336
#
# _framework density 23.201975000000001
#
# number of rings (size 3 to 8) (size 9 to 14) (size 15 to 20)
#    0.000    2.308    0.000    3.231    1.077    6.769 
#    0.000    0.000    0.000    0.000    0.000    0.000 
#    0.000    0.000    0.000    0.000    0.000    0.000 
#
# Total GULP energy -290461.164322 kJ/mol
# GULP energy per Si atom -5585.791622 kJ/mol
# Density = 2.314917 g / cm^3
# Si number density = 23.201975 Si / 1000 Ang^3
#
#
#
# Elastic Constant Matrix: (Units=GPa)
#
#
# Indices 1 2 3 4 5 6 
#
# 1 160.0944 42.4005 5.5103 0.0000 0.0000 0.0000
# 2 42.4005 104.7358 -14.6742 0.0000 0.0000 0.0000
# 3 5.5103 -14.6742 67.1372 0.0000 0.0000 0.0000
# 4 0.0000 0.0000 0.0000 26.2679 0.0000 0.0000
# 5 0.0000 0.0000 0.0000 0.0000 -13.0115 0.0000
# 6 0.0000 0.0000 0.0000 0.0000 0.0000 27.0094
#
#
#
# Elastic Compliance Matrix: (Units=1/GPa)
#
#
# Indices 1 2 3 4 5 6 
#
# 1 0.007096 -0.003048 -0.001249 0.000000 0.000000 0.000000
# 2 -0.003048 0.011158 0.002689 0.000000 0.000000 0.000000
# 3 -0.001249 0.002689 0.015585 0.000000 0.000000 0.000000
# 4 0.000000 0.000000 0.000000 0.038069 0.000000 0.000000
# 5 0.000000 0.000000 0.000000 0.000000 -0.076855 0.000000
# 6 0.000000 0.000000 0.000000 0.000000 0.000000 0.037024
#
#
# Mechanical properties :
#
#
# Convention : Reuss Voigt Hill
#
# Bulk Modulus (GPa) = 32.65277 44.27118 38.46197
# Shear Modulus (GPa) = 109.88552 27.96853 68.92703
#
# Velocity S-wave (km/s) = 6.88936 3.47571 5.45636
# Velocity P-wave (km/s) = 8.79705 5.93545 7.50392
#
# Compressibility (1/GPa) = 0.03062527
#
# Stress axis : x y z
#
# Youngs Moduli (GPa) = 140.91460 89.61820 64.16383
#
# Poissons Ratio (x) = 0.27314 0.08012
# Poissons Ratio (y) = 0.42948 -0.17254
# Poissons Ratio (z) = 0.17595 -0.24099
#
# Static dielectric constant tensor:
#      x y z
#    x 1.920360 0.000000 0.000000 
#    y 0.000000 1.827400 0.000000 
#    z 0.000000 0.000000 1.874800 
# 
# From -- ./inp_files/12613.got.cif
#   From: 2010.05.17/outbox.cif.g08.bks.cpg/sg63_7_cif.got.tgz:12613.got - 2010.06.03 15:47:04.
