data_PCOD9474514
_publ_section_title
;
Structure prediction by ZEFSAII (Michael W. Deem and Ramdas Pophale) SiO2 
 PCOD9474514
Probable space group: C M C M
;
_chemical_formula_sum "Si O2"
_cell_formula_units_Z 112
_cell_length_a 15.771965
_cell_length_b 11.207546
_cell_length_c 27.377429
_cell_angle_alpha 90.000000
_cell_angle_beta 90.000000
_cell_angle_gamma 90.000000
_cell_volume 4839.371874
_symmetry_space_group_name_H-M "C M C M"
_symmetry_group_IT_number 63
_symmetry_cell_setting 'orthorhombic'
loop_
_space_group_symop_operation_xyz
x,y,z
-x,-y,1/2+z
x,-y,-z
-x,y,1/2-z
-x,-y,-z
x,y,1/2-z
-x,y,z
x,-y,1/2+z
1/2+x,1/2+y,z
1/2-x,1/2-y,1/2+z
1/2+x,1/2-y,-z
1/2-x,1/2+y,1/2-z
1/2-x,1/2-y,-z
1/2+x,1/2+y,1/2-z
1/2-x,1/2+y,z
1/2+x,1/2-y,1/2+z
loop_
_atom_site_type_symbol
_atom_site_label
_atom_site_fract_x
_atom_site_fract_y
_atom_site_fract_z
Si Si1 0.268955 0.041349 0.592276
Si Si2 0.597324 0.771817 0.061467
Si Si3 0.408802 0.057618 0.694459
Si Si4 0.097452 0.643414 0.450603
Si Si5 0.730304 0.611541 0.805298
Si Si6 0.907910 0.004404 0.942311
Si Si7 0.906165 0.706606 0.344016
O O1 0.332935 0.152742 0.589960
O O2 0.234196 0.021890 0.648072
O O3 0.324531 0.944602 0.562168
O O4 0.181225 0.067192 0.565801
O O5 0.500000 0.808100 0.071953
O O6 0.605258 0.632987 0.073535
O O7 0.609623 0.795761 0.003146
O O8 0.411164 0.010639 0.750000
O O9 0.500000 0.112074 0.683085
O O10 0.398395 0.936898 0.663118
O O11 0.329828 0.145917 0.694465
O O12 0.096349 0.724044 0.402186
O O13 0.000000 0.590867 0.452031
O O14 0.712317 0.566514 0.750000
O O15 0.666230 0.717212 0.818259
O O16 0.000000 0.044711 0.922115
O O17 0.917809 0.000000 0.000000
O O18 0.000000 0.739117 0.325446
#
# Coordination Sequence:
#
# PCOD9474514 Si02
#       7
#    16  16  16  16  16  16  16
#     4  12  24  38  67  93 127 166 211 261 315 373
#     4  10  23  42  65  95 133 167 203 256 314 377
#     4   9  18  37  63  86 113 154 204 255 308 364
#     4  10  21  39  65  98 128 161 205 255 312 376
#     4  11  25  40  60  93 126 160 208 267 319 364
#     4  10  24  43  62  90 130 173 212 250 303 375
#     4  10  21  39  63  89 120 161 208 255 307 370
#
# _framework density 23.1435
#
# number of rings (size 3 to 8) (size 9 to 14) (size 15 to 20)
#    0.000    1.714    1.429    2.143    4.000    4.286 
#    0.000    0.000    0.000    0.857    0.000    4.000 
#    0.000    0.000    0.000    0.000    0.000    0.000 
#
# Total GULP energy -312147.583915 kJ/mol
# GULP energy per Si atom -5574.063998 kJ/mol
# Density = 2.309082 g / cm^3
# Si number density = 23.143500 Si / 1000 Ang^3
#
#
#
# Elastic Constant Matrix: (Units=GPa)
#
#
# Indices 1 2 3 4 5 6 
#
# 1 201.4935 54.7719 24.1492 0.0000 0.0000 0.0000
# 2 54.7719 56.9655 -4.0724 0.0000 0.0000 0.0000
# 3 24.1492 -4.0724 124.7589 0.0000 0.0000 0.0000
# 4 0.0000 0.0000 0.0000 25.7920 0.0000 0.0000
# 5 0.0000 0.0000 0.0000 0.0000 9.6432 0.0000
# 6 0.0000 0.0000 0.0000 0.0000 0.0000 19.9426
#
#
#
# Elastic Compliance Matrix: (Units=1/GPa)
#
#
# Indices 1 2 3 4 5 6 
#
# 1 0.007017 -0.006860 -0.001582 0.000000 0.000000 0.000000
# 2 -0.006860 0.024302 0.002121 0.000000 0.000000 0.000000
# 3 -0.001582 0.002121 0.008391 0.000000 0.000000 0.000000
# 4 0.000000 0.000000 0.000000 0.038772 0.000000 0.000000
# 5 0.000000 0.000000 0.000000 0.000000 0.103700 0.000000
# 6 0.000000 0.000000 0.000000 0.000000 0.000000 0.050144
#
#
# Mechanical properties :
#
#
# Convention : Reuss Voigt Hill
#
# Bulk Modulus (GPa) = 36.94417 59.21281 48.07849
# Shear Modulus (GPa) = 19.68571 31.63352 25.65962
#
# Velocity S-wave (km/s) = 2.91966 3.70109 3.33335
# Velocity P-wave (km/s) = 5.23102 6.62607 5.96944
#
# Compressibility (1/GPa) = 0.02706787
#
# Stress axis : x y z
#
# Youngs Moduli (GPa) = 142.50286 41.14851 119.17570
#
# Poissons Ratio (x) = 0.28229 0.18857
# Poissons Ratio (y) = 0.97761 -0.25279
# Poissons Ratio (z) = 0.22548 -0.08728
#
# Static dielectric constant tensor:
#      x y z
#    x 1.898990 0.000000 0.000000 
#    y 0.000000 1.915210 0.000000 
#    z 0.000000 0.000000 1.952760 
# 
# From -- ./inp_files/73443.got.cif
#   From: 2010.05.17/outbox.cif.g08.bks.cpg/sg63_37_cif.got.tgz:73443.got - 2010.06.03 15:47:04.
