data_PCOD9474180
_publ_section_title
;
Structure prediction by ZEFSAII (Michael W. Deem and Ramdas Pophale) SiO2 
 PCOD9474180
Probable space group: C M C M
;
_chemical_formula_sum "Si O2"
_cell_formula_units_Z 64
_cell_length_a 11.925282
_cell_length_b 12.555561
_cell_length_c 16.449298
_cell_angle_alpha 90.000000
_cell_angle_beta 90.000000
_cell_angle_gamma 90.000000
_cell_volume 2462.930453
_symmetry_space_group_name_H-M "C M C M"
_symmetry_group_IT_number 63
_symmetry_cell_setting 'orthorhombic'
loop_
_space_group_symop_operation_xyz
x,y,z
-x,-y,1/2+z
x,-y,-z
-x,y,1/2-z
-x,-y,-z
x,y,1/2-z
-x,y,z
x,-y,1/2+z
1/2+x,1/2+y,z
1/2-x,1/2-y,1/2+z
1/2+x,1/2-y,-z
1/2-x,1/2+y,1/2-z
1/2-x,1/2-y,-z
1/2+x,1/2+y,1/2-z
1/2-x,1/2+y,z
1/2+x,1/2-y,1/2+z
loop_
_atom_site_type_symbol
_atom_site_label
_atom_site_fract_x
_atom_site_fract_y
_atom_site_fract_z
Si Si1 0.333733 0.107451 0.345655
Si Si2 0.124880 0.147644 0.868766
Si Si3 0.376397 0.339530 0.944190
Si Si4 0.375463 0.884570 0.377799
O O1 0.346294 0.082803 0.250000
O O2 0.381936 0.224569 0.359395
O O3 0.207460 0.118370 0.377219
O O4 0.381073 0.009315 0.396982
O O5 0.250886 0.122015 0.835993
O O6 0.000000 0.108124 0.842227
O O7 0.136957 0.120743 0.964321
O O8 0.500000 0.367734 0.917757
O O9 0.366884 0.209943 0.944036
O O10 0.500000 0.862243 0.339714
#
# Coordination Sequence:
#
# PCOD9474180 Si02
#       4
#    16  16  16  16
#     4  11  23  38  59  90 127 165 206 253 309 372
#     4  10  22  42  66  91 122 161 208 259 309 365
#     4   9  21  42  65  90 121 161 209 259 310 364
#     4  10  21  37  59  89 122 155 197 247 301 362
#
# _framework density 25.985305
#
# number of rings (size 3 to 8) (size 9 to 14) (size 15 to 20)
#    0.000    2.000    0.000    3.750    0.000   11.500 
#    0.000   16.250    0.000    0.000    0.000    0.000 
#    0.000    0.000    0.000    0.000    0.000    0.000 
#
# Total GULP energy -178311.821137 kJ/mol
# GULP energy per Si atom -5572.244411 kJ/mol
# Density = 2.592616 g / cm^3
# Si number density = 25.985305 Si / 1000 Ang^3
#
#
#
# Elastic Constant Matrix: (Units=GPa)
#
#
# Indices 1 2 3 4 5 6 
#
# 1 303.7503 5.6092 18.1095 0.0000 0.0000 0.0000
# 2 5.6092 122.6728 12.4239 0.0000 0.0000 0.0000
# 3 18.1095 12.4239 66.1451 0.0000 0.0000 0.0000
# 4 0.0000 0.0000 0.0000 30.9493 0.0000 0.0000
# 5 0.0000 0.0000 0.0000 0.0000 180.9827 0.0000
# 6 0.0000 0.0000 0.0000 0.0000 0.0000 2.9321
#
#
#
# Elastic Compliance Matrix: (Units=1/GPa)
#
#
# Indices 1 2 3 4 5 6 
#
# 1 0.003347 -0.000061 -0.000905 0.000000 0.000000 0.000000
# 2 -0.000061 0.008311 -0.001544 0.000000 0.000000 0.000000
# 3 -0.000905 -0.001544 0.015656 0.000000 0.000000 0.000000
# 4 0.000000 0.000000 0.000000 0.032311 0.000000 0.000000
# 5 0.000000 0.000000 0.000000 0.000000 0.005525 0.000000
# 6 0.000000 0.000000 0.000000 0.000000 0.000000 0.341058
#
#
# Mechanical properties :
#
#
# Convention : Reuss Voigt Hill
#
# Bulk Modulus (GPa) = 44.85659 62.76147 53.80903
# Shear Modulus (GPa) = 11.94285 73.40118 42.67202
#
# Velocity S-wave (km/s) = 2.14615 5.32057 4.05675
# Velocity P-wave (km/s) = 4.84160 7.87082 6.53417
#
# Compressibility (1/GPa) = 0.02229327
#
# Stress axis : x y z
#
# Youngs Moduli (GPa) = 298.75169 120.32293 63.87294
#
# Poissons Ratio (x) = 0.00739 0.05780
# Poissons Ratio (y) = 0.01835 0.09863
# Poissons Ratio (z) = 0.27034 0.18581
#
# Static dielectric constant tensor:
#      x y z
#    x 2.114990 0.000000 0.000000 
#    y 0.000000 2.067960 0.000000 
#    z 0.000000 0.000000 1.933510 
# 
# From -- ./inp_files/41501.got.cif
#   From: 2010.05.17/outbox.cif.g08.bks.cpg/sg63_21_cif.got.tgz:41501.got - 2010.06.03 15:47:04.
