data_PCOD9474308
_publ_section_title
;
Structure prediction by ZEFSAII (Michael W. Deem and Ramdas Pophale) SiO2 
 PCOD9474308
Probable space group: C M C M
;
_chemical_formula_sum "Si O2"
_cell_formula_units_Z 80
_cell_length_a 9.076342
_cell_length_b 25.857466
_cell_length_c 18.138577
_cell_angle_alpha 90.000000
_cell_angle_beta 90.000000
_cell_angle_gamma 90.000000
_cell_volume 4256.964487
_symmetry_space_group_name_H-M "C M C M"
_symmetry_group_IT_number 63
_symmetry_cell_setting 'orthorhombic'
loop_
_space_group_symop_operation_xyz
x,y,z
-x,-y,1/2+z
x,-y,-z
-x,y,1/2-z
-x,-y,-z
x,y,1/2-z
-x,y,z
x,-y,1/2+z
1/2+x,1/2+y,z
1/2-x,1/2-y,1/2+z
1/2+x,1/2-y,-z
1/2-x,1/2+y,1/2-z
1/2-x,1/2-y,-z
1/2+x,1/2+y,1/2-z
1/2-x,1/2+y,z
1/2+x,1/2-y,1/2+z
loop_
_atom_site_type_symbol
_atom_site_label
_atom_site_fract_x
_atom_site_fract_y
_atom_site_fract_z
Si Si1 0.673876 0.295264 0.838209
Si Si2 0.825479 0.990629 0.834558
Si Si3 0.824658 0.187312 0.836141
Si Si4 0.324690 0.105182 0.406613
Si Si5 0.176462 0.088204 0.563244
O O1 0.695722 0.302032 0.750000
O O2 0.500000 0.298103 0.853418
O O3 0.736833 0.238793 0.857433
O O4 0.757739 0.340387 0.880619
O O5 0.803065 0.007229 0.750000
O O6 0.734209 0.939681 0.852858
O O7 0.000000 0.979017 0.843433
O O8 0.788198 0.036794 0.890380
O O9 0.793127 0.175690 0.750000
O O10 0.790546 0.138327 0.886850
O O11 0.000000 0.197543 0.841780
O O12 0.500000 0.107234 0.406398
O O13 0.262874 0.091403 0.487245
O O14 0.000000 0.087654 0.548790
#
# Coordination Sequence:
#
# PCOD9474308 Si02
#       5
#    16  16  16  16  16
#     4  10  21  38  60  84 111 147 190 233 279 333
#     4  10  21  39  63  87 111 144 187 231 277 334
#     4   9  18  35  60  88 115 144 183 231 280 331
#     4  12  25  38  55  82 116 152 189 232 281 329
#     4  10  21  38  60  85 115 150 185 225 277 336
#
# _framework density 18.792732999999998
#
# number of rings (size 3 to 8) (size 9 to 14) (size 15 to 20)
#    0.000    1.800    0.000    4.200    0.000   11.200 
#    0.000    0.000    0.000    3.600    0.000    0.000 
#    0.000    0.000    0.000    0.000    0.000    0.000 
#
# Total GULP energy -223597.871561 kJ/mol
# GULP energy per Si atom -5589.946789 kJ/mol
# Density = 1.874996 g / cm^3
# Si number density = 18.792733 Si / 1000 Ang^3
#
#
#
# Elastic Constant Matrix: (Units=GPa)
#
#
# Indices 1 2 3 4 5 6 
#
# 1 41.2346 23.7357 20.0509 0.0000 0.0000 0.0000
# 2 23.7357 58.4923 3.4731 0.0000 0.0000 0.0000
# 3 20.0509 3.4731 34.5700 0.0000 0.0000 0.0000
# 4 0.0000 0.0000 0.0000 -5.7211 0.0000 0.0000
# 5 0.0000 0.0000 0.0000 0.0000 18.2129 0.0000
# 6 0.0000 0.0000 0.0000 0.0000 0.0000 32.6051
#
#
#
# Elastic Compliance Matrix: (Units=1/GPa)
#
#
# Indices 1 2 3 4 5 6 
#
# 1 0.046533 -0.017384 -0.025243 0.000000 0.000000 0.000000
# 2 -0.017384 0.023693 0.007702 0.000000 0.000000 0.000000
# 3 -0.025243 0.007702 0.042794 0.000000 0.000000 0.000000
# 4 0.000000 0.000000 0.000000 -0.174792 0.000000 0.000000
# 5 0.000000 0.000000 0.000000 0.000000 0.054906 0.000000
# 6 0.000000 0.000000 0.000000 0.000000 0.000000 0.030670
#
#
# Mechanical properties :
#
#
# Convention : Reuss Voigt Hill
#
# Bulk Modulus (GPa) = 23.16351 25.42404 24.29378
# Shear Modulus (GPa) = 46.27775 14.82186 30.54980
#
# Velocity S-wave (km/s) = 4.96778 2.81143 4.03627
# Velocity P-wave (km/s) = 6.72738 4.90886 5.88874
#
# Compressibility (1/GPa) = 0.04317134
#
# Stress axis : x y z
#
# Youngs Moduli (GPa) = 21.49030 42.20640 23.36773
#
# Poissons Ratio (x) = 0.73370 0.58987
# Poissons Ratio (y) = 0.37358 -0.17999
# Poissons Ratio (z) = 0.54248 -0.32509
#
# Static dielectric constant tensor:
#      x y z
#    x 1.624260 0.000000 0.000000 
#    y 0.000000 1.616500 0.000000 
#    z 0.000000 0.000000 1.642070 
# 
# From -- ./inp_files/40479.got.cif
#   From: 2010.05.17/outbox.cif.g08.bks.cpg/sg63_21_cif.got.tgz:40479.got - 2010.06.03 15:47:04.
