data_PCOD9474772
_publ_section_title
;
Structure prediction by ZEFSAII (Michael W. Deem and Ramdas Pophale) SiO2 
 PCOD9474772
Probable space group: C M C M
;
_chemical_formula_sum "Si O2"
_cell_formula_units_Z 56
_cell_length_a 9.159789
_cell_length_b 23.470133
_cell_length_c 10.535272
_cell_angle_alpha 90.000000
_cell_angle_beta 90.000000
_cell_angle_gamma 90.000000
_cell_volume 2264.888220
_symmetry_space_group_name_H-M "C M C M"
_symmetry_group_IT_number 63
_symmetry_cell_setting 'orthorhombic'
loop_
_space_group_symop_operation_xyz
x,y,z
-x,-y,1/2+z
x,-y,-z
-x,y,1/2-z
-x,-y,-z
x,y,1/2-z
-x,y,z
x,-y,1/2+z
1/2+x,1/2+y,z
1/2-x,1/2-y,1/2+z
1/2+x,1/2-y,-z
1/2-x,1/2+y,1/2-z
1/2-x,1/2-y,-z
1/2+x,1/2+y,1/2-z
1/2-x,1/2+y,z
1/2+x,1/2-y,1/2+z
loop_
_atom_site_type_symbol
_atom_site_label
_atom_site_fract_x
_atom_site_fract_y
_atom_site_fract_z
Si Si1 0.679782 0.088810 0.401127
Si Si2 0.668349 0.462610 0.402274
Si Si3 0.326028 0.288040 0.894053
Si Si4 0.000000 0.558856 0.593583
O O1 0.655859 0.078520 0.250000
O O2 0.500000 0.098704 0.440793
O O3 0.796069 0.032699 0.422159
O O4 0.767757 0.147924 0.406800
O O5 0.667217 0.459913 0.250000
O O6 0.500000 0.444715 0.429177
O O7 0.823468 0.424805 0.423409
O O8 0.291783 0.268194 0.750000
O O9 0.500000 0.286364 0.909472
O O10 0.250000 0.250000 0.000000
O O11 0.000000 0.500000 0.500000
O O12 0.000000 0.548783 0.750000
#
# Coordination Sequence:
#
# PCOD9474772 Si02
#       4
#    16  16  16   8
#     4   9  18  32  51  77 108 140 182 233 282 338
#     4   9  17  28  45  70 100 134 171 217 272 326
#     4  10  22  38  58  87 118 153 198 247 301 361
#     4   8  18  28  48  74 102 138 179 223 272 338
#
# _framework density 24.725280999999999
#
# number of rings (size 3 to 8) (size 9 to 14) (size 15 to 20)
#    1.714    1.143    0.000    1.714    2.000    2.286 
#    0.000    0.000    0.000    1.714    0.000    6.000 
#    0.000    0.000    0.000    0.000    0.000    0.000 
#
# Total GULP energy -155950.349678 kJ/mol
# GULP energy per Si atom -5569.655346 kJ/mol
# Density = 2.466901 g / cm^3
# Si number density = 24.725281 Si / 1000 Ang^3
#
#
#
# Elastic Constant Matrix: (Units=GPa)
#
#
# Indices 1 2 3 4 5 6 
#
# 1 241.6991 70.6720 163.3436 0.0000 0.0000 0.0000
# 2 70.6720 87.8806 69.5653 0.0000 0.0000 0.0000
# 3 163.3436 69.5653 295.1881 0.0000 0.0000 0.0000
# 4 0.0000 0.0000 0.0000 47.4934 0.0000 0.0000
# 5 0.0000 0.0000 0.0000 0.0000 80.2500 0.0000
# 6 0.0000 0.0000 0.0000 0.0000 0.0000 26.9615
#
#
#
# Elastic Compliance Matrix: (Units=1/GPa)
#
#
# Indices 1 2 3 4 5 6 
#
# 1 0.007308 -0.003290 -0.003269 0.000000 0.000000 0.000000
# 2 -0.003290 0.015469 -0.001825 0.000000 0.000000 0.000000
# 3 -0.003269 -0.001825 0.005627 0.000000 0.000000 0.000000
# 4 0.000000 0.000000 0.000000 0.021056 0.000000 0.000000
# 5 0.000000 0.000000 0.000000 0.000000 0.012461 0.000000
# 6 0.000000 0.000000 0.000000 0.000000 0.000000 0.037090
#
#
# Mechanical properties :
#
#
# Convention : Reuss Voigt Hill
#
# Bulk Modulus (GPa) = 85.93353 136.88107 111.40730
# Shear Modulus (GPa) = 41.78589 52.35346 47.06967
#
# Velocity S-wave (km/s) = 4.11543 4.60652 4.36788
# Velocity P-wave (km/s) = 7.57714 9.15283 8.40201
#
# Compressibility (1/GPa) = 0.01163690
#
# Stress axis : x y z
#
# Youngs Moduli (GPa) = 136.82834 64.64369 177.72522
#
# Poissons Ratio (x) = 0.21266 0.58096
# Poissons Ratio (y) = 0.45012 0.32439
# Poissons Ratio (z) = 0.44728 0.11799
#
# Static dielectric constant tensor:
#      x y z
#    x 1.928300 0.000000 0.000000 
#    y 0.000000 1.883700 0.000000 
#    z 0.000000 0.000000 2.139030 
# 
# From -- ./inp_files/15884.got.cif
#   From: 2010.05.17/outbox.cif.g08.bks.cpg/sg63_8_cif.got.tgz:15884.got - 2010.06.03 15:47:04.
