data_PCOD9474189
_publ_section_title
;
Structure prediction by ZEFSAII (Michael W. Deem and Ramdas Pophale) SiO2 
 PCOD9474189
Probable space group: C M C M
;
_chemical_formula_sum "Si O2"
_cell_formula_units_Z 72
_cell_length_a 15.813870
_cell_length_b 27.414521
_cell_length_c 8.468020
_cell_angle_alpha 90.000000
_cell_angle_beta 90.000000
_cell_angle_gamma 90.000000
_cell_volume 3671.137926
_symmetry_space_group_name_H-M "C M C M"
_symmetry_group_IT_number 63
_symmetry_cell_setting 'orthorhombic'
loop_
_space_group_symop_operation_xyz
x,y,z
-x,-y,1/2+z
x,-y,-z
-x,y,1/2-z
-x,-y,-z
x,y,1/2-z
-x,y,z
x,-y,1/2+z
1/2+x,1/2+y,z
1/2-x,1/2-y,1/2+z
1/2+x,1/2-y,-z
1/2-x,1/2+y,1/2-z
1/2-x,1/2-y,-z
1/2+x,1/2+y,1/2-z
1/2-x,1/2+y,z
1/2+x,1/2-y,1/2+z
loop_
_atom_site_type_symbol
_atom_site_label
_atom_site_fract_x
_atom_site_fract_y
_atom_site_fract_z
Si Si1 0.500000 0.287799 0.442876
Si Si2 0.000000 0.555203 0.562002
Si Si3 0.178393 0.054549 0.939722
Si Si4 0.836664 0.273266 0.559133
Si Si5 0.838014 0.614166 0.060343
Si Si6 0.500000 0.400382 0.442476
O O1 0.500000 0.287991 0.250000
O O2 0.416444 0.258907 0.494219
O O3 0.500000 0.344007 0.494012
O O4 0.000000 0.500000 0.500000
O O5 0.917014 0.583332 0.502207
O O6 0.000000 0.554348 0.750000
O O7 0.180103 0.054771 0.750000
O O8 0.085781 0.072843 0.993397
O O9 0.251235 0.090216 0.001348
O O10 0.194012 0.000000 0.000000
O O11 0.836448 0.272862 0.750000
O O12 0.750000 0.250000 0.500000
O O13 0.844346 0.329505 0.508099
O O14 0.839652 0.613022 0.250000
O O15 0.500000 0.400520 0.250000
#
# Coordination Sequence:
#
# PCOD9474189 Si02
#       6
#     8   8  16  16  16   8
#     4   9  17  34  57  82 111 148 187 226 276 337
#     4  12  25  42  64  89 117 154 197 246 297 355
#     4  11  22  38  59  85 115 152 195 242 293 349
#     4  10  21  37  60  86 117 154 193 236 285 339
#     4  11  23  40  60  87 121 157 195 241 294 350
#     4   9  19  34  57  85 115 150 191 236 285 340
#
# _framework density 19.612448000000001
#
# number of rings (size 3 to 8) (size 9 to 14) (size 15 to 20)
#    0.000    1.556    0.000    5.333    0.000    5.333 
#    0.000    2.222    0.000    5.333    0.000    0.000 
#    0.000    0.000    0.000    0.000    0.000    0.000 
#
# Total GULP energy -201326.950085 kJ/mol
# GULP energy per Si atom -5592.415280 kJ/mol
# Density = 1.956781 g / cm^3
# Si number density = 19.612448 Si / 1000 Ang^3
#
#
#
# Elastic Constant Matrix: (Units=GPa)
#
#
# Indices 1 2 3 4 5 6 
#
# 1 68.8315 -22.9433 5.2118 0.0000 0.0000 0.0000
# 2 -22.9433 72.5920 8.5436 0.0000 0.0000 0.0000
# 3 5.2118 8.5436 43.9137 0.0000 0.0000 0.0000
# 4 0.0000 0.0000 0.0000 18.0384 0.0000 0.0000
# 5 0.0000 0.0000 0.0000 0.0000 189.0825 0.0000
# 6 0.0000 0.0000 0.0000 0.0000 0.0000 45.5084
#
#
#
# Elastic Compliance Matrix: (Units=1/GPa)
#
#
# Indices 1 2 3 4 5 6 
#
# 1 0.016633 0.005618 -0.003067 0.000000 0.000000 0.000000
# 2 0.005618 0.015996 -0.003779 0.000000 0.000000 0.000000
# 3 -0.003067 -0.003779 0.023871 0.000000 0.000000 0.000000
# 4 0.000000 0.000000 0.000000 0.055437 0.000000 0.000000
# 5 0.000000 0.000000 0.000000 0.000000 0.005289 0.000000
# 6 0.000000 0.000000 0.000000 0.000000 0.000000 0.021974
#
#
# Mechanical properties :
#
#
# Convention : Reuss Voigt Hill
#
# Bulk Modulus (GPa) = 18.50332 18.55128 18.52730
# Shear Modulus (GPa) = 31.31442 63.49419 47.40430
#
# Velocity S-wave (km/s) = 4.00016 5.69603 4.92169
# Velocity P-wave (km/s) = 5.54887 7.26217 6.46255
#
# Compressibility (1/GPa) = 0.05404434
#
# Stress axis : x y z
#
# Youngs Moduli (GPa) = 60.12116 62.51566 41.89156
#
# Poissons Ratio (x) = -0.35121 0.12848
# Poissons Ratio (y) = -0.33776 0.15830
# Poissons Ratio (z) = 0.18440 0.23624
#
# Static dielectric constant tensor:
#      x y z
#    x 1.648170 0.000000 0.000000 
#    y 0.000000 1.654980 0.000000 
#    z 0.000000 0.000000 1.667910 
# 
# From -- ./inp_files/4694.got.cif
#   From: 2010.05.17/outbox.cif.g08.bks.cpg/sg63_3_cif.got.tgz:4694.got - 2010.06.03 15:47:04.
