data_PCOD9474174
_publ_section_title
;
Structure prediction by ZEFSAII (Michael W. Deem and Ramdas Pophale) SiO2 
 PCOD9474174
Probable space group: C M C M
;
_chemical_formula_sum "Si O2"
_cell_formula_units_Z 80
_cell_length_a 16.631302
_cell_length_b 28.220795
_cell_length_c 8.662896
_cell_angle_alpha 90.000000
_cell_angle_beta 90.000000
_cell_angle_gamma 90.000000
_cell_volume 4065.917800
_symmetry_space_group_name_H-M "C M C M"
_symmetry_group_IT_number 63
_symmetry_cell_setting 'orthorhombic'
loop_
_space_group_symop_operation_xyz
x,y,z
-x,-y,1/2+z
x,-y,-z
-x,y,1/2-z
-x,-y,-z
x,y,1/2-z
-x,y,z
x,-y,1/2+z
1/2+x,1/2+y,z
1/2-x,1/2-y,1/2+z
1/2+x,1/2-y,-z
1/2-x,1/2+y,1/2-z
1/2-x,1/2-y,-z
1/2+x,1/2+y,1/2-z
1/2-x,1/2+y,z
1/2+x,1/2-y,1/2+z
loop_
_atom_site_type_symbol
_atom_site_label
_atom_site_fract_x
_atom_site_fract_y
_atom_site_fract_z
Si Si1 0.000000 0.891914 0.935535
Si Si2 0.289846 0.123622 0.430345
Si Si3 0.844163 0.053780 0.565379
Si Si4 0.666823 0.771014 0.563042
Si Si5 0.500000 0.283315 0.062241
Si Si6 0.087849 0.543550 0.071593
O O1 0.000000 0.890177 0.750000
O O2 0.076295 0.921571 0.996168
O O3 0.000000 0.837362 0.998251
O O4 0.263167 0.127644 0.250000
O O5 0.224697 0.092007 0.519596
O O6 0.319893 0.174528 0.485537
O O7 0.369022 0.092366 0.437967
O O8 0.849306 0.050310 0.750000
O O9 0.833568 0.000000 0.500000
O O10 0.666384 0.769268 0.750000
O O11 0.750000 0.750000 0.500000
O O12 0.583057 0.744659 0.515684
O O13 0.500000 0.285704 0.250000
O O14 0.080581 0.531845 0.250000
O O15 0.000000 0.546716 0.997544
O O16 0.135482 0.500000 0.000000
#
# Coordination Sequence:
#
# PCOD9474174 Si02
#       6
#     8  16  16  16   8  16
#     4  12  25  43  66  92 123 159 203 258 317 378
#     4  10  21  37  59  87 119 159 204 249 299 357
#     4  12  25  42  64  92 126 163 204 253 311 378
#     4  10  22  39  61  88 122 161 209 260 313 370
#     4  10  22  41  65  94 127 171 217 264 320 382
#     4   9  18  32  52  78 111 149 190 233 282 338
#
# _framework density 19.675754000000001
#
# number of rings (size 3 to 8) (size 9 to 14) (size 15 to 20)
#    0.000    1.600    0.000    4.800    1.400    7.200 
#    0.000    0.000    0.000    0.000    0.000    0.000 
#    0.000    0.000    0.000    0.000    0.000    0.000 
#
# Total GULP energy -222826.295836 kJ/mol
# GULP energy per Si atom -5570.657396 kJ/mol
# Density = 1.963097 g / cm^3
# Si number density = 19.675754 Si / 1000 Ang^3
#
#
#
# Elastic Constant Matrix: (Units=GPa)
#
#
# Indices 1 2 3 4 5 6 
#
# 1 119.3454 63.1756 47.5655 0.0000 0.0000 0.0000
# 2 63.1756 174.1282 64.7611 0.0000 0.0000 0.0000
# 3 47.5655 64.7611 68.2842 0.0000 0.0000 0.0000
# 4 0.0000 0.0000 0.0000 20.6851 0.0000 0.0000
# 5 0.0000 0.0000 0.0000 0.0000 26.6841 0.0000
# 6 0.0000 0.0000 0.0000 0.0000 0.0000 85.0581
#
#
#
# Elastic Compliance Matrix: (Units=1/GPa)
#
#
# Indices 1 2 3 4 5 6 
#
# 1 0.012002 -0.001924 -0.006536 0.000000 0.000000 0.000000
# 2 -0.001924 0.009181 -0.007367 0.000000 0.000000 0.000000
# 3 -0.006536 -0.007367 0.026185 0.000000 0.000000 0.000000
# 4 0.000000 0.000000 0.000000 0.048344 0.000000 0.000000
# 5 0.000000 0.000000 0.000000 0.000000 0.037476 0.000000
# 6 0.000000 0.000000 0.000000 0.000000 0.000000 0.011757
#
#
# Mechanical properties :
#
#
# Convention : Reuss Voigt Hill
#
# Bulk Modulus (GPa) = 63.63812 79.19579 71.41696
# Shear Modulus (GPa) = 27.49735 38.90252 33.19993
#
# Velocity S-wave (km/s) = 3.74240 4.45137 4.11220
# Velocity P-wave (km/s) = 7.14757 8.17052 7.67611
#
# Compressibility (1/GPa) = 0.01571385
#
# Stress axis : x y z
#
# Youngs Moduli (GPa) = 83.31692 108.92351 38.19033
#
# Poissons Ratio (x) = 0.20953 0.24962
# Poissons Ratio (y) = 0.16027 0.28135
# Poissons Ratio (z) = 0.54458 0.80245
#
# Static dielectric constant tensor:
#      x y z
#    x 1.755350 0.000000 0.000000 
#    y 0.000000 1.554900 0.000000 
#    z 0.000000 0.000000 1.690010 
# 
# From -- ./inp_files/6523.got.cif
#   From: 2010.05.17/outbox.cif.g08.bks.cpg/sg63_4_cif.got.tgz:6523.got - 2010.06.03 15:47:04.
