data_PCOD9474330
_publ_section_title
;
Structure prediction by ZEFSAII (Michael W. Deem and Ramdas Pophale) SiO2 
 PCOD9474330
Probable space group: C M C M
;
_chemical_formula_sum "Si O2"
_cell_formula_units_Z 96
_cell_length_a 20.449520
_cell_length_b 23.274444
_cell_length_c 11.457770
_cell_angle_alpha 90.000000
_cell_angle_beta 90.000000
_cell_angle_gamma 90.000000
_cell_volume 5453.339473
_symmetry_space_group_name_H-M "C M C M"
_symmetry_group_IT_number 63
_symmetry_cell_setting 'orthorhombic'
loop_
_space_group_symop_operation_xyz
x,y,z
-x,-y,1/2+z
x,-y,-z
-x,y,1/2-z
-x,-y,-z
x,y,1/2-z
-x,y,z
x,-y,1/2+z
1/2+x,1/2+y,z
1/2-x,1/2-y,1/2+z
1/2+x,1/2-y,-z
1/2-x,1/2+y,1/2-z
1/2-x,1/2-y,-z
1/2+x,1/2+y,1/2-z
1/2-x,1/2+y,z
1/2+x,1/2-y,1/2+z
loop_
_atom_site_type_symbol
_atom_site_label
_atom_site_fract_x
_atom_site_fract_y
_atom_site_fract_z
Si Si1 0.789576 0.327487 0.109865
Si Si2 0.575136 0.093894 0.250000
Si Si3 0.348908 0.720656 0.528070
Si Si4 0.324397 0.934970 0.952025
Si Si5 0.814624 0.034795 0.121262
Si Si6 0.926199 0.129671 0.117295
Si Si7 0.075179 0.731422 0.250000
O O1 0.792917 0.330224 0.250000
O O2 0.714853 0.315349 0.068992
O O3 0.827195 0.271982 0.058205
O O4 0.817744 0.385628 0.050728
O O5 0.500000 0.072739 0.250000
O O6 0.616184 0.075602 0.363809
O O7 0.573465 0.162743 0.250000
O O8 0.398833 0.678332 0.465663
O O9 0.384753 0.747794 0.638425
O O10 0.254849 0.932626 0.884647
O O11 0.329961 0.000000 0.000000
O O12 0.816738 0.004755 0.250000
O O13 0.875734 0.077270 0.115701
O O14 0.816545 0.000000 0.000000
O O15 0.926368 0.151920 0.250000
O O16 0.000000 0.112062 0.087207
O O17 0.000000 0.752449 0.250000
#
# Coordination Sequence:
#
# PCOD9474330 Si02
#       7
#    16   8  16  16  16  16   8
#     4  11  23  37  61  93 121 153 201 257 300 355
#     4  11  24  44  65  88 119 155 200 246 305 372
#     4  11  21  38  59  88 125 158 200 247 303 360
#     4  11  23  40  66  89 116 157 199 250 303 362
#     4  10  21  38  62  90 120 161 209 256 303 362
#     4  10  21  38  60  86 122 166 206 247 300 360
#     4  11  22  38  61  86 122 163 202 242 298 368
#
# _framework density 17.603891999999998
#
# number of rings (size 3 to 8) (size 9 to 14) (size 15 to 20)
#    0.000    1.333    5.000    1.000    1.167    1.333 
#    1.500    0.000    0.000    1.000    0.000    0.000 
#    0.000    0.000    0.000    0.000    0.000    0.000 
#
# Total GULP energy -267703.904496 kJ/mol
# GULP energy per Si atom -5577.164677 kJ/mol
# Density = 1.756383 g / cm^3
# Si number density = 17.603892 Si / 1000 Ang^3
#
#
#
# Elastic Constant Matrix: (Units=GPa)
#
#
# Indices 1 2 3 4 5 6 
#
# 1 149.6766 41.7554 61.4592 0.0000 0.0000 0.0000
# 2 41.7554 70.2857 60.5977 0.0000 0.0000 0.0000
# 3 61.4592 60.5977 154.0406 0.0000 0.0000 0.0000
# 4 0.0000 0.0000 0.0000 9.4459 0.0000 0.0000
# 5 0.0000 0.0000 0.0000 0.0000 38.4403 0.0000
# 6 0.0000 0.0000 0.0000 0.0000 0.0000 -55.9513
#
#
#
# Elastic Compliance Matrix: (Units=1/GPa)
#
#
# Indices 1 2 3 4 5 6 
#
# 1 0.008439 -0.003194 -0.002111 0.000000 0.000000 0.000000
# 2 -0.003194 0.022738 -0.007671 0.000000 0.000000 0.000000
# 3 -0.002111 -0.007671 0.010351 0.000000 0.000000 0.000000
# 4 0.000000 0.000000 0.000000 0.105867 0.000000 0.000000
# 5 0.000000 0.000000 0.000000 0.000000 0.026014 0.000000
# 6 0.000000 0.000000 0.000000 0.000000 0.000000 -0.017873
#
#
# Mechanical properties :
#
#
# Convention : Reuss Voigt Hill
#
# Bulk Modulus (GPa) = 64.19072 77.95862 71.07467
# Shear Modulus (GPa) = 26.78389 12.39968 19.59178
#
# Velocity S-wave (km/s) = 3.90484 2.65688 3.33967
# Velocity P-wave (km/s) = 7.54145 7.33437 7.43863
#
# Compressibility (1/GPa) = 0.01557858
#
# Stress axis : x y z
#
# Youngs Moduli (GPa) = 118.50310 43.97844 96.60475
#
# Poissons Ratio (x) = 0.14045 0.20389
# Poissons Ratio (y) = 0.37845 0.74104
# Poissons Ratio (z) = 0.25010 0.33735
#
# Static dielectric constant tensor:
#      x y z
#    x 1.595660 0.000000 0.000000 
#    y 0.000000 1.586890 0.000000 
#    z 0.000000 0.000000 1.623560 
# 
# From -- ./inp_files/22824.got.cif
#   From: 2010.05.17/outbox.cif.g08.bks.cpg/sg63_12_cif.got.tgz:22824.got - 2010.06.03 15:47:04.
