data_PCOD9474342
_publ_section_title
;
Structure prediction by ZEFSAII (Michael W. Deem and Ramdas Pophale) SiO2 
 PCOD9474342
Probable space group: C M C M
;
_chemical_formula_sum "Si O2"
_cell_formula_units_Z 64
_cell_length_a 19.015863
_cell_length_b 10.269264
_cell_length_c 17.700318
_cell_angle_alpha 90.000000
_cell_angle_beta 90.000000
_cell_angle_gamma 90.000000
_cell_volume 3456.498936
_symmetry_space_group_name_H-M "C M C M"
_symmetry_group_IT_number 63
_symmetry_cell_setting 'orthorhombic'
loop_
_space_group_symop_operation_xyz
x,y,z
-x,-y,1/2+z
x,-y,-z
-x,y,1/2-z
-x,-y,-z
x,y,1/2-z
-x,y,z
x,-y,1/2+z
1/2+x,1/2+y,z
1/2-x,1/2-y,1/2+z
1/2+x,1/2-y,-z
1/2-x,1/2+y,1/2-z
1/2-x,1/2-y,-z
1/2+x,1/2+y,1/2-z
1/2-x,1/2+y,z
1/2+x,1/2-y,1/2+z
loop_
_atom_site_type_symbol
_atom_site_label
_atom_site_fract_x
_atom_site_fract_y
_atom_site_fract_z
Si Si1 0.916728 0.850712 0.010830
Si Si2 0.205816 0.747600 0.922990
Si Si3 0.283961 0.023894 0.338142
Si Si4 0.917751 0.702040 0.335811
O O1 0.903266 0.802716 0.096483
O O2 0.000000 0.842360 0.997749
O O3 0.873835 0.765380 0.951142
O O4 0.894111 0.000000 0.000000
O O5 0.231797 0.868824 0.873064
O O6 0.218768 0.612479 0.880951
O O7 0.250000 0.750000 0.000000
O O8 0.268717 0.004783 0.250000
O O9 0.362288 0.085654 0.345105
O O10 0.907861 0.754229 0.250000
O O11 0.000000 0.662928 0.342245
#
# Coordination Sequence:
#
# PCOD9474342 Si02
#       4
#    16  16  16  16
#     4  10  21  38  60  90 124 160 201 248 301 358
#     4  12  23  39  61  90 120 158 200 252 301 357
#     4  11  24  41  61  87 120 158 202 249 304 361
#     4   9  19  37  61  87 118 156 198 244 299 362
#
# _framework density 18.515846
#
# number of rings (size 3 to 8) (size 9 to 14) (size 15 to 20)
#    0.000    1.500    2.500    3.000    0.000    1.000 
#    0.000    3.750    0.000    3.750    0.000    0.000 
#    0.000    0.000    0.000    0.000    0.000    0.000 
#
# Total GULP energy -178710.821024 kJ/mol
# GULP energy per Si atom -5584.713157 kJ/mol
# Density = 1.847370 g / cm^3
# Si number density = 18.515846 Si / 1000 Ang^3
#
#
#
# Elastic Constant Matrix: (Units=GPa)
#
#
# Indices 1 2 3 4 5 6 
#
# 1 59.1798 36.7859 53.5800 0.0000 0.0000 0.0000
# 2 36.7859 140.0977 100.5822 0.0000 0.0000 0.0000
# 3 53.5800 100.5822 159.2993 0.0000 0.0000 0.0000
# 4 0.0000 0.0000 0.0000 41.3061 0.0000 0.0000
# 5 0.0000 0.0000 0.0000 0.0000 31.7978 0.0000
# 6 0.0000 0.0000 0.0000 0.0000 0.0000 25.2292
#
#
#
# Elastic Compliance Matrix: (Units=1/GPa)
#
#
# Indices 1 2 3 4 5 6 
#
# 1 0.024364 -0.000940 -0.007601 0.000000 0.000000 0.000000
# 2 -0.000940 0.013093 -0.007951 0.000000 0.000000 0.000000
# 3 -0.007601 -0.007951 0.013854 0.000000 0.000000 0.000000
# 4 0.000000 0.000000 0.000000 0.024210 0.000000 0.000000
# 5 0.000000 0.000000 0.000000 0.000000 0.031449 0.000000
# 6 0.000000 0.000000 0.000000 0.000000 0.000000 0.039637
#
#
# Mechanical properties :
#
#
# Convention : Reuss Voigt Hill
#
# Bulk Modulus (GPa) = 54.56399 82.27478 68.41938
# Shear Modulus (GPa) = 26.92531 30.84186 28.88358
#
# Velocity S-wave (km/s) = 3.81750 4.08573 3.95389
# Velocity P-wave (km/s) = 6.99742 8.17244 7.60765
#
# Compressibility (1/GPa) = 0.01832710
#
# Stress axis : x y z
#
# Youngs Moduli (GPa) = 41.04427 76.37750 72.18013
#
# Poissons Ratio (x) = 0.07180 0.54865
# Poissons Ratio (y) = 0.03859 0.57388
# Poissons Ratio (z) = 0.31198 0.60725
#
# Static dielectric constant tensor:
#      x y z
#    x 1.679440 0.000000 0.000000 
#    y 0.000000 1.608670 0.000000 
#    z 0.000000 0.000000 1.616230 
# 
# From -- ./inp_files/34918.got.cif
#   From: 2010.05.17/outbox.cif.g08.bks.cpg/sg63_18_cif.got.tgz:34918.got - 2010.06.03 15:47:04.
