data_PCOD9474392
_publ_section_title
;
Structure prediction by ZEFSAII (Michael W. Deem and Ramdas Pophale) SiO2 
 PCOD9474392
Probable space group: C M C M
;
_chemical_formula_sum "Si O2"
_cell_formula_units_Z 96
_cell_length_a 15.804108
_cell_length_b 22.463362
_cell_length_c 13.548781
_cell_angle_alpha 90.000000
_cell_angle_beta 90.000000
_cell_angle_gamma 90.000000
_cell_volume 4809.998796
_symmetry_space_group_name_H-M "C M C M"
_symmetry_group_IT_number 63
_symmetry_cell_setting 'orthorhombic'
loop_
_space_group_symop_operation_xyz
x,y,z
-x,-y,1/2+z
x,-y,-z
-x,y,1/2-z
-x,-y,-z
x,y,1/2-z
-x,y,z
x,-y,1/2+z
1/2+x,1/2+y,z
1/2-x,1/2-y,1/2+z
1/2+x,1/2-y,-z
1/2-x,1/2+y,1/2-z
1/2-x,1/2-y,-z
1/2+x,1/2+y,1/2-z
1/2-x,1/2+y,z
1/2+x,1/2-y,1/2+z
loop_
_atom_site_type_symbol
_atom_site_label
_atom_site_fract_x
_atom_site_fract_y
_atom_site_fract_z
Si Si1 0.592355 0.015686 0.131350
Si Si2 0.674295 0.566195 0.536248
Si Si3 0.660301 0.113742 0.866278
Si Si4 0.500000 0.731566 0.866773
Si Si5 0.500000 0.411244 0.362339
Si Si6 0.665523 0.786702 0.531413
Si Si7 0.761640 0.607887 0.137763
O O1 0.591751 0.019261 0.250000
O O2 0.500000 0.035624 0.096203
O O3 0.669139 0.058762 0.103209
O O4 0.607574 0.946206 0.109102
O O5 0.693700 0.500000 0.500000
O O6 0.743353 0.592489 0.611945
O O7 0.583426 0.567225 0.583574
O O8 0.684055 0.605121 0.437401
O O9 0.649019 0.127623 0.750000
O O10 0.643193 0.168899 0.939590
O O11 0.500000 0.752121 0.750000
O O12 0.500000 0.660269 0.863147
O O13 0.416105 0.752016 0.927137
O O14 0.500000 0.432363 0.250000
O O15 0.750000 0.750000 0.500000
O O16 0.694017 0.829343 0.621204
O O17 0.738469 0.596272 0.250000
#
# Coordination Sequence:
#
# PCOD9474392 Si02
#       7
#    16  16  16   8   8  16  16
#     4   9  18  33  58  93 126 159 196 234 293 377
#     4  11  21  38  61  94 124 156 202 260 315 383
#     4  10  21  39  64  92 129 168 202 246 314 385
#     4  11  24  45  68  91 123 170 226 277 321 378
#     4  11  25  43  66  86 114 160 216 274 325 374
#     4  11  25  41  61  92 127 167 222 272 314 375
#     4  10  21  38  62  91 127 164 199 252 315 376
#
# _framework density 19.958424000000001
#
# number of rings (size 3 to 8) (size 9 to 14) (size 15 to 20)
#    0.000    1.667    1.667    3.250    2.333    3.333 
#    0.000    3.750    0.000    1.000    0.000    0.000 
#    0.000    0.000    0.000    0.000    0.000    0.000 
#
# Total GULP energy -267863.169195 kJ/mol
# GULP energy per Si atom -5580.482692 kJ/mol
# Density = 1.991300 g / cm^3
# Si number density = 19.958424 Si / 1000 Ang^3
#
#
#
# Elastic Constant Matrix: (Units=GPa)
#
#
# Indices 1 2 3 4 5 6 
#
# 1 110.8392 13.2775 40.6185 0.0000 0.0000 0.0000
# 2 13.2775 61.9614 10.9059 0.0000 0.0000 0.0000
# 3 40.6185 10.9059 112.9299 0.0000 0.0000 0.0000
# 4 0.0000 0.0000 0.0000 30.8846 0.0000 0.0000
# 5 0.0000 0.0000 0.0000 0.0000 20.9173 0.0000
# 6 0.0000 0.0000 0.0000 0.0000 0.0000 21.9302
#
#
#
# Elastic Compliance Matrix: (Units=1/GPa)
#
#
# Indices 1 2 3 4 5 6 
#
# 1 0.010549 -0.001620 -0.003638 0.000000 0.000000 0.000000
# 2 -0.001620 0.016667 -0.001027 0.000000 0.000000 0.000000
# 3 -0.003638 -0.001027 0.010263 0.000000 0.000000 0.000000
# 4 0.000000 0.000000 0.000000 0.032379 0.000000 0.000000
# 5 0.000000 0.000000 0.000000 0.000000 0.047807 0.000000
# 6 0.000000 0.000000 0.000000 0.000000 0.000000 0.045599
#
#
# Mechanical properties :
#
#
# Convention : Reuss Voigt Hill
#
# Bulk Modulus (GPa) = 40.14600 46.14827 43.14714
# Shear Modulus (GPa) = 27.15367 29.47499 28.31433
#
# Velocity S-wave (km/s) = 3.69251 3.84711 3.77060
# Velocity P-wave (km/s) = 6.19177 6.55027 6.37354
#
# Compressibility (1/GPa) = 0.02490908
#
# Stress axis : x y z
#
# Youngs Moduli (GPa) = 94.79280 59.99880 97.44042
#
# Poissons Ratio (x) = 0.09721 0.35448
# Poissons Ratio (y) = 0.15359 0.10005
# Poissons Ratio (z) = 0.34485 0.06161
#
# Static dielectric constant tensor:
#      x y z
#    x 1.709730 0.000000 0.000000 
#    y 0.000000 1.732850 0.000000 
#    z 0.000000 0.000000 1.725580 
# 
# From -- ./inp_files/31979.got.cif
#   From: 2010.05.17/outbox.cif.g08.bks.cpg/sg63_16_cif.got.tgz:31979.got - 2010.06.03 15:47:04.
