data_PCOD9474152
_publ_section_title
;
Structure prediction by ZEFSAII (Michael W. Deem and Ramdas Pophale) SiO2 
 PCOD9474152
Probable space group: C M C M
;
_chemical_formula_sum "Si O2"
_cell_formula_units_Z 112
_cell_length_a 25.708023
_cell_length_b 15.019982
_cell_length_c 14.933325
_cell_angle_alpha 90.000000
_cell_angle_beta 90.000000
_cell_angle_gamma 90.000000
_cell_volume 5766.265153
_symmetry_space_group_name_H-M "C M C M"
_symmetry_group_IT_number 63
_symmetry_cell_setting 'orthorhombic'
loop_
_space_group_symop_operation_xyz
x,y,z
-x,-y,1/2+z
x,-y,-z
-x,y,1/2-z
-x,-y,-z
x,y,1/2-z
-x,y,z
x,-y,1/2+z
1/2+x,1/2+y,z
1/2-x,1/2-y,1/2+z
1/2+x,1/2-y,-z
1/2-x,1/2+y,1/2-z
1/2-x,1/2-y,-z
1/2+x,1/2+y,1/2-z
1/2-x,1/2+y,z
1/2+x,1/2-y,1/2+z
loop_
_atom_site_type_symbol
_atom_site_label
_atom_site_fract_x
_atom_site_fract_y
_atom_site_fract_z
Si Si1 0.638128 0.549083 0.854517
Si Si2 0.942955 0.342221 0.849983
Si Si3 0.799560 0.716453 0.555473
Si Si4 0.848088 0.425300 0.931805
Si Si5 0.882581 0.839246 0.853013
Si Si6 0.243045 0.456843 0.144745
Si Si7 0.058619 0.167101 0.530579
O O1 0.636223 0.581477 0.750000
O O2 0.623060 0.445667 0.853128
O O3 0.697734 0.550482 0.888462
O O4 0.600403 0.604454 0.919086
O O5 0.940880 0.303951 0.750000
O O6 0.893648 0.405647 0.862623
O O7 0.940424 0.261463 0.919187
O O8 0.000000 0.386203 0.860487
O O9 0.750000 0.750000 0.500000
O O10 0.835756 0.665627 0.483825
O O11 0.830541 0.792473 0.608174
O O12 0.782805 0.637849 0.622739
O O13 0.793780 0.466564 0.896114
O O14 0.868091 0.500000 0.000000
O O15 0.891882 0.810747 0.750000
O O16 0.926182 0.819177 0.927111
O O17 0.246048 0.473334 0.250000
O O18 0.000000 0.130262 0.538469
#
# Coordination Sequence:
#
# PCOD9474152 Si02
#       7
#    16  16  16  16  16  16  16
#     4  10  22  39  59  90 127 162 203 258 315 373
#     4  10  21  39  64  93 122 156 206 264 315 369
#     4  11  21  36  58  86 119 164 208 248 301 369
#     4  10  21  37  60  90 121 163 202 252 311 373
#     4  11  23  39  59  85 122 163 206 255 313 380
#     4  10  21  37  58  89 126 160 203 254 308 370
#     4  11  23  41  64  89 120 162 213 266 314 371
#
# _framework density 19.423317000000001
#
# number of rings (size 3 to 8) (size 9 to 14) (size 15 to 20)
#    0.000    1.571    1.429    3.429    0.000    4.857 
#    0.000    2.857    0.000    0.000    0.000    0.000 
#    0.000    0.000    0.000    0.000    0.000    0.000 
#
# Total GULP energy -312530.101579 kJ/mol
# GULP energy per Si atom -5580.894671 kJ/mol
# Density = 1.937911 g / cm^3
# Si number density = 19.423317 Si / 1000 Ang^3
#
#
#
# Elastic Constant Matrix: (Units=GPa)
#
#
# Indices 1 2 3 4 5 6 
#
# 1 140.8498 32.1849 61.1041 0.0000 0.0000 0.0000
# 2 32.1849 36.7570 25.4953 0.0000 0.0000 0.0000
# 3 61.1041 25.4953 112.4464 0.0000 0.0000 0.0000
# 4 0.0000 0.0000 0.0000 27.1607 0.0000 0.0000
# 5 0.0000 0.0000 0.0000 0.0000 25.2084 0.0000
# 6 0.0000 0.0000 0.0000 0.0000 0.0000 26.4608
#
#
#
# Elastic Compliance Matrix: (Units=1/GPa)
#
#
# Indices 1 2 3 4 5 6 
#
# 1 0.010331 -0.006113 -0.004228 0.000000 0.000000 0.000000
# 2 -0.006113 0.035900 -0.004818 0.000000 0.000000 0.000000
# 3 -0.004228 -0.004818 0.012283 0.000000 0.000000 0.000000
# 4 0.000000 0.000000 0.000000 0.036818 0.000000 0.000000
# 5 0.000000 0.000000 0.000000 0.000000 0.039669 0.000000
# 6 0.000000 0.000000 0.000000 0.000000 0.000000 0.037792
#
#
# Mechanical properties :
#
#
# Convention : Reuss Voigt Hill
#
# Bulk Modulus (GPa) = 35.46562 58.62465 47.04513
# Shear Modulus (GPa) = 23.52837 27.18389 25.35613
#
# Velocity S-wave (km/s) = 3.48422 3.74511 3.61702
# Velocity P-wave (km/s) = 5.87242 6.99638 6.45889
#
# Compressibility (1/GPa) = 0.02819632
#
# Stress axis : x y z
#
# Youngs Moduli (GPa) = 96.79807 27.85488 81.41444
#
# Poissons Ratio (x) = 0.17029 0.34420
# Poissons Ratio (y) = 0.59176 0.39223
# Poissons Ratio (z) = 0.40923 0.13420
#
# Static dielectric constant tensor:
#      x y z
#    x 1.708020 0.000000 0.000000 
#    y 0.000000 1.645740 0.000000 
#    z 0.000000 0.000000 1.700240 
# 
# From -- ./inp_files/36906.got.cif
#   From: 2010.05.17/outbox.cif.g08.bks.cpg/sg63_19_cif.got.tgz:36906.got - 2010.06.03 15:47:04.
