data_PCOD9474987
_publ_section_title
;
Structure prediction by ZEFSAII (Michael W. Deem and Ramdas Pophale) SiO2 
 PCOD9474987
Probable space group: C M C M
;
_chemical_formula_sum "Si O2"
_cell_formula_units_Z 96
_cell_length_a 23.309684
_cell_length_b 25.080313
_cell_length_c 8.116754
_cell_angle_alpha 90.000000
_cell_angle_beta 90.000000
_cell_angle_gamma 90.000000
_cell_volume 4745.169408
_symmetry_space_group_name_H-M "C M C M"
_symmetry_group_IT_number 63
_symmetry_cell_setting 'orthorhombic'
loop_
_space_group_symop_operation_xyz
x,y,z
-x,-y,1/2+z
x,-y,-z
-x,y,1/2-z
-x,-y,-z
x,y,1/2-z
-x,y,z
x,-y,1/2+z
1/2+x,1/2+y,z
1/2-x,1/2-y,1/2+z
1/2+x,1/2-y,-z
1/2-x,1/2+y,1/2-z
1/2-x,1/2-y,-z
1/2+x,1/2+y,1/2-z
1/2-x,1/2+y,z
1/2+x,1/2-y,1/2+z
loop_
_atom_site_type_symbol
_atom_site_label
_atom_site_fract_x
_atom_site_fract_y
_atom_site_fract_z
Si Si1 0.241691 0.835258 0.550195
Si Si2 0.874126 0.220667 0.048846
Si Si3 0.322806 0.557682 0.447194
Si Si4 0.935935 0.112083 0.048554
Si Si5 0.434761 0.057998 0.054783
Si Si6 0.871753 0.664228 0.942990
O O1 0.247086 0.832581 0.750000
O O2 0.191433 0.794041 0.499632
O O3 0.217046 0.893309 0.502772
O O4 0.303685 0.830546 0.471460
O O5 0.873724 0.221444 0.250000
O O6 0.914001 0.171091 0.000469
O O7 0.894141 0.278687 0.990035
O O8 0.302740 0.500000 0.500000
O O9 0.324553 0.559122 0.250000
O O10 0.387157 0.570942 0.507800
O O11 0.936472 0.111305 0.250000
O O12 0.000000 0.101110 0.990506
O O13 0.438744 0.055760 0.250000
O O14 0.500000 0.063622 0.985893
O O15 0.397278 0.109763 0.013334
O O16 0.411845 0.000000 0.000000
O O17 0.884316 0.662496 0.750000
#
# Coordination Sequence:
#
# PCOD9474987 Si02
#       6
#    16  16  16  16  16  16
#     4   9  18  34  51  69 101 141 178 215 254 297
#     4   8  16  30  48  73 104 137 173 213 254 298
#     4   9  18  31  48  70  96 129 168 209 252 296
#     4   8  14  27  47  70  97 130 167 206 248 293
#     4  10  22  41  61  79 103 135 168 205 252 304
#     4  11  21  32  53  84 108 130 167 209 254 309
#
# _framework density 20.231100999999999
#
# number of rings (size 3 to 8) (size 9 to 14) (size 15 to 20)
#    0.000    2.833    0.000    3.500    0.000    3.333 
#    0.000    4.167    0.000    2.000    0.000    0.000 
#    0.000    0.000    0.000    0.000    0.000    0.000 
#
# Total GULP energy -267623.114386 kJ/mol
# GULP energy per Si atom -5575.481550 kJ/mol
# Density = 2.018505 g / cm^3
# Si number density = 20.231101 Si / 1000 Ang^3
#
#
#
# Elastic Constant Matrix: (Units=GPa)
#
#
# Indices 1 2 3 4 5 6 
#
# 1 9.5226 -4.9657 -5.4964 0.0000 0.0000 0.0000
# 2 -4.9657 132.6027 11.0915 0.0000 0.0000 0.0000
# 3 -5.4964 11.0915 12.6967 0.0000 0.0000 0.0000
# 4 0.0000 0.0000 0.0000 14.1893 0.0000 0.0000
# 5 0.0000 0.0000 0.0000 0.0000 12.0166 0.0000
# 6 0.0000 0.0000 0.0000 0.0000 0.0000 8.5011
#
#
#
# Elastic Compliance Matrix: (Units=1/GPa)
#
#
# Indices 1 2 3 4 5 6 
#
# 1 0.139997 0.000187 0.060441 0.000000 0.000000 0.000000
# 2 0.000187 0.008136 -0.007027 0.000000 0.000000 0.000000
# 3 0.060441 -0.007027 0.111064 0.000000 0.000000 0.000000
# 4 0.000000 0.000000 0.000000 0.070476 0.000000 0.000000
# 5 0.000000 0.000000 0.000000 0.000000 0.083218 0.000000
# 6 0.000000 0.000000 0.000000 0.000000 0.000000 0.117632
#
#
# Mechanical properties :
#
#
# Convention : Reuss Voigt Hill
#
# Bulk Modulus (GPa) = 2.72925 17.34233 10.03579
# Shear Modulus (GPa) = 9.16670 17.22091 13.19380
#
# Velocity S-wave (km/s) = 2.13092 2.92071 2.55650
# Velocity P-wave (km/s) = 2.72147 4.46820 3.69941
#
# Compressibility (1/GPa) = 0.36640059
#
# Stress axis : x y z
#
# Youngs Moduli (GPa) = 7.14302 122.90965 9.00382
#
# Poissons Ratio (x) = -0.02298 -0.54420
# Poissons Ratio (y) = -0.00134 0.06327
# Poissons Ratio (z) = -0.43173 0.86363
#
# Static dielectric constant tensor:
#      x y z
#    x 1.714650 0.000000 0.000000 
#    y 0.000000 1.750140 0.000000 
#    z 0.000000 0.000000 1.703610 
# 
# From -- ./inp_files/10485.got.cif
#   From: 2010.05.17/outbox.cif.g08.bks.cpg/sg63_6_cif.got.tgz:10485.got - 2010.06.03 15:47:04.
