data_PCOD9474739
_publ_section_title
;
Structure prediction by ZEFSAII (Michael W. Deem and Ramdas Pophale) SiO2 
 PCOD9474739
Probable space group: C M C M
;
_chemical_formula_sum "Si O2"
_cell_formula_units_Z 64
_cell_length_a 29.433222
_cell_length_b 5.175150
_cell_length_c 20.819710
_cell_angle_alpha 90.000000
_cell_angle_beta 90.000000
_cell_angle_gamma 90.000000
_cell_volume 3171.286101
_symmetry_space_group_name_H-M "C M C M"
_symmetry_group_IT_number 63
_symmetry_cell_setting 'orthorhombic'
loop_
_space_group_symop_operation_xyz
x,y,z
-x,-y,1/2+z
x,-y,-z
-x,y,1/2-z
-x,-y,-z
x,y,1/2-z
-x,y,z
x,-y,1/2+z
1/2+x,1/2+y,z
1/2-x,1/2-y,1/2+z
1/2+x,1/2-y,-z
1/2-x,1/2+y,1/2-z
1/2-x,1/2-y,-z
1/2+x,1/2+y,1/2-z
1/2-x,1/2+y,z
1/2+x,1/2-y,1/2+z
loop_
_atom_site_type_symbol
_atom_site_label
_atom_site_fract_x
_atom_site_fract_y
_atom_site_fract_z
Si Si1 0.224490 0.311107 0.672202
Si Si2 0.947821 0.550937 0.120144
Si Si3 0.095628 0.934037 0.930175
Si Si4 0.861551 0.646145 0.677786
O O1 0.225754 0.299739 0.750000
O O2 0.238587 0.026063 0.650458
O O3 0.176024 0.438281 0.656794
O O4 0.935216 0.829304 0.092733
O O5 0.911168 0.487357 0.175559
O O6 0.000000 0.534695 0.139233
O O7 0.935079 0.325217 0.069309
O O8 0.132647 0.868105 0.875443
O O9 0.114498 0.000000 0.000000
O O10 0.850837 0.737985 0.750000
#
# Coordination Sequence:
#
# PCOD9474739 Si02
#       4
#    16  16  16  16
#     4   9  18  32  54  80 106 140 185 232 277 330
#     4  10  22  37  57  82 111 149 190 230 276 330
#     4  10  22  38  59  83 111 152 193 235 274 327
#     4   9  22  38  57  84 118 149 184 234 290 336
#
# _framework density 20.181086000000001
#
# number of rings (size 3 to 8) (size 9 to 14) (size 15 to 20)
#    1.500    1.000    0.000    1.500    3.500    4.500 
#    0.000    0.000    0.000    1.500    0.000    0.000 
#    0.000    0.000    0.000    0.000    0.000    0.000 
#
# Total GULP energy -178153.973312 kJ/mol
# GULP energy per Si atom -5567.311666 kJ/mol
# Density = 2.013515 g / cm^3
# Si number density = 20.181086 Si / 1000 Ang^3
#
#
#
# Elastic Constant Matrix: (Units=GPa)
#
#
# Indices 1 2 3 4 5 6 
#
# 1 82.1291 6.1394 19.9852 0.0000 0.0000 0.0000
# 2 6.1394 93.0932 -3.4319 0.0000 0.0000 0.0000
# 3 19.9852 -3.4319 52.8903 0.0000 0.0000 0.0000
# 4 0.0000 0.0000 0.0000 10.8682 0.0000 0.0000
# 5 0.0000 0.0000 0.0000 0.0000 -5.1610 0.0000
# 6 0.0000 0.0000 0.0000 0.0000 0.0000 20.9619
#
#
#
# Elastic Compliance Matrix: (Units=1/GPa)
#
#
# Indices 1 2 3 4 5 6 
#
# 1 0.013517 -0.001082 -0.005178 0.000000 0.000000 0.000000
# 2 -0.001082 0.010854 0.001113 0.000000 0.000000 0.000000
# 3 -0.005178 0.001113 0.020936 0.000000 0.000000 0.000000
# 4 0.000000 0.000000 0.000000 0.092011 0.000000 0.000000
# 5 0.000000 0.000000 0.000000 0.000000 -0.193761 0.000000
# 6 0.000000 0.000000 0.000000 0.000000 0.000000 0.047706
#
#
# Mechanical properties :
#
#
# Convention : Reuss Voigt Hill
#
# Bulk Modulus (GPa) = 28.56048 30.38866 29.47457
# Shear Modulus (GPa) = 378.00633 19.02849 198.51741
#
# Velocity S-wave (km/s) = 13.70087 3.07398 9.92883
# Velocity P-wave (km/s) = 16.26247 5.26211 12.08631
#
# Compressibility (1/GPa) = 0.03501342
#
# Stress axis : x y z
#
# Youngs Moduli (GPa) = 73.98205 92.12908 47.76522
#
# Poissons Ratio (x) = 0.09971 0.24731
# Poissons Ratio (y) = 0.08007 -0.05318
# Poissons Ratio (z) = 0.38306 -0.10256
#
# Static dielectric constant tensor:
#      x y z
#    x 1.736250 0.000000 0.000000 
#    y 0.000000 1.742130 0.000000 
#    z 0.000000 0.000000 1.721680 
# 
# From -- ./inp_files/57854.got.cif
#   From: 2010.05.17/outbox.cif.g08.bks.cpg/sg63_29_cif.got.tgz:57854.got - 2010.06.03 15:47:04.
