data_PCOD9474425
_publ_section_title
;
Structure prediction by ZEFSAII (Michael W. Deem and Ramdas Pophale) SiO2 
 PCOD9474425
Probable space group: C M C M
;
_chemical_formula_sum "Si O2"
_cell_formula_units_Z 80
_cell_length_a 15.673262
_cell_length_b 9.488234
_cell_length_c 27.604174
_cell_angle_alpha 90.000000
_cell_angle_beta 90.000000
_cell_angle_gamma 90.000000
_cell_volume 4105.060258
_symmetry_space_group_name_H-M "C M C M"
_symmetry_group_IT_number 63
_symmetry_cell_setting 'orthorhombic'
loop_
_space_group_symop_operation_xyz
x,y,z
-x,-y,1/2+z
x,-y,-z
-x,y,1/2-z
-x,-y,-z
x,y,1/2-z
-x,y,z
x,-y,1/2+z
1/2+x,1/2+y,z
1/2-x,1/2-y,1/2+z
1/2+x,1/2-y,-z
1/2-x,1/2+y,1/2-z
1/2-x,1/2-y,-z
1/2+x,1/2+y,1/2-z
1/2-x,1/2+y,z
1/2+x,1/2-y,1/2+z
loop_
_atom_site_type_symbol
_atom_site_label
_atom_site_fract_x
_atom_site_fract_y
_atom_site_fract_z
Si Si1 0.742519 0.622631 0.536646
Si Si2 0.160235 0.711887 0.805661
Si Si3 0.403593 0.952908 0.396443
Si Si4 0.840048 0.045658 0.805008
Si Si5 0.405499 0.285359 0.108361
O O1 0.719086 0.500000 0.500000
O O2 0.750000 0.750000 0.500000
O O3 0.829926 0.590374 0.565733
O O4 0.668885 0.655201 0.574834
O O5 0.127930 0.697771 0.750000
O O6 0.105615 0.640166 0.847890
O O7 0.250065 0.628547 0.807554
O O8 0.171395 0.879055 0.815664
O O9 0.500000 0.936293 0.415989
O O10 0.391387 0.118317 0.383777
O O11 0.871750 0.056211 0.750000
O O12 0.899639 0.125506 0.842549
O O13 0.500000 0.301382 0.086741
#
# Coordination Sequence:
#
# PCOD9474425 Si02
#       5
#    16  16  16  16  16
#     4  12  26  46  70  93 125 168 217 271 329 383
#     4  10  21  38  64  97 133 174 216 259 316 383
#     4  11  25  44  68  98 132 171 216 265 324 390
#     4  10  21  38  64  97 134 174 215 260 316 383
#     4  11  25  44  67  99 133 168 216 267 324 387
#
# _framework density 19.488143000000001
#
# number of rings (size 3 to 8) (size 9 to 14) (size 15 to 20)
#    0.000    1.200    4.000    1.200    2.800    5.600 
#    0.000    4.000    0.000    0.000    0.000    0.000 
#    0.000    0.000    0.000    0.000    0.000    0.000 
#
# Total GULP energy -223353.803766 kJ/mol
# GULP energy per Si atom -5583.845094 kJ/mol
# Density = 1.944379 g / cm^3
# Si number density = 19.488143 Si / 1000 Ang^3
#
#
#
# Elastic Constant Matrix: (Units=GPa)
#
#
# Indices 1 2 3 4 5 6 
#
# 1 122.1334 58.6035 59.5452 0.0000 0.0000 0.0000
# 2 58.6035 164.3851 70.6159 0.0000 0.0000 0.0000
# 3 59.5452 70.6159 100.3215 0.0000 0.0000 0.0000
# 4 0.0000 0.0000 0.0000 44.5483 0.0000 0.0000
# 5 0.0000 0.0000 0.0000 0.0000 -11.8767 0.0000
# 6 0.0000 0.0000 0.0000 0.0000 0.0000 23.1310
#
#
#
# Elastic Compliance Matrix: (Units=1/GPa)
#
#
# Indices 1 2 3 4 5 6 
#
# 1 0.011854 -0.001725 -0.005821 0.000000 0.000000 0.000000
# 2 -0.001725 0.008971 -0.005291 0.000000 0.000000 0.000000
# 3 -0.005821 -0.005291 0.017147 0.000000 0.000000 0.000000
# 4 0.000000 0.000000 0.000000 0.022448 0.000000 0.000000
# 5 0.000000 0.000000 0.000000 0.000000 -0.084198 0.000000
# 6 0.000000 0.000000 0.000000 0.000000 0.000000 0.043232
#
#
# Mechanical properties :
#
#
# Convention : Reuss Voigt Hill
#
# Bulk Modulus (GPa) = 81.31686 84.92993 83.12339
# Shear Modulus (GPa) = 101.57009 24.36554 62.96781
#
# Velocity S-wave (km/s) = 7.22718 3.53976 5.69043
# Velocity P-wave (km/s) = 10.55745 7.77055 9.26933
#
# Compressibility (1/GPa) = 0.01229757
#
# Stress axis : x y z
#
# Youngs Moduli (GPa) = 84.36174 111.46940 58.31813
#
# Poissons Ratio (x) = 0.19230 0.33949
# Poissons Ratio (y) = 0.14554 0.30855
# Poissons Ratio (z) = 0.49110 0.58976
#
# Static dielectric constant tensor:
#      x y z
#    x 1.696110 0.000000 0.000000 
#    y 0.000000 1.647600 0.000000 
#    z 0.000000 0.000000 2.314330 
# 
# From -- ./inp_files/69738.got.cif
#   From: 2010.05.17/outbox.cif.g08.bks.cpg/sg63_35_cif.got.tgz:69738.got - 2010.06.03 15:47:04.
