data_PCOD9474549
_publ_section_title
;
Structure prediction by ZEFSAII (Michael W. Deem and Ramdas Pophale) SiO2 
 PCOD9474549
Probable space group: C M C M
;
_chemical_formula_sum "Si O2"
_cell_formula_units_Z 80
_cell_length_a 21.022315
_cell_length_b 9.693319
_cell_length_c 16.117959
_cell_angle_alpha 90.000000
_cell_angle_beta 90.000000
_cell_angle_gamma 90.000000
_cell_volume 3284.453300
_symmetry_space_group_name_H-M "C M C M"
_symmetry_group_IT_number 63
_symmetry_cell_setting 'orthorhombic'
loop_
_space_group_symop_operation_xyz
x,y,z
-x,-y,1/2+z
x,-y,-z
-x,y,1/2-z
-x,-y,-z
x,y,1/2-z
-x,y,z
x,-y,1/2+z
1/2+x,1/2+y,z
1/2-x,1/2-y,1/2+z
1/2+x,1/2-y,-z
1/2-x,1/2+y,1/2-z
1/2-x,1/2-y,-z
1/2+x,1/2+y,1/2-z
1/2-x,1/2+y,z
1/2+x,1/2-y,1/2+z
loop_
_atom_site_type_symbol
_atom_site_label
_atom_site_fract_x
_atom_site_fract_y
_atom_site_fract_z
Si Si1 0.069210 0.700650 0.976222
Si Si2 0.743318 0.901628 0.841547
Si Si3 0.390493 0.738948 0.657534
Si Si4 0.291814 0.167151 0.931949
Si Si5 0.072718 0.059290 0.157245
O O1 0.241720 0.527532 0.904615
O O2 0.136002 0.630478 0.954406
O O3 0.000000 0.640059 0.952954
O O4 0.074889 0.840806 0.921680
O O5 0.750808 0.959903 0.750000
O O6 0.675875 0.820929 0.845752
O O7 0.793725 0.782030 0.859597
O O8 0.417833 0.765561 0.750000
O O9 0.428452 0.777632 0.574911
O O10 0.382337 0.573449 0.651263
O O11 0.250000 0.250000 0.000000
O O12 0.080541 0.123191 0.250000
O O13 0.000000 0.002802 0.156625
#
# Coordination Sequence:
#
# PCOD9474549 Si02
#       5
#    16  16  16  16  16
#     4  11  24  42  69 104 147 197 249 306 376 443
#     4  11  26  47  73 107 143 189 250 308 373 445
#     4  10  21  39  64  97 142 189 241 299 362 434
#     4  12  26  47  75 104 146 192 245 307 371 447
#     4   9  19  36  61  98 142 191 247 305 367 438
#
# _framework density 24.357175000000002
#
# number of rings (size 3 to 8) (size 9 to 14) (size 15 to 20)
#    0.000    1.400    2.000    2.400    2.800    6.000 
#    0.000    3.000    0.000    2.400    0.000    0.000 
#    0.000    0.000    0.000    0.000    0.000    0.000 
#
# Total GULP energy -223548.265900 kJ/mol
# GULP energy per Si atom -5588.706647 kJ/mol
# Density = 2.430174 g / cm^3
# Si number density = 24.357175 Si / 1000 Ang^3
#
#
#
# Elastic Constant Matrix: (Units=GPa)
#
#
# Indices 1 2 3 4 5 6 
#
# 1 151.7467 29.9553 37.8214 0.0000 0.0000 0.0000
# 2 29.9553 127.2453 45.5788 0.0000 0.0000 0.0000
# 3 37.8214 45.5788 136.5319 0.0000 0.0000 0.0000
# 4 0.0000 0.0000 0.0000 39.7990 0.0000 0.0000
# 5 0.0000 0.0000 0.0000 0.0000 31.6994 0.0000
# 6 0.0000 0.0000 0.0000 0.0000 0.0000 23.5167
#
#
#
# Elastic Compliance Matrix: (Units=1/GPa)
#
#
# Indices 1 2 3 4 5 6 
#
# 1 0.007216 -0.001116 -0.001626 0.000000 0.000000 0.000000
# 2 -0.001116 0.009099 -0.002728 0.000000 0.000000 0.000000
# 3 -0.001626 -0.002728 0.008686 0.000000 0.000000 0.000000
# 4 0.000000 0.000000 0.000000 0.025126 0.000000 0.000000
# 5 0.000000 0.000000 0.000000 0.000000 0.031546 0.000000
# 6 0.000000 0.000000 0.000000 0.000000 0.000000 0.042523
#
#
# Mechanical properties :
#
#
# Convention : Reuss Voigt Hill
#
# Bulk Modulus (GPa) = 71.13041 71.35942 71.24492
# Shear Modulus (GPa) = 35.75947 39.14759 37.45353
#
# Velocity S-wave (km/s) = 3.83577 4.01338 3.92558
# Velocity P-wave (km/s) = 6.99171 7.13000 7.06120
#
# Compressibility (1/GPa) = 0.01405868
#
# Stress axis : x y z
#
# Youngs Moduli (GPa) = 138.58904 109.90392 115.13339
#
# Poissons Ratio (x) = 0.12267 0.18723
# Poissons Ratio (y) = 0.15468 0.31412
# Poissons Ratio (z) = 0.22538 0.29985
#
# Static dielectric constant tensor:
#      x y z
#    x 2.021700 0.000000 0.000000 
#    y 0.000000 1.901040 0.000000 
#    z 0.000000 0.000000 2.006700 
# 
# From -- ./inp_files/55507.got.cif
#   From: 2010.05.17/outbox.cif.g08.bks.cpg/sg63_28_cif.got.tgz:55507.got - 2010.06.03 15:47:04.
