data_PCOD9474901
_publ_section_title
;
Structure prediction by ZEFSAII (Michael W. Deem and Ramdas Pophale) SiO2 
 PCOD9474901
Probable space group: C M C M
;
_chemical_formula_sum "Si O2"
_cell_formula_units_Z 64
_cell_length_a 8.658695
_cell_length_b 20.557775
_cell_length_c 20.224788
_cell_angle_alpha 90.000000
_cell_angle_beta 90.000000
_cell_angle_gamma 90.000000
_cell_volume 3600.083124
_symmetry_space_group_name_H-M "C M C M"
_symmetry_group_IT_number 63
_symmetry_cell_setting 'orthorhombic'
loop_
_space_group_symop_operation_xyz
x,y,z
-x,-y,1/2+z
x,-y,-z
-x,y,1/2-z
-x,-y,-z
x,y,1/2-z
-x,y,z
x,-y,1/2+z
1/2+x,1/2+y,z
1/2-x,1/2-y,1/2+z
1/2+x,1/2-y,-z
1/2-x,1/2+y,1/2-z
1/2-x,1/2-y,-z
1/2+x,1/2+y,1/2-z
1/2-x,1/2+y,z
1/2+x,1/2-y,1/2+z
loop_
_atom_site_type_symbol
_atom_site_label
_atom_site_fract_x
_atom_site_fract_y
_atom_site_fract_z
Si Si1 0.684501 0.085278 0.056978
Si Si2 0.183860 0.949662 0.413052
Si Si3 0.685471 0.274997 0.570119
Si Si4 0.685762 0.162649 0.673608
O O1 0.500000 0.083572 0.057613
O O2 0.746447 0.153748 0.083054
O O3 0.752131 0.022636 0.094480
O O4 0.742531 0.077487 0.981214
O O5 0.234316 0.901514 0.355178
O O6 0.000000 0.951232 0.420450
O O7 0.500000 0.278720 0.566099
O O8 0.750000 0.250000 0.500000
O O9 0.727815 0.223259 0.626729
O O10 0.725097 0.173982 0.750000
O O11 0.500000 0.154321 0.668678
#
# Coordination Sequence:
#
# PCOD9474901 Si02
#       4
#    16  16  16  16
#     4  11  21  35  57  84 116 150 190 240 290 342
#     4  11  21  35  57  85 115 147 190 241 290 346
#     4  11  21  35  58  87 118 152 193 243 292 345
#     4  10  22  40  60  83 116 157 195 234 290 355
#
# _framework density 17.777367000000002
#
# number of rings (size 3 to 8) (size 9 to 14) (size 15 to 20)
#    0.000    1.250    2.500    6.750    0.000    1.500 
#    0.000    1.250    0.000    4.500    0.000    0.000 
#    0.000    0.000    0.000    0.000    0.000    0.000 
#
# Total GULP energy -178852.614721 kJ/mol
# GULP energy per Si atom -5589.144210 kJ/mol
# Density = 1.773691 g / cm^3
# Si number density = 17.777367 Si / 1000 Ang^3
#
#
#
# Elastic Constant Matrix: (Units=GPa)
#
#
# Indices 1 2 3 4 5 6 
#
# 1 103.9158 66.7388 55.1347 0.0000 0.0000 0.0000
# 2 66.7388 173.1828 80.2844 0.0000 0.0000 0.0000
# 3 55.1347 80.2844 111.4376 0.0000 0.0000 0.0000
# 4 0.0000 0.0000 0.0000 26.1593 0.0000 0.0000
# 5 0.0000 0.0000 0.0000 0.0000 18.6003 0.0000
# 6 0.0000 0.0000 0.0000 0.0000 0.0000 33.8886
#
#
#
# Elastic Compliance Matrix: (Units=1/GPa)
#
#
# Indices 1 2 3 4 5 6 
#
# 1 0.014223 -0.003332 -0.004637 0.000000 0.000000 0.000000
# 2 -0.003332 0.009450 -0.005160 0.000000 0.000000 0.000000
# 3 -0.004637 -0.005160 0.014985 0.000000 0.000000 0.000000
# 4 0.000000 0.000000 0.000000 0.038227 0.000000 0.000000
# 5 0.000000 0.000000 0.000000 0.000000 0.053762 0.000000
# 6 0.000000 0.000000 0.000000 0.000000 0.000000 0.029508
#
#
# Mechanical properties :
#
#
# Convention : Reuss Voigt Hill
#
# Bulk Modulus (GPa) = 80.63385 88.09468 84.36426
# Shear Modulus (GPa) = 26.24026 28.15489 27.19758
#
# Velocity S-wave (km/s) = 3.84611 3.98395 3.91564
# Velocity P-wave (km/s) = 8.07338 8.41573 8.24633
#
# Compressibility (1/GPa) = 0.01240174
#
# Stress axis : x y z
#
# Youngs Moduli (GPa) = 70.30903 105.81800 66.73252
#
# Poissons Ratio (x) = 0.35253 0.30942
# Poissons Ratio (y) = 0.23424 0.34434
# Poissons Ratio (z) = 0.32601 0.54602
#
# Static dielectric constant tensor:
#      x y z
#    x 1.595070 0.000000 0.000000 
#    y 0.000000 1.610300 0.000000 
#    z 0.000000 0.000000 1.585850 
# 
# From -- ./inp_files/39816.got.cif
#   From: 2010.05.17/outbox.cif.g08.bks.cpg/sg63_20_cif.got.tgz:39816.got - 2010.06.03 15:47:04.
