data_PCOD9474627
_publ_section_title
;
Structure prediction by ZEFSAII (Michael W. Deem and Ramdas Pophale) SiO2 
 PCOD9474627
Probable space group: C M C M
;
_chemical_formula_sum "Si O2"
_cell_formula_units_Z 52
_cell_length_a 12.106077
_cell_length_b 22.693745
_cell_length_c 7.703426
_cell_angle_alpha 90.000000
_cell_angle_beta 90.000000
_cell_angle_gamma 90.000000
_cell_volume 2116.379360
_symmetry_space_group_name_H-M "C M C M"
_symmetry_group_IT_number 63
_symmetry_cell_setting 'orthorhombic'
loop_
_space_group_symop_operation_xyz
x,y,z
-x,-y,1/2+z
x,-y,-z
-x,y,1/2-z
-x,-y,-z
x,y,1/2-z
-x,y,z
x,-y,1/2+z
1/2+x,1/2+y,z
1/2-x,1/2-y,1/2+z
1/2+x,1/2-y,-z
1/2-x,1/2+y,1/2-z
1/2-x,1/2-y,-z
1/2+x,1/2+y,1/2-z
1/2-x,1/2+y,z
1/2+x,1/2-y,1/2+z
loop_
_atom_site_type_symbol
_atom_site_label
_atom_site_fract_x
_atom_site_fract_y
_atom_site_fract_z
Si Si1 0.000000 0.551179 0.250000
Si Si2 0.881482 0.069205 0.043133
Si Si3 0.122285 0.730047 0.041766
Si Si4 0.353058 0.903145 0.440067
O O1 0.094845 0.560045 0.403874
O O2 0.873681 0.076787 0.250000
O O3 0.000000 0.091932 0.983273
O O4 0.778113 0.097568 0.954055
O O5 0.877412 0.000000 0.000000
O O6 0.120266 0.726522 0.250000
O O7 0.000000 0.758450 0.991209
O O8 0.250000 0.750000 0.000000
O O9 0.114371 0.664424 0.964841
O O10 0.384655 0.926436 0.250000
#
# Coordination Sequence:
#
# PCOD9474627 Si02
#       4
#     4  16  16  16
#     4  12  22  44  64  90 130 164 220 254 314 376
#     4  10  21  40  66  96 130 165 208 265 319 379
#     4  11  23  42  64  93 130 167 214 267 317 381
#     4  12  23  41  69  91 127 171 209 260 323 375
#
# _framework density 24.570263000000001
#
# number of rings (size 3 to 8) (size 9 to 14) (size 15 to 20)
#    0.000    0.923    4.615    2.308    0.000    4.923 
#    0.000    0.769    0.000    0.000    0.000    0.000 
#    0.000    0.000    0.000    0.000    0.000    0.000 
#
# Total GULP energy -144750.511485 kJ/mol
# GULP energy per Si atom -5567.327365 kJ/mol
# Density = 2.451434 g / cm^3
# Si number density = 24.570263 Si / 1000 Ang^3
#
#
#
# Elastic Constant Matrix: (Units=GPa)
#
#
# Indices 1 2 3 4 5 6 
#
# 1 306.7748 26.9205 58.1715 0.0000 0.0000 0.0000
# 2 26.9205 57.1058 1.5746 0.0000 0.0000 0.0000
# 3 58.1715 1.5746 192.6789 0.0000 0.0000 0.0000
# 4 0.0000 0.0000 0.0000 22.4353 0.0000 0.0000
# 5 0.0000 0.0000 0.0000 0.0000 78.1905 0.0000
# 6 0.0000 0.0000 0.0000 0.0000 0.0000 13.1603
#
#
#
# Elastic Compliance Matrix: (Units=1/GPa)
#
#
# Indices 1 2 3 4 5 6 
#
# 1 0.003611 -0.001672 -0.001076 0.000000 0.000000 0.000000
# 2 -0.001672 0.018290 0.000355 0.000000 0.000000 0.000000
# 3 -0.001076 0.000355 0.005512 0.000000 0.000000 0.000000
# 4 0.000000 0.000000 0.000000 0.044573 0.000000 0.000000
# 5 0.000000 0.000000 0.000000 0.000000 0.012789 0.000000
# 6 0.000000 0.000000 0.000000 0.000000 0.000000 0.075986
#
#
# Mechanical properties :
#
#
# Convention : Reuss Voigt Hill
#
# Bulk Modulus (GPa) = 44.19722 81.09919 62.64820
# Shear Modulus (GPa) = 28.88687 54.08343 41.48515
#
# Velocity S-wave (km/s) = 3.43255 4.69676 4.11351
# Velocity P-wave (km/s) = 5.80835 7.90515 6.93644
#
# Compressibility (1/GPa) = 0.02262586
#
# Stress axis : x y z
#
# Youngs Moduli (GPa) = 276.96303 54.67487 181.42059
#
# Poissons Ratio (x) = 0.09144 0.19528
# Poissons Ratio (y) = 0.46319 -0.06449
# Poissons Ratio (z) = 0.29812 -0.01943
#
# Static dielectric constant tensor:
#      x y z
#    x 2.015710 0.000000 0.000000 
#    y 0.000000 1.903400 0.000000 
#    z 0.000000 0.000000 1.881950 
# 
# From -- ./inp_files/2738.got.cif
#   From: 2010.05.17/outbox.cif.g08.bks.cpg/sg63_2_cif.got.tgz:2738.got - 2010.06.03 15:47:04.
