data_PCOD9474431
_publ_section_title
;
Structure prediction by ZEFSAII (Michael W. Deem and Ramdas Pophale) SiO2 
 PCOD9474431
Probable space group: C M C M
;
_chemical_formula_sum "Si O2"
_cell_formula_units_Z 96
_cell_length_a 14.114519
_cell_length_b 20.413250
_cell_length_c 15.447481
_cell_angle_alpha 90.000000
_cell_angle_beta 90.000000
_cell_angle_gamma 90.000000
_cell_volume 4450.777735
_symmetry_space_group_name_H-M "C M C M"
_symmetry_group_IT_number 63
_symmetry_cell_setting 'orthorhombic'
loop_
_space_group_symop_operation_xyz
x,y,z
-x,-y,1/2+z
x,-y,-z
-x,y,1/2-z
-x,-y,-z
x,y,1/2-z
-x,y,z
x,-y,1/2+z
1/2+x,1/2+y,z
1/2-x,1/2-y,1/2+z
1/2+x,1/2-y,-z
1/2-x,1/2+y,1/2-z
1/2-x,1/2-y,-z
1/2+x,1/2+y,1/2-z
1/2-x,1/2+y,z
1/2+x,1/2-y,1/2+z
loop_
_atom_site_type_symbol
_atom_site_label
_atom_site_fract_x
_atom_site_fract_y
_atom_site_fract_z
Si Si1 0.890058 0.421302 0.002021
Si Si2 0.894158 0.199407 0.387826
Si Si3 0.605206 0.517661 0.645987
Si Si4 0.104986 0.165609 0.589996
Si Si5 0.807251 0.663772 0.652998
Si Si6 0.755919 0.407953 0.847516
O O1 0.834359 0.390683 0.082838
O O2 0.000000 0.401458 0.006698
O O3 0.885962 0.500000 0.000000
O O4 0.839260 0.397189 0.915058
O O5 0.888264 0.189700 0.491518
O O6 0.873440 0.273870 0.363071
O O7 0.814675 0.153358 0.347975
O O8 0.000000 0.180537 0.360378
O O9 0.611073 0.530536 0.750000
O O10 0.500000 0.489036 0.629307
O O11 0.610033 0.586471 0.596771
O O12 0.689119 0.468576 0.623290
O O13 0.198954 0.187571 0.639460
O O14 0.000000 0.184074 0.623843
O O15 0.818170 0.638210 0.750000
O O16 0.789611 0.420779 0.750000
#
# Coordination Sequence:
#
# PCOD9474431 Si02
#       6
#    16  16  16  16  16  16
#     4  11  26  46  68  96 128 166 223 285 333 389
#     4  11  24  42  66  97 133 173 218 268 323 390
#     4   9  18  34  60  97 135 171 215 264 319 389
#     4  10  21  38  65  98 132 169 212 267 324 382
#     4  12  25  45  71  96 131 177 222 268 325 395
#     4  11  23  40  65  97 135 175 216 270 331 390
#
# _framework density 21.569264
#
# number of rings (size 3 to 8) (size 9 to 14) (size 15 to 20)
#    0.000    1.333    1.667    3.500    0.000    6.333 
#    0.000    4.167    0.000    2.000    0.000    0.000 
#    0.000    0.000    0.000    0.000    0.000    0.000 
#
# Total GULP energy -268547.497016 kJ/mol
# GULP energy per Si atom -5594.739521 kJ/mol
# Density = 2.152017 g / cm^3
# Si number density = 21.569264 Si / 1000 Ang^3
#
#
#
# Elastic Constant Matrix: (Units=GPa)
#
#
# Indices 1 2 3 4 5 6 
#
# 1 129.9389 14.5685 56.8284 0.0000 0.0000 0.0000
# 2 14.5685 24.0853 6.8944 0.0000 0.0000 0.0000
# 3 56.8284 6.8944 115.4958 0.0000 0.0000 0.0000
# 4 0.0000 0.0000 0.0000 27.7061 0.0000 0.0000
# 5 0.0000 0.0000 0.0000 0.0000 3.1449 0.0000
# 6 0.0000 0.0000 0.0000 0.0000 0.0000 19.5134
#
#
#
# Elastic Compliance Matrix: (Units=1/GPa)
#
#
# Indices 1 2 3 4 5 6 
#
# 1 0.010341 -0.004882 -0.004797 0.000000 0.000000 0.000000
# 2 -0.004882 0.044546 -0.000257 0.000000 0.000000 0.000000
# 3 -0.004797 -0.000257 0.011034 0.000000 0.000000 0.000000
# 4 0.000000 0.000000 0.000000 0.036093 0.000000 0.000000
# 5 0.000000 0.000000 0.000000 0.000000 0.317976 0.000000
# 6 0.000000 0.000000 0.000000 0.000000 0.000000 0.051247
#
#
# Mechanical properties :
#
#
# Convention : Reuss Voigt Hill
#
# Bulk Modulus (GPa) = 21.71598 47.34474 34.53036
# Shear Modulus (GPa) = 9.87249 22.82146 16.34698
#
# Velocity S-wave (km/s) = 2.14174 3.25630 2.75595
# Velocity P-wave (km/s) = 4.02566 6.01130 5.11575
#
# Compressibility (1/GPa) = 0.04604903
#
# Stress axis : x y z
#
# Youngs Moduli (GPa) = 96.70095 22.44893 90.62988
#
# Poissons Ratio (x) = 0.10960 0.43474
# Poissons Ratio (y) = 0.47209 0.02329
# Poissons Ratio (z) = 0.46386 0.00577
#
# Static dielectric constant tensor:
#      x y z
#    x 1.787920 0.000000 0.000000 
#    y 0.000000 1.764120 0.000000 
#    z 0.000000 0.000000 1.776010 
# 
# From -- ./inp_files/31891.got.cif
#   From: 2010.05.17/outbox.cif.g08.bks.cpg/sg63_16_cif.got.tgz:31891.got - 2010.06.03 15:47:04.
