data_PCOD9474955
_publ_section_title
;
Structure prediction by ZEFSAII (Michael W. Deem and Ramdas Pophale) SiO2 
 PCOD9474955
Probable space group: C M C M
;
_chemical_formula_sum "Si O2"
_cell_formula_units_Z 112
_cell_length_a 23.404502
_cell_length_b 16.426062
_cell_length_c 15.311113
_cell_angle_alpha 90.000000
_cell_angle_beta 90.000000
_cell_angle_gamma 90.000000
_cell_volume 5886.262478
_symmetry_space_group_name_H-M "C M C M"
_symmetry_group_IT_number 63
_symmetry_cell_setting 'orthorhombic'
loop_
_space_group_symop_operation_xyz
x,y,z
-x,-y,1/2+z
x,-y,-z
-x,y,1/2-z
-x,-y,-z
x,y,1/2-z
-x,y,z
x,-y,1/2+z
1/2+x,1/2+y,z
1/2-x,1/2-y,1/2+z
1/2+x,1/2-y,-z
1/2-x,1/2+y,1/2-z
1/2-x,1/2-y,-z
1/2+x,1/2+y,1/2-z
1/2-x,1/2+y,z
1/2+x,1/2-y,1/2+z
loop_
_atom_site_type_symbol
_atom_site_label
_atom_site_fract_x
_atom_site_fract_y
_atom_site_fract_z
Si Si1 0.067633 0.726922 0.984522
Si Si2 0.358131 0.330592 0.849346
Si Si3 0.747832 0.372713 0.149380
Si Si4 0.353371 0.513614 0.603410
Si Si5 0.067800 0.836060 0.151906
Si Si6 0.776511 0.307309 0.852994
Si Si7 0.158805 0.596794 0.503092
O O1 0.101049 0.783169 0.915209
O O2 0.098042 0.639794 0.983948
O O3 0.000000 0.724588 0.967503
O O4 0.077342 0.767583 0.079378
O O5 0.366479 0.302211 0.750000
O O6 0.368171 0.427148 0.855289
O O7 0.291176 0.318609 0.871889
O O8 0.766595 0.367503 0.250000
O O9 0.706425 0.449505 0.136662
O O10 0.713306 0.288987 0.130607
O O11 0.799916 0.378945 0.083178
O O12 0.349232 0.500000 0.500000
O O13 0.399618 0.582023 0.625780
O O14 0.085540 0.811574 0.250000
O O15 0.000000 0.852079 0.152554
O O16 0.785701 0.324365 0.750000
O O17 0.812222 0.364727 0.916503
O O18 0.155477 0.500000 0.500000
#
# Coordination Sequence:
#
# PCOD9474955 Si02
#       7
#    16  16  16  16  16  16  16
#     4  11  25  44  65  88 120 165 216 265 309 364
#     4  11  22  39  60  90 129 165 205 253 307 375
#     4  11  22  38  62  93 130 166 202 249 307 375
#     4  12  22  35  60  94 130 165 198 248 310 373
#     4  10  22  41  63  88 122 164 210 260 312 370
#     4  10  22  40  65  94 126 163 205 254 314 377
#     4  12  25  40  64  93 125 164 206 261 317 370
#
# _framework density 19.027353000000002
#
# number of rings (size 3 to 8) (size 9 to 14) (size 15 to 20)
#    0.000    1.000    2.857    4.714    0.000    4.857 
#    0.000    0.000    0.000    0.000    0.000    4.000 
#    0.000    0.000    0.000    0.000    0.000    0.000 
#
# Total GULP energy -313267.148541 kJ/mol
# GULP energy per Si atom -5594.056224 kJ/mol
# Density = 1.898405 g / cm^3
# Si number density = 19.027353 Si / 1000 Ang^3
#
#
#
# Elastic Constant Matrix: (Units=GPa)
#
#
# Indices 1 2 3 4 5 6 
#
# 1 95.3347 51.2463 48.5626 0.0000 0.0000 0.0000
# 2 51.2463 123.1881 48.1872 0.0000 0.0000 0.0000
# 3 48.5626 48.1872 106.8826 0.0000 0.0000 0.0000
# 4 0.0000 0.0000 0.0000 7.3689 0.0000 0.0000
# 5 0.0000 0.0000 0.0000 0.0000 20.1148 0.0000
# 6 0.0000 0.0000 0.0000 0.0000 0.0000 17.4160
#
#
#
# Elastic Compliance Matrix: (Units=1/GPa)
#
#
# Indices 1 2 3 4 5 6 
#
# 1 0.015437 -0.004466 -0.005001 0.000000 0.000000 0.000000
# 2 -0.004466 0.011148 -0.002997 0.000000 0.000000 0.000000
# 3 -0.005001 -0.002997 0.012979 0.000000 0.000000 0.000000
# 4 0.000000 0.000000 0.000000 0.135706 0.000000 0.000000
# 5 0.000000 0.000000 0.000000 0.000000 0.049715 0.000000
# 6 0.000000 0.000000 0.000000 0.000000 0.000000 0.057419
#
#
# Mechanical properties :
#
#
# Convention : Reuss Voigt Hill
#
# Bulk Modulus (GPa) = 68.31682 69.04420 68.68051
# Shear Modulus (GPa) = 16.01494 20.80722 18.41108
#
# Velocity S-wave (km/s) = 2.90432 3.31046 3.11402
# Velocity P-wave (km/s) = 6.87235 7.13987 7.00739
#
# Compressibility (1/GPa) = 0.01463768
#
# Stress axis : x y z
#
# Youngs Moduli (GPa) = 64.77877 89.70470 77.04654
#
# Poissons Ratio (x) = 0.40060 0.38528
# Poissons Ratio (y) = 0.28929 0.23089
# Poissons Ratio (z) = 0.32393 0.26883
#
# Static dielectric constant tensor:
#      x y z
#    x 1.653990 0.000000 0.000000 
#    y 0.000000 1.655170 0.000000 
#    z 0.000000 0.000000 1.669550 
# 
# From -- ./inp_files/36864.got.cif
#   From: 2010.05.17/outbox.cif.g08.bks.cpg/sg63_19_cif.got.tgz:36864.got - 2010.06.03 15:47:04.
