data_PCOD9474531
_publ_section_title
;
Structure prediction by ZEFSAII (Michael W. Deem and Ramdas Pophale) SiO2 
 PCOD9474531
Probable space group: C M C M
;
_chemical_formula_sum "Si O2"
_cell_formula_units_Z 64
_cell_length_a 15.568792
_cell_length_b 8.696563
_cell_length_c 21.325064
_cell_angle_alpha 90.000000
_cell_angle_beta 90.000000
_cell_angle_gamma 90.000000
_cell_volume 2887.306624
_symmetry_space_group_name_H-M "C M C M"
_symmetry_group_IT_number 63
_symmetry_cell_setting 'orthorhombic'
loop_
_space_group_symop_operation_xyz
x,y,z
-x,-y,1/2+z
x,-y,-z
-x,y,1/2-z
-x,-y,-z
x,y,1/2-z
-x,y,z
x,-y,1/2+z
1/2+x,1/2+y,z
1/2-x,1/2-y,1/2+z
1/2+x,1/2-y,-z
1/2-x,1/2+y,1/2-z
1/2-x,1/2-y,-z
1/2+x,1/2+y,1/2-z
1/2-x,1/2+y,z
1/2+x,1/2-y,1/2+z
loop_
_atom_site_type_symbol
_atom_site_label
_atom_site_fract_x
_atom_site_fract_y
_atom_site_fract_z
Si Si1 0.592396 0.839833 0.859973
Si Si2 0.228932 0.081792 0.320007
Si Si3 0.899304 0.821006 0.006453
Si Si4 0.165919 0.647376 0.892504
O O1 0.500000 0.801862 0.831517
O O2 0.677576 0.833998 0.818513
O O3 0.603922 0.741041 0.922944
O O4 0.594168 0.018942 0.881442
O O5 0.208590 0.027951 0.250000
O O6 0.162804 0.206023 0.346559
O O7 0.250065 0.950192 0.371067
O O8 0.000000 0.807505 0.986090
O O9 0.841311 0.714815 0.961702
O O10 0.875790 0.000000 0.000000
#
# Coordination Sequence:
#
# PCOD9474531 Si02
#       4
#    16  16  16  16
#     4   9  21  40  63  90 122 160 202 250 309 370
#     4  10  23  40  58  86 121 161 209 257 300 354
#     4  10  21  39  63  93 128 159 198 257 317 373
#     4  10  22  37  63  86 122 166 200 248 314 365
#
# _framework density 22.165986
#
# number of rings (size 3 to 8) (size 9 to 14) (size 15 to 20)
#    1.500    0.750    0.000    2.250    3.500    3.500 
#    0.000    0.000    0.000    0.000    0.000    0.000 
#    0.000    0.000    0.000    0.000    0.000    0.000 
#
# Total GULP energy -178189.328639 kJ/mol
# GULP energy per Si atom -5568.416520 kJ/mol
# Density = 2.211553 g / cm^3
# Si number density = 22.165986 Si / 1000 Ang^3
#
#
#
# Elastic Constant Matrix: (Units=GPa)
#
#
# Indices 1 2 3 4 5 6 
#
# 1 45.6343 30.0287 27.6305 0.0000 0.0000 0.0000
# 2 30.0287 108.8393 28.7722 0.0000 0.0000 0.0000
# 3 27.6305 28.7722 70.8285 0.0000 0.0000 0.0000
# 4 0.0000 0.0000 0.0000 27.0362 0.0000 0.0000
# 5 0.0000 0.0000 0.0000 0.0000 13.2061 0.0000
# 6 0.0000 0.0000 0.0000 0.0000 0.0000 8.4158
#
#
#
# Elastic Compliance Matrix: (Units=1/GPa)
#
#
# Indices 1 2 3 4 5 6 
#
# 1 0.032035 -0.006201 -0.009978 0.000000 0.000000 0.000000
# 2 -0.006201 0.011493 -0.002250 0.000000 0.000000 0.000000
# 3 -0.009978 -0.002250 0.018925 0.000000 0.000000 0.000000
# 4 0.000000 0.000000 0.000000 0.036987 0.000000 0.000000
# 5 0.000000 0.000000 0.000000 0.000000 0.075723 0.000000
# 6 0.000000 0.000000 0.000000 0.000000 0.000000 0.118825
#
#
# Mechanical properties :
#
#
# Convention : Reuss Voigt Hill
#
# Bulk Modulus (GPa) = 39.06862 44.24054 41.65458
# Shear Modulus (GPa) = 14.73283 18.98966 16.86125
#
# Velocity S-wave (km/s) = 2.58090 2.93012 2.76104
# Velocity P-wave (km/s) = 5.15220 5.60799 5.38492
#
# Compressibility (1/GPa) = 0.02559599
#
# Stress axis : x y z
#
# Youngs Moduli (GPa) = 31.21579 87.00632 52.83986
#
# Poissons Ratio (x) = 0.53950 0.52724
# Poissons Ratio (y) = 0.19356 0.11889
# Poissons Ratio (z) = 0.31148 0.19576
#
# Static dielectric constant tensor:
#      x y z
#    x 1.861360 0.000000 0.000000 
#    y 0.000000 1.837520 0.000000 
#    z 0.000000 0.000000 1.783870 
# 
# From -- ./inp_files/55014.got.cif
#   From: 2010.05.17/outbox.cif.g08.bks.cpg/sg63_28_cif.got.tgz:55014.got - 2010.06.03 15:47:04.
