data_PCOD9474965
_publ_section_title
;
Structure prediction by ZEFSAII (Michael W. Deem and Ramdas Pophale) SiO2 
 PCOD9474965
Probable space group: C M C M
;
_chemical_formula_sum "Si O2"
_cell_formula_units_Z 116
_cell_length_a 27.042454
_cell_length_b 9.366342
_cell_length_c 21.061083
_cell_angle_alpha 90.000000
_cell_angle_beta 90.000000
_cell_angle_gamma 90.000000
_cell_volume 5334.537971
_symmetry_space_group_name_H-M "C M C M"
_symmetry_group_IT_number 63
_symmetry_cell_setting 'orthorhombic'
loop_
_space_group_symop_operation_xyz
x,y,z
-x,-y,1/2+z
x,-y,-z
-x,y,1/2-z
-x,-y,-z
x,y,1/2-z
-x,y,z
x,-y,1/2+z
1/2+x,1/2+y,z
1/2-x,1/2-y,1/2+z
1/2+x,1/2-y,-z
1/2-x,1/2+y,1/2-z
1/2-x,1/2-y,-z
1/2+x,1/2+y,1/2-z
1/2-x,1/2+y,z
1/2+x,1/2-y,1/2+z
loop_
_atom_site_type_symbol
_atom_site_label
_atom_site_fract_x
_atom_site_fract_y
_atom_site_fract_z
Si Si1 0.055190 0.774460 0.404510
Si Si2 0.139978 0.053133 0.872845
Si Si3 0.298861 0.667812 0.518942
Si Si4 0.576860 0.958460 0.366917
Si Si5 0.600539 0.295024 0.541363
Si Si6 0.500000 0.923395 0.250000
Si Si7 0.189878 0.455374 0.327386
Si Si8 0.778685 0.144867 0.176799
O O1 0.095042 0.842964 0.355933
O O2 0.058596 0.604210 0.398863
O O3 0.069543 0.814298 0.476883
O O4 0.000000 0.823082 0.389644
O O5 0.179677 0.150729 0.910220
O O6 0.112380 0.937439 0.918357
O O7 0.173681 0.958771 0.827030
O O8 0.294137 0.500000 0.500000
O O9 0.250000 0.750000 0.500000
O O10 0.344449 0.743344 0.482846
O O11 0.576650 0.824915 0.414808
O O12 0.543262 0.927349 0.305918
O O13 0.634257 0.981765 0.348519
O O14 0.190607 0.456050 0.250000
O O15 0.206546 0.297910 0.349942
O O16 0.231139 0.566125 0.351796
O O17 0.766287 0.170100 0.250000
#
# Coordination Sequence:
#
# PCOD9474965 Si02
#       8
#    16  16  16  16  16   4  16  16
#     4  11  25  44  67  97 128 176 231 278 339 404
#     4  10  22  42  63  94 139 172 219 279 334 403
#     4   9  20  35  56  90 132 172 210 264 327 393
#     4  12  24  45  70  96 136 173 225 289 338 399
#     4  10  23  43  66  94 130 176 226 277 337 402
#     4  12  28  48  70 102 132 180 228 300 350 396
#     4  10  22  41  66  96 133 176 222 271 331 403
#     4  10  22  40  65  99 133 176 224 266 333 411
#
# _framework density 21.745087999999999
#
# number of rings (size 3 to 8) (size 9 to 14) (size 15 to 20)
#    0.000    1.655    2.759    1.655    4.828    3.862 
#    3.724    0.000    0.000    0.828    0.000    0.000 
#    0.000    0.000    0.000    0.000    0.000    0.000 
#
# Total GULP energy -323313.296053 kJ/mol
# GULP energy per Si atom -5574.367173 kJ/mol
# Density = 2.169560 g / cm^3
# Si number density = 21.745088 Si / 1000 Ang^3
#
#
#
# Elastic Constant Matrix: (Units=GPa)
#
#
# Indices 1 2 3 4 5 6 
#
# 1 160.6558 31.5094 -2.3617 0.0000 0.0000 0.0000
# 2 31.5094 55.6171 -5.0867 0.0000 0.0000 0.0000
# 3 -2.3617 -5.0867 22.7058 0.0000 0.0000 0.0000
# 4 0.0000 0.0000 0.0000 15.6892 0.0000 0.0000
# 5 0.0000 0.0000 0.0000 0.0000 20.3932 0.0000
# 6 0.0000 0.0000 0.0000 0.0000 0.0000 17.1947
#
#
#
# Elastic Compliance Matrix: (Units=1/GPa)
#
#
# Indices 1 2 3 4 5 6 
#
# 1 0.007003 -0.003983 -0.000164 0.000000 0.000000 0.000000
# 2 -0.003983 0.020621 0.004205 0.000000 0.000000 0.000000
# 3 -0.000164 0.004205 0.044967 0.000000 0.000000 0.000000
# 4 0.000000 0.000000 0.000000 0.063738 0.000000 0.000000
# 5 0.000000 0.000000 0.000000 0.000000 0.049036 0.000000
# 6 0.000000 0.000000 0.000000 0.000000 0.000000 0.058157
#
#
# Mechanical properties :
#
#
# Convention : Reuss Voigt Hill
#
# Bulk Modulus (GPa) = 13.75346 31.90007 22.82676
# Shear Modulus (GPa) = 18.68178 24.98328 21.83253
#
# Velocity S-wave (km/s) = 2.93427 3.39324 3.17207
# Velocity P-wave (km/s) = 4.22119 5.48215 4.89247
#
# Compressibility (1/GPa) = 0.07270900
#
# Stress axis : x y z
#
# Youngs Moduli (GPa) = 142.79231 48.49426 22.23867
#
# Poissons Ratio (x) = 0.19313 0.00364
# Poissons Ratio (y) = 0.56868 -0.09352
# Poissons Ratio (z) = 0.02339 -0.20394
#
# Static dielectric constant tensor:
#      x y z
#    x 1.786230 0.000000 0.000000 
#    y 0.000000 1.797600 0.000000 
#    z 0.000000 0.000000 1.818940 
# 
# From -- ./inp_files/65504.got.cif
#   From: 2010.05.17/outbox.cif.g08.bks.cpg/sg63_33_cif.got.tgz:65504.got - 2010.06.03 15:47:04.
