data_PCOD9474120
_publ_section_title
;
Structure prediction by ZEFSAII (Michael W. Deem and Ramdas Pophale) SiO2 
 PCOD9474120
Probable space group: C M C M
;
_chemical_formula_sum "Si O2"
_cell_formula_units_Z 76
_cell_length_a 14.796464
_cell_length_b 10.210845
_cell_length_c 23.127256
_cell_angle_alpha 90.000000
_cell_angle_beta 90.000000
_cell_angle_gamma 90.000000
_cell_volume 3494.167607
_symmetry_space_group_name_H-M "C M C M"
_symmetry_group_IT_number 63
_symmetry_cell_setting 'orthorhombic'
loop_
_space_group_symop_operation_xyz
x,y,z
-x,-y,1/2+z
x,-y,-z
-x,y,1/2-z
-x,-y,-z
x,y,1/2-z
-x,y,z
x,-y,1/2+z
1/2+x,1/2+y,z
1/2-x,1/2-y,1/2+z
1/2+x,1/2-y,-z
1/2-x,1/2+y,1/2-z
1/2-x,1/2-y,-z
1/2+x,1/2+y,1/2-z
1/2-x,1/2+y,z
1/2+x,1/2-y,1/2+z
loop_
_atom_site_type_symbol
_atom_site_label
_atom_site_fract_x
_atom_site_fract_y
_atom_site_fract_z
Si Si1 0.153080 0.921403 0.150836
Si Si2 0.784337 0.350772 0.818788
Si Si3 0.900673 0.827576 0.026335
Si Si4 0.601060 0.956074 0.583659
Si Si5 0.500000 0.601540 0.750000
Si Si6 0.751600 0.500000 0.500000
O O1 0.221807 0.799519 0.160984
O O2 0.111732 0.904159 0.087225
O O3 0.078036 0.900634 0.199409
O O4 0.201273 0.059372 0.161431
O O5 0.793700 0.357359 0.750000
O O6 0.870871 0.411633 0.852332
O O7 0.897966 0.676784 0.045342
O O8 0.816489 0.878870 0.989343
O O9 0.000000 0.852192 0.000998
O O10 0.500000 0.012535 0.580867
O O11 0.683224 0.032672 0.553914
#
# Coordination Sequence:
#
# PCOD9474120 Si02
#       6
#    16  16  16  16   4   8
#     4  11  22  37  63  90 122 154 201 241 299 355
#     4  11  21  38  63  90 119 158 198 244 301 357
#     4  10  21  37  57  88 114 151 202 250 290 354
#     4  10  23  37  58  84 119 154 202 247 298 360
#     4  12  20  36  68  92 114 166 196 244 286 370
#     4  12  20  38  60  82 116 158 196 252 306 342
#
# _framework density 21.750532
#
# number of rings (size 3 to 8) (size 9 to 14) (size 15 to 20)
#    0.000    1.263    5.263    1.263    1.474    0.421 
#    0.000    0.000    2.316    3.789    0.000    0.000 
#    0.000    0.000    0.000    0.000    0.000    0.000 
#
# Total GULP energy -211721.842558 kJ/mol
# GULP energy per Si atom -5571.627436 kJ/mol
# Density = 2.170103 g / cm^3
# Si number density = 21.750532 Si / 1000 Ang^3
#
#
#
# Elastic Constant Matrix: (Units=GPa)
#
#
# Indices 1 2 3 4 5 6 
#
# 1 114.0804 27.7774 1.2613 0.0000 0.0000 0.0000
# 2 27.7774 66.9156 -9.2093 0.0000 0.0000 0.0000
# 3 1.2613 -9.2093 75.4761 0.0000 0.0000 0.0000
# 4 0.0000 0.0000 0.0000 22.4115 0.0000 0.0000
# 5 0.0000 0.0000 0.0000 0.0000 37.9185 0.0000
# 6 0.0000 0.0000 0.0000 0.0000 0.0000 10.1642
#
#
#
# Elastic Compliance Matrix: (Units=1/GPa)
#
#
# Indices 1 2 3 4 5 6 
#
# 1 0.009785 -0.004154 -0.000670 0.000000 0.000000 0.000000
# 2 -0.004154 0.016963 0.002139 0.000000 0.000000 0.000000
# 3 -0.000670 0.002139 0.013521 0.000000 0.000000 0.000000
# 4 0.000000 0.000000 0.000000 0.044620 0.000000 0.000000
# 5 0.000000 0.000000 0.000000 0.000000 0.026372 0.000000
# 6 0.000000 0.000000 0.000000 0.000000 0.000000 0.098385
#
#
# Mechanical properties :
#
#
# Convention : Reuss Voigt Hill
#
# Bulk Modulus (GPa) = 28.65436 32.90343 30.77889
# Shear Modulus (GPa) = 22.06050 29.87501 25.96776
#
# Velocity S-wave (km/s) = 3.18819 3.71014 3.45902
# Velocity P-wave (km/s) = 5.17256 5.78913 5.48951
#
# Compressibility (1/GPa) = 0.03489870
#
# Stress axis : x y z
#
# Youngs Moduli (GPa) = 102.20139 58.95199 73.95661
#
# Poissons Ratio (x) = 0.24488 0.04958
# Poissons Ratio (y) = 0.42454 -0.15821
# Poissons Ratio (z) = 0.06851 -0.12611
#
# Static dielectric constant tensor:
#      x y z
#    x 1.841240 0.000000 0.000000 
#    y 0.000000 1.845130 0.000000 
#    z 0.000000 0.000000 1.793920 
# 
# From -- ./inp_files/72540.got.cif
#   From: 2010.05.17/outbox.cif.g08.bks.cpg/sg63_37_cif.got.tgz:72540.got - 2010.06.03 15:47:04.
