data_PCOD9474979
_publ_section_title
;
Structure prediction by ZEFSAII (Michael W. Deem and Ramdas Pophale) SiO2 
 PCOD9474979
Probable space group: C M C M
;
_chemical_formula_sum "Si O2"
_cell_formula_units_Z 72
_cell_length_a 13.872454
_cell_length_b 14.601972
_cell_length_c 16.413198
_cell_angle_alpha 90.000000
_cell_angle_beta 90.000000
_cell_angle_gamma 90.000000
_cell_volume 3324.742487
_symmetry_space_group_name_H-M "C M C M"
_symmetry_group_IT_number 63
_symmetry_cell_setting 'orthorhombic'
loop_
_space_group_symop_operation_xyz
x,y,z
-x,-y,1/2+z
x,-y,-z
-x,y,1/2-z
-x,-y,-z
x,y,1/2-z
-x,y,z
x,-y,1/2+z
1/2+x,1/2+y,z
1/2-x,1/2-y,1/2+z
1/2+x,1/2-y,-z
1/2-x,1/2+y,1/2-z
1/2-x,1/2-y,-z
1/2+x,1/2+y,1/2-z
1/2-x,1/2+y,z
1/2+x,1/2-y,1/2+z
loop_
_atom_site_type_symbol
_atom_site_label
_atom_site_fract_x
_atom_site_fract_y
_atom_site_fract_z
Si Si1 0.701104 0.137547 0.160744
Si Si2 0.315449 0.516298 0.910071
Si Si3 0.704635 0.204487 0.580323
Si Si4 0.000000 0.930693 0.840806
Si Si5 0.500000 0.261458 0.967204
Si Si6 0.500000 0.242092 0.344703
O O1 0.709105 0.095907 0.250000
O O2 0.775544 0.220940 0.150031
O O3 0.595931 0.180504 0.151517
O O4 0.731890 0.059686 0.098848
O O5 0.264574 0.613700 0.900033
O O6 0.404002 0.492040 0.851645
O O7 0.356054 0.500000 0.000000
O O8 0.750000 0.250000 0.500000
O O9 0.592960 0.201545 0.557426
O O10 0.000000 0.890321 0.750000
O O11 0.000000 0.851824 0.910122
O O12 0.500000 0.289414 0.064384
O O13 0.500000 0.283083 0.250000
#
# Coordination Sequence:
#
# PCOD9474979 Si02
#       6
#    16  16  16   8   8   8
#     4  11  24  44  67 100 145 186 240 300 359 430
#     4  12  24  43  72 100 141 190 245 300 364 438
#     4  12  24  43  71 105 142 191 240 296 367 424
#     4  12  27  46  73 108 148 194 245 307 370 430
#     4  12  22  44  78 108 147 194 251 300 363 438
#     4  10  22  40  69 103 144 192 238 298 362 431
#
# _framework density 21.655812999999998
#
# number of rings (size 3 to 8) (size 9 to 14) (size 15 to 20)
#    0.000    0.444    6.667    1.000    0.000    4.444 
#    0.000    3.333    0.000    0.000    0.000    0.000 
#    0.000    0.000    0.000    0.000    0.000    0.000 
#
# Total GULP energy -201060.970650 kJ/mol
# GULP energy per Si atom -5585.026962 kJ/mol
# Density = 2.160652 g / cm^3
# Si number density = 21.655813 Si / 1000 Ang^3
#
#
#
# Elastic Constant Matrix: (Units=GPa)
#
#
# Indices 1 2 3 4 5 6 
#
# 1 138.5334 17.5350 16.1315 0.0000 0.0000 0.0000
# 2 17.5350 112.7548 21.4117 0.0000 0.0000 0.0000
# 3 16.1315 21.4117 119.9378 0.0000 0.0000 0.0000
# 4 0.0000 0.0000 0.0000 15.9852 0.0000 0.0000
# 5 0.0000 0.0000 0.0000 0.0000 17.3980 0.0000
# 6 0.0000 0.0000 0.0000 0.0000 0.0000 20.1589
#
#
#
# Elastic Compliance Matrix: (Units=1/GPa)
#
#
# Indices 1 2 3 4 5 6 
#
# 1 0.007441 -0.001001 -0.000822 0.000000 0.000000 0.000000
# 2 -0.001001 0.009315 -0.001528 0.000000 0.000000 0.000000
# 3 -0.000822 -0.001528 0.008721 0.000000 0.000000 0.000000
# 4 0.000000 0.000000 0.000000 0.062558 0.000000 0.000000
# 5 0.000000 0.000000 0.000000 0.000000 0.057478 0.000000
# 6 0.000000 0.000000 0.000000 0.000000 0.000000 0.049606
#
#
# Mechanical properties :
#
#
# Convention : Reuss Voigt Hill
#
# Bulk Modulus (GPa) = 53.26551 53.48693 53.37622
# Shear Modulus (GPa) = 24.02933 31.78494 27.90714
#
# Velocity S-wave (km/s) = 3.33468 3.83526 3.59370
# Velocity P-wave (km/s) = 6.28304 6.66067 6.47461
#
# Compressibility (1/GPa) = 0.01877388
#
# Stress axis : x y z
#
# Youngs Moduli (GPa) = 134.39211 107.35734 114.66511
#
# Poissons Ratio (x) = 0.10747 0.09426
# Poissons Ratio (y) = 0.13453 0.17524
# Poissons Ratio (z) = 0.11048 0.16407
#
# Static dielectric constant tensor:
#      x y z
#    x 1.803420 0.000000 0.000000 
#    y 0.000000 1.782520 0.000000 
#    z 0.000000 0.000000 1.892310 
# 
# From -- ./inp_files/43801.got.cif
#   From: 2010.05.17/outbox.cif.g08.bks.cpg/sg63_22_cif.got.tgz:43801.got - 2010.06.03 15:47:04.
