data_PCOD9474355
_publ_section_title
;
Structure prediction by ZEFSAII (Michael W. Deem and Ramdas Pophale) SiO2 
 PCOD9474355
Probable space group: C M C M
;
_chemical_formula_sum "Si O2"
_cell_formula_units_Z 96
_cell_length_a 8.996139
_cell_length_b 25.071324
_cell_length_c 22.007007
_cell_angle_alpha 90.000000
_cell_angle_beta 90.000000
_cell_angle_gamma 90.000000
_cell_volume 4963.572938
_symmetry_space_group_name_H-M "C M C M"
_symmetry_group_IT_number 63
_symmetry_cell_setting 'orthorhombic'
loop_
_space_group_symop_operation_xyz
x,y,z
-x,-y,1/2+z
x,-y,-z
-x,y,1/2-z
-x,-y,-z
x,y,1/2-z
-x,y,z
x,-y,1/2+z
1/2+x,1/2+y,z
1/2-x,1/2-y,1/2+z
1/2+x,1/2-y,-z
1/2-x,1/2+y,1/2-z
1/2-x,1/2-y,-z
1/2+x,1/2+y,1/2-z
1/2-x,1/2+y,z
1/2+x,1/2-y,1/2+z
loop_
_atom_site_type_symbol
_atom_site_label
_atom_site_fract_x
_atom_site_fract_y
_atom_site_fract_z
Si Si1 0.319643 0.505534 0.429420
Si Si2 0.827848 0.681947 0.658310
Si Si3 0.671869 0.193817 0.513987
Si Si4 0.826375 0.294210 0.818833
Si Si5 0.822503 0.872878 0.585215
Si Si6 0.179424 0.069361 0.682340
O O1 0.268054 0.500000 0.500000
O O2 0.500000 0.500912 0.431725
O O3 0.283351 0.565257 0.407508
O O4 0.269123 0.464209 0.377031
O O5 0.823994 0.683357 0.585272
O O6 0.746968 0.735897 0.678531
O O7 0.746896 0.628454 0.679189
O O8 0.000000 0.682274 0.677452
O O9 0.500000 0.195973 0.494184
O O10 0.750000 0.250000 0.500000
O O11 0.758598 0.148171 0.478301
O O12 0.814053 0.314367 0.750000
O O13 0.745777 0.334216 0.864354
O O14 0.000000 0.289595 0.834776
O O15 0.000000 0.867675 0.585490
O O16 0.216057 0.046706 0.750000
O O17 0.000000 0.072492 0.679050
#
# Coordination Sequence:
#
# PCOD9474355 Si02
#       6
#    16  16  16  16  16  16
#     4   9  19  37  61  88 118 155 200 249 301 361
#     4  11  23  38  59  88 120 155 197 246 301 359
#     4  11  22  36  57  86 120 156 194 239 296 359
#     4  11  24  40  58  82 116 159 200 240 294 358
#     4  11  22  37  61  91 119 152 195 244 300 355
#     4  10  21  38  61  88 118 157 205 254 307 367
#
# _framework density 19.340907000000001
#
# number of rings (size 3 to 8) (size 9 to 14) (size 15 to 20)
#    0.000    1.500    1.667    3.500    0.000    7.667 
#    0.000    3.333    0.000    4.500    0.000    0.000 
#    0.000    0.000    0.000    0.000    0.000    0.000 
#
# Total GULP energy -268121.039360 kJ/mol
# GULP energy per Si atom -5585.854987 kJ/mol
# Density = 1.929689 g / cm^3
# Si number density = 19.340907 Si / 1000 Ang^3
#
#
#
# Elastic Constant Matrix: (Units=GPa)
#
#
# Indices 1 2 3 4 5 6 
#
# 1 71.2017 38.2361 38.2406 0.0000 0.0000 0.0000
# 2 38.2361 114.1172 56.5955 0.0000 0.0000 0.0000
# 3 38.2406 56.5955 137.1599 0.0000 0.0000 0.0000
# 4 0.0000 0.0000 0.0000 6.1924 0.0000 0.0000
# 5 0.0000 0.0000 0.0000 0.0000 24.1181 0.0000
# 6 0.0000 0.0000 0.0000 0.0000 0.0000 24.4663
#
#
#
# Elastic Compliance Matrix: (Units=1/GPa)
#
#
# Indices 1 2 3 4 5 6 
#
# 1 0.018187 -0.004500 -0.003214 0.000000 0.000000 0.000000
# 2 -0.004500 0.012131 -0.003751 0.000000 0.000000 0.000000
# 3 -0.003214 -0.003751 0.009735 0.000000 0.000000 0.000000
# 4 0.000000 0.000000 0.000000 0.161489 0.000000 0.000000
# 5 0.000000 0.000000 0.000000 0.000000 0.041463 0.000000
# 6 0.000000 0.000000 0.000000 0.000000 0.000000 0.040873
#
#
# Mechanical properties :
#
#
# Convention : Reuss Voigt Hill
#
# Bulk Modulus (GPa) = 58.40024 65.40257 61.90141
# Shear Modulus (GPa) = 15.99928 23.58246 19.79087
#
# Velocity S-wave (km/s) = 2.87927 3.49564 3.20232
# Velocity P-wave (km/s) = 6.42762 7.08391 6.76373
#
# Compressibility (1/GPa) = 0.01712322
#
# Stress axis : x y z
#
# Youngs Moduli (GPa) = 54.98376 82.43416 102.72723
#
# Poissons Ratio (x) = 0.37095 0.33015
# Poissons Ratio (y) = 0.24742 0.38532
# Poissons Ratio (z) = 0.17671 0.30920
#
# Static dielectric constant tensor:
#      x y z
#    x 1.651750 0.000000 0.000000 
#    y 0.000000 1.642250 0.000000 
#    z 0.000000 0.000000 1.717790 
# 
# From -- ./inp_files/59847.got.cif
#   From: 2010.05.17/outbox.cif.g08.bks.cpg/sg63_30_cif.got.tgz:59847.got - 2010.06.03 15:47:04.
