data_PCOD9474820
_publ_section_title
;
Structure prediction by ZEFSAII (Michael W. Deem and Ramdas Pophale) SiO2 
 PCOD9474820
Probable space group: C M C M
;
_chemical_formula_sum "Si O2"
_cell_formula_units_Z 96
_cell_length_a 20.696332
_cell_length_b 28.311581
_cell_length_c 8.844270
_cell_angle_alpha 90.000000
_cell_angle_beta 90.000000
_cell_angle_gamma 90.000000
_cell_volume 5182.263567
_symmetry_space_group_name_H-M "C M C M"
_symmetry_group_IT_number 63
_symmetry_cell_setting 'orthorhombic'
loop_
_space_group_symop_operation_xyz
x,y,z
-x,-y,1/2+z
x,-y,-z
-x,y,1/2-z
-x,-y,-z
x,y,1/2-z
-x,y,z
x,-y,1/2+z
1/2+x,1/2+y,z
1/2-x,1/2-y,1/2+z
1/2+x,1/2-y,-z
1/2-x,1/2+y,1/2-z
1/2-x,1/2-y,-z
1/2+x,1/2+y,1/2-z
1/2-x,1/2+y,z
1/2+x,1/2-y,1/2+z
loop_
_atom_site_type_symbol
_atom_site_label
_atom_site_fract_x
_atom_site_fract_y
_atom_site_fract_z
Si Si1 0.926702 0.948813 0.568057
Si Si2 0.686962 0.725769 0.068951
Si Si3 0.075338 0.398640 0.568588
Si Si4 0.425250 0.211571 0.431710
Si Si5 0.303986 0.948796 0.429954
Si Si6 0.192876 0.115842 0.432600
O O1 0.925825 0.952391 0.750000
O O2 0.872740 0.911273 0.523639
O O3 0.000000 0.936039 0.521810
O O4 0.911563 0.000000 0.500000
O O5 0.689131 0.728561 0.250000
O O6 0.687749 0.670647 0.025731
O O7 0.750000 0.750000 0.000000
O O8 0.624283 0.753312 0.009726
O O9 0.083709 0.403773 0.750000
O O10 0.088432 0.343467 0.530963
O O11 0.125379 0.431801 0.483593
O O12 0.000000 0.408191 0.534126
O O13 0.419411 0.215667 0.250000
O O14 0.500000 0.221107 0.472055
O O15 0.300681 0.951428 0.250000
O O16 0.252794 0.910785 0.492187
O O17 0.289325 0.000000 0.500000
O O18 0.200225 0.112935 0.250000
#
# Coordination Sequence:
#
# PCOD9474820 Si02
#       6
#    16  16  16  16  16  16
#     4   9  18  34  56  80 106 137 174 217 266 319
#     4  11  23  37  56  82 113 149 188 233 282 333
#     4   9  19  38  62  85 112 147 185 227 277 330
#     4   9  19  37  60  85 115 150 186 229 281 333
#     4  12  25  39  58  83 112 146 185 230 279 333
#     4  10  22  39  57  79 110 147 187 231 276 324
#
# _framework density 18.524723999999999
#
# number of rings (size 3 to 8) (size 9 to 14) (size 15 to 20)
#    0.000    2.000    0.000    4.500    0.000    9.667 
#    0.000    3.333    0.000    2.000    0.000    0.000 
#    0.000    0.000    0.000    0.000    0.000    0.000 
#
# Total GULP energy -268179.748384 kJ/mol
# GULP energy per Si atom -5587.078091 kJ/mol
# Density = 1.848256 g / cm^3
# Si number density = 18.524724 Si / 1000 Ang^3
#
#
#
# Elastic Constant Matrix: (Units=GPa)
#
#
# Indices 1 2 3 4 5 6 
#
# 1 68.9868 34.5173 24.6938 0.0000 0.0000 0.0000
# 2 34.5173 51.5942 20.5618 0.0000 0.0000 0.0000
# 3 24.6938 20.5618 31.1475 0.0000 0.0000 0.0000
# 4 0.0000 0.0000 0.0000 32.7854 0.0000 0.0000
# 5 0.0000 0.0000 0.0000 0.0000 22.4340 0.0000
# 6 0.0000 0.0000 0.0000 0.0000 0.0000 40.6156
#
#
#
# Elastic Compliance Matrix: (Units=1/GPa)
#
#
# Indices 1 2 3 4 5 6 
#
# 1 0.024581 -0.011777 -0.011713 0.000000 0.000000 0.000000
# 2 -0.011777 0.031944 -0.011751 0.000000 0.000000 0.000000
# 3 -0.011713 -0.011751 0.049149 0.000000 0.000000 0.000000
# 4 0.000000 0.000000 0.000000 0.030501 0.000000 0.000000
# 5 0.000000 0.000000 0.000000 0.000000 0.044575 0.000000
# 6 0.000000 0.000000 0.000000 0.000000 0.000000 0.024621
#
#
# Mechanical properties :
#
#
# Convention : Reuss Voigt Hill
#
# Bulk Modulus (GPa) = 28.41587 34.58603 31.50095
# Shear Modulus (GPa) = 17.38622 23.96404 20.67513
#
# Velocity S-wave (km/s) = 3.06689 3.60060 3.34441
# Velocity P-wave (km/s) = 5.28335 5.99971 5.65289
#
# Compressibility (1/GPa) = 0.03519160
#
# Stress axis : x y z
#
# Youngs Moduli (GPa) = 40.68215 31.30474 20.34632
#
# Poissons Ratio (x) = 0.36867 0.23832
# Poissons Ratio (y) = 0.47911 0.23909
# Poissons Ratio (z) = 0.47652 0.36786
#
# Static dielectric constant tensor:
#      x y z
#    x 1.624660 0.000000 0.000000 
#    y 0.000000 1.609270 0.000000 
#    z 0.000000 0.000000 1.619610 
# 
# From -- ./inp_files/8623.got.cif
#   From: 2010.05.17/outbox.cif.g08.bks.cpg/sg63_5_cif.got.tgz:8623.got - 2010.06.03 15:47:04.
