data_PCOD9474418
_publ_section_title
;
Structure prediction by ZEFSAII (Michael W. Deem and Ramdas Pophale) SiO2 
 PCOD9474418
Probable space group: C M C M
;
_chemical_formula_sum "Si O2"
_cell_formula_units_Z 56
_cell_length_a 10.216266
_cell_length_b 14.631324
_cell_length_c 18.319984
_cell_angle_alpha 90.000000
_cell_angle_beta 90.000000
_cell_angle_gamma 90.000000
_cell_volume 2738.425370
_symmetry_space_group_name_H-M "C M C M"
_symmetry_group_IT_number 63
_symmetry_cell_setting 'orthorhombic'
loop_
_space_group_symop_operation_xyz
x,y,z
-x,-y,1/2+z
x,-y,-z
-x,y,1/2-z
-x,-y,-z
x,y,1/2-z
-x,y,z
x,-y,1/2+z
1/2+x,1/2+y,z
1/2-x,1/2-y,1/2+z
1/2+x,1/2-y,-z
1/2-x,1/2+y,1/2-z
1/2-x,1/2-y,-z
1/2+x,1/2+y,1/2-z
1/2-x,1/2+y,z
1/2+x,1/2-y,1/2+z
loop_
_atom_site_type_symbol
_atom_site_label
_atom_site_fract_x
_atom_site_fract_y
_atom_site_fract_z
Si Si1 0.349186 0.385146 0.750000
Si Si2 0.846999 0.895541 0.250000
Si Si3 0.785332 0.500000 0.000000
Si Si4 0.646335 0.860242 0.380202
Si Si5 0.654431 0.340912 0.907953
O O1 0.500000 0.351410 0.750000
O O2 0.351443 0.494383 0.750000
O O3 0.288152 0.353158 0.673944
O O4 0.761244 0.868383 0.320708
O O5 0.000000 0.864110 0.250000
O O6 0.854717 0.446883 0.066096
O O7 0.708063 0.582818 0.038265
O O8 0.500000 0.852399 0.346718
O O9 0.668857 0.766192 0.424859
O O10 0.500000 0.359931 0.903305
#
# Coordination Sequence:
#
# PCOD9474418 Si02
#       5
#     8   8   8  16  16
#     4   9  17  35  61  88 115 153 210 264 303 352
#     4  11  22  41  69  96 119 157 218 272 307 366
#     4  12  22  38  62  94 131 170 211 256 303 374
#     4  11  24  42  64  93 131 169 204 256 325 379
#     4  10  21  38  64  92 124 169 215 257 308 373
#
# _framework density 20.449708000000001
#
# number of rings (size 3 to 8) (size 9 to 14) (size 15 to 20)
#    0.000    1.429    2.857    3.000    0.000    3.429 
#    0.000    2.857    0.000    0.000    0.000    0.000 
#    0.000    0.000    0.000    0.000    0.000    0.000 
#
# Total GULP energy -156054.517008 kJ/mol
# GULP energy per Si atom -5573.375607 kJ/mol
# Density = 2.040316 g / cm^3
# Si number density = 20.449708 Si / 1000 Ang^3
#
#
#
# Elastic Constant Matrix: (Units=GPa)
#
#
# Indices 1 2 3 4 5 6 
#
# 1 119.7908 45.9909 57.5170 0.0000 0.0000 0.0000
# 2 45.9909 119.7223 32.5040 0.0000 0.0000 0.0000
# 3 57.5170 32.5040 88.3572 0.0000 0.0000 0.0000
# 4 0.0000 0.0000 0.0000 38.3938 0.0000 0.0000
# 5 0.0000 0.0000 0.0000 0.0000 -157.9915 0.0000
# 6 0.0000 0.0000 0.0000 0.0000 0.0000 23.1432
#
#
#
# Elastic Compliance Matrix: (Units=1/GPa)
#
#
# Indices 1 2 3 4 5 6 
#
# 1 0.013050 -0.003007 -0.007389 0.000000 0.000000 0.000000
# 2 -0.003007 0.009972 -0.001711 0.000000 0.000000 0.000000
# 3 -0.007389 -0.001711 0.016757 0.000000 0.000000 0.000000
# 4 0.000000 0.000000 0.000000 0.026046 0.000000 0.000000
# 5 0.000000 0.000000 0.000000 0.000000 -0.006329 0.000000
# 6 0.000000 0.000000 0.000000 0.000000 0.000000 0.043209
#
#
# Mechanical properties :
#
#
# Convention : Reuss Voigt Hill
#
# Bulk Modulus (GPa) = 64.24488 66.65491 65.44989
# Shear Modulus (GPa) = 37.84789 -6.50035 15.67377
#
# Velocity S-wave (km/s) = 4.30674 -1.78483 2.77149
# Velocity P-wave (km/s) = 7.49766 5.33084 6.50510
#
# Compressibility (1/GPa) = 0.01556544
#
# Stress axis : x y z
#
# Youngs Moduli (GPa) = 76.62755 100.27705 59.67659
#
# Poissons Ratio (x) = 0.30155 0.44094
# Poissons Ratio (y) = 0.23043 0.10211
# Poissons Ratio (z) = 0.56619 0.17158
#
# Static dielectric constant tensor:
#      x y z
#    x 1.710880 0.000000 0.000000 
#    y 0.000000 1.716530 0.000000 
#    z 0.000000 0.000000 1.793530 
# 
# From -- ./inp_files/41443.got.cif
#   From: 2010.05.17/outbox.cif.g08.bks.cpg/sg63_21_cif.got.tgz:41443.got - 2010.06.03 15:47:04.
