data_PCOD9474041
_publ_section_title
;
Structure prediction by ZEFSAII (Michael W. Deem and Ramdas Pophale) SiO2 
 PCOD9474041
Probable space group: C M C M
;
_chemical_formula_sum "Si O2"
_cell_formula_units_Z 112
_cell_length_a 13.899276
_cell_length_b 29.798569
_cell_length_c 13.333787
_cell_angle_alpha 90.000000
_cell_angle_beta 90.000000
_cell_angle_gamma 90.000000
_cell_volume 5522.568365
_symmetry_space_group_name_H-M "C M C M"
_symmetry_group_IT_number 63
_symmetry_cell_setting 'orthorhombic'
loop_
_space_group_symop_operation_xyz
x,y,z
-x,-y,1/2+z
x,-y,-z
-x,y,1/2-z
-x,-y,-z
x,y,1/2-z
-x,y,z
x,-y,1/2+z
1/2+x,1/2+y,z
1/2-x,1/2-y,1/2+z
1/2+x,1/2-y,-z
1/2-x,1/2+y,1/2-z
1/2-x,1/2-y,-z
1/2+x,1/2+y,1/2-z
1/2-x,1/2+y,z
1/2+x,1/2-y,1/2+z
loop_
_atom_site_type_symbol
_atom_site_label
_atom_site_fract_x
_atom_site_fract_y
_atom_site_fract_z
Si Si1 0.189457 0.434484 0.371884
Si Si2 0.393656 0.029135 0.127726
Si Si3 0.394069 0.526479 0.871436
Si Si4 0.189962 0.929889 0.628936
Si Si5 0.215681 0.662321 0.870218
Si Si6 0.614165 0.747257 0.366881
Si Si7 0.886676 0.843922 0.988211
O O1 0.186968 0.434954 0.250000
O O2 0.126592 0.477314 0.402727
O O3 0.300241 0.445296 0.401011
O O4 0.163366 0.384016 0.402321
O O5 0.392855 0.029047 0.250000
O O6 0.500000 0.043927 0.096411
O O7 0.300725 0.058748 0.100086
O O8 0.395694 0.528678 0.750000
O O9 0.500000 0.540460 0.906778
O O10 0.371334 0.474605 0.896267
O O11 0.186486 0.925226 0.750000
O O12 0.148495 0.885685 0.578533
O O13 0.214984 0.663377 0.750000
O O14 0.167448 0.708337 0.905715
O O15 0.322995 0.658392 0.912214
O O16 0.640583 0.740189 0.250000
O O17 0.500000 0.755918 0.370256
O O18 0.632729 0.702159 0.428054
O O19 0.000000 0.847510 0.007323
#
# Coordination Sequence:
#
# PCOD9474041 Si02
#       7
#    16  16  16  16  16  16  16
#     4   8  15  27  45  70  98 133 175 212 248 297
#     4   8  14  27  49  76 106 141 179 219 265 314
#     4   8  13  23  41  65  95 132 172 212 250 288
#     4   9  17  30  50  77 108 140 175 217 265 312
#     4  10  21  37  55  76 106 141 175 213 258 310
#     4   9  19  37  61  85 104 126 163 213 267 318
#     4  11  22  35  54  80 108 138 174 216 260 310
#
# _framework density 20.280418999999998
#
# number of rings (size 3 to 8) (size 9 to 14) (size 15 to 20)
#    0.000    3.000    0.000    3.000    0.000    2.857 
#    0.000    7.857    0.000    6.000    0.000    2.000 
#    0.000    0.000    0.000    0.000    0.000    0.000 
#
# Total GULP energy -312845.202161 kJ/mol
# GULP energy per Si atom -5586.521467 kJ/mol
# Density = 2.023426 g / cm^3
# Si number density = 20.280419 Si / 1000 Ang^3
#
#
#
# Elastic Constant Matrix: (Units=GPa)
#
#
# Indices 1 2 3 4 5 6 
#
# 1 63.8573 27.0325 1.1721 0.0000 0.0000 0.0000
# 2 27.0325 136.2353 14.0997 0.0000 0.0000 0.0000
# 3 1.1721 14.0997 39.9827 0.0000 0.0000 0.0000
# 4 0.0000 0.0000 0.0000 23.9650 0.0000 0.0000
# 5 0.0000 0.0000 0.0000 0.0000 31.1926 0.0000
# 6 0.0000 0.0000 0.0000 0.0000 0.0000 15.4617
#
#
#
# Elastic Compliance Matrix: (Units=1/GPa)
#
#
# Indices 1 2 3 4 5 6 
#
# 1 0.017116 -0.003471 0.000722 0.000000 0.000000 0.000000
# 2 -0.003471 0.008322 -0.002833 0.000000 0.000000 0.000000
# 3 0.000722 -0.002833 0.025989 0.000000 0.000000 0.000000
# 4 0.000000 0.000000 0.000000 0.041728 0.000000 0.000000
# 5 0.000000 0.000000 0.000000 0.000000 0.032059 0.000000
# 6 0.000000 0.000000 0.000000 0.000000 0.000000 0.064676
#
#
# Mechanical properties :
#
#
# Convention : Reuss Voigt Hill
#
# Bulk Modulus (GPa) = 24.83644 36.07598 30.45621
# Shear Modulus (GPa) = 23.31284 27.30857 25.31071
#
# Velocity S-wave (km/s) = 3.39414 3.67352 3.53659
# Velocity P-wave (km/s) = 5.25674 5.98499 5.63265
#
# Compressibility (1/GPa) = 0.04026343
#
# Stress axis : x y z
#
# Youngs Moduli (GPa) = 58.42472 120.16076 38.47827
#
# Poissons Ratio (x) = 0.41708 -0.02779
# Poissons Ratio (y) = 0.20279 0.10901
# Poissons Ratio (z) = -0.04220 0.34042
#
# Static dielectric constant tensor:
#      x y z
#    x 1.695340 0.000000 0.000000 
#    y 0.000000 1.704880 0.000000 
#    z 0.000000 0.000000 1.796890 
# 
# From -- ./inp_files/32738.got.cif
#   From: 2010.05.17/outbox.cif.g08.bks.cpg/sg63_17_cif.got.tgz:32738.got - 2010.06.03 15:47:04.
