data_PCOD9474798
_publ_section_title
;
Structure prediction by ZEFSAII (Michael W. Deem and Ramdas Pophale) SiO2 
 PCOD9474798
Probable space group: C M C M
;
_chemical_formula_sum "Si O2"
_cell_formula_units_Z 64
_cell_length_a 28.927409
_cell_length_b 9.015787
_cell_length_c 11.426693
_cell_angle_alpha 90.000000
_cell_angle_beta 90.000000
_cell_angle_gamma 90.000000
_cell_volume 2980.119905
_symmetry_space_group_name_H-M "C M C M"
_symmetry_group_IT_number 63
_symmetry_cell_setting 'orthorhombic'
loop_
_space_group_symop_operation_xyz
x,y,z
-x,-y,1/2+z
x,-y,-z
-x,y,1/2-z
-x,-y,-z
x,y,1/2-z
-x,y,z
x,-y,1/2+z
1/2+x,1/2+y,z
1/2-x,1/2-y,1/2+z
1/2+x,1/2-y,-z
1/2-x,1/2+y,1/2-z
1/2-x,1/2-y,-z
1/2+x,1/2+y,1/2-z
1/2-x,1/2+y,z
1/2+x,1/2-y,1/2+z
loop_
_atom_site_type_symbol
_atom_site_label
_atom_site_fract_x
_atom_site_fract_y
_atom_site_fract_z
Si Si1 0.188117 0.247732 0.113281
Si Si2 0.555666 0.576564 0.622482
Si Si3 0.909415 0.675638 0.986985
Si Si4 0.500000 0.101475 0.881049
Si Si5 0.748615 0.500000 0.000000
O O1 0.180785 0.260184 0.250000
O O2 0.138553 0.254690 0.051909
O O3 0.215957 0.099300 0.081809
O O4 0.219072 0.385567 0.069468
O O5 0.570561 0.500000 0.500000
O O6 0.571684 0.520309 0.750000
O O7 0.500000 0.574040 0.622821
O O8 0.573177 0.744828 0.604514
O O9 0.952751 0.693449 0.897650
O O10 0.901816 0.500000 0.000000
O O11 0.500000 0.035041 0.750000
O O12 0.500000 0.000000 0.000000
#
# Coordination Sequence:
#
# PCOD9474798 Si02
#       5
#    16  16  16   8   8
#     4  11  23  44  70  96 132 171 218 281 342 405
#     4  10  23  44  67  96 137 185 232 280 333 396
#     4  11  23  42  64 102 136 177 224 270 331 400
#     4  10  22  38  61  92 137 180 222 270 324 388
#     4  10  24  46  68  98 126 162 230 274 352 400
#
# _framework density 21.475646000000001
#
# number of rings (size 3 to 8) (size 9 to 14) (size 15 to 20)
#    0.000    1.500    2.500    1.500    1.750    7.000 
#    0.000    1.250    0.000    0.000    0.000    0.000 
#    0.000    0.000    0.000    0.000    0.000    0.000 
#
# Total GULP energy -178695.336539 kJ/mol
# GULP energy per Si atom -5584.229267 kJ/mol
# Density = 2.142677 g / cm^3
# Si number density = 21.475646 Si / 1000 Ang^3
#
#
#
# Elastic Constant Matrix: (Units=GPa)
#
#
# Indices 1 2 3 4 5 6 
#
# 1 132.4516 16.9192 23.6826 0.0000 0.0000 0.0000
# 2 16.9192 78.1755 31.6405 0.0000 0.0000 0.0000
# 3 23.6826 31.6405 145.9336 0.0000 0.0000 0.0000
# 4 0.0000 0.0000 0.0000 20.6104 0.0000 0.0000
# 5 0.0000 0.0000 0.0000 0.0000 1.0534 0.0000
# 6 0.0000 0.0000 0.0000 0.0000 0.0000 1.7465
#
#
#
# Elastic Compliance Matrix: (Units=1/GPa)
#
#
# Indices 1 2 3 4 5 6 
#
# 1 0.007895 -0.001305 -0.000998 0.000000 0.000000 0.000000
# 2 -0.001305 0.014238 -0.002875 0.000000 0.000000 0.000000
# 3 -0.000998 -0.002875 0.007638 0.000000 0.000000 0.000000
# 4 0.000000 0.000000 0.000000 0.048519 0.000000 0.000000
# 5 0.000000 0.000000 0.000000 0.000000 0.949329 0.000000
# 6 0.000000 0.000000 0.000000 0.000000 0.000000 0.572558
#
#
# Mechanical properties :
#
#
# Convention : Reuss Voigt Hill
#
# Bulk Modulus (GPa) = 51.50856 55.67172 53.59014
# Shear Modulus (GPa) = 3.09214 23.63662 13.36438
#
# Velocity S-wave (km/s) = 1.20123 3.32116 2.49731
# Velocity P-wave (km/s) = 5.09516 6.37858 5.77265
#
# Compressibility (1/GPa) = 0.01941425
#
# Stress axis : x y z
#
# Youngs Moduli (GPa) = 126.66102 70.23554 130.92688
#
# Poissons Ratio (x) = 0.09163 0.13072
# Poissons Ratio (y) = 0.16524 0.37645
# Poissons Ratio (z) = 0.12646 0.20194
#
# Static dielectric constant tensor:
#      x y z
#    x 1.740640 0.000000 0.000000 
#    y 0.000000 1.642570 0.000000 
#    z 0.000000 0.000000 1.776400 
# 
# From -- ./inp_files/25495.got.cif
#   From: 2010.05.17/outbox.cif.g08.bks.cpg/sg63_13_cif.got.tgz:25495.got - 2010.06.03 15:47:04.
