data_PCOD9474518
_publ_section_title
;
Structure prediction by ZEFSAII (Michael W. Deem and Ramdas Pophale) SiO2 
 PCOD9474518
Probable space group: C M C M
;
_chemical_formula_sum "Si O2"
_cell_formula_units_Z 96
_cell_length_a 15.237382
_cell_length_b 12.683017
_cell_length_c 22.467852
_cell_angle_alpha 90.000000
_cell_angle_beta 90.000000
_cell_angle_gamma 90.000000
_cell_volume 4342.046643
_symmetry_space_group_name_H-M "C M C M"
_symmetry_group_IT_number 63
_symmetry_cell_setting 'orthorhombic'
loop_
_space_group_symop_operation_xyz
x,y,z
-x,-y,1/2+z
x,-y,-z
-x,y,1/2-z
-x,-y,-z
x,y,1/2-z
-x,y,z
x,-y,1/2+z
1/2+x,1/2+y,z
1/2-x,1/2-y,1/2+z
1/2+x,1/2-y,-z
1/2-x,1/2+y,1/2-z
1/2-x,1/2-y,-z
1/2+x,1/2+y,1/2-z
1/2-x,1/2+y,z
1/2+x,1/2-y,1/2+z
loop_
_atom_site_type_symbol
_atom_site_label
_atom_site_fract_x
_atom_site_fract_y
_atom_site_fract_z
Si Si1 0.259289 0.692625 0.184035
Si Si2 0.863197 0.062316 0.558778
Si Si3 0.325553 0.951523 0.587231
Si Si4 0.353789 0.777011 0.501133
Si Si5 0.904631 0.988057 0.813087
Si Si6 0.401277 0.162981 0.629274
O O1 0.220066 0.705418 0.250000
O O2 0.197572 0.644456 0.132795
O O3 0.331544 0.600358 0.186993
O O4 0.317617 0.793982 0.166179
O O5 0.884961 0.181278 0.541097
O O6 0.895016 0.000000 0.500000
O O7 0.762892 0.016417 0.567774
O O8 0.898989 0.047238 0.624921
O O9 0.365544 0.890089 0.531241
O O10 0.386002 0.039346 0.617081
O O11 0.250000 0.750000 0.500000
O O12 0.391358 0.778737 0.434757
O O13 0.895867 0.048763 0.750000
O O14 0.000000 0.936111 0.812514
O O15 0.500000 0.180961 0.652753
#
# Coordination Sequence:
#
# PCOD9474518 Si02
#       6
#    16  16  16  16  16  16
#     4  10  21  39  63  89 121 166 215 259 312 388
#     4  11  19  32  58  86 114 158 214 266 318 381
#     4  11  21  39  61  87 124 165 213 258 319 390
#     4  12  20  37  61  86 124 171 206 257 321 389
#     4   9  19  35  54  80 118 160 202 259 325 382
#     4  12  25  39  63  99 132 165 209 268 335 386
#
# _framework density 22.109390000000001
#
# number of rings (size 3 to 8) (size 9 to 14) (size 15 to 20)
#    0.000    1.167    5.000    2.000    0.000    4.000 
#    0.000    4.167    0.000    0.000    0.000    0.000 
#    0.000    0.000    0.000    0.000    0.000    0.000 
#
# Total GULP energy -267700.349335 kJ/mol
# GULP energy per Si atom -5577.090611 kJ/mol
# Density = 2.205907 g / cm^3
# Si number density = 22.109390 Si / 1000 Ang^3
#
#
#
# Elastic Constant Matrix: (Units=GPa)
#
#
# Indices 1 2 3 4 5 6 
#
# 1 33.5711 -4.4183 1.0229 0.0000 0.0000 0.0000
# 2 -4.4183 103.4073 26.2839 0.0000 0.0000 0.0000
# 3 1.0229 26.2839 127.5764 0.0000 0.0000 0.0000
# 4 0.0000 0.0000 0.0000 23.6728 0.0000 0.0000
# 5 0.0000 0.0000 0.0000 0.0000 15.9554 0.0000
# 6 0.0000 0.0000 0.0000 0.0000 0.0000 -66.3329
#
#
#
# Elastic Compliance Matrix: (Units=1/GPa)
#
#
# Indices 1 2 3 4 5 6 
#
# 1 0.029990 0.001417 -0.000532 0.000000 0.000000 0.000000
# 2 0.001417 0.010272 -0.002128 0.000000 0.000000 0.000000
# 3 -0.000532 -0.002128 0.008281 0.000000 0.000000 0.000000
# 4 0.000000 0.000000 0.000000 0.042243 0.000000 0.000000
# 5 0.000000 0.000000 0.000000 0.000000 0.062675 0.000000
# 6 0.000000 0.000000 0.000000 0.000000 0.000000 -0.015075
#
#
# Mechanical properties :
#
#
# Convention : Reuss Voigt Hill
#
# Bulk Modulus (GPa) = 21.71243 34.48133 28.09688
# Shear Modulus (GPa) = 32.00540 10.77014 21.38777
#
# Velocity S-wave (km/s) = 3.80885 2.20950 3.11362
# Velocity P-wave (km/s) = 5.40231 4.70519 5.06575
#
# Compressibility (1/GPa) = 0.04605657
#
# Stress axis : x y z
#
# Youngs Moduli (GPa) = 33.34422 97.35375 120.75767
#
# Poissons Ratio (x) = -0.13792 0.06428
# Poissons Ratio (y) = -0.04724 0.25692
# Poissons Ratio (z) = 0.01775 0.20713
#
# Static dielectric constant tensor:
#      x y z
#    x 1.883300 0.000000 0.000000 
#    y 0.000000 1.835650 0.000000 
#    z 0.000000 0.000000 1.874630 
# 
# From -- ./inp_files/63685.got.cif
#   From: 2010.05.17/outbox.cif.g08.bks.cpg/sg63_32_cif.got.tgz:63685.got - 2010.06.03 15:47:04.
