data_PCOD9474242
_publ_section_title
;
Structure prediction by ZEFSAII (Michael W. Deem and Ramdas Pophale) SiO2 
 PCOD9474242
Probable space group: C M C M
;
_chemical_formula_sum "Si O2"
_cell_formula_units_Z 96
_cell_length_a 19.618782
_cell_length_b 14.200421
_cell_length_c 15.339127
_cell_angle_alpha 90.000000
_cell_angle_beta 90.000000
_cell_angle_gamma 90.000000
_cell_volume 4273.403533
_symmetry_space_group_name_H-M "C M C M"
_symmetry_group_IT_number 63
_symmetry_cell_setting 'orthorhombic'
loop_
_space_group_symop_operation_xyz
x,y,z
-x,-y,1/2+z
x,-y,-z
-x,y,1/2-z
-x,-y,-z
x,y,1/2-z
-x,y,z
x,-y,1/2+z
1/2+x,1/2+y,z
1/2-x,1/2-y,1/2+z
1/2+x,1/2-y,-z
1/2-x,1/2+y,1/2-z
1/2-x,1/2-y,-z
1/2+x,1/2+y,1/2-z
1/2-x,1/2+y,z
1/2+x,1/2-y,1/2+z
loop_
_atom_site_type_symbol
_atom_site_label
_atom_site_fract_x
_atom_site_fract_y
_atom_site_fract_z
Si Si1 0.919620 0.129511 0.577284
Si Si2 0.634282 0.563941 0.150769
Si Si3 0.000000 0.595268 0.642407
Si Si4 0.314406 0.720991 0.056243
Si Si5 0.371231 0.092247 0.530880
Si Si6 0.000000 0.192532 0.151567
Si Si7 0.579737 0.825560 0.845177
O O1 0.872774 0.174495 0.503307
O O2 0.917658 0.211230 0.649903
O O3 0.000000 0.116661 0.553688
O O4 0.884557 0.031077 0.600577
O O5 0.644540 0.535695 0.250000
O O6 0.694598 0.635608 0.123444
O O7 0.566115 0.628192 0.144617
O O8 0.933555 0.556843 0.591840
O O9 0.000000 0.705876 0.606499
O O10 0.000000 0.582300 0.750000
O O11 0.339385 0.823208 0.087987
O O12 0.250000 0.750000 0.000000
O O13 0.390039 0.138476 0.436957
O O14 0.329771 0.000000 0.500000
O O15 0.000000 0.227032 0.250000
O O16 0.607717 0.856039 0.750000
O O17 0.500000 0.851974 0.846969
#
# Coordination Sequence:
#
# PCOD9474242 Si02
#       7
#    16  16   8  16  16   8  16
#     4  10  21  37  67 103 134 165 215 276 347 411
#     4  11  21  37  66 102 138 166 208 272 346 414
#     4  11  21  37  61  94 127 161 208 272 331 382
#     4  11  26  44  63  88 133 181 224 268 326 404
#     4  11  23  39  59  85 122 166 220 267 318 370
#     4   9  18  31  57  97 133 158 190 258 337 403
#     4   9  18  33  54  86 130 168 201 251 321 389
#
# _framework density 22.464531000000001
#
# number of rings (size 3 to 8) (size 9 to 14) (size 15 to 20)
#    0.000    1.667    3.333    1.250    2.333    3.333 
#    0.000    4.167    0.000    2.000    0.000    0.000 
#    0.000    0.000    0.000    0.000    0.000    0.000 
#
# Total GULP energy -267263.272194 kJ/mol
# GULP energy per Si atom -5567.984837 kJ/mol
# Density = 2.241340 g / cm^3
# Si number density = 22.464531 Si / 1000 Ang^3
#
#
#
# Elastic Constant Matrix: (Units=GPa)
#
#
# Indices 1 2 3 4 5 6 
#
# 1 34.8457 6.2139 6.6126 0.0000 0.0000 0.0000
# 2 6.2139 144.0476 5.5821 0.0000 0.0000 0.0000
# 3 6.6126 5.5821 98.5830 0.0000 0.0000 0.0000
# 4 0.0000 0.0000 0.0000 17.6526 0.0000 0.0000
# 5 0.0000 0.0000 0.0000 0.0000 14.3522 0.0000
# 6 0.0000 0.0000 0.0000 0.0000 0.0000 13.1433
#
#
#
# Elastic Compliance Matrix: (Units=1/GPa)
#
#
# Indices 1 2 3 4 5 6 
#
# 1 0.029270 -0.001189 -0.001896 0.000000 0.000000 0.000000
# 2 -0.001189 0.007006 -0.000317 0.000000 0.000000 0.000000
# 3 -0.001896 -0.000317 0.010289 0.000000 0.000000 0.000000
# 4 0.000000 0.000000 0.000000 0.056649 0.000000 0.000000
# 5 0.000000 0.000000 0.000000 0.000000 0.069676 0.000000
# 6 0.000000 0.000000 0.000000 0.000000 0.000000 0.076084
#
#
# Mechanical properties :
#
#
# Convention : Reuss Voigt Hill
#
# Bulk Modulus (GPa) = 25.15076 34.92151 30.03614
# Shear Modulus (GPa) = 18.58522 26.30080 22.44301
#
# Velocity S-wave (km/s) = 2.87943 3.42536 3.16419
# Velocity P-wave (km/s) = 4.71963 5.58776 5.17194
#
# Compressibility (1/GPa) = 0.03976023
#
# Stress axis : x y z
#
# Youngs Moduli (GPa) = 34.16492 142.74035 97.19251
#
# Poissons Ratio (x) = 0.16974 0.18428
# Poissons Ratio (y) = 0.04063 0.03080
# Poissons Ratio (z) = 0.06478 0.04524
#
# Static dielectric constant tensor:
#      x y z
#    x 1.862540 0.000000 0.000000 
#    y 0.000000 2.047200 0.000000 
#    z 0.000000 0.000000 1.944650 
# 
# From -- ./inp_files/35435.got.cif
#   From: 2010.05.17/outbox.cif.g08.bks.cpg/sg63_18_cif.got.tgz:35435.got - 2010.06.03 15:47:04.
