data_PCOD9474626
_publ_section_title
;
Structure prediction by ZEFSAII (Michael W. Deem and Ramdas Pophale) SiO2 
 PCOD9474626
Probable space group: C M C M
;
_chemical_formula_sum "Si O2"
_cell_formula_units_Z 88
_cell_length_a 30.621024
_cell_length_b 7.255146
_cell_length_c 19.001997
_cell_angle_alpha 90.000000
_cell_angle_beta 90.000000
_cell_angle_gamma 90.000000
_cell_volume 4221.483650
_symmetry_space_group_name_H-M "C M C M"
_symmetry_group_IT_number 63
_symmetry_cell_setting 'orthorhombic'
loop_
_space_group_symop_operation_xyz
x,y,z
-x,-y,1/2+z
x,-y,-z
-x,y,1/2-z
-x,-y,-z
x,y,1/2-z
-x,y,z
x,-y,1/2+z
1/2+x,1/2+y,z
1/2-x,1/2-y,1/2+z
1/2+x,1/2-y,-z
1/2-x,1/2+y,1/2-z
1/2-x,1/2-y,-z
1/2+x,1/2+y,1/2-z
1/2-x,1/2+y,z
1/2+x,1/2-y,1/2+z
loop_
_atom_site_type_symbol
_atom_site_label
_atom_site_fract_x
_atom_site_fract_y
_atom_site_fract_z
Si Si1 0.124655 0.738271 0.114131
Si Si2 0.951001 0.529230 0.665308
Si Si3 0.198296 0.749637 0.622019
Si Si4 0.606110 0.637408 0.167375
Si Si5 0.167267 0.500000 0.500000
Si Si6 0.290165 0.627831 0.828883
O O1 0.084869 0.618762 0.142921
O O2 0.170807 0.728467 0.157170
O O3 0.110891 0.951459 0.122495
O O4 0.137633 0.651100 0.039602
O O5 0.951988 0.529244 0.750000
O O6 0.933066 0.730568 0.644388
O O7 0.000000 0.493316 0.639265
O O8 0.150796 0.744440 0.658558
O O9 0.195488 0.617777 0.555046
O O10 0.241295 0.699448 0.665617
O O11 0.204410 0.969368 0.612457
O O12 0.601207 0.587954 0.250000
O O13 0.297276 0.552489 0.750000
#
# Coordination Sequence:
#
# PCOD9474626 Si02
#       6
#    16  16  16  16   8  16
#     4  11  23  42  63  93 134 174 219 261 322 392
#     4  10  21  40  69 101 130 163 211 277 344 392
#     4  11  23  39  59  92 130 171 221 261 311 389
#     4  10  21  40  66  96 127 163 210 277 333 379
#     4  12  26  42  61  88 132 192 221 258 312 384
#     4  11  23  40  66  98 128 168 216 279 338 381
#
# _framework density 20.845749999999999
#
# number of rings (size 3 to 8) (size 9 to 14) (size 15 to 20)
#    0.000    1.273    1.818    5.455    0.000    6.545 
#    0.000    2.273    0.000    1.091    0.000    0.000 
#    0.000    0.000    0.000    0.000    0.000    0.000 
#
# Total GULP energy -245498.532721 kJ/mol
# GULP energy per Si atom -5579.512107 kJ/mol
# Density = 2.079830 g / cm^3
# Si number density = 20.845750 Si / 1000 Ang^3
#
#
#
# Elastic Constant Matrix: (Units=GPa)
#
#
# Indices 1 2 3 4 5 6 
#
# 1 146.0339 60.3610 37.6349 0.0000 0.0000 0.0000
# 2 60.3610 117.5224 46.7765 0.0000 0.0000 0.0000
# 3 37.6349 46.7765 59.3906 0.0000 0.0000 0.0000
# 4 0.0000 0.0000 0.0000 23.1181 0.0000 0.0000
# 5 0.0000 0.0000 0.0000 0.0000 14.6180 0.0000
# 6 0.0000 0.0000 0.0000 0.0000 0.0000 30.2549
#
#
#
# Elastic Compliance Matrix: (Units=1/GPa)
#
#
# Indices 1 2 3 4 5 6 
#
# 1 0.009051 -0.003446 -0.003021 0.000000 0.000000 0.000000
# 2 -0.003446 0.013707 -0.008612 0.000000 0.000000 0.000000
# 3 -0.003021 -0.008612 0.025535 0.000000 0.000000 0.000000
# 4 0.000000 0.000000 0.000000 0.043256 0.000000 0.000000
# 5 0.000000 0.000000 0.000000 0.000000 0.068409 0.000000
# 6 0.000000 0.000000 0.000000 0.000000 0.000000 0.033053
#
#
# Mechanical properties :
#
#
# Convention : Reuss Voigt Hill
#
# Bulk Modulus (GPa) = 55.14430 68.05466 61.59948
# Shear Modulus (GPa) = 21.81387 25.47650 23.64519
#
# Velocity S-wave (km/s) = 3.23838 3.49971 3.37158
# Velocity P-wave (km/s) = 6.36347 7.00345 6.69112
#
# Compressibility (1/GPa) = 0.01813424
#
# Stress axis : x y z
#
# Youngs Moduli (GPa) = 110.48873 72.95742 39.16227
#
# Poissons Ratio (x) = 0.25142 0.11831
# Poissons Ratio (y) = 0.38075 0.33725
# Poissons Ratio (z) = 0.33380 0.62829
#
# Static dielectric constant tensor:
#      x y z
#    x 1.758820 0.000000 0.000000 
#    y 0.000000 1.792750 0.000000 
#    z 0.000000 0.000000 1.759800 
# 
# From -- ./inp_files/49493.got.cif
#   From: 2010.05.17/outbox.cif.g08.bks.cpg/sg63_25_cif.got.tgz:49493.got - 2010.06.03 15:47:04.
