data_PCOD9474159
_publ_section_title
;
Structure prediction by ZEFSAII (Michael W. Deem and Ramdas Pophale) SiO2 
 PCOD9474159
Probable space group: C M C M
;
_chemical_formula_sum "Si O2"
_cell_formula_units_Z 72
_cell_length_a 13.140804
_cell_length_b 32.682309
_cell_length_c 7.567667
_cell_angle_alpha 90.000000
_cell_angle_beta 90.000000
_cell_angle_gamma 90.000000
_cell_volume 3250.099696
_symmetry_space_group_name_H-M "C M C M"
_symmetry_group_IT_number 63
_symmetry_cell_setting 'orthorhombic'
loop_
_space_group_symop_operation_xyz
x,y,z
-x,-y,1/2+z
x,-y,-z
-x,y,1/2-z
-x,-y,-z
x,y,1/2-z
-x,y,z
x,-y,1/2+z
1/2+x,1/2+y,z
1/2-x,1/2-y,1/2+z
1/2+x,1/2-y,-z
1/2-x,1/2+y,1/2-z
1/2-x,1/2-y,-z
1/2+x,1/2+y,1/2-z
1/2-x,1/2+y,z
1/2+x,1/2-y,1/2+z
loop_
_atom_site_type_symbol
_atom_site_label
_atom_site_fract_x
_atom_site_fract_y
_atom_site_fract_z
Si Si1 0.324629 0.187956 0.547963
Si Si2 0.000000 0.452287 0.541354
Si Si3 0.804231 0.599306 0.957406
Si Si4 0.115032 0.952446 0.462458
Si Si5 0.887630 0.223627 0.464783
O O1 0.362687 0.185989 0.750000
O O2 0.336246 0.143316 0.465066
O O3 0.204248 0.197692 0.542417
O O4 0.374227 0.229260 0.472918
O O5 0.000000 0.500000 0.500000
O O6 0.898607 0.431188 0.469137
O O7 0.000000 0.446379 0.750000
O O8 0.783150 0.607289 0.750000
O O9 0.702945 0.577636 0.031222
O O10 0.112916 0.948532 0.250000
O O11 0.000000 0.944455 0.528461
O O12 0.139864 0.000000 0.500000
O O13 0.876874 0.223348 0.250000
O O14 0.000000 0.208724 0.509631
#
# Coordination Sequence:
#
# PCOD9474159 Si02
#       5
#    16   8  16  16  16
#     4   9  19  34  54  80 107 140 183 228 278 334
#     4  12  26  42  60  84 116 154 194 238 286 338
#     4  10  21  37  59  84 112 146 186 235 284 337
#     4   9  18  33  53  78 106 137 175 220 271 329
#     4   9  18  33  53  76 108 147 182 224 277 334
#
# _framework density 22.153168000000001
#
# number of rings (size 3 to 8) (size 9 to 14) (size 15 to 20)
#    0.000    2.444    0.000    1.667    1.556    4.889 
#    0.000    2.222    0.000    2.667    0.000    0.000 
#    0.000    0.000    0.000    0.000    0.000    0.000 
#
# Total GULP energy -200979.283262 kJ/mol
# GULP energy per Si atom -5582.757868 kJ/mol
# Density = 2.210275 g / cm^3
# Si number density = 22.153168 Si / 1000 Ang^3
#
#
#
# Elastic Constant Matrix: (Units=GPa)
#
#
# Indices 1 2 3 4 5 6 
#
# 1 73.2079 15.7810 -10.9985 0.0000 0.0000 0.0000
# 2 15.7810 113.7603 -8.5513 0.0000 0.0000 0.0000
# 3 -10.9985 -8.5513 59.2208 0.0000 0.0000 0.0000
# 4 0.0000 0.0000 0.0000 12.0294 0.0000 0.0000
# 5 0.0000 0.0000 0.0000 0.0000 35.0095 0.0000
# 6 0.0000 0.0000 0.0000 0.0000 0.0000 -14.8725
#
#
#
# Elastic Compliance Matrix: (Units=1/GPa)
#
#
# Indices 1 2 3 4 5 6 
#
# 1 0.014414 -0.001818 0.002415 0.000000 0.000000 0.000000
# 2 -0.001818 0.009116 0.000979 0.000000 0.000000 0.000000
# 3 0.002415 0.000979 0.017476 0.000000 0.000000 0.000000
# 4 0.000000 0.000000 0.000000 0.083130 0.000000 0.000000
# 5 0.000000 0.000000 0.000000 0.000000 0.028564 0.000000
# 6 0.000000 0.000000 0.000000 0.000000 0.000000 -0.067238
#
#
# Mechanical properties :
#
#
# Convention : Reuss Voigt Hill
#
# Bulk Modulus (GPa) = 22.64669 26.51681 24.58175
# Shear Modulus (GPa) = 51.53025 23.09712 37.31368
#
# Velocity S-wave (km/s) = 4.82819 3.23245 4.10854
# Velocity P-wave (km/s) = 6.42859 5.09189 5.79889
#
# Compressibility (1/GPa) = 0.04415656
#
# Stress axis : x y z
#
# Youngs Moduli (GPa) = 69.37508 109.69494 57.22230
#
# Poissons Ratio (x) = 0.19944 -0.13816
# Poissons Ratio (y) = 0.12613 -0.05600
# Poissons Ratio (z) = -0.16751 -0.10736
#
# Static dielectric constant tensor:
#      x y z
#    x 1.786430 0.000000 0.000000 
#    y 0.000000 1.804810 0.000000 
#    z 0.000000 0.000000 1.875510 
# 
# From -- ./inp_files/4927.got.cif
#   From: 2010.05.17/outbox.cif.g08.bks.cpg/sg63_3_cif.got.tgz:4927.got - 2010.06.03 15:47:04.
