data_PCOD9474434
_publ_section_title
;
Structure prediction by ZEFSAII (Michael W. Deem and Ramdas Pophale) SiO2 
 PCOD9474434
Probable space group: C M C M
;
_chemical_formula_sum "Si O2"
_cell_formula_units_Z 116
_cell_length_a 13.792178
_cell_length_b 15.019938
_cell_length_c 23.133272
_cell_angle_alpha 90.000000
_cell_angle_beta 90.000000
_cell_angle_gamma 90.000000
_cell_volume 4792.234460
_symmetry_space_group_name_H-M "C M C M"
_symmetry_group_IT_number 63
_symmetry_cell_setting 'orthorhombic'
loop_
_space_group_symop_operation_xyz
x,y,z
-x,-y,1/2+z
x,-y,-z
-x,y,1/2-z
-x,-y,-z
x,y,1/2-z
-x,y,z
x,-y,1/2+z
1/2+x,1/2+y,z
1/2-x,1/2-y,1/2+z
1/2+x,1/2-y,-z
1/2-x,1/2+y,1/2-z
1/2-x,1/2-y,-z
1/2+x,1/2+y,1/2-z
1/2-x,1/2+y,z
1/2+x,1/2-y,1/2+z
loop_
_atom_site_type_symbol
_atom_site_label
_atom_site_fract_x
_atom_site_fract_y
_atom_site_fract_z
Si Si1 0.635891 0.230437 0.313902
Si Si2 0.000000 0.065804 0.750000
Si Si3 0.182027 0.180383 0.367787
Si Si4 0.606516 0.022796 0.161985
Si Si5 0.611739 0.763357 0.021799
Si Si6 0.182078 0.430806 0.544461
Si Si7 0.829243 0.991777 0.334992
Si Si8 0.390457 0.641685 0.578047
O O1 0.605670 0.262343 0.250000
O O2 0.752075 0.229595 0.321061
O O3 0.605912 0.127272 0.319558
O O4 0.604116 0.284247 0.370570
O O5 0.912454 0.057046 0.700955
O O6 0.132516 0.249172 0.410755
O O7 0.249330 0.126380 0.413535
O O8 0.134564 0.094655 0.337832
O O9 0.500000 0.985399 0.179294
O O10 0.614254 0.021727 0.092194
O O11 0.714437 0.989904 0.182944
O O12 0.500000 0.742429 0.014694
O O13 0.628530 0.859256 0.995302
O O14 0.657825 0.690847 0.976924
O O15 0.227000 0.500000 0.500000
O O16 0.832045 0.940510 0.395966
O O17 0.500000 0.610207 0.566066
#
# Coordination Sequence:
#
# PCOD9474434 Si02
#       8
#    16   4  16  16  16  16  16  16
#     4  10  22  39  64  92 124 165 225 286 344 390
#     4  12  24  48  66  90 152 172 242 278 330 404
#     4  10  24  40  62  91 130 179 224 266 340 405
#     4  10  22  42  63  98 131 166 222 272 337 394
#     4  11  23  38  62  94 133 175 215 280 338 409
#     4  10  21  38  66  93 130 174 220 268 334 402
#     4  10  25  40  65  99 128 184 220 278 336 397
#     4  11  22  39  63  97 134 165 218 281 344 404
#
# _framework density 24.205825999999998
#
# number of rings (size 3 to 8) (size 9 to 14) (size 15 to 20)
#    0.000    1.931    3.448    1.241    9.655    2.207 
#    0.000    1.379    0.000    0.000    0.000    0.000 
#    0.000    0.000    0.000    0.000    0.000    0.000 
#
# Total GULP energy -322902.983316 kJ/mol
# GULP energy per Si atom -5567.292816 kJ/mol
# Density = 2.415073 g / cm^3
# Si number density = 24.205826 Si / 1000 Ang^3
#
#
#
# Elastic Constant Matrix: (Units=GPa)
#
#
# Indices 1 2 3 4 5 6 
#
# 1 116.5754 17.4599 28.0133 0.0000 0.0000 0.0000
# 2 17.4599 22.9184 13.2054 0.0000 0.0000 0.0000
# 3 28.0133 13.2054 109.8075 0.0000 0.0000 0.0000
# 4 0.0000 0.0000 0.0000 25.8074 0.0000 0.0000
# 5 0.0000 0.0000 0.0000 0.0000 11.7409 0.0000
# 6 0.0000 0.0000 0.0000 0.0000 0.0000 6.3682
#
#
#
# Elastic Compliance Matrix: (Units=1/GPa)
#
#
# Indices 1 2 3 4 5 6 
#
# 1 0.009988 -0.006598 -0.001755 0.000000 0.000000 0.000000
# 2 -0.006598 0.051241 -0.004479 0.000000 0.000000 0.000000
# 3 -0.001755 -0.004479 0.010093 0.000000 0.000000 0.000000
# 4 0.000000 0.000000 0.000000 0.038749 0.000000 0.000000
# 5 0.000000 0.000000 0.000000 0.000000 0.085173 0.000000
# 6 0.000000 0.000000 0.000000 0.000000 0.000000 0.157031
#
#
# Mechanical properties :
#
#
# Convention : Reuss Voigt Hill
#
# Bulk Modulus (GPa) = 21.90181 40.73984 31.32082
# Shear Modulus (GPa) = 12.71759 21.49148 17.10453
#
# Velocity S-wave (km/s) = 2.29463 2.98294 2.66113
# Velocity P-wave (km/s) = 4.01102 5.36013 4.73388
#
# Compressibility (1/GPa) = 0.04565832
#
# Stress axis : x y z
#
# Youngs Moduli (GPa) = 100.12014 19.51581 99.07774
#
# Poissons Ratio (x) = 0.12877 0.17384
# Poissons Ratio (y) = 0.66061 0.44376
# Poissons Ratio (z) = 0.17567 0.08741
#
# Static dielectric constant tensor:
#      x y z
#    x 1.984880 0.000000 0.000000 
#    y 0.000000 1.985450 0.000000 
#    z 0.000000 0.000000 2.020140 
# 
# From -- ./inp_files/69546.got.cif
#   From: 2010.05.17/outbox.cif.g08.bks.cpg/sg63_35_cif.got.tgz:69546.got - 2010.06.03 15:47:04.
