data_PCOD9474578
_publ_section_title
;
Structure prediction by ZEFSAII (Michael W. Deem and Ramdas Pophale) SiO2 
 PCOD9474578
Probable space group: C M C M
;
_chemical_formula_sum "Si O2"
_cell_formula_units_Z 60
_cell_length_a 25.468581
_cell_length_b 20.886149
_cell_length_c 5.377320
_cell_angle_alpha 90.000000
_cell_angle_beta 90.000000
_cell_angle_gamma 90.000000
_cell_volume 2860.414707
_symmetry_space_group_name_H-M "C M C M"
_symmetry_group_IT_number 63
_symmetry_cell_setting 'orthorhombic'
loop_
_space_group_symop_operation_xyz
x,y,z
-x,-y,1/2+z
x,-y,-z
-x,y,1/2-z
-x,-y,-z
x,y,1/2-z
-x,y,z
x,-y,1/2+z
1/2+x,1/2+y,z
1/2-x,1/2-y,1/2+z
1/2+x,1/2-y,-z
1/2-x,1/2+y,1/2-z
1/2-x,1/2-y,-z
1/2+x,1/2+y,1/2-z
1/2-x,1/2+y,z
1/2+x,1/2-y,1/2+z
loop_
_atom_site_type_symbol
_atom_site_label
_atom_site_fract_x
_atom_site_fract_y
_atom_site_fract_z
Si Si1 0.394866 0.688691 0.250000
Si Si2 0.390533 0.888423 0.750000
Si Si3 0.062016 0.249365 0.750000
Si Si4 0.717138 0.561859 0.750000
Si Si5 0.000000 0.459120 0.750000
Si Si6 0.783354 0.736660 0.750000
Si Si7 0.325900 0.420724 0.750000
Si Si8 0.672512 0.092594 0.750000
O O1 0.424483 0.710640 0.499036
O O2 0.337504 0.722709 0.250000
O O3 0.381979 0.612922 0.250000
O O4 0.400420 0.812000 0.750000
O O5 0.448025 0.917507 0.750000
O O6 0.361049 0.910891 0.500967
O O7 0.000000 0.266351 0.750000
O O8 0.703262 0.599379 0.501412
O O9 0.681534 0.497663 0.750000
O O10 0.778222 0.544570 0.750000
O O11 0.000000 0.500000 0.500000
O O12 0.750000 0.750000 0.500000
O O13 0.801122 0.662758 0.750000
#
# Coordination Sequence:
#
# PCOD9474578 Si02
#       8
#     8   8   8   8   4   8   8   8
#     4  12  23  40  65  99 134 172 226 264 347 397
#     4  12  24  46  68  91 127 169 216 285 331 389
#     4  12  24  44  69  99 130 174 218 285 341 397
#     4  10  21  40  61  90 129 175 219 256 318 383
#     4  12  28  52  70  96 120 172 234 282 348 392
#     4  12  22  34  58  91 138 177 210 262 321 396
#     4  10  21  40  62  90 131 172 218 265 312 394
#     4  12  23  40  63  96 128 171 223 265 322 385
#
# _framework density 20.97598
#
# number of rings (size 3 to 8) (size 9 to 14) (size 15 to 20)
#    0.000    0.533    3.333    6.000    0.000    0.000 
#   14.400    0.000    0.000    0.000    0.000   37.333 
#    0.000    0.000    0.000    0.000    0.000    0.000 
#
# Total GULP energy -167756.404239 kJ/mol
# GULP energy per Si atom -5591.880141 kJ/mol
# Density = 2.092824 g / cm^3
# Si number density = 20.975980 Si / 1000 Ang^3
#
#
#
# Elastic Constant Matrix: (Units=GPa)
#
#
# Indices 1 2 3 4 5 6 
#
# 1 58.3960 6.7389 49.0314 0.0000 0.0000 0.0000
# 2 6.7389 69.3488 15.0181 0.0000 0.0000 0.0000
# 3 49.0314 15.0181 233.0470 0.0000 0.0000 0.0000
# 4 0.0000 0.0000 0.0000 -17.8440 0.0000 0.0000
# 5 0.0000 0.0000 0.0000 0.0000 42.6106 0.0000
# 6 0.0000 0.0000 0.0000 0.0000 0.0000 11.8369
#
#
#
# Elastic Compliance Matrix: (Units=1/GPa)
#
#
# Indices 1 2 3 4 5 6 
#
# 1 0.020880 -0.001093 -0.004323 0.000000 0.000000 0.000000
# 2 -0.001093 0.014681 -0.000716 0.000000 0.000000 0.000000
# 3 -0.004323 -0.000716 0.005247 0.000000 0.000000 0.000000
# 4 0.000000 0.000000 0.000000 -0.056041 0.000000 0.000000
# 5 0.000000 0.000000 0.000000 0.000000 0.023468 0.000000
# 6 0.000000 0.000000 0.000000 0.000000 0.000000 0.084481
#
#
# Mechanical properties :
#
#
# Convention : Reuss Voigt Hill
#
# Bulk Modulus (GPa) = 35.03308 55.81873 45.42591
# Shear Modulus (GPa) = 43.67039 26.65427 35.16233
#
# Velocity S-wave (km/s) = 4.56776 3.56856 4.09872
# Velocity P-wave (km/s) = 6.67511 6.60667 6.64097
#
# Compressibility (1/GPa) = 0.02854445
#
# Stress axis : x y z
#
# Youngs Moduli (GPa) = 47.89286 68.11454 190.60091
#
# Poissons Ratio (x) = 0.07444 0.82388
# Poissons Ratio (y) = 0.05234 0.13650
# Poissons Ratio (z) = 0.20702 0.04878
#
# Static dielectric constant tensor:
#      x y z
#    x 1.702400 0.000000 0.000000 
#    y 0.000000 1.846620 0.000000 
#    z 0.000000 0.000000 1.799960 
# 
# From -- ./inp_files/989.got.cif
#   From: 2010.05.17/outbox.cif.g08.bks.cpg/sg63_1_cif.got.tgz:989.got - 2010.06.03 15:47:04.
