data_PCOD9474954
_publ_section_title
;
Structure prediction by ZEFSAII (Michael W. Deem and Ramdas Pophale) SiO2 
 PCOD9474954
Probable space group: C M C M
;
_chemical_formula_sum "Si O2"
_cell_formula_units_Z 80
_cell_length_a 8.968697
_cell_length_b 20.037848
_cell_length_c 22.563593
_cell_angle_alpha 90.000000
_cell_angle_beta 90.000000
_cell_angle_gamma 90.000000
_cell_volume 4054.979726
_symmetry_space_group_name_H-M "C M C M"
_symmetry_group_IT_number 63
_symmetry_cell_setting 'orthorhombic'
loop_
_space_group_symop_operation_xyz
x,y,z
-x,-y,1/2+z
x,-y,-z
-x,y,1/2-z
-x,-y,-z
x,y,1/2-z
-x,y,z
x,-y,1/2+z
1/2+x,1/2+y,z
1/2-x,1/2-y,1/2+z
1/2+x,1/2-y,-z
1/2-x,1/2+y,1/2-z
1/2-x,1/2-y,-z
1/2+x,1/2+y,1/2-z
1/2-x,1/2+y,z
1/2+x,1/2-y,1/2+z
loop_
_atom_site_type_symbol
_atom_site_label
_atom_site_fract_x
_atom_site_fract_y
_atom_site_fract_z
Si Si1 0.823949 0.677535 0.490048
Si Si2 0.324991 0.148199 0.148435
Si Si3 0.823372 0.887094 0.099064
Si Si4 0.678628 0.995866 0.317690
Si Si5 0.326614 0.780847 0.317732
O O1 0.750000 0.750000 0.500000
O O2 0.804479 0.654836 0.422279
O O3 0.751342 0.625541 0.535522
O O4 0.000000 0.683111 0.501907
O O5 0.500000 0.161937 0.161679
O O6 0.223204 0.204316 0.177738
O O7 0.292163 0.073796 0.170233
O O8 0.760105 0.950303 0.134441
O O9 0.775264 0.823473 0.138626
O O10 0.000000 0.890423 0.093236
O O11 0.721880 0.979235 0.250000
O O12 0.500000 0.985323 0.322899
O O13 0.309754 0.803982 0.250000
O O14 0.500000 0.788648 0.334554
#
# Coordination Sequence:
#
# PCOD9474954 Si02
#       5
#    16  16  16  16  16
#     4  11  22  39  64  94 127 162 205 258 312 368
#     4  10  22  40  65  93 122 161 205 253 311 374
#     4  12  25  40  61  89 123 166 210 256 309 364
#     4  10  22  42  65  90 124 163 204 255 313 371
#     4  11  23  38  60  90 122 159 205 258 313 369
#
# _framework density 19.728828
#
# number of rings (size 3 to 8) (size 9 to 14) (size 15 to 20)
#    0.000    1.200    2.000    4.200    0.000    7.600 
#    0.000    4.000    0.000    0.000    0.000    0.000 
#    0.000    0.000    0.000    0.000    0.000    0.000 
#
# Total GULP energy -223785.346847 kJ/mol
# GULP energy per Si atom -5594.633671 kJ/mol
# Density = 1.968392 g / cm^3
# Si number density = 19.728828 Si / 1000 Ang^3
#
#
#
# Elastic Constant Matrix: (Units=GPa)
#
#
# Indices 1 2 3 4 5 6 
#
# 1 71.7087 17.9625 27.4346 0.0000 0.0000 0.0000
# 2 17.9625 53.5562 0.5917 0.0000 0.0000 0.0000
# 3 27.4346 0.5917 62.3289 0.0000 0.0000 0.0000
# 4 0.0000 0.0000 0.0000 46.1559 0.0000 0.0000
# 5 0.0000 0.0000 0.0000 0.0000 24.3253 0.0000
# 6 0.0000 0.0000 0.0000 0.0000 0.0000 36.9919
#
#
#
# Elastic Compliance Matrix: (Units=1/GPa)
#
#
# Indices 1 2 3 4 5 6 
#
# 1 0.018594 -0.006147 -0.008126 0.000000 0.000000 0.000000
# 2 -0.006147 0.020706 0.002509 0.000000 0.000000 0.000000
# 3 -0.008126 0.002509 0.019597 0.000000 0.000000 0.000000
# 4 0.000000 0.000000 0.000000 0.021666 0.000000 0.000000
# 5 0.000000 0.000000 0.000000 0.000000 0.041109 0.000000
# 6 0.000000 0.000000 0.000000 0.000000 0.000000 0.027033
#
#
# Mechanical properties :
#
#
# Convention : Reuss Voigt Hill
#
# Bulk Modulus (GPa) = 28.27309 31.06351 29.66830
# Shear Modulus (GPa) = 27.17077 30.93494 29.05286
#
# Velocity S-wave (km/s) = 3.71511 3.96410 3.84162
# Velocity P-wave (km/s) = 5.72404 6.06066 5.89475
#
# Compressibility (1/GPa) = 0.03536932
#
# Stress axis : x y z
#
# Youngs Moduli (GPa) = 53.78132 48.29569 51.02881
#
# Poissons Ratio (x) = 0.29685 0.41465
# Poissons Ratio (y) = 0.33057 -0.12802
# Poissons Ratio (z) = 0.43702 -0.12117
#
# Static dielectric constant tensor:
#      x y z
#    x 1.657590 0.000000 0.000000 
#    y 0.000000 1.677450 0.000000 
#    z 0.000000 0.000000 1.667320 
# 
# From -- ./inp_files/66619.got.cif
#   From: 2010.05.17/outbox.cif.g08.bks.cpg/sg63_34_cif.got.tgz:66619.got - 2010.06.03 15:47:04.
