data_PCOD9474036
_publ_section_title
;
Structure prediction by ZEFSAII (Michael W. Deem and Ramdas Pophale) SiO2 
 PCOD9474036
Probable space group: C M C M
;
_chemical_formula_sum "Si O2"
_cell_formula_units_Z 80
_cell_length_a 9.018030
_cell_length_b 19.938624
_cell_length_c 26.138750
_cell_angle_alpha 90.000000
_cell_angle_beta 90.000000
_cell_angle_gamma 90.000000
_cell_volume 4699.933081
_symmetry_space_group_name_H-M "C M C M"
_symmetry_group_IT_number 63
_symmetry_cell_setting 'orthorhombic'
loop_
_space_group_symop_operation_xyz
x,y,z
-x,-y,1/2+z
x,-y,-z
-x,y,1/2-z
-x,-y,-z
x,y,1/2-z
-x,y,z
x,-y,1/2+z
1/2+x,1/2+y,z
1/2-x,1/2-y,1/2+z
1/2+x,1/2-y,-z
1/2-x,1/2+y,1/2-z
1/2-x,1/2-y,-z
1/2+x,1/2+y,1/2-z
1/2-x,1/2+y,z
1/2+x,1/2-y,1/2+z
loop_
_atom_site_type_symbol
_atom_site_label
_atom_site_fract_x
_atom_site_fract_y
_atom_site_fract_z
Si Si1 0.677164 0.688094 0.309159
Si Si2 0.176403 0.168529 0.810001
Si Si3 0.669844 0.581147 0.994204
Si Si4 0.321020 0.577073 0.107212
Si Si5 0.176319 0.569255 0.609656
O O1 0.706953 0.669096 0.250000
O O2 0.500000 0.700090 0.313753
O O3 0.762578 0.756841 0.320216
O O4 0.716744 0.629333 0.348429
O O5 0.206145 0.154178 0.750000
O O6 0.256662 0.115878 0.846419
O O7 0.000000 0.165911 0.818015
O O8 0.500000 0.601919 0.983884
O O9 0.771105 0.596600 0.945831
O O10 0.669496 0.500000 0.000000
O O11 0.716773 0.605142 0.050555
O O12 0.500000 0.566369 0.107192
O O13 0.242705 0.505702 0.114596
O O14 0.000000 0.567218 0.612232
#
# Coordination Sequence:
#
# PCOD9474036 Si02
#       5
#    16  16  16  16  16
#     4   9  18  34  55  77 102 131 164 205 253 302
#     4  10  21  37  55  73  98 134 171 206 250 304
#     4   8  15  30  50  71 100 136 170 205 248 299
#     4   9  18  33  53  77 105 137 170 205 250 302
#     4  11  21  32  51  78 105 132 168 213 254 295
#
# _framework density 17.021519000000001
#
# number of rings (size 3 to 8) (size 9 to 14) (size 15 to 20)
#    0.000    2.600    0.000    3.600    0.000    6.400 
#    0.000    3.000    0.000    0.000    0.000    0.000 
#    0.000    0.000    0.000    0.000    0.000    0.000 
#
# Total GULP energy -223033.343818 kJ/mol
# GULP energy per Si atom -5575.833595 kJ/mol
# Density = 1.698278 g / cm^3
# Si number density = 17.021519 Si / 1000 Ang^3
#
#
#
# Elastic Constant Matrix: (Units=GPa)
#
#
# Indices 1 2 3 4 5 6 
#
# 1 83.6415 63.2936 85.4288 0.0000 0.0000 0.0000
# 2 63.2936 83.8844 94.0657 0.0000 0.0000 0.0000
# 3 85.4288 94.0657 145.9388 0.0000 0.0000 0.0000
# 4 0.0000 0.0000 0.0000 -32.6813 0.0000 0.0000
# 5 0.0000 0.0000 0.0000 0.0000 19.4855 0.0000
# 6 0.0000 0.0000 0.0000 0.0000 0.0000 26.0336
#
#
#
# Elastic Compliance Matrix: (Units=1/GPa)
#
#
# Indices 1 2 3 4 5 6 
#
# 1 0.032551 -0.011521 -0.011629 0.000000 0.000000 0.000000
# 2 -0.011521 0.047081 -0.023603 0.000000 0.000000 0.000000
# 3 -0.011629 -0.023603 0.028873 0.000000 0.000000 0.000000
# 4 0.000000 0.000000 0.000000 -0.030599 0.000000 0.000000
# 5 0.000000 0.000000 0.000000 0.000000 0.051320 0.000000
# 6 0.000000 0.000000 0.000000 0.000000 0.000000 0.038412
#
#
# Mechanical properties :
#
#
# Convention : Reuss Voigt Hill
#
# Bulk Modulus (GPa) = 66.66329 88.78231 77.72280
# Shear Modulus (GPa) = 18.78688 7.27932 13.03310
#
# Velocity S-wave (km/s) = 3.32582 2.07022 2.77010
# Velocity P-wave (km/s) = 7.34828 7.61489 7.48277
#
# Compressibility (1/GPa) = 0.01500076
#
# Stress axis : x y z
#
# Youngs Moduli (GPa) = 30.72089 21.23992 34.63478
#
# Poissons Ratio (x) = 0.24469 0.40277
# Poissons Ratio (y) = 0.35392 0.81747
# Poissons Ratio (z) = 0.35725 0.50132
#
# Static dielectric constant tensor:
#      x y z
#    x 1.564950 0.000000 0.000000 
#    y 0.000000 1.539190 0.000000 
#    z 0.000000 0.000000 1.597270 
# 
# From -- ./inp_files/66610.got.cif
#   From: 2010.05.17/outbox.cif.g08.bks.cpg/sg63_34_cif.got.tgz:66610.got - 2010.06.03 15:47:04.
