data_PCOD9474223
_publ_section_title
;
Structure prediction by ZEFSAII (Michael W. Deem and Ramdas Pophale) SiO2 
 PCOD9474223
Probable space group: C M C M
;
_chemical_formula_sum "Si O2"
_cell_formula_units_Z 72
_cell_length_a 10.653557
_cell_length_b 15.723772
_cell_length_c 18.982365
_cell_angle_alpha 90.000000
_cell_angle_beta 90.000000
_cell_angle_gamma 90.000000
_cell_volume 3179.813813
_symmetry_space_group_name_H-M "C M C M"
_symmetry_group_IT_number 63
_symmetry_cell_setting 'orthorhombic'
loop_
_space_group_symop_operation_xyz
x,y,z
-x,-y,1/2+z
x,-y,-z
-x,y,1/2-z
-x,-y,-z
x,y,1/2-z
-x,y,z
x,-y,1/2+z
1/2+x,1/2+y,z
1/2-x,1/2-y,1/2+z
1/2+x,1/2-y,-z
1/2-x,1/2+y,1/2-z
1/2-x,1/2-y,-z
1/2+x,1/2+y,1/2-z
1/2-x,1/2+y,z
1/2+x,1/2-y,1/2+z
loop_
_atom_site_type_symbol
_atom_site_label
_atom_site_fract_x
_atom_site_fract_y
_atom_site_fract_z
Si Si1 0.719360 0.498514 0.671238
Si Si2 0.500000 0.199537 0.583286
Si Si3 0.851168 0.089560 0.964361
Si Si4 0.000000 0.507069 0.630238
Si Si5 0.776020 0.818797 0.598006
Si Si6 0.000000 0.677388 0.420871
O O1 0.670033 0.508320 0.750000
O O2 0.678952 0.572596 0.617020
O O3 0.870600 0.499245 0.671855
O O4 0.685277 0.405874 0.638527
O O5 0.500000 0.099578 0.596184
O O6 0.376850 0.246359 0.612903
O O7 0.500000 0.211150 0.499546
O O8 0.000000 0.100985 0.972651
O O9 0.782609 0.156966 0.014318
O O10 0.814562 0.000000 0.000000
O O11 0.000000 0.425835 0.578332
O O12 0.631577 0.796626 0.614442
#
# Coordination Sequence:
#
# PCOD9474223 Si02
#       6
#    16   8  16   8  16   8
#     4  10  21  38  61  87 123 171 213 254 313 389
#     4  12  21  37  66  96 129 160 212 276 330 365
#     4   9  17  32  54  84 122 157 201 257 315 375
#     4  10  22  40  62  89 126 170 222 258 310 389
#     4  10  21  38  62  94 127 163 212 272 325 377
#     4  10  21  37  61  93 128 164 208 254 318 390
#
# _framework density 22.642835000000002
#
# number of rings (size 3 to 8) (size 9 to 14) (size 15 to 20)
#    0.000    2.000    1.111    2.667    1.556    4.000 
#    0.000    2.222    0.000    0.000    0.000    1.556 
#    0.000    0.000    0.000    0.000    0.000    0.000 
#
# Total GULP energy -201217.863915 kJ/mol
# GULP energy per Si atom -5589.385109 kJ/mol
# Density = 2.259130 g / cm^3
# Si number density = 22.642835 Si / 1000 Ang^3
#
#
#
# Elastic Constant Matrix: (Units=GPa)
#
#
# Indices 1 2 3 4 5 6 
#
# 1 94.6796 37.8081 -16.9640 0.0000 0.0000 0.0000
# 2 37.8081 116.7875 20.2703 0.0000 0.0000 0.0000
# 3 -16.9640 20.2703 98.0858 0.0000 0.0000 0.0000
# 4 0.0000 0.0000 0.0000 12.7947 0.0000 0.0000
# 5 0.0000 0.0000 0.0000 0.0000 3.8079 0.0000
# 6 0.0000 0.0000 0.0000 0.0000 0.0000 41.0324
#
#
#
# Elastic Compliance Matrix: (Units=1/GPa)
#
#
# Indices 1 2 3 4 5 6 
#
# 1 0.013057 -0.004791 0.003248 0.000000 0.000000 0.000000
# 2 -0.004791 0.010639 -0.003027 0.000000 0.000000 0.000000
# 3 0.003248 -0.003027 0.011383 0.000000 0.000000 0.000000
# 4 0.000000 0.000000 0.000000 0.078157 0.000000 0.000000
# 5 0.000000 0.000000 0.000000 0.000000 0.262612 0.000000
# 6 0.000000 0.000000 0.000000 0.000000 0.000000 0.024371
#
#
# Mechanical properties :
#
#
# Convention : Reuss Voigt Hill
#
# Bulk Modulus (GPa) = 38.55189 43.53131 41.04160
# Shear Modulus (GPa) = 11.96159 29.42289 20.69224
#
# Velocity S-wave (km/s) = 2.30091 3.60868 3.02628
# Velocity P-wave (km/s) = 4.91141 6.05230 5.51146
#
# Compressibility (1/GPa) = 0.02593906
#
# Stress axis : x y z
#
# Youngs Moduli (GPa) = 76.58713 93.99453 87.85383
#
# Poissons Ratio (x) = 0.45031 -0.28537
# Poissons Ratio (y) = 0.36691 0.26595
# Poissons Ratio (z) = -0.24878 0.28454
#
# Static dielectric constant tensor:
#      x y z
#    x 1.872340 0.000000 0.000000 
#    y 0.000000 1.876270 0.000000 
#    z 0.000000 0.000000 1.828810 
# 
# From -- ./inp_files/41942.got.cif
#   From: 2010.05.17/outbox.cif.g08.bks.cpg/sg63_21_cif.got.tgz:41942.got - 2010.06.03 15:47:04.
