data_PCOD9474889
_publ_section_title
;
Structure prediction by ZEFSAII (Michael W. Deem and Ramdas Pophale) SiO2 
 PCOD9474889
Probable space group: C M C M
;
_chemical_formula_sum "Si O2"
_cell_formula_units_Z 72
_cell_length_a 26.343766
_cell_length_b 8.383660
_cell_length_c 14.835609
_cell_angle_alpha 90.000000
_cell_angle_beta 90.000000
_cell_angle_gamma 90.000000
_cell_volume 3276.550727
_symmetry_space_group_name_H-M "C M C M"
_symmetry_group_IT_number 63
_symmetry_cell_setting 'orthorhombic'
loop_
_space_group_symop_operation_xyz
x,y,z
-x,-y,1/2+z
x,-y,-z
-x,y,1/2-z
-x,-y,-z
x,y,1/2-z
-x,y,z
x,-y,1/2+z
1/2+x,1/2+y,z
1/2-x,1/2-y,1/2+z
1/2+x,1/2-y,-z
1/2-x,1/2+y,1/2-z
1/2-x,1/2-y,-z
1/2+x,1/2+y,1/2-z
1/2-x,1/2+y,z
1/2+x,1/2-y,1/2+z
loop_
_atom_site_type_symbol
_atom_site_label
_atom_site_fract_x
_atom_site_fract_y
_atom_site_fract_z
Si Si1 0.874119 0.844306 0.750000
Si Si2 0.863372 0.526038 0.250000
Si Si3 0.788285 0.150875 0.940925
Si Si4 0.797223 0.851358 0.250000
Si Si5 0.058889 0.849737 0.933089
Si Si6 0.383646 0.867797 0.938859
O O1 0.850512 0.663461 0.750000
O O2 0.906883 0.854537 0.657093
O O3 0.837506 0.000200 0.750000
O O4 0.820267 0.668219 0.250000
O O5 0.895149 0.561797 0.158995
O O6 0.766292 0.124693 0.841689
O O7 0.842347 0.231662 0.925095
O O8 0.750000 0.250000 0.000000
O O9 0.799160 0.000000 0.000000
O O10 0.000000 0.847043 0.906388
O O11 0.072577 0.699905 0.997283
O O12 0.066924 0.000000 0.000000
O O13 0.356311 0.000000 0.000000
#
# Coordination Sequence:
#
# PCOD9474889 Si02
#       6
#     8   8  16   8  16  16
#     4  12  21  44  72 100 130 185 234 280 346 409
#     4  10  22  39  67 104 127 180 232 282 337 421
#     4  11  24  43  66 100 133 179 228 287 347 415
#     4  10  24  43  71  98 139 175 231 280 351 410
#     4  11  24  41  65 100 139 180 231 288 348 416
#     4  11  21  41  66  94 135 176 227 287 348 406
#
# _framework density 21.974326999999999
#
# number of rings (size 3 to 8) (size 9 to 14) (size 15 to 20)
#    0.000    1.111    2.222    5.667    0.000    1.333 
#    0.000    6.111    0.000    1.333    0.000    0.000 
#    0.000    0.000    0.000    0.000    0.000    0.000 
#
# Total GULP energy -200935.143606 kJ/mol
# GULP energy per Si atom -5581.531767 kJ/mol
# Density = 2.192431 g / cm^3
# Si number density = 21.974327 Si / 1000 Ang^3
#
#
#
# Elastic Constant Matrix: (Units=GPa)
#
#
# Indices 1 2 3 4 5 6 
#
# 1 52.4562 22.3695 34.9408 0.0000 0.0000 0.0000
# 2 22.3695 119.8240 46.0805 0.0000 0.0000 0.0000
# 3 34.9408 46.0805 224.0553 0.0000 0.0000 0.0000
# 4 0.0000 0.0000 0.0000 37.1890 0.0000 0.0000
# 5 0.0000 0.0000 0.0000 0.0000 27.6999 0.0000
# 6 0.0000 0.0000 0.0000 0.0000 0.0000 18.1150
#
#
#
# Elastic Compliance Matrix: (Units=1/GPa)
#
#
# Indices 1 2 3 4 5 6 
#
# 1 0.022263 -0.003063 -0.002842 0.000000 0.000000 0.000000
# 2 -0.003063 0.009484 -0.001473 0.000000 0.000000 0.000000
# 3 -0.002842 -0.001473 0.005209 0.000000 0.000000 0.000000
# 4 0.000000 0.000000 0.000000 0.026890 0.000000 0.000000
# 5 0.000000 0.000000 0.000000 0.000000 0.036101 0.000000
# 6 0.000000 0.000000 0.000000 0.000000 0.000000 0.055203
#
#
# Mechanical properties :
#
#
# Convention : Reuss Voigt Hill
#
# Bulk Modulus (GPa) = 45.04488 67.01301 56.02895
# Shear Modulus (GPa) = 28.19995 36.13042 32.16519
#
# Velocity S-wave (km/s) = 3.58622 4.05929 3.83007
# Velocity P-wave (km/s) = 6.13933 7.24794 6.71655
#
# Compressibility (1/GPa) = 0.02220008
#
# Stress axis : x y z
#
# Youngs Moduli (GPa) = 44.91814 105.44253 191.96596
#
# Poissons Ratio (x) = 0.32300 0.54553
# Poissons Ratio (y) = 0.13760 0.28273
# Poissons Ratio (z) = 0.12765 0.15529
#
# Static dielectric constant tensor:
#      x y z
#    x 1.782160 0.000000 0.000000 
#    y 0.000000 1.848700 0.000000 
#    z 0.000000 0.000000 1.833000 
# 
# From -- ./inp_files/38363.got.cif
#   From: 2010.05.17/outbox.cif.g08.bks.cpg/sg63_20_cif.got.tgz:38363.got - 2010.06.03 15:47:04.
