data_PCOD9474262
_publ_section_title
;
Structure prediction by ZEFSAII (Michael W. Deem and Ramdas Pophale) SiO2 
 PCOD9474262
Probable space group: C M C M
;
_chemical_formula_sum "Si O2"
_cell_formula_units_Z 64
_cell_length_a 16.450337
_cell_length_b 17.688459
_cell_length_c 9.490617
_cell_angle_alpha 90.000000
_cell_angle_beta 90.000000
_cell_angle_gamma 90.000000
_cell_volume 2761.590284
_symmetry_space_group_name_H-M "C M C M"
_symmetry_group_IT_number 63
_symmetry_cell_setting 'orthorhombic'
loop_
_space_group_symop_operation_xyz
x,y,z
-x,-y,1/2+z
x,-y,-z
-x,y,1/2-z
-x,-y,-z
x,y,1/2-z
-x,y,z
x,-y,1/2+z
1/2+x,1/2+y,z
1/2-x,1/2-y,1/2+z
1/2+x,1/2-y,-z
1/2-x,1/2+y,1/2-z
1/2-x,1/2-y,-z
1/2+x,1/2+y,1/2-z
1/2-x,1/2+y,z
1/2+x,1/2-y,1/2+z
loop_
_atom_site_type_symbol
_atom_site_label
_atom_site_fract_x
_atom_site_fract_y
_atom_site_fract_z
Si Si1 0.593937 0.027907 0.750000
Si Si2 0.903147 0.115064 0.750000
Si Si3 0.591970 0.736051 0.511219
Si Si4 0.311575 0.543508 0.250000
Si Si5 0.374216 0.152105 0.250000
Si Si6 0.697889 0.000000 0.500000
Si Si7 0.685930 0.702793 0.250000
O O1 0.500000 0.050330 0.750000
O O2 0.602397 0.935840 0.750000
O O3 0.641418 0.048809 0.606123
O O4 0.883822 0.165701 0.887223
O O5 0.859556 0.034847 0.750000
O O6 0.000000 0.104328 0.750000
O O7 0.500000 0.723308 0.457834
O O8 0.590530 0.807967 0.612573
O O9 0.656558 0.745029 0.388125
O O10 0.256414 0.542799 0.391041
O O11 0.360283 0.621203 0.250000
O O12 0.279883 0.179561 0.250000
#
# Coordination Sequence:
#
# PCOD9474262 Si02
#       7
#     8   8  16   8   8   8   8
#     4  11  22  40  65  87 117 159 205 251 311 363
#     4   9  20  36  59  87 123 168 200 239 307 364
#     4  10  22  40  61  88 123 160 203 254 298 356
#     4  11  21  38  61  88 129 160 197 252 300 361
#     4  11  22  42  63  86 121 166 201 245 306 365
#     4  10  21  38  57  86 120 152 202 250 301 344
#     4  12  22  38  61  92 118 157 205 249 301 355
#
# _framework density 23.175052000000001
#
# number of rings (size 3 to 8) (size 9 to 14) (size 15 to 20)
#    0.000    1.500    2.500    4.875    0.000    1.000 
#    0.000    4.375    0.000    0.000    0.000    0.000 
#    0.000    0.000    0.000    0.000    0.000    0.000 
#
# Total GULP energy -178861.254335 kJ/mol
# GULP energy per Si atom -5589.414198 kJ/mol
# Density = 2.312231 g / cm^3
# Si number density = 23.175052 Si / 1000 Ang^3
#
#
#
# Elastic Constant Matrix: (Units=GPa)
#
#
# Indices 1 2 3 4 5 6 
#
# 1 75.6026 0.2814 49.8342 0.0000 0.0000 0.0000
# 2 0.2814 74.1310 7.2743 0.0000 0.0000 0.0000
# 3 49.8342 7.2743 147.7019 0.0000 0.0000 0.0000
# 4 0.0000 0.0000 0.0000 27.5513 0.0000 0.0000
# 5 0.0000 0.0000 0.0000 0.0000 21.1680 0.0000
# 6 0.0000 0.0000 0.0000 0.0000 0.0000 12.1334
#
#
#
# Elastic Compliance Matrix: (Units=1/GPa)
#
#
# Indices 1 2 3 4 5 6 
#
# 1 0.017029 0.000502 -0.005770 0.000000 0.000000 0.000000
# 2 0.000502 0.013570 -0.000838 0.000000 0.000000 0.000000
# 3 -0.005770 -0.000838 0.008758 0.000000 0.000000 0.000000
# 4 0.000000 0.000000 0.000000 0.036296 0.000000 0.000000
# 5 0.000000 0.000000 0.000000 0.000000 0.047241 0.000000
# 6 0.000000 0.000000 0.000000 0.000000 0.000000 0.082417
#
#
# Mechanical properties :
#
#
# Convention : Reuss Voigt Hill
#
# Bulk Modulus (GPa) = 36.83945 45.80171 41.32058
# Shear Modulus (GPa) = 22.06805 28.17357 25.12081
#
# Velocity S-wave (km/s) = 3.08918 3.49045 3.29593
# Velocity P-wave (km/s) = 5.35301 6.00421 5.68794
#
# Compressibility (1/GPa) = 0.02714481
#
# Stress axis : x y z
#
# Youngs Moduli (GPa) = 58.72462 73.69246 114.17530
#
# Poissons Ratio (x) = -0.03696 0.65880
# Poissons Ratio (y) = -0.02945 0.09563
# Poissons Ratio (z) = 0.33885 0.06172
#
# Static dielectric constant tensor:
#      x y z
#    x 1.886440 0.000000 0.000000 
#    y 0.000000 1.895520 0.000000 
#    z 0.000000 0.000000 1.856420 
# 
# From -- ./inp_files/5817.got.cif
#   From: 2010.05.17/outbox.cif.g08.bks.cpg/sg63_3_cif.got.tgz:5817.got - 2010.06.03 15:47:04.
