data_PCOD9474240
_publ_section_title
;
Structure prediction by ZEFSAII (Michael W. Deem and Ramdas Pophale) SiO2 
 PCOD9474240
Probable space group: C M C M
;
_chemical_formula_sum "Si O2"
_cell_formula_units_Z 96
_cell_length_a 15.494619
_cell_length_b 15.716505
_cell_length_c 20.009309
_cell_angle_alpha 90.000000
_cell_angle_beta 90.000000
_cell_angle_gamma 90.000000
_cell_volume 4872.692079
_symmetry_space_group_name_H-M "C M C M"
_symmetry_group_IT_number 63
_symmetry_cell_setting 'orthorhombic'
loop_
_space_group_symop_operation_xyz
x,y,z
-x,-y,1/2+z
x,-y,-z
-x,y,1/2-z
-x,-y,-z
x,y,1/2-z
-x,y,z
x,-y,1/2+z
1/2+x,1/2+y,z
1/2-x,1/2-y,1/2+z
1/2+x,1/2-y,-z
1/2-x,1/2+y,1/2-z
1/2-x,1/2-y,-z
1/2+x,1/2+y,1/2-z
1/2-x,1/2+y,z
1/2+x,1/2-y,1/2+z
loop_
_atom_site_type_symbol
_atom_site_label
_atom_site_fract_x
_atom_site_fract_y
_atom_site_fract_z
Si Si1 0.190020 0.229329 0.435164
Si Si2 0.180613 0.527587 0.177107
Si Si3 0.000000 0.953691 0.071455
Si Si4 0.500000 0.191640 0.952364
Si Si5 0.500000 0.934410 0.326108
Si Si6 0.177198 0.026368 0.076401
Si Si7 0.500000 0.258163 0.092252
Si Si8 0.324922 0.767006 0.826487
O O1 0.250000 0.250000 0.500000
O O2 0.093410 0.264450 0.441590
O O3 0.177731 0.128410 0.424933
O O4 0.244384 0.262806 0.371543
O O5 0.215324 0.502924 0.250000
O O6 0.242627 0.495395 0.119458
O O7 0.178432 0.629948 0.174426
O O8 0.085046 0.491861 0.171053
O O9 0.000000 0.852768 0.060368
O O10 0.088400 0.986371 0.104067
O O11 0.000000 0.000000 0.000000
O O12 0.500000 0.121714 0.893336
O O13 0.500000 0.185929 0.034206
O O14 0.500000 0.893672 0.250000
O O15 0.187364 0.000000 0.000000
O O16 0.414436 0.253999 0.136937
O O17 0.322042 0.736898 0.750000
#
# Coordination Sequence:
#
# PCOD9474240 Si02
#       8
#    16  16   8   8   8  16   8  16
#     4  11  23  40  63  90 126 161 203 256 310 365
#     4   9  20  40  60  84 119 162 201 248 311 366
#     4  10  22  38  60  86 121 159 198 244 316 361
#     4  12  24  37  62  88 128 159 202 255 313 375
#     4  10  23  39  59  87 128 167 201 250 315 374
#     4  10  21  37  64  86 115 157 204 246 299 365
#     4  12  22  38  64  93 126 161 209 267 312 360
#     4  10  22  40  65  92 124 165 210 259 313 366
#
# _framework density 19.701636000000001
#
# number of rings (size 3 to 8) (size 9 to 14) (size 15 to 20)
#    0.000    1.667    1.667    3.250    2.333    2.000 
#    0.000    5.000    0.000    4.000    0.000    1.167 
#    0.000    0.000    0.000    0.000    0.000    0.000 
#
# Total GULP energy -267709.014511 kJ/mol
# GULP energy per Si atom -5577.271136 kJ/mol
# Density = 1.965679 g / cm^3
# Si number density = 19.701636 Si / 1000 Ang^3
#
#
#
# Elastic Constant Matrix: (Units=GPa)
#
#
# Indices 1 2 3 4 5 6 
#
# 1 164.5231 8.3448 73.4077 0.0000 0.0000 0.0000
# 2 8.3448 24.4127 14.7943 0.0000 0.0000 0.0000
# 3 73.4077 14.7943 132.6463 0.0000 0.0000 0.0000
# 4 0.0000 0.0000 0.0000 23.5985 0.0000 0.0000
# 5 0.0000 0.0000 0.0000 0.0000 55.4166 0.0000
# 6 0.0000 0.0000 0.0000 0.0000 0.0000 22.6107
#
#
#
# Elastic Compliance Matrix: (Units=1/GPa)
#
#
# Indices 1 2 3 4 5 6 
#
# 1 0.008071 -0.000056 -0.004460 0.000000 0.000000 0.000000
# 2 -0.000056 0.043932 -0.004869 0.000000 0.000000 0.000000
# 3 -0.004460 -0.004869 0.010550 0.000000 0.000000 0.000000
# 4 0.000000 0.000000 0.000000 0.042376 0.000000 0.000000
# 5 0.000000 0.000000 0.000000 0.000000 0.018045 0.000000
# 6 0.000000 0.000000 0.000000 0.000000 0.000000 0.044227
#
#
# Mechanical properties :
#
#
# Convention : Reuss Voigt Hill
#
# Bulk Modulus (GPa) = 22.83984 57.18617 40.01301
# Shear Modulus (GPa) = 24.92945 35.32751 30.12848
#
# Velocity S-wave (km/s) = 3.56103 4.23913 3.91479
# Velocity P-wave (km/s) = 5.34097 7.28350 6.38652
#
# Compressibility (1/GPa) = 0.04378314
#
# Stress axis : x y z
#
# Youngs Moduli (GPa) = 123.89755 22.76244 94.78369
#
# Poissons Ratio (x) = 0.00127 0.42278
# Poissons Ratio (y) = 0.00692 0.46150
# Poissons Ratio (z) = 0.55264 0.11083
#
# Static dielectric constant tensor:
#      x y z
#    x 1.680440 0.000000 0.000000 
#    y 0.000000 1.712950 0.000000 
#    z 0.000000 0.000000 1.712750 
# 
# From -- ./inp_files/54284.got.cif
#   From: 2010.05.17/outbox.cif.g08.bks.cpg/sg63_28_cif.got.tgz:54284.got - 2010.06.03 15:47:04.
