data_PCOD9474052
_publ_section_title
;
Structure prediction by ZEFSAII (Michael W. Deem and Ramdas Pophale) SiO2 
 PCOD9474052
Probable space group: C M C M
;
_chemical_formula_sum "Si O2"
_cell_formula_units_Z 96
_cell_length_a 20.493580
_cell_length_b 30.399020
_cell_length_c 7.816468
_cell_angle_alpha 90.000000
_cell_angle_beta 90.000000
_cell_angle_gamma 90.000000
_cell_volume 4869.540350
_symmetry_space_group_name_H-M "C M C M"
_symmetry_group_IT_number 63
_symmetry_cell_setting 'orthorhombic'
loop_
_space_group_symop_operation_xyz
x,y,z
-x,-y,1/2+z
x,-y,-z
-x,y,1/2-z
-x,-y,-z
x,y,1/2-z
-x,y,z
x,-y,1/2+z
1/2+x,1/2+y,z
1/2-x,1/2-y,1/2+z
1/2+x,1/2-y,-z
1/2-x,1/2+y,1/2-z
1/2-x,1/2-y,-z
1/2+x,1/2+y,1/2-z
1/2-x,1/2+y,z
1/2+x,1/2-y,1/2+z
loop_
_atom_site_type_symbol
_atom_site_label
_atom_site_fract_x
_atom_site_fract_y
_atom_site_fract_z
Si Si1 0.161663 0.213940 0.458910
Si Si2 0.575478 0.630283 0.040342
Si Si3 0.299106 0.903290 0.447663
Si Si4 0.190097 0.692621 0.950221
Si Si5 0.070727 0.551193 0.045644
Si Si6 0.333860 0.551107 0.051452
O O1 0.165522 0.213646 0.250000
O O2 0.111534 0.175753 0.510538
O O3 0.150819 0.264653 0.515072
O O4 0.233108 0.202814 0.530449
O O5 0.576461 0.630188 0.250000
O O6 0.500000 0.628866 0.987291
O O7 0.616447 0.587781 0.976500
O O8 0.279663 0.896846 0.250000
O O9 0.314520 0.855740 0.529124
O O10 0.366379 0.928988 0.458051
O O11 0.239190 0.930001 0.527369
O O12 0.172544 0.688919 0.750000
O O13 0.077107 0.556076 0.250000
O O14 0.000000 0.570065 0.993335
O O15 0.069538 0.500000 0.000000
O O16 0.348987 0.550907 0.250000
O O17 0.338329 0.500000 0.000000
#
# Coordination Sequence:
#
# PCOD9474052 Si02
#       6
#    16  16  16  16  16  16
#     4   9  16  31  53  77 102 134 173 212 258 311
#     4   9  18  33  54  78 105 139 181 225 269 321
#     4  11  21  34  53  80 112 142 175 218 265 315
#     4   9  18  30  50  79 108 133 167 213 260 306
#     4  10  21  37  56  77 103 138 178 217 262 317
#     4  11  22  36  54  77 105 139 182 229 278 322
#
# _framework density 19.714386999999999
#
# number of rings (size 3 to 8) (size 9 to 14) (size 15 to 20)
#    0.000    2.167    1.667    2.000    0.000    2.000 
#    0.000    0.833    0.000    7.000    0.000    0.000 
#    0.000    0.000    0.000    0.000    0.000    0.000 
#
# Total GULP energy -267463.112270 kJ/mol
# GULP energy per Si atom -5572.148172 kJ/mol
# Density = 1.966952 g / cm^3
# Si number density = 19.714387 Si / 1000 Ang^3
#
#
#
# Elastic Constant Matrix: (Units=GPa)
#
#
# Indices 1 2 3 4 5 6 
#
# 1 112.7993 81.8077 -9.5823 0.0000 0.0000 0.0000
# 2 81.8077 181.0300 4.9029 0.0000 0.0000 0.0000
# 3 -9.5823 4.9029 25.1272 0.0000 0.0000 0.0000
# 4 0.0000 0.0000 0.0000 -8.6989 0.0000 0.0000
# 5 0.0000 0.0000 0.0000 0.0000 -4.3971 0.0000
# 6 0.0000 0.0000 0.0000 0.0000 0.0000 27.8946
#
#
#
# Elastic Compliance Matrix: (Units=1/GPa)
#
#
# Indices 1 2 3 4 5 6 
#
# 1 0.014233 -0.006614 0.006718 0.000000 0.000000 0.000000
# 2 -0.006614 0.008627 -0.004205 0.000000 0.000000 0.000000
# 3 0.006718 -0.004205 0.043180 0.000000 0.000000 0.000000
# 4 0.000000 0.000000 0.000000 -0.114957 0.000000 0.000000
# 5 0.000000 0.000000 0.000000 0.000000 -0.227425 0.000000
# 6 0.000000 0.000000 0.000000 0.000000 0.000000 0.035849
#
#
# Mechanical properties :
#
#
# Convention : Reuss Voigt Hill
#
# Bulk Modulus (GPa) = 17.28988 52.57922 34.93455
# Shear Modulus (GPa) = -23.47280 19.08160 -2.19560
#
# Velocity S-wave (km/s) = -3.45431 3.11449 -1.05647
# Velocity P-wave (km/s) = 2.66842 6.29776 4.03369
#
# Compressibility (1/GPa) = 0.05783729
#
# Stress axis : x y z
#
# Youngs Moduli (GPa) = 70.26141 115.92100 23.15884
#
# Poissons Ratio (x) = 0.76666 -0.15558
# Poissons Ratio (y) = 0.46469 0.09739
# Poissons Ratio (z) = -0.47202 0.48749
#
# Static dielectric constant tensor:
#      x y z
#    x 1.650000 0.000000 0.000000 
#    y 0.000000 1.743880 0.000000 
#    z 0.000000 0.000000 1.712900 
# 
# From -- ./inp_files/8583.got.cif
#   From: 2010.05.17/outbox.cif.g08.bks.cpg/sg63_5_cif.got.tgz:8583.got - 2010.06.03 15:47:04.
