data_PCOD9474286
_publ_section_title
;
Structure prediction by ZEFSAII (Michael W. Deem and Ramdas Pophale) SiO2 
 PCOD9474286
Probable space group: C M C M
;
_chemical_formula_sum "Si O2"
_cell_formula_units_Z 96
_cell_length_a 18.025059
_cell_length_b 16.710671
_cell_length_c 17.880536
_cell_angle_alpha 90.000000
_cell_angle_beta 90.000000
_cell_angle_gamma 90.000000
_cell_volume 5385.811102
_symmetry_space_group_name_H-M "C M C M"
_symmetry_group_IT_number 63
_symmetry_cell_setting 'orthorhombic'
loop_
_space_group_symop_operation_xyz
x,y,z
-x,-y,1/2+z
x,-y,-z
-x,y,1/2-z
-x,-y,-z
x,y,1/2-z
-x,y,z
x,-y,1/2+z
1/2+x,1/2+y,z
1/2-x,1/2-y,1/2+z
1/2+x,1/2-y,-z
1/2-x,1/2+y,1/2-z
1/2-x,1/2-y,-z
1/2+x,1/2+y,1/2-z
1/2-x,1/2+y,z
1/2+x,1/2-y,1/2+z
loop_
_atom_site_type_symbol
_atom_site_label
_atom_site_fract_x
_atom_site_fract_y
_atom_site_fract_z
Si Si1 0.138747 0.803683 0.573910
Si Si2 0.775340 0.323281 0.334495
Si Si3 0.604487 0.280827 0.164742
Si Si4 0.734637 0.091352 0.989699
Si Si5 0.082845 0.664094 0.036111
Si Si6 0.500000 0.590786 0.594606
Si Si7 0.000000 0.091076 0.414119
O O1 0.172794 0.749387 0.639167
O O2 0.204484 0.850124 0.528838
O O3 0.100394 0.740269 0.517514
O O4 0.075763 0.862797 0.604216
O O5 0.792347 0.351346 0.250000
O O6 0.692320 0.289624 0.335558
O O7 0.775693 0.387057 0.402147
O O8 0.580008 0.277733 0.250000
O O9 0.583205 0.202934 0.118079
O O10 0.569196 0.358539 0.125110
O O11 0.653302 0.106573 0.025615
O O12 0.758555 0.000000 0.000000
O O13 0.000000 0.632676 0.019405
O O14 0.500000 0.589755 0.504957
O O15 0.500000 0.498464 0.617530
#
# Coordination Sequence:
#
# PCOD9474286 Si02
#       7
#    16  16  16  16  16   8   8
#     4  11  19  38  59  84 111 150 193 235 273 349
#     4  10  21  38  59  82 112 151 197 239 282 336
#     4  11  19  33  54  82 114 149 186 233 286 336
#     4  11  23  37  61  86 116 153 191 240 287 343
#     4  11  19  36  59  84 108 144 196 237 275 335
#     4  11  21  32  50  92 121 151 171 237 289 359
#     4  11  22  32  58  84 122 146 192 228 289 341
#
# _framework density 17.824612999999999
#
# number of rings (size 3 to 8) (size 9 to 14) (size 15 to 20)
#    0.000    1.167    6.667    1.250    4.667    0.333 
#    0.000    3.750    0.000    0.000    0.000    0.000 
#    0.000    0.000    0.000    0.000    0.000    0.000 
#
# Total GULP energy -267742.323128 kJ/mol
# GULP energy per Si atom -5577.965065 kJ/mol
# Density = 1.778404 g / cm^3
# Si number density = 17.824613 Si / 1000 Ang^3
#
#
#
# Elastic Constant Matrix: (Units=GPa)
#
#
# Indices 1 2 3 4 5 6 
#
# 1 97.9928 4.1196 21.4029 0.0000 0.0000 0.0000
# 2 4.1196 38.3867 19.0661 0.0000 0.0000 0.0000
# 3 21.4029 19.0661 97.3788 0.0000 0.0000 0.0000
# 4 0.0000 0.0000 0.0000 13.6392 0.0000 0.0000
# 5 0.0000 0.0000 0.0000 0.0000 -100.6236 0.0000
# 6 0.0000 0.0000 0.0000 0.0000 0.0000 13.7649
#
#
#
# Elastic Compliance Matrix: (Units=1/GPa)
#
#
# Indices 1 2 3 4 5 6 
#
# 1 0.010719 0.000022 -0.002360 0.000000 0.000000 0.000000
# 2 0.000022 0.028857 -0.005655 0.000000 0.000000 0.000000
# 3 -0.002360 -0.005655 0.011895 0.000000 0.000000 0.000000
# 4 0.000000 0.000000 0.000000 0.073318 0.000000 0.000000
# 5 0.000000 0.000000 0.000000 0.000000 -0.009938 0.000000
# 6 0.000000 0.000000 0.000000 0.000000 0.000000 0.072648
#
#
# Mechanical properties :
#
#
# Convention : Reuss Voigt Hill
#
# Bulk Modulus (GPa) = 28.18079 35.88171 32.03125
# Shear Modulus (GPa) = 23.22183 -2.03258 10.59462
#
# Velocity S-wave (km/s) = 3.61334 -1.06902 2.44064
# Velocity P-wave (km/s) = 5.76651 4.31861 5.09427
#
# Compressibility (1/GPa) = 0.03548517
#
# Stress axis : x y z
#
# Youngs Moduli (GPa) = 93.28850 34.65365 84.06809
#
# Poissons Ratio (x) = -0.00076 0.19843
# Poissons Ratio (y) = -0.00205 0.47539
# Poissons Ratio (z) = 0.22019 0.19596
#
# Static dielectric constant tensor:
#      x y z
#    x 1.730270 0.000000 0.000000 
#    y 0.000000 1.591670 0.000000 
#    z 0.000000 0.000000 1.625110 
# 
# From -- ./inp_files/45811.got.cif
#   From: 2010.05.17/outbox.cif.g08.bks.cpg/sg63_23_cif.got.tgz:45811.got - 2010.06.03 15:47:04.
