data_PCOD9474902
_publ_section_title
;
Structure prediction by ZEFSAII (Michael W. Deem and Ramdas Pophale) SiO2 
 PCOD9474902
Probable space group: C M C M
;
_chemical_formula_sum "Si O2"
_cell_formula_units_Z 64
_cell_length_a 13.529592
_cell_length_b 9.908872
_cell_length_c 20.063607
_cell_angle_alpha 90.000000
_cell_angle_beta 90.000000
_cell_angle_gamma 90.000000
_cell_volume 2689.787252
_symmetry_space_group_name_H-M "C M C M"
_symmetry_group_IT_number 63
_symmetry_cell_setting 'orthorhombic'
loop_
_space_group_symop_operation_xyz
x,y,z
-x,-y,1/2+z
x,-y,-z
-x,y,1/2-z
-x,-y,-z
x,y,1/2-z
-x,y,z
x,-y,1/2+z
1/2+x,1/2+y,z
1/2-x,1/2-y,1/2+z
1/2+x,1/2-y,-z
1/2-x,1/2+y,1/2-z
1/2-x,1/2-y,-z
1/2+x,1/2+y,1/2-z
1/2-x,1/2+y,z
1/2+x,1/2-y,1/2+z
loop_
_atom_site_type_symbol
_atom_site_label
_atom_site_fract_x
_atom_site_fract_y
_atom_site_fract_z
Si Si1 0.606491 0.869140 0.919440
Si Si2 0.675552 0.635568 0.674786
Si Si3 0.605540 0.829958 0.361224
Si Si4 0.674030 0.588886 0.060767
O O1 0.500000 0.849904 0.953810
O O2 0.617955 0.755367 0.862537
O O3 0.603689 0.017532 0.887545
O O4 0.712303 0.869622 0.955960
O O5 0.641465 0.610163 0.750000
O O6 0.790677 0.681486 0.676720
O O7 0.671269 0.505554 0.626646
O O8 0.500000 0.804420 0.327309
O O9 0.616200 0.722900 0.420857
O O10 0.635183 0.500000 0.000000
#
# Coordination Sequence:
#
# PCOD9474902 Si02
#       4
#    16  16  16  16
#     4   9  20  38  60  85 115 153 198 246 297 356
#     4  10  22  40  60  84 118 158 202 254 310 366
#     4   9  20  38  60  86 117 154 196 242 296 357
#     4  10  22  40  62  90 125 162 201 248 304 366
#
# _framework density 23.793704000000002
#
# number of rings (size 3 to 8) (size 9 to 14) (size 15 to 20)
#    0.000    2.500    0.000    0.000    0.000   21.000 
#    0.000   10.000    0.000    0.000    0.000    0.000 
#    0.000    0.000    0.000    0.000    0.000    0.000 
#
# Total GULP energy -178767.683356 kJ/mol
# GULP energy per Si atom -5586.490105 kJ/mol
# Density = 2.373955 g / cm^3
# Si number density = 23.793704 Si / 1000 Ang^3
#
#
#
# Elastic Constant Matrix: (Units=GPa)
#
#
# Indices 1 2 3 4 5 6 
#
# 1 111.6499 52.9502 0.5442 0.0000 0.0000 0.0000
# 2 52.9502 143.6588 68.6339 0.0000 0.0000 0.0000
# 3 0.5442 68.6339 108.8878 0.0000 0.0000 0.0000
# 4 0.0000 0.0000 0.0000 10.7278 0.0000 0.0000
# 5 0.0000 0.0000 0.0000 0.0000 2.8757 0.0000
# 6 0.0000 0.0000 0.0000 0.0000 0.0000 126.6398
#
#
#
# Elastic Compliance Matrix: (Units=1/GPa)
#
#
# Indices 1 2 3 4 5 6 
#
# 1 0.011893 -0.006232 0.003869 0.000000 0.000000 0.000000
# 2 -0.006232 0.013226 -0.008305 0.000000 0.000000 0.000000
# 3 0.003869 -0.008305 0.014399 0.000000 0.000000 0.000000
# 4 0.000000 0.000000 0.000000 0.093216 0.000000 0.000000
# 5 0.000000 0.000000 0.000000 0.000000 0.347741 0.000000
# 6 0.000000 0.000000 0.000000 0.000000 0.000000 0.007896
#
#
# Mechanical properties :
#
#
# Convention : Reuss Voigt Hill
#
# Bulk Modulus (GPa) = 55.00160 67.60588 61.30374
# Shear Modulus (GPa) = 9.69426 44.18654 26.94040
#
# Velocity S-wave (km/s) = 2.02068 4.31405 3.36854
# Velocity P-wave (km/s) = 5.34887 7.29998 6.39922
#
# Compressibility (1/GPa) = 0.01818129
#
# Stress axis : x y z
#
# Youngs Moduli (GPa) = 84.08159 75.60959 69.44719
#
# Poissons Ratio (x) = 0.47119 -0.26867
# Poissons Ratio (y) = 0.52399 0.57678
# Poissons Ratio (z) = -0.32528 0.62796
#
# Static dielectric constant tensor:
#      x y z
#    x 1.996670 0.000000 0.000000 
#    y 0.000000 1.854960 0.000000 
#    z 0.000000 0.000000 2.742130 
# 
# From -- ./inp_files/62351.got.cif
#   From: 2010.05.17/outbox.cif.g08.bks.cpg/sg63_32_cif.got.tgz:62351.got - 2010.06.03 15:47:04.
