data_PCOD9474554
_publ_section_title
;
Structure prediction by ZEFSAII (Michael W. Deem and Ramdas Pophale) SiO2 
 PCOD9474554
Probable space group: C M C M
;
_chemical_formula_sum "Si O2"
_cell_formula_units_Z 72
_cell_length_a 7.882944
_cell_length_b 14.499596
_cell_length_c 30.183089
_cell_angle_alpha 90.000000
_cell_angle_beta 90.000000
_cell_angle_gamma 90.000000
_cell_volume 3449.912080
_symmetry_space_group_name_H-M "C M C M"
_symmetry_group_IT_number 63
_symmetry_cell_setting 'orthorhombic'
loop_
_space_group_symop_operation_xyz
x,y,z
-x,-y,1/2+z
x,-y,-z
-x,y,1/2-z
-x,-y,-z
x,y,1/2-z
-x,y,z
x,-y,1/2+z
1/2+x,1/2+y,z
1/2-x,1/2-y,1/2+z
1/2+x,1/2-y,-z
1/2-x,1/2+y,1/2-z
1/2-x,1/2-y,-z
1/2+x,1/2+y,1/2-z
1/2-x,1/2+y,z
1/2+x,1/2-y,1/2+z
loop_
_atom_site_type_symbol
_atom_site_label
_atom_site_fract_x
_atom_site_fract_y
_atom_site_fract_z
Si Si1 0.314232 0.100509 0.977306
Si Si2 0.000000 0.084778 0.201003
Si Si3 0.799620 0.170472 0.888002
Si Si4 0.000000 0.186895 0.110947
Si Si5 0.199122 0.436823 0.300376
Si Si6 0.000000 0.899066 0.523584
O O1 0.500000 0.143093 0.978451
O O2 0.249790 0.097827 0.926702
O O3 0.168107 0.148882 0.005313
O O4 0.329817 0.000000 0.000000
O O5 0.000000 0.155285 0.161301
O O6 0.000000 0.127282 0.250000
O O7 0.831981 0.021152 0.197129
O O8 0.670730 0.254352 0.896552
O O9 0.753766 0.131104 0.839641
O O10 0.000000 0.191341 0.890764
O O11 0.000000 0.102929 0.076209
O O12 0.215844 0.398970 0.250000
O O13 0.000000 0.462058 0.306373
O O14 0.000000 0.000000 0.500000
#
# Coordination Sequence:
#
# PCOD9474554 Si02
#       6
#    16   8  16   8  16   8
#     4  10  21  39  65  93 122 171 220 268 324 391
#     4  10  24  44  70 101 134 176 221 267 321 400
#     4  12  24  42  67  98 138 172 219 275 335 397
#     4  12  28  44  63 102 139 174 217 278 340 383
#     4  10  21  40  71 102 130 171 220 268 323 398
#     4  10  24  42  66  91 123 178 217 267 324 391
#
# _framework density 20.870096
#
# number of rings (size 3 to 8) (size 9 to 14) (size 15 to 20)
#    0.000    1.333    4.444    0.000    6.222    3.556 
#    0.000    0.000    0.000    0.000    0.000    0.000 
#    0.000    0.000    0.000    0.000    0.000    0.000 
#
# Total GULP energy -200854.262759 kJ/mol
# GULP energy per Si atom -5579.285077 kJ/mol
# Density = 2.082259 g / cm^3
# Si number density = 20.870096 Si / 1000 Ang^3
#
#
#
# Elastic Constant Matrix: (Units=GPa)
#
#
# Indices 1 2 3 4 5 6 
#
# 1 222.3524 32.9547 49.8772 0.0000 0.0000 0.0000
# 2 32.9547 62.5425 53.1656 0.0000 0.0000 0.0000
# 3 49.8772 53.1656 155.9433 0.0000 0.0000 0.0000
# 4 0.0000 0.0000 0.0000 14.4627 0.0000 0.0000
# 5 0.0000 0.0000 0.0000 0.0000 -9.0123 0.0000
# 6 0.0000 0.0000 0.0000 0.0000 0.0000 12.9682
#
#
#
# Elastic Compliance Matrix: (Units=1/GPa)
#
#
# Indices 1 2 3 4 5 6 
#
# 1 0.004983 -0.001789 -0.000984 0.000000 0.000000 0.000000
# 2 -0.001789 0.023157 -0.007322 0.000000 0.000000 0.000000
# 3 -0.000984 -0.007322 0.009224 0.000000 0.000000 0.000000
# 4 0.000000 0.000000 0.000000 0.069144 0.000000 0.000000
# 5 0.000000 0.000000 0.000000 0.000000 -0.110960 0.000000
# 6 0.000000 0.000000 0.000000 0.000000 0.000000 0.077112
#
#
# Mechanical properties :
#
#
# Convention : Reuss Voigt Hill
#
# Bulk Modulus (GPa) = 58.23368 79.20368 68.71868
# Shear Modulus (GPa) = 50.72310 24.00643 37.36476
#
# Velocity S-wave (km/s) = 4.93528 3.39526 4.23584
# Velocity P-wave (km/s) = 7.77428 7.30777 7.54463
#
# Compressibility (1/GPa) = 0.01717219
#
# Stress axis : x y z
#
# Youngs Moduli (GPa) = 200.67181 43.18425 108.41692
#
# Poissons Ratio (x) = 0.07728 0.10666
# Poissons Ratio (y) = 0.35910 0.79387
# Poissons Ratio (z) = 0.19741 0.31621
#
# Static dielectric constant tensor:
#      x y z
#    x 1.814380 0.000000 0.000000 
#    y 0.000000 1.674430 0.000000 
#    z 0.000000 0.000000 1.748390 
# 
# From -- ./inp_files/66398.got.cif
#   From: 2010.05.17/outbox.cif.g08.bks.cpg/sg63_34_cif.got.tgz:66398.got - 2010.06.03 15:47:04.
