data_PCOD9474637
_publ_section_title
;
Structure prediction by ZEFSAII (Michael W. Deem and Ramdas Pophale) SiO2 
 PCOD9474637
Probable space group: C M C M
;
_chemical_formula_sum "Si O2"
_cell_formula_units_Z 112
_cell_length_a 29.613500
_cell_length_b 5.704355
_cell_length_c 27.774393
_cell_angle_alpha 90.000000
_cell_angle_beta 90.000000
_cell_angle_gamma 90.000000
_cell_volume 4691.814801
_symmetry_space_group_name_H-M "C M C M"
_symmetry_group_IT_number 63
_symmetry_cell_setting 'orthorhombic'
loop_
_space_group_symop_operation_xyz
x,y,z
-x,-y,1/2+z
x,-y,-z
-x,y,1/2-z
-x,-y,-z
x,y,1/2-z
-x,y,z
x,-y,1/2+z
1/2+x,1/2+y,z
1/2-x,1/2-y,1/2+z
1/2+x,1/2-y,-z
1/2-x,1/2+y,1/2-z
1/2-x,1/2-y,-z
1/2+x,1/2+y,1/2-z
1/2-x,1/2+y,z
1/2+x,1/2-y,1/2+z
loop_
_atom_site_type_symbol
_atom_site_label
_atom_site_fract_x
_atom_site_fract_y
_atom_site_fract_z
Si Si1 0.911618 0.848472 0.122090
Si Si2 0.866526 0.164513 0.453489
Si Si3 0.950510 0.461474 0.067471
Si Si4 0.735022 0.357462 0.561197
Si Si5 0.451256 0.733529 0.173927
Si Si6 0.365359 0.986715 0.696243
Si Si7 0.764784 0.464959 0.827974
O O1 0.879063 0.027010 0.095188
O O2 0.940219 0.730571 0.079321
O O3 0.880816 0.678474 0.152912
O O4 0.945049 0.963001 0.160633
O O5 0.815483 0.245626 0.444983
O O6 0.867399 0.000000 0.500000
O O7 0.907066 0.350363 0.457628
O O8 0.951925 0.353429 0.121258
O O9 0.000000 0.415267 0.046717
O O10 0.764329 0.131829 0.542732
O O11 0.750259 0.411992 0.616555
O O12 0.500000 0.781776 0.196494
O O13 0.405234 0.820486 0.197649
O O14 0.363526 0.881672 0.750000
O O15 0.315363 0.060398 0.681028
O O16 0.763091 0.193205 0.808647
#
# Coordination Sequence:
#
# PCOD9474637 Si02
#       7
#    16  16  16  16  16  16  16
#     4  10  21  40  69  92 137 183 229 289 347 423
#     4  11  25  41  65 102 140 182 236 296 358 426
#     4   9  20  39  66  97 133 178 229 280 342 415
#     4  10  23  41  68  96 133 182 236 293 360 427
#     4   9  20  39  65  95 130 174 223 278 343 413
#     4  11  25  41  65 100 135 174 227 286 355 434
#     4  10  23  41  68  96 132 180 230 288 354 422
#
# _framework density 23.871359999999999
#
# number of rings (size 3 to 8) (size 9 to 14) (size 15 to 20)
#    0.000    2.000    0.000    2.143   16.000    4.000 
#    0.000    0.714    0.000    0.000    0.000    0.000 
#    0.000    0.000    0.000    0.000    0.000    0.000 
#
# Total GULP energy -312041.018684 kJ/mol
# GULP energy per Si atom -5572.161048 kJ/mol
# Density = 2.381703 g / cm^3
# Si number density = 23.871360 Si / 1000 Ang^3
#
#
#
# Elastic Constant Matrix: (Units=GPa)
#
#
# Indices 1 2 3 4 5 6 
#
# 1 192.9704 26.5473 30.2166 0.0000 0.0000 0.0000
# 2 26.5473 84.4011 8.7451 0.0000 0.0000 0.0000
# 3 30.2166 8.7451 96.3980 0.0000 0.0000 0.0000
# 4 0.0000 0.0000 0.0000 -8.9129 0.0000 0.0000
# 5 0.0000 0.0000 0.0000 0.0000 17.6380 0.0000
# 6 0.0000 0.0000 0.0000 0.0000 0.0000 74.6153
#
#
#
# Elastic Compliance Matrix: (Units=1/GPa)
#
#
# Indices 1 2 3 4 5 6 
#
# 1 0.005659 -0.001611 -0.001628 0.000000 0.000000 0.000000
# 2 -0.001611 0.012419 -0.000622 0.000000 0.000000 0.000000
# 3 -0.001628 -0.000622 0.010940 0.000000 0.000000 0.000000
# 4 0.000000 0.000000 0.000000 -0.112197 0.000000 0.000000
# 5 0.000000 0.000000 0.000000 0.000000 0.056696 0.000000
# 6 0.000000 0.000000 0.000000 0.000000 0.000000 0.013402
#
#
# Mechanical properties :
#
#
# Convention : Reuss Voigt Hill
#
# Bulk Modulus (GPa) = 46.95404 56.08751 51.52077
# Shear Modulus (GPa) = 2875.67120 37.21878 1456.44499
#
# Velocity S-wave (km/s) = 34.74577 3.95288 24.72745
# Velocity P-wave (km/s) = 40.36587 6.66186 28.92909
#
# Compressibility (1/GPa) = 0.02129742
#
# Stress axis : x y z
#
# Youngs Moduli (GPa) = 176.72036 80.51929 91.40583
#
# Poissons Ratio (x) = 0.12973 0.14877
# Poissons Ratio (y) = 0.28474 0.05682
# Poissons Ratio (z) = 0.28763 0.05005
#
# Static dielectric constant tensor:
#      x y z
#    x 1.930460 0.000000 0.000000 
#    y 0.000000 2.079870 0.000000 
#    z 0.000000 0.000000 1.993770 
# 
# From -- ./inp_files/74506.got.cif
#   From: 2010.05.17/outbox.cif.g08.bks.cpg/sg63_38_cif.got.tgz:74506.got - 2010.06.03 15:47:04.
