data_PCOD9474224
_publ_section_title
;
Structure prediction by ZEFSAII (Michael W. Deem and Ramdas Pophale) SiO2 
 PCOD9474224
Probable space group: C M C M
;
_chemical_formula_sum "Si O2"
_cell_formula_units_Z 88
_cell_length_a 10.025168
_cell_length_b 23.265038
_cell_length_c 18.452315
_cell_angle_alpha 90.000000
_cell_angle_beta 90.000000
_cell_angle_gamma 90.000000
_cell_volume 4303.742563
_symmetry_space_group_name_H-M "C M C M"
_symmetry_group_IT_number 63
_symmetry_cell_setting 'orthorhombic'
loop_
_space_group_symop_operation_xyz
x,y,z
-x,-y,1/2+z
x,-y,-z
-x,y,1/2-z
-x,-y,-z
x,y,1/2-z
-x,y,z
x,-y,1/2+z
1/2+x,1/2+y,z
1/2-x,1/2-y,1/2+z
1/2+x,1/2-y,-z
1/2-x,1/2+y,1/2-z
1/2-x,1/2-y,-z
1/2+x,1/2+y,1/2-z
1/2-x,1/2+y,z
1/2+x,1/2-y,1/2+z
loop_
_atom_site_type_symbol
_atom_site_label
_atom_site_fract_x
_atom_site_fract_y
_atom_site_fract_z
Si Si1 0.500000 0.735839 0.506766
Si Si2 0.148647 0.155783 0.661846
Si Si3 0.238956 0.326581 0.958490
Si Si4 0.347957 0.045661 0.435024
Si Si5 0.652501 0.476636 0.163147
Si Si6 0.847528 0.243457 0.163102
O O1 0.621716 0.687757 0.497340
O O2 0.381773 0.785999 0.516454
O O3 0.145441 0.154925 0.750000
O O4 0.171097 0.090089 0.639425
O O5 0.266843 0.199077 0.643325
O O6 0.000000 0.177585 0.639648
O O7 0.200702 0.392653 0.962013
O O8 0.271216 0.308207 0.875017
O O9 0.500000 0.050918 0.409014
O O10 0.344516 0.000000 0.500000
O O11 0.253619 0.019604 0.373695
O O12 0.666268 0.477534 0.250000
O O13 0.500000 0.492079 0.145189
O O14 0.852399 0.238607 0.250000
O O15 0.000000 0.245831 0.133183
#
# Coordination Sequence:
#
# PCOD9474224 Si02
#       6
#     8  16  16  16  16  16
#     4  10  24  42  68  86 122 162 214 258 310 368
#     4   8  16  33  56  89 129 163 209 258 303 366
#     4  11  23  46  64  94 125 168 213 265 315 392
#     4  11  26  46  64  92 134 170 216 272 324 384
#     4   9  20  40  65  95 130 173 218 262 316 385
#     4  10  21  37  61  95 131 166 203 260 325 378
#
# _framework density 20.447320000000001
#
# number of rings (size 3 to 8) (size 9 to 14) (size 15 to 20)
#    0.000    2.182    1.818    1.091    2.545    5.091 
#    3.273    3.636    0.000    0.000    0.000    0.000 
#    0.000    0.000    0.000    0.000    0.000    0.000 
#
# Total GULP energy -244972.036214 kJ/mol
# GULP energy per Si atom -5567.546278 kJ/mol
# Density = 2.040078 g / cm^3
# Si number density = 20.447320 Si / 1000 Ang^3
#
#
#
# Elastic Constant Matrix: (Units=GPa)
#
#
# Indices 1 2 3 4 5 6 
#
# 1 181.9194 90.3137 44.7822 0.0000 0.0000 0.0000
# 2 90.3137 118.5879 31.7201 0.0000 0.0000 0.0000
# 3 44.7822 31.7201 30.9240 0.0000 0.0000 0.0000
# 4 0.0000 0.0000 0.0000 24.5920 0.0000 0.0000
# 5 0.0000 0.0000 0.0000 0.0000 57.1278 0.0000
# 6 0.0000 0.0000 0.0000 0.0000 0.0000 33.8417
#
#
#
# Elastic Compliance Matrix: (Units=1/GPa)
#
#
# Indices 1 2 3 4 5 6 
#
# 1 0.010618 -0.005476 -0.009759 0.000000 0.000000 0.000000
# 2 -0.005476 0.014445 -0.006887 0.000000 0.000000 0.000000
# 3 -0.009759 -0.006887 0.053534 0.000000 0.000000 0.000000
# 4 0.000000 0.000000 0.000000 0.040664 0.000000 0.000000
# 5 0.000000 0.000000 0.000000 0.000000 0.017505 0.000000
# 6 0.000000 0.000000 0.000000 0.000000 0.000000 0.029549
#
#
# Mechanical properties :
#
#
# Convention : Reuss Voigt Hill
#
# Bulk Modulus (GPa) = 29.10960 73.89591 51.50276
# Shear Modulus (GPa) = 22.52148 34.08665 28.30407
#
# Velocity S-wave (km/s) = 3.32239 4.08738 3.72458
# Velocity P-wave (km/s) = 5.38378 7.64812 6.61357
#
# Compressibility (1/GPa) = 0.03435292
#
# Stress axis : x y z
#
# Youngs Moduli (GPa) = 94.18146 69.22807 18.67955
#
# Poissons Ratio (x) = 0.37908 0.18230
# Poissons Ratio (y) = 0.51572 0.12865
# Poissons Ratio (z) = 0.91914 0.47678
#
# Static dielectric constant tensor:
#      x y z
#    x 1.702780 0.000000 0.000000 
#    y 0.000000 1.613000 0.000000 
#    z 0.000000 0.000000 1.765940 
# 
# From -- ./inp_files/51073.got.cif
#   From: 2010.05.17/outbox.cif.g08.bks.cpg/sg63_26_cif.got.tgz:51073.got - 2010.06.03 15:47:04.
