data_PCOD9474507
_publ_section_title
;
Structure prediction by ZEFSAII (Michael W. Deem and Ramdas Pophale) SiO2 
 PCOD9474507
Probable space group: C M C M
;
_chemical_formula_sum "Si O2"
_cell_formula_units_Z 112
_cell_length_a 15.322466
_cell_length_b 23.469338
_cell_length_c 14.277439
_cell_angle_alpha 90.000000
_cell_angle_beta 90.000000
_cell_angle_gamma 90.000000
_cell_volume 5134.283191
_symmetry_space_group_name_H-M "C M C M"
_symmetry_group_IT_number 63
_symmetry_cell_setting 'orthorhombic'
loop_
_space_group_symop_operation_xyz
x,y,z
-x,-y,1/2+z
x,-y,-z
-x,y,1/2-z
-x,-y,-z
x,y,1/2-z
-x,y,z
x,-y,1/2+z
1/2+x,1/2+y,z
1/2-x,1/2-y,1/2+z
1/2+x,1/2-y,-z
1/2-x,1/2+y,1/2-z
1/2-x,1/2-y,-z
1/2+x,1/2+y,1/2-z
1/2-x,1/2+y,z
1/2+x,1/2-y,1/2+z
loop_
_atom_site_type_symbol
_atom_site_label
_atom_site_fract_x
_atom_site_fract_y
_atom_site_fract_z
Si Si1 0.095077 0.363364 0.006497
Si Si2 0.904550 0.829724 0.459487
Si Si3 0.403983 0.538615 0.906671
Si Si4 0.813017 0.144077 0.146989
Si Si5 0.651369 0.227657 0.356657
Si Si6 0.788830 0.430877 0.144371
Si Si7 0.662290 0.944234 0.859615
O O1 0.108045 0.306783 0.943497
O O2 0.097764 0.411783 0.927053
O O3 0.000000 0.361761 0.053816
O O4 0.175245 0.382283 0.074267
O O5 0.910188 0.894580 0.428171
O O6 0.877258 0.836227 0.566660
O O7 0.842638 0.792011 0.393944
O O8 0.000000 0.803474 0.448288
O O9 0.500000 0.522351 0.864257
O O10 0.309267 0.542014 0.858637
O O11 0.396388 0.500000 0.000000
O O12 0.852095 0.135232 0.250000
O O13 0.742171 0.194421 0.151596
O O14 0.756756 0.087038 0.122451
O O15 0.612943 0.225949 0.250000
O O16 0.803888 0.411292 0.250000
O O17 0.841669 0.488792 0.123396
O O18 0.645359 0.933055 0.750000
#
# Coordination Sequence:
#
# PCOD9474507 Si02
#       7
#    16  16  16  16  16  16  16
#     4  11  22  37  59  84 115 158 203 248 299 355
#     4  11  22  35  56  86 117 146 182 236 293 347
#     4  10  21  39  63  88 116 152 193 240 296 353
#     4   9  18  35  59  84 113 153 196 234 281 349
#     4  10  22  41  63  84 111 151 200 253 303 353
#     4  11  23  38  57  84 123 163 199 245 295 351
#     4   9  19  36  59  86 116 154 198 244 296 350
#
# _framework density 21.814146000000001
#
# number of rings (size 3 to 8) (size 9 to 14) (size 15 to 20)
#    0.000    1.857    0.000    6.000    0.000    4.571 
#    0.000    5.000    0.000    6.857    0.000    0.000 
#    0.000    0.000    0.000    0.000    0.000    0.000 
#
# Total GULP energy -311802.919734 kJ/mol
# GULP energy per Si atom -5567.909281 kJ/mol
# Density = 2.176450 g / cm^3
# Si number density = 21.814146 Si / 1000 Ang^3
#
#
#
# Elastic Constant Matrix: (Units=GPa)
#
#
# Indices 1 2 3 4 5 6 
#
# 1 30.8934 13.5831 -1.6391 0.0000 0.0000 0.0000
# 2 13.5831 89.5724 51.1416 0.0000 0.0000 0.0000
# 3 -1.6391 51.1416 65.6829 0.0000 0.0000 0.0000
# 4 0.0000 0.0000 0.0000 13.2188 0.0000 0.0000
# 5 0.0000 0.0000 0.0000 0.0000 4.3371 0.0000
# 6 0.0000 0.0000 0.0000 0.0000 0.0000 15.8719
#
#
#
# Elastic Compliance Matrix: (Units=1/GPa)
#
#
# Indices 1 2 3 4 5 6 
#
# 1 0.037858 -0.011307 0.009748 0.000000 0.000000 0.000000
# 2 -0.011307 0.023476 -0.018561 0.000000 0.000000 0.000000
# 3 0.009748 -0.018561 0.029920 0.000000 0.000000 0.000000
# 4 0.000000 0.000000 0.000000 0.075650 0.000000 0.000000
# 5 0.000000 0.000000 0.000000 0.000000 0.230570 0.000000
# 6 0.000000 0.000000 0.000000 0.000000 0.000000 0.063004
#
#
# Mechanical properties :
#
#
# Convention : Reuss Voigt Hill
#
# Bulk Modulus (GPa) = 19.60211 34.70221 27.15216
# Shear Modulus (GPa) = 9.65769 14.88977 12.27373
#
# Velocity S-wave (km/s) = 2.10639 2.61545 2.37460
# Velocity P-wave (km/s) = 3.86281 5.00634 4.47128
#
# Compressibility (1/GPa) = 0.05101493
#
# Stress axis : x y z
#
# Youngs Moduli (GPa) = 26.41460 42.59628 33.42267
#
# Poissons Ratio (x) = 0.48162 -0.32581
# Poissons Ratio (y) = 0.29866 0.62036
# Poissons Ratio (z) = -0.25750 0.79063
#
# Static dielectric constant tensor:
#      x y z
#    x 2.057620 0.000000 0.000000 
#    y 0.000000 1.807990 0.000000 
#    z 0.000000 0.000000 1.806550 
# 
# From -- ./inp_files/32347.got.cif
#   From: 2010.05.17/outbox.cif.g08.bks.cpg/sg63_17_cif.got.tgz:32347.got - 2010.06.03 15:47:04.
