data_PCOD9474749
_publ_section_title
;
Structure prediction by ZEFSAII (Michael W. Deem and Ramdas Pophale) SiO2 
 PCOD9474749
Probable space group: C M C M
;
_chemical_formula_sum "Si O2"
_cell_formula_units_Z 88
_cell_length_a 17.550538
_cell_length_b 17.327417
_cell_length_c 11.382795
_cell_angle_alpha 90.000000
_cell_angle_beta 90.000000
_cell_angle_gamma 90.000000
_cell_volume 3461.570457
_symmetry_space_group_name_H-M "C M C M"
_symmetry_group_IT_number 63
_symmetry_cell_setting 'orthorhombic'
loop_
_space_group_symop_operation_xyz
x,y,z
-x,-y,1/2+z
x,-y,-z
-x,y,1/2-z
-x,-y,-z
x,y,1/2-z
-x,y,z
x,-y,1/2+z
1/2+x,1/2+y,z
1/2-x,1/2-y,1/2+z
1/2+x,1/2-y,-z
1/2-x,1/2+y,1/2-z
1/2-x,1/2-y,-z
1/2+x,1/2+y,1/2-z
1/2-x,1/2+y,z
1/2+x,1/2-y,1/2+z
loop_
_atom_site_type_symbol
_atom_site_label
_atom_site_fract_x
_atom_site_fract_y
_atom_site_fract_z
Si Si1 0.092215 0.045760 0.880267
Si Si2 0.669627 0.105752 0.623299
Si Si3 0.116164 0.780272 0.123251
Si Si4 0.876494 0.776155 0.874702
Si Si5 0.500000 0.957241 0.123121
Si Si6 0.726966 0.132905 0.121206
O O1 0.104961 0.008916 0.750000
O O2 0.134707 0.128418 0.876205
O O3 0.000000 0.061119 0.886357
O O4 0.111133 0.000000 0.000000
O O5 0.699632 0.076189 0.750000
O O6 0.673159 0.198154 0.629446
O O7 0.579035 0.088923 0.622187
O O8 0.702822 0.086434 0.494917
O O9 0.078707 0.767292 0.250000
O O10 0.181003 0.714579 0.119176
O O11 0.078706 0.771898 0.995790
O O12 0.917063 0.782092 0.750000
O O13 0.815290 0.844713 0.882432
O O14 0.500000 0.001126 0.250000
O O15 0.500000 0.000000 0.000000
O O16 0.709112 0.098317 0.250000
#
# Coordination Sequence:
#
# PCOD9474749 Si02
#       6
#    16  16  16  16   8  16
#     4   9  18  32  47  62  86 123 162 197 231 271
#     4   9  17  31  50  72  98 130 164 202 246 297
#     4   9  16  27  44  68  95 122 154 192 233 283
#     4   9  17  30  50  75 103 129 155 195 249 304
#     4  10  22  38  54  72 100 140 181 216 251 292
#     4   9  17  30  50  77 103 127 156 196 250 305
#
# _framework density 25.421986
#
# number of rings (size 3 to 8) (size 9 to 14) (size 15 to 20)
#    0.000    2.909    0.000    2.182    0.000    3.636 
#    6.545    0.000    0.000    4.364    0.000    5.091 
#    0.000    0.000    0.000    0.000    0.000    0.000 
#
# Total GULP energy -245043.342205 kJ/mol
# GULP energy per Si atom -5569.166868 kJ/mol
# Density = 2.536412 g / cm^3
# Si number density = 25.421986 Si / 1000 Ang^3
#
#
#
# Elastic Constant Matrix: (Units=GPa)
#
#
# Indices 1 2 3 4 5 6 
#
# 1 75.0543 15.0557 46.1097 0.0000 0.0000 0.0000
# 2 15.0557 97.3783 44.7290 0.0000 0.0000 0.0000
# 3 46.1097 44.7290 373.4956 0.0000 0.0000 0.0000
# 4 0.0000 0.0000 0.0000 -2.8701 0.0000 0.0000
# 5 0.0000 0.0000 0.0000 0.0000 -15.2498 0.0000
# 6 0.0000 0.0000 0.0000 0.0000 0.0000 -0.0675
#
#
#
# Elastic Compliance Matrix: (Units=1/GPa)
#
#
# Indices 1 2 3 4 5 6 
#
# 1 0.014625 -0.001515 -0.001624 0.000000 0.000000 0.000000
# 2 -0.001515 0.011024 -0.001133 0.000000 0.000000 0.000000
# 3 -0.001624 -0.001133 0.003014 0.000000 0.000000 0.000000
# 4 0.000000 0.000000 0.000000 -0.348425 0.000000 0.000000
# 5 0.000000 0.000000 0.000000 0.000000 -0.065575 0.000000
# 6 0.000000 0.000000 0.000000 0.000000 0.000000-14.817950
#
#
# Mechanical properties :
#
#
# Convention : Reuss Voigt Hill
#
# Bulk Modulus (GPa) = 49.70664 84.19075 66.94870
# Shear Modulus (GPa) = -0.32921 25.69813 12.68446
#
# Velocity S-wave (km/s) = -0.36025 3.18286 2.23616
# Velocity P-wave (km/s) = 4.40704 6.83349 5.74972
#
# Compressibility (1/GPa) = 0.02011804
#
# Stress axis : x y z
#
# Youngs Moduli (GPa) = 68.37414 90.71130 331.82746
#
# Poissons Ratio (x) = 0.13745 0.53892
# Poissons Ratio (y) = 0.10360 0.37601
# Poissons Ratio (z) = 0.11105 0.10279
#
# Static dielectric constant tensor:
#      x y z
#    x 1.975500 0.000000 0.000000 
#    y 0.000000 1.968740 0.000000 
#    z 0.000000 0.000000 2.085200 
# 
# From -- ./inp_files/22565.got.cif
#   From: 2010.05.17/outbox.cif.g08.bks.cpg/sg63_12_cif.got.tgz:22565.got - 2010.06.03 15:47:04.
