data_PCOD9474413
_publ_section_title
;
Structure prediction by ZEFSAII (Michael W. Deem and Ramdas Pophale) SiO2 
 PCOD9474413
Probable space group: C M C M
;
_chemical_formula_sum "Si O2"
_cell_formula_units_Z 60
_cell_length_a 20.352057
_cell_length_b 14.272017
_cell_length_c 10.255956
_cell_angle_alpha 90.000000
_cell_angle_beta 90.000000
_cell_angle_gamma 90.000000
_cell_volume 2978.995270
_symmetry_space_group_name_H-M "C M C M"
_symmetry_group_IT_number 63
_symmetry_cell_setting 'orthorhombic'
loop_
_space_group_symop_operation_xyz
x,y,z
-x,-y,1/2+z
x,-y,-z
-x,y,1/2-z
-x,-y,-z
x,y,1/2-z
-x,y,z
x,-y,1/2+z
1/2+x,1/2+y,z
1/2-x,1/2-y,1/2+z
1/2+x,1/2-y,-z
1/2-x,1/2+y,1/2-z
1/2-x,1/2-y,-z
1/2+x,1/2+y,1/2-z
1/2-x,1/2+y,z
1/2+x,1/2-y,1/2+z
loop_
_atom_site_type_symbol
_atom_site_label
_atom_site_fract_x
_atom_site_fract_y
_atom_site_fract_z
Si Si1 0.100545 0.780703 0.993276
Si Si2 0.000000 0.227529 0.250000
Si Si3 0.635498 0.919286 0.898663
Si Si4 0.000000 0.080010 0.892323
Si Si5 0.793718 0.917030 0.901020
O O1 0.056697 0.773405 0.864423
O O2 0.170273 0.824233 0.951652
O O3 0.106665 0.680387 0.060396
O O4 0.062945 0.854074 0.086271
O O5 0.617527 0.943730 0.750000
O O6 0.714841 0.910052 0.904755
O O7 0.615554 0.000000 0.000000
O O8 0.000000 0.035066 0.750000
O O9 0.000000 0.000000 0.000000
O O10 0.812819 0.935899 0.750000
O O11 0.813172 0.000000 0.000000
#
# Coordination Sequence:
#
# PCOD9474413 Si02
#       5
#    16   4  16   8  16
#     4  11  22  41  65  87 132 167 220 251 329 371
#     4  10  24  38  62  90 118 172 208 266 298 374
#     4  10  23  41  66  96 127 164 210 269 325 378
#     4  11  26  41  63  89 125 168 213 267 314 378
#     4  10  21  38  63  97 131 167 209 259 320 388
#
# _framework density 20.141020000000001
#
# number of rings (size 3 to 8) (size 9 to 14) (size 15 to 20)
#    0.000    1.600    1.333    2.400    5.600    4.267 
#    0.000    2.667    2.933    0.000    0.000    0.000 
#    0.000    0.000    0.000    0.000    0.000    0.000 
#
# Total GULP energy -167151.763221 kJ/mol
# GULP energy per Si atom -5571.725441 kJ/mol
# Density = 2.009518 g / cm^3
# Si number density = 20.141020 Si / 1000 Ang^3
#
#
#
# Elastic Constant Matrix: (Units=GPa)
#
#
# Indices 1 2 3 4 5 6 
#
# 1 11.8781 14.7294 9.1617 0.0000 0.0000 0.0000
# 2 14.7294 123.3371 55.0749 0.0000 0.0000 0.0000
# 3 9.1617 55.0749 154.6418 0.0000 0.0000 0.0000
# 4 0.0000 0.0000 0.0000 17.3916 0.0000 0.0000
# 5 0.0000 0.0000 0.0000 0.0000 -49.2779 0.0000
# 6 0.0000 0.0000 0.0000 0.0000 0.0000 18.0985
#
#
#
# Elastic Compliance Matrix: (Units=1/GPa)
#
#
# Indices 1 2 3 4 5 6 
#
# 1 0.099328 -0.010981 -0.001974 0.000000 0.000000 0.000000
# 2 -0.010981 0.010855 -0.003215 0.000000 0.000000 0.000000
# 3 -0.001974 -0.003215 0.007729 0.000000 0.000000 0.000000
# 4 0.000000 0.000000 0.000000 0.057499 0.000000 0.000000
# 5 0.000000 0.000000 0.000000 0.000000 -0.020293 0.000000
# 6 0.000000 0.000000 0.000000 0.000000 0.000000 0.055253
#
#
# Mechanical properties :
#
#
# Convention : Reuss Voigt Hill
#
# Bulk Modulus (GPa) = 11.68615 49.75432 30.72023
# Shear Modulus (GPa) = 18.43424 11.30183 14.86804
#
# Velocity S-wave (km/s) = 3.02861 2.37140 2.71993
# Velocity P-wave (km/s) = 4.24791 5.67932 5.01495
#
# Compressibility (1/GPa) = 0.08557140
#
# Stress axis : x y z
#
# Youngs Moduli (GPa) = 10.06768 92.12326 129.38862
#
# Poissons Ratio (x) = 1.01157 0.25540
# Poissons Ratio (y) = 0.11055 0.41604
# Poissons Ratio (z) = 0.01987 0.29621
#
# Static dielectric constant tensor:
#      x y z
#    x 1.709900 0.000000 0.000000 
#    y 0.000000 1.685420 0.000000 
#    z 0.000000 0.000000 1.699440 
# 
# From -- ./inp_files/22161.got.cif
#   From: 2010.05.17/outbox.cif.g08.bks.cpg/sg63_12_cif.got.tgz:22161.got - 2010.06.03 15:47:04.
