data_PCOD9474492
_publ_section_title
;
Structure prediction by ZEFSAII (Michael W. Deem and Ramdas Pophale) SiO2 
 PCOD9474492
Probable space group: C M C M
;
_chemical_formula_sum "Si O2"
_cell_formula_units_Z 112
_cell_length_a 23.445647
_cell_length_b 18.043281
_cell_length_c 13.979205
_cell_angle_alpha 90.000000
_cell_angle_beta 90.000000
_cell_angle_gamma 90.000000
_cell_volume 5913.712517
_symmetry_space_group_name_H-M "C M C M"
_symmetry_group_IT_number 63
_symmetry_cell_setting 'orthorhombic'
loop_
_space_group_symop_operation_xyz
x,y,z
-x,-y,1/2+z
x,-y,-z
-x,y,1/2-z
-x,-y,-z
x,y,1/2-z
-x,y,z
x,-y,1/2+z
1/2+x,1/2+y,z
1/2-x,1/2-y,1/2+z
1/2+x,1/2-y,-z
1/2-x,1/2+y,1/2-z
1/2-x,1/2-y,-z
1/2+x,1/2+y,1/2-z
1/2-x,1/2+y,z
1/2+x,1/2-y,1/2+z
loop_
_atom_site_type_symbol
_atom_site_label
_atom_site_fract_x
_atom_site_fract_y
_atom_site_fract_z
Si Si1 0.230208 0.321852 0.638731
Si Si2 0.063672 0.192664 0.042093
Si Si3 0.126199 0.788842 0.137914
Si Si4 0.935761 0.958868 0.644242
Si Si5 0.290414 0.075671 0.961994
Si Si6 0.328421 0.447831 0.407278
Si Si7 0.162722 0.286389 0.137865
O O1 0.235988 0.347732 0.750000
O O2 0.169336 0.280323 0.628904
O O3 0.235505 0.383325 0.556515
O O4 0.279155 0.260537 0.622587
O O5 0.071999 0.105139 0.065358
O O6 0.111467 0.237701 0.097773
O O7 0.000000 0.210146 0.074551
O O8 0.072144 0.213879 0.931271
O O9 0.114266 0.799578 0.250000
O O10 0.158197 0.860935 0.095880
O O11 0.935687 0.922855 0.750000
O O12 0.000000 0.991559 0.630764
O O13 0.883079 0.015436 0.644735
O O14 0.239687 0.054292 0.887293
O O15 0.331057 0.135539 0.914556
O O16 0.317450 0.000000 0.000000
O O17 0.328130 0.500000 0.500000
O O18 0.156238 0.297701 0.250000
#
# Coordination Sequence:
#
# PCOD9474492 Si02
#       7
#    16  16  16  16  16  16  16
#     4  10  21  39  62  86 118 159 200 249 306 362
#     4  11  23  40  62  87 119 161 209 254 299 353
#     4  11  21  37  62  87 116 158 208 254 301 361
#     4  10  22  38  55  79 118 167 211 246 286 345
#     4  11  23  37  60  90 124 152 194 249 309 375
#     4  11  21  34  55  82 120 165 197 239 293 349
#     4  11  22  38  62  90 122 159 202 254 303 357
#
# _framework density 18.939033999999999
#
# number of rings (size 3 to 8) (size 9 to 14) (size 15 to 20)
#    0.000    1.286    4.286    2.143    2.000    3.143 
#    0.000    2.143    0.000    0.429    0.000    0.000 
#    0.000    0.000    0.000    0.000    0.000    0.000 
#
# Total GULP energy -312131.342053 kJ/mol
# GULP energy per Si atom -5573.773965 kJ/mol
# Density = 1.889593 g / cm^3
# Si number density = 18.939034 Si / 1000 Ang^3
#
#
#
# Elastic Constant Matrix: (Units=GPa)
#
#
# Indices 1 2 3 4 5 6 
#
# 1 63.3074 16.5156 1.1880 0.0000 0.0000 0.0000
# 2 16.5156 71.1610 19.3869 0.0000 0.0000 0.0000
# 3 1.1880 19.3869 66.1568 0.0000 0.0000 0.0000
# 4 0.0000 0.0000 0.0000 14.3989 0.0000 0.0000
# 5 0.0000 0.0000 0.0000 0.0000 13.7532 0.0000
# 6 0.0000 0.0000 0.0000 0.0000 0.0000 29.1882
#
#
#
# Elastic Compliance Matrix: (Units=1/GPa)
#
#
# Indices 1 2 3 4 5 6 
#
# 1 0.016865 -0.004164 0.000917 0.000000 0.000000 0.000000
# 2 -0.004164 0.016300 -0.004702 0.000000 0.000000 0.000000
# 3 0.000917 -0.004702 0.016477 0.000000 0.000000 0.000000
# 4 0.000000 0.000000 0.000000 0.069450 0.000000 0.000000
# 5 0.000000 0.000000 0.000000 0.000000 0.072711 0.000000
# 6 0.000000 0.000000 0.000000 0.000000 0.000000 0.034260
#
#
# Mechanical properties :
#
#
# Convention : Reuss Voigt Hill
#
# Bulk Modulus (GPa) = 29.63404 30.53403 30.08404
# Shear Modulus (GPa) = 19.74658 22.37036 21.05847
#
# Velocity S-wave (km/s) = 3.23250 3.44055 3.33815
# Velocity P-wave (km/s) = 5.44179 5.65159 5.54768
#
# Compressibility (1/GPa) = 0.03374497
#
# Stress axis : x y z
#
# Youngs Moduli (GPa) = 59.29416 61.34953 60.69064
#
# Poissons Ratio (x) = 0.25547 -0.05568
# Poissons Ratio (y) = 0.24691 0.28536
# Poissons Ratio (z) = -0.05440 0.28846
#
# Static dielectric constant tensor:
#      x y z
#    x 1.666550 0.000000 0.000000 
#    y 0.000000 1.635260 0.000000 
#    z 0.000000 0.000000 1.715510 
# 
# From -- ./inp_files/36866.got.cif
#   From: 2010.05.17/outbox.cif.g08.bks.cpg/sg63_19_cif.got.tgz:36866.got - 2010.06.03 15:47:04.
