data_PCOD9474564
_publ_section_title
;
Structure prediction by ZEFSAII (Michael W. Deem and Ramdas Pophale) SiO2 
 PCOD9474564
Probable space group: C M C M
;
_chemical_formula_sum "Si O2"
_cell_formula_units_Z 96
_cell_length_a 15.183835
_cell_length_b 21.505634
_cell_length_c 14.007345
_cell_angle_alpha 90.000000
_cell_angle_beta 90.000000
_cell_angle_gamma 90.000000
_cell_volume 4573.930397
_symmetry_space_group_name_H-M "C M C M"
_symmetry_group_IT_number 63
_symmetry_cell_setting 'orthorhombic'
loop_
_space_group_symop_operation_xyz
x,y,z
-x,-y,1/2+z
x,-y,-z
-x,y,1/2-z
-x,-y,-z
x,y,1/2-z
-x,y,z
x,-y,1/2+z
1/2+x,1/2+y,z
1/2-x,1/2-y,1/2+z
1/2+x,1/2-y,-z
1/2-x,1/2+y,1/2-z
1/2-x,1/2-y,-z
1/2+x,1/2+y,1/2-z
1/2-x,1/2+y,z
1/2+x,1/2-y,1/2+z
loop_
_atom_site_type_symbol
_atom_site_label
_atom_site_fract_x
_atom_site_fract_y
_atom_site_fract_z
Si Si1 0.724749 0.595713 0.135286
Si Si2 0.099349 0.016494 0.634660
Si Si3 0.352541 0.658025 0.640455
Si Si4 0.859260 0.335126 0.359373
Si Si5 0.901812 0.798667 0.555352
Si Si6 0.598061 0.927673 0.525571
O O1 0.726608 0.597571 0.250000
O O2 0.670535 0.534154 0.103398
O O3 0.671337 0.654860 0.096443
O O4 0.822411 0.592958 0.093244
O O5 0.101054 0.014749 0.750000
O O6 0.121161 0.087764 0.610760
O O7 0.000000 0.000518 0.605013
O O8 0.382047 0.668772 0.750000
O O9 0.247068 0.662658 0.638698
O O10 0.390606 0.702535 0.559215
O O11 0.887417 0.343106 0.250000
O O12 0.889101 0.268792 0.399561
O O13 0.893882 0.388410 0.428529
O O14 0.000000 0.821934 0.578578
O O15 0.500000 0.918235 0.566441
O O16 0.608411 0.000000 0.500000
#
# Coordination Sequence:
#
# PCOD9474564 Si02
#       6
#    16  16  16  16  16  16
#     4  11  24  41  64  96 138 180 222 277 337 397
#     4   9  18  35  61  96 135 175 218 263 321 393
#     4  10  21  39  66  96 133 178 222 272 331 392
#     4  11  24  46  72  95 130 177 224 273 329 399
#     4  12  25  41  66 100 138 180 226 272 328 403
#     4  11  25  45  70  99 128 166 227 290 343 403
#
# _framework density 20.988513000000001
#
# number of rings (size 3 to 8) (size 9 to 14) (size 15 to 20)
#    0.000    1.333    1.667    3.500    0.000    6.333 
#    0.000    3.333    0.000    2.000    0.000    0.000 
#    0.000    0.000    0.000    0.000    0.000    0.000 
#
# Total GULP energy -268601.365758 kJ/mol
# GULP energy per Si atom -5595.861787 kJ/mol
# Density = 2.094074 g / cm^3
# Si number density = 20.988513 Si / 1000 Ang^3
#
#
#
# Elastic Constant Matrix: (Units=GPa)
#
#
# Indices 1 2 3 4 5 6 
#
# 1 164.0720 44.9334 48.2880 0.0000 0.0000 0.0000
# 2 44.9334 70.1798 40.4017 0.0000 0.0000 0.0000
# 3 48.2880 40.4017 126.8519 0.0000 0.0000 0.0000
# 4 0.0000 0.0000 0.0000 31.2286 0.0000 0.0000
# 5 0.0000 0.0000 0.0000 0.0000 88.0609 0.0000
# 6 0.0000 0.0000 0.0000 0.0000 0.0000 55.4572
#
#
#
# Elastic Compliance Matrix: (Units=1/GPa)
#
#
# Indices 1 2 3 4 5 6 
#
# 1 0.007666 -0.003953 -0.001659 0.000000 0.000000 0.000000
# 2 -0.003953 0.019487 -0.004702 0.000000 0.000000 0.000000
# 3 -0.001659 -0.004702 0.010012 0.000000 0.000000 0.000000
# 4 0.000000 0.000000 0.000000 0.032022 0.000000 0.000000
# 5 0.000000 0.000000 0.000000 0.000000 0.011356 0.000000
# 6 0.000000 0.000000 0.000000 0.000000 0.000000 0.018032
#
#
# Mechanical properties :
#
#
# Convention : Reuss Voigt Hill
#
# Bulk Modulus (GPa) = 60.46949 69.81667 65.14308
# Shear Modulus (GPa) = 40.09164 50.11470 45.10317
#
# Velocity S-wave (km/s) = 4.37529 4.89173 4.64070
# Velocity P-wave (km/s) = 7.37547 8.07724 7.73432
#
# Compressibility (1/GPa) = 0.01653727
#
# Stress axis : x y z
#
# Youngs Moduli (GPa) = 130.45050 51.31689 99.87794
#
# Poissons Ratio (x) = 0.20285 0.16570
# Poissons Ratio (y) = 0.51567 0.46959
# Poissons Ratio (z) = 0.21643 0.24128
#
# Static dielectric constant tensor:
#      x y z
#    x 1.755900 0.000000 0.000000 
#    y 0.000000 1.714330 0.000000 
#    z 0.000000 0.000000 1.767170 
# 
# From -- ./inp_files/31888.got.cif
#   From: 2010.05.17/outbox.cif.g08.bks.cpg/sg63_16_cif.got.tgz:31888.got - 2010.06.03 15:47:04.
