data_PCOD9474927
_publ_section_title
;
Structure prediction by ZEFSAII (Michael W. Deem and Ramdas Pophale) SiO2 
 PCOD9474927
Probable space group: C M C M
;
_chemical_formula_sum "Si O2"
_cell_formula_units_Z 112
_cell_length_a 13.771781
_cell_length_b 24.184202
_cell_length_c 15.303692
_cell_angle_alpha 90.000000
_cell_angle_beta 90.000000
_cell_angle_gamma 90.000000
_cell_volume 5097.040520
_symmetry_space_group_name_H-M "C M C M"
_symmetry_group_IT_number 63
_symmetry_cell_setting 'orthorhombic'
loop_
_space_group_symop_operation_xyz
x,y,z
-x,-y,1/2+z
x,-y,-z
-x,y,1/2-z
-x,-y,-z
x,y,1/2-z
-x,y,z
x,-y,1/2+z
1/2+x,1/2+y,z
1/2-x,1/2-y,1/2+z
1/2+x,1/2-y,-z
1/2-x,1/2+y,1/2-z
1/2-x,1/2-y,-z
1/2+x,1/2+y,1/2-z
1/2-x,1/2+y,z
1/2+x,1/2-y,1/2+z
loop_
_atom_site_type_symbol
_atom_site_label
_atom_site_fract_x
_atom_site_fract_y
_atom_site_fract_z
Si Si1 0.116801 0.862218 0.851007
Si Si2 0.706990 0.478608 0.901661
Si Si3 0.224863 0.908347 0.154224
Si Si4 0.617868 0.258441 0.533576
Si Si5 0.383086 0.294696 0.153677
Si Si6 0.886387 0.365618 0.465812
Si Si7 0.611494 0.085760 0.151502
O O1 0.148105 0.857493 0.750000
O O2 0.150797 0.921236 0.888124
O O3 0.151512 0.810170 0.908556
O O4 0.000000 0.861326 0.852251
O O5 0.672742 0.532565 0.849872
O O6 0.814466 0.463515 0.867596
O O7 0.704697 0.500000 0.000000
O O8 0.269865 0.901247 0.250000
O O9 0.150678 0.858009 0.141835
O O10 0.309544 0.904390 0.082336
O O11 0.500000 0.262037 0.532050
O O12 0.651221 0.263707 0.433197
O O13 0.637593 0.196486 0.564969
O O14 0.348618 0.275669 0.250000
O O15 0.500000 0.291722 0.154738
O O16 0.875321 0.372076 0.570741
O O17 0.000000 0.377456 0.446646
O O18 0.627723 0.107697 0.250000
O O19 0.500000 0.067108 0.147306
#
# Coordination Sequence:
#
# PCOD9474927 Si02
#       7
#    16  16  16  16  16  16  16
#     4  10  22  40  62  92 128 165 206 250 301 363
#     4  12  23  40  64  87 121 161 202 259 307 356
#     4  11  23  38  57  87 122 157 203 250 300 364
#     4   9  19  37  62  88 118 158 203 249 301 362
#     4   9  19  37  59  85 120 158 198 249 305 359
#     4  10  22  40  62  90 122 158 201 252 306 362
#     4  10  22  41  63  88 120 159 204 253 308 366
#
# _framework density 21.973534999999998
#
# number of rings (size 3 to 8) (size 9 to 14) (size 15 to 20)
#    0.000    1.857    1.429    2.143    0.000    3.714 
#    0.000    5.714    0.000    0.000    0.000    0.000 
#    0.000    0.000    0.000    0.000    0.000    0.000 
#
# Total GULP energy -312714.062889 kJ/mol
# GULP energy per Si atom -5584.179694 kJ/mol
# Density = 2.192352 g / cm^3
# Si number density = 21.973535 Si / 1000 Ang^3
#
#
#
# Elastic Constant Matrix: (Units=GPa)
#
#
# Indices 1 2 3 4 5 6 
#
# 1 33.8264 -13.3562 8.7659 0.0000 0.0000 0.0000
# 2 -13.3562 95.2133 27.5468 0.0000 0.0000 0.0000
# 3 8.7659 27.5468 122.0340 0.0000 0.0000 0.0000
# 4 0.0000 0.0000 0.0000 -30.0793 0.0000 0.0000
# 5 0.0000 0.0000 0.0000 0.0000 12.7296 0.0000
# 6 0.0000 0.0000 0.0000 0.0000 0.0000 23.9950
#
#
#
# Elastic Compliance Matrix: (Units=1/GPa)
#
#
# Indices 1 2 3 4 5 6 
#
# 1 0.032729 0.005640 -0.003624 0.000000 0.000000 0.000000
# 2 0.005640 0.012208 -0.003161 0.000000 0.000000 0.000000
# 3 -0.003624 -0.003161 0.009168 0.000000 0.000000 0.000000
# 4 0.000000 0.000000 0.000000 -0.033246 0.000000 0.000000
# 5 0.000000 0.000000 0.000000 0.000000 0.078557 0.000000
# 6 0.000000 0.000000 0.000000 0.000000 0.000000 0.041675
#
#
# Mechanical properties :
#
#
# Convention : Reuss Voigt Hill
#
# Bulk Modulus (GPa) = 19.29963 32.99852 26.14907
# Shear Modulus (GPa) = 31.12274 16.53689 23.82981
#
# Velocity S-wave (km/s) = 3.76756 2.74630 3.29671
# Velocity P-wave (km/s) = 5.26575 5.01061 5.13977
#
# Compressibility (1/GPa) = 0.05181448
#
# Stress axis : x y z
#
# Youngs Moduli (GPa) = 30.55436 81.91134 109.07191
#
# Poissons Ratio (x) = -0.46194 0.39527
# Poissons Ratio (y) = -0.17231 0.34476
# Poissons Ratio (z) = 0.11073 0.25891
#
# Static dielectric constant tensor:
#      x y z
#    x 1.808790 0.000000 0.000000 
#    y 0.000000 1.777900 0.000000 
#    z 0.000000 0.000000 1.805490 
# 
# From -- ./inp_files/32321.got.cif
#   From: 2010.05.17/outbox.cif.g08.bks.cpg/sg63_17_cif.got.tgz:32321.got - 2010.06.03 15:47:04.
