data_PCOD9474618
_publ_section_title
;
Structure prediction by ZEFSAII (Michael W. Deem and Ramdas Pophale) SiO2 
 PCOD9474618
Probable space group: C M C M
;
_chemical_formula_sum "Si O2"
_cell_formula_units_Z 80
_cell_length_a 12.000950
_cell_length_b 24.924063
_cell_length_c 13.906588
_cell_angle_alpha 90.000000
_cell_angle_beta 90.000000
_cell_angle_gamma 90.000000
_cell_volume 4159.633383
_symmetry_space_group_name_H-M "C M C M"
_symmetry_group_IT_number 63
_symmetry_cell_setting 'orthorhombic'
loop_
_space_group_symop_operation_xyz
x,y,z
-x,-y,1/2+z
x,-y,-z
-x,y,1/2-z
-x,-y,-z
x,y,1/2-z
-x,y,z
x,-y,1/2+z
1/2+x,1/2+y,z
1/2-x,1/2-y,1/2+z
1/2+x,1/2-y,-z
1/2-x,1/2+y,1/2-z
1/2-x,1/2-y,-z
1/2+x,1/2+y,1/2-z
1/2-x,1/2+y,z
1/2+x,1/2-y,1/2+z
loop_
_atom_site_type_symbol
_atom_site_label
_atom_site_fract_x
_atom_site_fract_y
_atom_site_fract_z
Si Si1 0.241279 0.251254 0.633484
Si Si2 0.218203 0.939105 0.478172
Si Si3 0.868056 0.641792 0.635799
Si Si4 0.500000 0.590257 0.635154
Si Si5 0.632536 0.359460 0.864362
Si Si6 0.000000 0.782645 0.366845
O O1 0.238637 0.252595 0.750000
O O2 0.308241 0.197481 0.608584
O O3 0.305014 0.304992 0.604552
O O4 0.113890 0.245086 0.599884
O O5 0.314307 0.905663 0.425418
O O6 0.181921 0.908068 0.574680
O O7 0.109663 0.936002 0.409642
O O8 0.248737 0.000000 0.500000
O O9 0.846309 0.633034 0.750000
O O10 0.000000 0.646087 0.622299
O O11 0.500000 0.586099 0.750000
O O12 0.500000 0.653957 0.609764
O O13 0.649332 0.366850 0.750000
O O14 0.500000 0.354526 0.880431
O O15 0.000000 0.780431 0.250000
#
# Coordination Sequence:
#
# PCOD9474618 Si02
#       6
#    16  16  16   8  16   8
#     4   9  17  34  60  91 123 157 196 246 303 369
#     4  12  25  41  60  90 123 159 212 258 299 362
#     4  10  21  40  66  92 119 156 201 253 312 365
#     4  11  21  39  64  92 121 156 198 257 313 357
#     4  10  22  40  60  86 127 167 200 246 305 364
#     4   9  16  31  59  92 125 150 188 247 303 357
#
# _framework density 19.232462999999999
#
# number of rings (size 3 to 8) (size 9 to 14) (size 15 to 20)
#    0.000    1.800    3.000    1.500    0.000    5.200 
#    1.800    0.000    0.000    0.000    0.000    0.000 
#    0.000    0.000    0.000    0.000    0.000    0.000 
#
# Total GULP energy -223677.296206 kJ/mol
# GULP energy per Si atom -5591.932405 kJ/mol
# Density = 1.918869 g / cm^3
# Si number density = 19.232463 Si / 1000 Ang^3
#
#
#
# Elastic Constant Matrix: (Units=GPa)
#
#
# Indices 1 2 3 4 5 6 
#
# 1 117.6882 67.9827 47.0772 0.0000 0.0000 0.0000
# 2 67.9827 160.9842 49.3046 0.0000 0.0000 0.0000
# 3 47.0772 49.3046 106.0876 0.0000 0.0000 0.0000
# 4 0.0000 0.0000 0.0000 45.9398 0.0000 0.0000
# 5 0.0000 0.0000 0.0000 0.0000 25.5600 0.0000
# 6 0.0000 0.0000 0.0000 0.0000 0.0000 -67.1550
#
#
#
# Elastic Compliance Matrix: (Units=1/GPa)
#
#
# Indices 1 2 3 4 5 6 
#
# 1 0.012285 -0.004102 -0.003545 0.000000 0.000000 0.000000
# 2 -0.004102 0.008612 -0.002182 0.000000 0.000000 0.000000
# 3 -0.003545 -0.002182 0.012014 0.000000 0.000000 0.000000
# 4 0.000000 0.000000 0.000000 0.021768 0.000000 0.000000
# 5 0.000000 0.000000 0.000000 0.000000 0.039124 0.000000
# 6 0.000000 0.000000 0.000000 0.000000 0.000000 -0.014891
#
#
# Mechanical properties :
#
#
# Convention : Reuss Voigt Hill
#
# Bulk Modulus (GPa) = 75.46083 79.27656 77.36870
# Shear Modulus (GPa) = 48.54987 15.56198 32.05593
#
# Velocity S-wave (km/s) = 5.02976 2.84764 4.08703
# Velocity P-wave (km/s) = 8.54709 7.21954 7.91121
#
# Compressibility (1/GPa) = 0.01325191
#
# Stress axis : x y z
#
# Youngs Moduli (GPa) = 81.40272 116.11120 83.23936
#
# Poissons Ratio (x) = 0.47629 0.29508
# Poissons Ratio (y) = 0.33391 0.18166
# Poissons Ratio (z) = 0.28857 0.25340
#
# Static dielectric constant tensor:
#      x y z
#    x 1.646370 0.000000 0.000000 
#    y 0.000000 1.626480 0.000000 
#    z 0.000000 0.000000 1.714720 
# 
# From -- ./inp_files/29748.got.cif
#   From: 2010.05.17/outbox.cif.g08.bks.cpg/sg63_15_cif.got.tgz:29748.got - 2010.06.03 15:47:04.
