data_PCOD9474620
_publ_section_title
;
Structure prediction by ZEFSAII (Michael W. Deem and Ramdas Pophale) SiO2 
 PCOD9474620
Probable space group: C M C M
;
_chemical_formula_sum "Si O2"
_cell_formula_units_Z 96
_cell_length_a 22.827441
_cell_length_b 11.680591
_cell_length_c 16.496837
_cell_angle_alpha 90.000000
_cell_angle_beta 90.000000
_cell_angle_gamma 90.000000
_cell_volume 4398.683655
_symmetry_space_group_name_H-M "C M C M"
_symmetry_group_IT_number 63
_symmetry_cell_setting 'orthorhombic'
loop_
_space_group_symop_operation_xyz
x,y,z
-x,-y,1/2+z
x,-y,-z
-x,y,1/2-z
-x,-y,-z
x,y,1/2-z
-x,y,z
x,-y,1/2+z
1/2+x,1/2+y,z
1/2-x,1/2-y,1/2+z
1/2+x,1/2-y,-z
1/2-x,1/2+y,1/2-z
1/2-x,1/2-y,-z
1/2+x,1/2+y,1/2-z
1/2-x,1/2+y,z
1/2+x,1/2-y,1/2+z
loop_
_atom_site_type_symbol
_atom_site_label
_atom_site_fract_x
_atom_site_fract_y
_atom_site_fract_z
Si Si1 0.848754 0.961203 0.410008
Si Si2 0.357183 0.845877 0.077871
Si Si3 0.645808 0.898197 0.887343
Si Si4 0.568442 0.289874 0.340615
Si Si5 0.242575 0.214635 0.656915
Si Si6 0.932726 0.840721 0.846166
O O1 0.896977 0.859805 0.408498
O O2 0.794224 0.899915 0.366145
O O3 0.832289 0.000000 0.500000
O O4 0.884338 0.063042 0.367138
O O5 0.298386 0.776611 0.099307
O O6 0.412393 0.772510 0.106587
O O7 0.351519 0.966790 0.124376
O O8 0.357902 0.873860 0.983259
O O9 0.588981 0.840316 0.847755
O O10 0.700270 0.823916 0.854631
O O11 0.586081 0.332099 0.250000
O O12 0.500000 0.304005 0.348725
O O13 0.261308 0.208949 0.750000
O O14 0.930874 0.820360 0.750000
O O15 0.000000 0.874846 0.866935
#
# Coordination Sequence:
#
# PCOD9474620 Si02
#       6
#    16  16  16  16  16  16
#     4  11  23  38  64  95 126 165 207 264 318 375
#     4  11  25  41  64  91 123 168 207 258 318 377
#     4  10  23  42  63  89 124 160 210 262 310 371
#     4  10  21  40  66  93 125 168 217 264 310 368
#     4  11  24  41  65  91 123 164 214 265 313 376
#     4  11  24  41  61  91 131 167 205 255 317 383
#
# _framework density 21.82471
#
# number of rings (size 3 to 8) (size 9 to 14) (size 15 to 20)
#    0.000    1.333    0.000    6.500    4.667    8.000 
#    0.000    3.333    0.000    0.000    0.000    0.000 
#    0.000    0.000    0.000    0.000    0.000    0.000 
#
# Total GULP energy -268406.354864 kJ/mol
# GULP energy per Si atom -5591.799060 kJ/mol
# Density = 2.177504 g / cm^3
# Si number density = 21.824710 Si / 1000 Ang^3
#
#
#
# Elastic Constant Matrix: (Units=GPa)
#
#
# Indices 1 2 3 4 5 6 
#
# 1 55.8554 5.3343 -0.4383 0.0000 0.0000 0.0000
# 2 5.3343 81.7486 -3.1925 0.0000 0.0000 0.0000
# 3 -0.4383 -3.1925 50.9146 0.0000 0.0000 0.0000
# 4 0.0000 0.0000 0.0000 21.5685 0.0000 0.0000
# 5 0.0000 0.0000 0.0000 0.0000 -35.2361 0.0000
# 6 0.0000 0.0000 0.0000 0.0000 0.0000 16.1755
#
#
#
# Elastic Compliance Matrix: (Units=1/GPa)
#
#
# Indices 1 2 3 4 5 6 
#
# 1 0.018016 -0.001172 0.000082 0.000000 0.000000 0.000000
# 2 -0.001172 0.012339 0.000764 0.000000 0.000000 0.000000
# 3 0.000082 0.000764 0.019689 0.000000 0.000000 0.000000
# 4 0.000000 0.000000 0.000000 0.046364 0.000000 0.000000
# 5 0.000000 0.000000 0.000000 0.000000 -0.028380 0.000000
# 6 0.000000 0.000000 0.000000 0.000000 0.000000 0.061822
#
#
# Mechanical properties :
#
#
# Convention : Reuss Voigt Hill
#
# Bulk Modulus (GPa) = 20.24711 21.32507 20.78609
# Shear Modulus (GPa) = 34.02110 12.95593 23.48852
#
# Velocity S-wave (km/s) = 3.95249 2.43911 3.28416
# Velocity P-wave (km/s) = 5.48879 4.21006 4.89139
#
# Compressibility (1/GPa) = 0.04938975
#
# Stress axis : x y z
#
# Youngs Moduli (GPa) = 55.50625 81.04416 50.78900
#
# Poissons Ratio (x) = 0.09502 -0.00414
# Poissons Ratio (y) = 0.06508 -0.03878
# Poissons Ratio (z) = -0.00453 -0.06188
#
# Static dielectric constant tensor:
#      x y z
#    x 1.777990 0.000000 0.000000 
#    y 0.000000 1.837760 0.000000 
#    z 0.000000 0.000000 1.794950 
# 
# From -- ./inp_files/48023.got.cif
#   From: 2010.05.17/outbox.cif.g08.bks.cpg/sg63_25_cif.got.tgz:48023.got - 2010.06.03 15:47:04.
