data_PCOD9474525
_publ_section_title
;
Structure prediction by ZEFSAII (Michael W. Deem and Ramdas Pophale) SiO2 
 PCOD9474525
Probable space group: C M C M
;
_chemical_formula_sum "Si O2"
_cell_formula_units_Z 72
_cell_length_a 13.983281
_cell_length_b 29.797306
_cell_length_c 7.809223
_cell_angle_alpha 90.000000
_cell_angle_beta 90.000000
_cell_angle_gamma 90.000000
_cell_volume 3253.822895
_symmetry_space_group_name_H-M "C M C M"
_symmetry_group_IT_number 63
_symmetry_cell_setting 'orthorhombic'
loop_
_space_group_symop_operation_xyz
x,y,z
-x,-y,1/2+z
x,-y,-z
-x,y,1/2-z
-x,-y,-z
x,y,1/2-z
-x,y,z
x,-y,1/2+z
1/2+x,1/2+y,z
1/2-x,1/2-y,1/2+z
1/2+x,1/2-y,-z
1/2-x,1/2+y,1/2-z
1/2-x,1/2-y,-z
1/2+x,1/2+y,1/2-z
1/2-x,1/2+y,z
1/2+x,1/2-y,1/2+z
loop_
_atom_site_type_symbol
_atom_site_label
_atom_site_fract_x
_atom_site_fract_y
_atom_site_fract_z
Si Si1 0.500000 0.933070 0.545337
Si Si2 0.500000 0.826364 0.955565
Si Si3 0.000000 0.946677 0.956935
Si Si4 0.332872 0.380878 0.941431
Si Si5 0.787681 0.299183 0.542912
Si Si6 0.793468 0.547762 0.943685
O O1 0.500000 0.940754 0.750000
O O2 0.500000 0.879596 0.514440
O O3 0.593454 0.953154 0.460281
O O4 0.500000 0.818875 0.750000
O O5 0.602814 0.807399 0.019102
O O6 0.089541 0.915772 0.016651
O O7 0.000000 0.946781 0.750000
O O8 0.000000 0.000000 0.000000
O O9 0.367656 0.369368 0.750000
O O10 0.290473 0.335697 0.023425
O O11 0.240527 0.412668 0.935271
O O12 0.789796 0.304996 0.750000
O O13 0.750000 0.250000 0.500000
O O14 0.765825 0.557800 0.750000
O O15 0.752460 0.500000 0.000000
#
# Coordination Sequence:
#
# PCOD9474525 Si02
#       6
#     8   8   8  16  16  16
#     4  11  20  38  62  84 116 158 195 235 293 350
#     4   9  18  37  63  86 117 159 194 237 300 361
#     4  10  22  39  62  90 120 159 210 260 313 375
#     4  10  21  40  62  85 118 161 206 255 311 370
#     4  10  21  39  63  91 121 158 203 252 308 366
#     4  12  24  37  56  87 122 158 201 245 294 358
#
# _framework density 22.127818000000001
#
# number of rings (size 3 to 8) (size 9 to 14) (size 15 to 20)
#    0.000    1.556    2.222    3.333    0.000    4.444 
#    0.000    1.667    0.000    0.000    0.000    0.000 
#    0.000    0.000    0.000    0.000    0.000    0.000 
#
# Total GULP energy -200807.426618 kJ/mol
# GULP energy per Si atom -5577.984073 kJ/mol
# Density = 2.207745 g / cm^3
# Si number density = 22.127818 Si / 1000 Ang^3
#
#
#
# Elastic Constant Matrix: (Units=GPa)
#
#
# Indices 1 2 3 4 5 6 
#
# 1 131.8935 71.5661 7.0985 0.0000 0.0000 0.0000
# 2 71.5661 188.3316 10.8961 0.0000 0.0000 0.0000
# 3 7.0985 10.8961 69.8210 0.0000 0.0000 0.0000
# 4 0.0000 0.0000 0.0000 25.1128 0.0000 0.0000
# 5 0.0000 0.0000 0.0000 0.0000 12.7324 0.0000
# 6 0.0000 0.0000 0.0000 0.0000 0.0000 28.5118
#
#
#
# Elastic Compliance Matrix: (Units=1/GPa)
#
#
# Indices 1 2 3 4 5 6 
#
# 1 0.009563 -0.003610 -0.000409 0.000000 0.000000 0.000000
# 2 -0.003610 0.006721 -0.000682 0.000000 0.000000 0.000000
# 3 -0.000409 -0.000682 0.014470 0.000000 0.000000 0.000000
# 4 0.000000 0.000000 0.000000 0.039820 0.000000 0.000000
# 5 0.000000 0.000000 0.000000 0.000000 0.078540 0.000000
# 6 0.000000 0.000000 0.000000 0.000000 0.000000 0.035073
#
#
# Mechanical properties :
#
#
# Convention : Reuss Voigt Hill
#
# Bulk Modulus (GPa) = 46.83298 63.24082 55.03690
# Shear Modulus (GPa) = 24.91195 33.30374 29.10785
#
# Velocity S-wave (km/s) = 3.35897 3.88372 3.63084
# Velocity P-wave (km/s) = 6.02115 6.98233 6.51948
#
# Compressibility (1/GPa) = 0.02135247
#
# Stress axis : x y z
#
# Youngs Moduli (GPa) = 104.57188 148.78481 69.10700
#
# Poissons Ratio (x) = 0.53715 0.02825
# Poissons Ratio (y) = 0.37753 0.04712
# Poissons Ratio (z) = 0.04275 0.10145
#
# Static dielectric constant tensor:
#      x y z
#    x 1.891660 0.000000 0.000000 
#    y 0.000000 1.781800 0.000000 
#    z 0.000000 0.000000 1.849750 
# 
# From -- ./inp_files/4712.got.cif
#   From: 2010.05.17/outbox.cif.g08.bks.cpg/sg63_3_cif.got.tgz:4712.got - 2010.06.03 15:47:04.
