data_PCOD9474280
_publ_section_title
;
Structure prediction by ZEFSAII (Michael W. Deem and Ramdas Pophale) SiO2 
 PCOD9474280
Probable space group: C M C M
;
_chemical_formula_sum "Si O2"
_cell_formula_units_Z 96
_cell_length_a 12.491949
_cell_length_b 16.900288
_cell_length_c 23.858847
_cell_angle_alpha 90.000000
_cell_angle_beta 90.000000
_cell_angle_gamma 90.000000
_cell_volume 5037.020985
_symmetry_space_group_name_H-M "C M C M"
_symmetry_group_IT_number 63
_symmetry_cell_setting 'orthorhombic'
loop_
_space_group_symop_operation_xyz
x,y,z
-x,-y,1/2+z
x,-y,-z
-x,y,1/2-z
-x,-y,-z
x,y,1/2-z
-x,y,z
x,-y,1/2+z
1/2+x,1/2+y,z
1/2-x,1/2-y,1/2+z
1/2+x,1/2-y,-z
1/2-x,1/2+y,1/2-z
1/2-x,1/2-y,-z
1/2+x,1/2+y,1/2-z
1/2-x,1/2+y,z
1/2+x,1/2-y,1/2+z
loop_
_atom_site_type_symbol
_atom_site_label
_atom_site_fract_x
_atom_site_fract_y
_atom_site_fract_z
Si Si1 0.189409 0.176162 0.687528
Si Si2 0.122883 0.354506 0.682996
Si Si3 0.120340 0.685701 0.610430
Si Si4 0.000000 0.051450 0.687192
Si Si5 0.500000 0.533974 0.064934
Si Si6 0.621925 0.092411 0.005782
Si Si7 0.706788 0.637190 0.406772
O O1 0.230997 0.189861 0.750000
O O2 0.135015 0.259945 0.671219
O O3 0.288105 0.152241 0.649722
O O4 0.102318 0.108294 0.687914
O O5 0.134760 0.366905 0.750000
O O6 0.223192 0.389457 0.647871
O O7 0.000000 0.378534 0.668221
O O8 0.122306 0.636705 0.553253
O O9 0.154563 0.776922 0.602144
O O10 0.000000 0.682373 0.633396
O O11 0.000000 0.009086 0.750000
O O12 0.000000 0.013426 0.624916
O O13 0.390133 0.582886 0.072317
O O14 0.500000 0.500000 0.000000
O O15 0.500000 0.094117 0.027785
O O16 0.702997 0.137418 0.045738
O O17 0.652488 0.000000 0.000000
#
# Coordination Sequence:
#
# PCOD9474280 Si02
#       7
#    16  16  16   8   8  16  16
#     4   9  18  34  60  89 116 152 198 247 301 362
#     4   9  17  34  61  91 118 148 199 261 307 354
#     4  10  21  38  58  86 118 154 196 255 303 369
#     4  10  22  42  64  90 122 162 212 250 298 370
#     4  12  28  42  60  90 133 170 207 254 314 378
#     4  10  22  39  59  81 111 155 203 250 305 364
#     4  11  22  39  57  85 122 158 202 245 306 377
#
# _framework density 19.058883999999999
#
# number of rings (size 3 to 8) (size 9 to 14) (size 15 to 20)
#    0.000    2.000    1.667    1.500    4.667    1.000 
#    0.000    0.000    0.000    0.000    0.000    0.000 
#    0.000    0.000    0.000    0.000    0.000    0.000 
#
# Total GULP energy -267303.381862 kJ/mol
# GULP energy per Si atom -5568.820455 kJ/mol
# Density = 1.901551 g / cm^3
# Si number density = 19.058884 Si / 1000 Ang^3
#
#
#
# Elastic Constant Matrix: (Units=GPa)
#
#
# Indices 1 2 3 4 5 6 
#
# 1 137.2509 19.9347 61.5384 0.0000 0.0000 0.0000
# 2 19.9347 17.0692 20.2604 0.0000 0.0000 0.0000
# 3 61.5384 20.2604 94.2266 0.0000 0.0000 0.0000
# 4 0.0000 0.0000 0.0000 22.7138 0.0000 0.0000
# 5 0.0000 0.0000 0.0000 0.0000 29.7571 0.0000
# 6 0.0000 0.0000 0.0000 0.0000 0.0000 24.6094
#
#
#
# Elastic Compliance Matrix: (Units=1/GPa)
#
#
# Indices 1 2 3 4 5 6 
#
# 1 0.010692 -0.005637 -0.005771 0.000000 0.000000 0.000000
# 2 -0.005637 0.081633 -0.013871 0.000000 0.000000 0.000000
# 3 -0.005771 -0.013871 0.017364 0.000000 0.000000 0.000000
# 4 0.000000 0.000000 0.000000 0.044026 0.000000 0.000000
# 5 0.000000 0.000000 0.000000 0.000000 0.033605 0.000000
# 6 0.000000 0.000000 0.000000 0.000000 0.000000 0.040635
#
#
# Mechanical properties :
#
#
# Convention : Reuss Voigt Hill
#
# Bulk Modulus (GPa) = 16.91162 50.22375 33.56768
# Shear Modulus (GPa) = 16.76595 25.20359 20.98477
#
# Velocity S-wave (km/s) = 2.96918 3.64044 3.32181
# Velocity P-wave (km/s) = 4.54393 6.63924 5.68888
#
# Compressibility (1/GPa) = 0.05913094
#
# Stress axis : x y z
#
# Youngs Moduli (GPa) = 93.52663 12.25000 57.59045
#
# Poissons Ratio (x) = 0.06906 0.33234
# Poissons Ratio (y) = 0.52725 0.79882
# Poissons Ratio (z) = 0.53972 0.16992
#
# Static dielectric constant tensor:
#      x y z
#    x 1.644080 0.000000 0.000000 
#    y 0.000000 1.680240 0.000000 
#    z 0.000000 0.000000 1.708850 
# 
# From -- ./inp_files/61543.got.cif
#   From: 2010.05.17/outbox.cif.g08.bks.cpg/sg63_31_cif.got.tgz:61543.got - 2010.06.03 15:47:04.
