data_PCOD9474652
_publ_section_title
;
Structure prediction by ZEFSAII (Michael W. Deem and Ramdas Pophale) SiO2 
 PCOD9474652
Probable space group: C M C M
;
_chemical_formula_sum "Si O2"
_cell_formula_units_Z 64
_cell_length_a 11.369937
_cell_length_b 14.025270
_cell_length_c 18.855845
_cell_angle_alpha 90.000000
_cell_angle_beta 90.000000
_cell_angle_gamma 90.000000
_cell_volume 3006.874406
_symmetry_space_group_name_H-M "C M C M"
_symmetry_group_IT_number 63
_symmetry_cell_setting 'orthorhombic'
loop_
_space_group_symop_operation_xyz
x,y,z
-x,-y,1/2+z
x,-y,-z
-x,y,1/2-z
-x,-y,-z
x,y,1/2-z
-x,y,z
x,-y,1/2+z
1/2+x,1/2+y,z
1/2-x,1/2-y,1/2+z
1/2+x,1/2-y,-z
1/2-x,1/2+y,1/2-z
1/2-x,1/2-y,-z
1/2+x,1/2+y,1/2-z
1/2-x,1/2+y,z
1/2+x,1/2-y,1/2+z
loop_
_atom_site_type_symbol
_atom_site_label
_atom_site_fract_x
_atom_site_fract_y
_atom_site_fract_z
Si Si1 0.700337 0.374950 0.831779
Si Si2 0.871858 0.090318 0.666844
Si Si3 0.864445 0.403330 0.962859
Si Si4 0.629847 0.179238 0.608945
O O1 0.738919 0.365201 0.750000
O O2 0.633983 0.475556 0.837717
O O3 0.802188 0.379295 0.890183
O O4 0.629075 0.282249 0.855201
O O5 0.870529 0.116021 0.750000
O O6 0.749276 0.128898 0.635656
O O7 0.000000 0.122461 0.637137
O O8 0.000000 0.422112 0.947340
O O9 0.815601 0.500000 0.000000
O O10 0.859249 0.322853 0.023607
O O11 0.500000 0.133993 0.624252
#
# Coordination Sequence:
#
# PCOD9474652 Si02
#       4
#    16  16  16  16
#     4  11  23  40  65  96 130 171 220 271 328 391
#     4  10  22  40  61  91 133 172 212 269 328 385
#     4  10  21  41  66  96 135 174 219 274 328 390
#     4  11  23  42  69  95 128 174 221 270 327 393
#
# _framework density 21.284559999999999
#
# number of rings (size 3 to 8) (size 9 to 14) (size 15 to 20)
#    0.000    1.500    2.500    2.250    0.000    4.500 
#    0.000    6.250    0.000    0.000    0.000    0.000 
#    0.000    0.000    0.000    0.000    0.000    0.000 
#
# Total GULP energy -178456.119845 kJ/mol
# GULP energy per Si atom -5576.753745 kJ/mol
# Density = 2.123612 g / cm^3
# Si number density = 21.284560 Si / 1000 Ang^3
#
#
#
# Elastic Constant Matrix: (Units=GPa)
#
#
# Indices 1 2 3 4 5 6 
#
# 1 188.0134 51.5865 84.6364 0.0000 0.0000 0.0000
# 2 51.5865 70.5349 25.6501 0.0000 0.0000 0.0000
# 3 84.6364 25.6501 140.3025 0.0000 0.0000 0.0000
# 4 0.0000 0.0000 0.0000 35.7854 0.0000 0.0000
# 5 0.0000 0.0000 0.0000 0.0000 4.4962 0.0000
# 6 0.0000 0.0000 0.0000 0.0000 0.0000 16.2360
#
#
#
# Elastic Compliance Matrix: (Units=1/GPa)
#
#
# Indices 1 2 3 4 5 6 
#
# 1 0.008536 -0.004682 -0.004293 0.000000 0.000000 0.000000
# 2 -0.004682 0.017755 -0.000422 0.000000 0.000000 0.000000
# 3 -0.004293 -0.000422 0.009795 0.000000 0.000000 0.000000
# 4 0.000000 0.000000 0.000000 0.027944 0.000000 0.000000
# 5 0.000000 0.000000 0.000000 0.000000 0.222408 0.000000
# 6 0.000000 0.000000 0.000000 0.000000 0.000000 0.061591
#
#
# Mechanical properties :
#
#
# Convention : Reuss Voigt Hill
#
# Bulk Modulus (GPa) = 57.83125 80.28857 69.05991
# Shear Modulus (GPa) = 13.41969 27.10204 20.26086
#
# Velocity S-wave (km/s) = 2.51368 3.57223 3.08864
# Velocity P-wave (km/s) = 5.97112 7.40391 6.72578
#
# Compressibility (1/GPa) = 0.01729169
#
# Stress axis : x y z
#
# Youngs Moduli (GPa) = 117.15066 56.32304 102.09793
#
# Poissons Ratio (x) = 0.26368 0.43835
# Poissons Ratio (y) = 0.54845 0.04306
# Poissons Ratio (z) = 0.50297 0.02376
#
# Static dielectric constant tensor:
#      x y z
#    x 1.808410 0.000000 0.000000 
#    y 0.000000 1.834150 0.000000 
#    z 0.000000 0.000000 1.736220 
# 
# From -- ./inp_files/41488.got.cif
#   From: 2010.05.17/outbox.cif.g08.bks.cpg/sg63_21_cif.got.tgz:41488.got - 2010.06.03 15:47:04.
