data_PCOD9474517
_publ_section_title
;
Structure prediction by ZEFSAII (Michael W. Deem and Ramdas Pophale) SiO2 
 PCOD9474517
Probable space group: C M C M
;
_chemical_formula_sum "Si O2"
_cell_formula_units_Z 104
_cell_length_a 19.098020
_cell_length_b 26.690200
_cell_length_c 10.558730
_cell_angle_alpha 90.000000
_cell_angle_beta 90.000000
_cell_angle_gamma 90.000000
_cell_volume 5382.101162
_symmetry_space_group_name_H-M "C M C M"
_symmetry_group_IT_number 63
_symmetry_cell_setting 'orthorhombic'
loop_
_space_group_symop_operation_xyz
x,y,z
-x,-y,1/2+z
x,-y,-z
-x,y,1/2-z
-x,-y,-z
x,y,1/2-z
-x,y,z
x,-y,1/2+z
1/2+x,1/2+y,z
1/2-x,1/2-y,1/2+z
1/2+x,1/2-y,-z
1/2-x,1/2+y,1/2-z
1/2-x,1/2-y,-z
1/2+x,1/2+y,1/2-z
1/2-x,1/2+y,z
1/2+x,1/2-y,1/2+z
loop_
_atom_site_type_symbol
_atom_site_label
_atom_site_fract_x
_atom_site_fract_y
_atom_site_fract_z
Si Si1 0.915816 0.147350 0.250000
Si Si2 0.083410 0.830163 0.029777
Si Si3 0.083732 0.970384 0.750000
Si Si4 0.583788 0.217285 0.108168
Si Si5 0.295867 0.599492 0.895283
Si Si6 0.663565 0.500000 0.000000
Si Si7 0.084444 0.539838 0.893939
Si Si8 0.846252 0.648973 0.602112
O O1 0.894302 0.171927 0.381959
O O2 0.896937 0.088674 0.250000
O O3 0.000000 0.149515 0.250000
O O4 0.096333 0.776655 0.092982
O O5 0.129164 0.874122 0.089843
O O6 0.000000 0.840846 0.037241
O O7 0.115834 0.994525 0.624337
O O8 0.000000 0.974405 0.750000
O O9 0.604997 0.201309 0.250000
O O10 0.500000 0.209855 0.096375
O O11 0.621166 0.187325 0.996758
O O12 0.284262 0.583937 0.750000
O O13 0.292524 0.550500 0.981723
O O14 0.235572 0.639477 0.924287
O O15 0.102086 0.523472 0.750000
O O16 0.117452 0.594535 0.913083
O O17 0.000000 0.544499 0.901378
O O18 0.106761 0.500000 0.000000
O O19 0.855504 0.664034 0.750000
#
# Coordination Sequence:
#
# PCOD9474517 Si02
#       8
#     8  16   8  16  16   8  16  16
#     4   9  18  34  56  87 118 148 202 255 295 351
#     4  10  21  39  63  89 121 160 203 255 306 358
#     4  11  22  38  60  89 120 158 208 263 309 359
#     4  10  22  41  65  95 124 153 198 252 307 366
#     4  11  24  41  59  86 123 166 210 251 302 365
#     4  12  23  40  58  86 125 164 206 254 306 364
#     4   9  18  34  57  85 113 146 189 238 294 353
#     4  10  23  41  60  87 123 162 202 247 299 363
#
# _framework density 19.323308000000001
#
# number of rings (size 3 to 8) (size 9 to 14) (size 15 to 20)
#    0.000    1.846    2.308    1.154    2.154    3.692 
#    2.769    1.538    0.000    0.000    0.000    0.000 
#    0.000    0.000    0.000    0.000    0.000    0.000 
#
# Total GULP energy -290339.818232 kJ/mol
# GULP energy per Si atom -5583.458043 kJ/mol
# Density = 1.927933 g / cm^3
# Si number density = 19.323308 Si / 1000 Ang^3
#
#
#
# Elastic Constant Matrix: (Units=GPa)
#
#
# Indices 1 2 3 4 5 6 
#
# 1 39.2526 27.5280 29.2672 0.0000 0.0000 0.0000
# 2 27.5280 62.5096 37.1480 0.0000 0.0000 0.0000
# 3 29.2672 37.1480 108.5363 0.0000 0.0000 0.0000
# 4 0.0000 0.0000 0.0000 32.5220 0.0000 0.0000
# 5 0.0000 0.0000 0.0000 0.0000 13.4183 0.0000
# 6 0.0000 0.0000 0.0000 0.0000 0.0000 -3.2604
#
#
#
# Elastic Compliance Matrix: (Units=1/GPa)
#
#
# Indices 1 2 3 4 5 6 
#
# 1 0.039678 -0.013953 -0.005924 0.000000 0.000000 0.000000
# 2 -0.013953 0.024989 -0.004790 0.000000 0.000000 0.000000
# 3 -0.005924 -0.004790 0.012450 0.000000 0.000000 0.000000
# 4 0.000000 0.000000 0.000000 0.030748 0.000000 0.000000
# 5 0.000000 0.000000 0.000000 0.000000 0.074525 0.000000
# 6 0.000000 0.000000 0.000000 0.000000 0.000000 -0.306708
#
#
# Mechanical properties :
#
#
# Convention : Reuss Voigt Hill
#
# Bulk Modulus (GPa) = 35.99293 44.24279 40.11786
# Shear Modulus (GPa) = -76.07862 16.29299 -29.89282
#
# Velocity S-wave (km/s) = -6.28147 2.90690 -3.93744
# Velocity P-wave (km/s) = 5.82598 5.84915 0.36776
#
# Compressibility (1/GPa) = 0.02778324
#
# Stress axis : x y z
#
# Youngs Moduli (GPa) = 25.20272 40.01756 80.31871
#
# Poissons Ratio (x) = 0.55837 0.47578
# Poissons Ratio (y) = 0.35166 0.38475
# Poissons Ratio (z) = 0.14929 0.19170
#
# Static dielectric constant tensor:
#      x y z
#    x 1.680260 0.000000 0.000000 
#    y 0.000000 1.653230 0.000000 
#    z 0.000000 0.000000 1.687270 
# 
# From -- ./inp_files/8852.got.cif
#   From: 2010.05.17/outbox.cif.g08.bks.cpg/sg63_5_cif.got.tgz:8852.got - 2010.06.03 15:47:04.
