data_PCOD9474640
_publ_section_title
;
Structure prediction by ZEFSAII (Michael W. Deem and Ramdas Pophale) SiO2 
 PCOD9474640
Probable space group: C M C M
;
_chemical_formula_sum "Si O2"
_cell_formula_units_Z 96
_cell_length_a 16.197897
_cell_length_b 16.657524
_cell_length_c 18.447366
_cell_angle_alpha 90.000000
_cell_angle_beta 90.000000
_cell_angle_gamma 90.000000
_cell_volume 4977.410333
_symmetry_space_group_name_H-M "C M C M"
_symmetry_group_IT_number 63
_symmetry_cell_setting 'orthorhombic'
loop_
_space_group_symop_operation_xyz
x,y,z
-x,-y,1/2+z
x,-y,-z
-x,y,1/2-z
-x,-y,-z
x,y,1/2-z
-x,y,z
x,-y,1/2+z
1/2+x,1/2+y,z
1/2-x,1/2-y,1/2+z
1/2+x,1/2-y,-z
1/2-x,1/2+y,1/2-z
1/2-x,1/2-y,-z
1/2+x,1/2+y,1/2-z
1/2-x,1/2+y,z
1/2+x,1/2-y,1/2+z
loop_
_atom_site_type_symbol
_atom_site_label
_atom_site_fract_x
_atom_site_fract_y
_atom_site_fract_z
Si Si1 0.816856 0.369615 0.336298
Si Si2 0.500000 0.577194 0.337334
Si Si3 0.401678 0.039799 0.165355
Si Si4 0.793173 0.660640 0.079359
Si Si5 0.325547 0.656099 0.554180
Si Si6 0.361236 0.301377 0.835223
Si Si7 0.500000 0.567431 0.938337
O O1 0.803943 0.360812 0.250000
O O2 0.866666 0.450806 0.348237
O O3 0.729652 0.370592 0.377191
O O4 0.866952 0.290345 0.362857
O O5 0.500000 0.574307 0.250000
O O6 0.577683 0.630494 0.364022
O O7 0.500000 0.487312 0.366353
O O8 0.381202 0.060538 0.250000
O O9 0.500000 0.040609 0.159228
O O10 0.360507 0.098881 0.107359
O O11 0.829748 0.746814 0.056224
O O12 0.731816 0.674944 0.146910
O O13 0.731606 0.633452 0.014944
O O14 0.416046 0.618361 0.555391
O O15 0.377491 0.298301 0.750000
O O16 0.500000 0.500000 0.000000
#
# Coordination Sequence:
#
# PCOD9474640 Si02
#       7
#    16   8  16  16  16  16   8
#     4   9  20  38  61  88 120 156 201 252 302 354
#     4  10  22  36  58  91 120 157 206 251 298 357
#     4  10  22  38  64  95 121 153 194 246 304 358
#     4  10  21  41  62  86 118 156 202 245 298 375
#     4  10  24  41  62  86 117 162 202 246 304 359
#     4   9  18  35  59  84 116 157 199 248 300 351
#     4  12  26  40  60  87 122 158 198 253 302 356
#
# _framework density 19.287139
#
# number of rings (size 3 to 8) (size 9 to 14) (size 15 to 20)
#    0.000    2.167    0.000    1.500    7.000    1.333 
#    0.000    1.667    0.000    0.000    0.000    0.000 
#    0.000    0.000    0.000    0.000    0.000    0.000 
#
# Total GULP energy -267740.128168 kJ/mol
# GULP energy per Si atom -5577.919337 kJ/mol
# Density = 1.924324 g / cm^3
# Si number density = 19.287139 Si / 1000 Ang^3
#
#
#
# Elastic Constant Matrix: (Units=GPa)
#
#
# Indices 1 2 3 4 5 6 
#
# 1 132.2577 88.8683 49.9164 0.0000 0.0000 0.0000
# 2 88.8683 101.2843 52.0422 0.0000 0.0000 0.0000
# 3 49.9164 52.0422 55.3149 0.0000 0.0000 0.0000
# 4 0.0000 0.0000 0.0000 26.8947 0.0000 0.0000
# 5 0.0000 0.0000 0.0000 0.0000 27.2267 0.0000
# 6 0.0000 0.0000 0.0000 0.0000 0.0000 34.5753
#
#
#
# Elastic Compliance Matrix: (Units=1/GPa)
#
#
# Indices 1 2 3 4 5 6 
#
# 1 0.018639 -0.014929 -0.002775 0.000000 0.000000 0.000000
# 2 -0.014929 0.031069 -0.015760 0.000000 0.000000 0.000000
# 3 -0.002775 -0.015760 0.035409 0.000000 0.000000 0.000000
# 4 0.000000 0.000000 0.000000 0.037182 0.000000 0.000000
# 5 0.000000 0.000000 0.000000 0.000000 0.036729 0.000000
# 6 0.000000 0.000000 0.000000 0.000000 0.000000 0.028922
#
#
# Mechanical properties :
#
#
# Convention : Reuss Voigt Hill
#
# Bulk Modulus (GPa) = 54.96855 74.50117 64.73486
# Shear Modulus (GPa) = 19.16141 24.27468 21.71805
#
# Velocity S-wave (km/s) = 3.15537 3.55152 3.35929
# Velocity P-wave (km/s) = 6.46816 7.45177 6.97732
#
# Compressibility (1/GPa) = 0.01819222
#
# Stress axis : x y z
#
# Youngs Moduli (GPa) = 53.65018 32.18605 28.24105
#
# Poissons Ratio (x) = 0.48049 0.07836
# Poissons Ratio (y) = 0.80092 0.44507
# Poissons Ratio (z) = 0.14887 0.50724
#
# Static dielectric constant tensor:
#      x y z
#    x 1.641390 0.000000 0.000000 
#    y 0.000000 1.688400 0.000000 
#    z 0.000000 0.000000 1.736020 
# 
# From -- ./inp_files/54250.got.cif
#   From: 2010.05.17/outbox.cif.g08.bks.cpg/sg63_28_cif.got.tgz:54250.got - 2010.06.03 15:47:04.
