data_PCOD9474922
_publ_section_title
;
Structure prediction by ZEFSAII (Michael W. Deem and Ramdas Pophale) SiO2 
 PCOD9474922
Probable space group: C M C M
;
_chemical_formula_sum "Si O2"
_cell_formula_units_Z 68
_cell_length_a 9.832278
_cell_length_b 20.434907
_cell_length_c 17.417936
_cell_angle_alpha 90.000000
_cell_angle_beta 90.000000
_cell_angle_gamma 90.000000
_cell_volume 3499.641077
_symmetry_space_group_name_H-M "C M C M"
_symmetry_group_IT_number 63
_symmetry_cell_setting 'orthorhombic'
loop_
_space_group_symop_operation_xyz
x,y,z
-x,-y,1/2+z
x,-y,-z
-x,y,1/2-z
-x,-y,-z
x,y,1/2-z
-x,y,z
x,-y,1/2+z
1/2+x,1/2+y,z
1/2-x,1/2-y,1/2+z
1/2+x,1/2-y,-z
1/2-x,1/2+y,1/2-z
1/2-x,1/2-y,-z
1/2+x,1/2+y,1/2-z
1/2-x,1/2+y,z
1/2+x,1/2-y,1/2+z
loop_
_atom_site_type_symbol
_atom_site_label
_atom_site_fract_x
_atom_site_fract_y
_atom_site_fract_z
Si Si1 0.500000 0.588771 0.334420
Si Si2 0.721752 0.989230 0.838199
Si Si3 0.500000 0.187562 0.941666
Si Si4 0.500000 0.665591 0.008821
Si Si5 0.000000 0.160557 0.750000
Si Si6 0.222993 0.137276 0.884940
Si Si7 0.000000 0.563722 0.446167
O O1 0.500000 0.621351 0.250000
O O2 0.629309 0.541544 0.338483
O O3 0.500000 0.637156 0.405628
O O4 0.673258 0.991516 0.750000
O O5 0.628767 0.944077 0.890870
O O6 0.730165 0.062698 0.870108
O O7 0.360708 0.179270 0.893488
O O8 0.500000 0.256257 0.985191
O O9 0.500000 0.128218 0.002915
O O10 0.633313 0.642164 0.962406
O O11 0.120100 0.157453 0.817203
O O12 0.000000 0.500000 0.500000
#
# Coordination Sequence:
#
# PCOD9474922 Si02
#       7
#     8  16   8   8   4  16   8
#     4  10  23  40  63  92 128 168 213 269 336 397
#     4  11  22  39  65  96 131 162 212 277 331 389
#     4  12  25  42  64  95 133 176 224 271 321 399
#     4  11  25  42  64  93 133 178 224 272 319 390
#     4  10  22  40  62 100 128 160 216 270 340 378
#     4  11  22  40  69  95 130 170 217 276 327 391
#     4  12  23  39  63  98 127 164 215 267 336 390
#
# _framework density 19.430564
#
# number of rings (size 3 to 8) (size 9 to 14) (size 15 to 20)
#    0.000    0.941    3.529    3.882    1.647    1.412 
#    2.118    0.000   15.529    0.000    0.000    0.000 
#    0.000    0.000    0.000    0.000    0.000    0.000 
#
# Total GULP energy -189488.980247 kJ/mol
# GULP energy per Si atom -5573.205301 kJ/mol
# Density = 1.938634 g / cm^3
# Si number density = 19.430564 Si / 1000 Ang^3
#
#
#
# Elastic Constant Matrix: (Units=GPa)
#
#
# Indices 1 2 3 4 5 6 
#
# 1 108.0714 -29.1365 24.7811 0.0000 0.0000 0.0000
# 2 -29.1365 47.4746 20.6794 0.0000 0.0000 0.0000
# 3 24.7811 20.6794 118.4842 0.0000 0.0000 0.0000
# 4 0.0000 0.0000 0.0000 15.2173 0.0000 0.0000
# 5 0.0000 0.0000 0.0000 0.0000 50.5305 0.0000
# 6 0.0000 0.0000 0.0000 0.0000 0.0000 3.6701
#
#
#
# Elastic Compliance Matrix: (Units=1/GPa)
#
#
# Indices 1 2 3 4 5 6 
#
# 1 0.012926 0.009860 -0.004424 0.000000 0.000000 0.000000
# 2 0.009860 0.030319 -0.007354 0.000000 0.000000 0.000000
# 3 -0.004424 -0.007354 0.010649 0.000000 0.000000 0.000000
# 4 0.000000 0.000000 0.000000 0.065714 0.000000 0.000000
# 5 0.000000 0.000000 0.000000 0.000000 0.019790 0.000000
# 6 0.000000 0.000000 0.000000 0.000000 0.000000 0.272476
#
#
# Mechanical properties :
#
#
# Convention : Reuss Voigt Hill
#
# Bulk Modulus (GPa) = 19.97703 34.07536 27.02620
# Shear Modulus (GPa) = 11.56348 31.06400 21.31374
#
# Velocity S-wave (km/s) = 2.44215 4.00274 3.31557
# Velocity P-wave (km/s) = 4.27267 6.24000 5.34758
#
# Compressibility (1/GPa) = 0.05005748
#
# Stress axis : x y z
#
# Youngs Moduli (GPa) = 77.36312 32.98297 93.90715
#
# Poissons Ratio (x) = -0.32522 0.41549
# Poissons Ratio (y) = -0.76282 0.69058
# Poissons Ratio (z) = 0.34229 0.24255
#
# Static dielectric constant tensor:
#      x y z
#    x 1.674170 0.000000 0.000000 
#    y 0.000000 1.639730 0.000000 
#    z 0.000000 0.000000 1.686070 
# 
# From -- ./inp_files/40050.got.cif
#   From: 2010.05.17/outbox.cif.g08.bks.cpg/sg63_21_cif.got.tgz:40050.got - 2010.06.03 15:47:04.
