data_PCOD9474931
_publ_section_title
;
Structure prediction by ZEFSAII (Michael W. Deem and Ramdas Pophale) SiO2 
 PCOD9474931
Probable space group: C M C M
;
_chemical_formula_sum "Si O2"
_cell_formula_units_Z 96
_cell_length_a 20.678157
_cell_length_b 14.543404
_cell_length_c 17.578404
_cell_angle_alpha 90.000000
_cell_angle_beta 90.000000
_cell_angle_gamma 90.000000
_cell_volume 5286.367343
_symmetry_space_group_name_H-M "C M C M"
_symmetry_group_IT_number 63
_symmetry_cell_setting 'orthorhombic'
loop_
_space_group_symop_operation_xyz
x,y,z
-x,-y,1/2+z
x,-y,-z
-x,y,1/2-z
-x,-y,-z
x,y,1/2-z
-x,y,z
x,-y,1/2+z
1/2+x,1/2+y,z
1/2-x,1/2-y,1/2+z
1/2+x,1/2-y,-z
1/2-x,1/2+y,1/2-z
1/2-x,1/2-y,-z
1/2+x,1/2+y,1/2-z
1/2-x,1/2+y,z
1/2+x,1/2-y,1/2+z
loop_
_atom_site_type_symbol
_atom_site_label
_atom_site_fract_x
_atom_site_fract_y
_atom_site_fract_z
Si Si1 0.733714 0.230351 0.411943
Si Si2 0.624762 0.712997 0.159463
Si Si3 0.807005 0.524269 0.088343
Si Si4 0.926260 0.581991 0.659039
Si Si5 0.312029 0.586362 0.839382
Si Si6 0.424134 0.473279 0.912116
O O1 0.750000 0.250000 0.500000
O O2 0.800747 0.223873 0.365259
O O3 0.697599 0.133656 0.403392
O O4 0.693982 0.316232 0.380761
O O5 0.619966 0.692273 0.250000
O O6 0.590511 0.810781 0.145228
O O7 0.594164 0.631194 0.109927
O O8 0.873334 0.480734 0.118341
O O9 0.747349 0.476964 0.132221
O O10 0.798987 0.500000 0.000000
O O11 0.921016 0.568105 0.750000
O O12 0.000000 0.562991 0.635728
O O13 0.306125 0.599380 0.750000
O O14 0.378137 0.536297 0.861161
O O15 0.500000 0.487678 0.898281
O O16 0.410479 0.500000 0.000000
#
# Coordination Sequence:
#
# PCOD9474931 Si02
#       6
#    16  16  16  16  16  16
#     4  12  23  39  63  93 129 163 206 256 311 372
#     4  11  21  37  64  93 123 161 210 268 318 363
#     4  12  23  40  65  92 123 166 206 255 308 373
#     4  10  22  40  62  92 128 161 204 261 314 368
#     4  12  24  39  62  93 128 163 205 259 313 370
#     4  11  24  41  62  90 127 170 213 260 317 377
#
# _framework density 18.159918000000001
#
# number of rings (size 3 to 8) (size 9 to 14) (size 15 to 20)
#    0.000    0.667    5.000    3.500    0.000    4.333 
#    0.000    0.833    0.000    0.000    0.000    0.000 
#    0.000    0.000    0.000    0.000    0.000    0.000 
#
# Total GULP energy -268452.071783 kJ/mol
# GULP energy per Si atom -5592.751495 kJ/mol
# Density = 1.811859 g / cm^3
# Si number density = 18.159918 Si / 1000 Ang^3
#
#
#
# Elastic Constant Matrix: (Units=GPa)
#
#
# Indices 1 2 3 4 5 6 
#
# 1 59.5306 28.2549 12.3472 0.0000 0.0000 0.0000
# 2 28.2549 138.9813 38.3530 0.0000 0.0000 0.0000
# 3 12.3472 38.3530 77.3472 0.0000 0.0000 0.0000
# 4 0.0000 0.0000 0.0000 24.3037 0.0000 0.0000
# 5 0.0000 0.0000 0.0000 0.0000 28.8065 0.0000
# 6 0.0000 0.0000 0.0000 0.0000 0.0000 13.3732
#
#
#
# Elastic Compliance Matrix: (Units=1/GPa)
#
#
# Indices 1 2 3 4 5 6 
#
# 1 0.018700 -0.003450 -0.001274 0.000000 0.000000 0.000000
# 2 -0.003450 0.008972 -0.003898 0.000000 0.000000 0.000000
# 3 -0.001274 -0.003898 0.015065 0.000000 0.000000 0.000000
# 4 0.000000 0.000000 0.000000 0.041146 0.000000 0.000000
# 5 0.000000 0.000000 0.000000 0.000000 0.034714 0.000000
# 6 0.000000 0.000000 0.000000 0.000000 0.000000 0.074776
#
#
# Mechanical properties :
#
#
# Convention : Reuss Voigt Hill
#
# Bulk Modulus (GPa) = 39.22797 48.19658 43.71228
# Shear Modulus (GPa) = 22.81888 26.42361 24.62125
#
# Velocity S-wave (km/s) = 3.54863 3.81865 3.68612
# Velocity P-wave (km/s) = 6.19989 6.78532 6.49920
#
# Compressibility (1/GPa) = 0.02549201
#
# Stress axis : x y z
#
# Youngs Moduli (GPa) = 53.47627 111.45346 66.37846
#
# Poissons Ratio (x) = 0.38452 0.08459
# Poissons Ratio (y) = 0.18449 0.25876
# Poissons Ratio (z) = 0.06815 0.43447
#
# Static dielectric constant tensor:
#      x y z
#    x 1.598840 0.000000 0.000000 
#    y 0.000000 1.609840 0.000000 
#    z 0.000000 0.000000 1.609930 
# 
# From -- ./inp_files/35362.got.cif
#   From: 2010.05.17/outbox.cif.g08.bks.cpg/sg63_18_cif.got.tgz:35362.got - 2010.06.03 15:47:04.
