data_PCOD9474146
_publ_section_title
;
Structure prediction by ZEFSAII (Michael W. Deem and Ramdas Pophale) SiO2 
 PCOD9474146
Probable space group: C M C M
;
_chemical_formula_sum "Si O2"
_cell_formula_units_Z 56
_cell_length_a 11.009085
_cell_length_b 19.445106
_cell_length_c 11.722044
_cell_angle_alpha 90.000000
_cell_angle_beta 90.000000
_cell_angle_gamma 90.000000
_cell_volume 2509.371071
_symmetry_space_group_name_H-M "C M C M"
_symmetry_group_IT_number 63
_symmetry_cell_setting 'orthorhombic'
loop_
_space_group_symop_operation_xyz
x,y,z
-x,-y,1/2+z
x,-y,-z
-x,y,1/2-z
-x,-y,-z
x,y,1/2-z
-x,y,z
x,-y,1/2+z
1/2+x,1/2+y,z
1/2-x,1/2-y,1/2+z
1/2+x,1/2-y,-z
1/2-x,1/2+y,1/2-z
1/2-x,1/2-y,-z
1/2+x,1/2+y,1/2-z
1/2-x,1/2+y,z
1/2+x,1/2-y,1/2+z
loop_
_atom_site_type_symbol
_atom_site_label
_atom_site_fract_x
_atom_site_fract_y
_atom_site_fract_z
Si Si1 0.858801 0.519752 0.126758
Si Si2 0.500000 0.545280 0.382896
Si Si3 0.271907 0.644417 0.080010
Si Si4 0.360657 0.202434 0.877920
O O1 0.808042 0.494261 0.250000
O O2 0.841229 0.602137 0.129440
O O3 0.000000 0.499705 0.125138
O O4 0.809124 0.500000 0.000000
O O5 0.500000 0.500000 0.500000
O O6 0.500000 0.516886 0.250000
O O7 0.616752 0.594362 0.394354
O O8 0.309520 0.719738 0.122123
O O9 0.231568 0.657387 0.950503
O O10 0.365924 0.176746 0.750000
O O11 0.500000 0.202958 0.923292
#
# Coordination Sequence:
#
# PCOD9474146 Si02
#       4
#    16   8  16  16
#     4  10  21  37  58  85 117 156 205 260 315 374
#     4  12  26  44  68  96 136 182 223 270 329 396
#     4  11  22  38  63  90 125 167 214 261 325 393
#     4  10  21  39  64  92 126 167 214 271 331 391
#
# _framework density 22.31635
#
# number of rings (size 3 to 8) (size 9 to 14) (size 15 to 20)
#    0.000    1.429    1.429    4.286    0.000    2.286 
#    0.000    2.857    0.000    0.000    0.000    0.000 
#    0.000    0.000    0.000    0.000    0.000    0.000 
#
# Total GULP energy -155943.558241 kJ/mol
# GULP energy per Si atom -5569.412794 kJ/mol
# Density = 2.226556 g / cm^3
# Si number density = 22.316350 Si / 1000 Ang^3
#
#
#
# Elastic Constant Matrix: (Units=GPa)
#
#
# Indices 1 2 3 4 5 6 
#
# 1 54.4844 0.5589 38.3524 0.0000 0.0000 0.0000
# 2 0.5589 67.2097 43.2230 0.0000 0.0000 0.0000
# 3 38.3524 43.2230 214.4555 0.0000 0.0000 0.0000
# 4 0.0000 0.0000 0.0000 0.9519 0.0000 0.0000
# 5 0.0000 0.0000 0.0000 0.0000 17.5912 0.0000
# 6 0.0000 0.0000 0.0000 0.0000 0.0000 27.0042
#
#
#
# Elastic Compliance Matrix: (Units=1/GPa)
#
#
# Indices 1 2 3 4 5 6 
#
# 1 0.021392 0.002622 -0.004354 0.000000 0.000000 0.000000
# 2 0.002622 0.017416 -0.003979 0.000000 0.000000 0.000000
# 3 -0.004354 -0.003979 0.006244 0.000000 0.000000 0.000000
# 4 0.000000 0.000000 0.000000 1.050560 0.000000 0.000000
# 5 0.000000 0.000000 0.000000 0.000000 0.056846 0.000000
# 6 0.000000 0.000000 0.000000 0.000000 0.000000 0.037031
#
#
# Mechanical properties :
#
#
# Convention : Reuss Voigt Hill
#
# Bulk Modulus (GPa) = 29.73569 55.60204 42.66887
# Shear Modulus (GPa) = 4.12500 26.04381 15.08441
#
# Velocity S-wave (km/s) = 1.36104 3.41989 2.60270
# Velocity P-wave (km/s) = 3.97787 6.36896 5.30976
#
# Compressibility (1/GPa) = 0.03362962
#
# Stress axis : x y z
#
# Youngs Moduli (GPa) = 46.74654 57.41849 160.16296
#
# Poissons Ratio (x) = -0.15057 0.69738
# Poissons Ratio (y) = -0.12258 0.63731
# Poissons Ratio (z) = 0.20354 0.22848
#
# Static dielectric constant tensor:
#      x y z
#    x 1.860000 0.000000 0.000000 
#    y 0.000000 1.827410 0.000000 
#    z 0.000000 0.000000 2.827830 
# 
# From -- ./inp_files/16995.got.cif
#   From: 2010.05.17/outbox.cif.g08.bks.cpg/sg63_9_cif.got.tgz:16995.got - 2010.06.03 15:47:04.
