data_PCOD9474943
_publ_section_title
;
Structure prediction by ZEFSAII (Michael W. Deem and Ramdas Pophale) SiO2 
 PCOD9474943
Probable space group: C M C M
;
_chemical_formula_sum "Si O2"
_cell_formula_units_Z 68
_cell_length_a 10.209567
_cell_length_b 19.547773
_cell_length_c 15.024656
_cell_angle_alpha 90.000000
_cell_angle_beta 90.000000
_cell_angle_gamma 90.000000
_cell_volume 2998.535176
_symmetry_space_group_name_H-M "C M C M"
_symmetry_group_IT_number 63
_symmetry_cell_setting 'orthorhombic'
loop_
_space_group_symop_operation_xyz
x,y,z
-x,-y,1/2+z
x,-y,-z
-x,y,1/2-z
-x,-y,-z
x,y,1/2-z
-x,y,z
x,-y,1/2+z
1/2+x,1/2+y,z
1/2-x,1/2-y,1/2+z
1/2+x,1/2-y,-z
1/2-x,1/2+y,1/2-z
1/2-x,1/2-y,-z
1/2+x,1/2+y,1/2-z
1/2-x,1/2+y,z
1/2+x,1/2-y,1/2+z
loop_
_atom_site_type_symbol
_atom_site_label
_atom_site_fract_x
_atom_site_fract_y
_atom_site_fract_z
Si Si1 0.850356 0.079332 0.104963
Si Si2 0.300932 0.422550 0.396802
Si Si3 0.500000 0.624734 0.750000
Si Si4 0.649198 0.801384 0.644646
Si Si5 0.358156 0.806040 0.142249
O O1 0.738783 0.131286 0.136207
O O2 0.000000 0.093125 0.136237
O O3 0.811446 0.001788 0.130506
O O4 0.849752 0.081659 0.997703
O O5 0.388561 0.381212 0.327632
O O6 0.163560 0.383474 0.390334
O O7 0.635209 0.786550 0.750000
O O8 0.500000 0.806333 0.609540
O O9 0.740965 0.741363 0.606823
O O10 0.357693 0.804509 0.250000
O O11 0.500000 0.779323 0.113449
#
# Coordination Sequence:
#
# PCOD9474943 Si02
#       5
#    16  16   4  16  16
#     4  11  23  41  61  95 130 164 209 260 314 379
#     4  11  23  38  66  93 127 163 214 255 316 378
#     4  12  20  38  66 100 118 172 206 260 314 370
#     4  10  24  41  64  91 126 169 216 262 318 379
#     4  10  22  40  63  94 124 163 214 266 312 373
#
# _framework density 22.67774
#
# number of rings (size 3 to 8) (size 9 to 14) (size 15 to 20)
#    0.000    1.412    3.529    1.412    3.294    4.235 
#    0.000    4.706    0.000    0.000    0.000    0.000 
#    0.000    0.000    0.000    0.000    0.000    0.000 
#
# Total GULP energy -189411.419783 kJ/mol
# GULP energy per Si atom -5570.924111 kJ/mol
# Density = 2.262612 g / cm^3
# Si number density = 22.677740 Si / 1000 Ang^3
#
#
#
# Elastic Constant Matrix: (Units=GPa)
#
#
# Indices 1 2 3 4 5 6 
#
# 1 216.3941 96.7347 8.1942 0.0000 0.0000 0.0000
# 2 96.7347 93.1474 -8.0990 0.0000 0.0000 0.0000
# 3 8.1942 -8.0990 57.7701 0.0000 0.0000 0.0000
# 4 0.0000 0.0000 0.0000 27.6297 0.0000 0.0000
# 5 0.0000 0.0000 0.0000 0.0000 17.6757 0.0000
# 6 0.0000 0.0000 0.0000 0.0000 0.0000 12.5848
#
#
#
# Elastic Compliance Matrix: (Units=1/GPa)
#
#
# Indices 1 2 3 4 5 6 
#
# 1 0.009001 -0.009575 -0.002619 0.000000 0.000000 0.000000
# 2 -0.009575 0.021054 0.004310 0.000000 0.000000 0.000000
# 3 -0.002619 0.004310 0.018286 0.000000 0.000000 0.000000
# 4 0.000000 0.000000 0.000000 0.036193 0.000000 0.000000
# 5 0.000000 0.000000 0.000000 0.000000 0.056575 0.000000
# 6 0.000000 0.000000 0.000000 0.000000 0.000000 0.079461
#
#
# Mechanical properties :
#
#
# Convention : Reuss Voigt Hill
#
# Bulk Modulus (GPa) = 30.70118 62.33015 46.51567
# Shear Modulus (GPa) = 20.22689 29.61013 24.91851
#
# Velocity S-wave (km/s) = 2.98975 3.61736 3.31843
# Velocity P-wave (km/s) = 5.04833 6.70760 5.93622
#
# Compressibility (1/GPa) = 0.03257204
#
# Stress axis : x y z
#
# Youngs Moduli (GPa) = 111.10212 47.49634 54.68759
#
# Poissons Ratio (x) = 0.45478 0.14323
# Poissons Ratio (y) = 1.06381 -0.23569
# Poissons Ratio (z) = 0.29098 -0.20470
#
# Static dielectric constant tensor:
#      x y z
#    x 1.927630 0.000000 0.000000 
#    y 0.000000 1.888070 0.000000 
#    z 0.000000 0.000000 1.831040 
# 
# From -- ./inp_files/39967.got.cif
#   From: 2010.05.17/outbox.cif.g08.bks.cpg/sg63_20_cif.got.tgz:39967.got - 2010.06.03 15:47:04.
