data_PCOD9474010
_publ_section_title
;
Structure prediction by ZEFSAII (Michael W. Deem and Ramdas Pophale) SiO2 
 PCOD9474010
Probable space group: C M C M
;
_chemical_formula_sum "Si O2"
_cell_formula_units_Z 116
_cell_length_a 20.058302
_cell_length_b 16.923817
_cell_length_c 18.704956
_cell_angle_alpha 90.000000
_cell_angle_beta 90.000000
_cell_angle_gamma 90.000000
_cell_volume 6349.641084
_symmetry_space_group_name_H-M "C M C M"
_symmetry_group_IT_number 63
_symmetry_cell_setting 'orthorhombic'
loop_
_space_group_symop_operation_xyz
x,y,z
-x,-y,1/2+z
x,-y,-z
-x,y,1/2-z
-x,-y,-z
x,y,1/2-z
-x,y,z
x,-y,1/2+z
1/2+x,1/2+y,z
1/2-x,1/2-y,1/2+z
1/2+x,1/2-y,-z
1/2-x,1/2+y,1/2-z
1/2-x,1/2-y,-z
1/2+x,1/2+y,1/2-z
1/2-x,1/2+y,z
1/2+x,1/2-y,1/2+z
loop_
_atom_site_type_symbol
_atom_site_label
_atom_site_fract_x
_atom_site_fract_y
_atom_site_fract_z
Si Si1 0.421872 0.675260 0.524619
Si Si2 0.166618 0.038072 0.920846
Si Si3 0.147778 0.666204 0.436071
Si Si4 0.576119 0.992892 0.586608
Si Si5 0.238658 0.769090 0.667580
Si Si6 0.000000 0.140097 0.250000
Si Si7 0.807885 0.611107 0.591911
Si Si8 0.883217 0.120383 0.134801
O O1 0.500000 0.660253 0.535514
O O2 0.376596 0.617711 0.573148
O O3 0.403407 0.765836 0.539804
O O4 0.402219 0.653836 0.443430
O O5 0.242124 0.057665 0.899748
O O6 0.131376 0.972813 0.872290
O O7 0.168910 0.000000 0.000000
O O8 0.109880 0.592164 0.400852
O O9 0.200366 0.705758 0.382854
O O10 0.184764 0.635544 0.508146
O O11 0.500000 0.998722 0.612908
O O12 0.573724 0.000000 0.500000
O O13 0.625915 0.062024 0.611632
O O14 0.258444 0.758883 0.750000
O O15 0.204720 0.689539 0.637352
O O16 0.183852 0.837307 0.660064
O O17 0.942100 0.138256 0.188205
#
# Coordination Sequence:
#
# PCOD9474010 Si02
#       8
#    16  16  16  16  16   4  16  16
#     4  11  21  35  63  94 121 155 207 264 307 354
#     4  10  21  36  60  89 117 152 203 256 305 352
#     4  11  20  38  66  89 123 159 208 258 310 360
#     4   9  19  35  60  97 126 153 197 255 312 366
#     4  12  24  40  59  90 123 161 207 253 303 371
#     4  12  24  44  58  84 132 170 198 240 310 388
#     4  11  20  39  63  89 123 157 204 259 304 361
#     4  11  23  40  60  86 122 164 202 246 306 370
#
# _framework density 18.268749
#
# number of rings (size 3 to 8) (size 9 to 14) (size 15 to 20)
#    0.000    1.241    4.138    4.552    0.966    1.379 
#    2.483    0.690    0.000    2.483    0.000    0.000 
#    0.000    0.000    0.000    0.000    0.000    0.000 
#
# Total GULP energy -323411.645470 kJ/mol
# GULP energy per Si atom -5576.062853 kJ/mol
# Density = 1.822717 g / cm^3
# Si number density = 18.268749 Si / 1000 Ang^3
#
#
#
# Elastic Constant Matrix: (Units=GPa)
#
#
# Indices 1 2 3 4 5 6 
#
# 1 111.0393 38.4674 31.0900 0.0000 0.0000 0.0000
# 2 38.4674 101.5859 27.4768 0.0000 0.0000 0.0000
# 3 31.0900 27.4768 58.5432 0.0000 0.0000 0.0000
# 4 0.0000 0.0000 0.0000 -2.6028 0.0000 0.0000
# 5 0.0000 0.0000 0.0000 0.0000 28.0660 0.0000
# 6 0.0000 0.0000 0.0000 0.0000 0.0000 9.6577
#
#
#
# Elastic Compliance Matrix: (Units=1/GPa)
#
#
# Indices 1 2 3 4 5 6 
#
# 1 0.011351 -0.003056 -0.004594 0.000000 0.000000 0.000000
# 2 -0.003056 0.012098 -0.004055 0.000000 0.000000 0.000000
# 3 -0.004594 -0.004055 0.021424 0.000000 0.000000 0.000000
# 4 0.000000 0.000000 0.000000 -0.384198 0.000000 0.000000
# 5 0.000000 0.000000 0.000000 0.000000 0.035630 0.000000
# 6 0.000000 0.000000 0.000000 0.000000 0.000000 0.103544
#
#
# Mechanical properties :
#
#
# Convention : Reuss Voigt Hill
#
# Bulk Modulus (GPa) = 46.59093 51.69298 49.14196
# Shear Modulus (GPa) = -29.48334 18.63313 -5.42511
#
# Velocity S-wave (km/s) = -4.02166 3.19712 -1.72513
# Velocity P-wave (km/s) = 1.99837 6.47967 4.79477
#
# Compressibility (1/GPa) = 0.02146340
#
# Stress axis : x y z
#
# Youngs Moduli (GPa) = 88.10128 82.65956 46.67607
#
# Poissons Ratio (x) = 0.25258 0.21442
# Poissons Ratio (y) = 0.26920 0.18929
# Poissons Ratio (z) = 0.40471 0.33521
#
# Static dielectric constant tensor:
#      x y z
#    x 1.618980 0.000000 0.000000 
#    y 0.000000 1.638910 0.000000 
#    z 0.000000 0.000000 1.598210 
# 
# From -- ./inp_files/45911.got.cif
#   From: 2010.05.17/outbox.cif.g08.bks.cpg/sg63_23_cif.got.tgz:45911.got - 2010.06.03 15:47:04.
