data_PCOD9474714
_publ_section_title
;
Structure prediction by ZEFSAII (Michael W. Deem and Ramdas Pophale) SiO2 
 PCOD9474714
Probable space group: C M C M
;
_chemical_formula_sum "Si O2"
_cell_formula_units_Z 72
_cell_length_a 21.863914
_cell_length_b 14.642167
_cell_length_c 9.865776
_cell_angle_alpha 90.000000
_cell_angle_beta 90.000000
_cell_angle_gamma 90.000000
_cell_volume 3158.380990
_symmetry_space_group_name_H-M "C M C M"
_symmetry_group_IT_number 63
_symmetry_cell_setting 'orthorhombic'
loop_
_space_group_symop_operation_xyz
x,y,z
-x,-y,1/2+z
x,-y,-z
-x,y,1/2-z
-x,-y,-z
x,y,1/2-z
-x,y,z
x,-y,1/2+z
1/2+x,1/2+y,z
1/2-x,1/2-y,1/2+z
1/2+x,1/2-y,-z
1/2-x,1/2+y,1/2-z
1/2-x,1/2-y,-z
1/2+x,1/2+y,1/2-z
1/2-x,1/2+y,z
1/2+x,1/2-y,1/2+z
loop_
_atom_site_type_symbol
_atom_site_label
_atom_site_fract_x
_atom_site_fract_y
_atom_site_fract_z
Si Si1 0.427174 0.203020 0.250000
Si Si2 0.655327 0.000000 0.500000
Si Si3 0.928866 0.483941 0.250000
Si Si4 0.572168 0.666568 0.250000
Si Si5 0.748176 0.654981 0.413756
Si Si6 0.377983 0.670918 0.972569
Si Si7 0.928436 0.038226 0.750000
O O1 0.500000 0.235084 0.250000
O O2 0.430520 0.094748 0.250000
O O3 0.387139 0.242847 0.126432
O O4 0.610891 0.960892 0.382664
O O5 0.699499 0.080876 0.445319
O O6 0.000000 0.451723 0.250000
O O7 0.500000 0.665732 0.250000
O O8 0.593841 0.707776 0.388962
O O9 0.597535 0.562955 0.250000
O O10 0.744543 0.669758 0.250000
O O11 0.750000 0.750000 0.500000
O O12 0.684424 0.623358 0.480125
O O13 0.411644 0.594119 0.884075
O O14 0.000000 0.027143 0.750000
#
# Coordination Sequence:
#
# PCOD9474714 Si02
#       7
#     8   8   8   8  16  16   8
#     4  10  22  44  70 101 144 194 240 299 370 434
#     4  12  27  50  78 112 155 190 246 312 378 444
#     4  11  25  49  80 110 140 184 242 306 381 451
#     4  11  21  35  56  93 136 175 237 297 336 399
#     4  12  29  48  74 108 146 195 244 301 366 439
#     4  11  22  38  64  93 138 184 244 283 352 424
#     4  10  22  36  58  90 134 187 233 286 347 410
#
# _framework density 22.796489000000001
#
# number of rings (size 3 to 8) (size 9 to 14) (size 15 to 20)
#    0.000    0.889    2.222    5.000    7.778    1.778 
#    0.000    0.000    0.000    5.333    0.000    0.000 
#    0.000    0.000    0.000    0.000    0.000    0.000 
#
# Total GULP energy -200868.899958 kJ/mol
# GULP energy per Si atom -5579.691666 kJ/mol
# Density = 2.274460 g / cm^3
# Si number density = 22.796489 Si / 1000 Ang^3
#
#
#
# Elastic Constant Matrix: (Units=GPa)
#
#
# Indices 1 2 3 4 5 6 
#
# 1 143.3520 15.6540 60.9419 0.0000 0.0000 0.0000
# 2 15.6540 67.4840 29.2394 0.0000 0.0000 0.0000
# 3 60.9419 29.2394 204.9752 0.0000 0.0000 0.0000
# 4 0.0000 0.0000 0.0000 1.2544 0.0000 0.0000
# 5 0.0000 0.0000 0.0000 0.0000 47.0582 0.0000
# 6 0.0000 0.0000 0.0000 0.0000 0.0000 22.5393
#
#
#
# Elastic Compliance Matrix: (Units=1/GPa)
#
#
# Indices 1 2 3 4 5 6 
#
# 1 0.008034 -0.000883 -0.002263 0.000000 0.000000 0.000000
# 2 -0.000883 0.015892 -0.002004 0.000000 0.000000 0.000000
# 3 -0.002263 -0.002004 0.005837 0.000000 0.000000 0.000000
# 4 0.000000 0.000000 0.000000 0.797181 0.000000 0.000000
# 5 0.000000 0.000000 0.000000 0.000000 0.021250 0.000000
# 6 0.000000 0.000000 0.000000 0.000000 0.000000 0.044367
#
#
# Mechanical properties :
#
#
# Convention : Reuss Voigt Hill
#
# Bulk Modulus (GPa) = 51.38066 69.72019 60.55043
# Shear Modulus (GPa) = 5.49844 34.83544 20.16694
#
# Velocity S-wave (km/s) = 1.55474 3.91334 2.97754
# Velocity P-wave (km/s) = 5.08042 7.14627 6.19999
#
# Compressibility (1/GPa) = 0.01946257
#
# Stress axis : x y z
#
# Youngs Moduli (GPa) = 124.46784 62.92616 171.31282
#
# Poissons Ratio (x) = 0.05558 0.38763
# Poissons Ratio (y) = 0.10994 0.34336
# Poissons Ratio (z) = 0.28163 0.12612
#
# Static dielectric constant tensor:
#      x y z
#    x 1.965580 0.000000 0.000000 
#    y 0.000000 1.910330 0.000000 
#    z 0.000000 0.000000 1.809900 
# 
# From -- ./inp_files/9919.got.cif
#   From: 2010.05.17/outbox.cif.g08.bks.cpg/sg63_5_cif.got.tgz:9919.got - 2010.06.03 15:47:04.
