data_PCOD9474016
_publ_section_title
;
Structure prediction by ZEFSAII (Michael W. Deem and Ramdas Pophale) SiO2 
 PCOD9474016
Probable space group: C M C M
;
_chemical_formula_sum "Si O2"
_cell_formula_units_Z 72
_cell_length_a 18.874946
_cell_length_b 8.040192
_cell_length_c 22.375494
_cell_angle_alpha 90.000000
_cell_angle_beta 90.000000
_cell_angle_gamma 90.000000
_cell_volume 3395.664466
_symmetry_space_group_name_H-M "C M C M"
_symmetry_group_IT_number 63
_symmetry_cell_setting 'orthorhombic'
loop_
_space_group_symop_operation_xyz
x,y,z
-x,-y,1/2+z
x,-y,-z
-x,y,1/2-z
-x,-y,-z
x,y,1/2-z
-x,y,z
x,-y,1/2+z
1/2+x,1/2+y,z
1/2-x,1/2-y,1/2+z
1/2+x,1/2-y,-z
1/2-x,1/2+y,1/2-z
1/2-x,1/2-y,-z
1/2+x,1/2+y,1/2-z
1/2-x,1/2+y,z
1/2+x,1/2-y,1/2+z
loop_
_atom_site_type_symbol
_atom_site_label
_atom_site_fract_x
_atom_site_fract_y
_atom_site_fract_z
Si Si1 0.797129 0.000000 0.000000
Si Si2 0.790748 0.423158 0.886780
Si Si3 0.922314 0.997090 0.577866
Si Si4 0.578329 0.102416 0.562311
Si Si5 0.662629 0.405383 0.320647
O O1 0.748173 0.901063 0.952253
O O2 0.855455 0.082480 0.955496
O O3 0.853714 0.551631 0.899499
O O4 0.730094 0.489429 0.842899
O O5 0.825146 0.271067 0.852142
O O6 0.920826 0.802903 0.559666
O O7 0.000000 0.066427 0.563528
O O8 0.905556 0.014070 0.647517
O O9 0.500000 0.057141 0.586697
O O10 0.584490 0.000000 0.500000
O O11 0.657981 0.396005 0.250000
#
# Coordination Sequence:
#
# PCOD9474016 Si02
#       5
#     8  16  16  16  16
#     4  10  21  36  61  96 126 164 200 256 323 386
#     4  11  22  38  65  93 128 161 210 265 323 380
#     4  10  23  40  62  93 128 168 208 258 321 384
#     4  10  22  39  61  93 132 164 198 250 315 385
#     4  11  25  43  65  90 123 171 222 270 312 370
#
# _framework density 21.203509
#
# number of rings (size 3 to 8) (size 9 to 14) (size 15 to 20)
#    0.000    1.556    1.111    3.667    6.222    5.778 
#    0.000    1.111    0.000    4.667    0.000    0.000 
#    0.000    0.000    0.000    0.000    0.000    0.000 
#
# Total GULP energy -200719.119319 kJ/mol
# GULP energy per Si atom -5575.531092 kJ/mol
# Density = 2.115525 g / cm^3
# Si number density = 21.203509 Si / 1000 Ang^3
#
#
#
# Elastic Constant Matrix: (Units=GPa)
#
#
# Indices 1 2 3 4 5 6 
#
# 1 136.0234 18.7734 49.9509 0.0000 0.0000 0.0000
# 2 18.7734 59.3599 40.1596 0.0000 0.0000 0.0000
# 3 49.9509 40.1596 180.8610 0.0000 0.0000 0.0000
# 4 0.0000 0.0000 0.0000 24.5770 0.0000 0.0000
# 5 0.0000 0.0000 0.0000 0.0000 47.5719 0.0000
# 6 0.0000 0.0000 0.0000 0.0000 0.0000 21.2089
#
#
#
# Elastic Compliance Matrix: (Units=1/GPa)
#
#
# Indices 1 2 3 4 5 6 
#
# 1 0.008261 -0.001258 -0.002002 0.000000 0.000000 0.000000
# 2 -0.001258 0.020016 -0.004097 0.000000 0.000000 0.000000
# 3 -0.002002 -0.004097 0.006992 0.000000 0.000000 0.000000
# 4 0.000000 0.000000 0.000000 0.040689 0.000000 0.000000
# 5 0.000000 0.000000 0.000000 0.000000 0.021021 0.000000
# 6 0.000000 0.000000 0.000000 0.000000 0.000000 0.047150
#
#
# Mechanical properties :
#
#
# Convention : Reuss Voigt Hill
#
# Bulk Modulus (GPa) = 48.65214 66.00135 57.32675
# Shear Modulus (GPa) = 30.17621 36.49559 33.33590
#
# Velocity S-wave (km/s) = 3.77659 4.15324 3.96938
# Velocity P-wave (km/s) = 6.48166 7.36168 6.93564
#
# Compressibility (1/GPa) = 0.02055408
#
# Stress axis : x y z
#
# Youngs Moduli (GPa) = 121.05793 49.95979 143.02486
#
# Poissons Ratio (x) = 0.06285 0.28635
# Poissons Ratio (y) = 0.15229 0.58598
# Poissons Ratio (z) = 0.24237 0.20469
#
# Static dielectric constant tensor:
#      x y z
#    x 1.783490 0.000000 0.000000 
#    y 0.000000 1.815650 0.000000 
#    z 0.000000 0.000000 1.786400 
# 
# From -- ./inp_files/63495.got.cif
#   From: 2010.05.17/outbox.cif.g08.bks.cpg/sg63_32_cif.got.tgz:63495.got - 2010.06.03 15:47:04.
