data_PCOD9474645
_publ_section_title
;
Structure prediction by ZEFSAII (Michael W. Deem and Ramdas Pophale) SiO2 
 PCOD9474645
Probable space group: C M C M
;
_chemical_formula_sum "Si O2"
_cell_formula_units_Z 68
_cell_length_a 10.544480
_cell_length_b 19.837449
_cell_length_c 15.999234
_cell_angle_alpha 90.000000
_cell_angle_beta 90.000000
_cell_angle_gamma 90.000000
_cell_volume 3346.649119
_symmetry_space_group_name_H-M "C M C M"
_symmetry_group_IT_number 63
_symmetry_cell_setting 'orthorhombic'
loop_
_space_group_symop_operation_xyz
x,y,z
-x,-y,1/2+z
x,-y,-z
-x,y,1/2-z
-x,-y,-z
x,y,1/2-z
-x,y,z
x,-y,1/2+z
1/2+x,1/2+y,z
1/2-x,1/2-y,1/2+z
1/2+x,1/2-y,-z
1/2-x,1/2+y,1/2-z
1/2-x,1/2-y,-z
1/2+x,1/2+y,1/2-z
1/2-x,1/2+y,z
1/2+x,1/2-y,1/2+z
loop_
_atom_site_type_symbol
_atom_site_label
_atom_site_fract_x
_atom_site_fract_y
_atom_site_fract_z
Si Si1 0.710910 0.369326 0.396319
Si Si2 0.355884 0.593531 0.416677
Si Si3 0.853294 0.757831 0.849204
Si Si4 0.500000 0.618031 0.750000
Si Si5 0.641631 0.994351 0.350230
O O1 0.655697 0.390655 0.485439
O O2 0.759032 0.292547 0.395621
O O3 0.610096 0.380293 0.323242
O O4 0.829385 0.417832 0.375967
O O5 0.500000 0.570988 0.396759
O O6 0.330578 0.663885 0.369309
O O7 0.251885 0.539434 0.390020
O O8 0.838921 0.746443 0.750000
O O9 0.000000 0.744180 0.872163
O O10 0.649181 0.000132 0.250000
O O11 0.500000 0.014727 0.376768
#
# Coordination Sequence:
#
# PCOD9474645 Si02
#       5
#    16  16  16   4  16
#     4  12  23  42  66  93 127 168 219 266 313 381
#     4  11  25  41  65  96 131 167 212 264 321 378
#     4  10  21  41  64  91 123 167 210 261 322 382
#     4  12  24  40  64 100 126 168 220 262 326 364
#     4  11  25  44  66  94 128 170 212 262 323 383
#
# _framework density 20.318832
#
# number of rings (size 3 to 8) (size 9 to 14) (size 15 to 20)
#    0.000    0.941    3.529    2.824    1.647    7.059 
#    2.118    0.000    0.000    0.000    0.000    0.000 
#    0.000    0.000    0.000    0.000    0.000    0.000 
#
# Total GULP energy -189649.965682 kJ/mol
# GULP energy per Si atom -5577.940167 kJ/mol
# Density = 2.027259 g / cm^3
# Si number density = 20.318832 Si / 1000 Ang^3
#
#
#
# Elastic Constant Matrix: (Units=GPa)
#
#
# Indices 1 2 3 4 5 6 
#
# 1 110.4971 39.1039 8.7307 0.0000 0.0000 0.0000
# 2 39.1039 54.6666 -2.3314 0.0000 0.0000 0.0000
# 3 8.7307 -2.3314 31.6988 0.0000 0.0000 0.0000
# 4 0.0000 0.0000 0.0000 31.8460 0.0000 0.0000
# 5 0.0000 0.0000 0.0000 0.0000 25.1470 0.0000
# 6 0.0000 0.0000 0.0000 0.0000 0.0000 1.9112
#
#
#
# Elastic Compliance Matrix: (Units=1/GPa)
#
#
# Indices 1 2 3 4 5 6 
#
# 1 0.012642 -0.009220 -0.004160 0.000000 0.000000 0.000000
# 2 -0.009220 0.025075 0.004384 0.000000 0.000000 0.000000
# 3 -0.004160 0.004384 0.033015 0.000000 0.000000 0.000000
# 4 0.000000 0.000000 0.000000 0.031401 0.000000 0.000000
# 5 0.000000 0.000000 0.000000 0.000000 0.039766 0.000000
# 6 0.000000 0.000000 0.000000 0.000000 0.000000 0.523225
#
#
# Mechanical properties :
#
#
# Convention : Reuss Voigt Hill
#
# Bulk Modulus (GPa) = 18.96135 31.98543 25.47339
# Shear Modulus (GPa) = 7.13576 21.87146 14.50361
#
# Velocity S-wave (km/s) = 1.87604 3.28443 2.67460
# Velocity P-wave (km/s) = 3.74765 5.49175 4.70128
#
# Compressibility (1/GPa) = 0.05273886
#
# Stress axis : x y z
#
# Youngs Moduli (GPa) = 79.10360 39.88035 30.28915
#
# Poissons Ratio (x) = 0.36770 0.12600
# Poissons Ratio (y) = 0.72935 -0.13278
# Poissons Ratio (z) = 0.32907 -0.17482
#
# Static dielectric constant tensor:
#      x y z
#    x 1.714970 0.000000 0.000000 
#    y 0.000000 1.714600 0.000000 
#    z 0.000000 0.000000 1.700700 
# 
# From -- ./inp_files/29430.got.cif
#   From: 2010.05.17/outbox.cif.g08.bks.cpg/sg63_15_cif.got.tgz:29430.got - 2010.06.03 15:47:04.
