data_PCOD9474289
_publ_section_title
;
Structure prediction by ZEFSAII (Michael W. Deem and Ramdas Pophale) SiO2 
 PCOD9474289
Probable space group: C M C M
;
_chemical_formula_sum "Si O2"
_cell_formula_units_Z 64
_cell_length_a 27.495602
_cell_length_b 15.050211
_cell_length_c 8.631412
_cell_angle_alpha 90.000000
_cell_angle_beta 90.000000
_cell_angle_gamma 90.000000
_cell_volume 3571.804405
_symmetry_space_group_name_H-M "C M C M"
_symmetry_group_IT_number 63
_symmetry_cell_setting 'orthorhombic'
loop_
_space_group_symop_operation_xyz
x,y,z
-x,-y,1/2+z
x,-y,-z
-x,y,1/2-z
-x,-y,-z
x,y,1/2-z
-x,y,z
x,-y,1/2+z
1/2+x,1/2+y,z
1/2-x,1/2-y,1/2+z
1/2+x,1/2-y,-z
1/2-x,1/2+y,1/2-z
1/2-x,1/2-y,-z
1/2+x,1/2+y,1/2-z
1/2-x,1/2+y,z
1/2+x,1/2-y,1/2+z
loop_
_atom_site_type_symbol
_atom_site_label
_atom_site_fract_x
_atom_site_fract_y
_atom_site_fract_z
Si Si1 0.363305 0.273223 0.565744
Si Si2 0.672695 0.095767 0.435022
Si Si3 0.718661 0.597052 0.935792
Si Si4 0.557757 0.402856 0.433567
O O1 0.359489 0.266382 0.750000
O O2 0.360904 0.176099 0.490409
O O3 0.317806 0.329463 0.500133
O O4 0.410843 0.328078 0.517060
O O5 0.676039 0.092472 0.250000
O O6 0.726621 0.112892 0.504243
O O7 0.657055 0.000000 0.500000
O O8 0.718063 0.596370 0.750000
O O9 0.703962 0.500000 0.000000
O O10 0.570533 0.500000 0.500000
O O11 0.567955 0.401257 0.250000
O O12 0.500000 0.390188 0.456817
#
# Coordination Sequence:
#
# PCOD9474289 Si02
#       4
#    16  16  16  16
#     4  12  23  36  55  80 109 144 184 223 267 319
#     4  11  22  38  56  78 108 143 183 225 270 317
#     4  11  21  35  53  78 111 146 183 223 269 319
#     4  10  21  38  59  84 113 143 176 218 269 323
#
# _framework density 17.918113999999999
#
# number of rings (size 3 to 8) (size 9 to 14) (size 15 to 20)
#    0.000    1.000    0.000   10.500    0.000    1.500 
#    0.000    0.000    0.000    0.750    0.000    0.000 
#    0.000    0.000    0.000    0.000    0.000    0.000 
#
# Total GULP energy -179053.468496 kJ/mol
# GULP energy per Si atom -5595.420891 kJ/mol
# Density = 1.787733 g / cm^3
# Si number density = 17.918114 Si / 1000 Ang^3
#
#
#
# Elastic Constant Matrix: (Units=GPa)
#
#
# Indices 1 2 3 4 5 6 
#
# 1 36.7028 48.7529 34.6592 0.0000 0.0000 0.0000
# 2 48.7529 128.0728 57.4091 0.0000 0.0000 0.0000
# 3 34.6592 57.4091 167.8319 0.0000 0.0000 0.0000
# 4 0.0000 0.0000 0.0000 34.6609 0.0000 0.0000
# 5 0.0000 0.0000 0.0000 0.0000 28.9899 0.0000
# 6 0.0000 0.0000 0.0000 0.0000 0.0000 21.9974
#
#
#
# Elastic Compliance Matrix: (Units=1/GPa)
#
#
# Indices 1 2 3 4 5 6 
#
# 1 0.058857 -0.020027 -0.005304 0.000000 0.000000 0.000000
# 2 -0.020027 0.016037 -0.001350 0.000000 0.000000 0.000000
# 3 -0.005304 -0.001350 0.007515 0.000000 0.000000 0.000000
# 4 0.000000 0.000000 0.000000 0.028851 0.000000 0.000000
# 5 0.000000 0.000000 0.000000 0.000000 0.034495 0.000000
# 6 0.000000 0.000000 0.000000 0.000000 0.000000 0.045460
#
#
# Mechanical properties :
#
#
# Convention : Reuss Voigt Hill
#
# Bulk Modulus (GPa) = 34.42676 68.25000 51.33838
# Shear Modulus (GPa) = 19.66491 29.91540 24.79016
#
# Velocity S-wave (km/s) = 3.31643 4.09046 3.72361
# Velocity P-wave (km/s) = 5.82409 7.77700 6.87029
#
# Compressibility (1/GPa) = 0.02904717
#
# Stress axis : x y z
#
# Youngs Moduli (GPa) = 16.99022 62.35655 133.06031
#
# Poissons Ratio (x) = 1.24884 0.70577
# Poissons Ratio (y) = 0.34027 0.17959
# Poissons Ratio (z) = 0.09012 0.08416
#
# Static dielectric constant tensor:
#      x y z
#    x 1.600370 0.000000 0.000000 
#    y 0.000000 1.611980 0.000000 
#    z 0.000000 0.000000 1.594310 
# 
# From -- ./inp_files/9616.got.cif
#   From: 2010.05.17/outbox.cif.g08.bks.cpg/sg63_5_cif.got.tgz:9616.got - 2010.06.03 15:47:04.
