data_PCOD9474389
_publ_section_title
;
Structure prediction by ZEFSAII (Michael W. Deem and Ramdas Pophale) SiO2 
 PCOD9474389
Probable space group: C M C M
;
_chemical_formula_sum "Si O2"
_cell_formula_units_Z 64
_cell_length_a 24.312730
_cell_length_b 15.845852
_cell_length_c 8.580347
_cell_angle_alpha 90.000000
_cell_angle_beta 90.000000
_cell_angle_gamma 90.000000
_cell_volume 3305.629489
_symmetry_space_group_name_H-M "C M C M"
_symmetry_group_IT_number 63
_symmetry_cell_setting 'orthorhombic'
loop_
_space_group_symop_operation_xyz
x,y,z
-x,-y,1/2+z
x,-y,-z
-x,y,1/2-z
-x,-y,-z
x,y,1/2-z
-x,y,z
x,-y,1/2+z
1/2+x,1/2+y,z
1/2-x,1/2-y,1/2+z
1/2+x,1/2-y,-z
1/2-x,1/2+y,1/2-z
1/2-x,1/2-y,-z
1/2+x,1/2+y,1/2-z
1/2-x,1/2+y,z
1/2+x,1/2-y,1/2+z
loop_
_atom_site_type_symbol
_atom_site_label
_atom_site_fract_x
_atom_site_fract_y
_atom_site_fract_z
Si Si1 0.188289 0.753909 0.562447
Si Si2 0.000000 0.651777 0.560660
Si Si3 0.618401 0.089893 0.937887
Si Si4 0.500000 0.350098 0.937604
Si Si5 0.116968 0.090804 0.564083
O O1 0.188092 0.758139 0.750000
O O2 0.250000 0.750000 0.500000
O O3 0.155950 0.668803 0.515157
O O4 0.155734 0.834463 0.497479
O O5 0.943955 0.608193 0.506213
O O6 0.000000 0.648757 0.750000
O O7 0.000000 0.750729 0.519553
O O8 0.617735 0.087496 0.750000
O O9 0.637701 0.000000 0.000000
O O10 0.500000 0.356469 0.750000
O O11 0.444741 0.391366 0.003082
O O12 0.117068 0.089970 0.750000
O O13 0.135116 0.000000 0.500000
#
# Coordination Sequence:
#
# PCOD9474389 Si02
#       5
#    16   8  16   8  16
#     4  11  24  44  66  90 124 167 213 265 318 370
#     4   9  17  35  61  89 123 161 195 242 306 367
#     4  10  21  38  62  91 124 162 200 247 307 367
#     4  11  20  39  66  93 130 168 204 255 318 381
#     4  12  25  42  65  96 128 165 212 261 317 382
#
# _framework density 19.360911999999999
#
# number of rings (size 3 to 8) (size 9 to 14) (size 15 to 20)
#    0.000    1.250    2.500    4.125    0.000    3.000 
#    0.000    2.500    0.000    0.000    0.000    0.000 
#    0.000    0.000    0.000    0.000    0.000    0.000 
#
# Total GULP energy -178971.636528 kJ/mol
# GULP energy per Si atom -5592.863641 kJ/mol
# Density = 1.931685 g / cm^3
# Si number density = 19.360912 Si / 1000 Ang^3
#
#
#
# Elastic Constant Matrix: (Units=GPa)
#
#
# Indices 1 2 3 4 5 6 
#
# 1 158.7181 92.4358 48.2869 0.0000 0.0000 0.0000
# 2 92.4358 206.2994 58.9229 0.0000 0.0000 0.0000
# 3 48.2869 58.9229 85.1683 0.0000 0.0000 0.0000
# 4 0.0000 0.0000 0.0000 33.6014 0.0000 0.0000
# 5 0.0000 0.0000 0.0000 0.0000 33.1438 0.0000
# 6 0.0000 0.0000 0.0000 0.0000 0.0000 -4.1606
#
#
#
# Elastic Compliance Matrix: (Units=1/GPa)
#
#
# Indices 1 2 3 4 5 6 
#
# 1 0.009067 -0.003233 -0.002904 0.000000 0.000000 0.000000
# 2 -0.003233 0.007194 -0.003144 0.000000 0.000000 0.000000
# 3 -0.002904 -0.003144 0.015563 0.000000 0.000000 0.000000
# 4 0.000000 0.000000 0.000000 0.029761 0.000000 0.000000
# 5 0.000000 0.000000 0.000000 0.000000 0.030172 0.000000
# 6 0.000000 0.000000 0.000000 0.000000 0.000000 -0.240351
#
#
# Mechanical properties :
#
#
# Convention : Reuss Voigt Hill
#
# Bulk Modulus (GPa) = 75.40363 94.38633 84.89498
# Shear Modulus (GPa) = -39.80489 29.21962 -5.29263
#
# Velocity S-wave (km/s) = -4.53917 3.88907 -1.65518
# Velocity P-wave (km/s) = 3.39983 8.30802 6.34752
#
# Compressibility (1/GPa) = 0.01326196
#
# Stress axis : x y z
#
# Youngs Moduli (GPa) = 110.29190 139.00465 64.25553
#
# Poissons Ratio (x) = 0.44943 0.18658
# Poissons Ratio (y) = 0.35660 0.20202
# Poissons Ratio (z) = 0.32025 0.43703
#
# Static dielectric constant tensor:
#      x y z
#    x 1.651630 0.000000 0.000000 
#    y 0.000000 1.665880 0.000000 
#    z 0.000000 0.000000 1.654760 
# 
# From -- ./inp_files/9642.got.cif
#   From: 2010.05.17/outbox.cif.g08.bks.cpg/sg63_5_cif.got.tgz:9642.got - 2010.06.03 15:47:04.
