data_PCOD9474940
_publ_section_title
;
Structure prediction by ZEFSAII (Michael W. Deem and Ramdas Pophale) SiO2 
 PCOD9474940
Probable space group: C M C M
;
_chemical_formula_sum "Si O2"
_cell_formula_units_Z 88
_cell_length_a 22.951702
_cell_length_b 10.281526
_cell_length_c 18.526401
_cell_angle_alpha 90.000000
_cell_angle_beta 90.000000
_cell_angle_gamma 90.000000
_cell_volume 4371.832705
_symmetry_space_group_name_H-M "C M C M"
_symmetry_group_IT_number 63
_symmetry_cell_setting 'orthorhombic'
loop_
_space_group_symop_operation_xyz
x,y,z
-x,-y,1/2+z
x,-y,-z
-x,y,1/2-z
-x,-y,-z
x,y,1/2-z
-x,y,z
x,-y,1/2+z
1/2+x,1/2+y,z
1/2-x,1/2-y,1/2+z
1/2+x,1/2-y,-z
1/2-x,1/2+y,1/2-z
1/2-x,1/2-y,-z
1/2+x,1/2+y,1/2-z
1/2-x,1/2+y,z
1/2+x,1/2-y,1/2+z
loop_
_atom_site_type_symbol
_atom_site_label
_atom_site_fract_x
_atom_site_fract_y
_atom_site_fract_z
Si Si1 0.837860 0.000000 0.500000
Si Si2 0.741520 0.689091 0.578985
Si Si3 0.433369 0.607377 0.668708
Si Si4 0.148406 0.339491 0.664040
Si Si5 0.137929 0.363386 0.162926
Si Si6 0.067336 0.154896 0.076395
O O1 0.796283 0.057354 0.563344
O O2 0.881487 0.118953 0.479935
O O3 0.750000 0.750000 0.500000
O O4 0.706355 0.796397 0.623872
O O5 0.800819 0.663411 0.622429
O O6 0.413290 0.576085 0.750000
O O7 0.500000 0.649212 0.671381
O O8 0.397096 0.728961 0.642038
O O9 0.431127 0.476808 0.623402
O O10 0.157682 0.331905 0.750000
O O11 0.126611 0.484195 0.649249
O O12 0.141472 0.341691 0.250000
O O13 0.089134 0.273288 0.125860
O O14 0.000000 0.171070 0.050244
#
# Coordination Sequence:
#
# PCOD9474940 Si02
#       6
#     8  16  16  16  16  16
#     4  12  23  42  66  98 127 176 224 278 322 396
#     4  12  23  42  65  91 129 170 217 270 332 391
#     4   9  18  35  61  89 119 161 210 259 314 378
#     4  10  22  40  63  92 127 166 211 266 326 388
#     4  11  25  42  64  98 133 170 215 271 334 394
#     4  11  23  42  66  95 131 174 222 272 327 387
#
# _framework density 20.128858999999999
#
# number of rings (size 3 to 8) (size 9 to 14) (size 15 to 20)
#    0.000    1.273    3.636    2.455    0.000    1.818 
#    0.000    1.818    0.000    1.091    0.000    0.000 
#    0.000    0.000    0.000    0.000    0.000    0.000 
#
# Total GULP energy -245539.912513 kJ/mol
# GULP energy per Si atom -5580.452557 kJ/mol
# Density = 2.008304 g / cm^3
# Si number density = 20.128859 Si / 1000 Ang^3
#
#
#
# Elastic Constant Matrix: (Units=GPa)
#
#
# Indices 1 2 3 4 5 6 
#
# 1 88.2504 39.2726 16.0600 0.0000 0.0000 0.0000
# 2 39.2726 103.3486 33.0178 0.0000 0.0000 0.0000
# 3 16.0600 33.0178 37.3248 0.0000 0.0000 0.0000
# 4 0.0000 0.0000 0.0000 33.2280 0.0000 0.0000
# 5 0.0000 0.0000 0.0000 0.0000 24.5119 0.0000
# 6 0.0000 0.0000 0.0000 0.0000 0.0000 28.9391
#
#
#
# Elastic Compliance Matrix: (Units=1/GPa)
#
#
# Indices 1 2 3 4 5 6 
#
# 1 0.013724 -0.004640 -0.001801 0.000000 0.000000 0.000000
# 2 -0.004640 0.015056 -0.011323 0.000000 0.000000 0.000000
# 3 -0.001801 -0.011323 0.037583 0.000000 0.000000 0.000000
# 4 0.000000 0.000000 0.000000 0.030095 0.000000 0.000000
# 5 0.000000 0.000000 0.000000 0.000000 0.040797 0.000000
# 6 0.000000 0.000000 0.000000 0.000000 0.000000 0.034555
#
#
# Mechanical properties :
#
#
# Convention : Reuss Voigt Hill
#
# Bulk Modulus (GPa) = 32.42880 45.06939 38.74910
# Shear Modulus (GPa) = 22.97636 26.70738 24.84187
#
# Velocity S-wave (km/s) = 3.38222 3.64651 3.51685
# Velocity P-wave (km/s) = 5.60340 6.33785 5.98191
#
# Compressibility (1/GPa) = 0.03083679
#
# Stress axis : x y z
#
# Youngs Moduli (GPa) = 72.86583 66.41667 26.60801
#
# Poissons Ratio (x) = 0.30816 0.04791
# Poissons Ratio (y) = 0.33808 0.30127
# Poissons Ratio (z) = 0.13121 0.75201
#
# Static dielectric constant tensor:
#      x y z
#    x 1.740710 0.000000 0.000000 
#    y 0.000000 1.703310 0.000000 
#    z 0.000000 0.000000 1.767320 
# 
# From -- ./inp_files/57339.got.cif
#   From: 2010.05.17/outbox.cif.g08.bks.cpg/sg63_29_cif.got.tgz:57339.got - 2010.06.03 15:47:04.
