data_PCOD9474253
_publ_section_title
;
Structure prediction by ZEFSAII (Michael W. Deem and Ramdas Pophale) SiO2 
 PCOD9474253
Probable space group: C M C M
;
_chemical_formula_sum "Si O2"
_cell_formula_units_Z 104
_cell_length_a 26.902117
_cell_length_b 24.623651
_cell_length_c 8.532248
_cell_angle_alpha 90.000000
_cell_angle_beta 90.000000
_cell_angle_gamma 90.000000
_cell_volume 5652.002881
_symmetry_space_group_name_H-M "C M C M"
_symmetry_group_IT_number 63
_symmetry_cell_setting 'orthorhombic'
loop_
_space_group_symop_operation_xyz
x,y,z
-x,-y,1/2+z
x,-y,-z
-x,y,1/2-z
-x,-y,-z
x,y,1/2-z
-x,y,z
x,-y,1/2+z
1/2+x,1/2+y,z
1/2-x,1/2-y,1/2+z
1/2+x,1/2-y,-z
1/2-x,1/2+y,1/2-z
1/2-x,1/2-y,-z
1/2+x,1/2+y,1/2-z
1/2-x,1/2+y,z
1/2+x,1/2-y,1/2+z
loop_
_atom_site_type_symbol
_atom_site_label
_atom_site_fract_x
_atom_site_fract_y
_atom_site_fract_z
Si Si1 0.288038 0.155418 0.063065
Si Si2 0.869347 0.263119 0.065021
Si Si3 0.000000 0.938283 0.061088
Si Si4 0.639389 0.939039 0.562104
Si Si5 0.557375 0.851703 0.560290
Si Si6 0.107977 0.061124 0.560740
Si Si7 0.177568 0.843302 0.437307
O O1 0.294462 0.162902 0.250000
O O2 0.311871 0.096745 0.020962
O O3 0.321684 0.199547 0.975782
O O4 0.231062 0.161878 0.017093
O O5 0.873365 0.255276 0.250000
O O6 0.916276 0.297339 0.002453
O O7 0.858461 0.206247 0.981775
O O8 0.946414 0.916127 0.010277
O O9 0.000000 0.938178 0.250000
O O10 0.000000 0.000000 0.000000
O O11 0.637286 0.941844 0.750000
O O12 0.591974 0.902618 0.509787
O O13 0.639678 0.000000 0.500000
O O14 0.558986 0.850003 0.750000
O O15 0.500000 0.856781 0.511604
O O16 0.108388 0.059483 0.750000
O O17 0.151281 0.101158 0.509810
O O18 0.113576 0.000000 0.500000
O O19 0.184335 0.844055 0.250000
#
# Coordination Sequence:
#
# PCOD9474253 Si02
#       7
#    16  16   8  16  16  16  16
#     4  10  21  38  57  77 106 145 184 225 274 327
#     4  11  22  37  57  81 109 141 180 229 277 326
#     4   8  14  30  52  72  94 128 168 204 245 296
#     4   9  19  34  54  81 112 146 186 226 271 328
#     4   9  19  38  60  81 111 151 189 229 278 329
#     4   9  19  34  54  77 105 137 175 217 262 317
#     4  11  22  36  54  81 110 141 182 224 272 331
#
# _framework density 18.400558
#
# number of rings (size 3 to 8) (size 9 to 14) (size 15 to 20)
#    0.000    2.308    0.000    3.692    0.000    5.538 
#    1.385    3.077    0.000    0.000    0.000    0.000 
#    0.000    0.000    0.000    0.000    0.000    0.000 
#
# Total GULP energy -290037.749944 kJ/mol
# GULP energy per Si atom -5577.649037 kJ/mol
# Density = 1.835868 g / cm^3
# Si number density = 18.400558 Si / 1000 Ang^3
#
#
#
# Elastic Constant Matrix: (Units=GPa)
#
#
# Indices 1 2 3 4 5 6 
#
# 1 19.3776 10.4616 2.5978 0.0000 0.0000 0.0000
# 2 10.4616 82.9390 -1.5867 0.0000 0.0000 0.0000
# 3 2.5978 -1.5867 14.8455 0.0000 0.0000 0.0000
# 4 0.0000 0.0000 0.0000 28.6797 0.0000 0.0000
# 5 0.0000 0.0000 0.0000 0.0000 19.5727 0.0000
# 6 0.0000 0.0000 0.0000 0.0000 0.0000 11.4270
#
#
#
# Elastic Compliance Matrix: (Units=1/GPa)
#
#
# Indices 1 2 3 4 5 6 
#
# 1 0.057046 -0.007402 -0.010774 0.000000 0.000000 0.000000
# 2 -0.007402 0.013042 0.002689 0.000000 0.000000 0.000000
# 3 -0.010774 0.002689 0.069533 0.000000 0.000000 0.000000
# 4 0.000000 0.000000 0.000000 0.034868 0.000000 0.000000
# 5 0.000000 0.000000 0.000000 0.000000 0.051092 0.000000
# 6 0.000000 0.000000 0.000000 0.000000 0.000000 0.087512
#
#
# Mechanical properties :
#
#
# Convention : Reuss Voigt Hill
#
# Bulk Modulus (GPa) = 9.20395 15.56752 12.38574
# Shear Modulus (GPa) = 13.14814 18.98184 16.06499
#
# Velocity S-wave (km/s) = 2.67601 3.21532 2.95798
# Velocity P-wave (km/s) = 3.81587 4.71838 4.29092
#
# Compressibility (1/GPa) = 0.10864905
#
# Stress axis : x y z
#
# Youngs Moduli (GPa) = 17.52958 76.67467 14.38165
#
# Poissons Ratio (x) = 0.56752 0.15494
# Poissons Ratio (y) = 0.12975 -0.03867
# Poissons Ratio (z) = 0.18886 -0.20619
#
# Static dielectric constant tensor:
#      x y z
#    x 1.644190 0.000000 0.000000 
#    y 0.000000 1.615790 0.000000 
#    z 0.000000 0.000000 1.625100 
# 
# From -- ./inp_files/12852.got.cif
#   From: 2010.05.17/outbox.cif.g08.bks.cpg/sg63_7_cif.got.tgz:12852.got - 2010.06.03 15:47:04.
