data_PCOD9474503
_publ_section_title
;
Structure prediction by ZEFSAII (Michael W. Deem and Ramdas Pophale) SiO2 
 PCOD9474503
Probable space group: C M C M
;
_chemical_formula_sum "Si O2"
_cell_formula_units_Z 84
_cell_length_a 11.109150
_cell_length_b 25.088405
_cell_length_c 15.754787
_cell_angle_alpha 90.000000
_cell_angle_beta 90.000000
_cell_angle_gamma 90.000000
_cell_volume 4391.030146
_symmetry_space_group_name_H-M "C M C M"
_symmetry_group_IT_number 63
_symmetry_cell_setting 'orthorhombic'
loop_
_space_group_symop_operation_xyz
x,y,z
-x,-y,1/2+z
x,-y,-z
-x,y,1/2-z
-x,-y,-z
x,y,1/2-z
-x,y,z
x,-y,1/2+z
1/2+x,1/2+y,z
1/2-x,1/2-y,1/2+z
1/2+x,1/2-y,-z
1/2-x,1/2+y,1/2-z
1/2-x,1/2-y,-z
1/2+x,1/2+y,1/2-z
1/2-x,1/2+y,z
1/2+x,1/2-y,1/2+z
loop_
_atom_site_type_symbol
_atom_site_label
_atom_site_fract_x
_atom_site_fract_y
_atom_site_fract_z
Si Si1 0.500000 0.850663 0.250000
Si Si2 0.137597 0.761289 0.150140
Si Si3 0.134601 0.359979 0.902246
Si Si4 0.691529 0.148417 0.594793
Si Si5 0.361260 0.445340 0.148072
Si Si6 0.863382 0.931331 0.647339
O O1 0.396611 0.850775 0.174782
O O2 0.150331 0.773698 0.250000
O O3 0.156987 0.698519 0.136738
O O4 0.227620 0.798565 0.099657
O O5 0.000000 0.772826 0.125067
O O6 0.249078 0.396758 0.880670
O O7 0.000000 0.378226 0.873219
O O8 0.131096 0.353936 0.003434
O O9 0.774775 0.096280 0.604002
O O10 0.342476 0.442431 0.250000
O O11 0.500000 0.431157 0.131746
O O12 0.344383 0.506882 0.122077
O O13 0.866191 0.930016 0.750000
O O14 0.000000 0.915259 0.618839
#
# Coordination Sequence:
#
# PCOD9474503 Si02
#       6
#     4  16  16  16  16  16
#     4  12  24  40  58  82 130 160 196 248 296 364
#     4  10  21  39  63  85 112 149 197 245 301 362
#     4  11  24  40  58  89 125 159 198 247 296 359
#     4  12  22  40  59  88 118 158 199 247 304 350
#     4   9  18  36  64  87 113 151 202 249 294 355
#     4   9  20  41  63  90 120 159 202 246 297 356
#
# _framework density 19.129906999999999
#
# number of rings (size 3 to 8) (size 9 to 14) (size 15 to 20)
#    0.000    1.714    2.857    2.857    0.000    4.952 
#    3.429    2.857    0.000    0.000    0.000    0.000 
#    0.000    0.000    0.000    0.000    0.000    0.000 
#
# Total GULP energy -233906.364800 kJ/mol
# GULP energy per Si atom -5569.199162 kJ/mol
# Density = 1.908637 g / cm^3
# Si number density = 19.129907 Si / 1000 Ang^3
#
#
#
# Elastic Constant Matrix: (Units=GPa)
#
#
# Indices 1 2 3 4 5 6 
#
# 1 132.1094 68.8874 7.1473 0.0000 0.0000 0.0000
# 2 68.8874 61.0640 -1.3870 0.0000 0.0000 0.0000
# 3 7.1473 -1.3870 31.4102 0.0000 0.0000 0.0000
# 4 0.0000 0.0000 0.0000 107.7025 0.0000 0.0000
# 5 0.0000 0.0000 0.0000 0.0000 11.1838 0.0000
# 6 0.0000 0.0000 0.0000 0.0000 0.0000 -116.6457
#
#
#
# Elastic Compliance Matrix: (Units=1/GPa)
#
#
# Indices 1 2 3 4 5 6 
#
# 1 0.019239 -0.021825 -0.005342 0.000000 0.000000 0.000000
# 2 -0.021825 0.041152 0.006783 0.000000 0.000000 0.000000
# 3 -0.005342 0.006783 0.033352 0.000000 0.000000 0.000000
# 4 0.000000 0.000000 0.000000 0.009285 0.000000 0.000000
# 5 0.000000 0.000000 0.000000 0.000000 0.089415 0.000000
# 6 0.000000 0.000000 0.000000 0.000000 0.000000 -0.008573
#
#
# Mechanical properties :
#
#
# Convention : Reuss Voigt Hill
#
# Bulk Modulus (GPa) = 18.87651 41.54212 30.20931
# Shear Modulus (GPa) = 20.63601 10.44385 15.53993
#
# Velocity S-wave (km/s) = 3.28797 2.33908 2.85324
# Velocity P-wave (km/s) = 4.92983 5.39055 5.16533
#
# Compressibility (1/GPa) = 0.05297590
#
# Stress axis : x y z
#
# Youngs Moduli (GPa) = 51.97748 24.30025 29.98342
#
# Poissons Ratio (x) = 0.53036 0.16016
# Poissons Ratio (y) = 1.13442 -0.20339
# Poissons Ratio (z) = 0.27764 -0.16484
#
# Static dielectric constant tensor:
#      x y z
#    x 1.670060 0.000000 0.000000 
#    y 0.000000 1.646760 0.000000 
#    z 0.000000 0.000000 1.667490 
# 
# From -- ./inp_files/29885.got.cif
#   From: 2010.05.17/outbox.cif.g08.bks.cpg/sg63_15_cif.got.tgz:29885.got - 2010.06.03 15:47:04.
