data_PCOD9474968
_publ_section_title
;
Structure prediction by ZEFSAII (Michael W. Deem and Ramdas Pophale) SiO2 
 PCOD9474968
Probable space group: C M C M
;
_chemical_formula_sum "Si O2"
_cell_formula_units_Z 80
_cell_length_a 15.547783
_cell_length_b 11.793788
_cell_length_c 22.708741
_cell_angle_alpha 90.000000
_cell_angle_beta 90.000000
_cell_angle_gamma 90.000000
_cell_volume 4164.039537
_symmetry_space_group_name_H-M "C M C M"
_symmetry_group_IT_number 63
_symmetry_cell_setting 'orthorhombic'
loop_
_space_group_symop_operation_xyz
x,y,z
-x,-y,1/2+z
x,-y,-z
-x,y,1/2-z
-x,-y,-z
x,y,1/2-z
-x,y,z
x,-y,1/2+z
1/2+x,1/2+y,z
1/2-x,1/2-y,1/2+z
1/2+x,1/2-y,-z
1/2-x,1/2+y,1/2-z
1/2-x,1/2-y,-z
1/2+x,1/2+y,1/2-z
1/2-x,1/2+y,z
1/2+x,1/2-y,1/2+z
loop_
_atom_site_type_symbol
_atom_site_label
_atom_site_fract_x
_atom_site_fract_y
_atom_site_fract_z
Si Si1 0.824255 0.169246 0.681432
Si Si2 0.500000 0.448271 0.178793
Si Si3 0.000000 0.211696 0.179766
Si Si4 0.900227 0.379012 0.628677
Si Si5 0.141000 0.631669 0.625029
Si Si6 0.804667 0.368479 0.996433
O O1 0.809585 0.141415 0.750000
O O2 0.910093 0.105904 0.658740
O O3 0.847675 0.300742 0.673289
O O4 0.740146 0.141549 0.644068
O O5 0.500000 0.433151 0.250000
O O6 0.500000 0.579940 0.164657
O O7 0.915996 0.271462 0.153764
O O8 0.000000 0.223070 0.250000
O O9 0.893209 0.510141 0.645238
O O10 0.856748 0.364836 0.564553
O O11 0.000000 0.345711 0.627601
O O12 0.136147 0.636231 0.554414
O O13 0.765456 0.500000 0.000000
O O14 0.750000 0.250000 0.000000
#
# Coordination Sequence:
#
# PCOD9474968 Si02
#       6
#    16   8   8  16  16  16
#     4  11  23  40  63  91 124 165 208 258 315 376
#     4   9  22  41  60  85 124 167 207 254 311 374
#     4  11  24  41  59  89 129 165 206 258 311 378
#     4  11  23  42  66  93 125 164 212 265 316 378
#     4  11  24  41  64  91 123 167 210 258 317 378
#     4  10  22  40  66  92 125 163 212 263 321 376
#
# _framework density 19.212114
#
# number of rings (size 3 to 8) (size 9 to 14) (size 15 to 20)
#    0.000    1.400    4.000    0.600    4.200    2.800 
#    0.000    0.000    0.000    1.800    0.000    0.000 
#    0.000    0.000    0.000    0.000    0.000    0.000 
#
# Total GULP energy -223114.973578 kJ/mol
# GULP energy per Si atom -5577.874339 kJ/mol
# Density = 1.916839 g / cm^3
# Si number density = 19.212114 Si / 1000 Ang^3
#
#
#
# Elastic Constant Matrix: (Units=GPa)
#
#
# Indices 1 2 3 4 5 6 
#
# 1 98.4202 16.4203 4.6142 0.0000 0.0000 0.0000
# 2 16.4203 78.8383 0.3606 0.0000 0.0000 0.0000
# 3 4.6142 0.3606 34.7187 0.0000 0.0000 0.0000
# 4 0.0000 0.0000 0.0000 30.1990 0.0000 0.0000
# 5 0.0000 0.0000 0.0000 0.0000 1.4645 0.0000
# 6 0.0000 0.0000 0.0000 0.0000 0.0000 38.1341
#
#
#
# Elastic Compliance Matrix: (Units=1/GPa)
#
#
# Indices 1 2 3 4 5 6 
#
# 1 0.010592 -0.002200 -0.001385 0.000000 0.000000 0.000000
# 2 -0.002200 0.013142 0.000156 0.000000 0.000000 0.000000
# 3 -0.001385 0.000156 0.028985 0.000000 0.000000 0.000000
# 4 0.000000 0.000000 0.000000 0.033114 0.000000 0.000000
# 5 0.000000 0.000000 0.000000 0.000000 0.682805 0.000000
# 6 0.000000 0.000000 0.000000 0.000000 0.000000 0.026223
#
#
# Mechanical properties :
#
#
# Convention : Reuss Voigt Hill
#
# Bulk Modulus (GPa) = 21.80468 28.30749 25.05609
# Shear Modulus (GPa) = 6.11990 26.66500 16.39245
#
# Velocity S-wave (km/s) = 1.78672 3.72953 2.92419
# Velocity P-wave (km/s) = 3.95355 5.77166 4.94685
#
# Compressibility (1/GPa) = 0.04586171
#
# Stress axis : x y z
#
# Youngs Moduli (GPa) = 94.40677 76.09386 34.50015
#
# Poissons Ratio (x) = 0.16740 0.04778
# Poissons Ratio (y) = 0.20768 -0.00538
# Poissons Ratio (z) = 0.13074 -0.01186
#
# Static dielectric constant tensor:
#      x y z
#    x 1.626440 0.000000 0.000000 
#    y 0.000000 1.689510 0.000000 
#    z 0.000000 0.000000 1.644940 
# 
# From -- ./inp_files/62592.got.cif
#   From: 2010.05.17/outbox.cif.g08.bks.cpg/sg63_32_cif.got.tgz:62592.got - 2010.06.03 15:47:04.
