data_PCOD9474659
_publ_section_title
;
Structure prediction by ZEFSAII (Michael W. Deem and Ramdas Pophale) SiO2 
 PCOD9474659
Probable space group: C M C M
;
_chemical_formula_sum "Si O2"
_cell_formula_units_Z 68
_cell_length_a 13.975726
_cell_length_b 12.106646
_cell_length_c 20.084893
_cell_angle_alpha 90.000000
_cell_angle_beta 90.000000
_cell_angle_gamma 90.000000
_cell_volume 3398.347170
_symmetry_space_group_name_H-M "C M C M"
_symmetry_group_IT_number 63
_symmetry_cell_setting 'orthorhombic'
loop_
_space_group_symop_operation_xyz
x,y,z
-x,-y,1/2+z
x,-y,-z
-x,y,1/2-z
-x,-y,-z
x,y,1/2-z
-x,y,z
x,-y,1/2+z
1/2+x,1/2+y,z
1/2-x,1/2-y,1/2+z
1/2+x,1/2-y,-z
1/2-x,1/2+y,1/2-z
1/2-x,1/2-y,-z
1/2+x,1/2+y,1/2-z
1/2-x,1/2+y,z
1/2+x,1/2-y,1/2+z
loop_
_atom_site_type_symbol
_atom_site_label
_atom_site_fract_x
_atom_site_fract_y
_atom_site_fract_z
Si Si1 0.000000 0.738190 0.750000
Si Si2 0.610907 0.353110 0.250000
Si Si3 0.500000 0.021177 0.674726
Si Si4 0.282818 0.326591 0.750000
Si Si5 0.826530 0.385075 0.879571
Si Si6 0.107879 0.132335 0.604954
Si Si7 0.732484 0.500000 0.000000
O O1 0.000000 0.652591 0.687096
O O2 0.103720 0.798237 0.750000
O O3 0.500000 0.302462 0.250000
O O4 0.706781 0.277360 0.250000
O O5 0.614884 0.415720 0.320008
O O6 0.500000 0.973998 0.750000
O O7 0.593019 0.973830 0.639720
O O8 0.250141 0.384101 0.680926
O O9 0.869032 0.261770 0.884788
O O10 0.789390 0.418474 0.951708
O O11 0.000000 0.120686 0.581543
O O12 0.173741 0.073955 0.551835
#
# Coordination Sequence:
#
# PCOD9474659 Si02
#       7
#     4   8   8   8  16  16   8
#     4  10  24  40  68 112 130 162 210 292 360 370
#     4   8  18  34  71  93 111 161 227 267 315 383
#     4  10  22  41  71 104 123 164 225 287 326 390
#     4  10  21  41  69  96 135 164 212 285 336 396
#     4  11  23  43  68  94 129 176 228 269 330 396
#     4  10  21  42  63  92 126 171 222 278 328 394
#     4  12  27  39  60  94 138 184 216 264 330 404
#
# _framework density 20.009726000000001
#
# number of rings (size 3 to 8) (size 9 to 14) (size 15 to 20)
#    0.353    1.412    2.353    1.059    8.235    1.412 
#    4.235    0.000    0.000    0.000    0.000    0.000 
#    0.000    0.000    0.000    0.000    0.000    0.000 
#
# Total GULP energy -189473.081592 kJ/mol
# GULP energy per Si atom -5572.737694 kJ/mol
# Density = 1.996418 g / cm^3
# Si number density = 20.009726 Si / 1000 Ang^3
#
#
#
# Elastic Constant Matrix: (Units=GPa)
#
#
# Indices 1 2 3 4 5 6 
#
# 1 138.5581 24.2646 46.1254 0.0000 0.0000 0.0000
# 2 24.2646 23.8812 2.2502 0.0000 0.0000 0.0000
# 3 46.1254 2.2502 138.2979 0.0000 0.0000 0.0000
# 4 0.0000 0.0000 0.0000 40.2911 0.0000 0.0000
# 5 0.0000 0.0000 0.0000 0.0000 35.8655 0.0000
# 6 0.0000 0.0000 0.0000 0.0000 0.0000 21.0497
#
#
#
# Elastic Compliance Matrix: (Units=1/GPa)
#
#
# Indices 1 2 3 4 5 6 
#
# 1 0.010001 -0.009863 -0.003175 0.000000 0.000000 0.000000
# 2 -0.009863 0.051664 0.002449 0.000000 0.000000 0.000000
# 3 -0.003175 0.002449 0.008250 0.000000 0.000000 0.000000
# 4 0.000000 0.000000 0.000000 0.024819 0.000000 0.000000
# 5 0.000000 0.000000 0.000000 0.000000 0.027882 0.000000
# 6 0.000000 0.000000 0.000000 0.000000 0.000000 0.047507
#
#
# Mechanical properties :
#
#
# Convention : Reuss Voigt Hill
#
# Bulk Modulus (GPa) = 20.51815 49.55750 35.03783
# Shear Modulus (GPa) = 24.09087 34.64775 29.36931
#
# Velocity S-wave (km/s) = 3.47357 4.16570 3.83528
# Velocity P-wave (km/s) = 5.13459 6.92516 6.09598
#
# Compressibility (1/GPa) = 0.04873735
#
# Stress axis : x y z
#
# Youngs Moduli (GPa) = 99.98612 19.35572 121.21323
#
# Poissons Ratio (x) = 0.19090 0.38488
# Poissons Ratio (y) = 0.98614 -0.29683
# Poissons Ratio (z) = 0.31748 -0.04740
#
# Static dielectric constant tensor:
#      x y z
#    x 1.718420 0.000000 0.000000 
#    y 0.000000 1.739770 0.000000 
#    z 0.000000 0.000000 1.690240 
# 
# From -- ./inp_files/52285.got.cif
#   From: 2010.05.17/outbox.cif.g08.bks.cpg/sg63_27_cif.got.tgz:52285.got - 2010.06.03 15:47:04.
