data_PCOD9474724
_publ_section_title
;
Structure prediction by ZEFSAII (Michael W. Deem and Ramdas Pophale) SiO2 
 PCOD9474724
Probable space group: C M C M
;
_chemical_formula_sum "Si O2"
_cell_formula_units_Z 56
_cell_length_a 11.218129
_cell_length_b 18.051688
_cell_length_c 14.890308
_cell_angle_alpha 90.000000
_cell_angle_beta 90.000000
_cell_angle_gamma 90.000000
_cell_volume 3015.379164
_symmetry_space_group_name_H-M "C M C M"
_symmetry_group_IT_number 63
_symmetry_cell_setting 'orthorhombic'
loop_
_space_group_symop_operation_xyz
x,y,z
-x,-y,1/2+z
x,-y,-z
-x,y,1/2-z
-x,-y,-z
x,y,1/2-z
-x,y,z
x,-y,1/2+z
1/2+x,1/2+y,z
1/2-x,1/2-y,1/2+z
1/2+x,1/2-y,-z
1/2-x,1/2+y,1/2-z
1/2-x,1/2-y,-z
1/2+x,1/2+y,1/2-z
1/2-x,1/2+y,z
1/2+x,1/2-y,1/2+z
loop_
_atom_site_type_symbol
_atom_site_label
_atom_site_fract_x
_atom_site_fract_y
_atom_site_fract_z
Si Si1 0.714831 0.476010 0.750000
Si Si2 0.000000 0.874023 0.053569
Si Si3 0.140670 0.667281 0.250000
Si Si4 0.140761 0.630180 0.750000
Si Si5 0.227111 0.221876 0.601185
Si Si6 0.500000 0.543606 0.384786
O O1 0.820321 0.417252 0.750000
O O2 0.773154 0.557628 0.750000
O O3 0.624269 0.458501 0.831184
O O4 0.114783 0.833263 0.092138
O O5 0.000000 0.960303 0.076763
O O6 0.000000 0.882766 0.945860
O O7 0.191856 0.708794 0.337083
O O8 0.000000 0.675765 0.250000
O O9 0.174237 0.677759 0.839730
O O10 0.000000 0.612215 0.750000
O O11 0.250000 0.250000 0.500000
#
# Coordination Sequence:
#
# PCOD9474724 Si02
#       6
#     8   8   8   8  16   8
#     4  11  21  42  60  92 129 165 212 262 318 375
#     4  11  20  40  66  94 121 160 218 260 321 383
#     4  11  23  40  64  92 125 171 212 258 318 387
#     4  11  25  42  64  92 129 171 216 268 326 383
#     4  11  24  42  66  92 132 168 211 265 327 388
#     4  10  22  36  68  94 122 160 213 269 310 379
#
# _framework density 18.571463000000001
#
# number of rings (size 3 to 8) (size 9 to 14) (size 15 to 20)
#    0.000    1.143    4.286    2.143    2.000    0.000 
#   10.286    0.000    0.000    5.143    0.000    0.000 
#    0.000    0.000    0.000    0.000    0.000    0.000 
#
# Total GULP energy -156030.079227 kJ/mol
# GULP energy per Si atom -5572.502830 kJ/mol
# Density = 1.852919 g / cm^3
# Si number density = 18.571463 Si / 1000 Ang^3
#
#
#
# Elastic Constant Matrix: (Units=GPa)
#
#
# Indices 1 2 3 4 5 6 
#
# 1 85.1148 6.0306 29.0609 0.0000 0.0000 0.0000
# 2 6.0306 74.3454 31.4749 0.0000 0.0000 0.0000
# 3 29.0609 31.4749 115.3088 0.0000 0.0000 0.0000
# 4 0.0000 0.0000 0.0000 24.3533 0.0000 0.0000
# 5 0.0000 0.0000 0.0000 0.0000 27.0354 0.0000
# 6 0.0000 0.0000 0.0000 0.0000 0.0000 39.0670
#
#
#
# Elastic Compliance Matrix: (Units=1/GPa)
#
#
# Indices 1 2 3 4 5 6 
#
# 1 0.012864 0.000372 -0.003344 0.000000 0.000000 0.000000
# 2 0.000372 0.015219 -0.004248 0.000000 0.000000 0.000000
# 3 -0.003344 -0.004248 0.010675 0.000000 0.000000 0.000000
# 4 0.000000 0.000000 0.000000 0.041062 0.000000 0.000000
# 5 0.000000 0.000000 0.000000 0.000000 0.036989 0.000000
# 6 0.000000 0.000000 0.000000 0.000000 0.000000 0.025597
#
#
# Mechanical properties :
#
#
# Convention : Reuss Voigt Hill
#
# Bulk Modulus (GPa) = 41.12082 45.32242 43.22162
# Shear Modulus (GPa) = 30.31209 31.97133 31.14171
#
# Velocity S-wave (km/s) = 4.04442 4.15363 4.09939
# Velocity P-wave (km/s) = 6.63323 6.88919 6.76242
#
# Compressibility (1/GPa) = 0.02431858
#
# Stress axis : x y z
#
# Youngs Moduli (GPa) = 77.73563 65.70743 93.68043
#
# Poissons Ratio (x) = -0.02445 0.31324
# Poissons Ratio (y) = -0.02892 0.39795
# Poissons Ratio (z) = 0.25992 0.27912
#
# Static dielectric constant tensor:
#      x y z
#    x 1.598520 0.000000 0.000000 
#    y 0.000000 1.608380 0.000000 
#    z 0.000000 0.000000 2.282380 
# 
# From -- ./inp_files/28802.got.cif
#   From: 2010.05.17/outbox.cif.g08.bks.cpg/sg63_15_cif.got.tgz:28802.got - 2010.06.03 15:47:04.
