data_PCOD9474449
_publ_section_title
;
Structure prediction by ZEFSAII (Michael W. Deem and Ramdas Pophale) SiO2 
 PCOD9474449
Probable space group: C M C M
;
_chemical_formula_sum "Si O2"
_cell_formula_units_Z 96
_cell_length_a 8.876468
_cell_length_b 30.713443
_cell_length_c 19.643893
_cell_angle_alpha 90.000000
_cell_angle_beta 90.000000
_cell_angle_gamma 90.000000
_cell_volume 5355.453534
_symmetry_space_group_name_H-M "C M C M"
_symmetry_group_IT_number 63
_symmetry_cell_setting 'orthorhombic'
loop_
_space_group_symop_operation_xyz
x,y,z
-x,-y,1/2+z
x,-y,-z
-x,y,1/2-z
-x,-y,-z
x,y,1/2-z
-x,y,z
x,-y,1/2+z
1/2+x,1/2+y,z
1/2-x,1/2-y,1/2+z
1/2+x,1/2-y,-z
1/2-x,1/2+y,1/2-z
1/2-x,1/2-y,-z
1/2+x,1/2+y,1/2-z
1/2-x,1/2+y,z
1/2+x,1/2-y,1/2+z
loop_
_atom_site_type_symbol
_atom_site_label
_atom_site_fract_x
_atom_site_fract_y
_atom_site_fract_z
Si Si1 0.681074 0.315683 0.170861
Si Si2 0.819479 0.380727 0.062127
Si Si3 0.818977 0.714792 0.170749
Si Si4 0.818288 0.947549 0.828567
Si Si5 0.819397 0.862352 0.915117
Si Si6 0.181353 0.481317 0.425896
O O1 0.719081 0.324191 0.250000
O O2 0.500000 0.319741 0.164153
O O3 0.761196 0.348487 0.120179
O O4 0.719653 0.265181 0.156113
O O5 0.775660 0.430695 0.078024
O O6 0.000000 0.379005 0.057550
O O7 0.749973 0.367560 0.989717
O O8 0.780331 0.706084 0.250000
O O9 0.738406 0.680962 0.121828
O O10 0.000000 0.710541 0.164335
O O11 0.769278 0.945637 0.750000
O O12 0.773182 0.904044 0.869442
O O13 0.000000 0.949620 0.829644
O O14 0.753211 0.989019 0.867847
O O15 0.000000 0.861787 0.919647
O O16 0.226168 0.500000 0.500000
O O17 0.000000 0.484417 0.421242
#
# Coordination Sequence:
#
# PCOD9474449 Si02
#       6
#    16  16  16  16  16  16
#     4   9  20  40  62  84 113 149 190 235 284 340
#     4  11  23  38  59  85 114 149 192 237 284 339
#     4   9  19  37  60  84 113 151 191 232 282 339
#     4  10  22  38  57  85 117 148 187 233 281 338
#     4  11  22  36  57  85 118 152 189 234 284 337
#     4  10  21  39  59  80 111 149 190 233 280 334
#
# _framework density 17.925653000000001
#
# number of rings (size 3 to 8) (size 9 to 14) (size 15 to 20)
#    0.000    2.000    1.667    2.500    0.000    6.000 
#    0.000    5.000    0.000    0.000    0.000    0.000 
#    0.000    0.000    0.000    0.000    0.000    0.000 
#
# Total GULP energy -268096.625822 kJ/mol
# GULP energy per Si atom -5585.346371 kJ/mol
# Density = 1.788485 g / cm^3
# Si number density = 17.925653 Si / 1000 Ang^3
#
#
#
# Elastic Constant Matrix: (Units=GPa)
#
#
# Indices 1 2 3 4 5 6 
#
# 1 35.1689 60.6561 56.0691 0.0000 0.0000 0.0000
# 2 60.6561 171.3913 123.2482 0.0000 0.0000 0.0000
# 3 56.0691 123.2482 160.9285 0.0000 0.0000 0.0000
# 4 0.0000 0.0000 0.0000 39.6348 0.0000 0.0000
# 5 0.0000 0.0000 0.0000 0.0000 32.3833 0.0000
# 6 0.0000 0.0000 0.0000 0.0000 0.0000 33.6385
#
#
#
# Elastic Compliance Matrix: (Units=1/GPa)
#
#
# Indices 1 2 3 4 5 6 
#
# 1 0.086519 -0.019905 -0.014900 0.000000 0.000000 0.000000
# 2 -0.019905 0.017566 -0.006518 0.000000 0.000000 0.000000
# 3 -0.014900 -0.006518 0.016397 0.000000 0.000000 0.000000
# 4 0.000000 0.000000 0.000000 0.025230 0.000000 0.000000
# 5 0.000000 0.000000 0.000000 0.000000 0.030880 0.000000
# 6 0.000000 0.000000 0.000000 0.000000 0.000000 0.029728
#
#
# Mechanical properties :
#
#
# Convention : Reuss Voigt Hill
#
# Bulk Modulus (GPa) = 26.42943 94.15950 60.29447
# Shear Modulus (GPa) = 16.57943 29.63234 23.10589
#
# Velocity S-wave (km/s) = 3.04452 4.07021 3.59414
# Velocity P-wave (km/s) = 5.20910 8.64469 7.13671
#
# Compressibility (1/GPa) = 0.03783660
#
# Stress axis : x y z
#
# Youngs Moduli (GPa) = 11.55818 56.92715 60.98629
#
# Poissons Ratio (x) = 1.13313 0.90868
# Poissons Ratio (y) = 0.23007 0.39752
# Poissons Ratio (z) = 0.17221 0.37106
#
# Static dielectric constant tensor:
#      x y z
#    x 1.601610 0.000000 0.000000 
#    y 0.000000 1.592180 0.000000 
#    z 0.000000 0.000000 1.582790 
# 
# From -- ./inp_files/51305.got.cif
#   From: 2010.05.17/outbox.cif.g08.bks.cpg/sg63_26_cif.got.tgz:51305.got - 2010.06.03 15:47:04.
