data_PCOD9474600
_publ_section_title
;
Structure prediction by ZEFSAII (Michael W. Deem and Ramdas Pophale) SiO2 
 PCOD9474600
Probable space group: C M C M
;
_chemical_formula_sum "Si O2"
_cell_formula_units_Z 68
_cell_length_a 16.870581
_cell_length_b 18.329538
_cell_length_c 10.809751
_cell_angle_alpha 90.000000
_cell_angle_beta 90.000000
_cell_angle_gamma 90.000000
_cell_volume 3342.698821
_symmetry_space_group_name_H-M "C M C M"
_symmetry_group_IT_number 63
_symmetry_cell_setting 'orthorhombic'
loop_
_space_group_symop_operation_xyz
x,y,z
-x,-y,1/2+z
x,-y,-z
-x,y,1/2-z
-x,-y,-z
x,y,1/2-z
-x,y,z
x,-y,1/2+z
1/2+x,1/2+y,z
1/2-x,1/2-y,1/2+z
1/2+x,1/2-y,-z
1/2-x,1/2+y,1/2-z
1/2-x,1/2-y,-z
1/2+x,1/2+y,1/2-z
1/2-x,1/2+y,z
1/2+x,1/2-y,1/2+z
loop_
_atom_site_type_symbol
_atom_site_label
_atom_site_fract_x
_atom_site_fract_y
_atom_site_fract_z
Si Si1 0.324923 0.938245 0.250000
Si Si2 0.907514 0.406292 0.750000
Si Si3 0.656532 0.627452 0.750000
Si Si4 0.000000 0.967729 0.250000
Si Si5 0.659129 0.318300 0.514863
Si Si6 0.335524 0.151313 0.499558
Si Si7 0.000000 0.110410 0.111817
O O1 0.229825 0.928433 0.250000
O O2 0.349753 0.900143 0.380723
O O3 0.355618 0.020137 0.250000
O O4 0.887931 0.364761 0.621294
O O5 0.000000 0.425126 0.750000
O O6 0.576433 0.582107 0.750000
O O7 0.661965 0.678561 0.632582
O O8 0.000000 0.023727 0.364740
O O9 0.654232 0.233803 0.550118
O O10 0.743974 0.353043 0.549440
O O11 0.581396 0.362856 0.552167
O O12 0.000000 0.143057 0.250000
#
# Coordination Sequence:
#
# PCOD9474600 Si02
#       7
#     8   8   8   4  16  16   8
#     4  10  24  43  67  96 123 169 218 265 324 377
#     4  12  27  45  64  96 128 169 213 264 324 382
#     4  10  21  40  64  95 125 172 211 257 311 382
#     4  10  24  38  58  96 142 172 202 252 310 378
#     4  10  22  42  66  95 127 163 218 261 317 376
#     4  10  24  43  72  92 128 168 213 272 319 377
#     4  10  25  37  58 100 129 173 202 256 312 381
#
# _framework density 20.342843999999999
#
# number of rings (size 3 to 8) (size 9 to 14) (size 15 to 20)
#    0.353    1.412    0.000    2.118    8.235    5.647 
#    2.118    0.000    0.000    0.000    0.000    0.000 
#    0.000    0.000    0.000    0.000    0.000    0.000 
#
# Total GULP energy -189681.793786 kJ/mol
# GULP energy per Si atom -5578.876288 kJ/mol
# Density = 2.029654 g / cm^3
# Si number density = 20.342844 Si / 1000 Ang^3
#
#
#
# Elastic Constant Matrix: (Units=GPa)
#
#
# Indices 1 2 3 4 5 6 
#
# 1 41.2710 -8.1171 6.0501 0.0000 0.0000 0.0000
# 2 -8.1171 47.0914 -5.2141 0.0000 0.0000 0.0000
# 3 6.0501 -5.2141 81.9951 0.0000 0.0000 0.0000
# 4 0.0000 0.0000 0.0000 28.0688 0.0000 0.0000
# 5 0.0000 0.0000 0.0000 0.0000 23.0836 0.0000
# 6 0.0000 0.0000 0.0000 0.0000 0.0000 12.6003
#
#
#
# Elastic Compliance Matrix: (Units=1/GPa)
#
#
# Indices 1 2 3 4 5 6 
#
# 1 0.025287 0.004182 -0.001600 0.000000 0.000000 0.000000
# 2 0.004182 0.022077 0.001095 0.000000 0.000000 0.000000
# 3 -0.001600 0.001095 0.012384 0.000000 0.000000 0.000000
# 4 0.000000 0.000000 0.000000 0.035627 0.000000 0.000000
# 5 0.000000 0.000000 0.000000 0.000000 0.043321 0.000000
# 6 0.000000 0.000000 0.000000 0.000000 0.000000 0.079363
#
#
# Mechanical properties :
#
#
# Convention : Reuss Voigt Hill
#
# Bulk Modulus (GPa) = 14.90270 17.31059 16.10664
# Shear Modulus (GPa) = 21.45262 24.59311 23.02286
#
# Velocity S-wave (km/s) = 3.25091 3.48074 3.36779
# Velocity P-wave (km/s) = 4.62957 4.96810 4.80182
#
# Compressibility (1/GPa) = 0.06710193
#
# Stress axis : x y z
#
# Youngs Moduli (GPa) = 39.54591 45.29532 80.75219
#
# Poissons Ratio (x) = -0.18940 0.12920
# Poissons Ratio (y) = -0.16536 -0.08845
# Poissons Ratio (z) = 0.06327 -0.04962
#
# Static dielectric constant tensor:
#      x y z
#    x 1.737370 0.000000 0.000000 
#    y 0.000000 1.694310 0.000000 
#    z 0.000000 0.000000 1.741890 
# 
# From -- ./inp_files/5950.got.cif
#   From: 2010.05.17/outbox.cif.g08.bks.cpg/sg63_3_cif.got.tgz:5950.got - 2010.06.03 15:47:04.
