data_PCOD9474084
_publ_section_title
;
Structure prediction by ZEFSAII (Michael W. Deem and Ramdas Pophale) SiO2 
 PCOD9474084
Probable space group: C M C M
;
_chemical_formula_sum "Si O2"
_cell_formula_units_Z 96
_cell_length_a 7.327328
_cell_length_b 25.318331
_cell_length_c 20.924906
_cell_angle_alpha 90.000000
_cell_angle_beta 90.000000
_cell_angle_gamma 90.000000
_cell_volume 3881.898911
_symmetry_space_group_name_H-M "C M C M"
_symmetry_group_IT_number 63
_symmetry_cell_setting 'orthorhombic'
loop_
_space_group_symop_operation_xyz
x,y,z
-x,-y,1/2+z
x,-y,-z
-x,y,1/2-z
-x,-y,-z
x,y,1/2-z
-x,y,z
x,-y,1/2+z
1/2+x,1/2+y,z
1/2-x,1/2-y,1/2+z
1/2+x,1/2-y,-z
1/2-x,1/2+y,1/2-z
1/2-x,1/2-y,-z
1/2+x,1/2+y,1/2-z
1/2-x,1/2+y,z
1/2+x,1/2-y,1/2+z
loop_
_atom_site_type_symbol
_atom_site_label
_atom_site_fract_x
_atom_site_fract_y
_atom_site_fract_z
Si Si1 0.795450 0.697846 0.350944
Si Si2 0.775892 0.586287 0.181129
Si Si3 0.289121 0.009567 0.428430
Si Si4 0.222550 0.183702 0.869551
Si Si5 0.285176 0.687856 0.491193
Si Si6 0.779474 0.926466 0.180475
O O1 0.711687 0.646924 0.318630
O O2 0.713403 0.756979 0.352082
O O3 0.805379 0.677147 0.424133
O O4 0.000000 0.704493 0.325379
O O5 0.723783 0.562634 0.250000
O O6 0.710828 0.554736 0.118681
O O7 0.000000 0.586514 0.178876
O O8 0.500000 0.024462 0.439348
O O9 0.211756 0.000000 0.500000
O O10 0.282977 0.958870 0.381483
O O11 0.271615 0.135219 0.825207
O O12 0.000000 0.187813 0.872203
O O13 0.279786 0.166256 0.941132
O O14 0.500000 0.677218 0.484286
O O15 0.250000 0.750000 0.500000
O O16 0.716010 0.945972 0.250000
O O17 0.000000 0.928903 0.179231
#
# Coordination Sequence:
#
# PCOD9474084 Si02
#       6
#    16  16  16  16  16  16
#     4   9  17  30  51  78 107 139 178 222 268 321
#     4   9  18  33  54  79 108 142 181 226 274 326
#     4  10  22  39  59  83 109 142 187 236 280 325
#     4   8  16  30  48  75 108 138 171 215 267 321
#     4   9  16  28  46  70 103 142 179 218 265 312
#     4  10  21  37  57  81 111 146 182 223 274 333
#
# _framework density 24.730163999999998
#
# number of rings (size 3 to 8) (size 9 to 14) (size 15 to 20)
#    0.000    2.833    0.000    2.000    2.333    2.000 
#    0.000    7.500    0.000    1.500    0.000    0.000 
#    0.000    0.000    0.000    0.000    0.000    0.000 
#
# Total GULP energy -267672.730967 kJ/mol
# GULP energy per Si atom -5576.515228 kJ/mol
# Density = 2.467388 g / cm^3
# Si number density = 24.730164 Si / 1000 Ang^3
#
#
#
# Elastic Constant Matrix: (Units=GPa)
#
#
# Indices 1 2 3 4 5 6 
#
# 1 101.7115 -7.5094 3.3363 0.0000 0.0000 0.0000
# 2 -7.5094 152.5394 71.0583 0.0000 0.0000 0.0000
# 3 3.3363 71.0583 218.1489 0.0000 0.0000 0.0000
# 4 0.0000 0.0000 0.0000 66.8894 0.0000 0.0000
# 5 0.0000 0.0000 0.0000 0.0000 -12.0016 0.0000
# 6 0.0000 0.0000 0.0000 0.0000 0.0000 4.9881
#
#
#
# Elastic Compliance Matrix: (Units=1/GPa)
#
#
# Indices 1 2 3 4 5 6 
#
# 1 0.009892 0.000657 -0.000365 0.000000 0.000000 0.000000
# 2 0.000657 0.007772 -0.002542 0.000000 0.000000 0.000000
# 3 -0.000365 -0.002542 0.005418 0.000000 0.000000 0.000000
# 4 0.000000 0.000000 0.000000 0.014950 0.000000 0.000000
# 5 0.000000 0.000000 0.000000 0.000000 -0.083322 0.000000
# 6 0.000000 0.000000 0.000000 0.000000 0.000000 0.200479
#
#
# Mechanical properties :
#
#
# Convention : Reuss Voigt Hill
#
# Bulk Modulus (GPa) = 53.81518 67.35224 60.58371
# Shear Modulus (GPa) = 30.14194 39.00950 34.57572
#
# Velocity S-wave (km/s) = 3.49497 3.97597 3.74320
# Velocity P-wave (km/s) = 6.17208 6.95498 6.57519
#
# Compressibility (1/GPa) = 0.01858212
#
# Stress axis : x y z
#
# Youngs Moduli (GPa) = 101.08945 128.66656 184.58650
#
# Poissons Ratio (x) = -0.08456 0.06744
# Poissons Ratio (y) = -0.06643 0.46916
# Poissons Ratio (z) = 0.03693 0.32703
#
# Static dielectric constant tensor:
#      x y z
#    x 1.940900 0.000000 0.000000 
#    y 0.000000 1.942120 0.000000 
#    z 0.000000 0.000000 1.990390 
# 
# From -- ./inp_files/51409.got.cif
#   From: 2010.05.17/outbox.cif.g08.bks.cpg/sg63_26_cif.got.tgz:51409.got - 2010.06.03 15:47:04.
