data_PCOD9474360
_publ_section_title
;
Structure prediction by ZEFSAII (Michael W. Deem and Ramdas Pophale) SiO2 
 PCOD9474360
Probable space group: C M C M
;
_chemical_formula_sum "Si O2"
_cell_formula_units_Z 88
_cell_length_a 16.688039
_cell_length_b 21.867087
_cell_length_c 13.389524
_cell_angle_alpha 90.000000
_cell_angle_beta 90.000000
_cell_angle_gamma 90.000000
_cell_volume 4886.089040
_symmetry_space_group_name_H-M "C M C M"
_symmetry_group_IT_number 63
_symmetry_cell_setting 'orthorhombic'
loop_
_space_group_symop_operation_xyz
x,y,z
-x,-y,1/2+z
x,-y,-z
-x,y,1/2-z
-x,-y,-z
x,y,1/2-z
-x,y,z
x,-y,1/2+z
1/2+x,1/2+y,z
1/2-x,1/2-y,1/2+z
1/2+x,1/2-y,-z
1/2-x,1/2+y,1/2-z
1/2-x,1/2-y,-z
1/2+x,1/2+y,1/2-z
1/2-x,1/2+y,z
1/2+x,1/2-y,1/2+z
loop_
_atom_site_type_symbol
_atom_site_label
_atom_site_fract_x
_atom_site_fract_y
_atom_site_fract_z
Si Si1 0.000000 0.939221 0.425502
Si Si2 0.711164 0.000000 0.500000
Si Si3 0.772540 0.294437 0.362613
Si Si4 0.409820 0.924996 0.867647
Si Si5 0.141048 0.290858 0.931752
Si Si6 0.819661 0.920623 0.360856
Si Si7 0.500000 0.301695 0.126556
O O1 0.912799 0.939845 0.372350
O O2 0.000000 0.863933 0.440549
O O3 0.000000 0.000000 0.500000
O O4 0.654598 0.034028 0.422481
O O5 0.768336 0.046756 0.555863
O O6 0.805270 0.296554 0.250000
O O7 0.837782 0.298696 0.450719
O O8 0.723477 0.232229 0.381733
O O9 0.706787 0.349467 0.369900
O O10 0.407367 0.935799 0.750000
O O11 0.500000 0.937499 0.903965
O O12 0.389196 0.854607 0.889169
O O13 0.075491 0.239941 0.903783
O O14 0.794219 0.939788 0.250000
O O15 0.500000 0.313833 0.250000
#
# Coordination Sequence:
#
# PCOD9474360 Si02
#       7
#     8   8  16  16  16  16   8
#     4  12  24  40  62  89 123 157 203 252 302 356
#     4  12  23  41  58  88 122 164 206 251 309 372
#     4  10  21  38  61  89 121 158 201 252 310 371
#     4  11  23  39  61  91 125 159 203 258 311 365
#     4  11  21  36  63  93 121 154 202 260 307 362
#     4  11  22  39  62  86 118 162 208 252 303 369
#     4  12  22  38  67  95 122 160 209 257 305 367
#
# _framework density 18.010314000000001
#
# number of rings (size 3 to 8) (size 9 to 14) (size 15 to 20)
#    0.000    0.909    5.455    3.273    0.000    0.000 
#    0.000    0.455    0.000    3.273    0.000    0.000 
#    0.000    0.000    0.000    0.000    0.000    0.000 
#
# Total GULP energy -245083.216351 kJ/mol
# GULP energy per Si atom -5570.073099 kJ/mol
# Density = 1.796932 g / cm^3
# Si number density = 18.010314 Si / 1000 Ang^3
#
#
#
# Elastic Constant Matrix: (Units=GPa)
#
#
# Indices 1 2 3 4 5 6 
#
# 1 83.5263 8.8979 36.8274 0.0000 0.0000 0.0000
# 2 8.8979 56.6704 24.0989 0.0000 0.0000 0.0000
# 3 36.8274 24.0989 100.7164 0.0000 0.0000 0.0000
# 4 0.0000 0.0000 0.0000 30.9467 0.0000 0.0000
# 5 0.0000 0.0000 0.0000 0.0000 33.5079 0.0000
# 6 0.0000 0.0000 0.0000 0.0000 0.0000 7.8989
#
#
#
# Elastic Compliance Matrix: (Units=1/GPa)
#
#
# Indices 1 2 3 4 5 6 
#
# 1 0.014273 -0.000024 -0.005213 0.000000 0.000000 0.000000
# 2 -0.000024 0.019645 -0.004692 0.000000 0.000000 0.000000
# 3 -0.005213 -0.004692 0.012958 0.000000 0.000000 0.000000
# 4 0.000000 0.000000 0.000000 0.032314 0.000000 0.000000
# 5 0.000000 0.000000 0.000000 0.000000 0.029844 0.000000
# 6 0.000000 0.000000 0.000000 0.000000 0.000000 0.126600
#
#
# Mechanical properties :
#
#
# Convention : Reuss Voigt Hill
#
# Bulk Modulus (GPa) = 37.01286 42.28463 39.64875
# Shear Modulus (GPa) = 18.90373 25.87663 22.39018
#
# Velocity S-wave (km/s) = 3.24328 3.79458 3.52971
# Velocity P-wave (km/s) = 5.88393 6.53662 6.21885
#
# Compressibility (1/GPa) = 0.02701764
#
# Stress axis : x y z
#
# Youngs Moduli (GPa) = 70.06007 50.90403 77.17374
#
# Poissons Ratio (x) = 0.00123 0.40234
# Poissons Ratio (y) = 0.00169 0.36208
# Poissons Ratio (z) = 0.36525 0.23883
#
# Static dielectric constant tensor:
#      x y z
#    x 1.618110 0.000000 0.000000 
#    y 0.000000 1.622300 0.000000 
#    z 0.000000 0.000000 1.610130 
# 
# From -- ./inp_files/21172.got.cif
#   From: 2010.05.17/outbox.cif.g08.bks.cpg/sg63_11_cif.got.tgz:21172.got - 2010.06.03 15:47:04.
