data_PCOD9474156
_publ_section_title
;
Structure prediction by ZEFSAII (Michael W. Deem and Ramdas Pophale) SiO2 
 PCOD9474156
Probable space group: C M C M
;
_chemical_formula_sum "Si O2"
_cell_formula_units_Z 56
_cell_length_a 16.428665
_cell_length_b 13.053723
_cell_length_c 13.862974
_cell_angle_alpha 90.000000
_cell_angle_beta 90.000000
_cell_angle_gamma 90.000000
_cell_volume 2972.987446
_symmetry_space_group_name_H-M "C M C M"
_symmetry_group_IT_number 63
_symmetry_cell_setting 'orthorhombic'
loop_
_space_group_symop_operation_xyz
x,y,z
-x,-y,1/2+z
x,-y,-z
-x,y,1/2-z
-x,-y,-z
x,y,1/2-z
-x,y,z
x,-y,1/2+z
1/2+x,1/2+y,z
1/2-x,1/2-y,1/2+z
1/2+x,1/2-y,-z
1/2-x,1/2+y,1/2-z
1/2-x,1/2-y,-z
1/2+x,1/2+y,1/2-z
1/2-x,1/2+y,z
1/2+x,1/2-y,1/2+z
loop_
_atom_site_type_symbol
_atom_site_label
_atom_site_fract_x
_atom_site_fract_y
_atom_site_fract_z
Si Si1 0.688338 0.117957 0.250000
Si Si2 0.374981 0.455879 0.750000
Si Si3 0.000000 0.911538 0.583593
Si Si4 0.160289 0.545733 0.602040
Si Si5 0.500000 0.181643 0.631083
Si Si6 0.783942 0.853927 0.250000
O O1 0.784646 0.089998 0.250000
O O2 0.688670 0.238266 0.250000
O O3 0.647872 0.058768 0.338257
O O4 0.422617 0.426594 0.653862
O O5 0.363374 0.576850 0.750000
O O6 0.000000 0.787755 0.569776
O O7 0.000000 0.000000 0.500000
O O8 0.186131 0.500000 0.500000
O O9 0.079523 0.614804 0.605124
O O10 0.228908 0.612168 0.658071
O O11 0.500000 0.200995 0.750000
#
# Coordination Sequence:
#
# PCOD9474156 Si02
#       6
#     8   8   8  16   8   8
#     4  10  21  38  62  86 119 159 200 240 293 352
#     4   9  20  37  55  82 116 151 196 239 293 344
#     4  11  23  37  60  87 113 154 200 240 289 358
#     4  10  22  37  60  92 117 154 202 243 291 353
#     4  12  19  40  66  82 118 164 191 243 300 341
#     4  10  21  37  59  83 119 160 188 246 300 340
#
# _framework density 18.836272999999998
#
# number of rings (size 3 to 8) (size 9 to 14) (size 15 to 20)
#    0.000    2.000    4.286    2.143    0.000    8.000 
#    0.000    2.857    0.000    0.000    0.000    0.000 
#    0.000    0.000    0.000    0.000    0.000    0.000 
#
# Total GULP energy -155905.229484 kJ/mol
# GULP energy per Si atom -5568.043910 kJ/mol
# Density = 1.879340 g / cm^3
# Si number density = 18.836273 Si / 1000 Ang^3
#
#
#
# Elastic Constant Matrix: (Units=GPa)
#
#
# Indices 1 2 3 4 5 6 
#
# 1 57.2930 33.6815 -5.6278 0.0000 0.0000 0.0000
# 2 33.6815 197.0783 33.3509 0.0000 0.0000 0.0000
# 3 -5.6278 33.3509 94.7278 0.0000 0.0000 0.0000
# 4 0.0000 0.0000 0.0000 14.7099 0.0000 0.0000
# 5 0.0000 0.0000 0.0000 0.0000 -16.4368 0.0000
# 6 0.0000 0.0000 0.0000 0.0000 0.0000 30.6425
#
#
#
# Elastic Compliance Matrix: (Units=1/GPa)
#
#
# Indices 1 2 3 4 5 6 
#
# 1 0.019962 -0.003841 0.002538 0.000000 0.000000 0.000000
# 2 -0.003841 0.006135 -0.002388 0.000000 0.000000 0.000000
# 3 0.002538 -0.002388 0.011548 0.000000 0.000000 0.000000
# 4 0.000000 0.000000 0.000000 0.067982 0.000000 0.000000
# 5 0.000000 0.000000 0.000000 0.000000 -0.060839 0.000000
# 6 0.000000 0.000000 0.000000 0.000000 0.000000 0.032634
#
#
# Mechanical properties :
#
#
# Convention : Reuss Voigt Hill
#
# Bulk Modulus (GPa) = 33.04400 52.43425 42.73912
# Shear Modulus (GPa) = 52.69224 24.96274 38.82749
#
# Velocity S-wave (km/s) = 5.29477 3.64435 4.54510
# Velocity P-wave (km/s) = 7.41352 6.75319 7.09105
#
# Compressibility (1/GPa) = 0.03026268
#
# Stress axis : x y z
#
# Youngs Moduli (GPa) = 50.09631 163.00721 86.59417
#
# Poissons Ratio (x) = 0.62612 -0.21980
# Poissons Ratio (y) = 0.19242 0.20679
# Poissons Ratio (z) = -0.12716 0.38927
#
# Static dielectric constant tensor:
#      x y z
#    x 1.643820 0.000000 0.000000 
#    y 0.000000 1.690060 0.000000 
#    z 0.000000 0.000000 1.603030 
# 
# From -- ./inp_files/33314.got.cif
#   From: 2010.05.17/outbox.cif.g08.bks.cpg/sg63_17_cif.got.tgz:33314.got - 2010.06.03 15:47:04.
