data_PCOD9474574
_publ_section_title
;
Structure prediction by ZEFSAII (Michael W. Deem and Ramdas Pophale) SiO2 
 PCOD9474574
Probable space group: C M C M
;
_chemical_formula_sum "Si O2"
_cell_formula_units_Z 68
_cell_length_a 12.744950
_cell_length_b 12.836696
_cell_length_c 20.036456
_cell_angle_alpha 90.000000
_cell_angle_beta 90.000000
_cell_angle_gamma 90.000000
_cell_volume 3278.025286
_symmetry_space_group_name_H-M "C M C M"
_symmetry_group_IT_number 63
_symmetry_cell_setting 'orthorhombic'
loop_
_space_group_symop_operation_xyz
x,y,z
-x,-y,1/2+z
x,-y,-z
-x,y,1/2-z
-x,-y,-z
x,y,1/2-z
-x,y,z
x,-y,1/2+z
1/2+x,1/2+y,z
1/2-x,1/2-y,1/2+z
1/2+x,1/2-y,-z
1/2-x,1/2+y,1/2-z
1/2-x,1/2-y,-z
1/2+x,1/2+y,1/2-z
1/2-x,1/2+y,z
1/2+x,1/2-y,1/2+z
loop_
_atom_site_type_symbol
_atom_site_label
_atom_site_fract_x
_atom_site_fract_y
_atom_site_fract_z
Si Si1 0.884508 0.917688 0.170539
Si Si2 0.384919 0.229010 0.554961
Si Si3 0.343518 0.023282 0.873356
Si Si4 0.500000 0.062896 0.750000
Si Si5 0.163244 0.287891 0.902733
O O1 0.878851 0.929633 0.250000
O O2 0.781624 0.969398 0.138926
O O3 0.875476 0.795818 0.150625
O O4 0.000000 0.955149 0.147983
O O5 0.500000 0.261091 0.577962
O O6 0.370428 0.105686 0.568772
O O7 0.289811 0.282840 0.593645
O O8 0.373216 0.247828 0.476193
O O9 0.408253 0.059388 0.808694
O O10 0.371856 0.904630 0.888847
#
# Coordination Sequence:
#
# PCOD9474574 Si02
#       5
#    16  16  16   4  16
#     4  10  22  38  57  82 118 154 194 243 292 346
#     4  10  21  40  60  86 119 154 192 245 293 345
#     4  11  23  39  60  86 119 155 196 238 294 347
#     4  12  24  36  60  92 120 154 194 246 284 356
#     4  10  23  37  60  90 114 151 202 239 293 348
#
# _framework density 20.744195999999999
#
# number of rings (size 3 to 8) (size 9 to 14) (size 15 to 20)
#    0.000    1.647    2.353    1.412    4.941    1.882 
#    0.000    0.000    0.000    8.471    0.000    0.000 
#    0.000    0.000    0.000    0.000    0.000    0.000 
#
# Total GULP energy -189360.126407 kJ/mol
# GULP energy per Si atom -5569.415483 kJ/mol
# Density = 2.069698 g / cm^3
# Si number density = 20.744196 Si / 1000 Ang^3
#
#
#
# Elastic Constant Matrix: (Units=GPa)
#
#
# Indices 1 2 3 4 5 6 
#
# 1 181.6585 -13.5797 2.7453 0.0000 0.0000 0.0000
# 2 -13.5797 48.5333 -17.8240 0.0000 0.0000 0.0000
# 3 2.7453 -17.8240 13.9205 0.0000 0.0000 0.0000
# 4 0.0000 0.0000 0.0000 0.2066 0.0000 0.0000
# 5 0.0000 0.0000 0.0000 0.0000 3.7597 0.0000
# 6 0.0000 0.0000 0.0000 0.0000 0.0000 -5.8743
#
#
#
# Elastic Compliance Matrix: (Units=1/GPa)
#
#
# Indices 1 2 3 4 5 6 
#
# 1 0.005644 0.002209 0.001716 0.000000 0.000000 0.000000
# 2 0.002209 0.039758 0.050471 0.000000 0.000000 0.000000
# 3 0.001716 0.050471 0.136122 0.000000 0.000000 0.000000
# 4 0.000000 0.000000 0.000000 4.841366 0.000000 0.000000
# 5 0.000000 0.000000 0.000000 0.000000 0.265977 0.000000
# 6 0.000000 0.000000 0.000000 0.000000 0.000000 -0.170234
#
#
# Mechanical properties :
#
#
# Convention : Reuss Voigt Hill
#
# Bulk Modulus (GPa) = 3.44451 20.75507 12.09979
# Shear Modulus (GPa) = 0.97912 17.80312 9.39112
#
# Velocity S-wave (km/s) = 0.68777 2.93272 2.13001
# Velocity P-wave (km/s) = 1.51485 4.63624 3.44888
#
# Compressibility (1/GPa) = 0.29031717
#
# Stress axis : x y z
#
# Youngs Moduli (GPa) = 177.17743 25.15195 7.34636
#
# Poissons Ratio (x) = -0.05557 -0.01260
# Poissons Ratio (y) = -0.39144 -0.37078
# Poissons Ratio (z) = -0.30400 -1.26945
#
# Static dielectric constant tensor:
#      x y z
#    x 1.806450 0.000000 0.000000 
#    y 0.000000 1.724950 0.000000 
#    z 0.000000 0.000000 1.705200 
# 
# From -- ./inp_files/52186.got.cif
#   From: 2010.05.17/outbox.cif.g08.bks.cpg/sg63_27_cif.got.tgz:52186.got - 2010.06.03 15:47:04.
