data_PCOD9474928
_publ_section_title
;
Structure prediction by ZEFSAII (Michael W. Deem and Ramdas Pophale) SiO2 
 PCOD9474928
Probable space group: C M C M
;
_chemical_formula_sum "Si O2"
_cell_formula_units_Z 80
_cell_length_a 18.662961
_cell_length_b 8.766984
_cell_length_c 24.471142
_cell_angle_alpha 90.000000
_cell_angle_beta 90.000000
_cell_angle_gamma 90.000000
_cell_volume 4003.916387
_symmetry_space_group_name_H-M "C M C M"
_symmetry_group_IT_number 63
_symmetry_cell_setting 'orthorhombic'
loop_
_space_group_symop_operation_xyz
x,y,z
-x,-y,1/2+z
x,-y,-z
-x,y,1/2-z
-x,-y,-z
x,y,1/2-z
-x,y,z
x,-y,1/2+z
1/2+x,1/2+y,z
1/2-x,1/2-y,1/2+z
1/2+x,1/2-y,-z
1/2-x,1/2+y,1/2-z
1/2-x,1/2-y,-z
1/2+x,1/2+y,1/2-z
1/2-x,1/2+y,z
1/2+x,1/2-y,1/2+z
loop_
_atom_site_type_symbol
_atom_site_label
_atom_site_fract_x
_atom_site_fract_y
_atom_site_fract_z
Si Si1 0.310240 0.987469 0.364114
Si Si2 0.325380 0.336615 0.686179
Si Si3 0.082493 0.948403 0.593991
Si Si4 0.324141 0.790756 0.471955
Si Si5 0.083442 0.309829 0.923057
O O1 0.322468 0.845292 0.323833
O O2 0.303483 0.905769 0.423214
O O3 0.242294 0.084036 0.344112
O O4 0.376475 0.100639 0.374628
O O5 0.323718 0.371639 0.750000
O O6 0.394789 0.401401 0.655051
O O7 0.135678 0.852550 0.555700
O O8 0.000000 0.907564 0.581922
O O9 0.090824 0.128469 0.585941
O O10 0.250000 0.750000 0.500000
O O11 0.377698 0.843388 0.519611
O O12 0.000000 0.350129 0.925265
#
# Coordination Sequence:
#
# PCOD9474928 Si02
#       5
#    16  16  16  16  16
#     4  11  24  38  60  91 119 152 200 250 299 360
#     4  11  23  42  66  87 114 154 202 259 314 362
#     4  10  22  40  62  90 123 161 206 250 295 358
#     4  11  22  37  61  92 125 162 200 240 294 358
#     4  11  23  39  60  89 128 167 199 240 297 363
#
# _framework density 19.980436000000001
#
# number of rings (size 3 to 8) (size 9 to 14) (size 15 to 20)
#    0.000    1.200    0.000    7.200    0.000   10.000 
#    0.000    1.000    0.000    4.200    0.000    0.000 
#    0.000    0.000    0.000    0.000    0.000    0.000 
#
# Total GULP energy -223644.071445 kJ/mol
# GULP energy per Si atom -5591.101786 kJ/mol
# Density = 1.993496 g / cm^3
# Si number density = 19.980436 Si / 1000 Ang^3
#
#
#
# Elastic Constant Matrix: (Units=GPa)
#
#
# Indices 1 2 3 4 5 6 
#
# 1 139.4721 64.7187 53.8037 0.0000 0.0000 0.0000
# 2 64.7187 95.9509 44.9751 0.0000 0.0000 0.0000
# 3 53.8037 44.9751 90.5340 0.0000 0.0000 0.0000
# 4 0.0000 0.0000 0.0000 15.5863 0.0000 0.0000
# 5 0.0000 0.0000 0.0000 0.0000 20.9830 0.0000
# 6 0.0000 0.0000 0.0000 0.0000 0.0000 29.0084
#
#
#
# Elastic Compliance Matrix: (Units=1/GPa)
#
#
# Indices 1 2 3 4 5 6 
#
# 1 0.011378 -0.005872 -0.003845 0.000000 0.000000 0.000000
# 2 -0.005872 0.016616 -0.004765 0.000000 0.000000 0.000000
# 3 -0.003845 -0.004765 0.015697 0.000000 0.000000 0.000000
# 4 0.000000 0.000000 0.000000 0.064159 0.000000 0.000000
# 5 0.000000 0.000000 0.000000 0.000000 0.047658 0.000000
# 6 0.000000 0.000000 0.000000 0.000000 0.000000 0.034473
#
#
# Mechanical properties :
#
#
# Convention : Reuss Voigt Hill
#
# Bulk Modulus (GPa) = 67.89624 72.55022 70.22323
# Shear Modulus (GPa) = 22.33606 23.94618 23.14112
#
# Velocity S-wave (km/s) = 3.34712 3.46566 3.40691
# Velocity P-wave (km/s) = 6.99948 7.23905 7.12028
#
# Compressibility (1/GPa) = 0.01472836
#
# Stress axis : x y z
#
# Youngs Moduli (GPa) = 87.88959 60.18230 63.70498
#
# Poissons Ratio (x) = 0.35341 0.24492
# Poissons Ratio (y) = 0.51611 0.30353
# Poissons Ratio (z) = 0.33790 0.28675
#
# Static dielectric constant tensor:
#      x y z
#    x 1.687670 0.000000 0.000000 
#    y 0.000000 1.758280 0.000000 
#    z 0.000000 0.000000 1.702850 
# 
# From -- ./inp_files/69723.got.cif
#   From: 2010.05.17/outbox.cif.g08.bks.cpg/sg63_35_cif.got.tgz:69723.got - 2010.06.03 15:47:04.
