data_PCOD9474499
_publ_section_title
;
Structure prediction by ZEFSAII (Michael W. Deem and Ramdas Pophale) SiO2 
 PCOD9474499
Probable space group: C M C M
;
_chemical_formula_sum "Si O2"
_cell_formula_units_Z 116
_cell_length_a 14.690464
_cell_length_b 12.072742
_cell_length_c 27.005768
_cell_angle_alpha 90.000000
_cell_angle_beta 90.000000
_cell_angle_gamma 90.000000
_cell_volume 4789.585886
_symmetry_space_group_name_H-M "C M C M"
_symmetry_group_IT_number 63
_symmetry_cell_setting 'orthorhombic'
loop_
_space_group_symop_operation_xyz
x,y,z
-x,-y,1/2+z
x,-y,-z
-x,y,1/2-z
-x,-y,-z
x,y,1/2-z
-x,y,z
x,-y,1/2+z
1/2+x,1/2+y,z
1/2-x,1/2-y,1/2+z
1/2+x,1/2-y,-z
1/2-x,1/2+y,1/2-z
1/2-x,1/2-y,-z
1/2+x,1/2+y,1/2-z
1/2-x,1/2+y,z
1/2+x,1/2-y,1/2+z
loop_
_atom_site_type_symbol
_atom_site_label
_atom_site_fract_x
_atom_site_fract_y
_atom_site_fract_z
Si Si1 0.862334 0.231523 0.805580
Si Si2 0.650467 0.207510 0.678125
Si Si3 0.853927 0.474025 0.847622
Si Si4 0.399197 0.690160 0.081778
Si Si5 0.000000 0.791882 0.750000
Si Si6 0.348606 0.536636 0.622213
Si Si7 0.894611 0.574020 0.456857
Si Si8 0.111570 0.178213 0.531793
O O1 0.897119 0.217455 0.750000
O O2 0.752603 0.222876 0.803850
O O3 0.881198 0.354907 0.825948
O O4 0.889687 0.131251 0.842063
O O5 0.654563 0.232347 0.619383
O O6 0.579922 0.283459 0.706926
O O7 0.617270 0.080606 0.683969
O O8 0.744999 0.491232 0.853910
O O9 0.890102 0.480448 0.903426
O O10 0.500000 0.739455 0.076527
O O11 0.403343 0.573056 0.109522
O O12 0.365978 0.668971 0.026215
O O13 0.339123 0.595340 0.568880
O O14 0.852046 0.500000 0.500000
O O15 0.858846 0.698347 0.452749
O O16 0.000000 0.591245 0.470952
O O17 0.000000 0.162435 0.537183
#
# Coordination Sequence:
#
# PCOD9474499 Si02
#       8
#    16  16  16  16   4  16  16  16
#     4  11  24  46  66  91 128 172 218 270 334 389
#     4  11  24  42  65  98 125 167 221 273 329 389
#     4  11  24  41  66  92 129 170 211 279 326 391
#     4  11  22  41  67  98 135 172 216 270 323 390
#     4  12  24  44  68  96 130 164 226 286 328 394
#     4  11  23  41  64  97 129 171 220 261 328 398
#     4  10  21  39  62  92 128 173 214 260 323 388
#     4  10  21  39  66  94 133 175 215 264 324 391
#
# _framework density 24.219211999999999
#
# number of rings (size 3 to 8) (size 9 to 14) (size 15 to 20)
#    0.000    1.241    4.138    1.655    1.931    3.862 
#    1.241    2.759    0.000    2.897    0.000    0.000 
#    0.000    0.000    0.000    0.000    0.000    0.000 
#
# Total GULP energy -323855.184255 kJ/mol
# GULP energy per Si atom -5583.710073 kJ/mol
# Density = 2.416409 g / cm^3
# Si number density = 24.219212 Si / 1000 Ang^3
#
#
#
# Elastic Constant Matrix: (Units=GPa)
#
#
# Indices 1 2 3 4 5 6 
#
# 1 67.2043 -14.2702 2.6183 0.0000 0.0000 0.0000
# 2 -14.2702 104.4821 21.5483 0.0000 0.0000 0.0000
# 3 2.6183 21.5483 146.0568 0.0000 0.0000 0.0000
# 4 0.0000 0.0000 0.0000 7.6769 0.0000 0.0000
# 5 0.0000 0.0000 0.0000 0.0000 23.3528 0.0000
# 6 0.0000 0.0000 0.0000 0.0000 0.0000 -17.1093
#
#
#
# Elastic Compliance Matrix: (Units=1/GPa)
#
#
# Indices 1 2 3 4 5 6 
#
# 1 0.015376 0.002225 -0.000604 0.000000 0.000000 0.000000
# 2 0.002225 0.010193 -0.001544 0.000000 0.000000 0.000000
# 3 -0.000604 -0.001544 0.007085 0.000000 0.000000 0.000000
# 4 0.000000 0.000000 0.000000 0.130261 0.000000 0.000000
# 5 0.000000 0.000000 0.000000 0.000000 0.042821 0.000000
# 6 0.000000 0.000000 0.000000 0.000000 0.000000 -0.058448
#
#
# Mechanical properties :
#
#
# Convention : Reuss Voigt Hill
#
# Bulk Modulus (GPa) = 30.48000 37.50399 33.99199
# Shear Modulus (GPa) = 31.63136 23.30721 27.46928
#
# Velocity S-wave (km/s) = 3.61784 3.10553 3.37143
# Velocity P-wave (km/s) = 5.48307 5.32710 5.40565
#
# Compressibility (1/GPa) = 0.03280840
#
# Stress axis : x y z
#
# Youngs Moduli (GPa) = 65.03686 98.10431 141.13875
#
# Poissons Ratio (x) = -0.21824 0.08523
# Poissons Ratio (y) = -0.14468 0.21788
# Poissons Ratio (z) = 0.03927 0.15145
#
# Static dielectric constant tensor:
#      x y z
#    x 1.946450 0.000000 0.000000 
#    y 0.000000 1.956630 0.000000 
#    z 0.000000 0.000000 1.808840 
# 
# From -- ./inp_files/70034.got.cif
#   From: 2010.05.17/outbox.cif.g08.bks.cpg/sg63_36_cif.got.tgz:70034.got - 2010.06.03 15:47:04.
