data_PCOD9474263
_publ_section_title
;
Structure prediction by ZEFSAII (Michael W. Deem and Ramdas Pophale) SiO2 
 PCOD9474263
Probable space group: C M C M
;
_chemical_formula_sum "Si O2"
_cell_formula_units_Z 76
_cell_length_a 26.371110
_cell_length_b 17.226461
_cell_length_c 9.551705
_cell_angle_alpha 90.000000
_cell_angle_beta 90.000000
_cell_angle_gamma 90.000000
_cell_volume 4339.157124
_symmetry_space_group_name_H-M "C M C M"
_symmetry_group_IT_number 63
_symmetry_cell_setting 'orthorhombic'
loop_
_space_group_symop_operation_xyz
x,y,z
-x,-y,1/2+z
x,-y,-z
-x,y,1/2-z
-x,-y,-z
x,y,1/2-z
-x,y,z
x,-y,1/2+z
1/2+x,1/2+y,z
1/2-x,1/2-y,1/2+z
1/2+x,1/2-y,-z
1/2-x,1/2+y,1/2-z
1/2-x,1/2-y,-z
1/2+x,1/2+y,1/2-z
1/2-x,1/2+y,z
1/2+x,1/2-y,1/2+z
loop_
_atom_site_type_symbol
_atom_site_label
_atom_site_fract_x
_atom_site_fract_y
_atom_site_fract_z
Si Si1 0.348577 0.688830 0.582900
Si Si2 0.058552 0.922563 0.084212
Si Si3 0.656080 0.870735 0.915738
Si Si4 0.500000 0.002949 0.250000
Si Si5 0.272881 0.420244 0.582934
Si Si6 0.581310 0.000000 0.000000
O O1 0.336914 0.680331 0.750000
O O2 0.402377 0.646687 0.557034
O O3 0.349874 0.779970 0.550769
O O4 0.307530 0.645248 0.488159
O O5 0.060656 0.939550 0.250000
O O6 0.000000 0.903097 0.049040
O O7 0.072901 0.000000 0.000000
O O8 0.644897 0.880018 0.750000
O O9 0.714067 0.897116 0.936551
O O10 0.618059 0.925232 0.999960
O O11 0.455486 0.003156 0.369296
O O12 0.282941 0.500000 0.500000
O O13 0.282612 0.427957 0.750000
#
# Coordination Sequence:
#
# PCOD9474263 Si02
#       6
#    16  16  16   4  16   8
#     4  10  21  38  57  87 117 151 193 247 297 356
#     4   9  18  34  56  78 106 144 186 228 280 341
#     4  10  21  39  62  85 118 155 198 244 303 359
#     4  10  24  38  68  90 116 154 206 254 298 350
#     4  11  22  37  59  87 117 158 198 240 296 360
#     4  11  20  44  62  92 118 158 205 250 300 356
#
# _framework density 17.514923
#
# number of rings (size 3 to 8) (size 9 to 14) (size 15 to 20)
#    0.000    1.895    2.105    1.895    0.000    2.526 
#    7.579    0.000    0.000    0.000    0.000    0.000 
#    0.000    0.000    0.000    0.000    0.000    0.000 
#
# Total GULP energy -211546.828807 kJ/mol
# GULP energy per Si atom -5567.021811 kJ/mol
# Density = 1.747506 g / cm^3
# Si number density = 17.514923 Si / 1000 Ang^3
#
#
#
# Elastic Constant Matrix: (Units=GPa)
#
#
# Indices 1 2 3 4 5 6 
#
# 1 100.3688 60.6118 51.5568 0.0000 0.0000 0.0000
# 2 60.6118 120.7056 43.7992 0.0000 0.0000 0.0000
# 3 51.5568 43.7992 80.8552 0.0000 0.0000 0.0000
# 4 0.0000 0.0000 0.0000 -709.8150 0.0000 0.0000
# 5 0.0000 0.0000 0.0000 0.0000 81.9994 0.0000
# 6 0.0000 0.0000 0.0000 0.0000 0.0000 7.0482
#
#
#
# Elastic Compliance Matrix: (Units=1/GPa)
#
#
# Indices 1 2 3 4 5 6 
#
# 1 0.017706 -0.005967 -0.008058 0.000000 0.000000 0.000000
# 2 -0.005967 0.012322 -0.002870 0.000000 0.000000 0.000000
# 3 -0.008058 -0.002870 0.019060 0.000000 0.000000 0.000000
# 4 0.000000 0.000000 0.000000 -0.001409 0.000000 0.000000
# 5 0.000000 0.000000 0.000000 0.000000 0.012195 0.000000
# 6 0.000000 0.000000 0.000000 0.000000 0.000000 0.141881
#
#
# Mechanical properties :
#
#
# Convention : Reuss Voigt Hill
#
# Bulk Modulus (GPa) = 65.36417 68.20724 66.78571
# Shear Modulus (GPa) = 20.77747 -114.42272 -46.82262
#
# Velocity S-wave (km/s) = 3.44797 -8.09139 -5.17600
# Velocity P-wave (km/s) = 7.29736 6.94745 1.57866
#
# Compressibility (1/GPa) = 0.01529890
#
# Stress axis : x y z
#
# Youngs Moduli (GPa) = 56.47909 81.15284 52.46471
#
# Poissons Ratio (x) = 0.48424 0.42274
# Poissons Ratio (y) = 0.33701 0.15058
# Poissons Ratio (z) = 0.45508 0.23292
#
# Static dielectric constant tensor:
#      x y z
#    x 1.589040 0.000000 0.000000 
#    y 0.000000 1.573190 0.000000 
#    z 0.000000 0.000000 1.582560 
# 
# From -- ./inp_files/23730.got.cif
#   From: 2010.05.17/outbox.cif.g08.bks.cpg/sg63_12_cif.got.tgz:23730.got - 2010.06.03 15:47:04.
