data_PCOD9474243
_publ_section_title
;
Structure prediction by ZEFSAII (Michael W. Deem and Ramdas Pophale) SiO2 
 PCOD9474243
Probable space group: C M C M
;
_chemical_formula_sum "Si O2"
_cell_formula_units_Z 112
_cell_length_a 13.585809
_cell_length_b 13.927607
_cell_length_c 26.416315
_cell_angle_alpha 90.000000
_cell_angle_beta 90.000000
_cell_angle_gamma 90.000000
_cell_volume 4998.437234
_symmetry_space_group_name_H-M "C M C M"
_symmetry_group_IT_number 63
_symmetry_cell_setting 'orthorhombic'
loop_
_space_group_symop_operation_xyz
x,y,z
-x,-y,1/2+z
x,-y,-z
-x,y,1/2-z
-x,-y,-z
x,y,1/2-z
-x,y,z
x,-y,1/2+z
1/2+x,1/2+y,z
1/2-x,1/2-y,1/2+z
1/2+x,1/2-y,-z
1/2-x,1/2+y,1/2-z
1/2-x,1/2-y,-z
1/2+x,1/2+y,1/2-z
1/2-x,1/2+y,z
1/2+x,1/2-y,1/2+z
loop_
_atom_site_type_symbol
_atom_site_label
_atom_site_fract_x
_atom_site_fract_y
_atom_site_fract_z
Si Si1 0.657282 0.244933 0.964038
Si Si2 0.887574 0.748503 0.307487
Si Si3 0.612346 0.123349 0.808258
Si Si4 0.228639 0.121427 0.883094
Si Si5 0.815820 0.846236 0.694644
Si Si6 0.185102 0.073748 0.412647
Si Si7 0.106010 0.588297 0.462004
O O1 0.699210 0.190770 0.914641
O O2 0.626400 0.351337 0.947650
O O3 0.750000 0.250000 0.000000
O O4 0.594840 0.176587 0.999350
O O5 0.881636 0.790796 0.250000
O O6 0.852451 0.821773 0.350897
O O7 0.802355 0.668639 0.307730
O O8 0.000000 0.716981 0.315260
O O9 0.619086 0.091421 0.750000
O O10 0.500000 0.110918 0.825877
O O11 0.695219 0.075083 0.842781
O O12 0.639234 0.237798 0.808108
O O13 0.180927 0.040552 0.918414
O O14 0.842781 0.885984 0.750000
O O15 0.844889 0.903602 0.644963
O O16 0.300339 0.098415 0.425352
O O17 0.126644 0.500000 0.500000
O O18 0.000000 0.572571 0.436181
#
# Coordination Sequence:
#
# PCOD9474243 Si02
#       7
#    16  16  16  16  16  16  16
#     4  10  21  38  55  81 111 144 181 227 289 336
#     4   9  18  35  57  79 110 152 195 236 277 328
#     4   9  18  34  56  83 117 152 187 234 288 339
#     4  11  20  35  58  84 112 149 188 235 281 343
#     4   9  18  34  55  83 113 149 189 230 285 342
#     4  11  21  36  57  85 114 152 187 232 287 344
#     4  10  21  38  60  86 113 144 190 242 291 347
#
# _framework density 22.407003
#
# number of rings (size 3 to 8) (size 9 to 14) (size 15 to 20)
#    0.000    2.143    4.286    1.286    0.000    2.857 
#    0.000    1.429    0.000    3.429    0.000    4.000 
#    0.000    0.000    0.000    0.000    0.000    0.000 
#
# Total GULP energy -312077.008533 kJ/mol
# GULP energy per Si atom -5572.803724 kJ/mol
# Density = 2.235600 g / cm^3
# Si number density = 22.407003 Si / 1000 Ang^3
#
#
#
# Elastic Constant Matrix: (Units=GPa)
#
#
# Indices 1 2 3 4 5 6 
#
# 1 37.1336 -10.3702 1.2854 0.0000 0.0000 0.0000
# 2 -10.3702 28.1494 -12.9470 0.0000 0.0000 0.0000
# 3 1.2854 -12.9470 64.9664 0.0000 0.0000 0.0000
# 4 0.0000 0.0000 0.0000 24.2290 0.0000 0.0000
# 5 0.0000 0.0000 0.0000 0.0000 9.3025 0.0000
# 6 0.0000 0.0000 0.0000 0.0000 0.0000 12.4856
#
#
#
# Elastic Compliance Matrix: (Units=1/GPa)
#
#
# Indices 1 2 3 4 5 6 
#
# 1 0.030205 0.011948 0.001783 0.000000 0.000000 0.000000
# 2 0.011948 0.043835 0.008499 0.000000 0.000000 0.000000
# 3 0.001783 0.008499 0.017051 0.000000 0.000000 0.000000
# 4 0.000000 0.000000 0.000000 0.041273 0.000000 0.000000
# 5 0.000000 0.000000 0.000000 0.000000 0.107499 0.000000
# 6 0.000000 0.000000 0.000000 0.000000 0.000000 0.080092
#
#
# Mechanical properties :
#
#
# Convention : Reuss Voigt Hill
#
# Bulk Modulus (GPa) = 7.37726 9.57622 8.47674
# Shear Modulus (GPa) = 15.59197 19.35548 17.47373
#
# Velocity S-wave (km/s) = 2.64076 2.94226 2.79558
# Velocity P-wave (km/s) = 3.54933 3.97814 3.76983
#
# Compressibility (1/GPa) = 0.13555162
#
# Stress axis : x y z
#
# Youngs Moduli (GPa) = 33.10755 22.81265 58.64719
#
# Poissons Ratio (x) = -0.27255 -0.10459
# Poissons Ratio (y) = -0.39555 -0.49847
# Poissons Ratio (z) = -0.05904 -0.19389
#
# Static dielectric constant tensor:
#      x y z
#    x 1.827180 0.000000 0.000000 
#    y 0.000000 1.888300 0.000000 
#    z 0.000000 0.000000 1.822090 
# 
# From -- ./inp_files/69377.got.cif
#   From: 2010.05.17/outbox.cif.g08.bks.cpg/sg63_35_cif.got.tgz:69377.got - 2010.06.03 15:47:04.
