data_PCOD9474612
_publ_section_title
;
Structure prediction by ZEFSAII (Michael W. Deem and Ramdas Pophale) SiO2 
 PCOD9474612
Probable space group: C M C M
;
_chemical_formula_sum "Si O2"
_cell_formula_units_Z 96
_cell_length_a 13.733205
_cell_length_b 22.383145
_cell_length_c 15.547416
_cell_angle_alpha 90.000000
_cell_angle_beta 90.000000
_cell_angle_gamma 90.000000
_cell_volume 4779.156256
_symmetry_space_group_name_H-M "C M C M"
_symmetry_group_IT_number 63
_symmetry_cell_setting 'orthorhombic'
loop_
_space_group_symop_operation_xyz
x,y,z
-x,-y,1/2+z
x,-y,-z
-x,y,1/2-z
-x,-y,-z
x,y,1/2-z
-x,y,z
x,-y,1/2+z
1/2+x,1/2+y,z
1/2-x,1/2-y,1/2+z
1/2+x,1/2-y,-z
1/2-x,1/2+y,1/2-z
1/2-x,1/2-y,-z
1/2+x,1/2+y,1/2-z
1/2-x,1/2+y,z
1/2+x,1/2-y,1/2+z
loop_
_atom_site_type_symbol
_atom_site_label
_atom_site_fract_x
_atom_site_fract_y
_atom_site_fract_z
Si Si1 0.500000 0.598020 0.150976
Si Si2 0.391933 0.819263 0.845333
Si Si3 0.110931 0.606791 0.648729
Si Si4 0.000000 0.955459 0.149132
Si Si5 0.891098 0.728603 0.961856
Si Si6 0.207630 0.058471 0.938820
Si Si7 0.700868 0.349140 0.914916
O O1 0.500000 0.613133 0.250000
O O2 0.500000 0.527013 0.139481
O O3 0.600029 0.623211 0.115450
O O4 0.387016 0.789510 0.750000
O O5 0.500000 0.848492 0.848355
O O6 0.294398 0.858316 0.854279
O O7 0.387983 0.782322 0.934926
O O8 0.119418 0.621279 0.750000
O O9 0.118725 0.667434 0.592046
O O10 0.198115 0.561784 0.623055
O O11 0.000000 0.583617 0.633774
O O12 0.102029 0.935777 0.106435
O O13 0.000000 0.939854 0.250000
O O14 0.818264 0.779282 0.930401
O O15 0.000000 0.751513 0.943414
O O16 0.220969 0.116327 0.997805
O O17 0.207936 0.000000 0.000000
#
# Coordination Sequence:
#
# PCOD9474612 Si02
#       7
#     8  16  16   8  16  16  16
#     4  11  23  39  63  93 126 164 211 267 318 374
#     4  10  22  40  61  90 129 170 210 255 315 385
#     4  10  23  44  68  95 128 166 215 269 322 382
#     4  11  24  44  64  92 132 172 218 266 316 377
#     4  10  21  40  65  93 128 167 208 263 320 382
#     4  12  24  41  67  93 126 174 217 264 325 380
#     4  12  22  40  64  94 129 166 214 264 320 385
#
# _framework density 20.087228
#
# number of rings (size 3 to 8) (size 9 to 14) (size 15 to 20)
#    0.000    1.167    4.167    2.250    0.000    1.667 
#    0.000    0.833    0.000    2.000    0.000    0.000 
#    0.000    0.000    0.000    0.000    0.000    0.000 
#
# Total GULP energy -267433.778307 kJ/mol
# GULP energy per Si atom -5571.537048 kJ/mol
# Density = 2.004151 g / cm^3
# Si number density = 20.087228 Si / 1000 Ang^3
#
#
#
# Elastic Constant Matrix: (Units=GPa)
#
#
# Indices 1 2 3 4 5 6 
#
# 1 198.0707 43.8810 59.3397 0.0000 0.0000 0.0000
# 2 43.8810 26.1819 10.4407 0.0000 0.0000 0.0000
# 3 59.3397 10.4407 122.1952 0.0000 0.0000 0.0000
# 4 0.0000 0.0000 0.0000 -4.1810 0.0000 0.0000
# 5 0.0000 0.0000 0.0000 0.0000 39.2153 0.0000
# 6 0.0000 0.0000 0.0000 0.0000 0.0000 20.9166
#
#
#
# Elastic Compliance Matrix: (Units=1/GPa)
#
#
# Indices 1 2 3 4 5 6 
#
# 1 0.009116 -0.013990 -0.003232 0.000000 0.000000 0.000000
# 2 -0.013990 0.061012 0.001581 0.000000 0.000000 0.000000
# 3 -0.003232 0.001581 0.009618 0.000000 0.000000 0.000000
# 4 0.000000 0.000000 0.000000 -0.239180 0.000000 0.000000
# 5 0.000000 0.000000 0.000000 0.000000 0.025500 0.000000
# 6 0.000000 0.000000 0.000000 0.000000 0.000000 0.047809
#
#
# Mechanical properties :
#
#
# Convention : Reuss Voigt Hill
#
# Bulk Modulus (GPa) = 20.63401 63.75231 42.19316
# Shear Modulus (GPa) = -129.23890 26.70927 -51.26481
#
# Velocity S-wave (km/s) = -8.02985 3.65041 -5.05732
# Velocity P-wave (km/s) = 8.69924 7.04088 3.61268
#
# Compressibility (1/GPa) = 0.04846367
#
# Stress axis : x y z
#
# Youngs Moduli (GPa) = 109.69384 16.39035 103.97303
#
# Poissons Ratio (x) = 0.22930 0.33600
# Poissons Ratio (y) = 1.53464 -0.16436
# Poissons Ratio (z) = 0.35449 -0.02591
#
# Static dielectric constant tensor:
#      x y z
#    x 1.789420 0.000000 0.000000 
#    y 0.000000 1.690450 0.000000 
#    z 0.000000 0.000000 1.741870 
# 
# From -- ./inp_files/32188.got.cif
#   From: 2010.05.17/outbox.cif.g08.bks.cpg/sg63_17_cif.got.tgz:32188.got - 2010.06.03 15:47:04.
