data_PCOD9474137
_publ_section_title
;
Structure prediction by ZEFSAII (Michael W. Deem and Ramdas Pophale) SiO2 
 PCOD9474137
Probable space group: C M C M
;
_chemical_formula_sum "Si O2"
_cell_formula_units_Z 96
_cell_length_a 22.026591
_cell_length_b 9.360204
_cell_length_c 25.619409
_cell_angle_alpha 90.000000
_cell_angle_beta 90.000000
_cell_angle_gamma 90.000000
_cell_volume 5282.040280
_symmetry_space_group_name_H-M "C M C M"
_symmetry_group_IT_number 63
_symmetry_cell_setting 'orthorhombic'
loop_
_space_group_symop_operation_xyz
x,y,z
-x,-y,1/2+z
x,-y,-z
-x,y,1/2-z
-x,-y,-z
x,y,1/2-z
-x,y,z
x,-y,1/2+z
1/2+x,1/2+y,z
1/2-x,1/2-y,1/2+z
1/2+x,1/2-y,-z
1/2-x,1/2+y,1/2-z
1/2-x,1/2-y,-z
1/2+x,1/2+y,1/2-z
1/2-x,1/2+y,z
1/2+x,1/2-y,1/2+z
loop_
_atom_site_type_symbol
_atom_site_label
_atom_site_fract_x
_atom_site_fract_y
_atom_site_fract_z
Si Si1 0.351608 0.905589 0.947588
Si Si2 0.881190 0.319915 0.394583
Si Si3 0.431515 0.380673 0.687881
Si Si4 0.249342 0.697296 0.126624
Si Si5 0.427921 0.667092 0.001876
Si Si6 0.686167 0.554331 0.687584
O O1 0.287976 0.861719 0.922346
O O2 0.390270 0.766031 0.962141
O O3 0.385273 0.013113 0.907665
O O4 0.343554 0.000000 0.000000
O O5 0.911424 0.262301 0.341979
O O6 0.809950 0.279609 0.391524
O O7 0.911772 0.230788 0.441357
O O8 0.428897 0.358675 0.750000
O O9 0.500000 0.419720 0.672989
O O10 0.382167 0.502214 0.675080
O O11 0.271337 0.570119 0.164163
O O12 0.205965 0.802419 0.158869
O O13 0.500000 0.679691 0.992581
O O14 0.411195 0.500000 0.000000
O O15 0.692774 0.565575 0.750000
#
# Coordination Sequence:
#
# PCOD9474137 Si02
#       6
#    16  16  16  16  16  16
#     4  10  23  39  56  83 118 155 191 241 295 342
#     4  10  21  37  58  84 116 153 192 241 290 350
#     4   9  19  36  60  88 116 151 196 242 293 350
#     4  11  21  38  57  89 118 153 198 236 296 352
#     4  10  23  39  59  85 113 153 199 241 289 345
#     4  10  21  37  60  87 119 155 193 244 292 347
#
# _framework density 18.174795
#
# number of rings (size 3 to 8) (size 9 to 14) (size 15 to 20)
#    0.000    2.000    1.667    1.000    4.667    7.667 
#    0.000    0.000    0.000    0.000    0.000    2.333 
#    0.000    0.000    0.000    0.000    0.000    0.000 
#
# Total GULP energy -267910.269643 kJ/mol
# GULP energy per Si atom -5581.463951 kJ/mol
# Density = 1.813343 g / cm^3
# Si number density = 18.174795 Si / 1000 Ang^3
#
#
#
# Elastic Constant Matrix: (Units=GPa)
#
#
# Indices 1 2 3 4 5 6 
#
# 1 119.0561 55.3292 40.1418 0.0000 0.0000 0.0000
# 2 55.3292 101.7533 24.2107 0.0000 0.0000 0.0000
# 3 40.1418 24.2107 27.8498 0.0000 0.0000 0.0000
# 4 0.0000 0.0000 0.0000 17.5406 0.0000 0.0000
# 5 0.0000 0.0000 0.0000 0.0000 29.6321 0.0000
# 6 0.0000 0.0000 0.0000 0.0000 0.0000 14.4804
#
#
#
# Elastic Compliance Matrix: (Units=1/GPa)
#
#
# Indices 1 2 3 4 5 6 
#
# 1 0.017850 -0.004519 -0.021799 0.000000 0.000000 0.000000
# 2 -0.004519 0.013535 -0.005253 0.000000 0.000000 0.000000
# 3 -0.021799 -0.005253 0.071894 0.000000 0.000000 0.000000
# 4 0.000000 0.000000 0.000000 0.057011 0.000000 0.000000
# 5 0.000000 0.000000 0.000000 0.000000 0.033747 0.000000
# 6 0.000000 0.000000 0.000000 0.000000 0.000000 0.069059
#
#
# Mechanical properties :
#
#
# Convention : Reuss Voigt Hill
#
# Bulk Modulus (GPa) = 24.91499 54.22474 39.56987
# Shear Modulus (GPa) = 14.72252 20.92910 17.82581
#
# Velocity S-wave (km/s) = 2.84923 3.39712 3.13517
# Velocity P-wave (km/s) = 4.95605 6.72957 5.90972
#
# Compressibility (1/GPa) = 0.04013648
#
# Stress axis : x y z
#
# Youngs Moduli (GPa) = 56.02396 73.88407 13.90937
#
# Poissons Ratio (x) = 0.33388 0.30321
# Poissons Ratio (y) = 0.25317 0.07306
# Poissons Ratio (z) = 1.22128 0.38809
#
# Static dielectric constant tensor:
#      x y z
#    x 1.619990 0.000000 0.000000 
#    y 0.000000 1.614690 0.000000 
#    z 0.000000 0.000000 1.622240 
# 
# From -- ./inp_files/70278.got.cif
#   From: 2010.05.17/outbox.cif.g08.bks.cpg/sg63_36_cif.got.tgz:70278.got - 2010.06.03 15:47:04.
