data_PCOD9474992
_publ_section_title
;
Structure prediction by ZEFSAII (Michael W. Deem and Ramdas Pophale) SiO2 
 PCOD9474992
Probable space group: C M C M
;
_chemical_formula_sum "Si O2"
_cell_formula_units_Z 84
_cell_length_a 8.771671
_cell_length_b 25.519003
_cell_length_c 20.213942
_cell_angle_alpha 90.000000
_cell_angle_beta 90.000000
_cell_angle_gamma 90.000000
_cell_volume 4524.775668
_symmetry_space_group_name_H-M "C M C M"
_symmetry_group_IT_number 63
_symmetry_cell_setting 'orthorhombic'
loop_
_space_group_symop_operation_xyz
x,y,z
-x,-y,1/2+z
x,-y,-z
-x,y,1/2-z
-x,-y,-z
x,y,1/2-z
-x,y,z
x,-y,1/2+z
1/2+x,1/2+y,z
1/2-x,1/2-y,1/2+z
1/2+x,1/2-y,-z
1/2-x,1/2+y,1/2-z
1/2-x,1/2-y,-z
1/2+x,1/2+y,1/2-z
1/2-x,1/2+y,z
1/2+x,1/2-y,1/2+z
loop_
_atom_site_type_symbol
_atom_site_label
_atom_site_fract_x
_atom_site_fract_y
_atom_site_fract_z
Si Si1 0.818890 0.137184 0.416826
Si Si2 0.685446 0.925933 0.324413
Si Si3 0.331822 0.754142 0.616017
Si Si4 0.317155 0.953223 0.827398
Si Si5 0.817369 0.347857 0.440029
Si Si6 0.500000 0.732877 0.750000
O O1 0.748806 0.189925 0.385443
O O2 0.765262 0.087464 0.374474
O O3 0.754072 0.134417 0.491010
O O4 0.000000 0.140515 0.418165
O O5 0.738814 0.912399 0.250000
O O6 0.500000 0.924792 0.322923
O O7 0.735934 0.885904 0.380481
O O8 0.727556 0.986182 0.339039
O O9 0.500000 0.759767 0.583406
O O10 0.236763 0.710425 0.577903
O O11 0.369662 0.736289 0.690694
O O12 0.286921 0.941696 0.750000
O O13 0.500000 0.949069 0.837062
O O14 0.000000 0.350333 0.443905
#
# Coordination Sequence:
#
# PCOD9474992 Si02
#       6
#    16  16  16  16  16   4
#     4  12  25  39  57  85 121 160 198 242 294 349
#     4   8  17  35  60  89 116 148 193 244 293 346
#     4  10  22  41  61  87 117 151 191 233 292 351
#     4   9  19  38  63  86 114 152 195 245 297 346
#     4  11  22  38  62  90 120 157 197 241 291 348
#     4   8  24  40  66  88 116 152 196 236 300 346
#
# _framework density 18.564457000000001
#
# number of rings (size 3 to 8) (size 9 to 14) (size 15 to 20)
#    0.571    1.524    0.000    4.571    2.667    1.143 
#    0.000    6.667    0.000    2.286    0.000    0.000 
#    0.000    0.000    0.000    0.000    0.000    0.000 
#
# Total GULP energy -233868.362455 kJ/mol
# GULP energy per Si atom -5568.294344 kJ/mol
# Density = 1.852220 g / cm^3
# Si number density = 18.564457 Si / 1000 Ang^3
#
#
#
# Elastic Constant Matrix: (Units=GPa)
#
#
# Indices 1 2 3 4 5 6 
#
# 1 57.4881 4.6863 14.3509 0.0000 0.0000 0.0000
# 2 4.6863 44.1295 10.2177 0.0000 0.0000 0.0000
# 3 14.3509 10.2177 51.4956 0.0000 0.0000 0.0000
# 4 0.0000 0.0000 0.0000 22.7822 0.0000 0.0000
# 5 0.0000 0.0000 0.0000 0.0000 24.8634 0.0000
# 6 0.0000 0.0000 0.0000 0.0000 0.0000 26.6105
#
#
#
# Elastic Compliance Matrix: (Units=1/GPa)
#
#
# Indices 1 2 3 4 5 6 
#
# 1 0.018724 -0.000818 -0.005056 0.000000 0.000000 0.000000
# 2 -0.000818 0.023788 -0.004492 0.000000 0.000000 0.000000
# 3 -0.005056 -0.004492 0.021719 0.000000 0.000000 0.000000
# 4 0.000000 0.000000 0.000000 0.043894 0.000000 0.000000
# 5 0.000000 0.000000 0.000000 0.000000 0.040220 0.000000
# 6 0.000000 0.000000 0.000000 0.000000 0.000000 0.037579
#
#
# Mechanical properties :
#
#
# Convention : Reuss Voigt Hill
#
# Bulk Modulus (GPa) = 22.98870 23.51367 23.25118
# Shear Modulus (GPa) = 22.60867 23.10843 22.85855
#
# Velocity S-wave (km/s) = 3.49355 3.53195 3.51281
# Velocity P-wave (km/s) = 5.35568 5.41538 5.38561
#
# Compressibility (1/GPa) = 0.04349963
#
# Stress axis : x y z
#
# Youngs Moduli (GPa) = 53.40844 42.03885 46.04184
#
# Poissons Ratio (x) = 0.03438 0.23277
# Poissons Ratio (y) = 0.04368 0.20682
# Poissons Ratio (z) = 0.27002 0.18884
#
# Static dielectric constant tensor:
#      x y z
#    x 1.633950 0.000000 0.000000 
#    y 0.000000 1.624160 0.000000 
#    z 0.000000 0.000000 1.628870 
# 
# From -- ./inp_files/50921.got.cif
#   From: 2010.05.17/outbox.cif.g08.bks.cpg/sg63_26_cif.got.tgz:50921.got - 2010.06.03 15:47:04.
