data_PCOD9474257
_publ_section_title
;
Structure prediction by ZEFSAII (Michael W. Deem and Ramdas Pophale) SiO2 
 PCOD9474257
Probable space group: C M C M
;
_chemical_formula_sum "Si O2"
_cell_formula_units_Z 100
_cell_length_a 16.589687
_cell_length_b 19.620393
_cell_length_c 16.881628
_cell_angle_alpha 90.000000
_cell_angle_beta 90.000000
_cell_angle_gamma 90.000000
_cell_volume 5494.905404
_symmetry_space_group_name_H-M "C M C M"
_symmetry_group_IT_number 63
_symmetry_cell_setting 'orthorhombic'
loop_
_space_group_symop_operation_xyz
x,y,z
-x,-y,1/2+z
x,-y,-z
-x,y,1/2-z
-x,-y,-z
x,y,1/2-z
-x,y,z
x,-y,1/2+z
1/2+x,1/2+y,z
1/2-x,1/2-y,1/2+z
1/2+x,1/2-y,-z
1/2-x,1/2+y,1/2-z
1/2-x,1/2-y,-z
1/2+x,1/2+y,1/2-z
1/2-x,1/2+y,z
1/2+x,1/2-y,1/2+z
loop_
_atom_site_type_symbol
_atom_site_label
_atom_site_fract_x
_atom_site_fract_y
_atom_site_fract_z
Si Si1 0.269302 0.377129 0.372448
Si Si2 0.805594 0.513487 0.092170
Si Si3 0.408208 0.860806 0.845164
Si Si4 0.000000 0.934787 0.560923
Si Si5 0.500000 0.533985 0.250000
Si Si6 0.592591 0.595483 0.750000
Si Si7 0.174258 0.117451 0.050768
Si Si8 0.753272 0.723148 0.341025
O O1 0.210459 0.442338 0.362549
O O2 0.353087 0.386472 0.325233
O O3 0.285921 0.373977 0.465488
O O4 0.239007 0.303331 0.346601
O O5 0.868662 0.567636 0.127391
O O6 0.719351 0.552540 0.089888
O O7 0.827270 0.500000 0.000000
O O8 0.412020 0.861146 0.750000
O O9 0.500000 0.851697 0.874937
O O10 0.343728 0.801308 0.866699
O O11 0.918731 0.896166 0.540731
O O12 0.000000 0.939036 0.658615
O O13 0.000000 0.000000 0.500000
O O14 0.422178 0.485020 0.250000
O O15 0.500000 0.623944 0.750000
O O16 0.192838 0.181983 0.104338
O O17 0.744226 0.701343 0.250000
#
# Coordination Sequence:
#
# PCOD9474257 Si02
#       8
#    16  16  16   8   4   8  16  16
#     4  11  20  37  58  84 115 155 187 243 296 349
#     4   9  19  35  57  83 108 145 187 234 281 339
#     4   9  19  35  55  78 108 141 181 232 289 341
#     4  12  22  38  60  88 122 162 196 246 294 357
#     4  10  22  34  52  84 122 152 190 240 294 356
#     4  10  22  32  49  87 121 141 189 244 292 348
#     4  10  22  37  59  80 120 154 195 233 289 356
#     4  10  21  38  57  83 112 151 195 239 291 357
#
# _framework density 18.198675000000001
#
# number of rings (size 3 to 8) (size 9 to 14) (size 15 to 20)
#    0.240    1.760    0.800    3.840    3.360    0.960 
#    0.000    0.000    1.760    0.000    0.000    0.000 
#    0.000    0.000    0.000    0.000    0.000    0.000 
#
# Total GULP energy -278467.432988 kJ/mol
# GULP energy per Si atom -5569.348660 kJ/mol
# Density = 1.815725 g / cm^3
# Si number density = 18.198675 Si / 1000 Ang^3
#
#
#
# Elastic Constant Matrix: (Units=GPa)
#
#
# Indices 1 2 3 4 5 6 
#
# 1 65.8574 10.8591 -0.7360 0.0000 0.0000 0.0000
# 2 10.8591 71.0484 11.0923 0.0000 0.0000 0.0000
# 3 -0.7360 11.0923 49.1673 0.0000 0.0000 0.0000
# 4 0.0000 0.0000 0.0000 21.1159 0.0000 0.0000
# 5 0.0000 0.0000 0.0000 0.0000 -41.3317 0.0000
# 6 0.0000 0.0000 0.0000 0.0000 0.0000 -2.6261
#
#
#
# Elastic Compliance Matrix: (Units=1/GPa)
#
#
# Indices 1 2 3 4 5 6 
#
# 1 0.015607 -0.002510 0.000800 0.000000 0.000000 0.000000
# 2 -0.002510 0.014993 -0.003420 0.000000 0.000000 0.000000
# 3 0.000800 -0.003420 0.021122 0.000000 0.000000 0.000000
# 4 0.000000 0.000000 0.000000 0.047358 0.000000 0.000000
# 5 0.000000 0.000000 0.000000 0.000000 -0.024195 0.000000
# 6 0.000000 0.000000 0.000000 0.000000 0.000000 -0.380795
#
#
# Mechanical properties :
#
#
# Convention : Reuss Voigt Hill
#
# Bulk Modulus (GPa) = 24.11883 25.38933 24.75408
# Shear Modulus (GPa) = -17.74126 6.42215 -5.65955
#
# Velocity S-wave (km/s) = -3.12567 1.88058 -1.76540
# Velocity P-wave (km/s) = 0.50539 4.32399 3.07834
#
# Compressibility (1/GPa) = 0.04146138
#
# Stress axis : x y z
#
# Youngs Moduli (GPa) = 64.07308 66.69995 47.34344
#
# Poissons Ratio (x) = 0.16744 -0.03787
# Poissons Ratio (y) = 0.16084 0.16191
# Poissons Ratio (z) = -0.05126 0.22811
#
# Static dielectric constant tensor:
#      x y z
#    x 1.615540 0.000000 0.000000 
#    y 0.000000 1.649090 0.000000 
#    z 0.000000 0.000000 1.653890 
# 
# From -- ./inp_files/44443.got.cif
#   From: 2010.05.17/outbox.cif.g08.bks.cpg/sg63_23_cif.got.tgz:44443.got - 2010.06.03 15:47:04.
