data_PCOD9474966
_publ_section_title
;
Structure prediction by ZEFSAII (Michael W. Deem and Ramdas Pophale) SiO2 
 PCOD9474966
Probable space group: C M C M
;
_chemical_formula_sum "Si O2"
_cell_formula_units_Z 116
_cell_length_a 17.862382
_cell_length_b 18.724536
_cell_length_c 17.672561
_cell_angle_alpha 90.000000
_cell_angle_beta 90.000000
_cell_angle_gamma 90.000000
_cell_volume 5910.849842
_symmetry_space_group_name_H-M "C M C M"
_symmetry_group_IT_number 63
_symmetry_cell_setting 'orthorhombic'
loop_
_space_group_symop_operation_xyz
x,y,z
-x,-y,1/2+z
x,-y,-z
-x,y,1/2-z
-x,-y,-z
x,y,1/2-z
-x,y,z
x,-y,1/2+z
1/2+x,1/2+y,z
1/2-x,1/2-y,1/2+z
1/2+x,1/2-y,-z
1/2-x,1/2+y,1/2-z
1/2-x,1/2-y,-z
1/2+x,1/2+y,1/2-z
1/2-x,1/2+y,z
1/2+x,1/2-y,1/2+z
loop_
_atom_site_type_symbol
_atom_site_label
_atom_site_fract_x
_atom_site_fract_y
_atom_site_fract_z
Si Si1 0.916644 0.518788 0.835103
Si Si2 0.830257 0.717035 0.519373
Si Si3 0.912649 0.143924 0.026628
Si Si4 0.203635 0.645595 0.664902
Si Si5 0.368352 0.584760 0.868904
Si Si6 0.676399 0.936442 0.940986
Si Si7 0.000000 0.120593 0.750000
Si Si8 0.321972 0.423585 0.661118
O O1 0.912761 0.488423 0.750000
O O2 0.851938 0.577930 0.840211
O O3 0.898366 0.461522 0.898750
O O4 0.000000 0.549392 0.845032
O O5 0.750000 0.750000 0.500000
O O6 0.891781 0.775849 0.500185
O O7 0.828588 0.703264 0.608408
O O8 0.834725 0.639199 0.481511
O O9 0.868272 0.125942 0.103431
O O10 0.000000 0.135719 0.039625
O O11 0.887370 0.093178 0.957503
O O12 0.204396 0.671802 0.750000
O O13 0.287619 0.622020 0.643453
O O14 0.433611 0.617073 0.816562
O O15 0.358260 0.502406 0.845281
O O16 0.740004 0.929297 0.876888
O O17 0.697356 0.000000 0.000000
O O18 0.319795 0.403389 0.750000
#
# Coordination Sequence:
#
# PCOD9474966 Si02
#       8
#    16  16  16  16  16  16   4  16
#     4  10  22  40  66 103 134 162 214 283 339 388
#     4  12  24  44  64  95 131 170 227 267 324 410
#     4  12  28  44  64  92 138 183 216 279 339 396
#     4  11  21  40  69  94 127 175 215 270 332 401
#     4  12  22  41  68 103 134 172 227 272 337 397
#     4  12  22  42  72  98 127 171 225 278 335 397
#     4  12  24  36  70 112 136 168 230 290 320 400
#     4  12  24  40  68 101 134 175 227 275 327 399
#
# _framework density 19.624928000000001
#
# number of rings (size 3 to 8) (size 9 to 14) (size 15 to 20)
#    0.000    0.414    7.586    1.655    0.966    2.759 
#    0.000    0.000    3.034    0.000    0.000    0.000 
#    0.000    0.000    0.000    0.000    0.000    0.000 
#
# Total GULP energy -323515.024877 kJ/mol
# GULP energy per Si atom -5577.845257 kJ/mol
# Density = 1.958026 g / cm^3
# Si number density = 19.624928 Si / 1000 Ang^3
#
#
#
# Elastic Constant Matrix: (Units=GPa)
#
#
# Indices 1 2 3 4 5 6 
#
# 1 109.7352 -3.3809 33.1896 0.0000 0.0000 0.0000
# 2 -3.3809 44.9913 25.0976 0.0000 0.0000 0.0000
# 3 33.1896 25.0976 140.6913 0.0000 0.0000 0.0000
# 4 0.0000 0.0000 0.0000 17.5610 0.0000 0.0000
# 5 0.0000 0.0000 0.0000 0.0000 30.6419 0.0000
# 6 0.0000 0.0000 0.0000 0.0000 0.0000 13.7989
#
#
#
# Elastic Compliance Matrix: (Units=1/GPa)
#
#
# Indices 1 2 3 4 5 6 
#
# 1 0.010023 0.002301 -0.002775 0.000000 0.000000 0.000000
# 2 0.002301 0.025211 -0.005040 0.000000 0.000000 0.000000
# 3 -0.002775 -0.005040 0.008661 0.000000 0.000000 0.000000
# 4 0.000000 0.000000 0.000000 0.056945 0.000000 0.000000
# 5 0.000000 0.000000 0.000000 0.000000 0.032635 0.000000
# 6 0.000000 0.000000 0.000000 0.000000 0.000000 0.072469
#
#
# Mechanical properties :
#
#
# Convention : Reuss Voigt Hill
#
# Bulk Modulus (GPa) = 30.42514 45.02559 37.72536
# Shear Modulus (GPa) = 21.93672 28.43446 25.18559
#
# Velocity S-wave (km/s) = 3.34698 3.81056 3.58627
# Velocity P-wave (km/s) = 5.52026 6.50795 6.03435
#
# Compressibility (1/GPa) = 0.03286756
#
# Stress axis : x y z
#
# Youngs Moduli (GPa) = 99.77015 39.66520 115.45353
#
# Poissons Ratio (x) = -0.09128 0.32038
# Poissons Ratio (y) = -0.22959 0.58191
# Poissons Ratio (z) = 0.27686 0.19992
#
# Static dielectric constant tensor:
#      x y z
#    x 1.681040 0.000000 0.000000 
#    y 0.000000 1.743240 0.000000 
#    z 0.000000 0.000000 1.711480 
# 
# From -- ./inp_files/45939.got.cif
#   From: 2010.05.17/outbox.cif.g08.bks.cpg/sg63_23_cif.got.tgz:45939.got - 2010.06.03 15:47:04.
