data_PCOD9474414
_publ_section_title
;
Structure prediction by ZEFSAII (Michael W. Deem and Ramdas Pophale) SiO2 
 PCOD9474414
Probable space group: C M C M
;
_chemical_formula_sum "Si O2"
_cell_formula_units_Z 68
_cell_length_a 22.361076
_cell_length_b 7.492032
_cell_length_c 17.019300
_cell_angle_alpha 90.000000
_cell_angle_beta 90.000000
_cell_angle_gamma 90.000000
_cell_volume 2851.241575
_symmetry_space_group_name_H-M "C M C M"
_symmetry_group_IT_number 63
_symmetry_cell_setting 'orthorhombic'
loop_
_space_group_symop_operation_xyz
x,y,z
-x,-y,1/2+z
x,-y,-z
-x,y,1/2-z
-x,-y,-z
x,y,1/2-z
-x,y,z
x,-y,1/2+z
1/2+x,1/2+y,z
1/2-x,1/2-y,1/2+z
1/2+x,1/2-y,-z
1/2-x,1/2+y,1/2-z
1/2-x,1/2-y,-z
1/2+x,1/2+y,1/2-z
1/2-x,1/2+y,z
1/2+x,1/2-y,1/2+z
loop_
_atom_site_type_symbol
_atom_site_label
_atom_site_fract_x
_atom_site_fract_y
_atom_site_fract_z
Si Si1 0.844427 0.746842 0.631178
Si Si2 0.500000 0.127922 0.422109
Si Si3 0.000000 0.697291 0.250000
Si Si4 0.880555 0.199704 0.968879
Si Si5 0.720892 0.074943 0.090290
Si Si6 0.931798 0.940918 0.750000
O O1 0.876664 0.691468 0.550313
O O2 0.786152 0.867902 0.617152
O O3 0.812145 0.559377 0.650373
O O4 0.892847 0.858081 0.679213
O O5 0.500000 0.076613 0.329136
O O6 0.558298 0.250949 0.428754
O O7 0.500000 0.000000 0.500000
O O8 0.944515 0.844041 0.250000
O O9 0.823138 0.256655 0.919340
O O10 0.879171 0.000000 0.000000
O O11 0.727262 0.000000 0.000000
O O12 0.000000 0.870220 0.750000
#
# Coordination Sequence:
#
# PCOD9474414 Si02
#       6
#    16   8   4  16  16   8
#     4  11  21  40  67 101 145 194 243 317 369 468
#     4  12  25  45  73 109 151 212 260 318 403 482
#     4  10  26  48  70 106 154 190 264 328 378 462
#     4  11  22  40  70 102 142 192 254 311 377 463
#     4  10  21  38  64 107 139 181 249 311 388 444
#     4  10  26  46  67 104 151 202 261 315 395 447
#
# _framework density 23.849259
#
# number of rings (size 3 to 8) (size 9 to 14) (size 15 to 20)
#    0.353    0.941    0.000    8.824    1.647    0.941 
#    2.118    5.882    0.000    0.000    0.000    0.000 
#    0.000    0.000    0.000    0.000    0.000    0.000 
#
# Total GULP energy -189638.506692 kJ/mol
# GULP energy per Si atom -5577.603138 kJ/mol
# Density = 2.379498 g / cm^3
# Si number density = 23.849259 Si / 1000 Ang^3
#
#
#
# Elastic Constant Matrix: (Units=GPa)
#
#
# Indices 1 2 3 4 5 6 
#
# 1 189.9279 37.4848 48.9186 0.0000 0.0000 0.0000
# 2 37.4848 111.1105 28.9776 0.0000 0.0000 0.0000
# 3 48.9186 28.9776 104.1467 0.0000 0.0000 0.0000
# 4 0.0000 0.0000 0.0000 24.2294 0.0000 0.0000
# 5 0.0000 0.0000 0.0000 0.0000 39.0846 0.0000
# 6 0.0000 0.0000 0.0000 0.0000 0.0000 -1.3138
#
#
#
# Elastic Compliance Matrix: (Units=1/GPa)
#
#
# Indices 1 2 3 4 5 6 
#
# 1 0.006195 -0.001435 -0.002511 0.000000 0.000000 0.000000
# 2 -0.001435 0.010037 -0.002118 0.000000 0.000000 0.000000
# 3 -0.002511 -0.002118 0.011370 0.000000 0.000000 0.000000
# 4 0.000000 0.000000 0.000000 0.041272 0.000000 0.000000
# 5 0.000000 0.000000 0.000000 0.000000 0.025586 0.000000
# 6 0.000000 0.000000 0.000000 0.000000 0.000000 -0.761139
#
#
# Mechanical properties :
#
#
# Convention : Reuss Voigt Hill
#
# Bulk Modulus (GPa) = 64.62529 70.66079 67.64304
# Shear Modulus (GPa) = -7.69951 31.72031 12.01040
#
# Velocity S-wave (km/s) = -1.79873 3.65092 2.24653
# Velocity P-wave (km/s) = 4.77937 6.88946 5.92904
#
# Compressibility (1/GPa) = 0.01547382
#
# Stress axis : x y z
#
# Youngs Moduli (GPa) = 161.41943 99.63391 87.94694
#
# Poissons Ratio (x) = 0.14300 0.22079
# Poissons Ratio (y) = 0.23168 0.18631
# Poissons Ratio (z) = 0.40525 0.21107
#
# Static dielectric constant tensor:
#      x y z
#    x 1.854620 0.000000 0.000000 
#    y 0.000000 2.012850 0.000000 
#    z 0.000000 0.000000 2.047440 
# 
# From -- ./inp_files/46675.got.cif
#   From: 2010.05.17/outbox.cif.g08.bks.cpg/sg63_24_cif.got.tgz:46675.got - 2010.06.03 15:47:04.
