data_PCOD9474983
_publ_section_title
;
Structure prediction by ZEFSAII (Michael W. Deem and Ramdas Pophale) SiO2 
 PCOD9474983
Probable space group: C M C M
;
_chemical_formula_sum "Si O2"
_cell_formula_units_Z 88
_cell_length_a 16.388805
_cell_length_b 12.114830
_cell_length_c 20.407899
_cell_angle_alpha 90.000000
_cell_angle_beta 90.000000
_cell_angle_gamma 90.000000
_cell_volume 4051.939092
_symmetry_space_group_name_H-M "C M C M"
_symmetry_group_IT_number 63
_symmetry_cell_setting 'orthorhombic'
loop_
_space_group_symop_operation_xyz
x,y,z
-x,-y,1/2+z
x,-y,-z
-x,y,1/2-z
-x,-y,-z
x,y,1/2-z
-x,y,z
x,-y,1/2+z
1/2+x,1/2+y,z
1/2-x,1/2-y,1/2+z
1/2+x,1/2-y,-z
1/2-x,1/2+y,1/2-z
1/2-x,1/2-y,-z
1/2+x,1/2+y,1/2-z
1/2-x,1/2+y,z
1/2+x,1/2-y,1/2+z
loop_
_atom_site_type_symbol
_atom_site_label
_atom_site_fract_x
_atom_site_fract_y
_atom_site_fract_z
Si Si1 0.377265 0.214123 0.750000
Si Si2 0.131859 0.137020 0.373276
Si Si3 0.096281 0.458301 0.357613
Si Si4 0.094959 0.101274 0.673180
Si Si5 0.407448 0.189878 0.518862
Si Si6 0.676991 0.815571 0.882654
O O1 0.400074 0.302725 0.808139
O O2 0.358710 0.120758 0.807065
O O3 0.098208 0.200549 0.436686
O O4 0.229032 0.155813 0.372707
O O5 0.111928 0.008461 0.368453
O O6 0.108661 0.410294 0.430619
O O7 0.124808 0.583208 0.353837
O O8 0.000000 0.447158 0.341539
O O9 0.108856 0.077373 0.750000
O O10 0.151570 0.201964 0.651248
O O11 0.000000 0.133367 0.664722
O O12 0.500000 0.177495 0.493212
O O13 0.345690 0.192650 0.459119
#
# Coordination Sequence:
#
# PCOD9474983 Si02
#       6
#     8  16  16  16  16  16
#     4  10  23  42  66  96 133 170 230 272 331 402
#     4  11  25  43  70  97 135 180 227 274 334 403
#     4  10  22  40  70  99 130 173 221 278 337 400
#     4  11  26  45  68  98 137 181 226 278 338 400
#     4  10  22  45  70  97 132 176 228 277 331 399
#     4  12  26  41  68  98 144 172 221 280 346 400
#
# _framework density 21.717997
#
# number of rings (size 3 to 8) (size 9 to 14) (size 15 to 20)
#    0.000    1.273    0.909    3.545    7.636    4.364 
#    3.273    1.818    0.000    0.000    0.000    0.000 
#    0.000    0.000    0.000    0.000    0.000    0.000 
#
# Total GULP energy -245268.572534 kJ/mol
# GULP energy per Si atom -5574.285739 kJ/mol
# Density = 2.166857 g / cm^3
# Si number density = 21.717997 Si / 1000 Ang^3
#
#
#
# Elastic Constant Matrix: (Units=GPa)
#
#
# Indices 1 2 3 4 5 6 
#
# 1 76.9936 1.0002 18.5184 0.0000 0.0000 0.0000
# 2 1.0002 110.5097 -6.6149 0.0000 0.0000 0.0000
# 3 18.5184 -6.6149 48.7385 0.0000 0.0000 0.0000
# 4 0.0000 0.0000 0.0000 16.9867 0.0000 0.0000
# 5 0.0000 0.0000 0.0000 0.0000 -106.2784 0.0000
# 6 0.0000 0.0000 0.0000 0.0000 0.0000 45.0573
#
#
#
# Elastic Compliance Matrix: (Units=1/GPa)
#
#
# Indices 1 2 3 4 5 6 
#
# 1 0.014317 -0.000459 -0.005502 0.000000 0.000000 0.000000
# 2 -0.000459 0.009138 0.001415 0.000000 0.000000 0.000000
# 3 -0.005502 0.001415 0.022800 0.000000 0.000000 0.000000
# 4 0.000000 0.000000 0.000000 0.058870 0.000000 0.000000
# 5 0.000000 0.000000 0.000000 0.000000 -0.009409 0.000000
# 6 0.000000 0.000000 0.000000 0.000000 0.000000 0.022194
#
#
# Mechanical properties :
#
#
# Convention : Reuss Voigt Hill
#
# Bulk Modulus (GPa) = 26.90900 29.11658 28.01279
# Shear Modulus (GPa) = 35.87041 6.04231 20.95636
#
# Velocity S-wave (km/s) = 4.06845 1.66979 3.10970
# Velocity P-wave (km/s) = 5.87255 4.14166 5.08135
#
# Compressibility (1/GPa) = 0.03716228
#
# Stress axis : x y z
#
# Youngs Moduli (GPa) = 69.84482 109.43544 43.85913
#
# Poissons Ratio (x) = 0.05022 0.24132
# Poissons Ratio (y) = 0.03206 -0.06204
# Poissons Ratio (z) = 0.38430 -0.15481
#
# Static dielectric constant tensor:
#      x y z
#    x 1.816190 0.000000 0.000000 
#    y 0.000000 1.776400 0.000000 
#    z 0.000000 0.000000 1.686160 
# 
# From -- ./inp_files/55420.got.cif
#   From: 2010.05.17/outbox.cif.g08.bks.cpg/sg63_28_cif.got.tgz:55420.got - 2010.06.03 15:47:04.
