data_PCOD9474973
_publ_section_title
;
Structure prediction by ZEFSAII (Michael W. Deem and Ramdas Pophale) SiO2 
 PCOD9474973
Probable space group: C M C M
;
_chemical_formula_sum "Si O2"
_cell_formula_units_Z 64
_cell_length_a 13.435743
_cell_length_b 13.578692
_cell_length_c 18.735689
_cell_angle_alpha 90.000000
_cell_angle_beta 90.000000
_cell_angle_gamma 90.000000
_cell_volume 3418.135654
_symmetry_space_group_name_H-M "C M C M"
_symmetry_group_IT_number 63
_symmetry_cell_setting 'orthorhombic'
loop_
_space_group_symop_operation_xyz
x,y,z
-x,-y,1/2+z
x,-y,-z
-x,y,1/2-z
-x,-y,-z
x,y,1/2-z
-x,y,z
x,-y,1/2+z
1/2+x,1/2+y,z
1/2-x,1/2-y,1/2+z
1/2+x,1/2-y,-z
1/2-x,1/2+y,1/2-z
1/2-x,1/2-y,-z
1/2+x,1/2+y,1/2-z
1/2-x,1/2+y,z
1/2+x,1/2-y,1/2+z
loop_
_atom_site_type_symbol
_atom_site_label
_atom_site_fract_x
_atom_site_fract_y
_atom_site_fract_z
Si Si1 0.500000 0.885027 0.481998
Si Si2 0.113476 0.960676 0.418831
Si Si3 0.500000 0.044786 0.668054
Si Si4 0.711119 0.069772 0.333781
Si Si5 0.331731 0.763701 0.560198
O O1 0.408673 0.833586 0.519860
O O2 0.500000 0.000000 0.500000
O O3 0.500000 0.876969 0.396252
O O4 0.125239 0.842608 0.419523
O O5 0.000000 0.986031 0.395886
O O6 0.125115 0.000000 0.500000
O O7 0.201922 0.007670 0.372318
O O8 0.500000 0.081889 0.750000
O O9 0.601737 0.981387 0.658789
O O10 0.731521 0.077505 0.250000
O O11 0.706000 0.175745 0.371686
O O12 0.250000 0.750000 0.500000
#
# Coordination Sequence:
#
# PCOD9474973 Si02
#       5
#     8  16   8  16  16
#     4  12  22  40  69  96 123 172 220 272 331 385
#     4  11  24  44  67  98 136 176 224 275 333 407
#     4  10  22  40  66  98 132 164 214 280 333 383
#     4  11  24  43  66  98 135 174 220 278 339 398
#     4  12  23  39  68 100 127 170 228 276 325 398
#
# _framework density 18.723656999999999
#
# number of rings (size 3 to 8) (size 9 to 14) (size 15 to 20)
#    0.000    0.750    6.250    1.500    0.000    1.500 
#    0.000    1.250    0.000    0.000    0.000    0.000 
#    0.000    0.000    0.000    0.000    0.000    0.000 
#
# Total GULP energy -178703.645505 kJ/mol
# GULP energy per Si atom -5584.488922 kJ/mol
# Density = 1.868104 g / cm^3
# Si number density = 18.723657 Si / 1000 Ang^3
#
#
#
# Elastic Constant Matrix: (Units=GPa)
#
#
# Indices 1 2 3 4 5 6 
#
# 1 157.3966 57.3812 68.8048 0.0000 0.0000 0.0000
# 2 57.3812 131.7328 59.0942 0.0000 0.0000 0.0000
# 3 68.8048 59.0942 149.5116 0.0000 0.0000 0.0000
# 4 0.0000 0.0000 0.0000 29.4731 0.0000 0.0000
# 5 0.0000 0.0000 0.0000 0.0000 27.2204 0.0000
# 6 0.0000 0.0000 0.0000 0.0000 0.0000 12.9969
#
#
#
# Elastic Compliance Matrix: (Units=1/GPa)
#
#
# Indices 1 2 3 4 5 6 
#
# 1 0.008523 -0.002374 -0.002984 0.000000 0.000000 0.000000
# 2 -0.002374 0.009888 -0.002816 0.000000 0.000000 0.000000
# 3 -0.002984 -0.002816 0.009175 0.000000 0.000000 0.000000
# 4 0.000000 0.000000 0.000000 0.033929 0.000000 0.000000
# 5 0.000000 0.000000 0.000000 0.000000 0.036737 0.000000
# 6 0.000000 0.000000 0.000000 0.000000 0.000000 0.076941
#
#
# Mechanical properties :
#
#
# Convention : Reuss Voigt Hill
#
# Bulk Modulus (GPa) = 88.98005 89.91127 89.44566
# Shear Modulus (GPa) = 25.60318 30.82880 28.21599
#
# Velocity S-wave (km/s) = 3.70188 4.06213 3.88618
# Velocity P-wave (km/s) = 8.11775 8.37410 8.24692
#
# Compressibility (1/GPa) = 0.01123847
#
# Stress axis : x y z
#
# Youngs Moduli (GPa) = 117.32503 101.12872 108.99582
#
# Poissons Ratio (x) = 0.24008 0.32525
# Poissons Ratio (y) = 0.27853 0.30692
# Poissons Ratio (z) = 0.35011 0.28476
#
# Static dielectric constant tensor:
#      x y z
#    x 1.647970 0.000000 0.000000 
#    y 0.000000 1.633070 0.000000 
#    z 0.000000 0.000000 1.609110 
# 
# From -- ./inp_files/43702.got.cif
#   From: 2010.05.17/outbox.cif.g08.bks.cpg/sg63_22_cif.got.tgz:43702.got - 2010.06.03 15:47:04.
