data_PCOD9474510
_publ_section_title
;
Structure prediction by ZEFSAII (Michael W. Deem and Ramdas Pophale) SiO2 
 PCOD9474510
Probable space group: C M C M
;
_chemical_formula_sum "Si O2"
_cell_formula_units_Z 64
_cell_length_a 11.739148
_cell_length_b 12.988463
_cell_length_c 21.857362
_cell_angle_alpha 90.000000
_cell_angle_beta 90.000000
_cell_angle_gamma 90.000000
_cell_volume 3332.668254
_symmetry_space_group_name_H-M "C M C M"
_symmetry_group_IT_number 63
_symmetry_cell_setting 'orthorhombic'
loop_
_space_group_symop_operation_xyz
x,y,z
-x,-y,1/2+z
x,-y,-z
-x,y,1/2-z
-x,-y,-z
x,y,1/2-z
-x,y,z
x,-y,1/2+z
1/2+x,1/2+y,z
1/2-x,1/2-y,1/2+z
1/2+x,1/2-y,-z
1/2-x,1/2+y,1/2-z
1/2-x,1/2-y,-z
1/2+x,1/2+y,1/2-z
1/2-x,1/2+y,z
1/2+x,1/2-y,1/2+z
loop_
_atom_site_type_symbol
_atom_site_label
_atom_site_fract_x
_atom_site_fract_y
_atom_site_fract_z
Si Si1 0.500000 0.315804 0.250000
Si Si2 0.500000 0.320762 0.383804
Si Si3 0.684106 0.498492 0.876549
Si Si4 0.176470 0.500000 0.500000
Si Si5 0.000000 0.683183 0.505367
Si Si6 0.500000 0.811899 0.250000
Si Si7 0.245102 0.428961 0.250000
Si Si8 0.000000 0.178603 0.372932
O O1 0.500000 0.264561 0.317303
O O2 0.375650 0.376803 0.250000
O O3 0.393055 0.398890 0.384244
O O4 0.500000 0.248926 0.442890
O O5 0.753402 0.509700 0.813750
O O6 0.606517 0.398129 0.871282
O O7 0.754062 0.489138 0.938074
O O8 0.104812 0.604422 0.506603
O O9 0.000000 0.755453 0.564917
O O10 0.624774 0.867826 0.250000
O O11 0.500000 0.746935 0.312456
#
# Coordination Sequence:
#
# PCOD9474510 Si02
#       8
#     4   8  16   8   8   4   8   8
#     4   8  18  37  64  91 120 160 204 247 302 373
#     4   9  19  38  62  87 114 154 207 259 306 370
#     4  10  21  39  63  88 118 160 210 258 306 370
#     4  11  24  39  56  84 124 163 200 261 328 376
#     4  11  24  39  56  86 124 159 204 261 326 382
#     4  12  24  37  64  99 132 168 206 257 320 371
#     4  10  21  40  64  92 128 164 205 256 310 370
#     4  11  23  40  64  91 120 164 217 257 305 381
#
# _framework density 19.20383
#
# number of rings (size 3 to 8) (size 9 to 14) (size 15 to 20)
#    0.000    1.750    0.000    4.500    0.000   12.000 
#    0.000    1.250    0.000    4.500    0.000    0.000 
#    0.000    0.000    0.000    0.000    0.000    0.000 
#
# Total GULP energy -178355.336631 kJ/mol
# GULP energy per Si atom -5573.604270 kJ/mol
# Density = 1.916012 g / cm^3
# Si number density = 19.203830 Si / 1000 Ang^3
#
#
#
# Elastic Constant Matrix: (Units=GPa)
#
#
# Indices 1 2 3 4 5 6 
#
# 1 120.8990 59.9321 92.8379 0.0000 0.0000 0.0000
# 2 59.9321 114.8673 98.8142 0.0000 0.0000 0.0000
# 3 92.8379 98.8142 256.7714 0.0000 0.0000 0.0000
# 4 0.0000 0.0000 0.0000 36.4205 0.0000 0.0000
# 5 0.0000 0.0000 0.0000 0.0000 193.9729 0.0000
# 6 0.0000 0.0000 0.0000 0.0000 0.0000 -66.4024
#
#
#
# Elastic Compliance Matrix: (Units=1/GPa)
#
#
# Indices 1 2 3 4 5 6 
#
# 1 0.012546 -0.003952 -0.003015 0.000000 0.000000 0.000000
# 2 -0.003952 0.014259 -0.004058 0.000000 0.000000 0.000000
# 3 -0.003015 -0.004058 0.006547 0.000000 0.000000 0.000000
# 4 0.000000 0.000000 0.000000 0.027457 0.000000 0.000000
# 5 0.000000 0.000000 0.000000 0.000000 0.005155 0.000000
# 6 0.000000 0.000000 0.000000 0.000000 0.000000 -0.015060
#
#
# Mechanical properties :
#
#
# Convention : Reuss Voigt Hill
#
# Bulk Modulus (GPa) = 88.49552 110.63402 99.56477
# Shear Modulus (GPa) = 65.17055 48.86177 57.01616
#
# Velocity S-wave (km/s) = 5.83180 5.04965 5.45476
# Velocity P-wave (km/s) = 9.56707 9.57779 9.57243
#
# Compressibility (1/GPa) = 0.01130001
#
# Stress axis : x y z
#
# Youngs Moduli (GPa) = 79.70797 70.13169 152.75331
#
# Poissons Ratio (x) = 0.27716 0.46058
# Poissons Ratio (y) = 0.31500 0.61994
# Poissons Ratio (z) = 0.24033 0.28462
#
# Static dielectric constant tensor:
#      x y z
#    x 1.722950 0.000000 0.000000 
#    y 0.000000 1.646870 0.000000 
#    z 0.000000 0.000000 1.588370 
# 
# From -- ./inp_files/60918.got.cif
#   From: 2010.05.17/outbox.cif.g08.bks.cpg/sg63_31_cif.got.tgz:60918.got - 2010.06.03 15:47:04.
