data_PCOD9474895
_publ_section_title
;
Structure prediction by ZEFSAII (Michael W. Deem and Ramdas Pophale) SiO2 
 PCOD9474895
Probable space group: C M C M
;
_chemical_formula_sum "Si O2"
_cell_formula_units_Z 96
_cell_length_a 8.381697
_cell_length_b 31.128805
_cell_length_c 19.746706
_cell_angle_alpha 90.000000
_cell_angle_beta 90.000000
_cell_angle_gamma 90.000000
_cell_volume 5152.156732
_symmetry_space_group_name_H-M "C M C M"
_symmetry_group_IT_number 63
_symmetry_cell_setting 'orthorhombic'
loop_
_space_group_symop_operation_xyz
x,y,z
-x,-y,1/2+z
x,-y,-z
-x,y,1/2-z
-x,-y,-z
x,y,1/2-z
-x,y,z
x,-y,1/2+z
1/2+x,1/2+y,z
1/2-x,1/2-y,1/2+z
1/2+x,1/2-y,-z
1/2-x,1/2+y,1/2-z
1/2-x,1/2-y,-z
1/2+x,1/2+y,1/2-z
1/2-x,1/2+y,z
1/2+x,1/2-y,1/2+z
loop_
_atom_site_type_symbol
_atom_site_label
_atom_site_fract_x
_atom_site_fract_y
_atom_site_fract_z
Si Si1 0.309135 0.866623 0.435278
Si Si2 0.307226 0.030392 0.171775
Si Si3 0.694948 0.887348 0.912715
Si Si4 0.808812 0.230045 0.929339
Si Si5 0.305129 0.196322 0.172412
Si Si6 0.809180 0.064376 0.827711
O O1 0.500000 0.865897 0.437024
O O2 0.252216 0.881462 0.509927
O O3 0.250000 0.818456 0.421950
O O4 0.254105 0.899741 0.378292
O O5 0.258421 0.038543 0.250000
O O6 0.500000 0.029674 0.170506
O O7 0.252554 0.068674 0.123014
O O8 0.246302 0.983378 0.151934
O O9 0.500000 0.887638 0.912767
O O10 0.744626 0.846226 0.868338
O O11 0.754558 0.261583 0.869046
O O12 0.000000 0.230165 0.929880
O O13 0.750000 0.250000 0.000000
O O14 0.251192 0.195940 0.250000
O O15 0.500000 0.196058 0.173129
O O16 0.753241 0.071343 0.750000
O O17 0.000000 0.065610 0.827774
#
# Coordination Sequence:
#
# PCOD9474895 Si02
#       6
#    16  16  16  16  16  16
#     4  11  22  37  58  84 112 145 187 234 285 337
#     4   9  17  32  57  84 109 142 184 230 278 326
#     4   9  17  31  53  84 114 141 179 227 278 333
#     4  11  21  36  57  82 113 152 192 231 281 335
#     4   9  17  31  54  83 111 141 183 231 274 325
#     4  10  22  40  58  78 109 148 189 231 278 336
#
# _framework density 18.632974999999998
#
# number of rings (size 3 to 8) (size 9 to 14) (size 15 to 20)
#    0.000    2.167    1.667    2.000    0.000    4.333 
#    0.000    6.667    0.000    1.500    0.000    0.000 
#    0.000    0.000    0.000    0.000    0.000    0.000 
#
# Total GULP energy -267983.430430 kJ/mol
# GULP energy per Si atom -5582.988134 kJ/mol
# Density = 1.859057 g / cm^3
# Si number density = 18.632975 Si / 1000 Ang^3
#
#
#
# Elastic Constant Matrix: (Units=GPa)
#
#
# Indices 1 2 3 4 5 6 
#
# 1 21.1448 30.2664 22.1263 0.0000 0.0000 0.0000
# 2 30.2664 215.2748 130.9997 0.0000 0.0000 0.0000
# 3 22.1263 130.9997 157.9798 0.0000 0.0000 0.0000
# 4 0.0000 0.0000 0.0000 42.1361 0.0000 0.0000
# 5 0.0000 0.0000 0.0000 0.0000 20.6944 0.0000
# 6 0.0000 0.0000 0.0000 0.0000 0.0000 31.5967
#
#
#
# Elastic Compliance Matrix: (Units=1/GPa)
#
#
# Indices 1 2 3 4 5 6 
#
# 1 0.059831 -0.006687 -0.002835 0.000000 0.000000 0.000000
# 2 -0.006687 0.010124 -0.007458 0.000000 0.000000 0.000000
# 3 -0.002835 -0.007458 0.012912 0.000000 0.000000 0.000000
# 4 0.000000 0.000000 0.000000 0.023733 0.000000 0.000000
# 5 0.000000 0.000000 0.000000 0.000000 0.048322 0.000000
# 6 0.000000 0.000000 0.000000 0.000000 0.000000 0.031649
#
#
# Mechanical properties :
#
#
# Convention : Reuss Voigt Hill
#
# Bulk Modulus (GPa) = 20.44736 84.57603 52.51170
# Shear Modulus (GPa) = 21.11196 32.95258 27.03227
#
# Velocity S-wave (km/s) = 3.36972 4.20993 3.81304
# Velocity P-wave (km/s) = 5.11250 8.31387 6.90138
#
# Compressibility (1/GPa) = 0.04890606
#
# Stress axis : x y z
#
# Youngs Moduli (GPa) = 16.71381 98.77529 77.44919
#
# Poissons Ratio (x) = 0.66048 0.21957
# Poissons Ratio (y) = 0.11176 0.57765
# Poissons Ratio (z) = 0.04738 0.73671
#
# Static dielectric constant tensor:
#      x y z
#    x 1.652580 0.000000 0.000000 
#    y 0.000000 1.604770 0.000000 
#    z 0.000000 0.000000 1.632950 
# 
# From -- ./inp_files/51427.got.cif
#   From: 2010.05.17/outbox.cif.g08.bks.cpg/sg63_26_cif.got.tgz:51427.got - 2010.06.03 15:47:04.
