data_PCOD9474148
_publ_section_title
;
Structure prediction by ZEFSAII (Michael W. Deem and Ramdas Pophale) SiO2 
 PCOD9474148
Probable space group: C M C M
;
_chemical_formula_sum "Si O2"
_cell_formula_units_Z 64
_cell_length_a 14.452461
_cell_length_b 10.628787
_cell_length_c 17.488179
_cell_angle_alpha 90.000000
_cell_angle_beta 90.000000
_cell_angle_gamma 90.000000
_cell_volume 2686.396419
_symmetry_space_group_name_H-M "C M C M"
_symmetry_group_IT_number 63
_symmetry_cell_setting 'orthorhombic'
loop_
_space_group_symop_operation_xyz
x,y,z
-x,-y,1/2+z
x,-y,-z
-x,y,1/2-z
-x,-y,-z
x,y,1/2-z
-x,y,z
x,-y,1/2+z
1/2+x,1/2+y,z
1/2-x,1/2-y,1/2+z
1/2+x,1/2-y,-z
1/2-x,1/2+y,1/2-z
1/2-x,1/2-y,-z
1/2+x,1/2+y,1/2-z
1/2-x,1/2+y,z
1/2+x,1/2-y,1/2+z
loop_
_atom_site_type_symbol
_atom_site_label
_atom_site_fract_x
_atom_site_fract_y
_atom_site_fract_z
Si Si1 0.894266 0.601588 0.401190
Si Si2 0.606226 0.648733 0.161248
Si Si3 0.694581 0.138265 0.565885
Si Si4 0.396314 0.373028 0.406284
O O1 0.831277 0.482623 0.381793
O O2 0.867590 0.630351 0.489883
O O3 0.887993 0.738936 0.362556
O O4 0.000000 0.560114 0.395406
O O5 0.627153 0.665665 0.250000
O O6 0.500000 0.690831 0.146810
O O7 0.672407 0.735432 0.111106
O O8 0.608162 0.500899 0.141362
O O9 0.802352 0.125590 0.544729
O O10 0.500000 0.370241 0.442979
#
# Coordination Sequence:
#
# PCOD9474148 Si02
#       4
#    16  16  16  16
#     4  10  21  37  58  87 120 151 186 236 294 345
#     4  10  22  40  60  83 112 148 192 238 281 333
#     4  11  20  37  60  85 115 150 191 234 284 341
#     4  10  22  38  57  84 118 152 187 231 284 340
#
# _framework density 23.823737999999999
#
# number of rings (size 3 to 8) (size 9 to 14) (size 15 to 20)
#    0.000    1.750    0.000    5.250    0.000    4.000 
#    0.000   12.500    0.000    4.500    0.000    0.000 
#    0.000    0.000    0.000    0.000    0.000    0.000 
#
# Total GULP energy -178678.481492 kJ/mol
# GULP energy per Si atom -5583.702547 kJ/mol
# Density = 2.376951 g / cm^3
# Si number density = 23.823738 Si / 1000 Ang^3
#
#
#
# Elastic Constant Matrix: (Units=GPa)
#
#
# Indices 1 2 3 4 5 6 
#
# 1 157.3339 54.2794 28.1569 0.0000 0.0000 0.0000
# 2 54.2794 184.2307 24.6710 0.0000 0.0000 0.0000
# 3 28.1569 24.6710 53.7032 0.0000 0.0000 0.0000
# 4 0.0000 0.0000 0.0000 -0.1738 0.0000 0.0000
# 5 0.0000 0.0000 0.0000 0.0000 3.4838 0.0000
# 6 0.0000 0.0000 0.0000 0.0000 0.0000 33.0941
#
#
#
# Elastic Compliance Matrix: (Units=1/GPa)
#
#
# Indices 1 2 3 4 5 6 
#
# 1 0.007537 -0.001802 -0.003124 0.000000 0.000000 0.000000
# 2 -0.001802 0.006215 -0.001910 0.000000 0.000000 0.000000
# 3 -0.003124 -0.001910 0.021136 0.000000 0.000000 0.000000
# 4 0.000000 0.000000 0.000000 -5.753238 0.000000 0.000000
# 5 0.000000 0.000000 0.000000 0.000000 0.287044 0.000000
# 6 0.000000 0.000000 0.000000 0.000000 0.000000 0.030217
#
#
# Mechanical properties :
#
#
# Convention : Reuss Voigt Hill
#
# Bulk Modulus (GPa) = 47.13497 67.72024 57.42760
# Shear Modulus (GPa) = -0.92931 26.49152 12.78110
#
# Velocity S-wave (km/s) = -0.62524 3.33825 2.31873
# Velocity P-wave (km/s) = 4.39393 6.58375 5.59698
#
# Compressibility (1/GPa) = 0.02121567
#
# Stress axis : x y z
#
# Youngs Moduli (GPa) = 132.68460 160.90756 47.31245
#
# Poissons Ratio (x) = 0.28999 0.14778
# Poissons Ratio (y) = 0.23913 0.09037
# Poissons Ratio (z) = 0.41445 0.30735
#
# Static dielectric constant tensor:
#      x y z
#    x 1.936710 0.000000 0.000000 
#    y 0.000000 2.012040 0.000000 
#    z 0.000000 0.000000 1.853240 
# 
# From -- ./inp_files/43458.got.cif
#   From: 2010.05.17/outbox.cif.g08.bks.cpg/sg63_22_cif.got.tgz:43458.got - 2010.06.03 15:47:04.
