data_PCOD9474540
_publ_section_title
;
Structure prediction by ZEFSAII (Michael W. Deem and Ramdas Pophale) SiO2 
 PCOD9474540
Probable space group: C M C M
;
_chemical_formula_sum "Si O2"
_cell_formula_units_Z 68
_cell_length_a 7.250105
_cell_length_b 19.144674
_cell_length_c 19.519528
_cell_angle_alpha 90.000000
_cell_angle_beta 90.000000
_cell_angle_gamma 90.000000
_cell_volume 2709.327989
_symmetry_space_group_name_H-M "C M C M"
_symmetry_group_IT_number 63
_symmetry_cell_setting 'orthorhombic'
loop_
_space_group_symop_operation_xyz
x,y,z
-x,-y,1/2+z
x,-y,-z
-x,y,1/2-z
-x,-y,-z
x,y,1/2-z
-x,y,z
x,-y,1/2+z
1/2+x,1/2+y,z
1/2-x,1/2-y,1/2+z
1/2+x,1/2-y,-z
1/2-x,1/2+y,1/2-z
1/2-x,1/2-y,-z
1/2+x,1/2+y,1/2-z
1/2-x,1/2+y,z
1/2+x,1/2-y,1/2+z
loop_
_atom_site_type_symbol
_atom_site_label
_atom_site_fract_x
_atom_site_fract_y
_atom_site_fract_z
Si Si1 0.500000 0.566824 0.250000
Si Si2 0.787003 0.280133 0.824133
Si Si3 0.719795 0.979366 0.866859
Si Si4 0.720367 0.144400 0.458875
Si Si5 0.722518 0.860851 0.388794
O O1 0.660922 0.558146 0.309588
O O2 0.701087 0.297643 0.750000
O O3 0.707342 0.311043 0.894544
O O4 0.783461 0.197003 0.834962
O O5 0.000000 0.303274 0.821557
O O6 0.500000 0.976626 0.851911
O O7 0.776180 0.060070 0.872060
O O8 0.747276 0.935981 0.936900
O O9 0.500000 0.156838 0.461742
O O10 0.789968 0.158837 0.534841
O O11 0.500000 0.860073 0.389481
#
# Coordination Sequence:
#
# PCOD9474540 Si02
#       5
#     4  16  16  16  16
#     4  12  26  40  62 102 136 164 212 254 332 386
#     4  10  22  37  59  88 126 167 208 260 320 378
#     4  10  23  42  67  94 129 168 211 266 316 378
#     4   9  19  41  66  89 121 167 214 259 320 380
#     4  10  21  39  64  91 121 165 213 263 318 376
#
# _framework density 25.098475000000001
#
# number of rings (size 3 to 8) (size 9 to 14) (size 15 to 20)
#    0.000    2.118    0.000    1.765    4.941    3.294 
#    4.235    1.176    0.000    0.000    0.000    0.000 
#    0.000    0.000    0.000    0.000    0.000    0.000 
#
# Total GULP energy -189744.389783 kJ/mol
# GULP energy per Si atom -5580.717347 kJ/mol
# Density = 2.504135 g / cm^3
# Si number density = 25.098475 Si / 1000 Ang^3
#
#
#
# Elastic Constant Matrix: (Units=GPa)
#
#
# Indices 1 2 3 4 5 6 
#
# 1 122.9600 -15.2901 9.5674 0.0000 0.0000 0.0000
# 2 -15.2901 115.1265 23.3229 0.0000 0.0000 0.0000
# 3 9.5674 23.3229 135.1935 0.0000 0.0000 0.0000
# 4 0.0000 0.0000 0.0000 29.9865 0.0000 0.0000
# 5 0.0000 0.0000 0.0000 0.0000 1.8669 0.0000
# 6 0.0000 0.0000 0.0000 0.0000 0.0000 -14.9152
#
#
#
# Elastic Compliance Matrix: (Units=1/GPa)
#
#
# Indices 1 2 3 4 5 6 
#
# 1 0.008354 0.001274 -0.000811 0.000000 0.000000 0.000000
# 2 0.001274 0.009195 -0.001676 0.000000 0.000000 0.000000
# 3 -0.000811 -0.001676 0.007743 0.000000 0.000000 0.000000
# 4 0.000000 0.000000 0.000000 0.033348 0.000000 0.000000
# 5 0.000000 0.000000 0.000000 0.000000 0.535638 0.000000
# 6 0.000000 0.000000 0.000000 0.000000 0.000000 -0.067046
#
#
# Mechanical properties :
#
#
# Convention : Reuss Voigt Hill
#
# Bulk Modulus (GPa) = 43.73415 45.38672 44.56044
# Shear Modulus (GPa) = 9.30610 27.09961 18.20285
#
# Velocity S-wave (km/s) = 1.92766 3.28949 2.69598
# Velocity P-wave (km/s) = 4.73470 5.70529 5.24251
#
# Compressibility (1/GPa) = 0.02286542
#
# Stress axis : x y z
#
# Youngs Moduli (GPa) = 119.69991 108.75600 129.14218
#
# Poissons Ratio (x) = -0.13854 0.10473
# Poissons Ratio (y) = -0.15248 0.21649
# Poissons Ratio (z) = 0.09707 0.18232
#
# Static dielectric constant tensor:
#      x y z
#    x 2.030210 0.000000 0.000000 
#    y 0.000000 2.009490 0.000000 
#    z 0.000000 0.000000 1.946140 
# 
# From -- ./inp_files/39944.got.cif
#   From: 2010.05.17/outbox.cif.g08.bks.cpg/sg63_20_cif.got.tgz:39944.got - 2010.06.03 15:47:04.
