data_PCOD9474611
_publ_section_title
;
Structure prediction by ZEFSAII (Michael W. Deem and Ramdas Pophale) SiO2 
 PCOD9474611
Probable space group: C M C M
;
_chemical_formula_sum "Si O2"
_cell_formula_units_Z 64
_cell_length_a 8.778608
_cell_length_b 18.084646
_cell_length_c 21.008178
_cell_angle_alpha 90.000000
_cell_angle_beta 90.000000
_cell_angle_gamma 90.000000
_cell_volume 3335.216702
_symmetry_space_group_name_H-M "C M C M"
_symmetry_group_IT_number 63
_symmetry_cell_setting 'orthorhombic'
loop_
_space_group_symop_operation_xyz
x,y,z
-x,-y,1/2+z
x,-y,-z
-x,y,1/2-z
-x,-y,-z
x,y,1/2-z
-x,y,z
x,-y,1/2+z
1/2+x,1/2+y,z
1/2-x,1/2-y,1/2+z
1/2+x,1/2-y,-z
1/2-x,1/2+y,1/2-z
1/2-x,1/2-y,-z
1/2+x,1/2+y,1/2-z
1/2-x,1/2+y,z
1/2+x,1/2-y,1/2+z
loop_
_atom_site_type_symbol
_atom_site_label
_atom_site_fract_x
_atom_site_fract_y
_atom_site_fract_z
Si Si1 0.181530 0.663618 0.250000
Si Si2 0.317741 0.077513 0.624999
Si Si3 0.681472 0.585246 0.374329
Si Si4 0.182502 0.332047 0.996467
Si Si5 0.317436 0.826531 0.250000
O O1 0.249002 0.624392 0.187661
O O2 0.231361 0.749053 0.250000
O O3 0.000000 0.656898 0.250000
O O4 0.500000 0.062571 0.625860
O O5 0.283309 0.123879 0.561505
O O6 0.281491 0.125949 0.687219
O O7 0.230843 0.000218 0.625399
O O8 0.500000 0.592206 0.373321
O O9 0.747472 0.624751 0.436893
O O10 0.000000 0.328331 0.989710
O O11 0.250000 0.250000 0.000000
O O12 0.500000 0.812160 0.250000
#
# Coordination Sequence:
#
# PCOD9474611 Si02
#       5
#     8  16  16  16   8
#     4  12  25  42  65  91 123 161 203 254 311 370
#     4  10  22  40  63  91 125 164 204 251 306 362
#     4  12  25  41  63  91 124 162 207 256 305 365
#     4  11  23  40  63  92 127 165 207 255 308 365
#     4  10  21  40  65  93 125 159 201 254 311 368
#
# _framework density 19.189159
#
# number of rings (size 3 to 8) (size 9 to 14) (size 15 to 20)
#    0.000    1.000    0.000    7.125    0.000    9.000 
#    0.000    0.000    0.000    0.000    0.000    0.000 
#    0.000    0.000    0.000    0.000    0.000    0.000 
#
# Total GULP energy -179150.874377 kJ/mol
# GULP energy per Si atom -5598.464824 kJ/mol
# Density = 1.914548 g / cm^3
# Si number density = 19.189159 Si / 1000 Ang^3
#
#
#
# Elastic Constant Matrix: (Units=GPa)
#
#
# Indices 1 2 3 4 5 6 
#
# 1 129.9793 112.8927 112.6975 0.0000 0.0000 0.0000
# 2 112.8927 185.8635 118.4939 0.0000 0.0000 0.0000
# 3 112.6975 118.4939 225.8849 0.0000 0.0000 0.0000
# 4 0.0000 0.0000 0.0000 36.3527 0.0000 0.0000
# 5 0.0000 0.0000 0.0000 0.0000 19.6663 0.0000
# 6 0.0000 0.0000 0.0000 0.0000 0.0000 45.1187
#
#
#
# Elastic Compliance Matrix: (Units=1/GPa)
#
#
# Indices 1 2 3 4 5 6 
#
# 1 0.019850 -0.008629 -0.005377 0.000000 0.000000 0.000000
# 2 -0.008629 0.011835 -0.001903 0.000000 0.000000 0.000000
# 3 -0.005377 -0.001903 0.008108 0.000000 0.000000 0.000000
# 4 0.000000 0.000000 0.000000 0.027508 0.000000 0.000000
# 5 0.000000 0.000000 0.000000 0.000000 0.050848 0.000000
# 6 0.000000 0.000000 0.000000 0.000000 0.000000 0.022164
#
#
# Mechanical properties :
#
#
# Convention : Reuss Voigt Hill
#
# Bulk Modulus (GPa) = 125.39416 136.65509 131.02463
# Shear Modulus (GPa) = 28.60571 33.40378 31.00474
#
# Velocity S-wave (km/s) = 3.86518 4.17677 4.02399
# Velocity P-wave (km/s) = 9.24163 9.72779 9.48782
#
# Compressibility (1/GPa) = 0.00797485
#
# Stress axis : x y z
#
# Youngs Moduli (GPa) = 50.37706 84.49670 123.33351
#
# Poissons Ratio (x) = 0.72912 0.66318
# Poissons Ratio (y) = 0.43470 0.23472
# Poissons Ratio (z) = 0.27088 0.16081
#
# Static dielectric constant tensor:
#      x y z
#    x 1.639990 0.000000 0.000000 
#    y 0.000000 1.620290 0.000000 
#    z 0.000000 0.000000 1.636580 
# 
# From -- ./inp_files/50369.got.cif
#   From: 2010.05.17/outbox.cif.g08.bks.cpg/sg63_26_cif.got.tgz:50369.got - 2010.06.03 15:47:04.
