data_PCOD9474903
_publ_section_title
;
Structure prediction by ZEFSAII (Michael W. Deem and Ramdas Pophale) SiO2 
 PCOD9474903
Probable space group: C M C M
;
_chemical_formula_sum "Si O2"
_cell_formula_units_Z 64
_cell_length_a 8.962431
_cell_length_b 10.177264
_cell_length_c 35.259431
_cell_angle_alpha 90.000000
_cell_angle_beta 90.000000
_cell_angle_gamma 90.000000
_cell_volume 3216.119410
_symmetry_space_group_name_H-M "C M C M"
_symmetry_group_IT_number 63
_symmetry_cell_setting 'orthorhombic'
loop_
_space_group_symop_operation_xyz
x,y,z
-x,-y,1/2+z
x,-y,-z
-x,y,1/2-z
-x,-y,-z
x,y,1/2-z
-x,y,z
x,-y,1/2+z
1/2+x,1/2+y,z
1/2-x,1/2-y,1/2+z
1/2+x,1/2-y,-z
1/2-x,1/2+y,1/2-z
1/2-x,1/2-y,-z
1/2+x,1/2+y,1/2-z
1/2-x,1/2+y,z
1/2+x,1/2-y,1/2+z
loop_
_atom_site_type_symbol
_atom_site_label
_atom_site_fract_x
_atom_site_fract_y
_atom_site_fract_z
Si Si1 0.322367 0.538102 0.917838
Si Si2 0.677876 0.026138 0.162789
Si Si3 0.322080 0.198061 0.461323
Si Si4 0.677703 0.708185 0.705959
O O1 0.500000 0.518991 0.917937
O O2 0.231253 0.582114 0.807209
O O3 0.293226 0.688355 0.930047
O O4 0.250000 0.750000 0.000000
O O5 0.500000 0.020847 0.157713
O O6 0.748764 0.061922 0.052311
O O7 0.716559 0.169058 0.179265
O O8 0.500000 0.184053 0.465684
O O9 0.256508 0.494802 0.376847
O O10 0.705274 0.740120 0.750000
O O11 0.500000 0.682762 0.701684
#
# Coordination Sequence:
#
# PCOD9474903 Si02
#       4
#    16  16  16  16
#     4  11  24  41  61  88 121 156 196 242 293 350
#     4  11  23  39  61  89 119 154 198 244 291 348
#     4  11  24  41  62  89 120 155 197 244 294 350
#     4  10  22  40  60  85 119 155 193 241 293 345
#
# _framework density 19.899757999999999
#
# number of rings (size 3 to 8) (size 9 to 14) (size 15 to 20)
#    0.000    1.250    0.000    5.250    0.000   16.500 
#    0.000    0.000    0.000    0.000    0.000    0.000 
#    0.000    0.000    0.000    0.000    0.000    0.000 
#
# Total GULP energy -179078.528346 kJ/mol
# GULP energy per Si atom -5596.204011 kJ/mol
# Density = 1.985447 g / cm^3
# Si number density = 19.899758 Si / 1000 Ang^3
#
#
#
# Elastic Constant Matrix: (Units=GPa)
#
#
# Indices 1 2 3 4 5 6 
#
# 1 34.6286 21.1653 1.3498 0.0000 0.0000 0.0000
# 2 21.1653 56.8158 -27.9013 0.0000 0.0000 0.0000
# 3 1.3498 -27.9013 45.5067 0.0000 0.0000 0.0000
# 4 0.0000 0.0000 0.0000 39.8782 0.0000 0.0000
# 5 0.0000 0.0000 0.0000 0.0000 38.5478 0.0000
# 6 0.0000 0.0000 0.0000 0.0000 0.0000 36.1901
#
#
#
# Elastic Compliance Matrix: (Units=1/GPa)
#
#
# Indices 1 2 3 4 5 6 
#
# 1 0.044627 -0.024717 -0.016478 0.000000 0.000000 0.000000
# 2 -0.024717 0.038873 0.024567 0.000000 0.000000 0.000000
# 3 -0.016478 0.024567 0.037526 0.000000 0.000000 0.000000
# 4 0.000000 0.000000 0.000000 0.025076 0.000000 0.000000
# 5 0.000000 0.000000 0.000000 0.000000 0.025942 0.000000
# 6 0.000000 0.000000 0.000000 0.000000 0.000000 0.027632
#
#
# Mechanical properties :
#
#
# Convention : Reuss Voigt Hill
#
# Bulk Modulus (GPa) = 11.39341 14.01985 12.70663
# Shear Modulus (GPa) = 19.07016 32.41237 25.74126
#
# Velocity S-wave (km/s) = 3.09902 4.04020 3.60049
# Velocity P-wave (km/s) = 4.30616 5.36887 4.86661
#
# Compressibility (1/GPa) = 0.08777007
#
# Stress axis : x y z
#
# Youngs Moduli (GPa) = 22.40776 25.72485 26.64801
#
# Poissons Ratio (x) = 0.63584 0.43911
# Poissons Ratio (y) = 0.55385 -0.65466
# Poissons Ratio (z) = 0.36924 -0.63198
#
# Static dielectric constant tensor:
#      x y z
#    x 1.664580 0.000000 0.000000 
#    y 0.000000 1.671650 0.000000 
#    z 0.000000 0.000000 1.688670 
# 
# From -- ./inp_files/59065.got.cif
#   From: 2010.05.17/outbox.cif.g08.bks.cpg/sg63_30_cif.got.tgz:59065.got - 2010.06.03 15:47:04.
