data_PCOD9474315
_publ_section_title
;
Structure prediction by ZEFSAII (Michael W. Deem and Ramdas Pophale) SiO2 
 PCOD9474315
Probable space group: C M C M
;
_chemical_formula_sum "Si O2"
_cell_formula_units_Z 104
_cell_length_a 26.529231
_cell_length_b 21.222277
_cell_length_c 9.859456
_cell_angle_alpha 90.000000
_cell_angle_beta 90.000000
_cell_angle_gamma 90.000000
_cell_volume 5550.979115
_symmetry_space_group_name_H-M "C M C M"
_symmetry_group_IT_number 63
_symmetry_cell_setting 'orthorhombic'
loop_
_space_group_symop_operation_xyz
x,y,z
-x,-y,1/2+z
x,-y,-z
-x,y,1/2-z
-x,-y,-z
x,y,1/2-z
-x,y,z
x,-y,1/2+z
1/2+x,1/2+y,z
1/2-x,1/2-y,1/2+z
1/2+x,1/2-y,-z
1/2-x,1/2+y,1/2-z
1/2-x,1/2-y,-z
1/2+x,1/2+y,1/2-z
1/2-x,1/2+y,z
1/2+x,1/2-y,1/2+z
loop_
_atom_site_type_symbol
_atom_site_label
_atom_site_fract_x
_atom_site_fract_y
_atom_site_fract_z
Si Si1 0.116781 0.313956 0.403539
Si Si2 0.559854 0.390097 0.902527
Si Si3 0.206245 0.101392 0.597542
Si Si4 0.630009 0.500000 0.500000
Si Si5 0.791137 0.783724 0.905388
Si Si6 0.939612 0.774246 0.096365
Si Si7 0.177532 0.559686 0.908472
O O1 0.095616 0.317748 0.250000
O O2 0.161854 0.263168 0.400085
O O3 0.078946 0.286240 0.513530
O O4 0.142302 0.380461 0.439160
O O5 0.567204 0.364459 0.750000
O O6 0.500000 0.404574 0.917846
O O7 0.593511 0.451957 0.921197
O O8 0.573831 0.337258 0.012520
O O9 0.204071 0.129042 0.750000
O O10 0.167361 0.043781 0.587297
O O11 0.194893 0.151780 0.480885
O O12 0.263716 0.078753 0.574561
O O13 0.773916 0.794365 0.750000
O O14 0.750000 0.750000 0.000000
O O15 0.919574 0.776163 0.250000
O O16 0.000000 0.773395 0.101897
O O17 0.170923 0.544379 0.750000
O O18 0.166057 0.500000 0.000000
#
# Coordination Sequence:
#
# PCOD9474315 Si02
#       7
#    16  16  16   8  16  16  16
#     4  10  21  38  60  85 116 152 191 236 289 351
#     4  10  22  40  60  83 115 156 200 246 297 349
#     4  11  23  38  54  79 116 154 196 245 290 338
#     4  12  23  36  58  86 114 158 207 250 288 338
#     4  11  22  37  57  82 113 150 195 245 294 345
#     4  10  22  40  63  92 120 147 189 244 298 352
#     4  10  21  39  57  81 115 154 193 232 279 342
#
# _framework density 18.735433
#
# number of rings (size 3 to 8) (size 9 to 14) (size 15 to 20)
#    0.000    1.538    2.308    2.538    0.000    8.308 
#    0.000    1.538    0.000    0.462    0.000    0.000 
#    0.000    0.000    0.000    0.000    0.000    0.000 
#
# Total GULP energy -290463.695642 kJ/mol
# GULP energy per Si atom -5585.840301 kJ/mol
# Density = 1.869279 g / cm^3
# Si number density = 18.735433 Si / 1000 Ang^3
#
#
#
# Elastic Constant Matrix: (Units=GPa)
#
#
# Indices 1 2 3 4 5 6 
#
# 1 50.9102 35.4868 40.2975 0.0000 0.0000 0.0000
# 2 35.4868 132.8514 81.6742 0.0000 0.0000 0.0000
# 3 40.2975 81.6742 141.2182 0.0000 0.0000 0.0000
# 4 0.0000 0.0000 0.0000 32.0068 0.0000 0.0000
# 5 0.0000 0.0000 0.0000 0.0000 17.4216 0.0000
# 6 0.0000 0.0000 0.0000 0.0000 0.0000 37.9470
#
#
#
# Elastic Compliance Matrix: (Units=1/GPa)
#
#
# Indices 1 2 3 4 5 6 
#
# 1 0.026541 -0.003776 -0.005390 0.000000 0.000000 0.000000
# 2 -0.003776 0.012217 -0.005989 0.000000 0.000000 0.000000
# 3 -0.005390 -0.005989 0.012083 0.000000 0.000000 0.000000
# 4 0.000000 0.000000 0.000000 0.031243 0.000000 0.000000
# 5 0.000000 0.000000 0.000000 0.000000 0.057400 0.000000
# 6 0.000000 0.000000 0.000000 0.000000 0.000000 0.026353
#
#
# Mechanical properties :
#
#
# Convention : Reuss Voigt Hill
#
# Bulk Modulus (GPa) = 48.70345 71.09965 59.90155
# Shear Modulus (GPa) = 24.63185 28.64316 26.63750
#
# Velocity S-wave (km/s) = 3.62984 3.91426 3.77473
# Velocity P-wave (km/s) = 6.60450 7.64593 7.14422
#
# Compressibility (1/GPa) = 0.02053243
#
# Stress axis : x y z
#
# Youngs Moduli (GPa) = 37.67810 81.85012 82.76293
#
# Poissons Ratio (x) = 0.30906 0.44607
# Poissons Ratio (y) = 0.14227 0.49563
# Poissons Ratio (z) = 0.20307 0.49016
#
# Static dielectric constant tensor:
#      x y z
#    x 1.658430 0.000000 0.000000 
#    y 0.000000 1.631820 0.000000 
#    z 0.000000 0.000000 1.668740 
# 
# From -- ./inp_files/12606.got.cif
#   From: 2010.05.17/outbox.cif.g08.bks.cpg/sg63_7_cif.got.tgz:12606.got - 2010.06.03 15:47:04.
