data_PCOD9474675
_publ_section_title
;
Structure prediction by ZEFSAII (Michael W. Deem and Ramdas Pophale) SiO2 
 PCOD9474675
Probable space group: C M C M
;
_chemical_formula_sum "Si O2"
_cell_formula_units_Z 72
_cell_length_a 18.116459
_cell_length_b 8.744203
_cell_length_c 23.746028
_cell_angle_alpha 90.000000
_cell_angle_beta 90.000000
_cell_angle_gamma 90.000000
_cell_volume 3761.703164
_symmetry_space_group_name_H-M "C M C M"
_symmetry_group_IT_number 63
_symmetry_cell_setting 'orthorhombic'
loop_
_space_group_symop_operation_xyz
x,y,z
-x,-y,1/2+z
x,-y,-z
-x,y,1/2-z
-x,-y,-z
x,y,1/2-z
-x,y,z
x,-y,1/2+z
1/2+x,1/2+y,z
1/2-x,1/2-y,1/2+z
1/2+x,1/2-y,-z
1/2-x,1/2+y,1/2-z
1/2-x,1/2-y,-z
1/2+x,1/2+y,1/2-z
1/2-x,1/2+y,z
1/2+x,1/2-y,1/2+z
loop_
_atom_site_type_symbol
_atom_site_label
_atom_site_fract_x
_atom_site_fract_y
_atom_site_fract_z
Si Si1 0.702498 0.600078 0.574469
Si Si2 0.000000 0.566709 0.185101
Si Si3 0.870771 0.812065 0.312585
Si Si4 0.500000 0.805801 0.092638
Si Si5 0.000000 0.059594 0.188999
Si Si6 0.346136 0.738820 0.038080
O O1 0.685071 0.661748 0.636519
O O2 0.678973 0.422842 0.567084
O O3 0.657652 0.698798 0.528061
O O4 0.786495 0.634155 0.556378
O O5 0.926115 0.669396 0.179785
O O6 0.000000 0.508178 0.250000
O O7 0.000000 0.448529 0.134541
O O8 0.836702 0.801904 0.250000
O O9 0.927791 0.953728 0.312854
O O10 0.500000 0.664338 0.135417
O O11 0.426494 0.791726 0.056080
O O12 0.000000 0.139640 0.250000
#
# Coordination Sequence:
#
# PCOD9474675 Si02
#       6
#    16   8  16   8   8  16
#     4  10  21  43  59  87 121 160 192 250 293 366
#     4   9  21  36  56  88 129 158 189 253 305 343
#     4   9  18  37  61  83 114 162 201 236 296 357
#     4  12  21  37  58  98 110 155 203 248 280 361
#     4   9  17  32  57  84 116 151 190 242 294 343
#     4  10  24  38  65  85 126 155 195 241 314 335
#
# _framework density 19.140264999999999
#
# number of rings (size 3 to 8) (size 9 to 14) (size 15 to 20)
#    0.000    2.222    2.222    1.667    3.111    3.556 
#    0.000    4.444    0.000    0.000    0.000    0.000 
#    0.000    0.000    0.000    0.000    0.000    0.000 
#
# Total GULP energy -200852.103991 kJ/mol
# GULP energy per Si atom -5579.225111 kJ/mol
# Density = 1.909670 g / cm^3
# Si number density = 19.140265 Si / 1000 Ang^3
#
#
#
# Elastic Constant Matrix: (Units=GPa)
#
#
# Indices 1 2 3 4 5 6 
#
# 1 60.9898 13.5882 48.0137 0.0000 0.0000 0.0000
# 2 13.5882 48.7429 26.3735 0.0000 0.0000 0.0000
# 3 48.0137 26.3735 126.7051 0.0000 0.0000 0.0000
# 4 0.0000 0.0000 0.0000 23.0711 0.0000 0.0000
# 5 0.0000 0.0000 0.0000 0.0000 27.4860 0.0000
# 6 0.0000 0.0000 0.0000 0.0000 0.0000 -25.4870
#
#
#
# Elastic Compliance Matrix: (Units=1/GPa)
#
#
# Indices 1 2 3 4 5 6 
#
# 1 0.023531 -0.001955 -0.008510 0.000000 0.000000 0.000000
# 2 -0.001955 0.023282 -0.004105 0.000000 0.000000 0.000000
# 3 -0.008510 -0.004105 0.011972 0.000000 0.000000 0.000000
# 4 0.000000 0.000000 0.000000 0.043344 0.000000 0.000000
# 5 0.000000 0.000000 0.000000 0.000000 0.036382 0.000000
# 6 0.000000 0.000000 0.000000 0.000000 0.000000 -0.039236
#
#
# Mechanical properties :
#
#
# Convention : Reuss Voigt Hill
#
# Bulk Modulus (GPa) = 33.73370 45.82096 39.77733
# Shear Modulus (GPa) = 36.15386 14.91152 25.53269
#
# Velocity S-wave (km/s) = 4.35085 2.79420 3.65633
# Velocity P-wave (km/s) = 6.55001 5.86529 6.21708
#
# Compressibility (1/GPa) = 0.02964395
#
# Stress axis : x y z
#
# Youngs Moduli (GPa) = 42.49677 42.95145 83.53122
#
# Poissons Ratio (x) = 0.08399 0.71084
# Poissons Ratio (y) = 0.08310 0.34291
# Poissons Ratio (z) = 0.36164 0.17632
#
# Static dielectric constant tensor:
#      x y z
#    x 1.640300 0.000000 0.000000 
#    y 0.000000 1.690660 0.000000 
#    z 0.000000 0.000000 1.465830 
# 
# From -- ./inp_files/63541.got.cif
#   From: 2010.05.17/outbox.cif.g08.bks.cpg/sg63_32_cif.got.tgz:63541.got - 2010.06.03 15:47:04.
