data_PCOD9474064
_publ_section_title
;
Structure prediction by ZEFSAII (Michael W. Deem and Ramdas Pophale) SiO2 
 PCOD9474064
Probable space group: C M C M
;
_chemical_formula_sum "Si O2"
_cell_formula_units_Z 96
_cell_length_a 29.075968
_cell_length_b 20.451677
_cell_length_c 8.908103
_cell_angle_alpha 90.000000
_cell_angle_beta 90.000000
_cell_angle_gamma 90.000000
_cell_volume 5297.223991
_symmetry_space_group_name_H-M "C M C M"
_symmetry_group_IT_number 63
_symmetry_cell_setting 'orthorhombic'
loop_
_space_group_symop_operation_xyz
x,y,z
-x,-y,1/2+z
x,-y,-z
-x,y,1/2-z
-x,-y,-z
x,y,1/2-z
-x,y,z
x,-y,1/2+z
1/2+x,1/2+y,z
1/2-x,1/2-y,1/2+z
1/2+x,1/2-y,-z
1/2-x,1/2+y,1/2-z
1/2-x,1/2-y,-z
1/2+x,1/2+y,1/2-z
1/2-x,1/2+y,z
1/2+x,1/2-y,1/2+z
loop_
_atom_site_type_symbol
_atom_site_label
_atom_site_fract_x
_atom_site_fract_y
_atom_site_fract_z
Si Si1 0.587398 0.307158 0.570851
Si Si2 0.193430 0.194766 0.070516
Si Si3 0.871977 0.572093 0.931383
Si Si4 0.554615 0.564126 0.918608
Si Si5 0.783370 0.656035 0.930085
Si Si6 0.945970 0.328940 0.569970
O O1 0.583604 0.297888 0.750000
O O2 0.640885 0.319688 0.533080
O O3 0.561553 0.371202 0.515407
O O4 0.568884 0.242304 0.490268
O O5 0.198840 0.191430 0.250000
O O6 0.201149 0.270574 0.024641
O O7 0.232436 0.149849 0.997070
O O8 0.874157 0.570071 0.750000
O O9 0.823126 0.605546 0.975405
O O10 0.875382 0.500000 0.000000
O O11 0.912826 0.617921 0.993160
O O12 0.573329 0.572240 0.750000
O O13 0.500000 0.554274 0.905080
O O14 0.574232 0.500000 0.000000
O O15 0.780622 0.654328 0.750000
O O16 0.940372 0.331369 0.750000
O O17 0.000000 0.339860 0.535657
#
# Coordination Sequence:
#
# PCOD9474064 Si02
#       6
#    16  16  16  16  16  16
#     4  11  21  36  58  87 120 154 191 237 290 344
#     4   9  18  33  55  84 114 143 182 228 277 335
#     4  11  23  41  62  86 117 154 197 243 297 356
#     4  10  21  37  56  80 111 149 193 236 283 343
#     4   9  18  35  56  82 112 144 184 229 277 335
#     4  11  24  40  59  86 117 152 199 249 296 349
#
# _framework density 18.122699000000001
#
# number of rings (size 3 to 8) (size 9 to 14) (size 15 to 20)
#    0.000    1.833    1.667    2.500    0.000    7.333 
#    0.000    0.833    0.000    2.000    0.000    0.000 
#    0.000    0.000    0.000    0.000    0.000    0.000 
#
# Total GULP energy -267848.973274 kJ/mol
# GULP energy per Si atom -5580.186943 kJ/mol
# Density = 1.808145 g / cm^3
# Si number density = 18.122699 Si / 1000 Ang^3
#
#
#
# Elastic Constant Matrix: (Units=GPa)
#
#
# Indices 1 2 3 4 5 6 
#
# 1 94.8966 54.1464 50.1272 0.0000 0.0000 0.0000
# 2 54.1464 127.5130 41.1280 0.0000 0.0000 0.0000
# 3 50.1272 41.1280 59.2466 0.0000 0.0000 0.0000
# 4 0.0000 0.0000 0.0000 27.8072 0.0000 0.0000
# 5 0.0000 0.0000 0.0000 0.0000 32.4271 0.0000
# 6 0.0000 0.0000 0.0000 0.0000 0.0000 16.0897
#
#
#
# Elastic Compliance Matrix: (Units=1/GPa)
#
#
# Indices 1 2 3 4 5 6 
#
# 1 0.020533 -0.004015 -0.014586 0.000000 0.000000 0.000000
# 2 -0.004015 0.010890 -0.004163 0.000000 0.000000 0.000000
# 3 -0.014586 -0.004163 0.032109 0.000000 0.000000 0.000000
# 4 0.000000 0.000000 0.000000 0.035962 0.000000 0.000000
# 5 0.000000 0.000000 0.000000 0.000000 0.030838 0.000000
# 6 0.000000 0.000000 0.000000 0.000000 0.000000 0.062152
#
#
# Mechanical properties :
#
#
# Convention : Reuss Voigt Hill
#
# Bulk Modulus (GPa) = 55.53836 63.60662 59.57249
# Shear Modulus (GPa) = 20.49082 24.34843 22.41963
#
# Velocity S-wave (km/s) = 3.36619 3.66940 3.52106
# Velocity P-wave (km/s) = 6.76909 7.28880 7.03375
#
# Compressibility (1/GPa) = 0.01800557
#
# Stress axis : x y z
#
# Youngs Moduli (GPa) = 48.70199 91.82953 31.14394
#
# Poissons Ratio (x) = 0.36866 0.45426
# Poissons Ratio (y) = 0.19552 0.12965
# Poissons Ratio (z) = 0.71035 0.38227
#
# Static dielectric constant tensor:
#      x y z
#    x 1.635820 0.000000 0.000000 
#    y 0.000000 1.590580 0.000000 
#    z 0.000000 0.000000 1.623150 
# 
# From -- ./inp_files/12415.got.cif
#   From: 2010.05.17/outbox.cif.g08.bks.cpg/sg63_7_cif.got.tgz:12415.got - 2010.06.03 15:47:04.
