data_PCOD9474839
_publ_section_title
;
Structure prediction by ZEFSAII (Michael W. Deem and Ramdas Pophale) SiO2 
 PCOD9474839
Probable space group: C M C M
;
_chemical_formula_sum "Si O2"
_cell_formula_units_Z 52
_cell_length_a 17.596823
_cell_length_b 17.726472
_cell_length_c 7.611039
_cell_angle_alpha 90.000000
_cell_angle_beta 90.000000
_cell_angle_gamma 90.000000
_cell_volume 2374.108276
_symmetry_space_group_name_H-M "C M C M"
_symmetry_group_IT_number 63
_symmetry_cell_setting 'orthorhombic'
loop_
_space_group_symop_operation_xyz
x,y,z
-x,-y,1/2+z
x,-y,-z
-x,y,1/2-z
-x,-y,-z
x,y,1/2-z
-x,y,z
x,-y,1/2+z
1/2+x,1/2+y,z
1/2-x,1/2-y,1/2+z
1/2+x,1/2-y,-z
1/2-x,1/2+y,1/2-z
1/2-x,1/2-y,-z
1/2+x,1/2+y,1/2-z
1/2-x,1/2+y,z
1/2+x,1/2-y,1/2+z
loop_
_atom_site_type_symbol
_atom_site_label
_atom_site_fract_x
_atom_site_fract_y
_atom_site_fract_z
Si Si1 0.196460 0.084121 0.960544
Si Si2 0.500000 0.000000 0.000000
Si Si3 0.086922 0.217153 0.962732
Si Si4 0.366673 0.887017 0.041393
O O1 0.200871 0.092525 0.750000
O O2 0.141167 0.149811 0.026248
O O3 0.282852 0.093155 0.026848
O O4 0.168676 0.000000 0.000000
O O5 0.433340 0.063118 0.038732
O O6 0.086476 0.215113 0.750000
O O7 0.000000 0.208522 0.023002
O O8 0.118003 0.298627 0.016895
O O9 0.371337 0.903692 0.250000
#
# Coordination Sequence:
#
# PCOD9474839 Si02
#       4
#    16   4  16  16
#     4  10  22  40  59  84 116 152 193 236 285 339
#     4  12  22  36  60  90 118 148 184 234 284 340
#     4  10  22  39  60  85 116 152 190 236 288 339
#     4  11  23  39  60  87 118 151 190 235 287 345
#
# _framework density 21.90296
#
# number of rings (size 3 to 8) (size 9 to 14) (size 15 to 20)
#    0.000    1.538    3.077    1.385    0.000    5.538 
#    0.000    0.000    0.000    0.000    0.000    0.000 
#    0.000    0.000    0.000    0.000    0.000    0.000 
#
# Total GULP energy -144909.874062 kJ/mol
# GULP energy per Si atom -5573.456695 kJ/mol
# Density = 2.185311 g / cm^3
# Si number density = 21.902960 Si / 1000 Ang^3
#
#
#
# Elastic Constant Matrix: (Units=GPa)
#
#
# Indices 1 2 3 4 5 6 
#
# 1 66.1993 76.2805 3.0024 0.0000 0.0000 0.0000
# 2 76.2805 210.7588 -8.6449 0.0000 0.0000 0.0000
# 3 3.0024 -8.6449 51.7381 0.0000 0.0000 0.0000
# 4 0.0000 0.0000 0.0000 -12.7902 0.0000 0.0000
# 5 0.0000 0.0000 0.0000 0.0000 8.9903 0.0000
# 6 0.0000 0.0000 0.0000 0.0000 0.0000 55.0593
#
#
#
# Elastic Compliance Matrix: (Units=1/GPa)
#
#
# Indices 1 2 3 4 5 6 
#
# 1 0.026414 -0.009689 -0.003152 0.000000 0.000000 0.000000
# 2 -0.009689 0.008332 0.001954 0.000000 0.000000 0.000000
# 3 -0.003152 0.001954 0.019838 0.000000 0.000000 0.000000
# 4 0.000000 0.000000 0.000000 -0.078185 0.000000 0.000000
# 5 0.000000 0.000000 0.000000 0.000000 0.111231 0.000000
# 6 0.000000 0.000000 0.000000 0.000000 0.000000 0.018162
#
#
# Mechanical properties :
#
#
# Convention : Reuss Voigt Hill
#
# Bulk Modulus (GPa) = 30.47871 52.21915 41.34893
# Shear Modulus (GPa) = 36.10082 27.45576 31.77829
#
# Velocity S-wave (km/s) = 4.06423 3.54435 3.81316
# Velocity P-wave (km/s) = 5.99746 6.37517 6.18919
#
# Compressibility (1/GPa) = 0.03280978
#
# Stress axis : x y z
#
# Youngs Moduli (GPa) = 37.85925 120.02237 50.40940
#
# Poissons Ratio (x) = 1.16293 0.15888
# Poissons Ratio (y) = 0.36683 -0.09852
# Poissons Ratio (z) = 0.11932 -0.23458
#
# Static dielectric constant tensor:
#      x y z
#    x 1.777920 0.000000 0.000000 
#    y 0.000000 1.742090 0.000000 
#    z 0.000000 0.000000 1.855100 
# 
# From -- ./inp_files/5448.got.cif
#   From: 2010.05.17/outbox.cif.g08.bks.cpg/sg63_3_cif.got.tgz:5448.got - 2010.06.03 15:47:04.
