data_PCOD9474570
_publ_section_title
;
Structure prediction by ZEFSAII (Michael W. Deem and Ramdas Pophale) SiO2 
 PCOD9474570
Probable space group: C M C M
;
_chemical_formula_sum "Si O2"
_cell_formula_units_Z 116
_cell_length_a 17.364128
_cell_length_b 18.690705
_cell_length_c 18.019753
_cell_angle_alpha 90.000000
_cell_angle_beta 90.000000
_cell_angle_gamma 90.000000
_cell_volume 5848.271085
_symmetry_space_group_name_H-M "C M C M"
_symmetry_group_IT_number 63
_symmetry_cell_setting 'orthorhombic'
loop_
_space_group_symop_operation_xyz
x,y,z
-x,-y,1/2+z
x,-y,-z
-x,y,1/2-z
-x,-y,-z
x,y,1/2-z
-x,y,z
x,-y,1/2+z
1/2+x,1/2+y,z
1/2-x,1/2-y,1/2+z
1/2+x,1/2-y,-z
1/2-x,1/2+y,1/2-z
1/2-x,1/2-y,-z
1/2+x,1/2+y,1/2-z
1/2-x,1/2+y,z
1/2+x,1/2-y,1/2+z
loop_
_atom_site_type_symbol
_atom_site_label
_atom_site_fract_x
_atom_site_fract_y
_atom_site_fract_z
Si Si1 0.591056 0.691438 0.077637
Si Si2 0.368578 0.841604 0.373273
Si Si3 0.819317 0.948885 0.562814
Si Si4 0.150455 0.581157 0.021544
Si Si5 0.409163 0.306771 0.401028
Si Si6 0.500000 0.867850 0.250000
Si Si7 0.092796 0.654445 0.333409
Si Si8 0.208608 0.919207 0.163052
O O1 0.500000 0.694271 0.094256
O O2 0.631888 0.755481 0.121682
O O3 0.626399 0.613499 0.091941
O O4 0.601117 0.703316 0.989166
O O5 0.383843 0.868921 0.457366
O O6 0.432897 0.865141 0.315216
O O7 0.287961 0.877225 0.351252
O O8 0.743609 0.914051 0.524720
O O9 0.856968 0.000000 0.500000
O O10 0.789911 0.002936 0.625562
O O11 0.121429 0.601983 0.102651
O O12 0.131704 0.500000 0.000000
O O13 0.500000 0.318455 0.387434
O O14 0.385014 0.234731 0.358077
O O15 0.359226 0.372768 0.373391
O O16 0.120077 0.638239 0.250000
O O17 0.000000 0.651975 0.333056
O O18 0.195329 0.925477 0.250000
#
# Coordination Sequence:
#
# PCOD9474570 Si02
#       8
#    16  16  16  16  16   4  16  16
#     4  11  23  41  73 103 131 179 230 287 346 408
#     4  12  24  46  71  98 134 182 238 289 342 412
#     4  11  23  44  65  98 136 173 225 285 332 420
#     4  11  23  42  67  94 133 177 229 280 340 412
#     4  10  21  39  69 102 135 170 220 279 342 418
#     4  12  28  48  70 100 142 176 240 302 334 412
#     4  10  22  40  60  94 134 168 215 282 341 405
#     4  12  25  44  68  99 137 185 228 281 349 410
#
# _framework density 19.834921000000001
#
# number of rings (size 3 to 8) (size 9 to 14) (size 15 to 20)
#    0.000    0.966    6.897    0.414    2.897    3.586 
#    2.483    0.000    0.000    0.000    0.000    0.000 
#    0.000    0.000    0.000    0.000    0.000    0.000 
#
# Total GULP energy -323635.174929 kJ/mol
# GULP energy per Si atom -5579.916809 kJ/mol
# Density = 1.978978 g / cm^3
# Si number density = 19.834921 Si / 1000 Ang^3
#
#
#
# Elastic Constant Matrix: (Units=GPa)
#
#
# Indices 1 2 3 4 5 6 
#
# 1 54.1745 40.6284 42.5870 0.0000 0.0000 0.0000
# 2 40.6284 101.1110 34.2230 0.0000 0.0000 0.0000
# 3 42.5870 34.2230 95.0837 0.0000 0.0000 0.0000
# 4 0.0000 0.0000 0.0000 14.8844 0.0000 0.0000
# 5 0.0000 0.0000 0.0000 0.0000 1.7126 0.0000
# 6 0.0000 0.0000 0.0000 0.0000 0.0000 39.5706
#
#
#
# Elastic Compliance Matrix: (Units=1/GPa)
#
#
# Indices 1 2 3 4 5 6 
#
# 1 0.035854 -0.010216 -0.012381 0.000000 0.000000 0.000000
# 2 -0.010216 0.014173 -0.000526 0.000000 0.000000 0.000000
# 3 -0.012381 -0.000526 0.016252 0.000000 0.000000 0.000000
# 4 0.000000 0.000000 0.000000 0.067184 0.000000 0.000000
# 5 0.000000 0.000000 0.000000 0.000000 0.583892 0.000000
# 6 0.000000 0.000000 0.000000 0.000000 0.000000 0.025271
#
#
# Mechanical properties :
#
#
# Convention : Reuss Voigt Hill
#
# Bulk Modulus (GPa) = 49.91937 53.91622 51.91779
# Shear Modulus (GPa) = 6.28496 20.09558 13.19027
#
# Velocity S-wave (km/s) = 1.78200 3.18644 2.58156
# Velocity P-wave (km/s) = 5.42734 6.38587 5.92602
#
# Compressibility (1/GPa) = 0.02003230
#
# Stress axis : x y z
#
# Youngs Moduli (GPa) = 27.89127 70.55681 61.53180
#
# Poissons Ratio (x) = 0.72080 0.76185
# Poissons Ratio (y) = 0.28493 0.03234
# Poissons Ratio (z) = 0.34533 0.03709
#
# Static dielectric constant tensor:
#      x y z
#    x 1.684320 0.000000 0.000000 
#    y 0.000000 1.699340 0.000000 
#    z 0.000000 0.000000 1.705460 
# 
# From -- ./inp_files/45925.got.cif
#   From: 2010.05.17/outbox.cif.g08.bks.cpg/sg63_23_cif.got.tgz:45925.got - 2010.06.03 15:47:04.
