data_PCOD9474444
_publ_section_title
;
Structure prediction by ZEFSAII (Michael W. Deem and Ramdas Pophale) SiO2 
 PCOD9474444
Probable space group: C M C M
;
_chemical_formula_sum "Si O2"
_cell_formula_units_Z 72
_cell_length_a 16.564663
_cell_length_b 28.064827
_cell_length_c 8.656651
_cell_angle_alpha 90.000000
_cell_angle_beta 90.000000
_cell_angle_gamma 90.000000
_cell_volume 4024.342018
_symmetry_space_group_name_H-M "C M C M"
_symmetry_group_IT_number 63
_symmetry_cell_setting 'orthorhombic'
loop_
_space_group_symop_operation_xyz
x,y,z
-x,-y,1/2+z
x,-y,-z
-x,y,1/2-z
-x,-y,-z
x,y,1/2-z
-x,y,z
x,-y,1/2+z
1/2+x,1/2+y,z
1/2-x,1/2-y,1/2+z
1/2+x,1/2-y,-z
1/2-x,1/2+y,1/2-z
1/2-x,1/2-y,-z
1/2+x,1/2+y,1/2-z
1/2-x,1/2+y,z
1/2+x,1/2-y,1/2+z
loop_
_atom_site_type_symbol
_atom_site_label
_atom_site_fract_x
_atom_site_fract_y
_atom_site_fract_z
Si Si1 0.183052 0.948117 0.433443
Si Si2 0.159762 0.604587 0.064060
Si Si3 0.909513 0.137064 0.064432
Si Si4 0.000000 0.445805 0.434782
Si Si5 0.253795 0.697123 0.064498
O O1 0.193135 0.949488 0.250000
O O2 0.264649 0.927463 0.510476
O O3 0.112471 0.912017 0.481437
O O4 0.167182 0.000000 0.500000
O O5 0.153830 0.603191 0.250000
O O6 0.184822 0.658746 0.016989
O O7 0.078889 0.582854 0.992381
O O8 0.903291 0.129942 0.250000
O O9 0.839632 0.173911 0.019491
O O10 0.000000 0.153073 0.028810
O O11 0.000000 0.500000 0.500000
O O12 0.000000 0.448481 0.250000
O O13 0.250841 0.699386 0.250000
O O14 0.250000 0.750000 0.000000
#
# Coordination Sequence:
#
# PCOD9474444 Si02
#       5
#    16  16  16   8  16
#     4  11  21  34  54  80 110 145 185 224 271 327
#     4  10  21  39  58  80 113 150 189 233 281 334
#     4   9  19  37  57  78 107 142 182 226 274 325
#     4  12  24  38  58  86 118 154 192 238 289 342
#     4   9  19  36  59  82 109 144 182 228 282 332
#
# _framework density 17.891123
#
# number of rings (size 3 to 8) (size 9 to 14) (size 15 to 20)
#    0.000    2.000    0.000    5.667    0.000    5.333 
#    2.000    0.000    0.000    0.000    0.000    0.000 
#    0.000    0.000    0.000    0.000    0.000    0.000 
#
# Total GULP energy -200930.978447 kJ/mol
# GULP energy per Si atom -5581.416068 kJ/mol
# Density = 1.785040 g / cm^3
# Si number density = 17.891123 Si / 1000 Ang^3
#
#
#
# Elastic Constant Matrix: (Units=GPa)
#
#
# Indices 1 2 3 4 5 6 
#
# 1 119.1425 67.7599 41.8051 0.0000 0.0000 0.0000
# 2 67.7599 175.6620 49.3599 0.0000 0.0000 0.0000
# 3 41.8051 49.3599 73.3715 0.0000 0.0000 0.0000
# 4 0.0000 0.0000 0.0000 35.7740 0.0000 0.0000
# 5 0.0000 0.0000 0.0000 0.0000 28.9620 0.0000
# 6 0.0000 0.0000 0.0000 0.0000 0.0000 12.4074
#
#
#
# Elastic Compliance Matrix: (Units=1/GPa)
#
#
# Indices 1 2 3 4 5 6 
#
# 1 0.011863 -0.003301 -0.004539 0.000000 0.000000 0.000000
# 2 -0.003301 0.007938 -0.003460 0.000000 0.000000 0.000000
# 3 -0.004539 -0.003460 0.018543 0.000000 0.000000 0.000000
# 4 0.000000 0.000000 0.000000 0.027953 0.000000 0.000000
# 5 0.000000 0.000000 0.000000 0.000000 0.034528 0.000000
# 6 0.000000 0.000000 0.000000 0.000000 0.000000 0.080597
#
#
# Mechanical properties :
#
#
# Convention : Reuss Voigt Hill
#
# Bulk Modulus (GPa) = 63.50907 76.22507 69.86707
# Shear Modulus (GPa) = 23.89270 29.37876 26.63573
#
# Velocity S-wave (km/s) = 3.65835 4.05666 3.86264
# Velocity P-wave (km/s) = 7.30885 8.03987 7.68306
#
# Compressibility (1/GPa) = 0.01574578
#
# Stress axis : x y z
#
# Youngs Moduli (GPa) = 84.29510 125.97474 53.92950
#
# Poissons Ratio (x) = 0.41581 0.24477
# Poissons Ratio (y) = 0.27823 0.18658
# Poissons Ratio (z) = 0.38259 0.43582
#
# Static dielectric constant tensor:
#      x y z
#    x 1.606630 0.000000 0.000000 
#    y 0.000000 1.617270 0.000000 
#    z 0.000000 0.000000 1.601070 
# 
# From -- ./inp_files/4599.got.cif
#   From: 2010.05.17/outbox.cif.g08.bks.cpg/sg63_3_cif.got.tgz:4599.got - 2010.06.03 15:47:04.
