data_PCOD9474428
_publ_section_title
;
Structure prediction by ZEFSAII (Michael W. Deem and Ramdas Pophale) SiO2 
 PCOD9474428
Probable space group: C M C M
;
_chemical_formula_sum "Si O2"
_cell_formula_units_Z 92
_cell_length_a 14.637422
_cell_length_b 15.338164
_cell_length_c 21.070102
_cell_angle_alpha 90.000000
_cell_angle_beta 90.000000
_cell_angle_gamma 90.000000
_cell_volume 4730.473445
_symmetry_space_group_name_H-M "C M C M"
_symmetry_group_IT_number 63
_symmetry_cell_setting 'orthorhombic'
loop_
_space_group_symop_operation_xyz
x,y,z
-x,-y,1/2+z
x,-y,-z
-x,y,1/2-z
-x,-y,-z
x,y,1/2-z
-x,y,z
x,-y,1/2+z
1/2+x,1/2+y,z
1/2-x,1/2-y,1/2+z
1/2+x,1/2-y,-z
1/2-x,1/2+y,1/2-z
1/2-x,1/2-y,-z
1/2+x,1/2+y,1/2-z
1/2-x,1/2+y,z
1/2+x,1/2-y,1/2+z
loop_
_atom_site_type_symbol
_atom_site_label
_atom_site_fract_x
_atom_site_fract_y
_atom_site_fract_z
Si Si1 0.500000 0.720917 0.750000
Si Si2 0.189927 0.564889 0.677518
Si Si3 0.500000 0.262881 0.940400
Si Si4 0.166885 0.787006 0.146735
Si Si5 0.678228 0.670208 0.995641
Si Si6 0.000000 0.405471 0.968909
Si Si7 0.000000 0.346933 0.174547
Si Si8 0.302185 0.100235 0.092635
O O1 0.418902 0.720243 0.693844
O O2 0.183830 0.534468 0.750000
O O3 0.257661 0.646722 0.673640
O O4 0.217336 0.484387 0.634079
O O5 0.090168 0.598814 0.657673
O O6 0.590438 0.312354 0.961572
O O7 0.500000 0.239980 0.866659
O O8 0.500000 0.171183 0.978918
O O9 0.208501 0.690791 0.131987
O O10 0.146010 0.829243 0.077173
O O11 0.738937 0.597445 0.029974
O O12 0.750000 0.750000 0.000000
O O13 0.908053 0.396895 0.928270
O O14 0.000000 0.500000 0.000000
O O15 0.000000 0.331545 0.250000
#
# Coordination Sequence:
#
# PCOD9474428 Si02
#       8
#     4  16   8  16  16   8   8  16
#     4  12  24  42  70  94 126 180 230 272 324 394
#     4  11  24  42  63  98 134 175 218 271 333 403
#     4  12  19  40  60  95 129 165 222 267 323 396
#     4  11  23  43  66  96 128 176 221 270 330 388
#     4  10  21  38  65  92 132 170 214 271 324 393
#     4  12  23  33  63 103 132 167 209 275 355 393
#     4  10  22  38  61  91 137 171 203 265 340 407
#     4  11  24  41  64 102 135 174 218 275 338 405
#
# _framework density 19.448370000000001
#
# number of rings (size 3 to 8) (size 9 to 14) (size 15 to 20)
#    0.000    1.043    4.348    4.696    3.652    0.000 
#    1.565    1.739    0.000    2.087    2.261    0.000 
#    0.000    0.000    0.000    0.000    0.000    0.000 
#
# Total GULP energy -256281.947123 kJ/mol
# GULP energy per Si atom -5571.346677 kJ/mol
# Density = 1.940410 g / cm^3
# Si number density = 19.448370 Si / 1000 Ang^3
#
#
#
# Elastic Constant Matrix: (Units=GPa)
#
#
# Indices 1 2 3 4 5 6 
#
# 1 91.8993 37.4085 28.3335 0.0000 0.0000 0.0000
# 2 37.4085 64.0158 28.7521 0.0000 0.0000 0.0000
# 3 28.3335 28.7521 109.4510 0.0000 0.0000 0.0000
# 4 0.0000 0.0000 0.0000 32.8693 0.0000 0.0000
# 5 0.0000 0.0000 0.0000 0.0000 25.2200 0.0000
# 6 0.0000 0.0000 0.0000 0.0000 0.0000 24.9100
#
#
#
# Elastic Compliance Matrix: (Units=1/GPa)
#
#
# Indices 1 2 3 4 5 6 
#
# 1 0.014564 -0.007729 -0.001740 0.000000 0.000000 0.000000
# 2 -0.007729 0.021813 -0.003729 0.000000 0.000000 0.000000
# 3 -0.001740 -0.003729 0.010567 0.000000 0.000000 0.000000
# 4 0.000000 0.000000 0.000000 0.030423 0.000000 0.000000
# 5 0.000000 0.000000 0.000000 0.000000 0.039651 0.000000
# 6 0.000000 0.000000 0.000000 0.000000 0.000000 0.040144
#
#
# Mechanical properties :
#
#
# Convention : Reuss Voigt Hill
#
# Bulk Modulus (GPa) = 48.66922 50.48381 49.57652
# Shear Modulus (GPa) = 26.25936 27.99134 27.12535
#
# Velocity S-wave (km/s) = 3.67851 3.79788 3.73867
# Velocity P-wave (km/s) = 6.56666 6.72652 6.64707
#
# Compressibility (1/GPa) = 0.02054687
#
# Stress axis : x y z
#
# Youngs Moduli (GPa) = 68.66159 45.84448 94.63859
#
# Poissons Ratio (x) = 0.35435 0.16465
# Poissons Ratio (y) = 0.53071 0.35293
# Poissons Ratio (z) = 0.11945 0.17096
#
# Static dielectric constant tensor:
#      x y z
#    x 1.664080 0.000000 0.000000 
#    y 0.000000 1.699050 0.000000 
#    z 0.000000 0.000000 1.741190 
# 
# From -- ./inp_files/54307.got.cif
#   From: 2010.05.17/outbox.cif.g08.bks.cpg/sg63_28_cif.got.tgz:54307.got - 2010.06.03 15:47:04.
