data_PCOD9474220
_publ_section_title
;
Structure prediction by ZEFSAII (Michael W. Deem and Ramdas Pophale) SiO2 
 PCOD9474220
Probable space group: C M C M
;
_chemical_formula_sum "Si O2"
_cell_formula_units_Z 68
_cell_length_a 17.040835
_cell_length_b 23.208922
_cell_length_c 8.518919
_cell_angle_alpha 90.000000
_cell_angle_beta 90.000000
_cell_angle_gamma 90.000000
_cell_volume 3369.227441
_symmetry_space_group_name_H-M "C M C M"
_symmetry_group_IT_number 63
_symmetry_cell_setting 'orthorhombic'
loop_
_space_group_symop_operation_xyz
x,y,z
-x,-y,1/2+z
x,-y,-z
-x,y,1/2-z
-x,-y,-z
x,y,1/2-z
-x,y,z
x,-y,1/2+z
1/2+x,1/2+y,z
1/2-x,1/2-y,1/2+z
1/2+x,1/2-y,-z
1/2-x,1/2+y,1/2-z
1/2-x,1/2-y,-z
1/2+x,1/2+y,1/2-z
1/2-x,1/2+y,z
1/2+x,1/2-y,1/2+z
loop_
_atom_site_type_symbol
_atom_site_label
_atom_site_fract_x
_atom_site_fract_y
_atom_site_fract_z
Si Si1 0.908351 0.828078 0.061127
Si Si2 0.862945 0.584958 0.065733
Si Si3 0.500000 0.000000 0.000000
Si Si4 0.405217 0.794902 0.068471
Si Si5 0.190845 0.939872 0.061511
O O1 0.904097 0.822537 0.250000
O O2 0.859334 0.884057 0.014272
O O3 0.000000 0.835525 0.018545
O O4 0.879343 0.768346 0.986703
O O5 0.874652 0.572709 0.250000
O O6 0.872456 0.652645 0.032471
O O7 0.777542 0.566254 0.009633
O O8 0.931028 0.549427 0.979588
O O9 0.383985 0.804246 0.250000
O O10 0.500000 0.795964 0.054362
O O11 0.195691 0.941332 0.250000
O O12 0.156298 0.000000 0.000000
#
# Coordination Sequence:
#
# PCOD9474220 Si02
#       5
#    16  16   4  16  16
#     4   9  20  41  66  90 120 159 204 250 303 361
#     4  12  25  41  64  90 124 165 204 249 301 359
#     4  12  26  40  64  94 124 164 212 244 294 360
#     4  10  21  37  61  92 124 158 203 254 302 357
#     4  11  24  41  62  90 124 160 201 253 305 361
#
# _framework density 20.182668
#
# number of rings (size 3 to 8) (size 9 to 14) (size 15 to 20)
#    0.000    1.412    2.353    2.471    0.000    7.059 
#    0.000    0.000    0.000    0.000    0.000    0.000 
#    0.000    0.000    0.000    0.000    0.000    0.000 
#
# Total GULP energy -189559.912284 kJ/mol
# GULP energy per Si atom -5575.291538 kJ/mol
# Density = 2.013673 g / cm^3
# Si number density = 20.182668 Si / 1000 Ang^3
#
#
#
# Elastic Constant Matrix: (Units=GPa)
#
#
# Indices 1 2 3 4 5 6 
#
# 1 50.2024 33.6484 4.4828 0.0000 0.0000 0.0000
# 2 33.6484 150.9527 10.5708 0.0000 0.0000 0.0000
# 3 4.4828 10.5708 20.7889 0.0000 0.0000 0.0000
# 4 0.0000 0.0000 0.0000 28.2012 0.0000 0.0000
# 5 0.0000 0.0000 0.0000 0.0000 13.8731 0.0000
# 6 0.0000 0.0000 0.0000 0.0000 0.0000 40.2679
#
#
#
# Elastic Compliance Matrix: (Units=1/GPa)
#
#
# Indices 1 2 3 4 5 6 
#
# 1 0.023542 -0.005073 -0.002497 0.000000 0.000000 0.000000
# 2 -0.005073 0.007962 -0.002955 0.000000 0.000000 0.000000
# 3 -0.002497 -0.002955 0.050144 0.000000 0.000000 0.000000
# 4 0.000000 0.000000 0.000000 0.035460 0.000000 0.000000
# 5 0.000000 0.000000 0.000000 0.000000 0.072082 0.000000
# 6 0.000000 0.000000 0.000000 0.000000 0.000000 0.024834
#
#
# Mechanical properties :
#
#
# Convention : Reuss Voigt Hill
#
# Bulk Modulus (GPa) = 16.50197 35.48309 25.99253
# Shear Modulus (GPa) = 19.58690 28.01790 23.80240
#
# Velocity S-wave (km/s) = 3.11863 3.72992 3.43789
# Velocity P-wave (km/s) = 4.60021 6.01406 5.35401
#
# Compressibility (1/GPa) = 0.06059883
#
# Stress axis : x y z
#
# Youngs Moduli (GPa) = 42.47645 125.59188 19.94273
#
# Poissons Ratio (x) = 0.63712 0.04980
# Poissons Ratio (y) = 0.21548 0.05893
# Poissons Ratio (z) = 0.10606 0.37110
#
# Static dielectric constant tensor:
#      x y z
#    x 1.684270 0.000000 0.000000 
#    y 0.000000 1.725840 0.000000 
#    z 0.000000 0.000000 1.725130 
# 
# From -- ./inp_files/5880.got.cif
#   From: 2010.05.17/outbox.cif.g08.bks.cpg/sg63_3_cif.got.tgz:5880.got - 2010.06.03 15:47:04.
