data_PCOD9474926
_publ_section_title
;
Structure prediction by ZEFSAII (Michael W. Deem and Ramdas Pophale) SiO2 
 PCOD9474926
Probable space group: C M C M
;
_chemical_formula_sum "Si O2"
_cell_formula_units_Z 64
_cell_length_a 20.584204
_cell_length_b 10.545621
_cell_length_c 14.172112
_cell_angle_alpha 90.000000
_cell_angle_beta 90.000000
_cell_angle_gamma 90.000000
_cell_volume 3076.385901
_symmetry_space_group_name_H-M "C M C M"
_symmetry_group_IT_number 63
_symmetry_cell_setting 'orthorhombic'
loop_
_space_group_symop_operation_xyz
x,y,z
-x,-y,1/2+z
x,-y,-z
-x,y,1/2-z
-x,-y,-z
x,y,1/2-z
-x,y,z
x,-y,1/2+z
1/2+x,1/2+y,z
1/2-x,1/2-y,1/2+z
1/2+x,1/2-y,-z
1/2-x,1/2+y,1/2-z
1/2-x,1/2-y,-z
1/2+x,1/2+y,1/2-z
1/2-x,1/2+y,z
1/2+x,1/2-y,1/2+z
loop_
_atom_site_type_symbol
_atom_site_label
_atom_site_fract_x
_atom_site_fract_y
_atom_site_fract_z
Si Si1 0.702958 0.499791 0.636067
Si Si2 0.073971 0.141088 0.637812
Si Si3 0.574295 0.149241 0.518505
Si Si4 0.802373 0.283257 0.363836
O O1 0.705055 0.499749 0.750000
O O2 0.629868 0.541832 0.610607
O O3 0.753261 0.606879 0.604853
O O4 0.719449 0.357509 0.606460
O O5 0.080689 0.167813 0.750000
O O6 0.083303 0.267839 0.576422
O O7 0.000000 0.095136 0.621897
O O8 0.500000 0.170515 0.550460
O O9 0.627125 0.192817 0.593411
O O10 0.582323 0.000000 0.500000
O O11 0.805173 0.285937 0.250000
#
# Coordination Sequence:
#
# PCOD9474926 Si02
#       4
#    16  16  16  16
#     4   9  20  38  61  91 121 154 201 244 292 361
#     4   9  19  38  62  84 114 156 199 248 299 349
#     4  10  23  40  58  89 123 155 204 248 292 361
#     4  10  22  40  62  89 123 159 195 246 300 350
#
# _framework density 20.803633000000001
#
# number of rings (size 3 to 8) (size 9 to 14) (size 15 to 20)
#    0.000    2.500    0.000    0.000    3.500    4.500 
#    0.000    7.500    0.000    0.000    0.000    0.000 
#    0.000    0.000    0.000    0.000    0.000    0.000 
#
# Total GULP energy -178814.378206 kJ/mol
# GULP energy per Si atom -5587.949319 kJ/mol
# Density = 2.075628 g / cm^3
# Si number density = 20.803633 Si / 1000 Ang^3
#
#
#
# Elastic Constant Matrix: (Units=GPa)
#
#
# Indices 1 2 3 4 5 6 
#
# 1 114.0955 88.6158 42.0615 0.0000 0.0000 0.0000
# 2 88.6158 163.5752 23.6062 0.0000 0.0000 0.0000
# 3 42.0615 23.6062 85.7568 0.0000 0.0000 0.0000
# 4 0.0000 0.0000 0.0000 18.2983 0.0000 0.0000
# 5 0.0000 0.0000 0.0000 0.0000 26.1888 0.0000
# 6 0.0000 0.0000 0.0000 0.0000 0.0000 33.0867
#
#
#
# Elastic Compliance Matrix: (Units=1/GPa)
#
#
# Indices 1 2 3 4 5 6 
#
# 1 0.017959 -0.008808 -0.006384 0.000000 0.000000 0.000000
# 2 -0.008808 0.010686 0.001378 0.000000 0.000000 0.000000
# 3 -0.006384 0.001378 0.014413 0.000000 0.000000 0.000000
# 4 0.000000 0.000000 0.000000 0.054650 0.000000 0.000000
# 5 0.000000 0.000000 0.000000 0.000000 0.038184 0.000000
# 6 0.000000 0.000000 0.000000 0.000000 0.000000 0.030224
#
#
# Mechanical properties :
#
#
# Convention : Reuss Voigt Hill
#
# Bulk Modulus (GPa) = 64.80431 74.66605 69.73518
# Shear Modulus (GPa) = 25.14012 29.45769 27.29890
#
# Velocity S-wave (km/s) = 3.48005 3.76704 3.62638
# Velocity P-wave (km/s) = 6.88228 7.40875 7.15036
#
# Compressibility (1/GPa) = 0.01543107
#
# Stress axis : x y z
#
# Youngs Moduli (GPa) = 55.68277 93.57993 69.38407
#
# Poissons Ratio (x) = 0.82424 0.44294
# Poissons Ratio (y) = 0.49044 -0.09564
# Poissons Ratio (z) = 0.35547 -0.12900
#
# Static dielectric constant tensor:
#      x y z
#    x 1.724250 0.000000 0.000000 
#    y 0.000000 1.725810 0.000000 
#    z 0.000000 0.000000 1.739570 
# 
# From -- ./inp_files/33343.got.cif
#   From: 2010.05.17/outbox.cif.g08.bks.cpg/sg63_17_cif.got.tgz:33343.got - 2010.06.03 15:47:04.
