data_PCOD9474963
_publ_section_title
;
Structure prediction by ZEFSAII (Michael W. Deem and Ramdas Pophale) SiO2 
 PCOD9474963
Probable space group: C M C M
;
_chemical_formula_sum "Si O2"
_cell_formula_units_Z 112
_cell_length_a 23.535578
_cell_length_b 15.323929
_cell_length_c 14.768942
_cell_angle_alpha 90.000000
_cell_angle_beta 90.000000
_cell_angle_gamma 90.000000
_cell_volume 5326.530087
_symmetry_space_group_name_H-M "C M C M"
_symmetry_group_IT_number 63
_symmetry_cell_setting 'orthorhombic'
loop_
_space_group_symop_operation_xyz
x,y,z
-x,-y,1/2+z
x,-y,-z
-x,y,1/2-z
-x,-y,-z
x,y,1/2-z
-x,y,z
x,-y,1/2+z
1/2+x,1/2+y,z
1/2-x,1/2-y,1/2+z
1/2+x,1/2-y,-z
1/2-x,1/2+y,1/2-z
1/2-x,1/2-y,-z
1/2+x,1/2+y,1/2-z
1/2-x,1/2+y,z
1/2+x,1/2-y,1/2+z
loop_
_atom_site_type_symbol
_atom_site_label
_atom_site_fract_x
_atom_site_fract_y
_atom_site_fract_z
Si Si1 0.435974 0.026483 0.105478
Si Si2 0.844978 0.142731 0.548391
Si Si3 0.379734 0.851156 0.151966
Si Si4 0.437389 0.473604 0.356296
Si Si5 0.109607 0.159344 0.352082
Si Si6 0.656987 0.176476 0.356524
Si Si7 0.219304 0.603049 0.514307
O O1 0.500000 0.054092 0.128180
O O2 0.390838 0.101801 0.128164
O O3 0.419313 0.935367 0.151024
O O4 0.433581 0.000000 0.000000
O O5 0.886916 0.069074 0.586816
O O6 0.851173 0.150090 0.440021
O O7 0.861394 0.231753 0.599663
O O8 0.778737 0.122794 0.562237
O O9 0.350364 0.848363 0.250000
O O10 0.411978 0.759043 0.141616
O O11 0.332672 0.862891 0.075036
O O12 0.431064 0.449777 0.250000
O O13 0.500000 0.445238 0.387558
O O14 0.433119 0.578573 0.360536
O O15 0.134802 0.150118 0.250000
O O16 0.668103 0.184640 0.250000
O O17 0.711122 0.147319 0.416344
O O18 0.213828 0.500000 0.500000
#
# Coordination Sequence:
#
# PCOD9474963 Si02
#       7
#    16  16  16  16  16  16  16
#     4  11  22  42  70  99 136 179 224 275 334 402
#     4  12  25  44  67  98 136 177 227 278 336 403
#     4  11  22  40  65  96 135 174 217 273 334 395
#     4  10  23  45  70  99 136 177 226 281 337 400
#     4  10  22  40  65  96 131 174 226 277 334 397
#     4  12  25  43  66  97 137 180 226 278 339 406
#     4  12  24  44  67  97 135 177 223 281 336 401
#
# _framework density 21.026821999999999
#
# number of rings (size 3 to 8) (size 9 to 14) (size 15 to 20)
#    0.000    0.857    4.286    2.571    0.000    5.143 
#    0.000    1.429    0.000    0.000    0.000    0.000 
#    0.000    0.000    0.000    0.000    0.000    0.000 
#
# Total GULP energy -312708.595770 kJ/mol
# GULP energy per Si atom -5584.082067 kJ/mol
# Density = 2.097896 g / cm^3
# Si number density = 21.026822 Si / 1000 Ang^3
#
#
#
# Elastic Constant Matrix: (Units=GPa)
#
#
# Indices 1 2 3 4 5 6 
#
# 1 98.5299 42.0077 26.0649 0.0000 0.0000 0.0000
# 2 42.0077 144.8135 32.4160 0.0000 0.0000 0.0000
# 3 26.0649 32.4160 128.3905 0.0000 0.0000 0.0000
# 4 0.0000 0.0000 0.0000 31.3769 0.0000 0.0000
# 5 0.0000 0.0000 0.0000 0.0000 15.7091 0.0000
# 6 0.0000 0.0000 0.0000 0.0000 0.0000 4.8528
#
#
#
# Elastic Compliance Matrix: (Units=1/GPa)
#
#
# Indices 1 2 3 4 5 6 
#
# 1 0.011897 -0.003085 -0.001636 0.000000 0.000000 0.000000
# 2 -0.003085 0.008119 -0.001424 0.000000 0.000000 0.000000
# 3 -0.001636 -0.001424 0.008480 0.000000 0.000000 0.000000
# 4 0.000000 0.000000 0.000000 0.031871 0.000000 0.000000
# 5 0.000000 0.000000 0.000000 0.000000 0.063657 0.000000
# 6 0.000000 0.000000 0.000000 0.000000 0.000000 0.206068
#
#
# Mechanical properties :
#
#
# Convention : Reuss Voigt Hill
#
# Bulk Modulus (GPa) = 61.70239 63.63459 62.66849
# Shear Modulus (GPa) = 14.37670 28.47079 21.42374
#
# Velocity S-wave (km/s) = 2.61766 3.68370 3.19545
# Velocity P-wave (km/s) = 6.20842 6.95860 6.59419
#
# Compressibility (1/GPa) = 0.01620683
#
# Stress axis : x y z
#
# Youngs Moduli (GPa) = 84.05254 123.16836 117.91918
#
# Poissons Ratio (x) = 0.37996 0.19297
# Poissons Ratio (y) = 0.25929 0.16787
# Poissons Ratio (z) = 0.13755 0.17534
#
# Static dielectric constant tensor:
#      x y z
#    x 1.716120 0.000000 0.000000 
#    y 0.000000 1.764860 0.000000 
#    z 0.000000 0.000000 1.825910 
# 
# From -- ./inp_files/36877.got.cif
#   From: 2010.05.17/outbox.cif.g08.bks.cpg/sg63_19_cif.got.tgz:36877.got - 2010.06.03 15:47:04.
