data_PCOD9474405
_publ_section_title
;
Structure prediction by ZEFSAII (Michael W. Deem and Ramdas Pophale) SiO2 
 PCOD9474405
Probable space group: C M C M
;
_chemical_formula_sum "Si O2"
_cell_formula_units_Z 96
_cell_length_a 20.633553
_cell_length_b 14.682333
_cell_length_c 16.854003
_cell_angle_alpha 90.000000
_cell_angle_beta 90.000000
_cell_angle_gamma 90.000000
_cell_volume 5105.898233
_symmetry_space_group_name_H-M "C M C M"
_symmetry_group_IT_number 63
_symmetry_cell_setting 'orthorhombic'
loop_
_space_group_symop_operation_xyz
x,y,z
-x,-y,1/2+z
x,-y,-z
-x,y,1/2-z
-x,-y,-z
x,y,1/2-z
-x,y,z
x,-y,1/2+z
1/2+x,1/2+y,z
1/2-x,1/2-y,1/2+z
1/2+x,1/2-y,-z
1/2-x,1/2+y,1/2-z
1/2-x,1/2-y,-z
1/2+x,1/2+y,1/2-z
1/2-x,1/2+y,z
1/2+x,1/2-y,1/2+z
loop_
_atom_site_type_symbol
_atom_site_label
_atom_site_fract_x
_atom_site_fract_y
_atom_site_fract_z
Si Si1 0.361951 0.142369 0.095321
Si Si2 0.720630 0.353162 0.658194
Si Si3 0.572719 0.321110 0.345432
Si Si4 0.197736 0.938278 0.154343
Si Si5 0.424795 0.959210 0.156020
Si Si6 0.679321 0.168362 0.585281
O O1 0.298441 0.150558 0.150339
O O2 0.409795 0.224662 0.115848
O O3 0.396130 0.046286 0.110455
O O4 0.336057 0.151604 0.006284
O O5 0.702682 0.337293 0.750000
O O6 0.699960 0.454946 0.634622
O O7 0.690828 0.273832 0.604908
O O8 0.574653 0.309658 0.250000
O O9 0.500000 0.350239 0.367192
O O10 0.629465 0.391872 0.366096
O O11 0.207628 0.930457 0.250000
O O12 0.256072 0.885455 0.111841
O O13 0.420142 0.977799 0.250000
O O14 0.500000 0.944810 0.135753
O O15 0.380295 0.873683 0.134283
#
# Coordination Sequence:
#
# PCOD9474405 Si02
#       6
#    16  16  16  16  16  16
#     4  12  23  36  60  95 124 155 200 258 314 362
#     4  11  22  38  62  90 120 157 205 253 298 363
#     4  10  21  39  63  89 120 160 206 255 306 362
#     4  10  21  38  63  90 120 161 209 256 298 360
#     4  11  24  42  64  90 124 167 209 250 306 376
#     4  12  24  39  60  92 128 161 198 252 316 369
#
# _framework density 18.801784000000001
#
# number of rings (size 3 to 8) (size 9 to 14) (size 15 to 20)
#    0.000    1.000    3.333    4.500    0.000    3.333 
#    0.000    0.833    0.000    4.000    0.000    0.000 
#    0.000    0.000    0.000    0.000    0.000    0.000 
#
# Total GULP energy -268451.475388 kJ/mol
# GULP energy per Si atom -5592.739071 kJ/mol
# Density = 1.875899 g / cm^3
# Si number density = 18.801784 Si / 1000 Ang^3
#
#
#
# Elastic Constant Matrix: (Units=GPa)
#
#
# Indices 1 2 3 4 5 6 
#
# 1 138.8968 52.5810 31.8525 0.0000 0.0000 0.0000
# 2 52.5810 93.6703 23.5692 0.0000 0.0000 0.0000
# 3 31.8525 23.5692 38.0082 0.0000 0.0000 0.0000
# 4 0.0000 0.0000 0.0000 -7.0338 0.0000 0.0000
# 5 0.0000 0.0000 0.0000 0.0000 7.8777 0.0000
# 6 0.0000 0.0000 0.0000 0.0000 0.0000 23.0894
#
#
#
# Elastic Compliance Matrix: (Units=1/GPa)
#
#
# Indices 1 2 3 4 5 6 
#
# 1 0.010145 -0.004213 -0.005890 0.000000 0.000000 0.000000
# 2 -0.004213 0.014399 -0.005398 0.000000 0.000000 0.000000
# 3 -0.005890 -0.005398 0.034593 0.000000 0.000000 0.000000
# 4 0.000000 0.000000 0.000000 -0.142170 0.000000 0.000000
# 5 0.000000 0.000000 0.000000 0.000000 0.126941 0.000000
# 6 0.000000 0.000000 0.000000 0.000000 0.000000 0.043310
#
#
# Mechanical properties :
#
#
# Convention : Reuss Voigt Hill
#
# Bulk Modulus (GPa) = 35.54187 54.06452 44.80319
# Shear Modulus (GPa) = 39.18569 15.62484 27.40527
#
# Velocity S-wave (km/s) = 4.57020 2.88589 3.82198
# Velocity P-wave (km/s) = 6.84057 6.31838 6.58465
#
# Compressibility (1/GPa) = 0.02813583
#
# Stress axis : x y z
#
# Youngs Moduli (GPa) = 98.57020 69.44965 28.90735
#
# Poissons Ratio (x) = 0.29259 0.17025
# Poissons Ratio (y) = 0.41527 0.15605
# Poissons Ratio (z) = 0.58053 0.37491
#
# Static dielectric constant tensor:
#      x y z
#    x 1.634060 0.000000 0.000000 
#    y 0.000000 1.632320 0.000000 
#    z 0.000000 0.000000 1.652700 
# 
# From -- ./inp_files/35329.got.cif
#   From: 2010.05.17/outbox.cif.g08.bks.cpg/sg63_18_cif.got.tgz:35329.got - 2010.06.03 15:47:04.
