data_PCOD9474782
_publ_section_title
;
Structure prediction by ZEFSAII (Michael W. Deem and Ramdas Pophale) SiO2 
 PCOD9474782
Probable space group: C M C M
;
_chemical_formula_sum "Si O2"
_cell_formula_units_Z 96
_cell_length_a 17.998592
_cell_length_b 15.185356
_cell_length_c 19.662926
_cell_angle_alpha 90.000000
_cell_angle_beta 90.000000
_cell_angle_gamma 90.000000
_cell_volume 5374.173151
_symmetry_space_group_name_H-M "C M C M"
_symmetry_group_IT_number 63
_symmetry_cell_setting 'orthorhombic'
loop_
_space_group_symop_operation_xyz
x,y,z
-x,-y,1/2+z
x,-y,-z
-x,y,1/2-z
-x,-y,-z
x,y,1/2-z
-x,y,z
x,-y,1/2+z
1/2+x,1/2+y,z
1/2-x,1/2-y,1/2+z
1/2+x,1/2-y,-z
1/2-x,1/2+y,1/2-z
1/2-x,1/2-y,-z
1/2+x,1/2+y,1/2-z
1/2-x,1/2+y,z
1/2+x,1/2-y,1/2+z
loop_
_atom_site_type_symbol
_atom_site_label
_atom_site_fract_x
_atom_site_fract_y
_atom_site_fract_z
Si Si1 0.196193 0.774963 0.563951
Si Si2 0.914065 0.938727 0.933695
Si Si3 0.413127 0.074208 0.099147
Si Si4 0.587412 0.884590 0.438257
Si Si5 0.412692 0.406445 0.330995
Si Si6 0.675012 0.228532 0.169142
O O1 0.250000 0.750000 0.500000
O O2 0.146212 0.862290 0.555386
O O3 0.138420 0.697072 0.577102
O O4 0.248931 0.781784 0.628857
O O5 0.000000 0.906256 0.924078
O O6 0.894251 0.004697 0.871768
O O7 0.914545 0.000000 0.000000
O O8 0.500000 0.074121 0.115872
O O9 0.373320 0.145235 0.145317
O O10 0.386882 0.973046 0.100381
O O11 0.406364 0.100312 0.019641
O O12 0.500000 0.870925 0.423934
O O13 0.404263 0.419157 0.250000
O O14 0.500000 0.387630 0.344928
O O15 0.365247 0.320551 0.351232
O O16 0.683499 0.229301 0.250000
#
# Coordination Sequence:
#
# PCOD9474782 Si02
#       6
#    16  16  16  16  16  16
#     4  12  23  37  56  84 118 157 188 234 291 353
#     4  10  22  38  59  85 110 144 194 244 287 336
#     4   9  18  35  60  86 112 148 193 241 291 340
#     4   9  19  37  60  84 111 148 196 244 286 335
#     4   9  19  38  61  83 112 151 194 240 288 339
#     4  11  23  37  56  88 123 156 191 236 295 350
#
# _framework density 17.863212999999998
#
# number of rings (size 3 to 8) (size 9 to 14) (size 15 to 20)
#    0.000    2.000    1.667    3.000    0.000    4.333 
#    0.000    2.500    0.000    2.500    0.000    0.000 
#    0.000    0.000    0.000    0.000    0.000    0.000 
#
# Total GULP energy -267765.480117 kJ/mol
# GULP energy per Si atom -5578.447502 kJ/mol
# Density = 1.782256 g / cm^3
# Si number density = 17.863213 Si / 1000 Ang^3
#
#
#
# Elastic Constant Matrix: (Units=GPa)
#
#
# Indices 1 2 3 4 5 6 
#
# 1 87.0075 83.9541 42.2459 0.0000 0.0000 0.0000
# 2 83.9541 138.7609 46.4067 0.0000 0.0000 0.0000
# 3 42.2459 46.4067 54.7072 0.0000 0.0000 0.0000
# 4 0.0000 0.0000 0.0000 31.8954 0.0000 0.0000
# 5 0.0000 0.0000 0.0000 0.0000 14.1935 0.0000
# 6 0.0000 0.0000 0.0000 0.0000 0.0000 -13.2566
#
#
#
# Elastic Compliance Matrix: (Units=1/GPa)
#
#
# Indices 1 2 3 4 5 6 
#
# 1 0.032165 -0.015571 -0.011629 0.000000 0.000000 0.000000
# 2 -0.015571 0.017599 -0.002904 0.000000 0.000000 0.000000
# 3 -0.011629 -0.002904 0.029723 0.000000 0.000000 0.000000
# 4 0.000000 0.000000 0.000000 0.031353 0.000000 0.000000
# 5 0.000000 0.000000 0.000000 0.000000 0.070455 0.000000
# 6 0.000000 0.000000 0.000000 0.000000 0.000000 -0.075434
#
#
# Mechanical properties :
#
#
# Convention : Reuss Voigt Hill
#
# Bulk Modulus (GPa) = 51.87575 69.52100 60.69837
# Shear Modulus (GPa) = 28.98623 13.75771 21.37197
#
# Velocity S-wave (km/s) = 4.03262 2.77820 3.46269
# Velocity P-wave (km/s) = 7.12645 7.02099 7.07391
#
# Compressibility (1/GPa) = 0.01927683
#
# Stress axis : x y z
#
# Youngs Moduli (GPa) = 31.09016 56.82171 33.64352
#
# Poissons Ratio (x) = 0.88477 0.39126
# Poissons Ratio (y) = 0.48411 0.09772
# Poissons Ratio (z) = 0.36156 0.16504
#
# Static dielectric constant tensor:
#      x y z
#    x 1.599010 0.000000 0.000000 
#    y 0.000000 1.636820 0.000000 
#    z 0.000000 0.000000 1.583820 
# 
# From -- ./inp_files/54138.got.cif
#   From: 2010.05.17/outbox.cif.g08.bks.cpg/sg63_28_cif.got.tgz:54138.got - 2010.06.03 15:47:04.
