data_PCOD9474310
_publ_section_title
;
Structure prediction by ZEFSAII (Michael W. Deem and Ramdas Pophale) SiO2 
 PCOD9474310
Probable space group: C M C M
;
_chemical_formula_sum "Si O2"
_cell_formula_units_Z 116
_cell_length_a 9.255748
_cell_length_b 25.654156
_cell_length_c 26.383499
_cell_angle_alpha 90.000000
_cell_angle_beta 90.000000
_cell_angle_gamma 90.000000
_cell_volume 6264.719705
_symmetry_space_group_name_H-M "C M C M"
_symmetry_group_IT_number 63
_symmetry_cell_setting 'orthorhombic'
loop_
_space_group_symop_operation_xyz
x,y,z
-x,-y,1/2+z
x,-y,-z
-x,y,1/2-z
-x,-y,-z
x,y,1/2-z
-x,y,z
x,-y,1/2+z
1/2+x,1/2+y,z
1/2-x,1/2-y,1/2+z
1/2+x,1/2-y,-z
1/2-x,1/2+y,1/2-z
1/2-x,1/2-y,-z
1/2+x,1/2+y,1/2-z
1/2-x,1/2+y,z
1/2+x,1/2-y,1/2+z
loop_
_atom_site_type_symbol
_atom_site_label
_atom_site_fract_x
_atom_site_fract_y
_atom_site_fract_z
Si Si1 0.175350 0.671677 0.130390
Si Si2 0.834924 0.257815 0.189395
Si Si3 0.252194 0.587927 0.508884
Si Si4 0.828561 0.201548 0.474004
Si Si5 0.166000 0.439334 0.603398
Si Si6 0.000000 0.000000 0.000000
Si Si7 0.832337 0.444341 0.118429
Si Si8 0.328410 0.636381 0.810671
O O1 0.241277 0.708235 0.173160
O O2 0.246412 0.693076 0.078969
O O3 0.224774 0.611122 0.132652
O O4 0.000000 0.673704 0.128721
O O5 0.841766 0.259519 0.250000
O O6 0.753966 0.310729 0.173286
O O7 0.000000 0.255415 0.169756
O O8 0.306446 0.647344 0.504400
O O9 0.170291 0.575240 0.456184
O O10 0.377072 0.545201 0.507917
O O11 0.171515 0.579220 0.561717
O O12 0.750000 0.250000 0.500000
O O13 0.000000 0.210444 0.467562
O O14 0.228634 0.496410 0.613800
O O15 0.000000 0.443806 0.618385
O O16 0.737573 0.410334 0.156568
O O17 0.000000 0.444512 0.135197
O O18 0.306043 0.628695 0.750000
O O19 0.500000 0.641549 0.819160
#
# Coordination Sequence:
#
# PCOD9474310 Si02
#       8
#    16  16  16  16  16   4  16  16
#     4  10  21  38  60  84 114 153 192 237 290 344
#     4  10  21  40  64  88 113 145 190 241 292 353
#     4  11  22  36  58  85 118 155 203 246 293 343
#     4  11  24  39  55  80 119 160 198 239 293 353
#     4   9  19  37  57  83 117 153 193 237 284 337
#     4  12  20  36  58  88 118 156 210 250 296 332
#     4  11  22  36  61  88 116 155 198 243 292 348
#     4  10  23  41  61  85 115 149 189 240 296 351
#
# _framework density 18.516392
#
# number of rings (size 3 to 8) (size 9 to 14) (size 15 to 20)
#    0.000    1.655    2.069    2.069    2.897    4.414 
#    0.000    0.690    0.000    4.138    0.000    0.000 
#    0.000    0.000    0.000    0.000    0.000    0.000 
#
# Total GULP energy -322921.576634 kJ/mol
# GULP energy per Si atom -5567.613390 kJ/mol
# Density = 1.847425 g / cm^3
# Si number density = 18.516392 Si / 1000 Ang^3
#
#
#
# Elastic Constant Matrix: (Units=GPa)
#
#
# Indices 1 2 3 4 5 6 
#
# 1 111.1487 58.2931 27.5601 0.0000 0.0000 0.0000
# 2 58.2931 149.2974 46.3175 0.0000 0.0000 0.0000
# 3 27.5601 46.3175 33.8495 0.0000 0.0000 0.0000
# 4 0.0000 0.0000 0.0000 30.3195 0.0000 0.0000
# 5 0.0000 0.0000 0.0000 0.0000 57.6765 0.0000
# 6 0.0000 0.0000 0.0000 0.0000 0.0000 25.8432
#
#
#
# Elastic Compliance Matrix: (Units=1/GPa)
#
#
# Indices 1 2 3 4 5 6 
#
# 1 0.011936 -0.002859 -0.005806 0.000000 0.000000 0.000000
# 2 -0.002859 0.012324 -0.014535 0.000000 0.000000 0.000000
# 3 -0.005806 -0.014535 0.054158 0.000000 0.000000 0.000000
# 4 0.000000 0.000000 0.000000 0.032982 0.000000 0.000000
# 5 0.000000 0.000000 0.000000 0.000000 0.017338 0.000000
# 6 0.000000 0.000000 0.000000 0.000000 0.000000 0.038695
#
#
# Mechanical properties :
#
#
# Convention : Reuss Voigt Hill
#
# Bulk Modulus (GPa) = 31.23248 62.07079 46.65163
# Shear Modulus (GPa) = 22.27108 33.57618 27.92363
#
# Velocity S-wave (km/s) = 3.47187 4.26293 3.88757
# Velocity P-wave (km/s) = 5.74247 7.60427 6.73799
#
# Compressibility (1/GPa) = 0.03201795
#
# Stress axis : x y z
#
# Youngs Moduli (GPa) = 83.77911 81.14439 18.46433
#
# Poissons Ratio (x) = 0.23201 0.10720
# Poissons Ratio (y) = 0.23955 0.26838
# Poissons Ratio (z) = 0.48642 1.17943
#
# Static dielectric constant tensor:
#      x y z
#    x 1.636200 0.000000 0.000000 
#    y 0.000000 1.660110 0.000000 
#    z 0.000000 0.000000 1.647770 
# 
# From -- ./inp_files/67456.got.cif
#   From: 2010.05.17/outbox.cif.g08.bks.cpg/sg63_34_cif.got.tgz:67456.got - 2010.06.03 15:47:04.
