data_PCOD9474245
_publ_section_title
;
Structure prediction by ZEFSAII (Michael W. Deem and Ramdas Pophale) SiO2 
 PCOD9474245
Probable space group: C M C M
;
_chemical_formula_sum "Si O2"
_cell_formula_units_Z 128
_cell_length_a 23.575061
_cell_length_b 13.257495
_cell_length_c 23.068826
_cell_angle_alpha 90.000000
_cell_angle_beta 90.000000
_cell_angle_gamma 90.000000
_cell_volume 7210.075135
_symmetry_space_group_name_H-M "C M C M"
_symmetry_group_IT_number 63
_symmetry_cell_setting 'orthorhombic'
loop_
_space_group_symop_operation_xyz
x,y,z
-x,-y,1/2+z
x,-y,-z
-x,y,1/2-z
-x,-y,-z
x,y,1/2-z
-x,y,z
x,-y,1/2+z
1/2+x,1/2+y,z
1/2-x,1/2-y,1/2+z
1/2+x,1/2-y,-z
1/2-x,1/2+y,1/2-z
1/2-x,1/2-y,-z
1/2+x,1/2+y,1/2-z
1/2-x,1/2+y,z
1/2+x,1/2-y,1/2+z
loop_
_atom_site_type_symbol
_atom_site_label
_atom_site_fract_x
_atom_site_fract_y
_atom_site_fract_z
Si Si1 0.935267 0.980335 0.066334
Si Si2 0.287295 0.320588 0.817831
Si Si3 0.935157 0.385287 0.482806
Si Si4 0.279640 0.392641 0.025422
Si Si5 0.335539 0.473239 0.357961
Si Si6 0.061306 0.255584 0.901278
Si Si7 0.170525 0.264385 0.436959
Si Si8 0.659066 0.744116 0.813898
O O1 0.893717 0.020801 0.116334
O O2 0.935765 0.860344 0.077788
O O3 0.000000 0.981599 0.928778
O O4 0.916696 0.000000 0.000000
O O5 0.302531 0.300602 0.750000
O O6 0.297230 0.439052 0.831255
O O7 0.320874 0.265158 0.869792
O O8 0.222142 0.285249 0.825438
O O9 0.919820 0.500000 0.500000
O O10 0.937143 0.324474 0.542724
O O11 0.887531 0.325795 0.446453
O O12 0.000000 0.385412 0.458519
O O13 0.310429 0.419159 0.085104
O O14 0.223462 0.331785 0.041689
O O15 0.262846 0.500000 0.000000
O O16 0.319720 0.332442 0.979785
O O17 0.343022 0.378092 0.316009
O O18 0.114134 0.279234 0.861020
O O19 0.000000 0.268322 0.871525
O O20 0.642575 0.778630 0.750000
#
# Coordination Sequence:
#
# PCOD9474245 Si02
#       8
#    16  16  16  16  16  16  16  16
#     4   9  18  31  52  83 115 144 173 215 275 342
#     4  11  24  38  54  79 114 158 197 231 272 330
#     4  10  22  39  60  85 114 146 183 233 293 345
#     4  11  21  33  57  91 116 144 179 236 299 346
#     4  11  20  35  56  80 115 147 184 231 282 335
#     4   9  19  35  57  85 113 140 180 229 280 341
#     4  11  22  36  58  84 116 149 190 235 285 347
#     4  10  21  38  56  77 111 151 191 230 277 326
#
# _framework density 17.752935000000001
#
# number of rings (size 3 to 8) (size 9 to 14) (size 15 to 20)
#    0.000    1.750    2.500    2.625    3.500    1.250 
#    0.000    0.000    0.000    2.625    0.000    1.750 
#    0.000    0.000    0.000    0.000    0.000    0.000 
#
# Total GULP energy -356783.535667 kJ/mol
# GULP energy per Si atom -5574.742745 kJ/mol
# Density = 1.771253 g / cm^3
# Si number density = 17.752935 Si / 1000 Ang^3
#
#
#
# Elastic Constant Matrix: (Units=GPa)
#
#
# Indices 1 2 3 4 5 6 
#
# 1 99.5241 33.7880 51.4317 0.0000 0.0000 0.0000
# 2 33.7880 54.0027 25.2532 0.0000 0.0000 0.0000
# 3 51.4317 25.2532 104.9904 0.0000 0.0000 0.0000
# 4 0.0000 0.0000 0.0000 18.7083 0.0000 0.0000
# 5 0.0000 0.0000 0.0000 0.0000 20.2257 0.0000
# 6 0.0000 0.0000 0.0000 0.0000 0.0000 70.6610
#
#
#
# Elastic Compliance Matrix: (Units=1/GPa)
#
#
# Indices 1 2 3 4 5 6 
#
# 1 0.015442 -0.006900 -0.005905 0.000000 0.000000 0.000000
# 2 -0.006900 0.023948 -0.002380 0.000000 0.000000 0.000000
# 3 -0.005905 -0.002380 0.012990 0.000000 0.000000 0.000000
# 4 0.000000 0.000000 0.000000 0.053452 0.000000 0.000000
# 5 0.000000 0.000000 0.000000 0.000000 0.049442 0.000000
# 6 0.000000 0.000000 0.000000 0.000000 0.000000 0.014152
#
#
# Mechanical properties :
#
#
# Convention : Reuss Voigt Hill
#
# Bulk Modulus (GPa) = 45.43507 53.27366 49.35436
# Shear Modulus (GPa) = 24.13917 31.78863 27.96390
#
# Velocity S-wave (km/s) = 3.69145 4.23615 3.97315
# Velocity P-wave (km/s) = 6.61949 7.34848 6.99349
#
# Compressibility (1/GPa) = 0.02200943
#
# Stress axis : x y z
#
# Youngs Moduli (GPa) = 64.75893 41.75745 76.98408
#
# Poissons Ratio (x) = 0.28814 0.45458
# Poissons Ratio (y) = 0.44686 0.18321
# Poissons Ratio (z) = 0.38239 0.09938
#
# Static dielectric constant tensor:
#      x y z
#    x 1.663530 0.000000 0.000000 
#    y 0.000000 1.627230 0.000000 
#    z 0.000000 0.000000 1.625010 
# 
# From -- ./inp_files/65190.got.cif
#   From: 2010.05.17/outbox.cif.g08.bks.cpg/sg63_33_cif.got.tgz:65190.got - 2010.06.03 15:47:04.
