data_PCOD9474104
_publ_section_title
;
Structure prediction by ZEFSAII (Michael W. Deem and Ramdas Pophale) SiO2 
 PCOD9474104
Probable space group: C M C M
;
_chemical_formula_sum "Si O2"
_cell_formula_units_Z 112
_cell_length_a 14.673723
_cell_length_b 24.502098
_cell_length_c 14.624337
_cell_angle_alpha 90.000000
_cell_angle_beta 90.000000
_cell_angle_gamma 90.000000
_cell_volume 5257.990237
_symmetry_space_group_name_H-M "C M C M"
_symmetry_group_IT_number 63
_symmetry_cell_setting 'orthorhombic'
loop_
_space_group_symop_operation_xyz
x,y,z
-x,-y,1/2+z
x,-y,-z
-x,y,1/2-z
-x,-y,-z
x,y,1/2-z
-x,y,z
x,-y,1/2+z
1/2+x,1/2+y,z
1/2-x,1/2-y,1/2+z
1/2+x,1/2-y,-z
1/2-x,1/2+y,1/2-z
1/2-x,1/2-y,-z
1/2+x,1/2+y,1/2-z
1/2-x,1/2+y,z
1/2+x,1/2-y,1/2+z
loop_
_atom_site_type_symbol
_atom_site_label
_atom_site_fract_x
_atom_site_fract_y
_atom_site_fract_z
Si Si1 0.603728 0.869841 0.860129
Si Si2 0.246785 0.215855 0.142582
Si Si3 0.799743 0.484192 0.894111
Si Si4 0.395877 0.649754 0.027235
Si Si5 0.900026 0.972069 0.900043
Si Si6 0.724428 0.345136 0.357706
Si Si7 0.399694 0.909035 0.145199
O O1 0.599132 0.869952 0.750000
O O2 0.500000 0.870130 0.894449
O O3 0.662028 0.816690 0.885768
O O4 0.659537 0.923957 0.886075
O O5 0.228243 0.203194 0.250000
O O6 0.260428 0.280352 0.135735
O O7 0.166624 0.193152 0.079476
O O8 0.696549 0.488913 0.856310
O O9 0.869124 0.528105 0.853413
O O10 0.793986 0.500000 0.000000
O O11 0.500000 0.667834 0.022271
O O12 0.356501 0.639413 0.925908
O O13 0.392232 0.592772 0.082232
O O14 0.000000 0.983414 0.857869
O O15 0.902462 0.000000 0.000000
O O16 0.709187 0.358869 0.250000
O O17 0.815178 0.375446 0.394098
O O18 0.405651 0.889747 0.250000
O O19 0.500000 0.903236 0.103447
#
# Coordination Sequence:
#
# PCOD9474104 Si02
#       7
#    16  16  16  16  16  16  16
#     4  10  21  37  57  83 119 160 198 244 302 361
#     4  10  22  41  62  87 122 160 202 251 304 362
#     4  11  20  34  57  86 121 154 195 246 299 363
#     4  11  22  39  62  89 120 156 204 253 300 359
#     4   9  18  33  55  81 115 159 198 243 301 356
#     4  10  22  41  63  88 122 160 201 253 307 361
#     4  10  22  39  59  85 118 158 200 245 304 369
#
# _framework density 21.300913999999999
#
# number of rings (size 3 to 8) (size 9 to 14) (size 15 to 20)
#    0.000    1.857    1.429    3.000    0.000    4.000 
#    0.000    2.857    0.000    2.571    0.000    4.000 
#    0.000    0.000    0.000    0.000    0.000    0.000 
#
# Total GULP energy -312791.047773 kJ/mol
# GULP energy per Si atom -5585.554425 kJ/mol
# Density = 2.125243 g / cm^3
# Si number density = 21.300914 Si / 1000 Ang^3
#
#
#
# Elastic Constant Matrix: (Units=GPa)
#
#
# Indices 1 2 3 4 5 6 
#
# 1 168.2049 11.8196 28.4624 0.0000 0.0000 0.0000
# 2 11.8196 60.2544 -7.4378 0.0000 0.0000 0.0000
# 3 28.4624 -7.4378 67.0968 0.0000 0.0000 0.0000
# 4 0.0000 0.0000 0.0000 17.3318 0.0000 0.0000
# 5 0.0000 0.0000 0.0000 0.0000 17.9785 0.0000
# 6 0.0000 0.0000 0.0000 0.0000 0.0000 11.0682
#
#
#
# Elastic Compliance Matrix: (Units=1/GPa)
#
#
# Indices 1 2 3 4 5 6 
#
# 1 0.006563 -0.001654 -0.002968 0.000000 0.000000 0.000000
# 2 -0.001654 0.017243 0.002613 0.000000 0.000000 0.000000
# 3 -0.002968 0.002613 0.016452 0.000000 0.000000 0.000000
# 4 0.000000 0.000000 0.000000 0.057697 0.000000 0.000000
# 5 0.000000 0.000000 0.000000 0.000000 0.055622 0.000000
# 6 0.000000 0.000000 0.000000 0.000000 0.000000 0.090349
#
#
# Mechanical properties :
#
#
# Convention : Reuss Voigt Hill
#
# Bulk Modulus (GPa) = 27.59207 40.13830 33.86518
# Shear Modulus (GPa) = 19.22892 26.78982 23.00937
#
# Velocity S-wave (km/s) = 3.00780 3.55023 3.29021
# Velocity P-wave (km/s) = 5.00441 5.97410 5.51063
#
# Compressibility (1/GPa) = 0.03624230
#
# Stress axis : x y z
#
# Youngs Moduli (GPa) = 152.35793 57.99364 60.78170
#
# Poissons Ratio (x) = 0.09591 0.18037
# Poissons Ratio (y) = 0.25197 -0.15882
# Poissons Ratio (z) = 0.45213 -0.15154
#
# Static dielectric constant tensor:
#      x y z
#    x 1.785110 0.000000 0.000000 
#    y 0.000000 1.734190 0.000000 
#    z 0.000000 0.000000 1.905880 
# 
# From -- ./inp_files/32280.got.cif
#   From: 2010.05.17/outbox.cif.g08.bks.cpg/sg63_17_cif.got.tgz:32280.got - 2010.06.03 15:47:04.
