data_PCOD9474913
_publ_section_title
;
Structure prediction by ZEFSAII (Michael W. Deem and Ramdas Pophale) SiO2 
 PCOD9474913
Probable space group: C M C M
;
_chemical_formula_sum "Si O2"
_cell_formula_units_Z 64
_cell_length_a 14.536032
_cell_length_b 12.131198
_cell_length_c 18.248246
_cell_angle_alpha 90.000000
_cell_angle_beta 90.000000
_cell_angle_gamma 90.000000
_cell_volume 3217.886253
_symmetry_space_group_name_H-M "C M C M"
_symmetry_group_IT_number 63
_symmetry_cell_setting 'orthorhombic'
loop_
_space_group_symop_operation_xyz
x,y,z
-x,-y,1/2+z
x,-y,-z
-x,y,1/2-z
-x,-y,-z
x,y,1/2-z
-x,y,z
x,-y,1/2+z
1/2+x,1/2+y,z
1/2-x,1/2-y,1/2+z
1/2+x,1/2-y,-z
1/2-x,1/2+y,1/2-z
1/2-x,1/2-y,-z
1/2+x,1/2+y,1/2-z
1/2-x,1/2+y,z
1/2+x,1/2-y,1/2+z
loop_
_atom_site_type_symbol
_atom_site_label
_atom_site_fract_x
_atom_site_fract_y
_atom_site_fract_z
Si Si1 0.891923 0.273259 0.578376
Si Si2 0.106470 0.015433 0.584947
Si Si3 0.282259 0.957845 0.663434
Si Si4 0.894353 0.601825 0.558077
O O1 0.834501 0.351730 0.631031
O O2 0.865356 0.295883 0.493172
O O3 0.000000 0.305818 0.582576
O O4 0.886194 0.146111 0.598770
O O5 0.177036 0.954454 0.637229
O O6 0.000000 0.981159 0.592687
O O7 0.133442 0.000000 0.500000
O O8 0.290872 0.964459 0.750000
O O9 0.328898 0.063520 0.623199
O O10 0.892295 0.500000 0.500000
O O11 0.000000 0.616317 0.582634
#
# Coordination Sequence:
#
# PCOD9474913 Si02
#       4
#    16  16  16  16
#     4   9  19  38  62  83 107 146 192 233 276 330
#     4  10  22  40  61  83 108 145 194 240 278 322
#     4  11  22  33  52  85 120 150 181 223 280 342
#     4   8  15  30  53  80 108 140 184 234 274 315
#
# _framework density 19.888833999999999
#
# number of rings (size 3 to 8) (size 9 to 14) (size 15 to 20)
#    0.000    2.500    0.000    4.500    0.000    7.500 
#    0.000    2.500    0.000    1.500    0.000   14.000 
#    0.000    0.000    0.000    0.000    0.000    0.000 
#
# Total GULP energy -178706.943225 kJ/mol
# GULP energy per Si atom -5584.591976 kJ/mol
# Density = 1.984357 g / cm^3
# Si number density = 19.888834 Si / 1000 Ang^3
#
#
#
# Elastic Constant Matrix: (Units=GPa)
#
#
# Indices 1 2 3 4 5 6 
#
# 1 81.1788 25.4391 66.8896 0.0000 0.0000 0.0000
# 2 25.4391 30.5991 15.2089 0.0000 0.0000 0.0000
# 3 66.8896 15.2089 138.6596 0.0000 0.0000 0.0000
# 4 0.0000 0.0000 0.0000 10.2695 0.0000 0.0000
# 5 0.0000 0.0000 0.0000 0.0000 -33.5733 0.0000
# 6 0.0000 0.0000 0.0000 0.0000 0.0000 21.6997
#
#
#
# Elastic Compliance Matrix: (Units=1/GPa)
#
#
# Indices 1 2 3 4 5 6 
#
# 1 0.026607 -0.016648 -0.011009 0.000000 0.000000 0.000000
# 2 -0.016648 0.044982 0.003097 0.000000 0.000000 0.000000
# 3 -0.011009 0.003097 0.012183 0.000000 0.000000 0.000000
# 4 0.000000 0.000000 0.000000 0.097376 0.000000 0.000000
# 5 0.000000 0.000000 0.000000 0.000000 -0.029786 0.000000
# 6 0.000000 0.000000 0.000000 0.000000 0.000000 0.046084
#
#
# Mechanical properties :
#
#
# Convention : Reuss Voigt Hill
#
# Bulk Modulus (GPa) = 28.85854 51.72362 40.29108
# Shear Modulus (GPa) = 19.37111 9.20582 14.28847
#
# Velocity S-wave (km/s) = 3.12423 2.15376 2.68324
# Velocity P-wave (km/s) = 5.24937 5.67871 5.46825
#
# Compressibility (1/GPa) = 0.03465179
#
# Stress axis : x y z
#
# Youngs Moduli (GPa) = 37.58449 22.23114 82.08170
#
# Poissons Ratio (x) = 0.37010 0.90364
# Poissons Ratio (y) = 0.62571 -0.25422
# Poissons Ratio (z) = 0.41377 -0.06885
#
# Static dielectric constant tensor:
#      x y z
#    x 1.731750 0.000000 0.000000 
#    y 0.000000 1.751110 0.000000 
#    z 0.000000 0.000000 1.666240 
# 
# From -- ./inp_files/43441.got.cif
#   From: 2010.05.17/outbox.cif.g08.bks.cpg/sg63_22_cif.got.tgz:43441.got - 2010.06.03 15:47:04.
