data_PCOD9474429
_publ_section_title
;
Structure prediction by ZEFSAII (Michael W. Deem and Ramdas Pophale) SiO2 
 PCOD9474429
Probable space group: C M C M
;
_chemical_formula_sum "Si O2"
_cell_formula_units_Z 96
_cell_length_a 14.891829
_cell_length_b 15.513461
_cell_length_c 19.818540
_cell_angle_alpha 90.000000
_cell_angle_beta 90.000000
_cell_angle_gamma 90.000000
_cell_volume 4578.554588
_symmetry_space_group_name_H-M "C M C M"
_symmetry_group_IT_number 63
_symmetry_cell_setting 'orthorhombic'
loop_
_space_group_symop_operation_xyz
x,y,z
-x,-y,1/2+z
x,-y,-z
-x,y,1/2-z
-x,-y,-z
x,y,1/2-z
-x,y,z
x,-y,1/2+z
1/2+x,1/2+y,z
1/2-x,1/2-y,1/2+z
1/2+x,1/2-y,-z
1/2-x,1/2+y,1/2-z
1/2-x,1/2-y,-z
1/2+x,1/2+y,1/2-z
1/2-x,1/2+y,z
1/2+x,1/2-y,1/2+z
loop_
_atom_site_type_symbol
_atom_site_label
_atom_site_fract_x
_atom_site_fract_y
_atom_site_fract_z
Si Si1 0.641136 0.925112 0.448936
Si Si2 0.397949 0.043111 0.329806
Si Si3 0.258197 0.193191 0.329409
Si Si4 0.899832 0.152575 0.675337
Si Si5 0.644341 0.416977 0.460028
Si Si6 0.099977 0.770980 0.935586
O O1 0.748115 0.919734 0.456839
O O2 0.606531 0.828627 0.458138
O O3 0.608616 0.000000 0.500000
O O4 0.616402 0.958813 0.374659
O O5 0.389948 0.026205 0.250000
O O6 0.500000 0.075728 0.341598
O O7 0.320611 0.111527 0.348522
O O8 0.232421 0.184775 0.250000
O O9 0.324308 0.275275 0.334293
O O10 0.175761 0.206930 0.380043
O O11 0.888429 0.114668 0.750000
O O12 0.890778 0.085214 0.615745
O O13 0.000000 0.191680 0.672519
O O14 0.611933 0.500000 0.500000
O O15 0.615636 0.331789 0.499988
O O16 0.000000 0.786632 0.908560
#
# Coordination Sequence:
#
# PCOD9474429 Si02
#       6
#    16  16  16  16  16  16
#     4  11  24  42  66  96 131 170 218 272 335 402
#     4  10  22  41  68 101 134 169 216 275 336 396
#     4  10  21  41  66  95 132 174 219 271 331 394
#     4  10  21  38  65  97 127 167 220 274 328 390
#     4  11  24  44  68  95 135 176 221 275 335 398
#     4  12  26  43  66  97 133 178 225 275 337 401
#
# _framework density 20.967316
#
# number of rings (size 3 to 8) (size 9 to 14) (size 15 to 20)
#    0.000    1.333    1.667    4.000    2.333    6.333 
#    0.000    0.833    0.000    0.000    0.000    0.000 
#    0.000    0.000    0.000    0.000    0.000    0.000 
#
# Total GULP energy -268411.675977 kJ/mol
# GULP energy per Si atom -5591.909916 kJ/mol
# Density = 2.091959 g / cm^3
# Si number density = 20.967316 Si / 1000 Ang^3
#
#
#
# Elastic Constant Matrix: (Units=GPa)
#
#
# Indices 1 2 3 4 5 6 
#
# 1 139.0767 34.6697 56.7629 0.0000 0.0000 0.0000
# 2 34.6697 121.2263 72.8703 0.0000 0.0000 0.0000
# 3 56.7629 72.8703 118.0569 0.0000 0.0000 0.0000
# 4 0.0000 0.0000 0.0000 29.0167 0.0000 0.0000
# 5 0.0000 0.0000 0.0000 0.0000 23.5952 0.0000
# 6 0.0000 0.0000 0.0000 0.0000 0.0000 9.3195
#
#
#
# Elastic Compliance Matrix: (Units=1/GPa)
#
#
# Indices 1 2 3 4 5 6 
#
# 1 0.008946 0.000043 -0.004328 0.000000 0.000000 0.000000
# 2 0.000043 0.013115 -0.008116 0.000000 0.000000 0.000000
# 3 -0.004328 -0.008116 0.015561 0.000000 0.000000 0.000000
# 4 0.000000 0.000000 0.000000 0.034463 0.000000 0.000000
# 5 0.000000 0.000000 0.000000 0.000000 0.042382 0.000000
# 6 0.000000 0.000000 0.000000 0.000000 0.000000 0.107302
#
#
# Mechanical properties :
#
#
# Convention : Reuss Voigt Hill
#
# Bulk Modulus (GPa) = 78.00032 78.55176 78.27604
# Shear Modulus (GPa) = 19.93272 26.65675 23.29474
#
# Velocity S-wave (km/s) = 3.08662 3.56946 3.33679
# Velocity P-wave (km/s) = 7.06998 7.38467 7.22904
#
# Compressibility (1/GPa) = 0.01282046
#
# Stress axis : x y z
#
# Youngs Moduli (GPa) = 111.78282 76.24606 64.26302
#
# Poissons Ratio (x) = -0.00328 0.27812
# Poissons Ratio (y) = -0.00481 0.52157
# Poissons Ratio (z) = 0.48378 0.61883
#
# Static dielectric constant tensor:
#      x y z
#    x 1.757030 0.000000 0.000000 
#    y 0.000000 1.734450 0.000000 
#    z 0.000000 0.000000 1.749300 
# 
# From -- ./inp_files/54209.got.cif
#   From: 2010.05.17/outbox.cif.g08.bks.cpg/sg63_28_cif.got.tgz:54209.got - 2010.06.03 15:47:04.
