data_PCOD9474005
_publ_section_title
;
Structure prediction by ZEFSAII (Michael W. Deem and Ramdas Pophale) SiO2 
 PCOD9474005
Probable space group: C M C M
;
_chemical_formula_sum "Si O2"
_cell_formula_units_Z 112
_cell_length_a 16.647107
_cell_length_b 16.102730
_cell_length_c 20.822471
_cell_angle_alpha 90.000000
_cell_angle_beta 90.000000
_cell_angle_gamma 90.000000
_cell_volume 5581.752145
_symmetry_space_group_name_H-M "C M C M"
_symmetry_group_IT_number 63
_symmetry_cell_setting 'orthorhombic'
loop_
_space_group_symop_operation_xyz
x,y,z
-x,-y,1/2+z
x,-y,-z
-x,y,1/2-z
-x,-y,-z
x,y,1/2-z
-x,y,z
x,-y,1/2+z
1/2+x,1/2+y,z
1/2-x,1/2-y,1/2+z
1/2+x,1/2-y,-z
1/2-x,1/2+y,1/2-z
1/2-x,1/2-y,-z
1/2+x,1/2+y,1/2-z
1/2-x,1/2+y,z
1/2+x,1/2-y,1/2+z
loop_
_atom_site_type_symbol
_atom_site_label
_atom_site_fract_x
_atom_site_fract_y
_atom_site_fract_z
Si Si1 0.406069 0.472608 0.931580
Si Si2 0.358021 0.966364 0.604341
Si Si3 0.085798 0.314346 0.827143
Si Si4 0.092379 0.615498 0.519758
Si Si5 0.292255 0.463891 0.174701
Si Si6 0.249878 0.729906 0.674764
Si Si7 0.092892 0.221583 0.403899
O O1 0.500000 0.493835 0.932250
O O2 0.367234 0.517592 0.870696
O O3 0.398740 0.373422 0.925071
O O4 0.369657 0.500000 0.000000
O O5 0.500000 0.777257 0.650718
O O6 0.411618 0.909195 0.649768
O O7 0.351401 0.914689 0.537937
O O8 0.391899 0.055021 0.580463
O O9 0.087078 0.309083 0.750000
O O10 0.222755 0.480395 0.856444
O O11 0.168115 0.272238 0.851106
O O12 0.101473 0.710509 0.539624
O O13 0.000000 0.601783 0.498647
O O14 0.305653 0.482097 0.250000
O O15 0.263817 0.368673 0.169091
O O16 0.244515 0.750755 0.750000
O O17 0.166878 0.757907 0.642827
O O18 0.000000 0.232106 0.379205
#
# Coordination Sequence:
#
# PCOD9474005 Si02
#       7
#    16  16  16  16  16  16  16
#     4  10  24  44  67  94 126 166 218 274 323 378
#     4  11  20  36  60  87 123 157 200 251 306 376
#     4  10  21  37  59  85 115 156 202 253 314 373
#     4  10  21  36  59  90 123 162 204 250 310 379
#     4  11  24  41  64  93 130 170 212 264 321 382
#     4  10  22  41  61  89 127 166 213 264 316 385
#     4  10  21  41  65  91 125 164 211 269 326 383
#
# _framework density 20.065384999999999
#
# number of rings (size 3 to 8) (size 9 to 14) (size 15 to 20)
#    0.000    1.714    1.429    3.000    2.000    4.000 
#    0.000    6.429    0.000    0.000    0.000    0.000 
#    0.000    0.000    0.000    0.000    0.000    0.000 
#
# Total GULP energy -312430.639504 kJ/mol
# GULP energy per Si atom -5579.118563 kJ/mol
# Density = 2.001971 g / cm^3
# Si number density = 20.065385 Si / 1000 Ang^3
#
#
#
# Elastic Constant Matrix: (Units=GPa)
#
#
# Indices 1 2 3 4 5 6 
#
# 1 131.9626 52.0862 71.5968 0.0000 0.0000 0.0000
# 2 52.0862 42.6878 39.8530 0.0000 0.0000 0.0000
# 3 71.5968 39.8530 101.5533 0.0000 0.0000 0.0000
# 4 0.0000 0.0000 0.0000 23.6254 0.0000 0.0000
# 5 0.0000 0.0000 0.0000 0.0000 21.1568 0.0000
# 6 0.0000 0.0000 0.0000 0.0000 0.0000 -110.9477
#
#
#
# Elastic Compliance Matrix: (Units=1/GPa)
#
#
# Indices 1 2 3 4 5 6 
#
# 1 0.016609 -0.014730 -0.005929 0.000000 0.000000 0.000000
# 2 -0.014730 0.050036 -0.009251 0.000000 0.000000 0.000000
# 3 -0.005929 -0.009251 0.017657 0.000000 0.000000 0.000000
# 4 0.000000 0.000000 0.000000 0.042327 0.000000 0.000000
# 5 0.000000 0.000000 0.000000 0.000000 0.047266 0.000000
# 6 0.000000 0.000000 0.000000 0.000000 0.000000 -0.009013
#
#
# Mechanical properties :
#
#
# Convention : Reuss Voigt Hill
#
# Bulk Modulus (GPa) = 40.84598 67.03064 53.93831
# Shear Modulus (GPa) = 21.47200 -5.72191 7.87504
#
# Velocity S-wave (km/s) = 3.27479 -1.69051 1.98323
# Velocity P-wave (km/s) = 5.89064 5.44685 5.67309
#
# Compressibility (1/GPa) = 0.02448221
#
# Stress axis : x y z
#
# Youngs Moduli (GPa) = 60.20949 19.98575 56.63435
#
# Poissons Ratio (x) = 0.29440 0.33577
# Poissons Ratio (y) = 0.88691 0.52390
# Poissons Ratio (z) = 0.35696 0.18488
#
# Static dielectric constant tensor:
#      x y z
#    x 1.748670 0.000000 0.000000 
#    y 0.000000 1.716520 0.000000 
#    z 0.000000 0.000000 1.703180 
# 
# From -- ./inp_files/62951.got.cif
#   From: 2010.05.17/outbox.cif.g08.bks.cpg/sg63_32_cif.got.tgz:62951.got - 2010.06.03 15:47:04.
