data_PCOD9474210
_publ_section_title
;
Structure prediction by ZEFSAII (Michael W. Deem and Ramdas Pophale) SiO2 
 PCOD9474210
Probable space group: C M C M
;
_chemical_formula_sum "Si O2"
_cell_formula_units_Z 80
_cell_length_a 8.702251
_cell_length_b 23.484896
_cell_length_c 20.976220
_cell_angle_alpha 90.000000
_cell_angle_beta 90.000000
_cell_angle_gamma 90.000000
_cell_volume 4286.940700
_symmetry_space_group_name_H-M "C M C M"
_symmetry_group_IT_number 63
_symmetry_cell_setting 'orthorhombic'
loop_
_space_group_symop_operation_xyz
x,y,z
-x,-y,1/2+z
x,-y,-z
-x,y,1/2-z
-x,-y,-z
x,y,1/2-z
-x,y,z
x,-y,1/2+z
1/2+x,1/2+y,z
1/2-x,1/2-y,1/2+z
1/2+x,1/2-y,-z
1/2-x,1/2+y,1/2-z
1/2-x,1/2-y,-z
1/2+x,1/2+y,1/2-z
1/2-x,1/2+y,z
1/2+x,1/2-y,1/2+z
loop_
_atom_site_type_symbol
_atom_site_label
_atom_site_fract_x
_atom_site_fract_y
_atom_site_fract_z
Si Si1 0.314326 0.871606 0.880030
Si Si2 0.687495 0.065462 0.750000
Si Si3 0.321240 0.567762 0.503394
Si Si4 0.687316 0.933361 0.750000
Si Si5 0.816869 0.368903 0.122524
Si Si6 0.183834 0.752234 0.428039
O O1 0.500000 0.875824 0.883620
O O2 0.242302 0.905594 0.938632
O O3 0.264633 0.899647 0.813467
O O4 0.273518 0.805497 0.890566
O O5 0.500000 0.064228 0.750000
O O6 0.736239 0.099551 0.686870
O O7 0.738197 0.999407 0.750000
O O8 0.309187 0.500000 0.500000
O O9 0.500000 0.583659 0.511712
O O10 0.226653 0.592060 0.562521
O O11 0.500000 0.934072 0.750000
O O12 0.743377 0.307681 0.108597
O O13 0.000000 0.362153 0.125887
O O14 0.250000 0.750000 0.500000
O O15 0.000000 0.754507 0.433060
#
# Coordination Sequence:
#
# PCOD9474210 Si02
#       6
#    16   8  16   8  16  16
#     4  10  21  37  61  87 113 153 198 241 294 352
#     4   9  20  37  59  87 119 153 194 247 299 348
#     4  11  23  37  56  85 118 152 195 247 299 352
#     4   9  18  37  61  87 117 149 196 251 293 348
#     4  11  22  38  61  87 116 157 202 244 295 353
#     4  11  22  37  59  89 122 156 197 248 299 350
#
# _framework density 18.661327
#
# number of rings (size 3 to 8) (size 9 to 14) (size 15 to 20)
#    0.000    1.600    2.000    3.000    0.000    4.800 
#    0.000    3.500    0.000    4.800    0.000    0.000 
#    0.000    0.000    0.000    0.000    0.000    0.000 
#
# Total GULP energy -223490.796078 kJ/mol
# GULP energy per Si atom -5587.269902 kJ/mol
# Density = 1.861885 g / cm^3
# Si number density = 18.661327 Si / 1000 Ang^3
#
#
#
# Elastic Constant Matrix: (Units=GPa)
#
#
# Indices 1 2 3 4 5 6 
#
# 1 30.7916 40.9087 32.0257 0.0000 0.0000 0.0000
# 2 40.9087 157.8061 99.5602 0.0000 0.0000 0.0000
# 3 32.0257 99.5602 181.3314 0.0000 0.0000 0.0000
# 4 0.0000 0.0000 0.0000 40.7267 0.0000 0.0000
# 5 0.0000 0.0000 0.0000 0.0000 -3.3737 0.0000
# 6 0.0000 0.0000 0.0000 0.0000 0.0000 27.9105
#
#
#
# Elastic Compliance Matrix: (Units=1/GPa)
#
#
# Indices 1 2 3 4 5 6 
#
# 1 0.050351 -0.011387 -0.002641 0.000000 0.000000 0.000000
# 2 -0.011387 0.012270 -0.004726 0.000000 0.000000 0.000000
# 3 -0.002641 -0.004726 0.008576 0.000000 0.000000 0.000000
# 4 0.000000 0.000000 0.000000 0.024554 0.000000 0.000000
# 5 0.000000 0.000000 0.000000 0.000000 -0.296409 0.000000
# 6 0.000000 0.000000 0.000000 0.000000 0.000000 0.035829
#
#
# Mechanical properties :
#
#
# Convention : Reuss Voigt Hill
#
# Bulk Modulus (GPa) = 29.68204 79.43537 54.55870
# Shear Modulus (GPa) = -43.06913 26.21500 -8.42707
#
# Velocity S-wave (km/s) = -4.80931 3.75210 -2.12734
# Velocity P-wave (km/s) = 3.85994 7.83775 4.82344
#
# Compressibility (1/GPa) = 0.03369041
#
# Stress axis : x y z
#
# Youngs Moduli (GPa) = 19.86059 81.49759 116.60442
#
# Poissons Ratio (x) = 0.92797 0.30794
# Poissons Ratio (y) = 0.22614 0.55107
# Poissons Ratio (z) = 0.05245 0.38516
#
# Static dielectric constant tensor:
#      x y z
#    x 1.636660 0.000000 0.000000 
#    y 0.000000 1.637610 0.000000 
#    z 0.000000 0.000000 1.610580 
# 
# From -- ./inp_files/50908.got.cif
#   From: 2010.05.17/outbox.cif.g08.bks.cpg/sg63_26_cif.got.tgz:50908.got - 2010.06.03 15:47:04.
