data_PCOD9474655
_publ_section_title
;
Structure prediction by ZEFSAII (Michael W. Deem and Ramdas Pophale) SiO2 
 PCOD9474655
Probable space group: C M C M
;
_chemical_formula_sum "Si O2"
_cell_formula_units_Z 96
_cell_length_a 19.572171
_cell_length_b 14.761629
_cell_length_c 14.623067
_cell_angle_alpha 90.000000
_cell_angle_beta 90.000000
_cell_angle_gamma 90.000000
_cell_volume 4224.854506
_symmetry_space_group_name_H-M "C M C M"
_symmetry_group_IT_number 63
_symmetry_cell_setting 'orthorhombic'
loop_
_space_group_symop_operation_xyz
x,y,z
-x,-y,1/2+z
x,-y,-z
-x,y,1/2-z
-x,-y,-z
x,y,1/2-z
-x,y,z
x,-y,1/2+z
1/2+x,1/2+y,z
1/2-x,1/2-y,1/2+z
1/2+x,1/2-y,-z
1/2-x,1/2+y,1/2-z
1/2-x,1/2-y,-z
1/2+x,1/2+y,1/2-z
1/2-x,1/2+y,z
1/2+x,1/2-y,1/2+z
loop_
_atom_site_type_symbol
_atom_site_label
_atom_site_fract_x
_atom_site_fract_y
_atom_site_fract_z
Si Si1 0.887553 0.308646 0.649310
Si Si2 0.000000 0.328381 0.130381
Si Si3 0.266626 0.270350 0.853240
Si Si4 0.245010 0.944412 0.354876
Si Si5 0.368140 0.500000 0.500000
Si Si6 0.897866 0.803148 0.533028
Si Si7 0.099239 0.507430 0.606324
O O1 0.899915 0.267842 0.750000
O O2 0.805715 0.320251 0.638219
O O3 0.909831 0.248972 0.563104
O O4 0.917751 0.409216 0.646183
O O5 0.058532 0.251932 0.106412
O O6 0.059126 0.406899 0.144494
O O7 0.293666 0.287250 0.750000
O O8 0.247836 0.164500 0.859454
O O9 0.319817 0.295314 0.931540
O O10 0.235098 0.972286 0.250000
O O11 0.183343 0.979584 0.416164
O O12 0.319985 0.975811 0.385418
O O13 0.410504 0.409336 0.520157
O O14 0.080818 0.500000 0.500000
#
# Coordination Sequence:
#
# PCOD9474655 Si02
#       7
#    16   8  16  16   8  16  16
#     4  11  23  40  67 102 137 173 219 282 356 420
#     4  12  27  45  68  90 136 186 231 278 322 406
#     4  10  21  41  68 100 136 173 219 284 359 418
#     4  11  22  40  68 105 139 171 221 288 357 419
#     4  12  26  41  74 103 134 184 232 288 350 414
#     4  12  25  44  66  96 137 186 232 283 337 395
#     4  12  22  40  66  95 132 177 218 270 341 406
#
# _framework density 22.722674999999999
#
# number of rings (size 3 to 8) (size 9 to 14) (size 15 to 20)
#    0.000    0.667    5.833    2.250    0.000    2.333 
#    0.000    5.000    0.000    0.000    0.000    3.500 
#    0.000    0.000    0.000    0.000    0.000    0.000 
#
# Total GULP energy -267671.590436 kJ/mol
# GULP energy per Si atom -5576.491467 kJ/mol
# Density = 2.267096 g / cm^3
# Si number density = 22.722675 Si / 1000 Ang^3
#
#
#
# Elastic Constant Matrix: (Units=GPa)
#
#
# Indices 1 2 3 4 5 6 
#
# 1 52.3507 40.2857 5.1806 0.0000 0.0000 0.0000
# 2 40.2857 192.4034 23.9870 0.0000 0.0000 0.0000
# 3 5.1806 23.9870 98.4622 0.0000 0.0000 0.0000
# 4 0.0000 0.0000 0.0000 16.2391 0.0000 0.0000
# 5 0.0000 0.0000 0.0000 0.0000 -62.8043 0.0000
# 6 0.0000 0.0000 0.0000 0.0000 0.0000 -32.4237
#
#
#
# Elastic Compliance Matrix: (Units=1/GPa)
#
#
# Indices 1 2 3 4 5 6 
#
# 1 0.022771 -0.004763 -0.000038 0.000000 0.000000 0.000000
# 2 -0.004763 0.006357 -0.001298 0.000000 0.000000 0.000000
# 3 -0.000038 -0.001298 0.010474 0.000000 0.000000 0.000000
# 4 0.000000 0.000000 0.000000 0.061580 0.000000 0.000000
# 5 0.000000 0.000000 0.000000 0.000000 -0.015922 0.000000
# 6 0.000000 0.000000 0.000000 0.000000 0.000000 -0.030842
#
#
# Mechanical properties :
#
#
# Convention : Reuss Voigt Hill
#
# Bulk Modulus (GPa) = 36.49051 53.56922 45.02986
# Shear Modulus (GPa) = 66.00665 2.45311 34.22988
#
# Velocity S-wave (km/s) = 5.39554 1.04016 3.88547
# Velocity P-wave (km/s) = 7.41011 5.00689 6.32371
#
# Compressibility (1/GPa) = 0.02740438
#
# Stress axis : x y z
#
# Youngs Moduli (GPa) = 43.91534 157.31831 95.47119
#
# Poissons Ratio (x) = 0.74933 0.00360
# Poissons Ratio (y) = 0.20917 0.12392
# Poissons Ratio (z) = 0.00166 0.20419
#
# Static dielectric constant tensor:
#      x y z
#    x 1.817870 0.000000 0.000000 
#    y 0.000000 1.841140 0.000000 
#    z 0.000000 0.000000 1.897000 
# 
# From -- ./inp_files/35400.got.cif
#   From: 2010.05.17/outbox.cif.g08.bks.cpg/sg63_18_cif.got.tgz:35400.got - 2010.06.03 15:47:04.
