data_PCOD9474695
_publ_section_title
;
Structure prediction by ZEFSAII (Michael W. Deem and Ramdas Pophale) SiO2 
 PCOD9474695
Probable space group: C M C M
;
_chemical_formula_sum "Si O2"
_cell_formula_units_Z 96
_cell_length_a 24.106123
_cell_length_b 9.521151
_cell_length_c 22.285685
_cell_angle_alpha 90.000000
_cell_angle_beta 90.000000
_cell_angle_gamma 90.000000
_cell_volume 5114.966677
_symmetry_space_group_name_H-M "C M C M"
_symmetry_group_IT_number 63
_symmetry_cell_setting 'orthorhombic'
loop_
_space_group_symop_operation_xyz
x,y,z
-x,-y,1/2+z
x,-y,-z
-x,y,1/2-z
-x,-y,-z
x,y,1/2-z
-x,y,z
x,-y,1/2+z
1/2+x,1/2+y,z
1/2-x,1/2-y,1/2+z
1/2+x,1/2-y,-z
1/2-x,1/2+y,1/2-z
1/2-x,1/2-y,-z
1/2+x,1/2+y,1/2-z
1/2-x,1/2+y,z
1/2+x,1/2-y,1/2+z
loop_
_atom_site_type_symbol
_atom_site_label
_atom_site_fract_x
_atom_site_fract_y
_atom_site_fract_z
Si Si1 0.645190 0.990142 0.136097
Si Si2 0.207332 0.256320 0.579821
Si Si3 0.933869 0.731967 0.179363
Si Si4 0.314504 0.566405 0.250000
Si Si5 0.290450 0.873431 0.250000
Si Si6 0.837900 0.760907 0.948137
Si Si7 0.637425 0.479706 0.371345
O O1 0.689550 0.103717 0.113219
O O2 0.593528 0.087535 0.155641
O O3 0.672703 0.914510 0.192714
O O4 0.635555 0.874401 0.084324
O O5 0.169214 0.249640 0.519676
O O6 0.272737 0.262064 0.569979
O O7 0.191101 0.116198 0.614929
O O8 0.917868 0.750076 0.250000
O O9 0.000000 0.727012 0.175664
O O10 0.909956 0.863571 0.141225
O O11 0.280590 0.708949 0.250000
O O12 0.268888 0.445889 0.250000
O O13 0.351793 0.558628 0.190906
O O14 0.866249 0.903034 0.923275
#
# Coordination Sequence:
#
# PCOD9474695 Si02
#       7
#    16  16  16   8   8  16  16
#     4  11  22  36  57  84 115 152 198 240 291 350
#     4  10  22  35  56  84 122 167 191 219 282 353
#     4  10  22  42  62  82 113 154 204 253 312 366
#     4  12  24  34  54  87 127 157 183 232 296 359
#     4  12  24  34  54  87 127 157 183 232 296 359
#     4  11  20  37  56  85 123 157 195 234 275 352
#     4  11  22  36  57  84 115 152 198 240 291 350
#
# _framework density 18.768450000000001
#
# number of rings (size 3 to 8) (size 9 to 14) (size 15 to 20)
#    0.000    1.167    3.333    4.000    4.667    2.667 
#    0.000    0.833    0.000   19.000    0.000    0.000 
#    0.000    0.000    0.000    0.000    0.000    0.000 
#
# Total GULP energy -268032.443095 kJ/mol
# GULP energy per Si atom -5584.009231 kJ/mol
# Density = 1.872573 g / cm^3
# Si number density = 18.768450 Si / 1000 Ang^3
#
#
#
# Elastic Constant Matrix: (Units=GPa)
#
#
# Indices 1 2 3 4 5 6 
#
# 1 34.0941 -18.9646 1.5017 0.0000 0.0000 0.0000
# 2 -18.9646 54.5171 11.9478 0.0000 0.0000 0.0000
# 3 1.5017 11.9478 84.3656 0.0000 0.0000 0.0000
# 4 0.0000 0.0000 0.0000 -99.1672 0.0000 0.0000
# 5 0.0000 0.0000 0.0000 0.0000 22.7923 0.0000
# 6 0.0000 0.0000 0.0000 0.0000 0.0000 12.8898
#
#
#
# Elastic Compliance Matrix: (Units=1/GPa)
#
#
# Indices 1 2 3 4 5 6 
#
# 1 0.036893 0.013393 -0.002553 0.000000 0.000000 0.000000
# 2 0.013393 0.023793 -0.003608 0.000000 0.000000 0.000000
# 3 -0.002553 -0.003608 0.012410 0.000000 0.000000 0.000000
# 4 0.000000 0.000000 0.000000 -0.010084 0.000000 0.000000
# 5 0.000000 0.000000 0.000000 0.000000 0.043874 0.000000
# 6 0.000000 0.000000 0.000000 0.000000 0.000000 0.077581
#
#
# Mechanical properties :
#
#
# Convention : Reuss Voigt Hill
#
# Bulk Modulus (GPa) = 11.42081 17.99405 14.70743
# Shear Modulus (GPa) = 25.10181 -0.79755 12.15213
#
# Velocity S-wave (km/s) = 3.66108 -0.65258 2.54732
# Velocity P-wave (km/s) = 4.89588 3.00672 4.06264
#
# Compressibility (1/GPa) = 0.08755945
#
# Stress axis : x y z
#
# Youngs Moduli (GPa) = 27.10539 42.02974 80.58296
#
# Poissons Ratio (x) = -0.56292 0.20576
# Poissons Ratio (y) = -0.36303 0.29073
# Poissons Ratio (z) = 0.06921 0.15164
#
# Static dielectric constant tensor:
#      x y z
#    x 1.605300 0.000000 0.000000 
#    y 0.000000 1.653150 0.000000 
#    z 0.000000 0.000000 1.701740 
# 
# From -- ./inp_files/65002.got.cif
#   From: 2010.05.17/outbox.cif.g08.bks.cpg/sg63_33_cif.got.tgz:65002.got - 2010.06.03 15:47:04.
