data_PCOD9474394
_publ_section_title
;
Structure prediction by ZEFSAII (Michael W. Deem and Ramdas Pophale) SiO2 
 PCOD9474394
Probable space group: C M C M
;
_chemical_formula_sum "Si O2"
_cell_formula_units_Z 68
_cell_length_a 23.257306
_cell_length_b 17.244706
_cell_length_c 8.575746
_cell_angle_alpha 90.000000
_cell_angle_beta 90.000000
_cell_angle_gamma 90.000000
_cell_volume 3439.435037
_symmetry_space_group_name_H-M "C M C M"
_symmetry_group_IT_number 63
_symmetry_cell_setting 'orthorhombic'
loop_
_space_group_symop_operation_xyz
x,y,z
-x,-y,1/2+z
x,-y,-z
-x,y,1/2-z
-x,-y,-z
x,y,1/2-z
-x,y,z
x,-y,1/2+z
1/2+x,1/2+y,z
1/2-x,1/2-y,1/2+z
1/2+x,1/2-y,-z
1/2-x,1/2+y,1/2-z
1/2-x,1/2-y,-z
1/2+x,1/2+y,1/2-z
1/2-x,1/2+y,z
1/2+x,1/2-y,1/2+z
loop_
_atom_site_type_symbol
_atom_site_label
_atom_site_fract_x
_atom_site_fract_y
_atom_site_fract_z
Si Si1 0.335897 0.587487 0.063307
Si Si2 0.707083 0.087770 0.437244
Si Si3 0.563378 0.305285 0.435560
Si Si4 0.912362 0.363112 0.064799
Si Si5 0.000000 0.500000 0.500000
O O1 0.339995 0.585670 0.250000
O O2 0.271335 0.616545 0.023019
O O3 0.341264 0.500000 0.000000
O O4 0.385501 0.641039 0.995400
O O5 0.700600 0.088351 0.250000
O O6 0.654026 0.131247 0.514867
O O7 0.704092 0.000000 0.500000
O O8 0.568694 0.295057 0.250000
O O9 0.500000 0.339281 0.468668
O O10 0.566668 0.221261 0.514605
O O11 0.919045 0.373946 0.250000
O O12 0.949819 0.431862 0.989193
#
# Coordination Sequence:
#
# PCOD9474394 Si02
#       5
#    16  16  16  16   4
#     4  10  22  42  68  95 125 163 208 258 316 374
#     4  10  21  38  62  92 125 163 209 259 308 368
#     4  11  25  43  64  92 127 164 209 262 315 371
#     4  12  25  41  65  93 128 170 211 257 310 368
#     4  12  26  40  64  98 132 168 216 248 306 372
#
# _framework density 19.770689999999998
#
# number of rings (size 3 to 8) (size 9 to 14) (size 15 to 20)
#    0.000    1.176    2.353    3.176    0.000    8.471 
#    0.000    0.000    0.000    0.000    0.000    0.000 
#    0.000    0.000    0.000    0.000    0.000    0.000 
#
# Total GULP energy -189518.058325 kJ/mol
# GULP energy per Si atom -5574.060539 kJ/mol
# Density = 1.972569 g / cm^3
# Si number density = 19.770690 Si / 1000 Ang^3
#
#
#
# Elastic Constant Matrix: (Units=GPa)
#
#
# Indices 1 2 3 4 5 6 
#
# 1 167.8611 54.1290 29.2667 0.0000 0.0000 0.0000
# 2 54.1290 68.1335 2.1625 0.0000 0.0000 0.0000
# 3 29.2667 2.1625 28.7160 0.0000 0.0000 0.0000
# 4 0.0000 0.0000 0.0000 26.7897 0.0000 0.0000
# 5 0.0000 0.0000 0.0000 0.0000 13.7886 0.0000
# 6 0.0000 0.0000 0.0000 0.0000 0.0000 41.9235
#
#
#
# Elastic Compliance Matrix: (Units=1/GPa)
#
#
# Indices 1 2 3 4 5 6 
#
# 1 0.010166 -0.007766 -0.009776 0.000000 0.000000 0.000000
# 2 -0.007766 0.020645 0.006360 0.000000 0.000000 0.000000
# 3 -0.009776 0.006360 0.044309 0.000000 0.000000 0.000000
# 4 0.000000 0.000000 0.000000 0.037328 0.000000 0.000000
# 5 0.000000 0.000000 0.000000 0.000000 0.072524 0.000000
# 6 0.000000 0.000000 0.000000 0.000000 0.000000 0.023853
#
#
# Mechanical properties :
#
#
# Convention : Reuss Voigt Hill
#
# Bulk Modulus (GPa) = 18.95528 48.42520 33.69024
# Shear Modulus (GPa) = 20.09862 28.44386 24.27124
#
# Velocity S-wave (km/s) = 3.19185 3.79712 3.50757
# Velocity P-wave (km/s) = 4.81584 6.61595 5.78632
#
# Compressibility (1/GPa) = 0.05275576
#
# Stress axis : x y z
#
# Youngs Moduli (GPa) = 98.36597 48.43760 22.56901
#
# Poissons Ratio (x) = 0.37618 0.22064
# Poissons Ratio (y) = 0.76393 -0.14355
# Poissons Ratio (z) = 0.96165 -0.30808
#
# Static dielectric constant tensor:
#      x y z
#    x 1.702820 0.000000 0.000000 
#    y 0.000000 1.610690 0.000000 
#    z 0.000000 0.000000 1.693130 
# 
# From -- ./inp_files/7601.got.cif
#   From: 2010.05.17/outbox.cif.g08.bks.cpg/sg63_4_cif.got.tgz:7601.got - 2010.06.03 15:47:04.
