data_PCOD9474175
_publ_section_title
;
Structure prediction by ZEFSAII (Michael W. Deem and Ramdas Pophale) SiO2 
 PCOD9474175
Probable space group: C M C M
;
_chemical_formula_sum "Si O2"
_cell_formula_units_Z 112
_cell_length_a 22.251264
_cell_length_b 13.606711
_cell_length_c 15.228689
_cell_angle_alpha 90.000000
_cell_angle_beta 90.000000
_cell_angle_gamma 90.000000
_cell_volume 4610.737152
_symmetry_space_group_name_H-M "C M C M"
_symmetry_group_IT_number 63
_symmetry_cell_setting 'orthorhombic'
loop_
_space_group_symop_operation_xyz
x,y,z
-x,-y,1/2+z
x,-y,-z
-x,y,1/2-z
-x,-y,-z
x,y,1/2-z
-x,y,z
x,-y,1/2+z
1/2+x,1/2+y,z
1/2-x,1/2-y,1/2+z
1/2+x,1/2-y,-z
1/2-x,1/2+y,1/2-z
1/2-x,1/2-y,-z
1/2+x,1/2+y,1/2-z
1/2-x,1/2+y,z
1/2+x,1/2-y,1/2+z
loop_
_atom_site_type_symbol
_atom_site_label
_atom_site_fract_x
_atom_site_fract_y
_atom_site_fract_z
Si Si1 0.842028 0.061567 0.147771
Si Si2 0.927955 0.673629 0.843463
Si Si3 0.391485 0.967480 0.905235
Si Si4 0.743667 0.744685 0.394779
Si Si5 0.382998 0.249529 0.349246
Si Si6 0.928510 0.840283 0.978540
Si Si7 0.727669 0.959646 0.352318
O O1 0.859991 0.051200 0.250000
O O2 0.796750 0.154394 0.136538
O O3 0.796928 0.973761 0.122092
O O4 0.895726 0.078047 0.080269
O O5 0.907607 0.717752 0.750000
O O6 0.909837 0.560022 0.846691
O O7 0.000000 0.676512 0.844168
O O8 0.910404 0.739066 0.926811
O O9 0.318806 0.974001 0.905345
O O10 0.408301 0.859680 0.873087
O O11 0.415269 0.000000 0.000000
O O12 0.750000 0.750000 0.500000
O O13 0.810703 0.741807 0.355648
O O14 0.712970 0.846011 0.364826
O O15 0.399646 0.275909 0.250000
O O16 0.406288 0.324308 0.422759
O O17 0.000000 0.852366 0.976475
O O18 0.722605 0.986963 0.250000
#
# Coordination Sequence:
#
# PCOD9474175 Si02
#       7
#    16  16  16  16  16  16  16
#     4  11  23  41  67 101 136 175 223 278 344 404
#     4  10  21  37  59  87 122 168 220 275 334 393
#     4  12  22  37  59  91 132 175 218 271 328 406
#     4  12  23  42  66  99 139 179 216 276 337 402
#     4  12  24  41  62  91 134 177 222 276 339 407
#     4  11  24  43  65  94 129 173 228 281 336 400
#     4  11  24  39  63  99 135 173 221 272 336 410
#
# _framework density 24.291126999999999
#
# number of rings (size 3 to 8) (size 9 to 14) (size 15 to 20)
#    0.000    0.714    4.286    4.714    0.000    2.000 
#    0.000    0.000    0.000    1.714    0.000    2.000 
#    0.000    0.000    0.000    0.000    0.000    0.000 
#
# Total GULP energy -313714.065674 kJ/mol
# GULP energy per Si atom -5602.036887 kJ/mol
# Density = 2.423584 g / cm^3
# Si number density = 24.291127 Si / 1000 Ang^3
#
#
#
# Elastic Constant Matrix: (Units=GPa)
#
#
# Indices 1 2 3 4 5 6 
#
# 1 84.1667 1.9373 29.1028 0.0000 0.0000 0.0000
# 2 1.9373 64.3163 3.5260 0.0000 0.0000 0.0000
# 3 29.1028 3.5260 177.0366 0.0000 0.0000 0.0000
# 4 0.0000 0.0000 0.0000 21.9092 0.0000 0.0000
# 5 0.0000 0.0000 0.0000 0.0000 25.6785 0.0000
# 6 0.0000 0.0000 0.0000 0.0000 0.0000 28.6848
#
#
#
# Elastic Compliance Matrix: (Units=1/GPa)
#
#
# Indices 1 2 3 4 5 6 
#
# 1 0.012602 -0.000266 -0.002066 0.000000 0.000000 0.000000
# 2 -0.000266 0.015571 -0.000266 0.000000 0.000000 0.000000
# 3 -0.002066 -0.000266 0.005994 0.000000 0.000000 0.000000
# 4 0.000000 0.000000 0.000000 0.045643 0.000000 0.000000
# 5 0.000000 0.000000 0.000000 0.000000 0.038943 0.000000
# 6 0.000000 0.000000 0.000000 0.000000 0.000000 0.034862
#
#
# Mechanical properties :
#
#
# Convention : Reuss Voigt Hill
#
# Bulk Modulus (GPa) = 34.52057 43.85020 39.18539
# Shear Modulus (GPa) = 29.67927 34.65140 32.16534
#
# Velocity S-wave (km/s) = 3.49924 3.78101 3.64285
# Velocity P-wave (km/s) = 5.52886 6.09528 5.81897
#
# Compressibility (1/GPa) = 0.02896823
#
# Stress axis : x y z
#
# Youngs Moduli (GPa) = 79.35378 64.22285 166.84664
#
# Poissons Ratio (x) = 0.01710 0.34475
# Poissons Ratio (y) = 0.02113 0.04444
# Poissons Ratio (z) = 0.16397 0.01711
#
# Static dielectric constant tensor:
#      x y z
#    x 1.944600 0.000000 0.000000 
#    y 0.000000 1.946460 0.000000 
#    z 0.000000 0.000000 1.990590 
# 
# From -- ./inp_files/36943.got.cif
#   From: 2010.05.17/outbox.cif.g08.bks.cpg/sg63_19_cif.got.tgz:36943.got - 2010.06.03 15:47:04.
