data_PCOD9474448
_publ_section_title
;
Structure prediction by ZEFSAII (Michael W. Deem and Ramdas Pophale) SiO2 
 PCOD9474448
Probable space group: C M C M
;
_chemical_formula_sum "Si O2"
_cell_formula_units_Z 96
_cell_length_a 13.849782
_cell_length_b 16.605603
_cell_length_c 20.227067
_cell_angle_alpha 90.000000
_cell_angle_beta 90.000000
_cell_angle_gamma 90.000000
_cell_volume 4651.901403
_symmetry_space_group_name_H-M "C M C M"
_symmetry_group_IT_number 63
_symmetry_cell_setting 'orthorhombic'
loop_
_space_group_symop_operation_xyz
x,y,z
-x,-y,1/2+z
x,-y,-z
-x,y,1/2-z
-x,-y,-z
x,y,1/2-z
-x,y,z
x,-y,1/2+z
1/2+x,1/2+y,z
1/2-x,1/2-y,1/2+z
1/2+x,1/2-y,-z
1/2-x,1/2+y,1/2-z
1/2-x,1/2-y,-z
1/2+x,1/2+y,1/2-z
1/2-x,1/2+y,z
1/2+x,1/2-y,1/2+z
loop_
_atom_site_type_symbol
_atom_site_label
_atom_site_fract_x
_atom_site_fract_y
_atom_site_fract_z
Si Si1 0.114408 0.797253 0.566544
Si Si2 0.114417 0.927141 0.045229
Si Si3 0.615955 0.045082 0.103783
Si Si4 0.616560 0.882782 0.461543
Si Si5 0.383885 0.335944 0.326697
Si Si6 0.733411 0.170483 0.174502
O O1 0.126104 0.848179 0.499895
O O2 0.148861 0.706007 0.555804
O O3 0.176759 0.833447 0.625274
O O4 0.000000 0.797433 0.581956
O O5 0.146429 0.902244 0.118822
O O6 0.000000 0.944941 0.052505
O O7 0.155037 0.000000 0.000000
O O8 0.500000 0.048102 0.111570
O O9 0.668052 0.092301 0.161560
O O10 0.644698 0.953158 0.088964
O O11 0.642040 0.092217 0.035931
O O12 0.500000 0.881961 0.460871
O O13 0.365899 0.359110 0.250000
O O14 0.500000 0.323375 0.334058
O O15 0.330217 0.250954 0.338995
O O16 0.765416 0.174842 0.250000
#
# Coordination Sequence:
#
# PCOD9474448 Si02
#       6
#    16  16  16  16  16  16
#     4  10  21  39  59  79 111 155 202 253 291 334
#     4   9  18  35  59  86 113 149 201 246 285 344
#     4   9  17  33  58  90 121 142 174 234 296 361
#     4   8  16  33  59  88 115 145 183 231 297 357
#     4   9  18  34  57  86 121 152 181 234 304 363
#     4  11  23  37  54  83 116 155 200 239 295 359
#
# _framework density 20.636721999999999
#
# number of rings (size 3 to 8) (size 9 to 14) (size 15 to 20)
#    0.000    2.667    0.000    2.500    0.000    6.667 
#    6.000    1.667    0.000    6.000    0.000    0.000 
#    0.000    0.000    0.000    0.000    0.000    0.000 
#
# Total GULP energy -268058.486570 kJ/mol
# GULP energy per Si atom -5584.551804 kJ/mol
# Density = 2.058975 g / cm^3
# Si number density = 20.636722 Si / 1000 Ang^3
#
#
#
# Elastic Constant Matrix: (Units=GPa)
#
#
# Indices 1 2 3 4 5 6 
#
# 1 80.9047 5.0667 27.6834 0.0000 0.0000 0.0000
# 2 5.0667 75.5785 24.4976 0.0000 0.0000 0.0000
# 3 27.6834 24.4976 90.0227 0.0000 0.0000 0.0000
# 4 0.0000 0.0000 0.0000 31.8664 0.0000 0.0000
# 5 0.0000 0.0000 0.0000 0.0000 22.4000 0.0000
# 6 0.0000 0.0000 0.0000 0.0000 0.0000 -3.3262
#
#
#
# Elastic Compliance Matrix: (Units=1/GPa)
#
#
# Indices 1 2 3 4 5 6 
#
# 1 0.013831 0.000495 -0.004388 0.000000 0.000000 0.000000
# 2 0.000495 0.014529 -0.004106 0.000000 0.000000 0.000000
# 3 -0.004388 -0.004106 0.013575 0.000000 0.000000 0.000000
# 4 0.000000 0.000000 0.000000 0.031381 0.000000 0.000000
# 5 0.000000 0.000000 0.000000 0.000000 0.044643 0.000000
# 6 0.000000 0.000000 0.000000 0.000000 0.000000 -0.300644
#
#
# Mechanical properties :
#
#
# Convention : Reuss Voigt Hill
#
# Bulk Modulus (GPa) = 38.55484 40.11125 39.33305
# Shear Modulus (GPa) = -31.63714 22.80526 -4.41594
#
# Velocity S-wave (km/s) = -3.91967 3.32788 -1.46441
# Velocity P-wave (km/s) = 1.32735 5.85196 4.03011
#
# Compressibility (1/GPa) = 0.02593708
#
# Stress axis : x y z
#
# Youngs Moduli (GPa) = 72.30338 68.82796 73.66492
#
# Poissons Ratio (x) = -0.03407 0.32323
# Poissons Ratio (y) = -0.03580 0.30247
# Poissons Ratio (z) = 0.31726 0.28261
#
# Static dielectric constant tensor:
#      x y z
#    x 1.762210 0.000000 0.000000 
#    y 0.000000 1.736440 0.000000 
#    z 0.000000 0.000000 1.713140 
# 
# From -- ./inp_files/54137.got.cif
#   From: 2010.05.17/outbox.cif.g08.bks.cpg/sg63_28_cif.got.tgz:54137.got - 2010.06.03 15:47:04.
