data_PCOD9474651
_publ_section_title
;
Structure prediction by ZEFSAII (Michael W. Deem and Ramdas Pophale) SiO2 
 PCOD9474651
Probable space group: C M C M
;
_chemical_formula_sum "Si O2"
_cell_formula_units_Z 96
_cell_length_a 14.346077
_cell_length_b 12.112227
_cell_length_c 29.773952
_cell_angle_alpha 90.000000
_cell_angle_beta 90.000000
_cell_angle_gamma 90.000000
_cell_volume 5173.609470
_symmetry_space_group_name_H-M "C M C M"
_symmetry_group_IT_number 63
_symmetry_cell_setting 'orthorhombic'
loop_
_space_group_symop_operation_xyz
x,y,z
-x,-y,1/2+z
x,-y,-z
-x,y,1/2-z
-x,-y,-z
x,y,1/2-z
-x,y,z
x,-y,1/2+z
1/2+x,1/2+y,z
1/2-x,1/2-y,1/2+z
1/2+x,1/2-y,-z
1/2-x,1/2+y,1/2-z
1/2-x,1/2-y,-z
1/2+x,1/2+y,1/2-z
1/2-x,1/2+y,z
1/2+x,1/2-y,1/2+z
loop_
_atom_site_type_symbol
_atom_site_label
_atom_site_fract_x
_atom_site_fract_y
_atom_site_fract_z
Si Si1 0.174856 0.851862 0.343356
Si Si2 0.500000 0.027052 0.695651
Si Si3 0.612534 0.133672 0.000549
Si Si4 0.000000 0.724920 0.304607
Si Si5 0.738785 0.266234 0.569821
Si Si6 0.358178 0.207653 0.698528
Si Si7 0.108997 0.093342 0.130166
O O1 0.217849 0.803109 0.389213
O O2 0.252268 0.828285 0.305997
O O3 0.087498 0.783821 0.326382
O O4 0.146448 0.977976 0.350918
O O5 0.500000 0.022535 0.750000
O O6 0.500000 0.902532 0.680722
O O7 0.413306 0.100616 0.681197
O O8 0.500000 0.159228 0.001740
O O9 0.674494 0.184612 0.041316
O O10 0.667479 0.188965 0.958487
O O11 0.620425 0.000000 0.000000
O O12 0.000000 0.732235 0.250000
O O13 0.675093 0.364234 0.590097
O O14 0.383829 0.229621 0.750000
O O15 0.381698 0.312628 0.668341
O O16 0.000000 0.083534 0.117393
#
# Coordination Sequence:
#
# PCOD9474651 Si02
#       7
#    16   8  16   8  16  16  16
#     4  11  24  40  59  89 124 162 204 257 305 371
#     4   9  20  39  59  81 114 154 207 254 304 361
#     4  10  21  41  66  93 121 156 200 250 298 370
#     4  11  24  41  59  87 124 167 210 256 309 362
#     4  10  23  40  62  91 125 160 199 245 313 369
#     4  10  22  39  59  84 115 161 210 257 312 359
#     4  11  22  40  61  88 124 160 206 256 303 365
#
# _framework density 18.555710000000001
#
# number of rings (size 3 to 8) (size 9 to 14) (size 15 to 20)
#    0.000    1.667    1.667    2.000    5.833    1.333 
#    0.000    0.000    0.000    5.500    0.000    0.000 
#    0.000    0.000    0.000    0.000    0.000    0.000 
#
# Total GULP energy -267734.964002 kJ/mol
# GULP energy per Si atom -5577.811750 kJ/mol
# Density = 1.851348 g / cm^3
# Si number density = 18.555710 Si / 1000 Ang^3
#
#
#
# Elastic Constant Matrix: (Units=GPa)
#
#
# Indices 1 2 3 4 5 6 
#
# 1 155.0736 50.3160 30.7496 0.0000 0.0000 0.0000
# 2 50.3160 131.9460 29.2313 0.0000 0.0000 0.0000
# 3 30.7496 29.2313 76.7957 0.0000 0.0000 0.0000
# 4 0.0000 0.0000 0.0000 21.4763 0.0000 0.0000
# 5 0.0000 0.0000 0.0000 0.0000 40.7943 0.0000
# 6 0.0000 0.0000 0.0000 0.0000 0.0000 34.1376
#
#
#
# Elastic Compliance Matrix: (Units=1/GPa)
#
#
# Indices 1 2 3 4 5 6 
#
# 1 0.007667 -0.002450 -0.002137 0.000000 0.000000 0.000000
# 2 -0.002450 0.009060 -0.002467 0.000000 0.000000 0.000000
# 3 -0.002137 -0.002467 0.014817 0.000000 0.000000 0.000000
# 4 0.000000 0.000000 0.000000 0.046563 0.000000 0.000000
# 5 0.000000 0.000000 0.000000 0.000000 0.024513 0.000000
# 6 0.000000 0.000000 0.000000 0.000000 0.000000 0.029293
#
#
# Mechanical properties :
#
#
# Convention : Reuss Voigt Hill
#
# Bulk Modulus (GPa) = 57.36051 64.93435 61.14743
# Shear Modulus (GPa) = 32.93052 36.18286 34.55669
#
# Velocity S-wave (km/s) = 4.21727 4.42062 4.32014
# Velocity P-wave (km/s) = 7.39551 7.81832 7.60985
#
# Compressibility (1/GPa) = 0.01743360
#
# Stress axis : x y z
#
# Youngs Moduli (GPa) = 130.42169 110.37653 67.49197
#
# Poissons Ratio (x) = 0.27046 0.14426
# Poissons Ratio (y) = 0.31958 0.16653
# Poissons Ratio (z) = 0.27876 0.27234
#
# Static dielectric constant tensor:
#      x y z
#    x 1.612150 0.000000 0.000000 
#    y 0.000000 1.601210 0.000000 
#    z 0.000000 0.000000 1.652480 
# 
# From -- ./inp_files/73331.got.cif
#   From: 2010.05.17/outbox.cif.g08.bks.cpg/sg63_37_cif.got.tgz:73331.got - 2010.06.03 15:47:04.
