data_PCOD9474153
_publ_section_title
;
Structure prediction by ZEFSAII (Michael W. Deem and Ramdas Pophale) SiO2 
 PCOD9474153
Probable space group: C M C M
;
_chemical_formula_sum "Si O2"
_cell_formula_units_Z 56
_cell_length_a 34.643782
_cell_length_b 5.008230
_cell_length_c 15.324464
_cell_angle_alpha 90.000000
_cell_angle_beta 90.000000
_cell_angle_gamma 90.000000
_cell_volume 2658.856236
_symmetry_space_group_name_H-M "C M C M"
_symmetry_group_IT_number 63
_symmetry_cell_setting 'orthorhombic'
loop_
_space_group_symop_operation_xyz
x,y,z
-x,-y,1/2+z
x,-y,-z
-x,y,1/2-z
-x,-y,-z
x,y,1/2-z
-x,y,z
x,-y,1/2+z
1/2+x,1/2+y,z
1/2-x,1/2-y,1/2+z
1/2+x,1/2-y,-z
1/2-x,1/2+y,1/2-z
1/2-x,1/2-y,-z
1/2+x,1/2+y,1/2-z
1/2-x,1/2+y,z
1/2+x,1/2-y,1/2+z
loop_
_atom_site_type_symbol
_atom_site_label
_atom_site_fract_x
_atom_site_fract_y
_atom_site_fract_z
Si Si1 0.776368 0.645783 0.750000
Si Si2 0.042952 0.746499 0.062617
Si Si3 0.881136 0.935530 0.150501
Si Si4 0.665471 0.918718 0.403514
O O1 0.758779 0.350980 0.750000
O O2 0.802042 0.682385 0.836758
O O3 0.076632 0.821995 0.128733
O O4 0.000000 0.693177 0.100284
O O5 0.053461 0.500000 0.000000
O O6 0.040018 0.000000 0.000000
O O7 0.879757 0.031100 0.250000
O O8 0.852882 0.685607 0.136979
O O9 0.866724 0.184179 0.092149
O O10 0.679145 0.000000 0.500000
#
# Coordination Sequence:
#
# PCOD9474153 Si02
#       4
#     8  16  16  16
#     4  12  26  46  70  98 135 162 209 274 336 402
#     4  10  21  37  58  89 129 172 219 269 321 376
#     4  12  22  40  65  95 132 171 225 277 320 383
#     4  12  25  44  69  98 130 173 219 266 331 399
#
# _framework density 21.061686999999999
#
# number of rings (size 3 to 8) (size 9 to 14) (size 15 to 20)
#    0.000    0.571    2.857    6.857    0.000    1.714 
#    0.000    0.000    0.000    8.571    0.000    0.000 
#    0.000    0.000    0.000    0.000    0.000    0.000 
#
# Total GULP energy -156595.596979 kJ/mol
# GULP energy per Si atom -5592.699892 kJ/mol
# Density = 2.101375 g / cm^3
# Si number density = 21.061687 Si / 1000 Ang^3
#
#
#
# Elastic Constant Matrix: (Units=GPa)
#
#
# Indices 1 2 3 4 5 6 
#
# 1 84.0944 -2.6664 40.3590 0.0000 0.0000 0.0000
# 2 -2.6664 103.3540 2.5486 0.0000 0.0000 0.0000
# 3 40.3590 2.5486 104.3960 0.0000 0.0000 0.0000
# 4 0.0000 0.0000 0.0000 28.5074 0.0000 0.0000
# 5 0.0000 0.0000 0.0000 0.0000 29.4946 0.0000
# 6 0.0000 0.0000 0.0000 0.0000 0.0000 36.7907
#
#
#
# Elastic Compliance Matrix: (Units=1/GPa)
#
#
# Indices 1 2 3 4 5 6 
#
# 1 0.014628 0.000517 -0.005668 0.000000 0.000000 0.000000
# 2 0.000517 0.009700 -0.000437 0.000000 0.000000 0.000000
# 3 -0.005668 -0.000437 0.011781 0.000000 0.000000 0.000000
# 4 0.000000 0.000000 0.000000 0.035079 0.000000 0.000000
# 5 0.000000 0.000000 0.000000 0.000000 0.033905 0.000000
# 6 0.000000 0.000000 0.000000 0.000000 0.000000 0.027181
#
#
# Mechanical properties :
#
#
# Convention : Reuss Voigt Hill
#
# Bulk Modulus (GPa) = 40.10652 41.36963 40.73807
# Shear Modulus (GPa) = 32.94724 35.73209 34.33966
#
# Velocity S-wave (km/s) = 3.95944 4.12338 4.04224
# Velocity P-wave (km/s) = 6.32350 6.50803 6.41643
#
# Compressibility (1/GPa) = 0.02493360
#
# Stress axis : x y z
#
# Youngs Moduli (GPa) = 68.36271 103.09710 84.88477
#
# Poissons Ratio (x) = -0.05332 0.48110
# Poissons Ratio (y) = -0.03535 0.03707
# Poissons Ratio (z) = 0.38746 0.04502
#
# Static dielectric constant tensor:
#      x y z
#    x 1.792770 0.000000 0.000000 
#    y 0.000000 1.697190 0.000000 
#    z 0.000000 0.000000 1.736920 
# 
# From -- ./inp_files/38194.got.cif
#   From: 2010.05.17/outbox.cif.g08.bks.cpg/sg63_20_cif.got.tgz:38194.got - 2010.06.03 15:47:04.
