data_PCOD9474043
_publ_section_title
;
Structure prediction by ZEFSAII (Michael W. Deem and Ramdas Pophale) SiO2 
 PCOD9474043
Probable space group: C M C M
;
_chemical_formula_sum "Si O2"
_cell_formula_units_Z 80
_cell_length_a 9.419467
_cell_length_b 25.733451
_cell_length_c 19.857008
_cell_angle_alpha 90.000000
_cell_angle_beta 90.000000
_cell_angle_gamma 90.000000
_cell_volume 4813.247248
_symmetry_space_group_name_H-M "C M C M"
_symmetry_group_IT_number 63
_symmetry_cell_setting 'orthorhombic'
loop_
_space_group_symop_operation_xyz
x,y,z
-x,-y,1/2+z
x,-y,-z
-x,y,1/2-z
-x,-y,-z
x,y,1/2-z
-x,y,z
x,-y,1/2+z
1/2+x,1/2+y,z
1/2-x,1/2-y,1/2+z
1/2+x,1/2-y,-z
1/2-x,1/2+y,1/2-z
1/2-x,1/2-y,-z
1/2+x,1/2+y,1/2-z
1/2-x,1/2+y,z
1/2+x,1/2-y,1/2+z
loop_
_atom_site_type_symbol
_atom_site_label
_atom_site_fract_x
_atom_site_fract_y
_atom_site_fract_z
Si Si1 0.833444 0.888803 0.055025
Si Si2 0.336586 0.011527 0.580699
Si Si3 0.332872 0.411165 0.896831
Si Si4 0.332857 0.696864 0.170502
Si Si5 0.829783 0.231405 0.932550
O O1 0.741376 0.933576 0.089473
O O2 0.802395 0.830058 0.076641
O O3 0.000000 0.899533 0.066372
O O4 0.809996 0.892713 0.974206
O O5 0.500000 0.014040 0.600940
O O6 0.331046 0.000000 0.500000
O O7 0.256648 0.963110 0.614279
O O8 0.500000 0.423037 0.889757
O O9 0.297584 0.362451 0.849833
O O10 0.317894 0.704396 0.250000
O O11 0.500000 0.704490 0.152131
O O12 0.234987 0.735344 0.128099
O O13 0.000000 0.238407 0.939149
O O14 0.750000 0.250000 0.000000
#
# Coordination Sequence:
#
# PCOD9474043 Si02
#       5
#    16  16  16  16  16
#     4   9  17  30  48  72 101 135 169 209 259 312
#     4   9  17  27  43  72 102 128 161 206 256 303
#     4   9  16  30  49  70 100 136 170 206 255 314
#     4  10  21  37  55  77 107 143 181 219 266 323
#     4  11  21  34  54  79 108 140 181 225 269 318
#
# _framework density 16.620795999999999
#
# number of rings (size 3 to 8) (size 9 to 14) (size 15 to 20)
#    0.000    2.400    2.000    1.200    0.000    5.200 
#    0.000    0.000    0.000    1.200    0.000    2.800 
#    0.000    0.000    0.000    0.000    0.000    0.000 
#
# Total GULP energy -223054.053952 kJ/mol
# GULP energy per Si atom -5576.351349 kJ/mol
# Density = 1.658297 g / cm^3
# Si number density = 16.620796 Si / 1000 Ang^3
#
#
#
# Elastic Constant Matrix: (Units=GPa)
#
#
# Indices 1 2 3 4 5 6 
#
# 1 95.2040 100.6293 42.7949 0.0000 0.0000 0.0000
# 2 100.6293 156.4613 46.6014 0.0000 0.0000 0.0000
# 3 42.7949 46.6014 43.6128 0.0000 0.0000 0.0000
# 4 0.0000 0.0000 0.0000 17.7696 0.0000 0.0000
# 5 0.0000 0.0000 0.0000 0.0000 16.9223 0.0000
# 6 0.0000 0.0000 0.0000 0.0000 0.0000 36.4527
#
#
#
# Elastic Compliance Matrix: (Units=1/GPa)
#
#
# Indices 1 2 3 4 5 6 
#
# 1 0.040075 -0.020627 -0.017283 0.000000 0.000000 0.000000
# 2 -0.020627 0.019992 -0.001122 0.000000 0.000000 0.000000
# 3 -0.017283 -0.001122 0.041087 0.000000 0.000000 0.000000
# 4 0.000000 0.000000 0.000000 0.056276 0.000000 0.000000
# 5 0.000000 0.000000 0.000000 0.000000 0.059094 0.000000
# 6 0.000000 0.000000 0.000000 0.000000 0.000000 0.027433
#
#
# Mechanical properties :
#
#
# Convention : Reuss Voigt Hill
#
# Bulk Modulus (GPa) = 43.30873 75.03660 59.17266
# Shear Modulus (GPa) = 15.16463 21.24576 18.20519
#
# Velocity S-wave (km/s) = 3.02385 3.57916 3.31316
# Velocity P-wave (km/s) = 6.18911 7.89460 7.09330
#
# Compressibility (1/GPa) = 0.02309003
#
# Stress axis : x y z
#
# Youngs Moduli (GPa) = 24.95343 50.02077 24.33889
#
# Poissons Ratio (x) = 1.03176 0.42065
# Poissons Ratio (y) = 0.51471 0.02730
# Poissons Ratio (z) = 0.43127 0.05611
#
# Static dielectric constant tensor:
#      x y z
#    x 1.557680 0.000000 0.000000 
#    y 0.000000 1.550630 0.000000 
#    z 0.000000 0.000000 1.547900 
# 
# From -- ./inp_files/40516.got.cif
#   From: 2010.05.17/outbox.cif.g08.bks.cpg/sg63_21_cif.got.tgz:40516.got - 2010.06.03 15:47:04.
