data_PCOD9474026
_publ_section_title
;
Structure prediction by ZEFSAII (Michael W. Deem and Ramdas Pophale) SiO2 
 PCOD9474026
Probable space group: C M C M
;
_chemical_formula_sum "Si O2"
_cell_formula_units_Z 80
_cell_length_a 17.674173
_cell_length_b 10.597644
_cell_length_c 25.084595
_cell_angle_alpha 90.000000
_cell_angle_beta 90.000000
_cell_angle_gamma 90.000000
_cell_volume 4698.459868
_symmetry_space_group_name_H-M "C M C M"
_symmetry_group_IT_number 63
_symmetry_cell_setting 'orthorhombic'
loop_
_space_group_symop_operation_xyz
x,y,z
-x,-y,1/2+z
x,-y,-z
-x,y,1/2-z
-x,-y,-z
x,y,1/2-z
-x,y,z
x,-y,1/2+z
1/2+x,1/2+y,z
1/2-x,1/2-y,1/2+z
1/2+x,1/2-y,-z
1/2-x,1/2+y,1/2-z
1/2-x,1/2-y,-z
1/2+x,1/2+y,1/2-z
1/2-x,1/2+y,z
1/2+x,1/2-y,1/2+z
loop_
_atom_site_type_symbol
_atom_site_label
_atom_site_fract_x
_atom_site_fract_y
_atom_site_fract_z
Si Si1 0.682393 0.782329 0.250000
Si Si2 0.907710 0.878079 0.466383
Si Si3 0.588692 0.221801 0.641611
Si Si4 0.588643 0.481806 0.355624
Si Si5 0.812847 0.011592 0.750000
Si Si6 0.407523 0.871788 0.028599
O O1 0.632977 0.797771 0.303621
O O2 0.746019 0.888271 0.250000
O O3 0.710917 0.636468 0.250000
O O4 0.885026 0.896865 0.405050
O O5 0.883079 0.749497 0.494377
O O6 0.000000 0.878982 0.466579
O O7 0.883182 0.000000 0.500000
O O8 0.500000 0.193618 0.650370
O O9 0.593380 0.370834 0.627385
O O10 0.616321 0.144561 0.590097
O O11 0.500000 0.456336 0.344860
O O12 0.636580 0.467355 0.302466
O O13 0.500000 0.870488 0.029479
O O14 0.383221 0.000000 0.000000
#
# Coordination Sequence:
#
# PCOD9474026 Si02
#       6
#     8  16  16  16   8  16
#     4  10  21  37  55  71  97 134 170 208 252 294
#     4   9  14  24  45  73 101 125 153 197 246 290
#     4   9  16  30  54  79  99 126 169 209 240 290
#     4   9  16  29  54  80  98 124 169 213 244 284
#     4  10  21  37  53  71  99 134 168 208 252 298
#     4   9  16  26  43  73 108 131 152 193 251 301
#
# _framework density 17.026857
#
# number of rings (size 3 to 8) (size 9 to 14) (size 15 to 20)
#    0.000    2.800    2.000    0.600    0.000    2.400 
#    3.600    0.000    0.000    3.600    0.000    0.000 
#    0.000    0.000    0.000    0.000    0.000    0.000 
#
# Total GULP energy -222876.052042 kJ/mol
# GULP energy per Si atom -5571.901301 kJ/mol
# Density = 1.698810 g / cm^3
# Si number density = 17.026857 Si / 1000 Ang^3
#
#
#
# Elastic Constant Matrix: (Units=GPa)
#
#
# Indices 1 2 3 4 5 6 
#
# 1 31.7516 37.8722 39.3479 0.0000 0.0000 0.0000
# 2 37.8722 120.6684 88.7269 0.0000 0.0000 0.0000
# 3 39.3479 88.7269 153.7932 0.0000 0.0000 0.0000
# 4 0.0000 0.0000 0.0000 26.8777 0.0000 0.0000
# 5 0.0000 0.0000 0.0000 0.0000 -7.3911 0.0000
# 6 0.0000 0.0000 0.0000 0.0000 0.0000 18.9136
#
#
#
# Elastic Compliance Matrix: (Units=1/GPa)
#
#
# Indices 1 2 3 4 5 6 
#
# 1 0.054432 -0.011886 -0.007069 0.000000 0.000000 0.000000
# 2 -0.011886 0.016988 -0.006760 0.000000 0.000000 0.000000
# 3 -0.007069 -0.006760 0.012211 0.000000 0.000000 0.000000
# 4 0.000000 0.000000 0.000000 0.037206 0.000000 0.000000
# 5 0.000000 0.000000 0.000000 0.000000 -0.135298 0.000000
# 6 0.000000 0.000000 0.000000 0.000000 0.000000 0.052872
#
#
# Mechanical properties :
#
#
# Convention : Reuss Voigt Hill
#
# Bulk Modulus (GPa) = 31.05481 70.90080 50.97781
# Shear Modulus (GPa) = 49.71490 17.03112 33.37301
#
# Velocity S-wave (km/s) = 5.40937 3.16610 4.43202
# Velocity P-wave (km/s) = 7.56924 7.42271 7.49633
#
# Compressibility (1/GPa) = 0.03220113
#
# Stress axis : x y z
#
# Youngs Moduli (GPa) = 18.37165 58.86512 81.89461
#
# Poissons Ratio (x) = 0.69965 0.57893
# Poissons Ratio (y) = 0.21836 0.55360
# Poissons Ratio (z) = 0.12987 0.39792
#
# Static dielectric constant tensor:
#      x y z
#    x 1.557190 0.000000 0.000000 
#    y 0.000000 1.570900 0.000000 
#    z 0.000000 0.000000 1.575700 
# 
# From -- ./inp_files/62605.got.cif
#   From: 2010.05.17/outbox.cif.g08.bks.cpg/sg63_32_cif.got.tgz:62605.got - 2010.06.03 15:47:04.
