data_PCOD9474784
_publ_section_title
;
Structure prediction by ZEFSAII (Michael W. Deem and Ramdas Pophale) SiO2 
 PCOD9474784
Probable space group: C M C M
;
_chemical_formula_sum "Si O2"
_cell_formula_units_Z 80
_cell_length_a 17.507476
_cell_length_b 12.663354
_cell_length_c 16.716793
_cell_angle_alpha 90.000000
_cell_angle_beta 90.000000
_cell_angle_gamma 90.000000
_cell_volume 3706.169281
_symmetry_space_group_name_H-M "C M C M"
_symmetry_group_IT_number 63
_symmetry_cell_setting 'orthorhombic'
loop_
_space_group_symop_operation_xyz
x,y,z
-x,-y,1/2+z
x,-y,-z
-x,y,1/2-z
-x,-y,-z
x,y,1/2-z
-x,y,z
x,-y,1/2+z
1/2+x,1/2+y,z
1/2-x,1/2-y,1/2+z
1/2+x,1/2-y,-z
1/2-x,1/2+y,1/2-z
1/2-x,1/2-y,-z
1/2+x,1/2+y,1/2-z
1/2-x,1/2+y,z
1/2+x,1/2-y,1/2+z
loop_
_atom_site_type_symbol
_atom_site_label
_atom_site_fract_x
_atom_site_fract_y
_atom_site_fract_z
Si Si1 0.586633 0.530501 0.090732
Si Si2 0.147047 0.827321 0.341206
Si Si3 0.801853 0.451726 0.386503
Si Si4 0.907914 0.158833 0.250000
Si Si5 0.409761 0.090784 0.750000
Si Si6 0.692357 0.834612 0.537903
O O1 0.500000 0.568450 0.074809
O O2 0.588738 0.418235 0.134932
O O3 0.617533 0.607013 0.163930
O O4 0.618685 0.500000 0.000000
O O5 0.140296 0.794633 0.250000
O O6 0.230379 0.883777 0.354129
O O7 0.141055 0.730644 0.401832
O O8 0.868180 0.463023 0.323713
O O9 0.772096 0.565867 0.415104
O O10 0.840742 0.390096 0.460052
O O11 0.889652 0.283412 0.250000
O O12 0.000000 0.146250 0.250000
O O13 0.500000 0.081364 0.750000
O O14 0.750000 0.750000 0.500000
#
# Coordination Sequence:
#
# PCOD9474784 Si02
#       6
#    16  16  16   8   8  16
#     4  10  22  38  59  89 127 165 208 263 324 386
#     4  11  22  36  61  95 122 162 203 260 325 379
#     4  10  22  43  61  92 124 163 214 259 312 382
#     4   9  20  39  59  87 123 166 215 262 320 393
#     4  11  24  41  65  91 126 170 217 266 317 377
#     4   9  22  40  64  91 125 159 206 259 314 382
#
# _framework density 21.585629999999998
#
# number of rings (size 3 to 8) (size 9 to 14) (size 15 to 20)
#    0.000    2.000    2.000    0.000    9.800    1.600 
#    0.000    3.000    0.000    0.000    0.000    0.000 
#    0.000    0.000    0.000    0.000    0.000    0.000 
#
# Total GULP energy -222750.716443 kJ/mol
# GULP energy per Si atom -5568.767911 kJ/mol
# Density = 2.153650 g / cm^3
# Si number density = 21.585630 Si / 1000 Ang^3
#
#
#
# Elastic Constant Matrix: (Units=GPa)
#
#
# Indices 1 2 3 4 5 6 
#
# 1 54.6031 6.3530 28.1705 0.0000 0.0000 0.0000
# 2 6.3530 76.6245 37.7925 0.0000 0.0000 0.0000
# 3 28.1705 37.7925 154.1010 0.0000 0.0000 0.0000
# 4 0.0000 0.0000 0.0000 20.7289 0.0000 0.0000
# 5 0.0000 0.0000 0.0000 0.0000 12.6328 0.0000
# 6 0.0000 0.0000 0.0000 0.0000 0.0000 16.3740
#
#
#
# Elastic Compliance Matrix: (Units=1/GPa)
#
#
# Indices 1 2 3 4 5 6 
#
# 1 0.020223 0.000167 -0.003738 0.000000 0.000000 0.000000
# 2 0.000167 0.014848 -0.003672 0.000000 0.000000 0.000000
# 3 -0.003738 -0.003672 0.008073 0.000000 0.000000 0.000000
# 4 0.000000 0.000000 0.000000 0.048242 0.000000 0.000000
# 5 0.000000 0.000000 0.000000 0.000000 0.079159 0.000000
# 6 0.000000 0.000000 0.000000 0.000000 0.000000 0.061072
#
#
# Mechanical properties :
#
#
# Convention : Reuss Voigt Hill
#
# Bulk Modulus (GPa) = 34.89400 47.77338 41.33369
# Shear Modulus (GPa) = 19.55755 24.14797 21.85276
#
# Velocity S-wave (km/s) = 3.01332 3.34833 3.18524
# Velocity P-wave (km/s) = 5.32046 6.09332 5.71996
#
# Compressibility (1/GPa) = 0.02865823
#
# Stress axis : x y z
#
# Youngs Moduli (GPa) = 49.44884 67.34987 123.86909
#
# Poissons Ratio (x) = -0.01124 0.46299
# Poissons Ratio (y) = -0.00825 0.45483
# Poissons Ratio (z) = 0.18483 0.24730
#
# Static dielectric constant tensor:
#      x y z
#    x 1.775480 0.000000 0.000000 
#    y 0.000000 1.794950 0.000000 
#    z 0.000000 0.000000 1.939820 
# 
# From -- ./inp_files/46855.got.cif
#   From: 2010.05.17/outbox.cif.g08.bks.cpg/sg63_24_cif.got.tgz:46855.got - 2010.06.03 15:47:04.
