data_PCOD9474450
_publ_section_title
;
Structure prediction by ZEFSAII (Michael W. Deem and Ramdas Pophale) SiO2 
 PCOD9474450
Probable space group: C M C M
;
_chemical_formula_sum "Si O2"
_cell_formula_units_Z 80
_cell_length_a 13.437135
_cell_length_b 13.590648
_cell_length_c 19.889173
_cell_angle_alpha 90.000000
_cell_angle_beta 90.000000
_cell_angle_gamma 90.000000
_cell_volume 3632.148281
_symmetry_space_group_name_H-M "C M C M"
_symmetry_group_IT_number 63
_symmetry_cell_setting 'orthorhombic'
loop_
_space_group_symop_operation_xyz
x,y,z
-x,-y,1/2+z
x,-y,-z
-x,y,1/2-z
-x,-y,-z
x,y,1/2-z
-x,y,z
x,-y,1/2+z
1/2+x,1/2+y,z
1/2-x,1/2-y,1/2+z
1/2+x,1/2-y,-z
1/2-x,1/2+y,1/2-z
1/2-x,1/2-y,-z
1/2+x,1/2+y,1/2-z
1/2-x,1/2+y,z
1/2+x,1/2-y,1/2+z
loop_
_atom_site_type_symbol
_atom_site_label
_atom_site_fract_x
_atom_site_fract_y
_atom_site_fract_z
Si Si1 0.108292 0.735465 0.466135
Si Si2 0.788823 0.537045 0.326109
Si Si3 0.890028 0.336879 0.169188
Si Si4 0.200330 0.903140 0.544209
Si Si5 0.826627 0.756452 0.174375
O O1 0.124345 0.818638 0.522219
O O2 0.193882 0.652698 0.469658
O O3 0.119593 0.789712 0.393309
O O4 0.000000 0.690289 0.470863
O O5 0.754310 0.515630 0.250000
O O6 0.856486 0.447071 0.350655
O O7 0.702679 0.558362 0.379436
O O8 0.847382 0.639861 0.322702
O O9 0.898873 0.337873 0.250000
O O10 0.791004 0.272286 0.158217
O O11 0.000000 0.311207 0.142543
O O12 0.190055 0.000000 0.500000
O O13 0.846502 0.795952 0.250000
#
# Coordination Sequence:
#
# PCOD9474450 Si02
#       5
#    16  16  16  16  16
#     4  10  22  39  58  83 114 150 195 238 280 339
#     4   9  18  33  54  81 113 146 182 227 277 331
#     4   9  17  31  55  86 116 147 184 228 281 337
#     4  10  21  39  59  82 113 149 189 232 285 341
#     4   9  18  34  56  84 119 152 186 235 287 332
#
# _framework density 22.025531999999998
#
# number of rings (size 3 to 8) (size 9 to 14) (size 15 to 20)
#    0.000    2.600    0.000    1.200    0.000    4.400 
#    0.000   19.000    0.000    3.000    0.000    5.600 
#    0.000    0.000    0.000    0.000    0.000    0.000 
#
# Total GULP energy -222848.267242 kJ/mol
# GULP energy per Si atom -5571.206681 kJ/mol
# Density = 2.197540 g / cm^3
# Si number density = 22.025532 Si / 1000 Ang^3
#
#
#
# Elastic Constant Matrix: (Units=GPa)
#
#
# Indices 1 2 3 4 5 6 
#
# 1 64.8423 14.8948 -27.7618 0.0000 0.0000 0.0000
# 2 14.8948 57.0466 -20.4472 0.0000 0.0000 0.0000
# 3 -27.7618 -20.4472 85.9956 0.0000 0.0000 0.0000
# 4 0.0000 0.0000 0.0000 24.8351 0.0000 0.0000
# 5 0.0000 0.0000 0.0000 0.0000 13.8429 0.0000
# 6 0.0000 0.0000 0.0000 0.0000 0.0000 1.9791
#
#
#
# Elastic Compliance Matrix: (Units=1/GPa)
#
#
# Indices 1 2 3 4 5 6 
#
# 1 0.018328 -0.002913 0.005224 0.000000 0.000000 0.000000
# 2 -0.002913 0.019626 0.003726 0.000000 0.000000 0.000000
# 3 0.005224 0.003726 0.014201 0.000000 0.000000 0.000000
# 4 0.000000 0.000000 0.000000 0.040266 0.000000 0.000000
# 5 0.000000 0.000000 0.000000 0.000000 0.072239 0.000000
# 6 0.000000 0.000000 0.000000 0.000000 0.000000 0.505291
#
#
# Mechanical properties :
#
#
# Convention : Reuss Voigt Hill
#
# Bulk Modulus (GPa) = 15.56929 15.69510 15.63220
# Shear Modulus (GPa) = 7.36068 24.21133 15.78601
#
# Velocity S-wave (km/s) = 1.83007 3.31907 2.68006
# Velocity P-wave (km/s) = 3.39847 4.67222 4.08530
#
# Compressibility (1/GPa) = 0.06422899
#
# Stress axis : x y z
#
# Youngs Moduli (GPa) = 54.56184 50.95386 70.41786
#
# Poissons Ratio (x) = 0.14842 -0.36787
# Poissons Ratio (y) = 0.15893 -0.26238
# Poissons Ratio (z) = -0.28504 -0.18986
#
# Static dielectric constant tensor:
#      x y z
#    x 1.800750 0.000000 0.000000 
#    y 0.000000 1.815220 0.000000 
#    z 0.000000 0.000000 1.912380 
# 
# From -- ./inp_files/61097.got.cif
#   From: 2010.05.17/outbox.cif.g08.bks.cpg/sg63_31_cif.got.tgz:61097.got - 2010.06.03 15:47:04.
