data_PCOD9474897
_publ_section_title
;
Structure prediction by ZEFSAII (Michael W. Deem and Ramdas Pophale) SiO2 
 PCOD9474897
Probable space group: C M C M
;
_chemical_formula_sum "Si O2"
_cell_formula_units_Z 96
_cell_length_a 13.939485
_cell_length_b 15.099728
_cell_length_c 22.283067
_cell_angle_alpha 90.000000
_cell_angle_beta 90.000000
_cell_angle_gamma 90.000000
_cell_volume 4690.194134
_symmetry_space_group_name_H-M "C M C M"
_symmetry_group_IT_number 63
_symmetry_cell_setting 'orthorhombic'
loop_
_space_group_symop_operation_xyz
x,y,z
-x,-y,1/2+z
x,-y,-z
-x,y,1/2-z
-x,-y,-z
x,y,1/2-z
-x,y,z
x,-y,1/2+z
1/2+x,1/2+y,z
1/2-x,1/2-y,1/2+z
1/2+x,1/2-y,-z
1/2-x,1/2+y,1/2-z
1/2-x,1/2-y,-z
1/2+x,1/2+y,1/2-z
1/2-x,1/2+y,z
1/2+x,1/2-y,1/2+z
loop_
_atom_site_type_symbol
_atom_site_label
_atom_site_fract_x
_atom_site_fract_y
_atom_site_fract_z
Si Si1 0.383816 0.616909 0.947956
Si Si2 0.612620 0.208778 0.124192
Si Si3 0.115658 0.920520 0.582096
Si Si4 0.301756 0.296305 0.683991
Si Si5 0.614207 0.981644 0.932868
Si Si6 0.383733 0.098699 0.681803
O O1 0.500000 0.616195 0.949364
O O2 0.356502 0.704539 0.912887
O O3 0.356207 0.523923 0.917785
O O4 0.353337 0.616326 0.017150
O O5 0.500000 0.215158 0.140502
O O6 0.686777 0.203091 0.178343
O O7 0.624553 0.121193 0.083915
O O8 0.158750 0.862383 0.634332
O O9 0.000000 0.916176 0.585193
O O10 0.332916 0.324674 0.750000
O O11 0.341643 0.197176 0.674236
O O12 0.500000 0.000713 0.936247
O O13 0.647075 0.038308 0.874720
O O14 0.653224 0.000000 0.000000
O O15 0.356953 0.067630 0.750000
O O16 0.500000 0.103134 0.680879
#
# Coordination Sequence:
#
# PCOD9474897 Si02
#       6
#    16  16  16  16  16  16
#     4   8  17  36  61  88 117 152 189 232 296 354
#     4  10  22  40  58  80 115 156 198 245 290 342
#     4   9  18  36  62  90 120 149 184 238 296 354
#     4  11  24  38  57  87 117 156 202 239 285 346
#     4   9  19  36  59  87 116 150 194 243 292 345
#     4   9  19  37  59  84 118 156 193 240 298 352
#
# _framework density 20.468236000000001
#
# number of rings (size 3 to 8) (size 9 to 14) (size 15 to 20)
#    0.000    2.667    0.000    1.500    2.333    4.000 
#    3.000    4.167    0.000    3.000    0.000    0.000 
#    0.000    0.000    0.000    0.000    0.000    0.000 
#
# Total GULP energy -267920.928217 kJ/mol
# GULP energy per Si atom -5581.686005 kJ/mol
# Density = 2.042165 g / cm^3
# Si number density = 20.468236 Si / 1000 Ang^3
#
#
#
# Elastic Constant Matrix: (Units=GPa)
#
#
# Indices 1 2 3 4 5 6 
#
# 1 71.0888 10.6282 36.8071 0.0000 0.0000 0.0000
# 2 10.6282 93.3765 90.4485 0.0000 0.0000 0.0000
# 3 36.8071 90.4485 157.1532 0.0000 0.0000 0.0000
# 4 0.0000 0.0000 0.0000 28.7259 0.0000 0.0000
# 5 0.0000 0.0000 0.0000 0.0000 19.6644 0.0000
# 6 0.0000 0.0000 0.0000 0.0000 0.0000 -17.9341
#
#
#
# Elastic Compliance Matrix: (Units=1/GPa)
#
#
# Indices 1 2 3 4 5 6 
#
# 1 0.016730 0.004274 -0.006378 0.000000 0.000000 0.000000
# 2 0.004274 0.025294 -0.015559 0.000000 0.000000 0.000000
# 3 -0.006378 -0.015559 0.016812 0.000000 0.000000 0.000000
# 4 0.000000 0.000000 0.000000 0.034812 0.000000 0.000000
# 5 0.000000 0.000000 0.000000 0.000000 0.050853 0.000000
# 6 0.000000 0.000000 0.000000 0.000000 0.000000 -0.055760
#
#
# Mechanical properties :
#
#
# Convention : Reuss Voigt Hill
#
# Bulk Modulus (GPa) = 42.53516 66.37623 54.45570
# Shear Modulus (GPa) = 37.90657 18.34024 28.12340
#
# Velocity S-wave (km/s) = 4.30812 2.99663 3.71078
# Velocity P-wave (km/s) = 6.75076 6.66876 6.70988
#
# Compressibility (1/GPa) = 0.02350996
#
# Stress axis : x y z
#
# Youngs Moduli (GPa) = 59.77151 39.53573 59.48222
#
# Poissons Ratio (x) = -0.16898 0.37940
# Poissons Ratio (y) = -0.25547 0.92546
# Poissons Ratio (z) = 0.38124 0.61512
#
# Static dielectric constant tensor:
#      x y z
#    x 1.756300 0.000000 0.000000 
#    y 0.000000 1.698610 0.000000 
#    z 0.000000 0.000000 1.719790 
# 
# From -- ./inp_files/54141.got.cif
#   From: 2010.05.17/outbox.cif.g08.bks.cpg/sg63_28_cif.got.tgz:54141.got - 2010.06.03 15:47:04.
