data_PCOD9474278
_publ_section_title
;
Structure prediction by ZEFSAII (Michael W. Deem and Ramdas Pophale) SiO2 
 PCOD9474278
Probable space group: C M C M
;
_chemical_formula_sum "Si O2"
_cell_formula_units_Z 80
_cell_length_a 28.654992
_cell_length_b 9.159124
_cell_length_c 14.178924
_cell_angle_alpha 90.000000
_cell_angle_beta 90.000000
_cell_angle_gamma 90.000000
_cell_volume 3721.324181
_symmetry_space_group_name_H-M "C M C M"
_symmetry_group_IT_number 63
_symmetry_cell_setting 'orthorhombic'
loop_
_space_group_symop_operation_xyz
x,y,z
-x,-y,1/2+z
x,-y,-z
-x,y,1/2-z
-x,-y,-z
x,y,1/2-z
-x,y,z
x,-y,1/2+z
1/2+x,1/2+y,z
1/2-x,1/2-y,1/2+z
1/2+x,1/2-y,-z
1/2-x,1/2+y,1/2-z
1/2-x,1/2-y,-z
1/2+x,1/2+y,1/2-z
1/2-x,1/2+y,z
1/2+x,1/2-y,1/2+z
loop_
_atom_site_type_symbol
_atom_site_label
_atom_site_fract_x
_atom_site_fract_y
_atom_site_fract_z
Si Si1 0.809542 0.630432 0.136055
Si Si2 0.096123 0.350091 0.973650
Si Si3 0.868045 0.150055 0.143634
Si Si4 0.948311 0.930296 0.395975
Si Si5 0.780659 0.043404 0.864114
O O1 0.814538 0.628567 0.250000
O O2 0.858452 0.606116 0.086245
O O3 0.770178 0.513582 0.109275
O O4 0.791959 0.792127 0.107230
O O5 0.066644 0.236305 0.911950
O O6 0.070728 0.500000 0.000000
O O7 0.113349 0.265549 0.067829
O O8 0.860368 0.209589 0.250000
O O9 0.820867 0.071369 0.107896
O O10 0.906776 0.021890 0.150171
O O11 0.000000 0.943882 0.354510
O O12 0.950719 0.000000 0.500000
O O13 0.782226 0.042825 0.750000
#
# Coordination Sequence:
#
# PCOD9474278 Si02
#       5
#    16  16  16  16  16
#     4  10  21  38  58  84 122 165 208 254 305 363
#     4  11  24  38  57  93 126 163 203 246 311 372
#     4  10  21  40  61  86 121 160 209 260 302 360
#     4   9  19  39  65  87 113 151 199 252 304 361
#     4   9  19  35  57  83 116 159 203 252 305 353
#
# _framework density 21.497726
#
# number of rings (size 3 to 8) (size 9 to 14) (size 15 to 20)
#    0.000    2.200    2.000    0.000    2.800    2.400 
#    0.000    0.000    0.000    0.000    0.000    2.800 
#    0.000    0.000    0.000    0.000    0.000    0.000 
#
# Total GULP energy -223562.431363 kJ/mol
# GULP energy per Si atom -5589.060784 kJ/mol
# Density = 2.144880 g / cm^3
# Si number density = 21.497726 Si / 1000 Ang^3
#
#
#
# Elastic Constant Matrix: (Units=GPa)
#
#
# Indices 1 2 3 4 5 6 
#
# 1 81.8976 -1.4563 1.7102 0.0000 0.0000 0.0000
# 2 -1.4563 80.4863 1.7016 0.0000 0.0000 0.0000
# 3 1.7102 1.7016 83.8778 0.0000 0.0000 0.0000
# 4 0.0000 0.0000 0.0000 21.2029 0.0000 0.0000
# 5 0.0000 0.0000 0.0000 0.0000 14.7700 0.0000
# 6 0.0000 0.0000 0.0000 0.0000 0.0000 19.9634
#
#
#
# Elastic Compliance Matrix: (Units=1/GPa)
#
#
# Indices 1 2 3 4 5 6 
#
# 1 0.012220 0.000226 -0.000254 0.000000 0.000000 0.000000
# 2 0.000226 0.012434 -0.000257 0.000000 0.000000 0.000000
# 3 -0.000254 -0.000257 0.011932 0.000000 0.000000 0.000000
# 4 0.000000 0.000000 0.000000 0.047163 0.000000 0.000000
# 5 0.000000 0.000000 0.000000 0.000000 0.067705 0.000000
# 6 0.000000 0.000000 0.000000 0.000000 0.000000 0.050092
#
#
# Mechanical properties :
#
#
# Convention : Reuss Voigt Hill
#
# Bulk Modulus (GPa) = 27.76396 27.79696 27.78046
# Shear Modulus (GPa) = 23.35138 27.47434 25.41286
#
# Velocity S-wave (km/s) = 3.29937 3.57881 3.44193
# Velocity P-wave (km/s) = 5.23997 5.48046 5.36156
#
# Compressibility (1/GPa) = 0.03601792
#
# Stress axis : x y z
#
# Youngs Moduli (GPa) = 81.83508 80.42463 83.80477
#
# Poissons Ratio (x) = -0.01821 0.02127
# Poissons Ratio (y) = -0.01853 0.02153
# Poissons Ratio (z) = 0.02077 0.02066
#
# Static dielectric constant tensor:
#      x y z
#    x 1.748480 0.000000 0.000000 
#    y 0.000000 1.775850 0.000000 
#    z 0.000000 0.000000 1.802080 
# 
# From -- ./inp_files/48810.got.cif
#   From: 2010.05.17/outbox.cif.g08.bks.cpg/sg63_25_cif.got.tgz:48810.got - 2010.06.03 15:47:04.
