data_PCOD9474054
_publ_section_title
;
Structure prediction by ZEFSAII (Michael W. Deem and Ramdas Pophale) SiO2 
 PCOD9474054
Probable space group: C M C M
;
_chemical_formula_sum "Si O2"
_cell_formula_units_Z 80
_cell_length_a 8.129775
_cell_length_b 31.637668
_cell_length_c 14.891095
_cell_angle_alpha 90.000000
_cell_angle_beta 90.000000
_cell_angle_gamma 90.000000
_cell_volume 3830.095694
_symmetry_space_group_name_H-M "C M C M"
_symmetry_group_IT_number 63
_symmetry_cell_setting 'orthorhombic'
loop_
_space_group_symop_operation_xyz
x,y,z
-x,-y,1/2+z
x,-y,-z
-x,y,1/2-z
-x,-y,-z
x,y,1/2-z
-x,y,z
x,-y,1/2+z
1/2+x,1/2+y,z
1/2-x,1/2-y,1/2+z
1/2+x,1/2-y,-z
1/2-x,1/2+y,1/2-z
1/2-x,1/2-y,-z
1/2+x,1/2+y,1/2-z
1/2-x,1/2+y,z
1/2+x,1/2-y,1/2+z
loop_
_atom_site_type_symbol
_atom_site_label
_atom_site_fract_x
_atom_site_fract_y
_atom_site_fract_z
Si Si1 0.303922 0.137408 0.352564
Si Si2 0.298012 0.635818 0.646282
Si Si3 0.304766 0.701762 0.499789
Si Si4 0.309227 0.456662 0.140130
Si Si5 0.301599 0.547286 0.354688
O O1 0.239899 0.140008 0.250000
O O2 0.500000 0.137905 0.349733
O O3 0.243729 0.176468 0.410691
O O4 0.250078 0.092220 0.393803
O O5 0.252209 0.642606 0.750000
O O6 0.500000 0.634254 0.643935
O O7 0.239733 0.673209 0.582250
O O8 0.237769 0.589072 0.616897
O O9 0.500000 0.701644 0.507355
O O10 0.250000 0.750000 0.500000
O O11 0.311323 0.457737 0.250000
O O12 0.500000 0.456138 0.109799
O O13 0.239185 0.501959 0.109911
O O14 0.248469 0.549106 0.250000
O O15 0.500000 0.545479 0.356543
#
# Coordination Sequence:
#
# PCOD9474054 Si02
#       5
#    16  16  16  16  16
#     4  10  21  37  56  77 105 143 183 221 262 310
#     4   8  15  30  53  80 107 135 170 212 259 314
#     4  11  23  38  57  80 106 137 175 223 275 324
#     4   7  10  20  43  75 106 133 164 205 251 302
#     4   8  13  24  47  78 107 134 167 209 256 306
#
# _framework density 20.887205999999999
#
# number of rings (size 3 to 8) (size 9 to 14) (size 15 to 20)
#    0.000    3.200    0.000    3.600    0.000    2.000 
#    0.000    3.000    0.000   10.200    0.000    5.600 
#    0.000    0.000    0.000    0.000    0.000    0.000 
#
# Total GULP energy -222961.446645 kJ/mol
# GULP energy per Si atom -5574.036166 kJ/mol
# Density = 2.083967 g / cm^3
# Si number density = 20.887206 Si / 1000 Ang^3
#
#
#
# Elastic Constant Matrix: (Units=GPa)
#
#
# Indices 1 2 3 4 5 6 
#
# 1 13.5356 22.6150 4.3842 0.0000 0.0000 0.0000
# 2 22.6150 262.3488 81.0795 0.0000 0.0000 0.0000
# 3 4.3842 81.0795 90.5146 0.0000 0.0000 0.0000
# 4 0.0000 0.0000 0.0000 38.7734 0.0000 0.0000
# 5 0.0000 0.0000 0.0000 0.0000 9.5853 0.0000
# 6 0.0000 0.0000 0.0000 0.0000 0.0000 20.5271
#
#
#
# Elastic Compliance Matrix: (Units=1/GPa)
#
#
# Indices 1 2 3 4 5 6 
#
# 1 0.087089 -0.008578 0.003466 0.000000 0.000000 0.000000
# 2 -0.008578 0.006116 -0.005063 0.000000 0.000000 0.000000
# 3 0.003466 -0.005063 0.015415 0.000000 0.000000 0.000000
# 4 0.000000 0.000000 0.000000 0.025791 0.000000 0.000000
# 5 0.000000 0.000000 0.000000 0.000000 0.104327 0.000000
# 6 0.000000 0.000000 0.000000 0.000000 0.000000 0.048716
#
#
# Mechanical properties :
#
#
# Convention : Reuss Voigt Hill
#
# Bulk Modulus (GPa) = 11.32895 64.72851 38.02873
# Shear Modulus (GPa) = 14.82677 30.99850 22.91263
#
# Velocity S-wave (km/s) = 2.66719 3.85657 3.31565
# Velocity P-wave (km/s) = 3.86275 7.13356 5.73622
#
# Compressibility (1/GPa) = 0.08826942
#
# Stress axis : x y z
#
# Youngs Moduli (GPa) = 11.48249 163.50868 64.87111
#
# Poissons Ratio (x) = 1.40264 -0.22483
# Poissons Ratio (y) = 0.09850 0.32843
# Poissons Ratio (z) = -0.03980 0.82782
#
# Static dielectric constant tensor:
#      x y z
#    x 1.756060 0.000000 0.000000 
#    y 0.000000 1.727270 0.000000 
#    z 0.000000 0.000000 1.784160 
# 
# From -- ./inp_files/40407.got.cif
#   From: 2010.05.17/outbox.cif.g08.bks.cpg/sg63_21_cif.got.tgz:40407.got - 2010.06.03 15:47:04.
