data_PCOD9474975
_publ_section_title
;
Structure prediction by ZEFSAII (Michael W. Deem and Ramdas Pophale) SiO2 
 PCOD9474975
Probable space group: C M C M
;
_chemical_formula_sum "Si O2"
_cell_formula_units_Z 52
_cell_length_a 8.252934
_cell_length_b 19.763538
_cell_length_c 14.744394
_cell_angle_alpha 90.000000
_cell_angle_beta 90.000000
_cell_angle_gamma 90.000000
_cell_volume 2404.916448
_symmetry_space_group_name_H-M "C M C M"
_symmetry_group_IT_number 63
_symmetry_cell_setting 'orthorhombic'
loop_
_space_group_symop_operation_xyz
x,y,z
-x,-y,1/2+z
x,-y,-z
-x,y,1/2-z
-x,-y,-z
x,y,1/2-z
-x,y,z
x,-y,1/2+z
1/2+x,1/2+y,z
1/2-x,1/2-y,1/2+z
1/2+x,1/2-y,-z
1/2-x,1/2+y,1/2-z
1/2-x,1/2-y,-z
1/2+x,1/2+y,1/2-z
1/2-x,1/2+y,z
1/2+x,1/2-y,1/2+z
loop_
_atom_site_type_symbol
_atom_site_label
_atom_site_fract_x
_atom_site_fract_y
_atom_site_fract_z
Si Si1 0.500000 0.510380 0.111209
Si Si2 0.825777 0.451992 0.088339
Si Si3 0.315668 0.227283 0.250000
Si Si4 0.500000 0.369337 0.750000
Si Si5 0.812866 0.808519 0.435442
O O1 0.665838 0.474639 0.141304
O O2 0.500000 0.583534 0.159268
O O3 0.500000 0.500000 0.000000
O O4 0.793760 0.375468 0.057412
O O5 0.000000 0.457261 0.135001
O O6 0.832731 0.500000 0.000000
O O7 0.500000 0.196600 0.250000
O O8 0.303897 0.275994 0.336336
O O9 0.164981 0.175265 0.250000
O O10 0.750000 0.750000 0.500000
O O11 0.000000 0.825870 0.455707
#
# Coordination Sequence:
#
# PCOD9474975 Si02
#       5
#     8  16   8   4  16
#     4  10  24  44  68 100 142 177 232 290 338 424
#     4  10  22  40  66  99 136 177 229 278 343 413
#     4  10  28  47  67 107 145 179 243 296 353 431
#     4  12  28  46  78 102 140 192 234 288 368 426
#     4  11  24  43  71 102 142 186 236 296 355 422
#
# _framework density 21.622371999999999
#
# number of rings (size 3 to 8) (size 9 to 14) (size 15 to 20)
#    0.000    1.538    1.538    0.923   12.923    2.462 
#    0.000    1.538    0.000    0.000    0.000    0.000 
#    0.000    0.000    0.000    0.000    0.000    0.000 
#
# Total GULP energy -145199.995267 kJ/mol
# GULP energy per Si atom -5584.615203 kJ/mol
# Density = 2.157316 g / cm^3
# Si number density = 21.622372 Si / 1000 Ang^3
#
#
#
# Elastic Constant Matrix: (Units=GPa)
#
#
# Indices 1 2 3 4 5 6 
#
# 1 227.9909 77.1017 23.9285 0.0000 0.0000 0.0000
# 2 77.1017 144.2362 38.2206 0.0000 0.0000 0.0000
# 3 23.9285 38.2206 114.0769 0.0000 0.0000 0.0000
# 4 0.0000 0.0000 0.0000 24.7574 0.0000 0.0000
# 5 0.0000 0.0000 0.0000 0.0000 1.3236 0.0000
# 6 0.0000 0.0000 0.0000 0.0000 0.0000 48.0744
#
#
#
# Elastic Compliance Matrix: (Units=1/GPa)
#
#
# Indices 1 2 3 4 5 6 
#
# 1 0.005357 -0.002816 -0.000180 0.000000 0.000000 0.000000
# 2 -0.002816 0.009089 -0.002454 0.000000 0.000000 0.000000
# 3 -0.000180 -0.002454 0.009626 0.000000 0.000000 0.000000
# 4 0.000000 0.000000 0.000000 0.040392 0.000000 0.000000
# 5 0.000000 0.000000 0.000000 0.000000 0.755522 0.000000
# 6 0.000000 0.000000 0.000000 0.000000 0.000000 0.020801
#
#
# Mechanical properties :
#
#
# Convention : Reuss Voigt Hill
#
# Bulk Modulus (GPa) = 75.92517 84.97840 80.45179
# Shear Modulus (GPa) = 5.84058 37.96795 21.90426
#
# Velocity S-wave (km/s) = 1.64531 4.19496 3.18628
# Velocity P-wave (km/s) = 6.22895 7.92780 7.12916
#
# Compressibility (1/GPa) = 0.01317086
#
# Stress axis : x y z
#
# Youngs Moduli (GPa) = 186.65833 110.02578 103.88343
#
# Poissons Ratio (x) = 0.30984 0.01873
# Poissons Ratio (y) = 0.52564 0.25498
# Poissons Ratio (z) = 0.03365 0.27005
#
# Static dielectric constant tensor:
#      x y z
#    x 1.843550 0.000000 0.000000 
#    y 0.000000 1.745900 0.000000 
#    z 0.000000 0.000000 1.755630 
# 
# From -- ./inp_files/39532.got.cif
#   From: 2010.05.17/outbox.cif.g08.bks.cpg/sg63_20_cif.got.tgz:39532.got - 2010.06.03 15:47:04.
