data_PCOD9474215
_publ_section_title
;
Structure prediction by ZEFSAII (Michael W. Deem and Ramdas Pophale) SiO2 
 PCOD9474215
Probable space group: C M C M
;
_chemical_formula_sum "Si O2"
_cell_formula_units_Z 60
_cell_length_a 12.211781
_cell_length_b 16.214599
_cell_length_c 14.468578
_cell_angle_alpha 90.000000
_cell_angle_beta 90.000000
_cell_angle_gamma 90.000000
_cell_volume 2864.910571
_symmetry_space_group_name_H-M "C M C M"
_symmetry_group_IT_number 63
_symmetry_cell_setting 'orthorhombic'
loop_
_space_group_symop_operation_xyz
x,y,z
-x,-y,1/2+z
x,-y,-z
-x,y,1/2-z
-x,-y,-z
x,y,1/2-z
-x,y,z
x,-y,1/2+z
1/2+x,1/2+y,z
1/2-x,1/2-y,1/2+z
1/2+x,1/2-y,-z
1/2-x,1/2+y,1/2-z
1/2-x,1/2-y,-z
1/2+x,1/2+y,1/2-z
1/2-x,1/2+y,z
1/2+x,1/2-y,1/2+z
loop_
_atom_site_type_symbol
_atom_site_label
_atom_site_fract_x
_atom_site_fract_y
_atom_site_fract_z
Si Si1 0.375207 0.656241 0.058844
Si Si2 0.000000 0.395553 0.750000
Si Si3 0.334192 0.952933 0.250000
Si Si4 0.879974 0.225395 0.750000
Si Si5 0.125275 0.059192 0.250000
Si Si6 0.213629 0.666334 0.904715
O O1 0.500000 0.638475 0.027557
O O2 0.360249 0.615259 0.158887
O O3 0.358452 0.755308 0.065274
O O4 0.278848 0.627296 0.990516
O O5 0.906417 0.466914 0.750000
O O6 0.906522 0.322004 0.750000
O O7 0.350998 0.897680 0.341171
O O8 0.208615 0.983702 0.250000
O O9 0.809166 0.202101 0.838720
O O10 0.000000 0.184348 0.750000
O O11 0.000000 0.029985 0.250000
#
# Coordination Sequence:
#
# PCOD9474215 Si02
#       6
#    16   4   8   8   8  16
#     4  10  21  38  62  85 116 159 207 254 304 362
#     4  10  22  36  64  92 138 164 198 252 334 374
#     4  11  23  38  61  94 126 159 204 254 321 378
#     4   9  19  37  61  84 121 168 205 246 306 375
#     4  10  22  40  60  84 120 165 201 254 316 366
#     4  10  21  37  61  90 119 156 211 258 293 372
#
# _framework density 20.943062000000001
#
# number of rings (size 3 to 8) (size 9 to 14) (size 15 to 20)
#    0.400    1.600    0.000    4.000    1.867    4.267 
#    0.000    2.667    0.000    4.800    0.000    0.000 
#    0.000    0.000    0.000    0.000    0.000    0.000 
#
# Total GULP energy -167061.854802 kJ/mol
# GULP energy per Si atom -5568.728493 kJ/mol
# Density = 2.089539 g / cm^3
# Si number density = 20.943062 Si / 1000 Ang^3
#
#
#
# Elastic Constant Matrix: (Units=GPa)
#
#
# Indices 1 2 3 4 5 6 
#
# 1 52.2501 -0.5167 3.3521 0.0000 0.0000 0.0000
# 2 -0.5167 63.6482 6.2615 0.0000 0.0000 0.0000
# 3 3.3521 6.2615 77.7856 0.0000 0.0000 0.0000
# 4 0.0000 0.0000 0.0000 -29.8291 0.0000 0.0000
# 5 0.0000 0.0000 0.0000 0.0000 12.8526 0.0000
# 6 0.0000 0.0000 0.0000 0.0000 0.0000 81.0897
#
#
#
# Elastic Compliance Matrix: (Units=1/GPa)
#
#
# Indices 1 2 3 4 5 6 
#
# 1 0.019195 0.000239 -0.000846 0.000000 0.000000 0.000000
# 2 0.000239 0.015840 -0.001285 0.000000 0.000000 0.000000
# 3 -0.000846 -0.001285 0.012996 0.000000 0.000000 0.000000
# 4 0.000000 0.000000 0.000000 -0.033524 0.000000 0.000000
# 5 0.000000 0.000000 0.000000 0.000000 0.077805 0.000000
# 6 0.000000 0.000000 0.000000 0.000000 0.000000 0.012332
#
#
# Mechanical properties :
#
#
# Convention : Reuss Voigt Hill
#
# Bulk Modulus (GPa) = 22.60116 23.54196 23.07156
# Shear Modulus (GPa) = 40.59181 25.12846 32.86014
#
# Velocity S-wave (km/s) = 4.40727 3.46764 3.96539
# Velocity P-wave (km/s) = 6.05920 5.22475 5.65738
#
# Compressibility (1/GPa) = 0.04424552
#
# Stress axis : x y z
#
# Youngs Moduli (GPa) = 52.09588 63.13232 76.94797
#
# Poissons Ratio (x) = -0.01510 0.06513
# Poissons Ratio (y) = -0.01246 0.09891
# Poissons Ratio (z) = 0.04410 0.08115
#
# Static dielectric constant tensor:
#      x y z
#    x 1.740160 0.000000 0.000000 
#    y 0.000000 1.725300 0.000000 
#    z 0.000000 0.000000 1.796390 
# 
# From -- ./inp_files/29075.got.cif
#   From: 2010.05.17/outbox.cif.g08.bks.cpg/sg63_15_cif.got.tgz:29075.got - 2010.06.03 15:47:04.
