data_PCOD9474150
_publ_section_title
;
Structure prediction by ZEFSAII (Michael W. Deem and Ramdas Pophale) SiO2 
 PCOD9474150
Probable space group: C M C M
;
_chemical_formula_sum "Si O2"
_cell_formula_units_Z 96
_cell_length_a 23.498531
_cell_length_b 11.844050
_cell_length_c 16.153057
_cell_angle_alpha 90.000000
_cell_angle_beta 90.000000
_cell_angle_gamma 90.000000
_cell_volume 4495.682901
_symmetry_space_group_name_H-M "C M C M"
_symmetry_group_IT_number 63
_symmetry_cell_setting 'orthorhombic'
loop_
_space_group_symop_operation_xyz
x,y,z
-x,-y,1/2+z
x,-y,-z
-x,y,1/2-z
-x,-y,-z
x,y,1/2-z
-x,y,z
x,-y,1/2+z
1/2+x,1/2+y,z
1/2-x,1/2-y,1/2+z
1/2+x,1/2-y,-z
1/2-x,1/2+y,1/2-z
1/2-x,1/2-y,-z
1/2+x,1/2+y,1/2-z
1/2-x,1/2+y,z
1/2+x,1/2-y,1/2+z
loop_
_atom_site_type_symbol
_atom_site_label
_atom_site_fract_x
_atom_site_fract_y
_atom_site_fract_z
Si Si1 0.935218 0.814491 0.845629
Si Si2 0.935343 0.780792 0.348305
Si Si3 0.728843 0.342898 0.844886
Si Si4 0.346222 0.154516 0.578414
Si Si5 0.351564 0.903088 0.885771
Si Si6 0.353608 0.470739 0.345540
O O1 0.933595 0.775096 0.750000
O O2 0.902388 0.726288 0.901954
O O3 0.000000 0.830819 0.870475
O O4 0.901729 0.932308 0.847182
O O5 0.938291 0.807285 0.250000
O O6 0.909739 0.656020 0.358155
O O7 0.886015 0.863639 0.384553
O O8 0.000000 0.793539 0.380780
O O9 0.707648 0.331797 0.750000
O O10 0.705068 0.236290 0.894475
O O11 0.796237 0.348974 0.844243
O O12 0.701444 0.460919 0.878941
O O13 0.343885 0.123233 0.482733
O O14 0.348887 0.036909 0.627401
O O15 0.338926 0.440460 0.250000
#
# Coordination Sequence:
#
# PCOD9474150 Si02
#       6
#    16  16  16  16  16  16
#     4   9  17  33  60  87 110 145 196 247 287 335
#     4  10  21  37  58  87 122 157 195 239 293 355
#     4  10  21  38  63  88 111 145 196 250 295 346
#     4  10  23  41  56  81 117 154 195 237 292 352
#     4  11  24  39  57  82 117 158 196 235 295 355
#     4   8  16  33  57  87 115 143 184 241 299 341
#
# _framework density 21.353818
#
# number of rings (size 3 to 8) (size 9 to 14) (size 15 to 20)
#    0.000    2.333    0.000    3.000    2.333    6.000 
#    0.000    5.833    0.000    5.000    0.000    0.000 
#    0.000    0.000    0.000    0.000    0.000    0.000 
#
# Total GULP energy -267850.749199 kJ/mol
# GULP energy per Si atom -5580.223942 kJ/mol
# Density = 2.130522 g / cm^3
# Si number density = 21.353818 Si / 1000 Ang^3
#
#
#
# Elastic Constant Matrix: (Units=GPa)
#
#
# Indices 1 2 3 4 5 6 
#
# 1 69.6430 13.8457 -0.6756 0.0000 0.0000 0.0000
# 2 13.8457 81.4335 1.5495 0.0000 0.0000 0.0000
# 3 -0.6756 1.5495 20.4010 0.0000 0.0000 0.0000
# 4 0.0000 0.0000 0.0000 24.8595 0.0000 0.0000
# 5 0.0000 0.0000 0.0000 0.0000 0.0871 0.0000
# 6 0.0000 0.0000 0.0000 0.0000 0.0000 12.7593
#
#
#
# Elastic Compliance Matrix: (Units=1/GPa)
#
#
# Indices 1 2 3 4 5 6 
#
# 1 0.014871 -0.002541 0.000685 0.000000 0.000000 0.000000
# 2 -0.002541 0.012732 -0.001051 0.000000 0.000000 0.000000
# 3 0.000685 -0.001051 0.049120 0.000000 0.000000 0.000000
# 4 0.000000 0.000000 0.000000 0.040226 0.000000 0.000000
# 5 0.000000 0.000000 0.000000 0.000000 11.482026 0.000000
# 6 0.000000 0.000000 0.000000 0.000000 0.000000 0.078374
#
#
# Mechanical properties :
#
#
# Convention : Reuss Voigt Hill
#
# Bulk Modulus (GPa) = 14.10272 22.32410 18.21341
# Shear Modulus (GPa) = 0.42710 17.99170 9.20940
#
# Velocity S-wave (km/s) = 0.44771 2.90582 2.07897
# Velocity P-wave (km/s) = 2.62410 4.66213 3.78295
#
# Compressibility (1/GPa) = 0.07090830
#
# Stress axis : x y z
#
# Youngs Moduli (GPa) = 67.24555 78.54183 20.35841
#
# Poissons Ratio (x) = 0.19961 -0.01396
# Poissons Ratio (y) = 0.17090 0.02140
# Poissons Ratio (z) = -0.04610 0.08256
#
# Static dielectric constant tensor:
#      x y z
#    x 1.757920 0.000000 0.000000 
#    y 0.000000 1.789450 0.000000 
#    z 0.000000 0.000000 1.805590 
# 
# From -- ./inp_files/47983.got.cif
#   From: 2010.05.17/outbox.cif.g08.bks.cpg/sg63_24_cif.got.tgz:47983.got - 2010.06.03 15:47:04.
