data_PCOD9474688
_publ_section_title
;
Structure prediction by ZEFSAII (Michael W. Deem and Ramdas Pophale) SiO2 
 PCOD9474688
Probable space group: C M C M
;
_chemical_formula_sum "Si O2"
_cell_formula_units_Z 48
_cell_length_a 5.706191
_cell_length_b 13.817382
_cell_length_c 25.035003
_cell_angle_alpha 90.000000
_cell_angle_beta 90.000000
_cell_angle_gamma 90.000000
_cell_volume 1973.875319
_symmetry_space_group_name_H-M "C M C M"
_symmetry_group_IT_number 63
_symmetry_cell_setting 'orthorhombic'
loop_
_space_group_symop_operation_xyz
x,y,z
-x,-y,1/2+z
x,-y,-z
-x,y,1/2-z
-x,-y,-z
x,y,1/2-z
-x,y,z
x,-y,1/2+z
1/2+x,1/2+y,z
1/2-x,1/2-y,1/2+z
1/2+x,1/2-y,-z
1/2-x,1/2+y,1/2-z
1/2-x,1/2-y,-z
1/2+x,1/2+y,1/2-z
1/2-x,1/2+y,z
1/2+x,1/2-y,1/2+z
loop_
_atom_site_type_symbol
_atom_site_label
_atom_site_fract_x
_atom_site_fract_y
_atom_site_fract_z
Si Si1 0.500000 0.585813 0.250000
Si Si2 0.500000 0.914474 0.750000
Si Si3 0.500000 0.084738 0.898647
Si Si4 0.500000 0.134210 0.367308
Si Si5 0.750480 0.366330 0.998266
Si Si6 0.000000 0.791605 0.641226
O O1 0.749396 0.531059 0.250000
O O2 0.500000 0.652743 0.197377
O O3 0.500000 0.848711 0.803006
O O4 0.500000 0.982000 0.871081
O O5 0.285344 0.098709 0.940487
O O6 0.500000 0.175724 0.859122
O O7 0.751262 0.177282 0.385949
O O8 0.500000 0.400112 0.978155
O O9 0.000000 0.397433 0.972544
O O10 0.750000 0.250000 0.000000
#
# Coordination Sequence:
#
# PCOD9474688 Si02
#       6
#     4   4   8   8  16   8
#     4   8  16  35  52  71 110 142 166 215 268 309
#     4   8  16  35  52  71 110 142 166 215 268 309
#     4  10  22  33  62  78 108 140 182 221 264 308
#     4  10  22  36  55  82 109 140 179 220 264 316
#     4   8  16  30  51  76  99 140 174 206 270 318
#     4  10  22  36  55  82 109 140 179 220 264 316
#
# _framework density 24.317644000000001
#
# number of rings (size 3 to 8) (size 9 to 14) (size 15 to 20)
#    1.000    2.000    0.000    0.000    4.667    0.667 
#    0.000    0.000    0.000   18.000    0.000    0.000 
#    0.000    0.000    0.000    0.000    0.000    0.000 
#
# Total GULP energy -133809.980227 kJ/mol
# GULP energy per Si atom -5575.415843 kJ/mol
# Density = 2.426230 g / cm^3
# Si number density = 24.317644 Si / 1000 Ang^3
#
#
#
# Elastic Constant Matrix: (Units=GPa)
#
#
# Indices 1 2 3 4 5 6 
#
# 1 263.4606 32.9996 32.3650 0.0000 0.0000 0.0000
# 2 32.9996 155.4912 18.6727 0.0000 0.0000 0.0000
# 3 32.3650 18.6727 71.0751 0.0000 0.0000 0.0000
# 4 0.0000 0.0000 0.0000 7.4020 0.0000 0.0000
# 5 0.0000 0.0000 0.0000 0.0000 37.1419 0.0000
# 6 0.0000 0.0000 0.0000 0.0000 0.0000 19.4375
#
#
#
# Elastic Compliance Matrix: (Units=1/GPa)
#
#
# Indices 1 2 3 4 5 6 
#
# 1 0.004086 -0.000665 -0.001686 0.000000 0.000000 0.000000
# 2 -0.000665 0.006749 -0.001470 0.000000 0.000000 0.000000
# 3 -0.001686 -0.001470 0.015224 0.000000 0.000000 0.000000
# 4 0.000000 0.000000 0.000000 0.135098 0.000000 0.000000
# 5 0.000000 0.000000 0.000000 0.000000 0.026924 0.000000
# 6 0.000000 0.000000 0.000000 0.000000 0.000000 0.051447
#
#
# Mechanical properties :
#
#
# Convention : Reuss Voigt Hill
#
# Bulk Modulus (GPa) = 54.29938 73.12240 63.71089
# Shear Modulus (GPa) = 19.73879 39.86225 29.80052
#
# Velocity S-wave (km/s) = 2.85214 4.05313 3.50447
# Velocity P-wave (km/s) = 5.76402 7.21379 6.52927
#
# Compressibility (1/GPa) = 0.01841642
#
# Stress axis : x y z
#
# Youngs Moduli (GPa) = 244.73770 148.17288 65.68729
#
# Poissons Ratio (x) = 0.09849 0.11075
# Poissons Ratio (y) = 0.16268 0.09658
# Poissons Ratio (z) = 0.41263 0.21787
#
# Static dielectric constant tensor:
#      x y z
#    x 2.040350 0.000000 0.000000 
#    y 0.000000 1.838220 0.000000 
#    z 0.000000 0.000000 2.073750 
# 
# From -- ./inp_files/49231.got.cif
#   From: 2010.05.17/outbox.cif.g08.bks.cpg/sg63_25_cif.got.tgz:49231.got - 2010.06.03 15:47:04.
