data_PCOD9474398
_publ_section_title
;
Structure prediction by ZEFSAII (Michael W. Deem and Ramdas Pophale) SiO2 
 PCOD9474398
Probable space group: C M C M
;
_chemical_formula_sum "Si O2"
_cell_formula_units_Z 112
_cell_length_a 14.294888
_cell_length_b 14.698177
_cell_length_c 22.852171
_cell_angle_alpha 90.000000
_cell_angle_beta 90.000000
_cell_angle_gamma 90.000000
_cell_volume 4801.442090
_symmetry_space_group_name_H-M "C M C M"
_symmetry_group_IT_number 63
_symmetry_cell_setting 'orthorhombic'
loop_
_space_group_symop_operation_xyz
x,y,z
-x,-y,1/2+z
x,-y,-z
-x,y,1/2-z
-x,-y,-z
x,y,1/2-z
-x,y,z
x,-y,1/2+z
1/2+x,1/2+y,z
1/2-x,1/2-y,1/2+z
1/2+x,1/2-y,-z
1/2-x,1/2+y,1/2-z
1/2-x,1/2-y,-z
1/2+x,1/2+y,1/2-z
1/2-x,1/2+y,z
1/2+x,1/2-y,1/2+z
loop_
_atom_site_type_symbol
_atom_site_label
_atom_site_fract_x
_atom_site_fract_y
_atom_site_fract_z
Si Si1 0.606813 0.637447 0.123241
Si Si2 0.107098 0.813313 0.127744
Si Si3 0.139176 0.238808 0.497965
Si Si4 0.746788 0.523710 0.872794
Si Si5 0.612244 0.188477 0.685923
Si Si6 0.397256 0.082264 0.937723
Si Si7 0.108625 0.615040 0.181743
O O1 0.500000 0.620896 0.139332
O O2 0.610723 0.683892 0.059617
O O3 0.662245 0.545875 0.121743
O O4 0.647396 0.711285 0.168981
O O5 0.127053 0.709490 0.147894
O O6 0.000000 0.836328 0.147504
O O7 0.190887 0.882992 0.144844
O O8 0.107385 0.807963 0.057274
O O9 0.250000 0.250000 0.500000
O O10 0.102389 0.340782 0.486703
O O11 0.802662 0.525845 0.935010
O O12 0.821026 0.467125 0.832764
O O13 0.646916 0.157599 0.750000
O O14 0.500000 0.194643 0.690746
O O15 0.621109 0.129760 0.626452
O O16 0.500000 0.038872 0.937271
O O17 0.115039 0.635854 0.250000
O O18 0.000000 0.587882 0.169729
#
# Coordination Sequence:
#
# PCOD9474398 Si02
#       7
#    16  16  16  16  16  16  16
#     4  10  22  39  60  93 137 178 216 275 344 404
#     4  11  24  45  72 101 137 185 233 284 349 417
#     4  11  20  41  68  97 135 177 225 282 344 415
#     4  12  24  40  66 102 133 176 233 282 332 413
#     4   8  16  34  60  87 119 162 211 267 334 396
#     4  10  21  38  62  94 132 172 219 279 340 397
#     4  10  25  50  73  97 137 183 228 287 356 421
#
# _framework density 23.326326000000002
#
# number of rings (size 3 to 8) (size 9 to 14) (size 15 to 20)
#    0.000    1.714    1.429    3.857    2.000    2.286 
#    2.571    2.857    0.000    7.714    0.000    0.000 
#    0.000    0.000    0.000    0.000    0.000    0.000 
#
# Total GULP energy -312537.424579 kJ/mol
# GULP energy per Si atom -5581.025439 kJ/mol
# Density = 2.327323 g / cm^3
# Si number density = 23.326326 Si / 1000 Ang^3
#
#
#
# Elastic Constant Matrix: (Units=GPa)
#
#
# Indices 1 2 3 4 5 6 
#
# 1 153.0941 29.1828 5.4667 0.0000 0.0000 0.0000
# 2 29.1828 84.6074 31.1105 0.0000 0.0000 0.0000
# 3 5.4667 31.1105 84.4061 0.0000 0.0000 0.0000
# 4 0.0000 0.0000 0.0000 12.7975 0.0000 0.0000
# 5 0.0000 0.0000 0.0000 0.0000 16.5921 0.0000
# 6 0.0000 0.0000 0.0000 0.0000 0.0000 20.2962
#
#
#
# Elastic Compliance Matrix: (Units=1/GPa)
#
#
# Indices 1 2 3 4 5 6 
#
# 1 0.007010 -0.002604 0.000506 0.000000 0.000000 0.000000
# 2 -0.002604 0.014640 -0.005227 0.000000 0.000000 0.000000
# 3 0.000506 -0.005227 0.013741 0.000000 0.000000 0.000000
# 4 0.000000 0.000000 0.000000 0.078140 0.000000 0.000000
# 5 0.000000 0.000000 0.000000 0.000000 0.060270 0.000000
# 6 0.000000 0.000000 0.000000 0.000000 0.000000 0.049270
#
#
# Mechanical properties :
#
#
# Convention : Reuss Voigt Hill
#
# Bulk Modulus (GPa) = 48.21528 50.40309 49.30918
# Shear Modulus (GPa) = 20.43856 27.02699 23.73278
#
# Velocity S-wave (km/s) = 2.96328 3.40758 3.19317
# Velocity P-wave (km/s) = 5.69410 6.09400 5.89745
#
# Compressibility (1/GPa) = 0.02074031
#
# Stress axis : x y z
#
# Youngs Moduli (GPa) = 142.64858 68.30834 72.77293
#
# Poissons Ratio (x) = 0.17787 -0.03680
# Poissons Ratio (y) = 0.37145 0.38040
# Poissons Ratio (z) = -0.07214 0.35706
#
# Static dielectric constant tensor:
#      x y z
#    x 1.965960 0.000000 0.000000 
#    y 0.000000 2.011300 0.000000 
#    z 0.000000 0.000000 1.879380 
# 
# From -- ./inp_files/62997.got.cif
#   From: 2010.05.17/outbox.cif.g08.bks.cpg/sg63_32_cif.got.tgz:62997.got - 2010.06.03 15:47:04.
