data_PCOD9474874
_publ_section_title
;
Structure prediction by ZEFSAII (Michael W. Deem and Ramdas Pophale) SiO2 
 PCOD9474874
Probable space group: C M C M
;
_chemical_formula_sum "Si O2"
_cell_formula_units_Z 52
_cell_length_a 15.528826
_cell_length_b 10.186487
_cell_length_c 13.841689
_cell_angle_alpha 90.000000
_cell_angle_beta 90.000000
_cell_angle_gamma 90.000000
_cell_volume 2189.536282
_symmetry_space_group_name_H-M "C M C M"
_symmetry_group_IT_number 63
_symmetry_cell_setting 'orthorhombic'
loop_
_space_group_symop_operation_xyz
x,y,z
-x,-y,1/2+z
x,-y,-z
-x,y,1/2-z
-x,-y,-z
x,y,1/2-z
-x,y,z
x,-y,1/2+z
1/2+x,1/2+y,z
1/2-x,1/2-y,1/2+z
1/2+x,1/2-y,-z
1/2-x,1/2+y,1/2-z
1/2-x,1/2-y,-z
1/2+x,1/2+y,1/2-z
1/2-x,1/2+y,z
1/2+x,1/2-y,1/2+z
loop_
_atom_site_type_symbol
_atom_site_label
_atom_site_fract_x
_atom_site_fract_y
_atom_site_fract_z
Si Si1 0.000000 0.000000 0.000000
Si Si2 0.352005 0.962693 0.637510
Si Si3 0.595947 0.214192 0.533314
Si Si4 0.655840 0.540522 0.363814
O O1 0.078587 0.970504 0.081446
O O2 0.364995 0.935024 0.750000
O O3 0.374457 0.839146 0.570009
O O4 0.253029 0.008822 0.622644
O O5 0.407391 0.083943 0.598759
O O6 0.500000 0.280660 0.531021
O O7 0.656107 0.315173 0.588015
O O8 0.638880 0.549557 0.250000
#
# Coordination Sequence:
#
# PCOD9474874 Si02
#       4
#     4  16  16  16
#     4  12  22  40  64  88 118 158 214 262 304 378
#     4  10  22  39  63  95 129 165 214 265 313 371
#     4  11  22  40  66  92 128 171 210 257 318 380
#     4  11  24  42  64  91 126 170 213 260 320 384
#
# _framework density 23.749321999999999
#
# number of rings (size 3 to 8) (size 9 to 14) (size 15 to 20)
#    0.000    1.231    1.538    6.000    0.000    3.692 
#    0.000    6.154    0.000    0.000    0.000    0.000 
#    0.000    0.000    0.000    0.000    0.000    0.000 
#
# Total GULP energy -145092.893148 kJ/mol
# GULP energy per Si atom -5580.495890 kJ/mol
# Density = 2.369527 g / cm^3
# Si number density = 23.749322 Si / 1000 Ang^3
#
#
#
# Elastic Constant Matrix: (Units=GPa)
#
#
# Indices 1 2 3 4 5 6 
#
# 1 123.3057 22.8138 61.7646 0.0000 0.0000 0.0000
# 2 22.8138 48.5997 15.2795 0.0000 0.0000 0.0000
# 3 61.7646 15.2795 194.7081 0.0000 0.0000 0.0000
# 4 0.0000 0.0000 0.0000 24.1784 0.0000 0.0000
# 5 0.0000 0.0000 0.0000 0.0000 40.5054 0.0000
# 6 0.0000 0.0000 0.0000 0.0000 0.0000 39.3386
#
#
#
# Elastic Compliance Matrix: (Units=1/GPa)
#
#
# Indices 1 2 3 4 5 6 
#
# 1 0.010320 -0.003912 -0.002967 0.000000 0.000000 0.000000
# 2 -0.003912 0.022579 -0.000531 0.000000 0.000000 0.000000
# 3 -0.002967 -0.000531 0.006119 0.000000 0.000000 0.000000
# 4 0.000000 0.000000 0.000000 0.041359 0.000000 0.000000
# 5 0.000000 0.000000 0.000000 0.000000 0.024688 0.000000
# 6 0.000000 0.000000 0.000000 0.000000 0.000000 0.025420
#
#
# Mechanical properties :
#
#
# Convention : Reuss Voigt Hill
#
# Bulk Modulus (GPa) = 41.32380 62.92551 52.12465
# Shear Modulus (GPa) = 32.60086 38.58819 35.59452
#
# Velocity S-wave (km/s) = 3.70903 4.03527 3.87558
# Velocity P-wave (km/s) = 5.98166 6.94726 6.48246
#
# Compressibility (1/GPa) = 0.02419913
#
# Stress axis : x y z
#
# Youngs Moduli (GPa) = 96.90272 44.28815 163.43551
#
# Poissons Ratio (x) = 0.17324 0.48485
# Poissons Ratio (y) = 0.37904 0.08680
# Poissons Ratio (z) = 0.28747 0.02352
#
# Static dielectric constant tensor:
#      x y z
#    x 1.859760 0.000000 0.000000 
#    y 0.000000 1.696230 0.000000 
#    z 0.000000 0.000000 1.782200 
# 
# From -- ./inp_files/30814.got.cif
#   From: 2010.05.17/outbox.cif.g08.bks.cpg/sg63_16_cif.got.tgz:30814.got - 2010.06.03 15:47:04.
