data_PCOD9474134
_publ_section_title
;
Structure prediction by ZEFSAII (Michael W. Deem and Ramdas Pophale) SiO2 
 PCOD9474134
Probable space group: C M C M
;
_chemical_formula_sum "Si O2"
_cell_formula_units_Z 96
_cell_length_a 8.740980
_cell_length_b 22.342255
_cell_length_c 23.913390
_cell_angle_alpha 90.000000
_cell_angle_beta 90.000000
_cell_angle_gamma 90.000000
_cell_volume 4670.122554
_symmetry_space_group_name_H-M "C M C M"
_symmetry_group_IT_number 63
_symmetry_cell_setting 'orthorhombic'
loop_
_space_group_symop_operation_xyz
x,y,z
-x,-y,1/2+z
x,-y,-z
-x,y,1/2-z
-x,-y,-z
x,y,1/2-z
-x,y,z
x,-y,1/2+z
1/2+x,1/2+y,z
1/2-x,1/2-y,1/2+z
1/2+x,1/2-y,-z
1/2-x,1/2+y,1/2-z
1/2-x,1/2-y,-z
1/2+x,1/2+y,1/2-z
1/2-x,1/2+y,z
1/2+x,1/2-y,1/2+z
loop_
_atom_site_type_symbol
_atom_site_label
_atom_site_fract_x
_atom_site_fract_y
_atom_site_fract_z
Si Si1 0.317762 0.402081 0.587626
Si Si2 0.818268 0.719118 0.875004
Si Si3 0.320805 0.606832 0.686088
Si Si4 0.181635 0.651195 0.982709
Si Si5 0.682777 0.834411 0.685616
Si Si6 0.680227 0.536960 0.922513
O O1 0.500000 0.400616 0.590836
O O2 0.261690 0.353437 0.542526
O O3 0.248387 0.387502 0.647741
O O4 0.273060 0.468769 0.567722
O O5 0.780030 0.660817 0.837718
O O6 0.766497 0.701432 0.938045
O O7 0.737095 0.774394 0.845632
O O8 0.000000 0.729588 0.876539
O O9 0.283648 0.592651 0.750000
O O10 0.500000 0.625910 0.683570
O O11 0.306596 0.551895 0.643360
O O12 0.224074 0.588006 0.953228
O O13 0.000000 0.656277 0.989865
O O14 0.735895 0.835094 0.750000
O O15 0.500000 0.836621 0.685414
O O16 0.500000 0.544058 0.938291
#
# Coordination Sequence:
#
# PCOD9474134 Si02
#       6
#    16  16  16  16  16  16
#     4  11  23  38  59  85 114 151 191 231 276 329
#     4  10  21  37  58  84 112 144 184 231 282 333
#     4   9  17  31  53  80 110 145 184 229 281 332
#     4  10  21  37  59  87 117 148 184 230 284 336
#     4  11  25  43  61  82 111 149 189 229 278 335
#     4   9  19  35  55  82 115 150 190 233 278 331
#
# _framework density 20.556207000000001
#
# number of rings (size 3 to 8) (size 9 to 14) (size 15 to 20)
#    0.000    2.000    0.000    3.000    0.000   10.333 
#    0.000    1.667    0.000    0.000    0.000    0.000 
#    0.000    0.000    0.000    0.000    0.000    0.000 
#
# Total GULP energy -268181.660029 kJ/mol
# GULP energy per Si atom -5587.117917 kJ/mol
# Density = 2.050942 g / cm^3
# Si number density = 20.556207 Si / 1000 Ang^3
#
#
#
# Elastic Constant Matrix: (Units=GPa)
#
#
# Indices 1 2 3 4 5 6 
#
# 1 30.9391 7.9768 17.9428 0.0000 0.0000 0.0000
# 2 7.9768 45.3231 11.8258 0.0000 0.0000 0.0000
# 3 17.9428 11.8258 107.3212 0.0000 0.0000 0.0000
# 4 0.0000 0.0000 0.0000 22.9813 0.0000 0.0000
# 5 0.0000 0.0000 0.0000 0.0000 24.2767 0.0000
# 6 0.0000 0.0000 0.0000 0.0000 0.0000 25.3971
#
#
#
# Elastic Compliance Matrix: (Units=1/GPa)
#
#
# Indices 1 2 3 4 5 6 
#
# 1 0.036871 -0.005025 -0.005611 0.000000 0.000000 0.000000
# 2 -0.005025 0.023402 -0.001738 0.000000 0.000000 0.000000
# 3 -0.005611 -0.001738 0.010447 0.000000 0.000000 0.000000
# 4 0.000000 0.000000 0.000000 0.043514 0.000000 0.000000
# 5 0.000000 0.000000 0.000000 0.000000 0.041192 0.000000
# 6 0.000000 0.000000 0.000000 0.000000 0.000000 0.039375
#
#
# Mechanical properties :
#
#
# Convention : Reuss Voigt Hill
#
# Bulk Modulus (GPa) = 21.75263 28.78601 25.26932
# Shear Modulus (GPa) = 21.28810 24.25355 22.77082
#
# Velocity S-wave (km/s) = 3.22157 3.43864 3.33188
# Velocity P-wave (km/s) = 4.94399 5.45891 5.20782
#
# Compressibility (1/GPa) = 0.04597145
#
# Stress axis : x y z
#
# Youngs Moduli (GPa) = 27.12155 42.73165 95.71738
#
# Poissons Ratio (x) = 0.21474 0.53704
# Poissons Ratio (y) = 0.13629 0.16640
# Poissons Ratio (z) = 0.15217 0.07429
#
# Static dielectric constant tensor:
#      x y z
#    x 1.692760 0.000000 0.000000 
#    y 0.000000 1.730670 0.000000 
#    z 0.000000 0.000000 1.754320 
# 
# From -- ./inp_files/59910.got.cif
#   From: 2010.05.17/outbox.cif.g08.bks.cpg/sg63_30_cif.got.tgz:59910.got - 2010.06.03 15:47:04.
