data_PCOD9474920
_publ_section_title
;
Structure prediction by ZEFSAII (Michael W. Deem and Ramdas Pophale) SiO2 
 PCOD9474920
Probable space group: C M C M
;
_chemical_formula_sum "Si O2"
_cell_formula_units_Z 80
_cell_length_a 25.193511
_cell_length_b 9.945065
_cell_length_c 17.514459
_cell_angle_alpha 90.000000
_cell_angle_beta 90.000000
_cell_angle_gamma 90.000000
_cell_volume 4388.267047
_symmetry_space_group_name_H-M "C M C M"
_symmetry_group_IT_number 63
_symmetry_cell_setting 'orthorhombic'
loop_
_space_group_symop_operation_xyz
x,y,z
-x,-y,1/2+z
x,-y,-z
-x,y,1/2-z
-x,-y,-z
x,y,1/2-z
-x,y,z
x,-y,1/2+z
1/2+x,1/2+y,z
1/2-x,1/2-y,1/2+z
1/2+x,1/2-y,-z
1/2-x,1/2+y,1/2-z
1/2-x,1/2-y,-z
1/2+x,1/2+y,1/2-z
1/2-x,1/2+y,z
1/2+x,1/2-y,1/2+z
loop_
_atom_site_type_symbol
_atom_site_label
_atom_site_fract_x
_atom_site_fract_y
_atom_site_fract_z
Si Si1 0.561177 0.269876 0.658770
Si Si2 0.855976 0.021430 0.089696
Si Si3 0.240339 0.377408 0.554852
Si Si4 0.562993 0.978635 0.588902
Si Si5 0.854278 0.724599 0.158857
O O1 0.563968 0.276368 0.750000
O O2 0.500000 0.298268 0.635436
O O3 0.602062 0.374327 0.623196
O O4 0.573797 0.119009 0.631531
O O5 0.858439 0.879324 0.132629
O O6 0.796118 0.079279 0.092336
O O7 0.867086 0.000000 0.000000
O O8 0.222709 0.500000 0.500000
O O9 0.250000 0.250000 0.500000
O O10 0.197115 0.338748 0.617500
O O11 0.500000 0.951258 0.593708
O O12 0.596128 0.859688 0.626627
O O13 0.576764 0.000000 0.500000
O O14 0.851230 0.714987 0.250000
#
# Coordination Sequence:
#
# PCOD9474920 Si02
#       5
#    16  16  16  16  16
#     4  10  22  40  61  89 125 163 203 251 307 364
#     4  11  23  41  65  89 122 165 207 255 304 372
#     4  11  23  45  66  87 122 164 208 257 307 373
#     4  10  22  41  66  92 124 166 211 254 303 372
#     4  12  25  39  62  97 129 159 206 262 317 369
#
# _framework density 18.230430999999999
#
# number of rings (size 3 to 8) (size 9 to 14) (size 15 to 20)
#    0.000    1.200    4.000    3.000    2.800    4.000 
#    0.000    0.000    0.000    0.000    0.000    0.000 
#    0.000    0.000    0.000    0.000    0.000    0.000 
#
# Total GULP energy -223615.579289 kJ/mol
# GULP energy per Si atom -5590.389482 kJ/mol
# Density = 1.818894 g / cm^3
# Si number density = 18.230431 Si / 1000 Ang^3
#
#
#
# Elastic Constant Matrix: (Units=GPa)
#
#
# Indices 1 2 3 4 5 6 
#
# 1 111.6802 87.5703 61.6926 0.0000 0.0000 0.0000
# 2 87.5703 139.7460 59.1449 0.0000 0.0000 0.0000
# 3 61.6926 59.1449 117.0032 0.0000 0.0000 0.0000
# 4 0.0000 0.0000 0.0000 31.0724 0.0000 0.0000
# 5 0.0000 0.0000 0.0000 0.0000 -32.5712 0.0000
# 6 0.0000 0.0000 0.0000 0.0000 0.0000 42.0713
#
#
#
# Elastic Compliance Matrix: (Units=1/GPa)
#
#
# Indices 1 2 3 4 5 6 
#
# 1 0.019917 -0.010223 -0.005334 0.000000 0.000000 0.000000
# 2 -0.010223 0.014351 -0.001864 0.000000 0.000000 0.000000
# 3 -0.005334 -0.001864 0.012301 0.000000 0.000000 0.000000
# 4 0.000000 0.000000 0.000000 0.032183 0.000000 0.000000
# 5 0.000000 0.000000 0.000000 0.000000 -0.030702 0.000000
# 6 0.000000 0.000000 0.000000 0.000000 0.000000 0.023769
#
#
# Mechanical properties :
#
#
# Convention : Reuss Voigt Hill
#
# Bulk Modulus (GPa) = 85.27171 87.24947 86.26059
# Shear Modulus (GPa) = 45.22029 18.78262 32.00145
#
# Velocity S-wave (km/s) = 4.98585 3.21329 4.19428
# Velocity P-wave (km/s) = 8.94544 7.85685 8.41876
#
# Compressibility (1/GPa) = 0.01172722
#
# Stress axis : x y z
#
# Youngs Moduli (GPa) = 50.20924 69.68175 81.29188
#
# Poissons Ratio (x) = 0.71237 0.43359
# Poissons Ratio (y) = 0.51330 0.15153
# Poissons Ratio (z) = 0.26780 0.12989
#
# Static dielectric constant tensor:
#      x y z
#    x 1.621210 0.000000 0.000000 
#    y 0.000000 1.597450 0.000000 
#    z 0.000000 0.000000 1.600780 
# 
# From -- ./inp_files/48752.got.cif
#   From: 2010.05.17/outbox.cif.g08.bks.cpg/sg63_25_cif.got.tgz:48752.got - 2010.06.03 15:47:04.
