data_PCOD9474822
_publ_section_title
;
Structure prediction by ZEFSAII (Michael W. Deem and Ramdas Pophale) SiO2 
 PCOD9474822
Probable space group: C M C M
;
_chemical_formula_sum "Si O2"
_cell_formula_units_Z 84
_cell_length_a 12.882011
_cell_length_b 14.240207
_cell_length_c 19.681142
_cell_angle_alpha 90.000000
_cell_angle_beta 90.000000
_cell_angle_gamma 90.000000
_cell_volume 3610.357955
_symmetry_space_group_name_H-M "C M C M"
_symmetry_group_IT_number 63
_symmetry_cell_setting 'orthorhombic'
loop_
_space_group_symop_operation_xyz
x,y,z
-x,-y,1/2+z
x,-y,-z
-x,y,1/2-z
-x,-y,-z
x,y,1/2-z
-x,y,z
x,-y,1/2+z
1/2+x,1/2+y,z
1/2-x,1/2-y,1/2+z
1/2+x,1/2-y,-z
1/2-x,1/2+y,1/2-z
1/2-x,1/2-y,-z
1/2+x,1/2+y,1/2-z
1/2-x,1/2+y,z
1/2+x,1/2-y,1/2+z
loop_
_atom_site_type_symbol
_atom_site_label
_atom_site_fract_x
_atom_site_fract_y
_atom_site_fract_z
Si Si1 0.000000 0.227246 0.750000
Si Si2 0.614030 0.190008 0.831148
Si Si3 0.669375 0.221427 0.366376
Si Si4 0.118861 0.968820 0.610765
Si Si5 0.118811 0.151984 0.514818
Si Si6 0.328631 0.016288 0.327677
O O1 0.908593 0.231090 0.810997
O O2 0.608848 0.181487 0.750000
O O3 0.500000 0.222170 0.855054
O O4 0.713088 0.254744 0.843944
O O5 0.634976 0.083445 0.856913
O O6 0.663488 0.263321 0.441992
O O7 0.639058 0.111851 0.364177
O O8 0.155927 0.890193 0.556507
O O9 0.203394 0.981437 0.668710
O O10 0.000000 0.952665 0.632790
O O11 0.120349 0.064125 0.566755
O O12 0.000000 0.176560 0.501980
O O13 0.364631 0.024658 0.250000
#
# Coordination Sequence:
#
# PCOD9474822 Si02
#       6
#     4  16  16  16  16  16
#     4  12  24  36  62  98 128 136 210 270 304 346
#     4  10  22  39  57  81 122 166 198 234 306 369
#     4  12  22  38  62  92 120 162 201 258 300 364
#     4   9  19  37  58  87 118 156 205 255 309 363
#     4   9  18  35  61  85 117 155 199 261 312 354
#     4  11  23  36  58  89 120 160 204 250 308 363
#
# _framework density 23.266390999999999
#
# number of rings (size 3 to 8) (size 9 to 14) (size 15 to 20)
#    0.000    1.714    4.762    1.143    1.333    1.905 
#    0.000    0.000    0.000    2.286    0.000    0.000 
#    0.000    0.000    0.000    0.000    0.000    0.000 
#
# Total GULP energy -233977.466972 kJ/mol
# GULP energy per Si atom -5570.892071 kJ/mol
# Density = 2.321344 g / cm^3
# Si number density = 23.266391 Si / 1000 Ang^3
#
#
#
# Elastic Constant Matrix: (Units=GPa)
#
#
# Indices 1 2 3 4 5 6 
#
# 1 124.4196 27.5058 21.2765 0.0000 0.0000 0.0000
# 2 27.5058 100.6867 19.2179 0.0000 0.0000 0.0000
# 3 21.2765 19.2179 51.7692 0.0000 0.0000 0.0000
# 4 0.0000 0.0000 0.0000 30.7865 0.0000 0.0000
# 5 0.0000 0.0000 0.0000 0.0000 34.2290 0.0000
# 6 0.0000 0.0000 0.0000 0.0000 0.0000 -20.9549
#
#
#
# Elastic Compliance Matrix: (Units=1/GPa)
#
#
# Indices 1 2 3 4 5 6 
#
# 1 0.008963 -0.001879 -0.002986 0.000000 0.000000 0.000000
# 2 -0.001879 0.011083 -0.003342 0.000000 0.000000 0.000000
# 3 -0.002986 -0.003342 0.021785 0.000000 0.000000 0.000000
# 4 0.000000 0.000000 0.000000 0.032482 0.000000 0.000000
# 5 0.000000 0.000000 0.000000 0.000000 0.029215 0.000000
# 6 0.000000 0.000000 0.000000 0.000000 0.000000 -0.047721
#
#
# Mechanical properties :
#
#
# Convention : Reuss Voigt Hill
#
# Bulk Modulus (GPa) = 39.34461 45.87510 42.60986
# Shear Modulus (GPa) = 61.96354 22.73713 42.35033
#
# Velocity S-wave (km/s) = 5.16624 3.12949 4.27105
# Velocity P-wave (km/s) = 7.24803 5.72874 6.53270
#
# Compressibility (1/GPa) = 0.02541644
#
# Stress axis : x y z
#
# Youngs Moduli (GPa) = 111.56569 90.22902 45.90406
#
# Poissons Ratio (x) = 0.16951 0.13709
# Poissons Ratio (y) = 0.20959 0.15342
# Poissons Ratio (z) = 0.33318 0.30156
#
# Static dielectric constant tensor:
#      x y z
#    x 1.898940 0.000000 0.000000 
#    y 0.000000 1.949460 0.000000 
#    z 0.000000 0.000000 1.851080 
# 
# From -- ./inp_files/61241.got.cif
#   From: 2010.05.17/outbox.cif.g08.bks.cpg/sg63_31_cif.got.tgz:61241.got - 2010.06.03 15:47:04.
