data_PCOD9474275
_publ_section_title
;
Structure prediction by ZEFSAII (Michael W. Deem and Ramdas Pophale) SiO2 
 PCOD9474275
Probable space group: C M C M
;
_chemical_formula_sum "Si O2"
_cell_formula_units_Z 68
_cell_length_a 17.034328
_cell_length_b 24.801881
_cell_length_c 7.556792
_cell_angle_alpha 90.000000
_cell_angle_beta 90.000000
_cell_angle_gamma 90.000000
_cell_volume 3192.618996
_symmetry_space_group_name_H-M "C M C M"
_symmetry_group_IT_number 63
_symmetry_cell_setting 'orthorhombic'
loop_
_space_group_symop_operation_xyz
x,y,z
-x,-y,1/2+z
x,-y,-z
-x,y,1/2-z
-x,-y,-z
x,y,1/2-z
-x,y,z
x,-y,1/2+z
1/2+x,1/2+y,z
1/2-x,1/2-y,1/2+z
1/2+x,1/2-y,-z
1/2-x,1/2+y,1/2-z
1/2-x,1/2-y,-z
1/2+x,1/2+y,1/2-z
1/2-x,1/2+y,z
1/2+x,1/2-y,1/2+z
loop_
_atom_site_type_symbol
_atom_site_label
_atom_site_fract_x
_atom_site_fract_y
_atom_site_fract_z
Si Si1 0.211330 0.348131 0.451931
Si Si2 0.411242 0.937401 0.539103
Si Si3 0.613134 0.639890 0.452958
Si Si4 0.414043 0.235048 0.535219
Si Si5 0.000000 0.900935 0.250000
O O1 0.231541 0.333904 0.250000
O O2 0.152105 0.398260 0.455609
O O3 0.292758 0.362837 0.541547
O O4 0.159973 0.299026 0.530810
O O5 0.409083 0.929474 0.750000
O O6 0.500000 0.925700 0.476004
O O7 0.395447 0.000000 0.500000
O O8 0.588439 0.631066 0.250000
O O9 0.592778 0.701838 0.504983
O O10 0.568470 0.603269 0.593551
O O11 0.413154 0.230221 0.750000
O O12 0.500000 0.215428 0.473905
#
# Coordination Sequence:
#
# PCOD9474275 Si02
#       5
#    16  16  16  16   4
#     4  11  21  35  56  86 118 151 196 242 291 346
#     4  10  21  38  58  84 117 156 195 237 290 348
#     4  11  22  39  57  82 118 153 199 248 288 346
#     4   9  18  33  53  78 115 159 197 235 284 337
#     4  12  22  40  60  82 108 156 206 236 308 346
#
# _framework density 21.299129000000001
#
# number of rings (size 3 to 8) (size 9 to 14) (size 15 to 20)
#    0.000    1.647    2.353    3.176    0.000    2.353 
#    4.235    0.000    0.000    0.000    0.000    0.824 
#    0.000    0.000    0.000    0.000    0.000    0.000 
#
# Total GULP energy -189503.391390 kJ/mol
# GULP energy per Si atom -5573.629159 kJ/mol
# Density = 2.125065 g / cm^3
# Si number density = 21.299129 Si / 1000 Ang^3
#
#
#
# Elastic Constant Matrix: (Units=GPa)
#
#
# Indices 1 2 3 4 5 6 
#
# 1 116.8385 2.7124 13.5798 0.0000 0.0000 0.0000
# 2 2.7124 17.0847 -7.7631 0.0000 0.0000 0.0000
# 3 13.5798 -7.7631 100.2259 0.0000 0.0000 0.0000
# 4 0.0000 0.0000 0.0000 8.2875 0.0000 0.0000
# 5 0.0000 0.0000 0.0000 0.0000 -6.2769 0.0000
# 6 0.0000 0.0000 0.0000 0.0000 0.0000 58.2484
#
#
#
# Elastic Compliance Matrix: (Units=1/GPa)
#
#
# Indices 1 2 3 4 5 6 
#
# 1 0.008761 -0.002001 -0.001342 0.000000 0.000000 0.000000
# 2 -0.002001 0.061124 0.005006 0.000000 0.000000 0.000000
# 3 -0.001342 0.005006 0.010547 0.000000 0.000000 0.000000
# 4 0.000000 0.000000 0.000000 0.120663 0.000000 0.000000
# 5 0.000000 0.000000 0.000000 0.000000 -0.159313 0.000000
# 6 0.000000 0.000000 0.000000 0.000000 0.000000 0.017168
#
#
# Mechanical properties :
#
#
# Convention : Reuss Voigt Hill
#
# Bulk Modulus (GPa) = 11.93922 27.91191 19.92556
# Shear Modulus (GPa) = 59.84870 27.09312 43.47091
#
# Velocity S-wave (km/s) = 5.30661 3.57042 4.52261
# Velocity P-wave (km/s) = 6.56997 5.48912 6.05371
#
# Compressibility (1/GPa) = 0.08375759
#
# Stress axis : x y z
#
# Youngs Moduli (GPa) = 114.13888 16.36019 94.81365
#
# Poissons Ratio (x) = 0.03273 0.12724
# Poissons Ratio (y) = 0.22837 -0.47459
# Poissons Ratio (z) = 0.15318 -0.08189
#
# Static dielectric constant tensor:
#      x y z
#    x 1.778700 0.000000 0.000000 
#    y 0.000000 1.747700 0.000000 
#    z 0.000000 0.000000 1.803770 
# 
# From -- ./inp_files/6087.got.cif
#   From: 2010.05.17/outbox.cif.g08.bks.cpg/sg63_4_cif.got.tgz:6087.got - 2010.06.03 15:47:04.
