data_PCOD9474475
_publ_section_title
;
Structure prediction by ZEFSAII (Michael W. Deem and Ramdas Pophale) SiO2 
 PCOD9474475
Probable space group: C M C M
;
_chemical_formula_sum "Si O2"
_cell_formula_units_Z 68
_cell_length_a 10.043741
_cell_length_b 19.632502
_cell_length_c 17.756199
_cell_angle_alpha 90.000000
_cell_angle_beta 90.000000
_cell_angle_gamma 90.000000
_cell_volume 3501.234176
_symmetry_space_group_name_H-M "C M C M"
_symmetry_group_IT_number 63
_symmetry_cell_setting 'orthorhombic'
loop_
_space_group_symop_operation_xyz
x,y,z
-x,-y,1/2+z
x,-y,-z
-x,y,1/2-z
-x,-y,-z
x,y,1/2-z
-x,y,z
x,-y,1/2+z
1/2+x,1/2+y,z
1/2-x,1/2-y,1/2+z
1/2+x,1/2-y,-z
1/2-x,1/2+y,1/2-z
1/2-x,1/2-y,-z
1/2+x,1/2+y,1/2-z
1/2-x,1/2+y,z
1/2+x,1/2-y,1/2+z
loop_
_atom_site_type_symbol
_atom_site_label
_atom_site_fract_x
_atom_site_fract_y
_atom_site_fract_z
Si Si1 0.500000 0.555387 0.250000
Si Si2 0.842405 0.228385 0.164023
Si Si3 0.233255 0.523870 0.168745
Si Si4 0.346633 0.860720 0.939392
Si Si5 0.841966 0.619696 0.614567
O O1 0.381605 0.550712 0.185511
O O2 0.815660 0.205599 0.250000
O O3 0.750374 0.189941 0.104948
O O4 0.818936 0.309172 0.156763
O O5 0.000000 0.216606 0.150131
O O6 0.162646 0.531796 0.250000
O O7 0.166443 0.567409 0.103465
O O8 0.234491 0.444479 0.148013
O O9 0.500000 0.837092 0.935835
O O10 0.310296 0.868915 0.026709
O O11 0.000000 0.604237 0.620081
#
# Coordination Sequence:
#
# PCOD9474475 Si02
#       5
#     4  16  16  16  16
#     4   8  24  40  56  88 128 148 200 238 296 356
#     4  10  22  39  61  84 118 160 198 239 294 356
#     4  10  21  39  61  84 118 154 193 245 289 348
#     4  11  23  38  60  91 120 153 198 248 293 345
#     4  10  21  40  61  88 118 154 198 244 295 352
#
# _framework density 19.421723
#
# number of rings (size 3 to 8) (size 9 to 14) (size 15 to 20)
#    0.706    1.176    0.000    3.529    1.647    6.118 
#    4.235    1.176    0.000    0.000    0.000    0.000 
#    0.000    0.000    0.000    0.000    0.000    0.000 
#
# Total GULP energy -189313.937629 kJ/mol
# GULP energy per Si atom -5568.056989 kJ/mol
# Density = 1.937752 g / cm^3
# Si number density = 19.421723 Si / 1000 Ang^3
#
#
#
# Elastic Constant Matrix: (Units=GPa)
#
#
# Indices 1 2 3 4 5 6 
#
# 1 44.8443 7.0965 30.4966 0.0000 0.0000 0.0000
# 2 7.0965 72.1479 17.0712 0.0000 0.0000 0.0000
# 3 30.4966 17.0712 84.9098 0.0000 0.0000 0.0000
# 4 0.0000 0.0000 0.0000 30.9852 0.0000 0.0000
# 5 0.0000 0.0000 0.0000 0.0000 44.6631 0.0000
# 6 0.0000 0.0000 0.0000 0.0000 0.0000 13.1731
#
#
#
# Elastic Compliance Matrix: (Units=1/GPa)
#
#
# Indices 1 2 3 4 5 6 
#
# 1 0.029518 -0.000415 -0.010519 0.000000 0.000000 0.000000
# 2 -0.000415 0.014559 -0.002778 0.000000 0.000000 0.000000
# 3 -0.010519 -0.002778 0.016114 0.000000 0.000000 0.000000
# 4 0.000000 0.000000 0.000000 0.032274 0.000000 0.000000
# 5 0.000000 0.000000 0.000000 0.000000 0.022390 0.000000
# 6 0.000000 0.000000 0.000000 0.000000 0.000000 0.075912
#
#
# Mechanical properties :
#
#
# Convention : Reuss Voigt Hill
#
# Bulk Modulus (GPa) = 30.51767 34.58117 32.54942
# Shear Modulus (GPa) = 21.82347 27.58011 24.70179
#
# Velocity S-wave (km/s) = 3.35575 3.77246 3.57019
# Velocity P-wave (km/s) = 5.54635 6.06790 5.81297
#
# Compressibility (1/GPa) = 0.03276791
#
# Stress axis : x y z
#
# Youngs Moduli (GPa) = 33.87742 68.68819 62.05919
#
# Poissons Ratio (x) = 0.02848 0.65277
# Poissons Ratio (y) = 0.01404 0.17241
# Poissons Ratio (z) = 0.35634 0.19082
#
# Static dielectric constant tensor:
#      x y z
#    x 1.645540 0.000000 0.000000 
#    y 0.000000 1.708800 0.000000 
#    z 0.000000 0.000000 1.685890 
# 
# From -- ./inp_files/41852.got.cif
#   From: 2010.05.17/outbox.cif.g08.bks.cpg/sg63_21_cif.got.tgz:41852.got - 2010.06.03 15:47:04.
