data_PCOD9474941
_publ_section_title
;
Structure prediction by ZEFSAII (Michael W. Deem and Ramdas Pophale) SiO2 
 PCOD9474941
Probable space group: C M C M
;
_chemical_formula_sum "Si O2"
_cell_formula_units_Z 68
_cell_length_a 29.656061
_cell_length_b 5.450795
_cell_length_c 19.607272
_cell_angle_alpha 90.000000
_cell_angle_beta 90.000000
_cell_angle_gamma 90.000000
_cell_volume 3169.498049
_symmetry_space_group_name_H-M "C M C M"
_symmetry_group_IT_number 63
_symmetry_cell_setting 'orthorhombic'
loop_
_space_group_symop_operation_xyz
x,y,z
-x,-y,1/2+z
x,-y,-z
-x,y,1/2-z
-x,-y,-z
x,y,1/2-z
-x,y,z
x,-y,1/2+z
1/2+x,1/2+y,z
1/2-x,1/2-y,1/2+z
1/2+x,1/2-y,-z
1/2-x,1/2+y,1/2-z
1/2-x,1/2-y,-z
1/2+x,1/2+y,1/2-z
1/2-x,1/2+y,z
1/2+x,1/2-y,1/2+z
loop_
_atom_site_type_symbol
_atom_site_label
_atom_site_fract_x
_atom_site_fract_y
_atom_site_fract_z
Si Si1 0.077251 0.147395 0.934165
Si Si2 0.133074 0.417884 0.672853
Si Si3 0.228041 0.335990 0.167750
Si Si4 0.500000 0.000000 0.000000
Si Si5 0.548466 0.275638 0.676763
O O1 0.118861 0.238142 0.887714
O O2 0.040531 0.345086 0.959360
O O3 0.051646 0.956668 0.885608
O O4 0.093638 0.000000 0.000000
O O5 0.139977 0.310592 0.750000
O O6 0.176927 0.577867 0.656147
O O7 0.089614 0.591964 0.676021
O O8 0.233846 0.322278 0.250000
O O9 0.258724 0.564698 0.142500
O O10 0.550255 0.410352 0.750000
O O11 0.500000 0.145496 0.673312
#
# Coordination Sequence:
#
# PCOD9474941 Si02
#       5
#    16  16  16   4  16
#     4  12  25  40  63  88 128 177 227 270 322 396
#     4  10  23  40  65  97 132 171 223 279 339 405
#     4   9  19  37  65  99 134 172 220 285 355 417
#     4  12  26  44  58  86 120 176 224 264 320 392
#     4  10  22  40  63  93 128 170 218 271 331 392
#
# _framework density 21.454502999999999
#
# number of rings (size 3 to 8) (size 9 to 14) (size 15 to 20)
#    0.000    1.647    1.176    2.471    8.235    0.000 
#    0.000    0.000    0.000    1.412    0.000    0.000 
#    0.000    0.000    0.000    0.000    0.000    0.000 
#
# Total GULP energy -189284.747123 kJ/mol
# GULP energy per Si atom -5567.198445 kJ/mol
# Density = 2.140567 g / cm^3
# Si number density = 21.454503 Si / 1000 Ang^3
#
#
#
# Elastic Constant Matrix: (Units=GPa)
#
#
# Indices 1 2 3 4 5 6 
#
# 1 60.9585 -10.7691 0.7398 0.0000 0.0000 0.0000
# 2 -10.7691 23.2836 28.4403 0.0000 0.0000 0.0000
# 3 0.7398 28.4403 120.8879 0.0000 0.0000 0.0000
# 4 0.0000 0.0000 0.0000 32.8991 0.0000 0.0000
# 5 0.0000 0.0000 0.0000 0.0000 47.3616 0.0000
# 6 0.0000 0.0000 0.0000 0.0000 0.0000 49.0884
#
#
#
# Elastic Compliance Matrix: (Units=1/GPa)
#
#
# Indices 1 2 3 4 5 6 
#
# 1 0.018609 0.012273 -0.003001 0.000000 0.000000 0.000000
# 2 0.012273 0.068362 -0.016158 0.000000 0.000000 0.000000
# 3 -0.003001 -0.016158 0.012092 0.000000 0.000000 0.000000
# 4 0.000000 0.000000 0.000000 0.030396 0.000000 0.000000
# 5 0.000000 0.000000 0.000000 0.000000 0.021114 0.000000
# 6 0.000000 0.000000 0.000000 0.000000 0.000000 0.020371
#
#
# Mechanical properties :
#
#
# Convention : Reuss Voigt Hill
#
# Bulk Modulus (GPa) = 11.72465 26.88355 19.30410
# Shear Modulus (GPa) = 23.45799 38.31776 30.88787
#
# Velocity S-wave (km/s) = 3.31022 4.23070 3.79844
# Velocity P-wave (km/s) = 4.48183 6.03513 5.31552
#
# Compressibility (1/GPa) = 0.08529042
#
# Stress axis : x y z
#
# Youngs Moduli (GPa) = 53.73686 14.62805 82.70032
#
# Poissons Ratio (x) = -0.17953 0.24820
# Poissons Ratio (y) = -0.65952 1.33627
# Poissons Ratio (z) = 0.16128 0.23636
#
# Static dielectric constant tensor:
#      x y z
#    x 1.761820 0.000000 0.000000 
#    y 0.000000 1.835990 0.000000 
#    z 0.000000 0.000000 2.270640 
# 
# From -- ./inp_files/57911.got.cif
#   From: 2010.05.17/outbox.cif.g08.bks.cpg/sg63_29_cif.got.tgz:57911.got - 2010.06.03 15:47:04.
