data_PCOD9474811
_publ_section_title
;
Structure prediction by ZEFSAII (Michael W. Deem and Ramdas Pophale) SiO2 
 PCOD9474811
Probable space group: C M C M
;
_chemical_formula_sum "Si O2"
_cell_formula_units_Z 64
_cell_length_a 19.900655
_cell_length_b 10.950059
_cell_length_c 14.030861
_cell_angle_alpha 90.000000
_cell_angle_beta 90.000000
_cell_angle_gamma 90.000000
_cell_volume 3057.511873
_symmetry_space_group_name_H-M "C M C M"
_symmetry_group_IT_number 63
_symmetry_cell_setting 'orthorhombic'
loop_
_space_group_symop_operation_xyz
x,y,z
-x,-y,1/2+z
x,-y,-z
-x,y,1/2-z
-x,-y,-z
x,y,1/2-z
-x,y,z
x,-y,1/2+z
1/2+x,1/2+y,z
1/2-x,1/2-y,1/2+z
1/2+x,1/2-y,-z
1/2-x,1/2+y,1/2-z
1/2-x,1/2-y,-z
1/2+x,1/2+y,1/2-z
1/2-x,1/2+y,z
1/2+x,1/2-y,1/2+z
loop_
_atom_site_type_symbol
_atom_site_label
_atom_site_fract_x
_atom_site_fract_y
_atom_site_fract_z
Si Si1 0.214976 0.209237 0.641363
Si Si2 0.500000 0.395853 0.417582
Si Si3 0.857607 0.263710 0.452581
Si Si4 0.000000 0.641577 0.972429
Si Si5 0.370520 0.518685 0.354556
O O1 0.203845 0.251284 0.750000
O O2 0.170172 0.277897 0.560881
O O3 0.292677 0.215045 0.612576
O O4 0.193667 0.067266 0.636027
O O5 0.500000 0.500000 0.500000
O O6 0.500000 0.255846 0.452189
O O7 0.433441 0.427900 0.359715
O O8 0.874489 0.121559 0.434169
O O9 0.925920 0.334932 0.427132
O O10 0.000000 0.500000 0.000000
O O11 0.370754 0.578494 0.250000
#
# Coordination Sequence:
#
# PCOD9474811 Si02
#       5
#    16   8  16   8  16
#     4  10  22  38  64  99 131 173 221 279 342 400
#     4  12  19  40  67  96 128 167 227 281 330 399
#     4  11  22  42  66  93 141 173 225 283 337 405
#     4  12  26  42  66  98 133 184 226 273 351 411
#     4  11  21  37  68 101 128 172 230 282 335 400
#
# _framework density 20.932054000000001
#
# number of rings (size 3 to 8) (size 9 to 14) (size 15 to 20)
#    0.000    1.000    5.000    1.875    0.000    4.000 
#    0.000    2.500    0.000    9.000    0.000    0.000 
#    0.000    0.000    0.000    0.000    0.000    0.000 
#
# Total GULP energy -178436.024427 kJ/mol
# GULP energy per Si atom -5576.125763 kJ/mol
# Density = 2.088441 g / cm^3
# Si number density = 20.932054 Si / 1000 Ang^3
#
#
#
# Elastic Constant Matrix: (Units=GPa)
#
#
# Indices 1 2 3 4 5 6 
#
# 1 139.4697 36.7458 2.1821 0.0000 0.0000 0.0000
# 2 36.7458 89.7439 -0.4174 0.0000 0.0000 0.0000
# 3 2.1821 -0.4174 93.8983 0.0000 0.0000 0.0000
# 4 0.0000 0.0000 0.0000 20.9158 0.0000 0.0000
# 5 0.0000 0.0000 0.0000 0.0000 12.0539 0.0000
# 6 0.0000 0.0000 0.0000 0.0000 0.0000 37.6260
#
#
#
# Elastic Compliance Matrix: (Units=1/GPa)
#
#
# Indices 1 2 3 4 5 6 
#
# 1 0.008041 -0.003293 -0.000201 0.000000 0.000000 0.000000
# 2 -0.003293 0.012492 0.000132 0.000000 0.000000 0.000000
# 3 -0.000201 0.000132 0.010655 0.000000 0.000000 0.000000
# 4 0.000000 0.000000 0.000000 0.047811 0.000000 0.000000
# 5 0.000000 0.000000 0.000000 0.000000 0.082961 0.000000
# 6 0.000000 0.000000 0.000000 0.000000 0.000000 0.026577
#
#
# Mechanical properties :
#
#
# Convention : Reuss Voigt Hill
#
# Bulk Modulus (GPa) = 40.87910 44.45921 42.66916
# Shear Modulus (GPa) = 24.58016 33.09256 28.83636
#
# Velocity S-wave (km/s) = 3.43050 3.98043 3.71565
# Velocity P-wave (km/s) = 5.93826 6.51237 6.23193
#
# Compressibility (1/GPa) = 0.02446238
#
# Stress axis : x y z
#
# Youngs Moduli (GPa) = 124.36514 80.05205 93.85190
#
# Poissons Ratio (x) = 0.26363 0.01891
# Poissons Ratio (y) = 0.40957 -0.01239
# Poissons Ratio (z) = 0.02506 -0.01057
#
# Static dielectric constant tensor:
#      x y z
#    x 1.875890 0.000000 0.000000 
#    y 0.000000 1.734300 0.000000 
#    z 0.000000 0.000000 1.834070 
# 
# From -- ./inp_files/33413.got.cif
#   From: 2010.05.17/outbox.cif.g08.bks.cpg/sg63_17_cif.got.tgz:33413.got - 2010.06.03 15:47:04.
