data_PCOD9474122
_publ_section_title
;
Structure prediction by ZEFSAII (Michael W. Deem and Ramdas Pophale) SiO2 
 PCOD9474122
Probable space group: C M C M
;
_chemical_formula_sum "Si O2"
_cell_formula_units_Z 64
_cell_length_a 21.713964
_cell_length_b 8.089891
_cell_length_c 18.458309
_cell_angle_alpha 90.000000
_cell_angle_beta 90.000000
_cell_angle_gamma 90.000000
_cell_volume 3242.453045
_symmetry_space_group_name_H-M "C M C M"
_symmetry_group_IT_number 63
_symmetry_cell_setting 'orthorhombic'
loop_
_space_group_symop_operation_xyz
x,y,z
-x,-y,1/2+z
x,-y,-z
-x,y,1/2-z
-x,-y,-z
x,y,1/2-z
-x,y,z
x,-y,1/2+z
1/2+x,1/2+y,z
1/2-x,1/2-y,1/2+z
1/2+x,1/2-y,-z
1/2-x,1/2+y,1/2-z
1/2-x,1/2-y,-z
1/2+x,1/2+y,1/2-z
1/2-x,1/2+y,z
1/2+x,1/2-y,1/2+z
loop_
_atom_site_type_symbol
_atom_site_label
_atom_site_fract_x
_atom_site_fract_y
_atom_site_fract_z
Si Si1 0.379201 0.672141 0.829723
Si Si2 0.276600 0.201559 0.250000
Si Si3 0.574330 0.690149 0.130980
Si Si4 0.151667 0.646369 0.750000
Si Si5 0.572174 0.189161 0.476433
O O1 0.404163 0.728418 0.750000
O O2 0.306160 0.697676 0.817473
O O3 0.403394 0.487483 0.841051
O O4 0.397251 0.772413 0.900337
O O5 0.203849 0.210331 0.250000
O O6 0.308709 0.021873 0.250000
O O7 0.500000 0.705891 0.136884
O O8 0.608482 0.826274 0.180195
O O9 0.592086 0.706670 0.046636
O O10 0.500000 0.224160 0.465901
O O11 0.579319 0.000000 0.500000
#
# Coordination Sequence:
#
# PCOD9474122 Si02
#       5
#    16   8  16   8  16
#     4  10  21  39  60  87 123 158 207 247 303 365
#     4  10  24  39  62  88 120 163 209 254 305 356
#     4  11  22  37  62  92 125 162 203 251 307 367
#     4  12  21  41  62  88 123 163 205 258 303 370
#     4  10  21  37  57  88 127 163 202 253 307 360
#
# _framework density 19.738143000000001
#
# number of rings (size 3 to 8) (size 9 to 14) (size 15 to 20)
#    0.750    0.750    1.250    4.875    0.000    3.500 
#    0.000    5.000    0.000    0.000    0.000    0.000 
#    0.000    0.000    0.000    0.000    0.000    0.000 
#
# Total GULP energy -178414.484807 kJ/mol
# GULP energy per Si atom -5575.452650 kJ/mol
# Density = 1.969322 g / cm^3
# Si number density = 19.738143 Si / 1000 Ang^3
#
#
#
# Elastic Constant Matrix: (Units=GPa)
#
#
# Indices 1 2 3 4 5 6 
#
# 1 86.7883 64.1334 59.7404 0.0000 0.0000 0.0000
# 2 64.1334 299.9727 75.6876 0.0000 0.0000 0.0000
# 3 59.7404 75.6876 180.6124 0.0000 0.0000 0.0000
# 4 0.0000 0.0000 0.0000 40.9169 0.0000 0.0000
# 5 0.0000 0.0000 0.0000 0.0000 -320.9259 0.0000
# 6 0.0000 0.0000 0.0000 0.0000 0.0000 26.9431
#
#
#
# Elastic Compliance Matrix: (Units=1/GPa)
#
#
# Indices 1 2 3 4 5 6 
#
# 1 0.016305 -0.002377 -0.004397 0.000000 0.000000 0.000000
# 2 -0.002377 0.004074 -0.000921 0.000000 0.000000 0.000000
# 3 -0.004397 -0.000921 0.007377 0.000000 0.000000 0.000000
# 4 0.000000 0.000000 0.000000 0.024440 0.000000 0.000000
# 5 0.000000 0.000000 0.000000 0.000000 -0.003116 0.000000
# 6 0.000000 0.000000 0.000000 0.000000 0.000000 0.037115
#
#
# Mechanical properties :
#
#
# Convention : Reuss Voigt Hill
#
# Bulk Modulus (GPa) = 80.86327 107.38846 94.12587
# Shear Modulus (GPa) = 47.29995 -26.09239 10.60378
#
# Velocity S-wave (km/s) = 4.90059 -3.63978 2.32032
# Velocity P-wave (km/s) = 8.54857 6.07130 7.41413
#
# Compressibility (1/GPa) = 0.01236655
#
# Stress axis : x y z
#
# Youngs Moduli (GPa) = 61.32947 245.44817 135.55143
#
# Poissons Ratio (x) = 0.58332 0.59607
# Poissons Ratio (y) = 0.14575 0.12488
# Poissons Ratio (z) = 0.26969 0.22612
#
# Static dielectric constant tensor:
#      x y z
#    x 1.692590 0.000000 0.000000 
#    y 0.000000 1.767690 0.000000 
#    z 0.000000 0.000000 1.700980 
# 
# From -- ./inp_files/47738.got.cif
#   From: 2010.05.17/outbox.cif.g08.bks.cpg/sg63_24_cif.got.tgz:47738.got - 2010.06.03 15:47:04.
