data_PCOD9474284
_publ_section_title
;
Structure prediction by ZEFSAII (Michael W. Deem and Ramdas Pophale) SiO2 
 PCOD9474284
Probable space group: C M C M
;
_chemical_formula_sum "Si O2"
_cell_formula_units_Z 116
_cell_length_a 7.771164
_cell_length_b 24.697305
_cell_length_c 31.206646
_cell_angle_alpha 90.000000
_cell_angle_beta 90.000000
_cell_angle_gamma 90.000000
_cell_volume 5989.391940
_symmetry_space_group_name_H-M "C M C M"
_symmetry_group_IT_number 63
_symmetry_cell_setting 'orthorhombic'
loop_
_space_group_symop_operation_xyz
x,y,z
-x,-y,1/2+z
x,-y,-z
-x,y,1/2-z
-x,-y,-z
x,y,1/2-z
-x,y,z
x,-y,1/2+z
1/2+x,1/2+y,z
1/2-x,1/2-y,1/2+z
1/2+x,1/2-y,-z
1/2-x,1/2+y,1/2-z
1/2-x,1/2-y,-z
1/2+x,1/2+y,1/2-z
1/2-x,1/2+y,z
1/2+x,1/2-y,1/2+z
loop_
_atom_site_type_symbol
_atom_site_label
_atom_site_fract_x
_atom_site_fract_y
_atom_site_fract_z
Si Si1 0.706466 0.221890 0.203222
Si Si2 0.800731 0.653176 0.945905
Si Si3 0.706529 0.031438 0.541849
Si Si4 0.200035 0.167131 0.037651
Si Si5 0.302144 0.905993 0.689347
Si Si6 0.000000 0.942892 0.750000
Si Si7 0.205820 0.931060 0.593832
Si Si8 0.300972 0.250751 0.110047
O O1 0.775036 0.239726 0.250000
O O2 0.500000 0.231393 0.204177
O O3 0.732133 0.157234 0.199859
O O4 0.771461 0.246638 0.158359
O O5 0.729207 0.592437 0.951682
O O6 0.710869 0.690134 0.910697
O O7 0.000000 0.649664 0.933291
O O8 0.790611 0.680379 0.992998
O O9 0.500000 0.035575 0.536995
O O10 0.775909 0.000000 0.500000
O O11 0.747951 0.991820 0.580952
O O12 0.267817 0.110433 0.056964
O O13 0.216177 0.210458 0.075696
O O14 0.000000 0.161213 0.026857
O O15 0.500000 0.918036 0.701622
O O16 0.285137 0.914009 0.638692
O O17 0.153688 0.939025 0.713133
O O18 0.000000 0.924861 0.596470
O O19 0.500000 0.233535 0.112400
#
# Coordination Sequence:
#
# PCOD9474284 Si02
#       8
#    16  16  16  16  16   4  16  16
#     4   9  18  34  56  82 109 149 190 229 288 352
#     4  11  23  39  56  79 111 151 200 244 287 348
#     4  10  21  38  59  80 108 151 200 243 290 350
#     4  11  22  35  55  81 118 154 190 233 288 347
#     4  11  21  36  58  85 124 157 191 243 296 359
#     4  12  22  36  56  90 122 156 198 236 302 378
#     4  11  22  35  56  89 120 150 194 247 294 353
#     4  11  22  36  56  81 115 151 189 236 289 354
#
# _framework density 19.367574000000001
#
# number of rings (size 3 to 8) (size 9 to 14) (size 15 to 20)
#    0.000    1.379    4.138    2.276    0.000    2.483 
#    1.241    0.000    0.000    0.000    1.793    0.000 
#    0.000    0.000    0.000    0.000    0.000    0.000 
#
# Total GULP energy -323349.316453 kJ/mol
# GULP energy per Si atom -5574.988215 kJ/mol
# Density = 1.932349 g / cm^3
# Si number density = 19.367574 Si / 1000 Ang^3
#
#
#
# Elastic Constant Matrix: (Units=GPa)
#
#
# Indices 1 2 3 4 5 6 
#
# 1 56.0218 2.2101 2.8366 0.0000 0.0000 0.0000
# 2 2.2101 76.7172 39.0035 0.0000 0.0000 0.0000
# 3 2.8366 39.0035 139.6662 0.0000 0.0000 0.0000
# 4 0.0000 0.0000 0.0000 26.5774 0.0000 0.0000
# 5 0.0000 0.0000 0.0000 0.0000 6.0841 0.0000
# 6 0.0000 0.0000 0.0000 0.0000 0.0000 15.8166
#
#
#
# Elastic Compliance Matrix: (Units=1/GPa)
#
#
# Indices 1 2 3 4 5 6 
#
# 1 0.017878 -0.000385 -0.000256 0.000000 0.000000 0.000000
# 2 -0.000385 0.015200 -0.004237 0.000000 0.000000 0.000000
# 3 -0.000256 -0.004237 0.008348 0.000000 0.000000 0.000000
# 4 0.000000 0.000000 0.000000 0.037626 0.000000 0.000000
# 5 0.000000 0.000000 0.000000 0.000000 0.164362 0.000000
# 6 0.000000 0.000000 0.000000 0.000000 0.000000 0.063225
#
#
# Mechanical properties :
#
#
# Convention : Reuss Voigt Hill
#
# Bulk Modulus (GPa) = 31.57420 40.05619 35.81520
# Shear Modulus (GPa) = 15.29276 24.91929 20.10602
#
# Velocity S-wave (km/s) = 2.81304 3.59088 3.22549
# Velocity P-wave (km/s) = 5.18545 6.15789 5.69247
#
# Compressibility (1/GPa) = 0.03167143
#
# Stress axis : x y z
#
# Youngs Moduli (GPa) = 55.93362 65.78910 119.78420
#
# Poissons Ratio (x) = 0.02534 0.03061
# Poissons Ratio (y) = 0.02154 0.50752
# Poissons Ratio (z) = 0.01429 0.27875
#
# Static dielectric constant tensor:
#      x y z
#    x 1.695970 0.000000 0.000000 
#    y 0.000000 1.682030 0.000000 
#    z 0.000000 0.000000 1.689360 
# 
# From -- ./inp_files/72059.got.cif
#   From: 2010.05.17/outbox.cif.g08.bks.cpg/sg63_37_cif.got.tgz:72059.got - 2010.06.03 15:47:04.
