data_PCOD9474884
_publ_section_title
;
Structure prediction by ZEFSAII (Michael W. Deem and Ramdas Pophale) SiO2 
 PCOD9474884
Probable space group: C M C M
;
_chemical_formula_sum "Si O2"
_cell_formula_units_Z 116
_cell_length_a 19.887857
_cell_length_b 15.755346
_cell_length_c 17.595478
_cell_angle_alpha 90.000000
_cell_angle_beta 90.000000
_cell_angle_gamma 90.000000
_cell_volume 5513.368277
_symmetry_space_group_name_H-M "C M C M"
_symmetry_group_IT_number 63
_symmetry_cell_setting 'orthorhombic'
loop_
_space_group_symop_operation_xyz
x,y,z
-x,-y,1/2+z
x,-y,-z
-x,y,1/2-z
-x,-y,-z
x,y,1/2-z
-x,y,z
x,-y,1/2+z
1/2+x,1/2+y,z
1/2-x,1/2-y,1/2+z
1/2+x,1/2-y,-z
1/2-x,1/2+y,1/2-z
1/2-x,1/2-y,-z
1/2+x,1/2+y,1/2-z
1/2-x,1/2+y,z
1/2+x,1/2-y,1/2+z
loop_
_atom_site_type_symbol
_atom_site_label
_atom_site_fract_x
_atom_site_fract_y
_atom_site_fract_z
Si Si1 0.421883 0.687575 0.534743
Si Si2 0.158438 0.034375 0.913571
Si Si3 0.133431 0.634230 0.422009
Si Si4 0.576901 0.030108 0.659450
Si Si5 0.253530 0.771524 0.834458
Si Si6 0.000000 0.180835 0.250000
Si Si7 0.798265 0.610173 0.583128
Si Si8 0.882773 0.138666 0.135168
O O1 0.500000 0.663661 0.537467
O O2 0.378918 0.624800 0.588510
O O3 0.412217 0.786056 0.554152
O O4 0.393490 0.670981 0.450633
O O5 0.238059 0.044490 0.898746
O O6 0.120705 0.963624 0.864560
O O7 0.153266 0.000000 0.000000
O O8 0.093053 0.555171 0.387921
O O9 0.183731 0.672550 0.359734
O O10 0.177298 0.607877 0.495960
O O11 0.582018 0.015564 0.750000
O O12 0.500000 0.058716 0.643816
O O13 0.635181 0.094528 0.633191
O O14 0.262957 0.734560 0.750000
O O15 0.235629 0.699446 0.895741
O O16 0.188660 0.830662 0.835673
O O17 0.058379 0.176044 0.315236
#
# Coordination Sequence:
#
# PCOD9474884 Si02
#       8
#    16  16  16  16  16   4  16  16
#     4  11  22  39  66  98 129 170 221 279 330 385
#     4  10  22  39  65  94 126 166 215 273 330 380
#     4  12  23  42  72  98 133 172 233 283 332 398
#     4  11  26  47  68  98 139 180 221 277 353 419
#     4  12  24  42  65  99 136 177 220 276 341 404
#     4  12  24  44  62  92 136 178 210 268 330 416
#     4  12  23  44  70  99 133 172 229 287 328 399
#     4  11  23  41  64  92 130 174 217 265 330 399
#
# _framework density 21.039769
#
# number of rings (size 3 to 8) (size 9 to 14) (size 15 to 20)
#    0.000    0.690    4.138    5.379    0.966    2.483 
#    3.724    0.000    0.000    0.000    0.000    0.000 
#    0.000    0.000    0.000    0.000    0.000    0.000 
#
# Total GULP energy -323764.319357 kJ/mol
# GULP energy per Si atom -5582.143437 kJ/mol
# Density = 2.099188 g / cm^3
# Si number density = 21.039769 Si / 1000 Ang^3
#
#
#
# Elastic Constant Matrix: (Units=GPa)
#
#
# Indices 1 2 3 4 5 6 
#
# 1 86.5032 -12.8583 2.7317 0.0000 0.0000 0.0000
# 2 -12.8583 22.2122 -23.1346 0.0000 0.0000 0.0000
# 3 2.7317 -23.1346 44.5719 0.0000 0.0000 0.0000
# 4 0.0000 0.0000 0.0000 -22.7680 0.0000 0.0000
# 5 0.0000 0.0000 0.0000 0.0000 36.3389 0.0000
# 6 0.0000 0.0000 0.0000 0.0000 0.0000 21.0468
#
#
#
# Elastic Compliance Matrix: (Units=1/GPa)
#
#
# Indices 1 2 3 4 5 6 
#
# 1 0.013604 0.015252 0.007082 0.000000 0.000000 0.000000
# 2 0.015252 0.115096 0.058805 0.000000 0.000000 0.000000
# 3 0.007082 0.058805 0.052524 0.000000 0.000000 0.000000
# 4 0.000000 0.000000 0.000000 -0.043921 0.000000 0.000000
# 5 0.000000 0.000000 0.000000 0.000000 0.027519 0.000000
# 6 0.000000 0.000000 0.000000 0.000000 0.000000 0.047513
#
#
# Mechanical properties :
#
#
# Convention : Reuss Voigt Hill
#
# Bulk Modulus (GPa) = 2.91120 9.64053 6.27587
# Shear Modulus (GPa) = 30.38465 19.36011 24.87238
#
# Velocity S-wave (km/s) = 3.80432 3.03672 3.44199
# Velocity P-wave (km/s) = 4.54795 4.10944 4.33425
#
# Compressibility (1/GPa) = 0.34350088
#
# Stress axis : x y z
#
# Youngs Moduli (GPa) = 73.50954 8.68840 19.03904
#
# Poissons Ratio (x) = -0.13251 -0.13484
# Poissons Ratio (y) = -1.12113 -1.11959
# Poissons Ratio (z) = -0.52063 -0.51092
#
# Static dielectric constant tensor:
#      x y z
#    x 1.727640 0.000000 0.000000 
#    y 0.000000 1.792920 0.000000 
#    z 0.000000 0.000000 1.747880 
# 
# From -- ./inp_files/45910.got.cif
#   From: 2010.05.17/outbox.cif.g08.bks.cpg/sg63_23_cif.got.tgz:45910.got - 2010.06.03 15:47:04.
