data_PCOD9474511
_publ_section_title
;
Structure prediction by ZEFSAII (Michael W. Deem and Ramdas Pophale) SiO2 
 PCOD9474511
Probable space group: C M C M
;
_chemical_formula_sum "Si O2"
_cell_formula_units_Z 80
_cell_length_a 8.749408
_cell_length_b 20.592881
_cell_length_c 23.381343
_cell_angle_alpha 90.000000
_cell_angle_beta 90.000000
_cell_angle_gamma 90.000000
_cell_volume 4212.745581
_symmetry_space_group_name_H-M "C M C M"
_symmetry_group_IT_number 63
_symmetry_cell_setting 'orthorhombic'
loop_
_space_group_symop_operation_xyz
x,y,z
-x,-y,1/2+z
x,-y,-z
-x,y,1/2-z
-x,-y,-z
x,y,1/2-z
-x,y,z
x,-y,1/2+z
1/2+x,1/2+y,z
1/2-x,1/2-y,1/2+z
1/2+x,1/2-y,-z
1/2-x,1/2+y,1/2-z
1/2-x,1/2-y,-z
1/2+x,1/2+y,1/2-z
1/2-x,1/2+y,z
1/2+x,1/2-y,1/2+z
loop_
_atom_site_type_symbol
_atom_site_label
_atom_site_fract_x
_atom_site_fract_y
_atom_site_fract_z
Si Si1 0.817143 0.616151 0.366587
Si Si2 0.180375 0.768843 0.939349
Si Si3 0.186156 0.488022 0.065100
Si Si4 0.317746 0.671473 0.250000
Si Si5 0.819068 0.638498 0.634116
Si Si6 0.680383 0.317137 0.250000
O O1 0.767678 0.670835 0.411834
O O2 0.770210 0.547009 0.393141
O O3 0.741524 0.635096 0.306543
O O4 0.000000 0.616534 0.359719
O O5 0.198073 0.706812 0.898170
O O6 0.000000 0.783183 0.944162
O O7 0.250000 0.750000 0.000000
O O8 0.233696 0.419840 0.092986
O O9 0.000000 0.487227 0.062601
O O10 0.239732 0.500000 0.000000
O O11 0.500000 0.673524 0.250000
O O12 0.257880 0.745764 0.250000
O O13 0.732216 0.644418 0.693687
O O14 0.000000 0.628958 0.645606
O O15 0.500000 0.307304 0.250000
#
# Coordination Sequence:
#
# PCOD9474511 Si02
#       6
#    16  16  16   8  16   8
#     4  11  22  38  63  92 122 157 205 258 307 358
#     4  11  22  36  59  88 120 159 206 255 307 364
#     4   9  19  38  63  91 123 162 204 248 298 365
#     4  12  24  41  62  87 123 163 205 251 310 374
#     4  10  21  39  63  88 120 163 205 247 302 363
#     4  12  24  39  62  91 123 157 203 259 312 360
#
# _framework density 18.989989999999999
#
# number of rings (size 3 to 8) (size 9 to 14) (size 15 to 20)
#    0.000    1.400    2.000    4.200    0.000    4.800 
#    0.000    6.000    0.000    4.200    0.000    0.000 
#    0.000    0.000    0.000    0.000    0.000    0.000 
#
# Total GULP energy -223590.533175 kJ/mol
# GULP energy per Si atom -5589.763329 kJ/mol
# Density = 1.894677 g / cm^3
# Si number density = 18.989990 Si / 1000 Ang^3
#
#
#
# Elastic Constant Matrix: (Units=GPa)
#
#
# Indices 1 2 3 4 5 6 
#
# 1 61.3868 10.7561 18.9181 0.0000 0.0000 0.0000
# 2 10.7561 55.1237 -22.3164 0.0000 0.0000 0.0000
# 3 18.9181 -22.3164 75.4033 0.0000 0.0000 0.0000
# 4 0.0000 0.0000 0.0000 33.8062 0.0000 0.0000
# 5 0.0000 0.0000 0.0000 0.0000 35.4648 0.0000
# 6 0.0000 0.0000 0.0000 0.0000 0.0000 21.3431
#
#
#
# Elastic Compliance Matrix: (Units=1/GPa)
#
#
# Indices 1 2 3 4 5 6 
#
# 1 0.019559 -0.006593 -0.006858 0.000000 0.000000 0.000000
# 2 -0.006593 0.022833 0.008412 0.000000 0.000000 0.000000
# 3 -0.006858 0.008412 0.017472 0.000000 0.000000 0.000000
# 4 0.000000 0.000000 0.000000 0.029580 0.000000 0.000000
# 5 0.000000 0.000000 0.000000 0.000000 0.028197 0.000000
# 6 0.000000 0.000000 0.000000 0.000000 0.000000 0.046854
#
#
# Mechanical properties :
#
#
# Convention : Reuss Voigt Hill
#
# Bulk Modulus (GPa) = 20.08649 22.95883 21.52266
# Shear Modulus (GPa) = 26.15478 30.42656 28.29067
#
# Velocity S-wave (km/s) = 3.71522 4.00714 3.86394
# Velocity P-wave (km/s) = 5.38555 5.79015 5.59151
#
# Compressibility (1/GPa) = 0.04978471
#
# Stress axis : x y z
#
# Youngs Moduli (GPa) = 51.12731 43.79635 57.23338
#
# Poissons Ratio (x) = 0.28875 0.39253
# Poissons Ratio (y) = 0.33709 -0.48144
# Poissons Ratio (z) = 0.35066 -0.36841
#
# Static dielectric constant tensor:
#      x y z
#    x 1.647590 0.000000 0.000000 
#    y 0.000000 1.646640 0.000000 
#    z 0.000000 0.000000 1.641780 
# 
# From -- ./inp_files/59526.got.cif
#   From: 2010.05.17/outbox.cif.g08.bks.cpg/sg63_30_cif.got.tgz:59526.got - 2010.06.03 15:47:04.
