data_PCOD9474078
_publ_section_title
;
Structure prediction by ZEFSAII (Michael W. Deem and Ramdas Pophale) SiO2 
 PCOD9474078
Probable space group: C M C M
;
_chemical_formula_sum "Si O2"
_cell_formula_units_Z 96
_cell_length_a 23.930695
_cell_length_b 26.198267
_cell_length_c 8.754417
_cell_angle_alpha 90.000000
_cell_angle_beta 90.000000
_cell_angle_gamma 90.000000
_cell_volume 5488.518156
_symmetry_space_group_name_H-M "C M C M"
_symmetry_group_IT_number 63
_symmetry_cell_setting 'orthorhombic'
loop_
_space_group_symop_operation_xyz
x,y,z
-x,-y,1/2+z
x,-y,-z
-x,y,1/2-z
-x,-y,-z
x,y,1/2-z
-x,y,z
x,-y,1/2+z
1/2+x,1/2+y,z
1/2-x,1/2-y,1/2+z
1/2+x,1/2-y,-z
1/2-x,1/2+y,1/2-z
1/2-x,1/2-y,-z
1/2+x,1/2+y,1/2-z
1/2-x,1/2+y,z
1/2+x,1/2-y,1/2+z
loop_
_atom_site_type_symbol
_atom_site_label
_atom_site_fract_x
_atom_site_fract_y
_atom_site_fract_z
Si Si1 0.874891 0.657492 0.565684
Si Si2 0.749174 0.807241 0.432844
Si Si3 0.564855 0.945621 0.433817
Si Si4 0.565621 0.255986 0.432049
Si Si5 0.064326 0.944355 0.934220
Si Si6 0.362270 0.348023 0.566766
O O1 0.880815 0.661527 0.750000
O O2 0.810126 0.667135 0.528237
O O3 0.897775 0.602268 0.518057
O O4 0.910936 0.702089 0.489744
O O5 0.753615 0.803783 0.250000
O O6 0.750000 0.750000 0.500000
O O7 0.801279 0.838814 0.497315
O O8 0.566296 0.948410 0.250000
O O9 0.500000 0.937121 0.479746
O O10 0.582950 0.000000 0.500000
O O11 0.573507 0.260126 0.250000
O O12 0.500000 0.260288 0.466477
O O13 0.599812 0.300661 0.513813
O O14 0.065508 0.946825 0.750000
O O15 0.106775 0.900036 0.982962
O O16 0.000000 0.932067 0.979661
O O17 0.078033 0.000000 0.000000
O O18 0.358427 0.347957 0.750000
#
# Coordination Sequence:
#
# PCOD9474078 Si02
#       6
#    16  16  16  16  16  16
#     4  10  21  37  57  79 107 146 186 225 275 333
#     4  11  22  37  57  81 110 148 191 232 278 330
#     4   9  18  34  56  81 108 140 179 222 272 329
#     4  11  23  35  52  82 114 142 178 228 281 332
#     4   9  19  36  58  83 110 143 184 229 280 337
#     4  11  22  37  57  81 111 149 188 227 278 336
#
# _framework density 17.491059
#
# number of rings (size 3 to 8) (size 9 to 14) (size 15 to 20)
#    0.000    1.833    1.667    2.500    0.000    5.333 
#    0.000    4.167    0.000    4.000    0.000    0.000 
#    0.000    0.000    0.000    0.000    0.000    0.000 
#
# Total GULP energy -268072.440812 kJ/mol
# GULP energy per Si atom -5584.842517 kJ/mol
# Density = 1.745125 g / cm^3
# Si number density = 17.491059 Si / 1000 Ang^3
#
#
#
# Elastic Constant Matrix: (Units=GPa)
#
#
# Indices 1 2 3 4 5 6 
#
# 1 81.1059 47.8764 30.3291 0.0000 0.0000 0.0000
# 2 47.8764 122.8346 21.5186 0.0000 0.0000 0.0000
# 3 30.3291 21.5186 22.8033 0.0000 0.0000 0.0000
# 4 0.0000 0.0000 0.0000 31.8152 0.0000 0.0000
# 5 0.0000 0.0000 0.0000 0.0000 21.5241 0.0000
# 6 0.0000 0.0000 0.0000 0.0000 0.0000 11.6407
#
#
#
# Elastic Compliance Matrix: (Units=1/GPa)
#
#
# Indices 1 2 3 4 5 6 
#
# 1 0.026917 -0.005055 -0.031030 0.000000 0.000000 0.000000
# 2 -0.005055 0.010703 -0.003376 0.000000 0.000000 0.000000
# 3 -0.031030 -0.003376 0.088310 0.000000 0.000000 0.000000
# 4 0.000000 0.000000 0.000000 0.031432 0.000000 0.000000
# 5 0.000000 0.000000 0.000000 0.000000 0.046460 0.000000
# 6 0.000000 0.000000 0.000000 0.000000 0.000000 0.085906
#
#
# Mechanical properties :
#
#
# Convention : Reuss Voigt Hill
#
# Bulk Modulus (GPa) = 21.27343 47.35465 34.31404
# Shear Modulus (GPa) = 13.01002 21.46399 17.23700
#
# Velocity S-wave (km/s) = 2.73025 3.50686 3.14263
# Velocity P-wave (km/s) = 4.70403 6.59771 5.72964
#
# Compressibility (1/GPa) = 0.04700699
#
# Stress axis : x y z
#
# Youngs Moduli (GPa) = 37.15085 93.43303 11.32374
#
# Poissons Ratio (x) = 0.47234 0.35138
# Poissons Ratio (y) = 0.18781 0.03823
# Poissons Ratio (z) = 1.15280 0.31543
#
# Static dielectric constant tensor:
#      x y z
#    x 1.585940 0.000000 0.000000 
#    y 0.000000 1.565070 0.000000 
#    z 0.000000 0.000000 1.591240 
# 
# From -- ./inp_files/10451.got.cif
#   From: 2010.05.17/outbox.cif.g08.bks.cpg/sg63_6_cif.got.tgz:10451.got - 2010.06.03 15:47:04.
