data_PCOD9474279
_publ_section_title
;
Structure prediction by ZEFSAII (Michael W. Deem and Ramdas Pophale) SiO2 
 PCOD9474279
Probable space group: C M C M
;
_chemical_formula_sum "Si O2"
_cell_formula_units_Z 116
_cell_length_a 29.411993
_cell_length_b 25.336509
_cell_length_c 7.979572
_cell_angle_alpha 90.000000
_cell_angle_beta 90.000000
_cell_angle_gamma 90.000000
_cell_volume 5946.354914
_symmetry_space_group_name_H-M "C M C M"
_symmetry_group_IT_number 63
_symmetry_cell_setting 'orthorhombic'
loop_
_space_group_symop_operation_xyz
x,y,z
-x,-y,1/2+z
x,-y,-z
-x,y,1/2-z
-x,-y,-z
x,y,1/2-z
-x,y,z
x,-y,1/2+z
1/2+x,1/2+y,z
1/2-x,1/2-y,1/2+z
1/2+x,1/2-y,-z
1/2-x,1/2+y,1/2-z
1/2-x,1/2-y,-z
1/2+x,1/2+y,1/2-z
1/2-x,1/2+y,z
1/2+x,1/2-y,1/2+z
loop_
_atom_site_type_symbol
_atom_site_label
_atom_site_fract_x
_atom_site_fract_y
_atom_site_fract_z
Si Si1 0.629630 0.328410 0.948200
Si Si2 0.148188 0.558716 0.943778
Si Si3 0.271750 0.695542 0.557083
Si Si4 0.569261 0.127742 0.054250
Si Si5 0.847876 0.056451 0.048920
Si Si6 0.448246 0.749999 0.549728
Si Si7 0.500000 0.898962 0.250000
Si Si8 0.748029 0.082440 0.056946
O O1 0.639345 0.328513 0.750000
O O2 0.626999 0.389751 0.004526
O O3 0.673811 0.303566 0.035568
O O4 0.585290 0.293938 0.979512
O O5 0.137999 0.565410 0.750000
O O6 0.134910 0.500000 0.000000
O O7 0.118857 0.601661 0.043037
O O8 0.202035 0.565320 0.969312
O O9 0.260248 0.685549 0.750000
O O10 0.250000 0.750000 0.500000
O O11 0.253623 0.645617 0.453604
O O12 0.553237 0.121210 0.250000
O O13 0.568937 0.190502 0.018164
O O14 0.539071 0.103349 0.903335
O O15 0.845499 0.057846 0.250000
O O16 0.795700 0.060841 0.984464
O O17 0.867655 0.000000 0.000000
O O18 0.449387 0.743450 0.750000
O O19 0.500000 0.746156 0.485082
O O20 0.744411 0.065677 0.250000
#
# Coordination Sequence:
#
# PCOD9474279 Si02
#       8
#    16  16  16  16  16  16   4  16
#     4  10  22  37  57  87 120 155 199 247 296 359
#     4  12  25  42  63  90 123 160 207 255 310 368
#     4  11  22  37  55  81 119 160 200 241 298 362
#     4  11  24  43  67  93 124 155 202 258 309 375
#     4   9  19  35  56  84 118 156 200 243 292 350
#     4  10  22  40  64  91 121 154 197 251 310 365
#     4  12  22  44  70  94 118 160 202 248 322 386
#     4  10  21  38  58  85 118 158 203 251 298 356
#
# _framework density 19.507750000000001
#
# number of rings (size 3 to 8) (size 9 to 14) (size 15 to 20)
#    0.000    1.517    1.379    4.759    2.897    4.690 
#    0.000    0.345    0.000    0.414    0.000    0.000 
#    0.000    0.000    0.000    0.000    0.000    0.000 
#
# Total GULP energy -323290.798187 kJ/mol
# GULP energy per Si atom -5573.979279 kJ/mol
# Density = 1.946335 g / cm^3
# Si number density = 19.507750 Si / 1000 Ang^3
#
#
#
# Elastic Constant Matrix: (Units=GPa)
#
#
# Indices 1 2 3 4 5 6 
#
# 1 77.9196 54.0417 16.5809 0.0000 0.0000 0.0000
# 2 54.0417 98.2880 4.2215 0.0000 0.0000 0.0000
# 3 16.5809 4.2215 76.2158 0.0000 0.0000 0.0000
# 4 0.0000 0.0000 0.0000 25.1890 0.0000 0.0000
# 5 0.0000 0.0000 0.0000 0.0000 28.7619 0.0000
# 6 0.0000 0.0000 0.0000 0.0000 0.0000 -8.4137
#
#
#
# Elastic Compliance Matrix: (Units=1/GPa)
#
#
# Indices 1 2 3 4 5 6 
#
# 1 0.021963 -0.011899 -0.004119 0.000000 0.000000 0.000000
# 2 -0.011899 0.016645 0.001667 0.000000 0.000000 0.000000
# 3 -0.004119 0.001667 0.013924 0.000000 0.000000 0.000000
# 4 0.000000 0.000000 0.000000 0.039700 0.000000 0.000000
# 5 0.000000 0.000000 0.000000 0.000000 0.034768 0.000000
# 6 0.000000 0.000000 0.000000 0.000000 0.000000 -0.118853
#
#
# Mechanical properties :
#
#
# Convention : Reuss Voigt Hill
#
# Bulk Modulus (GPa) = 41.96428 44.67907 43.32167
# Shear Modulus (GPa) = 111.62453 20.94604 66.28529
#
# Velocity S-wave (km/s) = 7.57264 3.28034 5.83547
# Velocity P-wave (km/s) = 9.90041 6.10741 8.22552
#
# Compressibility (1/GPa) = 0.02382979
#
# Stress axis : x y z
#
# Youngs Moduli (GPa) = 45.53143 60.07812 71.81625
#
# Poissons Ratio (x) = 0.71487 0.29581
# Poissons Ratio (y) = 0.54178 -0.11970
# Poissons Ratio (z) = 0.18754 -0.10013
#
# Static dielectric constant tensor:
#      x y z
#    x 1.683020 0.000000 0.000000 
#    y 0.000000 1.727260 0.000000 
#    z 0.000000 0.000000 1.692340 
# 
# From -- ./inp_files/12957.got.cif
#   From: 2010.05.17/outbox.cif.g08.bks.cpg/sg63_7_cif.got.tgz:12957.got - 2010.06.03 15:47:04.
