data_PCOD9474442
_publ_section_title
;
Structure prediction by ZEFSAII (Michael W. Deem and Ramdas Pophale) SiO2 
 PCOD9474442
Probable space group: C M C M
;
_chemical_formula_sum "Si O2"
_cell_formula_units_Z 116
_cell_length_a 10.478130
_cell_length_b 19.077526
_cell_length_c 31.021261
_cell_angle_alpha 90.000000
_cell_angle_beta 90.000000
_cell_angle_gamma 90.000000
_cell_volume 6201.050729
_symmetry_space_group_name_H-M "C M C M"
_symmetry_group_IT_number 63
_symmetry_cell_setting 'orthorhombic'
loop_
_space_group_symop_operation_xyz
x,y,z
-x,-y,1/2+z
x,-y,-z
-x,y,1/2-z
-x,-y,-z
x,y,1/2-z
-x,y,z
x,-y,1/2+z
1/2+x,1/2+y,z
1/2-x,1/2-y,1/2+z
1/2+x,1/2-y,-z
1/2-x,1/2+y,1/2-z
1/2-x,1/2-y,-z
1/2+x,1/2+y,1/2-z
1/2-x,1/2+y,z
1/2+x,1/2-y,1/2+z
loop_
_atom_site_type_symbol
_atom_site_label
_atom_site_fract_x
_atom_site_fract_y
_atom_site_fract_z
Si Si1 0.500000 0.688765 0.750000
Si Si2 0.639658 0.297471 0.700312
Si Si3 0.650881 0.583330 0.506014
Si Si4 0.644807 0.877714 0.850013
Si Si5 0.851095 0.668364 0.052002
Si Si6 0.731914 0.663178 0.816595
Si Si7 0.151298 0.178791 0.585406
Si Si8 0.850980 0.516203 0.798776
O O1 0.611627 0.686044 0.787870
O O2 0.654937 0.318907 0.750000
O O3 0.500000 0.320347 0.685196
O O4 0.752743 0.328264 0.672148
O O5 0.653645 0.214058 0.697288
O O6 0.671339 0.500000 0.500000
O O7 0.500000 0.597413 0.495790
O O8 0.750018 0.627538 0.477296
O O9 0.672149 0.612083 0.554550
O O10 0.500000 0.859940 0.835698
O O11 0.649835 0.867934 0.901012
O O12 0.672497 0.955588 0.833309
O O13 0.811932 0.749443 0.060505
O O14 0.000000 0.666905 0.036411
O O15 0.712313 0.671921 0.867737
O O16 0.764142 0.583169 0.806227
O O17 0.000000 0.185877 0.592805
O O18 0.830769 0.488705 0.750000
O O19 0.000000 0.536352 0.802157
#
# Coordination Sequence:
#
# PCOD9474442 Si02
#       8
#     4  16  16  16  16  16  16  16
#     4  12  24  36  62 100 118 172 216 254 312 360
#     4  11  23  38  57  88 124 161 201 258 310 359
#     4  10  23  42  64  92 123 159 200 246 315 378
#     4  10  22  39  63  88 120 163 209 252 309 378
#     4  10  21  40  64  90 122 156 202 257 306 365
#     4  12  22  38  60  89 123 160 212 256 302 367
#     4  10  21  39  62  88 123 159 200 255 304 361
#     4  10  21  39  57  81 118 165 204 251 309 365
#
# _framework density 18.706506999999998
#
# number of rings (size 3 to 8) (size 9 to 14) (size 15 to 20)
#    0.000    1.517    3.448    1.241    2.897    2.759 
#    1.241    1.379    0.000    0.000    0.000    0.000 
#    0.000    0.000    0.000    0.000    0.000    0.000 
#
# Total GULP energy -323159.589942 kJ/mol
# GULP energy per Si atom -5571.717068 kJ/mol
# Density = 1.866393 g / cm^3
# Si number density = 18.706507 Si / 1000 Ang^3
#
#
#
# Elastic Constant Matrix: (Units=GPa)
#
#
# Indices 1 2 3 4 5 6 
#
# 1 75.0424 24.8545 41.7174 0.0000 0.0000 0.0000
# 2 24.8545 57.9933 28.0386 0.0000 0.0000 0.0000
# 3 41.7174 28.0386 81.8053 0.0000 0.0000 0.0000
# 4 0.0000 0.0000 0.0000 -3.3682 0.0000 0.0000
# 5 0.0000 0.0000 0.0000 0.0000 18.0591 0.0000
# 6 0.0000 0.0000 0.0000 0.0000 0.0000 15.7642
#
#
#
# Elastic Compliance Matrix: (Units=1/GPa)
#
#
# Indices 1 2 3 4 5 6 
#
# 1 0.019431 -0.004239 -0.008456 0.000000 0.000000 0.000000
# 2 -0.004239 0.021593 -0.005239 0.000000 0.000000 0.000000
# 3 -0.008456 -0.005239 0.018332 0.000000 0.000000 0.000000
# 4 0.000000 0.000000 0.000000 -0.296891 0.000000 0.000000
# 5 0.000000 0.000000 0.000000 0.000000 0.055374 0.000000
# 6 0.000000 0.000000 0.000000 0.000000 0.000000 0.063435
#
#
# Mechanical properties :
#
#
# Convention : Reuss Voigt Hill
#
# Bulk Modulus (GPa) = 42.57616 44.89576 43.73596
# Shear Modulus (GPa) = -66.64096 14.10639 -26.26729
#
# Velocity S-wave (km/s) = -5.97510 2.74905 -3.75130
# Velocity P-wave (km/s) = 4.97925 5.84196 2.16051
#
# Compressibility (1/GPa) = 0.02348732
#
# Stress axis : x y z
#
# Youngs Moduli (GPa) = 51.46515 46.31073 54.54947
#
# Poissons Ratio (x) = 0.19632 0.46126
# Poissons Ratio (y) = 0.21817 0.28579
# Poissons Ratio (z) = 0.43518 0.24263
#
# Static dielectric constant tensor:
#      x y z
#    x 1.645710 0.000000 0.000000 
#    y 0.000000 1.662110 0.000000 
#    z 0.000000 0.000000 1.598160 
# 
# From -- ./inp_files/68520.got.cif
#   From: 2010.05.17/outbox.cif.g08.bks.cpg/sg63_35_cif.got.tgz:68520.got - 2010.06.03 15:47:04.
