data_PCOD9474725
_publ_section_title
;
Structure prediction by ZEFSAII (Michael W. Deem and Ramdas Pophale) SiO2 
 PCOD9474725
Probable space group: C M C M
;
_chemical_formula_sum "Si O2"
_cell_formula_units_Z 88
_cell_length_a 18.919772
_cell_length_b 8.740049
_cell_length_c 29.574307
_cell_angle_alpha 90.000000
_cell_angle_beta 90.000000
_cell_angle_gamma 90.000000
_cell_volume 4890.399549
_symmetry_space_group_name_H-M "C M C M"
_symmetry_group_IT_number 63
_symmetry_cell_setting 'orthorhombic'
loop_
_space_group_symop_operation_xyz
x,y,z
-x,-y,1/2+z
x,-y,-z
-x,y,1/2-z
-x,-y,-z
x,y,1/2-z
-x,y,z
x,-y,1/2+z
1/2+x,1/2+y,z
1/2-x,1/2-y,1/2+z
1/2+x,1/2-y,-z
1/2-x,1/2+y,1/2-z
1/2-x,1/2-y,-z
1/2+x,1/2+y,1/2-z
1/2-x,1/2+y,z
1/2+x,1/2-y,1/2+z
loop_
_atom_site_type_symbol
_atom_site_label
_atom_site_fract_x
_atom_site_fract_y
_atom_site_fract_z
Si Si1 0.080479 0.746554 0.698979
Si Si2 0.699332 0.190595 0.139942
Si Si3 0.198005 0.992523 0.196724
Si Si4 0.188368 0.730868 0.938756
Si Si5 0.081831 0.468052 0.113203
Si Si6 0.220830 0.000000 0.500000
O O1 0.091539 0.687303 0.750000
O O2 0.136431 0.881299 0.691595
O O3 0.086517 0.615039 0.661956
O O4 0.000000 0.806800 0.696218
O O5 0.732960 0.067317 0.174233
O O6 0.681374 0.340481 0.168695
O O7 0.759885 0.229874 0.103228
O O8 0.632126 0.115795 0.115495
O O9 0.207615 0.960525 0.250000
O O10 0.117456 0.652397 0.920969
O O11 0.229956 0.607043 0.968979
O O12 0.178125 0.884395 0.967898
O O13 0.000000 0.500242 0.103302
#
# Coordination Sequence:
#
# PCOD9474725 Si02
#       6
#    16  16  16  16  16   8
#     4   9  19  36  56  81 119 164 200 236 289 346
#     4  12  21  37  59  85 119 155 201 244 284 355
#     4  11  21  33  56  88 119 156 206 253 286 332
#     4  11  20  40  62  92 111 151 193 243 295 363
#     4  11  23  39  61  89 124 158 191 243 300 351
#     4  10  22  36  70  88 112 144 200 242 300 362
#
# _framework density 17.994440000000001
#
# number of rings (size 3 to 8) (size 9 to 14) (size 15 to 20)
#    0.000    1.273    5.455    0.545    0.000    3.636 
#    0.000    0.909    0.000    0.000    0.000    0.000 
#    0.000    0.000    0.000    0.000    0.000    0.000 
#
# Total GULP energy -245682.595447 kJ/mol
# GULP energy per Si atom -5583.695351 kJ/mol
# Density = 1.795348 g / cm^3
# Si number density = 17.994440 Si / 1000 Ang^3
#
#
#
# Elastic Constant Matrix: (Units=GPa)
#
#
# Indices 1 2 3 4 5 6 
#
# 1 91.5042 7.3136 10.8770 0.0000 0.0000 0.0000
# 2 7.3136 50.0115 9.8618 0.0000 0.0000 0.0000
# 3 10.8770 9.8618 63.8808 0.0000 0.0000 0.0000
# 4 0.0000 0.0000 0.0000 35.2118 0.0000 0.0000
# 5 0.0000 0.0000 0.0000 0.0000 68.1587 0.0000
# 6 0.0000 0.0000 0.0000 0.0000 0.0000 23.0000
#
#
#
# Elastic Compliance Matrix: (Units=1/GPa)
#
#
# Indices 1 2 3 4 5 6 
#
# 1 0.011236 -0.001306 -0.001712 0.000000 0.000000 0.000000
# 2 -0.001306 0.020775 -0.002985 0.000000 0.000000 0.000000
# 3 -0.001712 -0.002985 0.016406 0.000000 0.000000 0.000000
# 4 0.000000 0.000000 0.000000 0.028400 0.000000 0.000000
# 5 0.000000 0.000000 0.000000 0.000000 0.014672 0.000000
# 6 0.000000 0.000000 0.000000 0.000000 0.000000 0.043478
#
#
# Mechanical properties :
#
#
# Convention : Reuss Voigt Hill
#
# Bulk Modulus (GPa) = 27.46254 29.05571 28.25913
# Shear Modulus (GPa) = 31.42495 37.09703 34.26099
#
# Velocity S-wave (km/s) = 4.18349 4.54539 4.36819
# Velocity P-wave (km/s) = 6.21533 6.61283 6.41716
#
# Compressibility (1/GPa) = 0.03641323
#
# Stress axis : x y z
#
# Youngs Moduli (GPa) = 88.99748 48.13493 60.95183
#
# Poissons Ratio (x) = 0.06285 0.10433
# Poissons Ratio (y) = 0.11620 0.18193
# Poissons Ratio (z) = 0.15233 0.14368
#
# Static dielectric constant tensor:
#      x y z
#    x 1.607490 0.000000 0.000000 
#    y 0.000000 1.607080 0.000000 
#    z 0.000000 0.000000 1.635390 
# 
# From -- ./inp_files/73787.got.cif
#   From: 2010.05.17/outbox.cif.g08.bks.cpg/sg63_37_cif.got.tgz:73787.got - 2010.06.03 15:47:04.
