data_PCOD9474188
_publ_section_title
;
Structure prediction by ZEFSAII (Michael W. Deem and Ramdas Pophale) SiO2 
 PCOD9474188
Probable space group: C M C M
;
_chemical_formula_sum "Si O2"
_cell_formula_units_Z 68
_cell_length_a 17.747850
_cell_length_b 22.292636
_cell_length_c 9.772546
_cell_angle_alpha 90.000000
_cell_angle_beta 90.000000
_cell_angle_gamma 90.000000
_cell_volume 3866.472251
_symmetry_space_group_name_H-M "C M C M"
_symmetry_group_IT_number 63
_symmetry_cell_setting 'orthorhombic'
loop_
_space_group_symop_operation_xyz
x,y,z
-x,-y,1/2+z
x,-y,-z
-x,y,1/2-z
-x,-y,-z
x,y,1/2-z
-x,y,z
x,-y,1/2+z
1/2+x,1/2+y,z
1/2-x,1/2-y,1/2+z
1/2+x,1/2-y,-z
1/2-x,1/2+y,1/2-z
1/2-x,1/2-y,-z
1/2+x,1/2+y,1/2-z
1/2-x,1/2+y,z
1/2+x,1/2-y,1/2+z
loop_
_atom_site_type_symbol
_atom_site_label
_atom_site_fract_x
_atom_site_fract_y
_atom_site_fract_z
Si Si1 0.630642 0.655513 0.913107
Si Si2 0.880590 0.500000 0.500000
Si Si3 0.198533 0.381191 0.414365
Si Si4 0.087493 0.271618 0.412142
Si Si5 0.000000 0.939971 0.087948
Si Si6 0.500000 0.995938 0.750000
O O1 0.626405 0.668613 0.750000
O O2 0.715889 0.636750 0.946727
O O3 0.572759 0.601455 0.940900
O O4 0.606815 0.713545 0.998933
O O5 0.829307 0.559099 0.512272
O O6 0.934269 0.502936 0.368893
O O7 0.194051 0.390450 0.250000
O O8 0.142270 0.326486 0.447979
O O9 0.097167 0.258719 0.250000
O O10 0.000000 0.288649 0.433304
O O11 0.000000 0.954103 0.250000
O O12 0.000000 0.000000 0.000000
#
# Coordination Sequence:
#
# PCOD9474188 Si02
#       6
#    16   8  16  16   8   4
#     4  10  21  41  61  85 120 154 196 248 298 342
#     4  11  22  42  60  89 120 158 196 249 292 356
#     4  10  22  39  61  86 121 158 194 243 300 350
#     4  10  21  37  60  86 114 156 198 239 296 358
#     4  10  22  38  60  86 117 156 194 241 292 347
#     4  10  24  38  64  78 122 154 200 238 294 342
#
# _framework density 17.587091000000001
#
# number of rings (size 3 to 8) (size 9 to 14) (size 15 to 20)
#    0.000    1.882    2.353    0.706    4.941    0.941 
#    4.235    0.000    0.000    0.000    0.000    0.000 
#    0.000    0.000    0.000    0.000    0.000    0.000 
#
# Total GULP energy -189300.206665 kJ/mol
# GULP energy per Si atom -5567.653137 kJ/mol
# Density = 1.754706 g / cm^3
# Si number density = 17.587091 Si / 1000 Ang^3
#
#
#
# Elastic Constant Matrix: (Units=GPa)
#
#
# Indices 1 2 3 4 5 6 
#
# 1 179.0442 98.0042 59.1285 0.0000 0.0000 0.0000
# 2 98.0042 151.5913 61.8789 0.0000 0.0000 0.0000
# 3 59.1285 61.8789 77.5167 0.0000 0.0000 0.0000
# 4 0.0000 0.0000 0.0000 13.2067 0.0000 0.0000
# 5 0.0000 0.0000 0.0000 0.0000 20.0768 0.0000
# 6 0.0000 0.0000 0.0000 0.0000 0.0000 -5.4620
#
#
#
# Elastic Compliance Matrix: (Units=1/GPa)
#
#
# Indices 1 2 3 4 5 6 
#
# 1 0.009201 -0.004574 -0.003367 0.000000 0.000000 0.000000
# 2 -0.004574 0.012059 -0.006137 0.000000 0.000000 0.000000
# 3 -0.003367 -0.006137 0.020368 0.000000 0.000000 0.000000
# 4 0.000000 0.000000 0.000000 0.075719 0.000000 0.000000
# 5 0.000000 0.000000 0.000000 0.000000 0.049809 0.000000
# 6 0.000000 0.000000 0.000000 0.000000 0.000000 -0.183083
#
#
# Mechanical properties :
#
#
# Convention : Reuss Voigt Hill
#
# Bulk Modulus (GPa) = 74.23253 94.01949 84.12601
# Shear Modulus (GPa) = 299.04675 18.17368 158.61021
#
# Velocity S-wave (km/s) = 13.05399 3.21807 9.50691
# Velocity P-wave (km/s) = 16.41674 8.20874 12.97869
#
# Compressibility (1/GPa) = 0.01347118
#
# Stress axis : x y z
#
# Youngs Moduli (GPa) = 108.68603 82.92557 49.09666
#
# Poissons Ratio (x) = 0.37930 0.16531
# Poissons Ratio (y) = 0.49713 0.30132
# Poissons Ratio (z) = 0.36595 0.50894
#
# Static dielectric constant tensor:
#      x y z
#    x 1.592670 0.000000 0.000000 
#    y 0.000000 1.563580 0.000000 
#    z 0.000000 0.000000 1.578110 
# 
# From -- ./inp_files/5913.got.cif
#   From: 2010.05.17/outbox.cif.g08.bks.cpg/sg63_3_cif.got.tgz:5913.got - 2010.06.03 15:47:04.
