data_PCOD9474077
_publ_section_title
;
Structure prediction by ZEFSAII (Michael W. Deem and Ramdas Pophale) SiO2 
 PCOD9474077
Probable space group: C M C M
;
_chemical_formula_sum "Si O2"
_cell_formula_units_Z 88
_cell_length_a 7.272936
_cell_length_b 31.433111
_cell_length_c 15.020060
_cell_angle_alpha 90.000000
_cell_angle_beta 90.000000
_cell_angle_gamma 90.000000
_cell_volume 3433.751006
_symmetry_space_group_name_H-M "C M C M"
_symmetry_group_IT_number 63
_symmetry_cell_setting 'orthorhombic'
loop_
_space_group_symop_operation_xyz
x,y,z
-x,-y,1/2+z
x,-y,-z
-x,y,1/2-z
-x,-y,-z
x,y,1/2-z
-x,y,z
x,-y,1/2+z
1/2+x,1/2+y,z
1/2-x,1/2-y,1/2+z
1/2+x,1/2-y,-z
1/2-x,1/2+y,1/2-z
1/2-x,1/2-y,-z
1/2+x,1/2+y,1/2-z
1/2-x,1/2+y,z
1/2+x,1/2-y,1/2+z
loop_
_atom_site_type_symbol
_atom_site_label
_atom_site_fract_x
_atom_site_fract_y
_atom_site_fract_z
Si Si1 0.721803 0.624676 0.414830
Si Si2 0.792895 0.398683 0.392796
Si Si3 0.275571 0.008611 0.602379
Si Si4 0.775892 0.784330 0.645801
Si Si5 0.710675 0.806787 0.356582
Si Si6 0.753475 0.063282 0.250000
O O1 0.500000 0.623622 0.420078
O O2 0.799897 0.601439 0.500407
O O3 0.779073 0.674000 0.408472
O O4 0.773263 0.599658 0.326788
O O5 0.713686 0.444276 0.367871
O O6 0.703823 0.352989 0.372925
O O7 0.000000 0.397042 0.355142
O O8 0.500000 0.008731 0.604401
O O9 0.219969 0.000000 0.500000
O O10 0.218590 0.972683 0.671530
O O11 0.723419 0.790046 0.750000
O O12 0.710393 0.738271 0.611397
O O13 0.000000 0.782891 0.645151
O O14 0.705131 0.801702 0.250000
O O15 0.500000 0.809454 0.389675
#
# Coordination Sequence:
#
# PCOD9474077 Si02
#       6
#    16  16  16  16  16   8
#     4  11  22  37  58  83 112 149 192 235 281 336
#     4  10  21  37  56  85 118 145 184 234 285 345
#     4  10  21  37  56  84 117 148 182 232 297 349
#     4   8  14  28  51  79 111 146 185 228 276 330
#     4   8  15  29  53  84 114 146 186 233 278 330
#     4  12  22  36  58  80 105 148 193 236 277 334
#
# _framework density 25.627948
#
# number of rings (size 3 to 8) (size 9 to 14) (size 15 to 20)
#    0.000    2.364    2.727    1.636    1.273    1.455 
#    0.000    2.727    0.000    0.545    0.000    2.545 
#    0.000    0.000    0.000    0.000    0.000    0.000 
#
# Total GULP energy -244957.552935 kJ/mol
# GULP energy per Si atom -5567.217112 kJ/mol
# Density = 2.556962 g / cm^3
# Si number density = 25.627948 Si / 1000 Ang^3
#
#
#
# Elastic Constant Matrix: (Units=GPa)
#
#
# Indices 1 2 3 4 5 6 
#
# 1 111.6049 10.4413 3.5678 0.0000 0.0000 0.0000
# 2 10.4413 251.3857 26.3901 0.0000 0.0000 0.0000
# 3 3.5678 26.3901 106.9489 0.0000 0.0000 0.0000
# 4 0.0000 0.0000 0.0000 49.8691 0.0000 0.0000
# 5 0.0000 0.0000 0.0000 0.0000 53.6862 0.0000
# 6 0.0000 0.0000 0.0000 0.0000 0.0000 -310.0820
#
#
#
# Elastic Compliance Matrix: (Units=1/GPa)
#
#
# Indices 1 2 3 4 5 6 
#
# 1 0.009000 -0.000351 -0.000214 0.000000 0.000000 0.000000
# 2 -0.000351 0.004097 -0.000999 0.000000 0.000000 0.000000
# 3 -0.000214 -0.000999 0.009604 0.000000 0.000000 0.000000
# 4 0.000000 0.000000 0.000000 0.020053 0.000000 0.000000
# 5 0.000000 0.000000 0.000000 0.000000 0.018627 0.000000
# 6 0.000000 0.000000 0.000000 0.000000 0.000000 -0.003225
#
#
# Mechanical properties :
#
#
# Convention : Reuss Voigt Hill
#
# Bulk Modulus (GPa) = 51.09135 61.19310 56.14222
# Shear Modulus (GPa) = 73.73716 -12.66933 30.53392
#
# Velocity S-wave (km/s) = 5.36979 -2.22582 3.45545
# Velocity P-wave (km/s) = 7.64364 4.16216 6.15422
#
# Compressibility (1/GPa) = 0.01957278
#
# Stress axis : x y z
#
# Youngs Moduli (GPa) = 111.11257 244.05391 104.12356
#
# Poissons Ratio (x) = 0.08576 0.02223
# Poissons Ratio (y) = 0.03904 0.10405
# Poissons Ratio (z) = 0.02373 0.24389
#
# Static dielectric constant tensor:
#      x y z
#    x 2.062350 0.000000 0.000000 
#    y 0.000000 2.015130 0.000000 
#    z 0.000000 0.000000 1.911920 
# 
# From -- ./inp_files/30126.got.cif
#   From: 2010.05.17/outbox.cif.g08.bks.cpg/sg63_16_cif.got.tgz:30126.got - 2010.06.03 15:47:04.
