data_PCOD9474502
_publ_section_title
;
Structure prediction by ZEFSAII (Michael W. Deem and Ramdas Pophale) SiO2 
 PCOD9474502
Probable space group: C M C M
;
_chemical_formula_sum "Si O2"
_cell_formula_units_Z 80
_cell_length_a 15.184187
_cell_length_b 13.674987
_cell_length_c 18.704555
_cell_angle_alpha 90.000000
_cell_angle_beta 90.000000
_cell_angle_gamma 90.000000
_cell_volume 3883.880385
_symmetry_space_group_name_H-M "C M C M"
_symmetry_group_IT_number 63
_symmetry_cell_setting 'orthorhombic'
loop_
_space_group_symop_operation_xyz
x,y,z
-x,-y,1/2+z
x,-y,-z
-x,y,1/2-z
-x,-y,-z
x,y,1/2-z
-x,y,z
x,-y,1/2+z
1/2+x,1/2+y,z
1/2-x,1/2-y,1/2+z
1/2+x,1/2-y,-z
1/2-x,1/2+y,1/2-z
1/2-x,1/2-y,-z
1/2+x,1/2+y,1/2-z
1/2-x,1/2+y,z
1/2+x,1/2-y,1/2+z
loop_
_atom_site_type_symbol
_atom_site_label
_atom_site_fract_x
_atom_site_fract_y
_atom_site_fract_z
Si Si1 0.394307 0.393628 0.876141
Si Si2 0.604226 0.310758 0.475730
Si Si3 0.137126 0.672596 0.828530
Si Si4 0.899528 0.603476 0.982783
Si Si5 0.837890 0.900022 0.328600
O O1 0.500000 0.412982 0.872086
O O2 0.375677 0.288654 0.840347
O O3 0.344507 0.483539 0.840199
O O4 0.366384 0.380001 0.959175
O O5 0.500000 0.300241 0.489714
O O6 0.643169 0.201663 0.485046
O O7 0.616917 0.353009 0.397594
O O8 0.102281 0.646385 0.750000
O O9 0.097029 0.621088 0.897931
O O10 0.238977 0.640955 0.829701
O O11 0.000000 0.597988 0.011449
O O12 0.855713 0.500000 0.000000
O O13 0.875939 0.876918 0.250000
#
# Coordination Sequence:
#
# PCOD9474502 Si02
#       5
#    16  16  16  16  16
#     4  10  21  39  63  85 108 148 199 239 274 330
#     4   9  19  36  57  81 109 144 190 238 280 331
#     4  10  22  37  54  81 113 145 187 237 282 328
#     4   9  19  36  57  80 106 141 188 235 280 337
#     4  11  23  35  52  84 120 148 180 229 287 341
#
# _framework density 20.597956
#
# number of rings (size 3 to 8) (size 9 to 14) (size 15 to 20)
#    0.000    2.200    0.000    3.600    0.000   12.000 
#    0.000    3.000    0.000    3.600    0.000    0.000 
#    0.000    0.000    0.000    0.000    0.000    0.000 
#
# Total GULP energy -223165.764552 kJ/mol
# GULP energy per Si atom -5579.144114 kJ/mol
# Density = 2.055107 g / cm^3
# Si number density = 20.597956 Si / 1000 Ang^3
#
#
#
# Elastic Constant Matrix: (Units=GPa)
#
#
# Indices 1 2 3 4 5 6 
#
# 1 33.4136 3.2305 -5.2981 0.0000 0.0000 0.0000
# 2 3.2305 90.3849 49.4355 0.0000 0.0000 0.0000
# 3 -5.2981 49.4355 131.5155 0.0000 0.0000 0.0000
# 4 0.0000 0.0000 0.0000 18.1622 0.0000 0.0000
# 5 0.0000 0.0000 0.0000 0.0000 35.0032 0.0000
# 6 0.0000 0.0000 0.0000 0.0000 0.0000 22.2720
#
#
#
# Elastic Compliance Matrix: (Units=1/GPa)
#
#
# Indices 1 2 3 4 5 6 
#
# 1 0.030469 -0.002216 0.002060 0.000000 0.000000 0.000000
# 2 -0.002216 0.014088 -0.005385 0.000000 0.000000 0.000000
# 3 0.002060 -0.005385 0.009711 0.000000 0.000000 0.000000
# 4 0.000000 0.000000 0.000000 0.055059 0.000000 0.000000
# 5 0.000000 0.000000 0.000000 0.000000 0.028569 0.000000
# 6 0.000000 0.000000 0.000000 0.000000 0.000000 0.044899
#
#
# Mechanical properties :
#
#
# Convention : Reuss Voigt Hill
#
# Bulk Modulus (GPa) = 23.15510 38.89441 31.02475
# Shear Modulus (GPa) = 24.00707 28.95058 26.47882
#
# Velocity S-wave (km/s) = 3.41766 3.75308 3.58929
# Velocity P-wave (km/s) = 5.18070 6.14039 5.68085
#
# Compressibility (1/GPa) = 0.04318703
#
# Stress axis : x y z
#
# Youngs Moduli (GPa) = 32.82040 70.98119 102.97808
#
# Poissons Ratio (x) = 0.15729 -0.21217
# Poissons Ratio (y) = 0.07273 0.55453
# Poissons Ratio (z) = -0.06762 0.38223
#
# Static dielectric constant tensor:
#      x y z
#    x 1.757120 0.000000 0.000000 
#    y 0.000000 1.750820 0.000000 
#    z 0.000000 0.000000 1.739370 
# 
# From -- ./inp_files/45417.got.cif
#   From: 2010.05.17/outbox.cif.g08.bks.cpg/sg63_23_cif.got.tgz:45417.got - 2010.06.03 15:47:04.
