data_PCOD9474332
_publ_section_title
;
Structure prediction by ZEFSAII (Michael W. Deem and Ramdas Pophale) SiO2 
 PCOD9474332
Probable space group: C M C M
;
_chemical_formula_sum "Si O2"
_cell_formula_units_Z 56
_cell_length_a 17.752493
_cell_length_b 9.527316
_cell_length_c 13.670221
_cell_angle_alpha 90.000000
_cell_angle_beta 90.000000
_cell_angle_gamma 90.000000
_cell_volume 2312.093835
_symmetry_space_group_name_H-M "C M C M"
_symmetry_group_IT_number 63
_symmetry_cell_setting 'orthorhombic'
loop_
_space_group_symop_operation_xyz
x,y,z
-x,-y,1/2+z
x,-y,-z
-x,y,1/2-z
-x,-y,-z
x,y,1/2-z
-x,y,z
x,-y,1/2+z
1/2+x,1/2+y,z
1/2-x,1/2-y,1/2+z
1/2+x,1/2-y,-z
1/2-x,1/2+y,1/2-z
1/2-x,1/2-y,-z
1/2+x,1/2+y,1/2-z
1/2-x,1/2+y,z
1/2+x,1/2-y,1/2+z
loop_
_atom_site_type_symbol
_atom_site_label
_atom_site_fract_x
_atom_site_fract_y
_atom_site_fract_z
Si Si1 0.866594 0.000000 0.000000
Si Si2 0.417654 0.944715 0.631461
Si Si3 0.707623 0.724071 0.635623
Si Si4 0.886257 0.237578 0.364797
O O1 0.911492 0.111526 0.065931
O O2 0.815355 0.909962 0.073491
O O3 0.414720 0.947196 0.750000
O O4 0.500000 0.887759 0.603817
O O5 0.346729 0.850698 0.602552
O O6 0.411894 0.107560 0.603029
O O7 0.692678 0.694933 0.750000
O O8 0.795104 0.760468 0.627630
O O9 0.905918 0.217736 0.250000
#
# Coordination Sequence:
#
# PCOD9474332 Si02
#       4
#     8  16  16  16
#     4  12  22  34  57  88 119 152 192 242 298 350
#     4   9  19  39  64  85 113 158 203 241 286 344
#     4  10  21  38  60  87 119 155 197 243 290 345
#     4  10  21  38  60  87 119 155 197 243 290 345
#
# _framework density 24.220472000000001
#
# number of rings (size 3 to 8) (size 9 to 14) (size 15 to 20)
#    0.000    2.000    0.000    3.429    0.000    5.714 
#    0.000    5.714    0.000    6.857    0.000    0.000 
#    0.000    0.000    0.000    0.000    0.000    0.000 
#
# Total GULP energy -156853.969201 kJ/mol
# GULP energy per Si atom -5601.927471 kJ/mol
# Density = 2.416534 g / cm^3
# Si number density = 24.220472 Si / 1000 Ang^3
#
#
#
# Elastic Constant Matrix: (Units=GPa)
#
#
# Indices 1 2 3 4 5 6 
#
# 1 131.1083 41.6324 22.3295 0.0000 0.0000 0.0000
# 2 41.6324 148.7222 44.5377 0.0000 0.0000 0.0000
# 3 22.3295 44.5377 110.6197 0.0000 0.0000 0.0000
# 4 0.0000 0.0000 0.0000 62.2297 0.0000 0.0000
# 5 0.0000 0.0000 0.0000 0.0000 7.7612 0.0000
# 6 0.0000 0.0000 0.0000 0.0000 0.0000 12.5368
#
#
#
# Elastic Compliance Matrix: (Units=1/GPa)
#
#
# Indices 1 2 3 4 5 6 
#
# 1 0.008442 -0.002107 -0.000856 0.000000 0.000000 0.000000
# 2 -0.002107 0.008172 -0.002865 0.000000 0.000000 0.000000
# 3 -0.000856 -0.002865 0.010366 0.000000 0.000000 0.000000
# 4 0.000000 0.000000 0.000000 0.016070 0.000000 0.000000
# 5 0.000000 0.000000 0.000000 0.000000 0.128846 0.000000
# 6 0.000000 0.000000 0.000000 0.000000 0.000000 0.079765
#
#
# Mechanical properties :
#
#
# Convention : Reuss Voigt Hill
#
# Bulk Modulus (GPa) = 65.25349 67.49439 66.37394
# Shear Modulus (GPa) = 18.62728 35.30224 26.96476
#
# Velocity S-wave (km/s) = 2.77622 3.82191 3.34024
# Velocity P-wave (km/s) = 6.10545 6.88500 6.50691
#
# Compressibility (1/GPa) = 0.01532485
#
# Stress axis : x y z
#
# Youngs Moduli (GPa) = 118.45424 122.37414 96.46785
#
# Poissons Ratio (x) = 0.25783 0.08256
# Poissons Ratio (y) = 0.24958 0.27636
# Poissons Ratio (z) = 0.10137 0.35057
#
# Static dielectric constant tensor:
#      x y z
#    x 1.869530 0.000000 0.000000 
#    y 0.000000 1.892400 0.000000 
#    z 0.000000 0.000000 1.986030 
# 
# From -- ./inp_files/34733.got.cif
#   From: 2010.05.17/outbox.cif.g08.bks.cpg/sg63_18_cif.got.tgz:34733.got - 2010.06.03 15:47:04.
