data_PCOD9474584
_publ_section_title
;
Structure prediction by ZEFSAII (Michael W. Deem and Ramdas Pophale) SiO2 
 PCOD9474584
Probable space group: C M C M
;
_chemical_formula_sum "Si O2"
_cell_formula_units_Z 92
_cell_length_a 19.744440
_cell_length_b 25.998721
_cell_length_c 9.530573
_cell_angle_alpha 90.000000
_cell_angle_beta 90.000000
_cell_angle_gamma 90.000000
_cell_volume 4892.330819
_symmetry_space_group_name_H-M "C M C M"
_symmetry_group_IT_number 63
_symmetry_cell_setting 'orthorhombic'
loop_
_space_group_symop_operation_xyz
x,y,z
-x,-y,1/2+z
x,-y,-z
-x,y,1/2-z
-x,-y,-z
x,y,1/2-z
-x,y,z
x,-y,1/2+z
1/2+x,1/2+y,z
1/2-x,1/2-y,1/2+z
1/2+x,1/2-y,-z
1/2-x,1/2+y,1/2-z
1/2-x,1/2-y,-z
1/2+x,1/2+y,1/2-z
1/2-x,1/2+y,z
1/2+x,1/2-y,1/2+z
loop_
_atom_site_type_symbol
_atom_site_label
_atom_site_fract_x
_atom_site_fract_y
_atom_site_fract_z
Si Si1 0.000000 0.693836 0.090718
Si Si2 0.633497 0.353106 0.584716
Si Si3 0.000000 0.429089 0.912198
Si Si4 0.364339 0.046838 0.915634
Si Si5 0.371459 0.229921 0.584841
Si Si6 0.233523 0.355465 0.413352
Si Si7 0.500000 0.504902 0.750000
Si Si8 0.500000 0.416288 0.509505
O O1 0.000000 0.713852 0.250000
O O2 0.000000 0.632370 0.095741
O O3 0.933818 0.711297 0.007671
O O4 0.637145 0.365233 0.750000
O O5 0.632467 0.291156 0.570388
O O6 0.701641 0.369071 0.505254
O O7 0.566600 0.380302 0.524593
O O8 0.000000 0.448449 0.750000
O O9 0.065717 0.444790 0.000912
O O10 0.374033 0.035384 0.750000
O O11 0.320981 0.098811 0.924670
O O12 0.329669 0.000000 0.000000
O O13 0.383580 0.217981 0.750000
O O14 0.304621 0.197400 0.544320
O O15 0.253648 0.350523 0.250000
O O16 0.500000 0.458973 0.630682
O O17 0.500000 0.550240 0.870224
#
# Coordination Sequence:
#
# PCOD9474584 Si02
#       8
#     8  16   8  16  16  16   4   8
#     4  11  22  34  58  95 123 162 207 260 299 353
#     4  11  23  41  67  95 128 164 204 258 310 379
#     4  11  22  37  61  86 120 156 205 256 304 356
#     4  11  23  41  61  87 120 163 210 259 304 362
#     4  10  21  40  63  89 129 173 210 253 311 374
#     4  10  23  41  61  90 126 167 214 253 313 375
#     4  10  24  46  76  92 128 162 200 270 314 386
#     4  11  23  47  68 102 124 161 213 254 327 381
#
# _framework density 18.804943999999999
#
# number of rings (size 3 to 8) (size 9 to 14) (size 15 to 20)
#    0.000    1.391    2.609    2.348    1.217    4.870 
#    4.696    0.000    0.000    0.000    0.000    0.000 
#    0.000    0.000    0.000    0.000    0.000    0.000 
#
# Total GULP energy -256329.449179 kJ/mol
# GULP energy per Si atom -5572.379330 kJ/mol
# Density = 1.876214 g / cm^3
# Si number density = 18.804944 Si / 1000 Ang^3
#
#
#
# Elastic Constant Matrix: (Units=GPa)
#
#
# Indices 1 2 3 4 5 6 
#
# 1 123.8447 44.5807 60.2346 0.0000 0.0000 0.0000
# 2 44.5807 93.7173 52.7999 0.0000 0.0000 0.0000
# 3 60.2346 52.7999 122.5501 0.0000 0.0000 0.0000
# 4 0.0000 0.0000 0.0000 32.4673 0.0000 0.0000
# 5 0.0000 0.0000 0.0000 0.0000 4.6285 0.0000
# 6 0.0000 0.0000 0.0000 0.0000 0.0000 13.4214
#
#
#
# Elastic Compliance Matrix: (Units=1/GPa)
#
#
# Indices 1 2 3 4 5 6 
#
# 1 0.011192 -0.002938 -0.004235 0.000000 0.000000 0.000000
# 2 -0.002938 0.014862 -0.004959 0.000000 0.000000 0.000000
# 3 -0.004235 -0.004959 0.012378 0.000000 0.000000 0.000000
# 4 0.000000 0.000000 0.000000 0.030800 0.000000 0.000000
# 5 0.000000 0.000000 0.000000 0.000000 0.216053 0.000000
# 6 0.000000 0.000000 0.000000 0.000000 0.000000 0.074508
#
#
# Mechanical properties :
#
#
# Convention : Reuss Voigt Hill
#
# Bulk Modulus (GPa) = 70.58348 72.81583 71.69965
# Shear Modulus (GPa) = 12.86074 22.26991 17.56533
#
# Velocity S-wave (km/s) = 2.61799 3.44504 3.05959
# Velocity P-wave (km/s) = 6.83773 7.39122 7.11985
#
# Compressibility (1/GPa) = 0.01416762
#
# Stress axis : x y z
#
# Youngs Moduli (GPa) = 89.34875 67.28633 80.78711
#
# Poissons Ratio (x) = 0.19768 0.34216
# Poissons Ratio (y) = 0.26250 0.40063
# Poissons Ratio (z) = 0.37842 0.33368
#
# Static dielectric constant tensor:
#      x y z
#    x 1.626270 0.000000 0.000000 
#    y 0.000000 1.667410 0.000000 
#    z 0.000000 0.000000 1.633790 
# 
# From -- ./inp_files/8712.got.cif
#   From: 2010.05.17/outbox.cif.g08.bks.cpg/sg63_5_cif.got.tgz:8712.got - 2010.06.03 15:47:04.
