data_PCOD9474868
_publ_section_title
;
Structure prediction by ZEFSAII (Michael W. Deem and Ramdas Pophale) SiO2 
 PCOD9474868
Probable space group: C M C M
;
_chemical_formula_sum "Si O2"
_cell_formula_units_Z 112
_cell_length_a 27.132908
_cell_length_b 5.667702
_cell_length_c 31.119360
_cell_angle_alpha 90.000000
_cell_angle_beta 90.000000
_cell_angle_gamma 90.000000
_cell_volume 4785.573674
_symmetry_space_group_name_H-M "C M C M"
_symmetry_group_IT_number 63
_symmetry_cell_setting 'orthorhombic'
loop_
_space_group_symop_operation_xyz
x,y,z
-x,-y,1/2+z
x,-y,-z
-x,y,1/2-z
-x,-y,-z
x,y,1/2-z
-x,y,z
x,-y,1/2+z
1/2+x,1/2+y,z
1/2-x,1/2-y,1/2+z
1/2+x,1/2-y,-z
1/2-x,1/2+y,1/2-z
1/2-x,1/2-y,-z
1/2+x,1/2+y,1/2-z
1/2-x,1/2+y,z
1/2+x,1/2-y,1/2+z
loop_
_atom_site_type_symbol
_atom_site_label
_atom_site_fract_x
_atom_site_fract_y
_atom_site_fract_z
Si Si1 0.731423 0.306055 0.700282
Si Si2 0.446153 0.890067 0.795977
Si Si3 0.554910 0.457174 0.448756
Si Si4 0.193953 0.251493 0.985008
Si Si5 0.420699 0.190664 0.622254
Si Si6 0.867351 0.041595 0.679513
Si Si7 0.353016 0.188052 0.402983
O O1 0.748715 0.287078 0.750000
O O2 0.742111 0.043766 0.682102
O O3 0.673453 0.372181 0.699402
O O4 0.444819 0.032534 0.750000
O O5 0.500000 0.769661 0.795441
O O6 0.398325 0.726799 0.793726
O O7 0.443709 0.007251 0.843604
O O8 0.561019 0.500000 0.500000
O O9 0.500000 0.349456 0.442881
O O10 0.555363 0.698102 0.420210
O O11 0.599056 0.301643 0.428014
O O12 0.191791 0.270081 0.934227
O O13 0.169849 0.500000 0.000000
O O14 0.250000 0.250000 0.000000
O O15 0.172197 0.000000 0.000000
O O16 0.409290 0.399660 0.654686
O O17 0.369389 0.077302 0.606263
O O18 0.842246 0.187562 0.641459
#
# Coordination Sequence:
#
# PCOD9474868 Si02
#       7
#    16  16  16  16  16  16  16
#     4  10  23  43  68  96 128 171 225 284 343 406
#     4  10  22  40  65  98 133 174 225 283 352 431
#     4  10  22  39  62  93 130 176 227 275 336 407
#     4  10  23  43  66  94 126 169 222 273 336 404
#     4  10  23  39  63  94 132 178 223 284 346 417
#     4  10  23  42  62  92 131 172 218 276 347 413
#     4  10  23  39  63  90 131 169 217 276 338 401
#
# _framework density 23.403675
#
# number of rings (size 3 to 8) (size 9 to 14) (size 15 to 20)
#    0.000    2.000    0.000    1.286   10.000    7.429 
#    5.143    2.857    0.000    0.000    0.000    0.000 
#    0.000    0.000    0.000    0.000    0.000    0.000 
#
# Total GULP energy -311811.841714 kJ/mol
# GULP energy per Si atom -5568.068602 kJ/mol
# Density = 2.335041 g / cm^3
# Si number density = 23.403675 Si / 1000 Ang^3
#
#
#
# Elastic Constant Matrix: (Units=GPa)
#
#
# Indices 1 2 3 4 5 6 
#
# 1 64.4748 -10.2535 24.2301 0.0000 0.0000 0.0000
# 2 -10.2535 86.4330 29.3422 0.0000 0.0000 0.0000
# 3 24.2301 29.3422 133.2669 0.0000 0.0000 0.0000
# 4 0.0000 0.0000 0.0000 12.5674 0.0000 0.0000
# 5 0.0000 0.0000 0.0000 0.0000 15.4938 0.0000
# 6 0.0000 0.0000 0.0000 0.0000 0.0000 -0.3920
#
#
#
# Elastic Compliance Matrix: (Units=1/GPa)
#
#
# Indices 1 2 3 4 5 6 
#
# 1 0.017534 0.003418 -0.003941 0.000000 0.000000 0.000000
# 2 0.003418 0.013170 -0.003521 0.000000 0.000000 0.000000
# 3 -0.003941 -0.003521 0.008995 0.000000 0.000000 0.000000
# 4 0.000000 0.000000 0.000000 0.079571 0.000000 0.000000
# 5 0.000000 0.000000 0.000000 0.000000 0.064542 0.000000
# 6 0.000000 0.000000 0.000000 0.000000 0.000000 -2.550979
#
#
# Mechanical properties :
#
#
# Convention : Reuss Voigt Hill
#
# Bulk Modulus (GPa) = 31.63316 41.20138 36.41727
# Shear Modulus (GPa) = -2.12898 21.59090 9.73096
#
# Velocity S-wave (km/s) = -0.95481 3.04063 2.04130
# Velocity P-wave (km/s) = 3.51143 5.47450 4.59893
#
# Compressibility (1/GPa) = 0.03161240
#
# Stress axis : x y z
#
# Youngs Moduli (GPa) = 57.03088 75.92727 111.16678
#
# Poissons Ratio (x) = -0.25951 0.43806
# Poissons Ratio (y) = -0.19492 0.39145
# Poissons Ratio (z) = 0.22473 0.26736
#
# Static dielectric constant tensor:
#      x y z
#    x 1.899650 0.000000 0.000000 
#    y 0.000000 1.988040 0.000000 
#    z 0.000000 0.000000 1.908240 
# 
# From -- ./inp_files/74527.got.cif
#   From: 2010.05.17/outbox.cif.g08.bks.cpg/sg63_38_cif.got.tgz:74527.got - 2010.06.03 15:47:04.
