data_PCOD9474259
_publ_section_title
;
Structure prediction by ZEFSAII (Michael W. Deem and Ramdas Pophale) SiO2 
 PCOD9474259
Probable space group: C M C M
;
_chemical_formula_sum "Si O2"
_cell_formula_units_Z 72
_cell_length_a 24.146607
_cell_length_b 14.163849
_cell_length_c 10.467929
_cell_angle_alpha 90.000000
_cell_angle_beta 90.000000
_cell_angle_gamma 90.000000
_cell_volume 3580.124835
_symmetry_space_group_name_H-M "C M C M"
_symmetry_group_IT_number 63
_symmetry_cell_setting 'orthorhombic'
loop_
_space_group_symop_operation_xyz
x,y,z
-x,-y,1/2+z
x,-y,-z
-x,y,1/2-z
-x,-y,-z
x,y,1/2-z
-x,y,z
x,-y,1/2+z
1/2+x,1/2+y,z
1/2-x,1/2-y,1/2+z
1/2+x,1/2-y,-z
1/2-x,1/2+y,1/2-z
1/2-x,1/2-y,-z
1/2+x,1/2+y,1/2-z
1/2-x,1/2+y,z
1/2+x,1/2-y,1/2+z
loop_
_atom_site_type_symbol
_atom_site_label
_atom_site_fract_x
_atom_site_fract_y
_atom_site_fract_z
Si Si1 0.759849 0.839098 0.596270
Si Si2 0.936629 0.910800 0.616018
Si Si3 0.862397 0.423397 0.605938
Si Si4 0.842920 0.000000 0.500000
Si Si5 0.935648 0.238923 0.606038
O O1 0.772812 0.818019 0.750000
O O2 0.750000 0.750000 0.500000
O O3 0.702043 0.895399 0.599509
O O4 0.804424 0.909522 0.529633
O O5 0.931322 0.858127 0.750000
O O6 0.889288 0.989873 0.611111
O O7 0.927573 0.838938 0.501475
O O8 0.000000 0.947251 0.611282
O O9 0.875549 0.500000 0.500000
O O10 0.874451 0.457382 0.750000
O O11 0.896825 0.328180 0.584347
O O12 0.924848 0.203496 0.750000
O O13 0.000000 0.267859 0.600515
#
# Coordination Sequence:
#
# PCOD9474259 Si02
#       5
#    16  16  16   8  16
#     4  11  25  42  63  91 123 165 214 266 320 377
#     4  10  22  39  61  92 126 159 202 254 309 373
#     4  10  21  38  57  84 120 158 205 258 309 365
#     4  12  23  40  64  92 125 168 208 258 312 384
#     4   9  19  37  61  88 122 163 204 251 311 373
#
# _framework density 20.11103
#
# number of rings (size 3 to 8) (size 9 to 14) (size 15 to 20)
#    0.000    1.778    1.111    2.333    0.000    5.778 
#    0.000    2.222    0.000    0.000    0.000    0.000 
#    0.000    0.000    0.000    0.000    0.000    0.000 
#
# Total GULP energy -200479.356074 kJ/mol
# GULP energy per Si atom -5568.871002 kJ/mol
# Density = 2.006526 g / cm^3
# Si number density = 20.111030 Si / 1000 Ang^3
#
#
#
# Elastic Constant Matrix: (Units=GPa)
#
#
# Indices 1 2 3 4 5 6 
#
# 1 125.4570 69.1470 63.0776 0.0000 0.0000 0.0000
# 2 69.1470 83.4678 83.3443 0.0000 0.0000 0.0000
# 3 63.0776 83.3443 167.5570 0.0000 0.0000 0.0000
# 4 0.0000 0.0000 0.0000 35.6120 0.0000 0.0000
# 5 0.0000 0.0000 0.0000 0.0000 44.3348 0.0000
# 6 0.0000 0.0000 0.0000 0.0000 0.0000 31.6825
#
#
#
# Elastic Compliance Matrix: (Units=1/GPa)
#
#
# Indices 1 2 3 4 5 6 
#
# 1 0.014760 -0.013270 0.001044 0.000000 0.000000 0.000000
# 2 -0.013270 0.035734 -0.012779 0.000000 0.000000 0.000000
# 3 0.001044 -0.012779 0.011931 0.000000 0.000000 0.000000
# 4 0.000000 0.000000 0.000000 0.028080 0.000000 0.000000
# 5 0.000000 0.000000 0.000000 0.000000 0.022556 0.000000
# 6 0.000000 0.000000 0.000000 0.000000 0.000000 0.031563
#
#
# Mechanical properties :
#
#
# Convention : Reuss Voigt Hill
#
# Bulk Modulus (GPa) = 80.54312 89.73552 85.13932
# Shear Modulus (GPa) = 25.15450 33.05339 29.10395
#
# Velocity S-wave (km/s) = 3.54048 4.05846 3.80829
# Velocity P-wave (km/s) = 7.53986 8.16569 7.85900
#
# Compressibility (1/GPa) = 0.01241571
#
# Stress axis : x y z
#
# Youngs Moduli (GPa) = 67.75162 27.98474 83.81383
#
# Poissons Ratio (x) = 0.37136 -0.08753
# Poissons Ratio (y) = 0.89907 1.07103
# Poissons Ratio (z) = -0.07075 0.35761
#
# Static dielectric constant tensor:
#      x y z
#    x 1.748350 0.000000 0.000000 
#    y 0.000000 1.692600 0.000000 
#    z 0.000000 0.000000 1.774110 
# 
# From -- ./inp_files/11739.got.cif
#   From: 2010.05.17/outbox.cif.g08.bks.cpg/sg63_6_cif.got.tgz:11739.got - 2010.06.03 15:47:04.
