data_PCOD9474378
_publ_section_title
;
Structure prediction by ZEFSAII (Michael W. Deem and Ramdas Pophale) SiO2 
 PCOD9474378
Probable space group: C M C M
;
_chemical_formula_sum "Si O2"
_cell_formula_units_Z 88
_cell_length_a 34.502156
_cell_length_b 8.337775
_cell_length_c 14.674435
_cell_angle_alpha 90.000000
_cell_angle_beta 90.000000
_cell_angle_gamma 90.000000
_cell_volume 4221.412527
_symmetry_space_group_name_H-M "C M C M"
_symmetry_group_IT_number 63
_symmetry_cell_setting 'orthorhombic'
loop_
_space_group_symop_operation_xyz
x,y,z
-x,-y,1/2+z
x,-y,-z
-x,y,1/2-z
-x,-y,-z
x,y,1/2-z
-x,y,z
x,-y,1/2+z
1/2+x,1/2+y,z
1/2-x,1/2-y,1/2+z
1/2+x,1/2-y,-z
1/2-x,1/2+y,1/2-z
1/2-x,1/2-y,-z
1/2+x,1/2+y,1/2-z
1/2-x,1/2+y,z
1/2+x,1/2-y,1/2+z
loop_
_atom_site_type_symbol
_atom_site_label
_atom_site_fract_x
_atom_site_fract_y
_atom_site_fract_z
Si Si1 0.786659 0.154144 0.855737
Si Si2 0.958238 0.653937 0.566504
Si Si3 0.132475 0.974379 0.353839
Si Si4 0.567458 0.500000 0.000000
Si Si5 0.126758 0.644897 0.851253
Si Si6 0.793516 0.533330 0.856052
O O1 0.786317 0.091977 0.750000
O O2 0.827178 0.090102 0.894065
O O3 0.788755 0.344148 0.853438
O O4 0.745668 0.104508 0.898268
O O5 0.960054 0.500000 0.500000
O O6 0.916692 0.628591 0.613368
O O7 0.000000 0.650692 0.617546
O O8 0.954985 0.836453 0.526483
O O9 0.127388 0.911302 0.250000
O O10 0.095855 0.944047 0.417948
O O11 0.134921 0.165898 0.348026
O O12 0.126232 0.572771 0.750000
O O13 0.164902 0.574017 0.898853
O O14 0.794776 0.595276 0.750000
#
# Coordination Sequence:
#
# PCOD9474378 Si02
#       6
#    16  16  16   8  16  16
#     4   9  16  26  45  73 107 146 186 224 271 329
#     4  10  22  39  59  81 108 144 182 227 288 349
#     4   9  18  33  54  81 111 148 188 231 277 330
#     4  10  21  38  62  84 116 148 188 230 285 340
#     4   9  18  33  54  79 107 140 184 233 280 333
#     4   9  16  26  45  74 106 144 184 226 275 329
#
# _framework density 20.846101999999998
#
# number of rings (size 3 to 8) (size 9 to 14) (size 15 to 20)
#    0.000    2.727    0.000    1.364    2.545    4.727 
#    0.000    0.000    2.000    6.000    0.000    0.000 
#    0.000    0.000    0.000    0.000    0.000    0.000 
#
# Total GULP energy -244968.839469 kJ/mol
# GULP energy per Si atom -5567.473624 kJ/mol
# Density = 2.079866 g / cm^3
# Si number density = 20.846102 Si / 1000 Ang^3
#
#
#
# Elastic Constant Matrix: (Units=GPa)
#
#
# Indices 1 2 3 4 5 6 
#
# 1 168.1365 37.0513 8.8942 0.0000 0.0000 0.0000
# 2 37.0513 33.3478 -4.2171 0.0000 0.0000 0.0000
# 3 8.8942 -4.2171 22.4107 0.0000 0.0000 0.0000
# 4 0.0000 0.0000 0.0000 12.6551 0.0000 0.0000
# 5 0.0000 0.0000 0.0000 0.0000 13.7105 0.0000
# 6 0.0000 0.0000 0.0000 0.0000 0.0000 61.4689
#
#
#
# Elastic Compliance Matrix: (Units=1/GPa)
#
#
# Indices 1 2 3 4 5 6 
#
# 1 0.008436 -0.010035 -0.005236 0.000000 0.000000 0.000000
# 2 -0.010035 0.042655 0.012009 0.000000 0.000000 0.000000
# 3 -0.005236 0.012009 0.048959 0.000000 0.000000 0.000000
# 4 0.000000 0.000000 0.000000 0.079020 0.000000 0.000000
# 5 0.000000 0.000000 0.000000 0.000000 0.072937 0.000000
# 6 0.000000 0.000000 0.000000 0.000000 0.000000 0.016268
#
#
# Mechanical properties :
#
#
# Convention : Reuss Voigt Hill
#
# Bulk Modulus (GPa) = 10.69220 34.15020 22.42120
# Shear Modulus (GPa) = 16.34122 29.71134 23.02628
#
# Velocity S-wave (km/s) = 2.80286 3.77937 3.32713
# Velocity P-wave (km/s) = 3.95157 5.95504 5.05358
#
# Compressibility (1/GPa) = 0.09352616
#
# Stress axis : x y z
#
# Youngs Moduli (GPa) = 118.54136 23.44392 20.42509
#
# Poissons Ratio (x) = 0.23526 0.10695
# Poissons Ratio (y) = 1.18955 -0.24529
# Poissons Ratio (z) = 0.62071 -0.28154
#
# Static dielectric constant tensor:
#      x y z
#    x 1.803690 0.000000 0.000000 
#    y 0.000000 1.726010 0.000000 
#    z 0.000000 0.000000 1.855220 
# 
# From -- ./inp_files/49513.got.cif
#   From: 2010.05.17/outbox.cif.g08.bks.cpg/sg63_25_cif.got.tgz:49513.got - 2010.06.03 15:47:04.
