data_PCOD9474105
_publ_section_title
;
Structure prediction by ZEFSAII (Michael W. Deem and Ramdas Pophale) SiO2 
 PCOD9474105
Probable space group: C M C M
;
_chemical_formula_sum "Si O2"
_cell_formula_units_Z 96
_cell_length_a 20.313964
_cell_length_b 9.214432
_cell_length_c 26.544508
_cell_angle_alpha 90.000000
_cell_angle_beta 90.000000
_cell_angle_gamma 90.000000
_cell_volume 4968.644539
_symmetry_space_group_name_H-M "C M C M"
_symmetry_group_IT_number 63
_symmetry_cell_setting 'orthorhombic'
loop_
_space_group_symop_operation_xyz
x,y,z
-x,-y,1/2+z
x,-y,-z
-x,y,1/2-z
-x,-y,-z
x,y,1/2-z
-x,y,z
x,-y,1/2+z
1/2+x,1/2+y,z
1/2-x,1/2-y,1/2+z
1/2+x,1/2-y,-z
1/2-x,1/2+y,1/2-z
1/2-x,1/2-y,-z
1/2+x,1/2+y,1/2-z
1/2-x,1/2+y,z
1/2+x,1/2-y,1/2+z
loop_
_atom_site_type_symbol
_atom_site_label
_atom_site_fract_x
_atom_site_fract_y
_atom_site_fract_z
Si Si1 0.429500 0.131909 0.307961
Si Si2 0.799585 0.352117 0.031610
Si Si3 0.075407 0.824757 0.992291
Si Si4 0.210092 0.935311 0.372925
Si Si5 0.928706 0.138797 0.602134
Si Si6 0.713096 0.148750 0.191339
O O1 0.427728 0.188028 0.250000
O O2 0.500000 0.051182 0.312822
O O3 0.431168 0.256989 0.349703
O O4 0.357201 0.064265 0.314547
O O5 0.760894 0.392615 0.082851
O O6 0.811143 0.500000 0.000000
O O7 0.750000 0.250000 0.000000
O O8 0.867391 0.260671 0.036719
O O9 0.078581 0.770555 0.050585
O O10 0.000000 0.802171 0.974740
O O11 0.085672 0.000000 0.000000
O O12 0.136679 0.955291 0.394053
O O13 0.205637 0.808601 0.331273
O O14 0.234453 0.074211 0.343864
O O15 0.000000 0.063191 0.599185
O O16 0.730334 0.150552 0.250000
#
# Coordination Sequence:
#
# PCOD9474105 Si02
#       6
#    16  16  16  16  16  16
#     4   8  15  30  53  79 106 138 181 230 278 334
#     4  12  24  38  59  86 121 157 200 247 292 354
#     4  10  22  40  61  84 116 158 200 246 298 354
#     4  11  22  35  59  85 114 151 191 238 293 350
#     4   9  18  33  56  79 107 143 191 237 284 337
#     4  10  21  37  57  84 114 147 187 237 293 350
#
# _framework density 19.321166000000002
#
# number of rings (size 3 to 8) (size 9 to 14) (size 15 to 20)
#    0.000    2.000    1.667    2.000    4.667    1.000 
#    0.000    0.833    0.000    1.000    0.000    0.000 
#    0.000    0.000    0.000    0.000    0.000    0.000 
#
# Total GULP energy -267219.558667 kJ/mol
# GULP energy per Si atom -5567.074139 kJ/mol
# Density = 1.927719 g / cm^3
# Si number density = 19.321166 Si / 1000 Ang^3
#
#
#
# Elastic Constant Matrix: (Units=GPa)
#
#
# Indices 1 2 3 4 5 6 
#
# 1 127.1678 13.6767 26.8464 0.0000 0.0000 0.0000
# 2 13.6767 42.6694 -1.6071 0.0000 0.0000 0.0000
# 3 26.8464 -1.6071 84.1278 0.0000 0.0000 0.0000
# 4 0.0000 0.0000 0.0000 20.4326 0.0000 0.0000
# 5 0.0000 0.0000 0.0000 0.0000 26.7553 0.0000
# 6 0.0000 0.0000 0.0000 0.0000 0.0000 13.8324
#
#
#
# Elastic Compliance Matrix: (Units=1/GPa)
#
#
# Indices 1 2 3 4 5 6 
#
# 1 0.008781 -0.002922 -0.002858 0.000000 0.000000 0.000000
# 2 -0.002922 0.024425 0.001399 0.000000 0.000000 0.000000
# 3 -0.002858 0.001399 0.012825 0.000000 0.000000 0.000000
# 4 0.000000 0.000000 0.000000 0.048941 0.000000 0.000000
# 5 0.000000 0.000000 0.000000 0.000000 0.037376 0.000000
# 6 0.000000 0.000000 0.000000 0.000000 0.000000 0.072294
#
#
# Mechanical properties :
#
#
# Convention : Reuss Voigt Hill
#
# Bulk Modulus (GPa) = 26.83143 36.86634 31.84889
# Shear Modulus (GPa) = 22.14065 26.54067 24.34066
#
# Velocity S-wave (km/s) = 3.38883 3.71031 3.55321
# Velocity P-wave (km/s) = 5.40642 6.12188 5.77524
#
# Compressibility (1/GPa) = 0.03726972
#
# Stress axis : x y z
#
# Youngs Moduli (GPa) = 113.87856 40.94100 77.96996
#
# Poissons Ratio (x) = 0.11964 0.22284
# Poissons Ratio (y) = 0.33279 -0.10909
# Poissons Ratio (z) = 0.32547 -0.05728
#
# Static dielectric constant tensor:
#      x y z
#    x 1.761370 0.000000 0.000000 
#    y 0.000000 1.653850 0.000000 
#    z 0.000000 0.000000 1.695670 
# 
# From -- ./inp_files/70287.got.cif
#   From: 2010.05.17/outbox.cif.g08.bks.cpg/sg63_36_cif.got.tgz:70287.got - 2010.06.03 15:47:04.
