data_PCOD9474338
_publ_section_title
;
Structure prediction by ZEFSAII (Michael W. Deem and Ramdas Pophale) SiO2 
 PCOD9474338
Probable space group: C M C M
;
_chemical_formula_sum "Si O2"
_cell_formula_units_Z 56
_cell_length_a 11.148852
_cell_length_b 28.723136
_cell_length_c 8.705268
_cell_angle_alpha 90.000000
_cell_angle_beta 90.000000
_cell_angle_gamma 90.000000
_cell_volume 2787.687904
_symmetry_space_group_name_H-M "C M C M"
_symmetry_group_IT_number 63
_symmetry_cell_setting 'orthorhombic'
loop_
_space_group_symop_operation_xyz
x,y,z
-x,-y,1/2+z
x,-y,-z
-x,y,1/2-z
-x,-y,-z
x,y,1/2-z
-x,y,z
x,-y,1/2+z
1/2+x,1/2+y,z
1/2-x,1/2-y,1/2+z
1/2+x,1/2-y,-z
1/2-x,1/2+y,1/2-z
1/2-x,1/2-y,-z
1/2+x,1/2+y,1/2-z
1/2-x,1/2+y,z
1/2+x,1/2-y,1/2+z
loop_
_atom_site_type_symbol
_atom_site_label
_atom_site_fract_x
_atom_site_fract_y
_atom_site_fract_z
Si Si1 0.360541 0.219385 0.934628
Si Si2 0.000000 0.448642 0.433679
Si Si3 0.856947 0.951545 0.075345
Si Si4 0.700248 0.118289 0.067679
O O1 0.357280 0.221965 0.750000
O O2 0.500000 0.231218 0.981370
O O3 0.250000 0.250000 0.000000
O O4 0.332390 0.167025 0.990006
O O5 0.000000 0.500000 0.500000
O O6 0.111356 0.420284 0.500486
O O7 0.000000 0.448720 0.250000
O O8 0.810808 0.947796 0.250000
O O9 0.000000 0.955310 0.082392
O O10 0.825174 0.905242 0.980626
O O11 0.812684 0.000000 0.000000
O O12 0.689463 0.122871 0.250000
#
# Coordination Sequence:
#
# PCOD9474338 Si02
#       4
#    16   8  16  16
#     4  11  25  46  72 100 133 174 222 281 344 409
#     4  12  24  40  62  92 130 170 214 262 319 388
#     4  10  21  38  60  88 126 171 217 266 322 387
#     4  12  24  40  64  93 127 167 213 265 326 391
#
# _framework density 20.088331
#
# number of rings (size 3 to 8) (size 9 to 14) (size 15 to 20)
#    0.000    0.857    1.429    6.429    0.000    4.571 
#    0.000    0.000    0.000    0.000    0.000    0.000 
#    0.000    0.000    0.000    0.000    0.000    0.000 
#
# Total GULP energy -156418.577414 kJ/mol
# GULP energy per Si atom -5586.377765 kJ/mol
# Density = 2.004261 g / cm^3
# Si number density = 20.088331 Si / 1000 Ang^3
#
#
#
# Elastic Constant Matrix: (Units=GPa)
#
#
# Indices 1 2 3 4 5 6 
#
# 1 104.7281 69.0034 45.5164 0.0000 0.0000 0.0000
# 2 69.0034 142.1983 40.1936 0.0000 0.0000 0.0000
# 3 45.5164 40.1936 123.1524 0.0000 0.0000 0.0000
# 4 0.0000 0.0000 0.0000 41.4729 0.0000 0.0000
# 5 0.0000 0.0000 0.0000 0.0000 33.4525 0.0000
# 6 0.0000 0.0000 0.0000 0.0000 0.0000 -3.9129
#
#
#
# Elastic Compliance Matrix: (Units=1/GPa)
#
#
# Indices 1 2 3 4 5 6 
#
# 1 0.015340 -0.006435 -0.003569 0.000000 0.000000 0.000000
# 2 -0.006435 0.010446 -0.001031 0.000000 0.000000 0.000000
# 3 -0.003569 -0.001031 0.009776 0.000000 0.000000 0.000000
# 4 0.000000 0.000000 0.000000 0.024112 0.000000 0.000000
# 5 0.000000 0.000000 0.000000 0.000000 0.029893 0.000000
# 6 0.000000 0.000000 0.000000 0.000000 0.000000 -0.255562
#
#
# Mechanical properties :
#
#
# Convention : Reuss Voigt Hill
#
# Bulk Modulus (GPa) = 74.12198 75.50062 74.81130
# Shear Modulus (GPa) = -35.86087 28.56020 -3.65034
#
# Velocity S-wave (km/s) = -4.22970 3.77468 -1.34948
# Velocity P-wave (km/s) = 3.62275 7.52751 5.90711
#
# Compressibility (1/GPa) = 0.01349127
#
# Stress axis : x y z
#
# Youngs Moduli (GPa) = 65.19085 95.72610 102.29395
#
# Poissons Ratio (x) = 0.61598 0.36511
# Poissons Ratio (y) = 0.41949 0.10548
# Poissons Ratio (z) = 0.23268 0.09871
#
# Static dielectric constant tensor:
#      x y z
#    x -2.693880 0.000000 0.000000 
#    y 0.000000 1.651980 0.000000 
#    z 0.000000 0.000000 1.691380 
# 
# From -- ./inp_files/2828.got.cif
#   From: 2010.05.17/outbox.cif.g08.bks.cpg/sg63_2_cif.got.tgz:2828.got - 2010.06.03 15:47:04.
