data_PCOD9474581
_publ_section_title
;
Structure prediction by ZEFSAII (Michael W. Deem and Ramdas Pophale) SiO2 
 PCOD9474581
Probable space group: C M C M
;
_chemical_formula_sum "Si O2"
_cell_formula_units_Z 88
_cell_length_a 11.432142
_cell_length_b 24.229930
_cell_length_c 13.896242
_cell_angle_alpha 90.000000
_cell_angle_beta 90.000000
_cell_angle_gamma 90.000000
_cell_volume 3849.259040
_symmetry_space_group_name_H-M "C M C M"
_symmetry_group_IT_number 63
_symmetry_cell_setting 'orthorhombic'
loop_
_space_group_symop_operation_xyz
x,y,z
-x,-y,1/2+z
x,-y,-z
-x,y,1/2-z
-x,-y,-z
x,y,1/2-z
-x,y,z
x,-y,1/2+z
1/2+x,1/2+y,z
1/2-x,1/2-y,1/2+z
1/2+x,1/2-y,-z
1/2-x,1/2+y,1/2-z
1/2-x,1/2-y,-z
1/2+x,1/2+y,1/2-z
1/2-x,1/2+y,z
1/2+x,1/2-y,1/2+z
loop_
_atom_site_type_symbol
_atom_site_label
_atom_site_fract_x
_atom_site_fract_y
_atom_site_fract_z
Si Si1 0.000000 0.816425 0.082204
Si Si2 0.867142 0.622741 0.985979
Si Si3 0.717441 0.587630 0.141748
Si Si4 0.500000 0.431512 0.505358
Si Si5 0.000000 0.779484 0.854790
Si Si6 0.129709 0.480383 0.144188
Si Si7 0.754561 0.279268 0.396889
O O1 0.000000 0.885008 0.081466
O O2 0.000000 0.804116 0.964738
O O3 0.116575 0.788008 0.128254
O O4 0.812413 0.626619 0.091345
O O5 0.000000 0.641536 0.986271
O O6 0.860697 0.561188 0.943775
O O7 0.794117 0.658237 0.912608
O O8 0.689553 0.603575 0.250000
O O9 0.611364 0.584059 0.069255
O O10 0.774347 0.527099 0.143765
O O11 0.500000 0.500000 0.500000
O O12 0.127658 0.748312 0.851752
O O13 0.000000 0.810041 0.750000
O O14 0.134778 0.452176 0.250000
O O15 0.000000 0.506605 0.138521
O O16 0.750000 0.250000 0.500000
#
# Coordination Sequence:
#
# PCOD9474581 Si02
#       7
#     8  16  16   8   8  16  16
#     4  10  22  42  66  94 130 168 215 265 315 395
#     4  11  20  35  60  86 117 156 207 259 324 382
#     4  11  23  37  54  83 122 162 208 259 310 381
#     4  12  23  38  63  86 121 169 218 251 311 382
#     4  10  22  42  72 100 127 161 213 283 342 384
#     4   9  19  35  56  84 115 149 200 263 317 372
#     4  10  21  40  62  92 122 161 208 261 317 392
#
# _framework density 22.861543000000001
#
# number of rings (size 3 to 8) (size 9 to 14) (size 15 to 20)
#    0.000    1.636    2.727    2.455    0.000    4.000 
#    0.000    0.455    0.000    0.000    0.000    0.000 
#    0.000    0.000    0.000    0.000    0.000    0.000 
#
# Total GULP energy -244976.096163 kJ/mol
# GULP energy per Si atom -5567.638549 kJ/mol
# Density = 2.280951 g / cm^3
# Si number density = 22.861543 Si / 1000 Ang^3
#
#
#
# Elastic Constant Matrix: (Units=GPa)
#
#
# Indices 1 2 3 4 5 6 
#
# 1 185.0979 34.1898 19.7502 0.0000 0.0000 0.0000
# 2 34.1898 39.4367 0.0678 0.0000 0.0000 0.0000
# 3 19.7502 0.0678 78.5401 0.0000 0.0000 0.0000
# 4 0.0000 0.0000 0.0000 -6.2001 0.0000 0.0000
# 5 0.0000 0.0000 0.0000 0.0000 -17.3068 0.0000
# 6 0.0000 0.0000 0.0000 0.0000 0.0000 4.4694
#
#
#
# Elastic Compliance Matrix: (Units=1/GPa)
#
#
# Indices 1 2 3 4 5 6 
#
# 1 0.006644 -0.005757 -0.001666 0.000000 0.000000 0.000000
# 2 -0.005757 0.030346 0.001421 0.000000 0.000000 0.000000
# 3 -0.001666 0.001421 0.013150 0.000000 0.000000 0.000000
# 4 0.000000 0.000000 0.000000 -0.161288 0.000000 0.000000
# 5 0.000000 0.000000 0.000000 0.000000 -0.057781 0.000000
# 6 0.000000 0.000000 0.000000 0.000000 0.000000 0.223744
#
#
# Mechanical properties :
#
#
# Convention : Reuss Voigt Hill
#
# Bulk Modulus (GPa) = 26.22124 45.67670 35.94897
# Shear Modulus (GPa) = 62.87048 12.79696 37.83372
#
# Velocity S-wave (km/s) = 5.24979 2.36849 4.07247
# Velocity P-wave (km/s) = 6.94561 5.24431 6.15403
#
# Compressibility (1/GPa) = 0.03813702
#
# Stress axis : x y z
#
# Youngs Moduli (GPa) = 150.51994 32.95372 76.04571
#
# Poissons Ratio (x) = 0.18971 0.12667
# Poissons Ratio (y) = 0.86652 -0.10810
# Poissons Ratio (z) = 0.25072 -0.04684
#
# Static dielectric constant tensor:
#      x y z
#    x 1.953280 0.000000 0.000000 
#    y 0.000000 2.004200 0.000000 
#    z 0.000000 0.000000 1.858290 
# 
# From -- ./inp_files/30176.got.cif
#   From: 2010.05.17/outbox.cif.g08.bks.cpg/sg63_16_cif.got.tgz:30176.got - 2010.06.03 15:47:04.
