data_PCOD9474899
_publ_section_title
;
Structure prediction by ZEFSAII (Michael W. Deem and Ramdas Pophale) SiO2 
 PCOD9474899
Probable space group: C M C M
;
_chemical_formula_sum "Si O2"
_cell_formula_units_Z 88
_cell_length_a 23.695908
_cell_length_b 11.945923
_cell_length_c 15.582585
_cell_angle_alpha 90.000000
_cell_angle_beta 90.000000
_cell_angle_gamma 90.000000
_cell_volume 4410.954426
_symmetry_space_group_name_H-M "C M C M"
_symmetry_group_IT_number 63
_symmetry_cell_setting 'orthorhombic'
loop_
_space_group_symop_operation_xyz
x,y,z
-x,-y,1/2+z
x,-y,-z
-x,y,1/2-z
-x,-y,-z
x,y,1/2-z
-x,y,z
x,-y,1/2+z
1/2+x,1/2+y,z
1/2-x,1/2-y,1/2+z
1/2+x,1/2-y,-z
1/2-x,1/2+y,1/2-z
1/2-x,1/2-y,-z
1/2+x,1/2+y,1/2-z
1/2-x,1/2+y,z
1/2+x,1/2-y,1/2+z
loop_
_atom_site_type_symbol
_atom_site_label
_atom_site_fract_x
_atom_site_fract_y
_atom_site_fract_z
Si Si1 0.346621 0.442372 0.077800
Si Si2 0.368399 0.000000 0.000000
Si Si3 0.804128 0.282490 0.558656
Si Si4 0.743476 0.223193 0.250000
Si Si5 0.223318 0.964576 0.250000
Si Si6 0.568265 0.127143 0.849231
Si Si7 0.433517 0.385892 0.851812
O O1 0.352012 0.313816 0.051325
O O2 0.311403 0.444766 0.164023
O O3 0.400080 0.520941 0.095459
O O4 0.313448 0.500000 0.000000
O O5 0.329376 0.100885 0.030658
O O6 0.405007 0.953413 0.079873
O O7 0.750000 0.250000 0.500000
O O8 0.788069 0.284783 0.658831
O O9 0.766472 0.354684 0.250000
O O10 0.771065 0.099580 0.250000
O O11 0.583285 0.099148 0.750000
O O12 0.500000 0.123841 0.854535
O O13 0.585630 0.257159 0.864865
O O14 0.426157 0.408827 0.750000
O O15 0.500000 0.391012 0.870720
#
# Coordination Sequence:
#
# PCOD9474899 Si02
#       7
#    16   8  16   8   8  16  16
#     4  11  21  38  63  88 121 157 205 255 313 377
#     4  12  25  42  68  92 128 176 223 268 336 398
#     4  11  27  44  61  92 129 169 216 273 322 388
#     4  10  24  42  64  84 123 169 213 277 322 387
#     4  10  22  40  59  86 117 163 210 259 322 375
#     4   9  20  41  67  99 132 168 217 270 326 400
#     4   9  18  37  64  95 128 160 202 258 320 383
#
# _framework density 19.950330000000001
#
# number of rings (size 3 to 8) (size 9 to 14) (size 15 to 20)
#    0.000    1.818    0.909    3.545    7.636    0.364 
#    1.636    1.818    0.000    2.182    0.000    0.000 
#    0.000    0.000    0.000    0.000    0.000    0.000 
#
# Total GULP energy -245115.444503 kJ/mol
# GULP energy per Si atom -5570.805557 kJ/mol
# Density = 1.990492 g / cm^3
# Si number density = 19.950330 Si / 1000 Ang^3
#
#
#
# Elastic Constant Matrix: (Units=GPa)
#
#
# Indices 1 2 3 4 5 6 
#
# 1 54.0984 61.7608 48.9548 0.0000 0.0000 0.0000
# 2 61.7608 162.2583 64.6683 0.0000 0.0000 0.0000
# 3 48.9548 64.6683 160.2565 0.0000 0.0000 0.0000
# 4 0.0000 0.0000 0.0000 35.9412 0.0000 0.0000
# 5 0.0000 0.0000 0.0000 0.0000 24.5259 0.0000
# 6 0.0000 0.0000 0.0000 0.0000 0.0000 34.6140
#
#
#
# Elastic Compliance Matrix: (Units=1/GPa)
#
#
# Indices 1 2 3 4 5 6 
#
# 1 0.038190 -0.011782 -0.006912 0.000000 0.000000 0.000000
# 2 -0.011782 0.010979 -0.000831 0.000000 0.000000 0.000000
# 3 -0.006912 -0.000831 0.008687 0.000000 0.000000 0.000000
# 4 0.000000 0.000000 0.000000 0.027823 0.000000 0.000000
# 5 0.000000 0.000000 0.000000 0.000000 0.040773 0.000000
# 6 0.000000 0.000000 0.000000 0.000000 0.000000 0.028890
#
#
# Mechanical properties :
#
#
# Convention : Reuss Voigt Hill
#
# Bulk Modulus (GPa) = 53.17452 80.82012 66.99732
# Shear Modulus (GPa) = 24.91777 32.43152 28.67464
#
# Velocity S-wave (km/s) = 3.53794 4.03626 3.79529
# Velocity P-wave (km/s) = 6.58792 7.89433 7.27053
#
# Compressibility (1/GPa) = 0.01880600
#
# Stress axis : x y z
#
# Youngs Moduli (GPa) = 26.18499 91.08513 115.11617
#
# Poissons Ratio (x) = 1.07312 0.79568
# Poissons Ratio (y) = 0.30850 0.09569
# Poissons Ratio (z) = 0.18099 0.07572
#
# Static dielectric constant tensor:
#      x y z
#    x 1.713090 0.000000 0.000000 
#    y 0.000000 1.795600 0.000000 
#    z 0.000000 0.000000 1.679530 
# 
# From -- ./inp_files/36629.got.cif
#   From: 2010.05.17/outbox.cif.g08.bks.cpg/sg63_19_cif.got.tgz:36629.got - 2010.06.03 15:47:04.
