data_PCOD9474758
_publ_section_title
;
Structure prediction by ZEFSAII (Michael W. Deem and Ramdas Pophale) SiO2 
 PCOD9474758
Probable space group: C M C M
;
_chemical_formula_sum "Si O2"
_cell_formula_units_Z 112
_cell_length_a 13.733686
_cell_length_b 25.060383
_cell_length_c 14.351752
_cell_angle_alpha 90.000000
_cell_angle_beta 90.000000
_cell_angle_gamma 90.000000
_cell_volume 4939.463026
_symmetry_space_group_name_H-M "C M C M"
_symmetry_group_IT_number 63
_symmetry_cell_setting 'orthorhombic'
loop_
_space_group_symop_operation_xyz
x,y,z
-x,-y,1/2+z
x,-y,-z
-x,y,1/2-z
-x,-y,-z
x,y,1/2-z
-x,y,z
x,-y,1/2+z
1/2+x,1/2+y,z
1/2-x,1/2-y,1/2+z
1/2+x,1/2-y,-z
1/2-x,1/2+y,1/2-z
1/2-x,1/2-y,-z
1/2+x,1/2+y,1/2-z
1/2-x,1/2+y,z
1/2+x,1/2-y,1/2+z
loop_
_atom_site_type_symbol
_atom_site_label
_atom_site_fract_x
_atom_site_fract_y
_atom_site_fract_z
Si Si1 0.116962 0.856570 0.857371
Si Si2 0.688155 0.469065 0.859613
Si Si3 0.202871 0.916197 0.137476
Si Si4 0.618706 0.250259 0.537746
Si Si5 0.382954 0.302205 0.145962
Si Si6 0.886851 0.368795 0.450656
Si Si7 0.608853 0.079201 0.145050
O O1 0.150008 0.854757 0.750000
O O2 0.150649 0.913023 0.899804
O O3 0.150250 0.802678 0.906767
O O4 0.000000 0.856778 0.858553
O O5 0.658225 0.468013 0.750000
O O6 0.660379 0.527199 0.896520
O O7 0.805135 0.463351 0.864457
O O8 0.207593 0.919478 0.250000
O O9 0.143322 0.862572 0.115941
O O10 0.310671 0.907659 0.097510
O O11 0.500000 0.250335 0.539216
O O12 0.650011 0.260481 0.431588
O O13 0.644232 0.191639 0.572960
O O14 0.344063 0.292863 0.250000
O O15 0.500000 0.299097 0.149773
O O16 0.881076 0.378378 0.562054
O O17 0.000000 0.376969 0.424016
O O18 0.617296 0.102054 0.250000
O O19 0.500000 0.056078 0.136457
#
# Coordination Sequence:
#
# PCOD9474758 Si02
#       7
#    16  16  16  16  16  16  16
#     4   9  18  34  57  85 115 148 186 228 280 340
#     4   9  19  36  56  80 111 147 188 235 281 328
#     4  10  22  38  56  83 116 149 189 233 283 345
#     4   9  19  36  57  82 113 147 187 233 279 333
#     4   9  19  37  58  80 111 151 191 232 280 332
#     4  10  22  38  58  85 115 150 189 233 287 341
#     4   9  19  37  58  80 108 144 190 239 283 330
#
# _framework density 22.674529
#
# number of rings (size 3 to 8) (size 9 to 14) (size 15 to 20)
#    0.000    2.714    0.000    0.000    2.000    3.714 
#    0.000   10.000    0.000    2.571    0.000    0.000 
#    0.000    0.000    0.000    0.000    0.000    0.000 
#
# Total GULP energy -312683.876841 kJ/mol
# GULP energy per Si atom -5583.640658 kJ/mol
# Density = 2.262292 g / cm^3
# Si number density = 22.674529 Si / 1000 Ang^3
#
#
#
# Elastic Constant Matrix: (Units=GPa)
#
#
# Indices 1 2 3 4 5 6 
#
# 1 28.7930 -8.6221 -3.2294 0.0000 0.0000 0.0000
# 2 -8.6221 112.2759 23.6692 0.0000 0.0000 0.0000
# 3 -3.2294 23.6692 38.8109 0.0000 0.0000 0.0000
# 4 0.0000 0.0000 0.0000 23.5564 0.0000 0.0000
# 5 0.0000 0.0000 0.0000 0.0000 18.6594 0.0000
# 6 0.0000 0.0000 0.0000 0.0000 0.0000 20.9134
#
#
#
# Elastic Compliance Matrix: (Units=1/GPa)
#
#
# Indices 1 2 3 4 5 6 
#
# 1 0.035623 0.002422 0.001487 0.000000 0.000000 0.000000
# 2 0.002422 0.010385 -0.006132 0.000000 0.000000 0.000000
# 3 0.001487 -0.006132 0.029629 0.000000 0.000000 0.000000
# 4 0.000000 0.000000 0.000000 0.042451 0.000000 0.000000
# 5 0.000000 0.000000 0.000000 0.000000 0.053592 0.000000
# 6 0.000000 0.000000 0.000000 0.000000 0.000000 0.047816
#
#
# Mechanical properties :
#
#
# Convention : Reuss Voigt Hill
#
# Bulk Modulus (GPa) = 14.04663 22.61282 18.32972
# Shear Modulus (GPa) = 20.18783 23.82997 22.00890
#
# Velocity S-wave (km/s) = 2.98708 3.24537 3.11890
# Velocity P-wave (km/s) = 4.25502 4.90282 4.59036
#
# Compressibility (1/GPa) = 0.07119144
#
# Stress axis : x y z
#
# Youngs Moduli (GPa) = 28.07196 96.28939 33.75023
#
# Poissons Ratio (x) = -0.23323 -0.05018
# Poissons Ratio (y) = -0.06799 0.20696
# Poissons Ratio (z) = -0.04174 0.59045
#
# Static dielectric constant tensor:
#      x y z
#    x 1.857260 0.000000 0.000000 
#    y 0.000000 1.817430 0.000000 
#    z 0.000000 0.000000 1.879120 
# 
# From -- ./inp_files/32312.got.cif
#   From: 2010.05.17/outbox.cif.g08.bks.cpg/sg63_17_cif.got.tgz:32312.got - 2010.06.03 15:47:04.
