data_PCOD9474166
_publ_section_title
;
Structure prediction by ZEFSAII (Michael W. Deem and Ramdas Pophale) SiO2 
 PCOD9474166
Probable space group: C M C M
;
_chemical_formula_sum "Si O2"
_cell_formula_units_Z 112
_cell_length_a 15.258611
_cell_length_b 12.640574
_cell_length_c 27.619082
_cell_angle_alpha 90.000000
_cell_angle_beta 90.000000
_cell_angle_gamma 90.000000
_cell_volume 5327.102291
_symmetry_space_group_name_H-M "C M C M"
_symmetry_group_IT_number 63
_symmetry_cell_setting 'orthorhombic'
loop_
_space_group_symop_operation_xyz
x,y,z
-x,-y,1/2+z
x,-y,-z
-x,y,1/2-z
-x,-y,-z
x,y,1/2-z
-x,y,z
x,-y,1/2+z
1/2+x,1/2+y,z
1/2-x,1/2-y,1/2+z
1/2+x,1/2-y,-z
1/2-x,1/2+y,1/2-z
1/2-x,1/2-y,-z
1/2+x,1/2+y,1/2-z
1/2-x,1/2+y,z
1/2+x,1/2-y,1/2+z
loop_
_atom_site_type_symbol
_atom_site_label
_atom_site_fract_x
_atom_site_fract_y
_atom_site_fract_z
Si Si1 0.101577 0.248211 0.847711
Si Si2 0.833491 0.268765 0.464782
Si Si3 0.097704 0.015218 0.692827
Si Si4 0.399529 0.537954 0.444635
Si Si5 0.720448 0.068446 0.193860
Si Si6 0.596504 0.128900 0.444166
Si Si7 0.776738 0.456165 0.098085
O O1 0.116743 0.127507 0.832718
O O2 0.168660 0.326105 0.820660
O O3 0.109005 0.276868 0.904769
O O4 0.000000 0.272139 0.834247
O O5 0.750000 0.250000 0.500000
O O6 0.875815 0.161508 0.445852
O O7 0.897646 0.328732 0.501660
O O8 0.803560 0.342203 0.420894
O O9 0.097227 0.039976 0.750000
O O10 0.174139 0.929006 0.686727
O O11 0.000000 0.979059 0.679478
O O12 0.391470 0.500000 0.500000
O O13 0.500000 0.517719 0.429591
O O14 0.324449 0.480269 0.414226
O O15 0.703234 0.041928 0.250000
O O16 0.696644 0.980974 0.153316
O O17 0.500000 0.083427 0.434886
O O18 0.669982 0.042418 0.433701
#
# Coordination Sequence:
#
# PCOD9474166 Si02
#       7
#    16  16  16  16  16  16  16
#     4   9  19  36  60  87 113 147 192 242 291 342
#     4  12  22  37  58  83 120 161 189 233 291 348
#     4   9  18  33  55  82 109 140 186 239 288 340
#     4  11  23  39  59  88 121 158 197 237 289 350
#     4  10  22  37  59  87 115 150 194 246 300 347
#     4  10  21  37  59  86 115 151 195 236 284 347
#     4  11  23  39  59  84 119 152 195 246 291 347
#
# _framework density 21.024563000000001
#
# number of rings (size 3 to 8) (size 9 to 14) (size 15 to 20)
#    0.000    1.714    2.857    1.286    2.000    3.143 
#    0.000    0.000    0.000    0.857    0.000    2.000 
#    0.000    0.000    0.000    0.000    0.000    0.000 
#
# Total GULP energy -312912.221188 kJ/mol
# GULP energy per Si atom -5587.718235 kJ/mol
# Density = 2.097671 g / cm^3
# Si number density = 21.024563 Si / 1000 Ang^3
#
#
#
# Elastic Constant Matrix: (Units=GPa)
#
#
# Indices 1 2 3 4 5 6 
#
# 1 145.7778 68.2366 37.7283 0.0000 0.0000 0.0000
# 2 68.2366 69.9605 33.2501 0.0000 0.0000 0.0000
# 3 37.7283 33.2501 126.1533 0.0000 0.0000 0.0000
# 4 0.0000 0.0000 0.0000 22.8189 0.0000 0.0000
# 5 0.0000 0.0000 0.0000 0.0000 17.9234 0.0000
# 6 0.0000 0.0000 0.0000 0.0000 0.0000 31.8708
#
#
#
# Elastic Compliance Matrix: (Units=1/GPa)
#
#
# Indices 1 2 3 4 5 6 
#
# 1 0.012663 -0.012062 -0.000608 0.000000 0.000000 0.000000
# 2 -0.012062 0.027831 -0.003728 0.000000 0.000000 0.000000
# 3 -0.000608 -0.003728 0.009091 0.000000 0.000000 0.000000
# 4 0.000000 0.000000 0.000000 0.043823 0.000000 0.000000
# 5 0.000000 0.000000 0.000000 0.000000 0.055793 0.000000
# 6 0.000000 0.000000 0.000000 0.000000 0.000000 0.031377
#
#
# Mechanical properties :
#
#
# Convention : Reuss Voigt Hill
#
# Bulk Modulus (GPa) = 59.56299 68.92461 64.24380
# Shear Modulus (GPa) = 22.83409 28.03438 25.43424
#
# Velocity S-wave (km/s) = 3.29913 3.65555 3.48190
# Velocity P-wave (km/s) = 6.55012 7.11839 6.84016
#
# Compressibility (1/GPa) = 0.01678895
#
# Stress axis : x y z
#
# Youngs Moduli (GPa) = 78.96823 35.93158 109.99630
#
# Poissons Ratio (x) = 0.43342 0.06687
# Poissons Ratio (y) = 0.95254 0.41005
# Poissons Ratio (z) = 0.04801 0.13395
#
# Static dielectric constant tensor:
#      x y z
#    x 1.803540 0.000000 0.000000 
#    y 0.000000 1.718790 0.000000 
#    z 0.000000 0.000000 1.793990 
# 
# From -- ./inp_files/73396.got.cif
#   From: 2010.05.17/outbox.cif.g08.bks.cpg/sg63_37_cif.got.tgz:73396.got - 2010.06.03 15:47:04.
