data_PCOD9474597
_publ_section_title
;
Structure prediction by ZEFSAII (Michael W. Deem and Ramdas Pophale) SiO2 
 PCOD9474597
Probable space group: C M C M
;
_chemical_formula_sum "Si O2"
_cell_formula_units_Z 52
_cell_length_a 7.173313
_cell_length_b 14.932480
_cell_length_c 18.604385
_cell_angle_alpha 90.000000
_cell_angle_beta 90.000000
_cell_angle_gamma 90.000000
_cell_volume 1992.815265
_symmetry_space_group_name_H-M "C M C M"
_symmetry_group_IT_number 63
_symmetry_cell_setting 'orthorhombic'
loop_
_space_group_symop_operation_xyz
x,y,z
-x,-y,1/2+z
x,-y,-z
-x,y,1/2-z
-x,-y,-z
x,y,1/2-z
-x,y,z
x,-y,1/2+z
1/2+x,1/2+y,z
1/2-x,1/2-y,1/2+z
1/2+x,1/2-y,-z
1/2-x,1/2+y,1/2-z
1/2-x,1/2-y,-z
1/2+x,1/2+y,1/2-z
1/2-x,1/2+y,z
1/2+x,1/2-y,1/2+z
loop_
_atom_site_type_symbol
_atom_site_label
_atom_site_fract_x
_atom_site_fract_y
_atom_site_fract_z
Si Si1 0.219322 0.146663 0.517260
Si Si2 0.277854 0.401897 0.326923
Si Si3 0.720084 0.391965 0.639187
Si Si4 0.000000 0.687892 0.250000
O O1 0.250000 0.250000 0.500000
O O2 0.296569 0.129360 0.596448
O O3 0.283461 0.099752 0.443979
O O4 0.000000 0.124033 0.522403
O O5 0.205437 0.368665 0.250000
O O6 0.500000 0.380681 0.325442
O O7 0.257347 0.509287 0.327997
O O8 0.500000 0.369256 0.639631
O O9 0.838786 0.323895 0.686378
#
# Coordination Sequence:
#
# PCOD9474597 Si02
#       4
#    16  16  16   4
#     4  10  22  40  60  87 126 169 203 247 310 369
#     4   9  17  37  65  89 116 159 205 250 305 366
#     4  10  21  40  64  91 125 159 204 256 306 367
#     4  12  22  36  66 102 118 152 208 262 312 354
#
# _framework density 26.09374
#
# number of rings (size 3 to 8) (size 9 to 14) (size 15 to 20)
#    0.000    2.154    1.538    1.385    2.154    3.692 
#    5.538    1.538    0.000    0.000    0.000    0.000 
#    0.000    0.000    0.000    0.000    0.000    0.000 
#
# Total GULP energy -144974.550441 kJ/mol
# GULP energy per Si atom -5575.944248 kJ/mol
# Density = 2.603435 g / cm^3
# Si number density = 26.093740 Si / 1000 Ang^3
#
#
#
# Elastic Constant Matrix: (Units=GPa)
#
#
# Indices 1 2 3 4 5 6 
#
# 1 149.9863 0.4060 46.1096 0.0000 0.0000 0.0000
# 2 0.4060 51.9150 44.0335 0.0000 0.0000 0.0000
# 3 46.1096 44.0335 354.3415 0.0000 0.0000 0.0000
# 4 0.0000 0.0000 0.0000 109.0635 0.0000 0.0000
# 5 0.0000 0.0000 0.0000 0.0000 -7.4852 0.0000
# 6 0.0000 0.0000 0.0000 0.0000 0.0000 10.9878
#
#
#
# Elastic Compliance Matrix: (Units=1/GPa)
#
#
# Indices 1 2 3 4 5 6 
#
# 1 0.006975 0.000800 -0.001007 0.000000 0.000000 0.000000
# 2 0.000800 0.021623 -0.002791 0.000000 0.000000 0.000000
# 3 -0.001007 -0.002791 0.003300 0.000000 0.000000 0.000000
# 4 0.000000 0.000000 0.000000 0.009169 0.000000 0.000000
# 5 0.000000 0.000000 0.000000 0.000000 -0.133597 0.000000
# 6 0.000000 0.000000 0.000000 0.000000 0.000000 0.091010
#
#
# Mechanical properties :
#
#
# Convention : Reuss Voigt Hill
#
# Bulk Modulus (GPa) = 38.60859 81.92678 60.26768
# Shear Modulus (GPa) = 381.36071 53.55946 217.46009
#
# Velocity S-wave (km/s) = 12.10238 4.53545 9.13887
# Velocity P-wave (km/s) = 14.49546 7.67414 11.59764
#
# Compressibility (1/GPa) = 0.02590097
#
# Stress axis : x y z
#
# Youngs Moduli (GPa) = 143.37586 46.24618 303.02832
#
# Poissons Ratio (x) = -0.03698 0.30514
# Poissons Ratio (y) = -0.11463 0.84580
# Poissons Ratio (z) = 0.14437 0.12908
#
# Static dielectric constant tensor:
#      x y z
#    x 2.049530 0.000000 0.000000 
#    y 0.000000 2.092350 0.000000 
#    z 0.000000 0.000000 2.088500 
# 
# From -- ./inp_files/27107.got.cif
#   From: 2010.05.17/outbox.cif.g08.bks.cpg/sg63_14_cif.got.tgz:27107.got - 2010.06.03 15:47:04.
