data_PCOD9474225
_publ_section_title
;
Structure prediction by ZEFSAII (Michael W. Deem and Ramdas Pophale) SiO2 
 PCOD9474225
Probable space group: C M C M
;
_chemical_formula_sum "Si O2"
_cell_formula_units_Z 112
_cell_length_a 14.860416
_cell_length_b 12.708959
_cell_length_c 27.967935
_cell_angle_alpha 90.000000
_cell_angle_beta 90.000000
_cell_angle_gamma 90.000000
_cell_volume 5282.035885
_symmetry_space_group_name_H-M "C M C M"
_symmetry_group_IT_number 63
_symmetry_cell_setting 'orthorhombic'
loop_
_space_group_symop_operation_xyz
x,y,z
-x,-y,1/2+z
x,-y,-z
-x,y,1/2-z
-x,-y,-z
x,y,1/2-z
-x,y,z
x,-y,1/2+z
1/2+x,1/2+y,z
1/2-x,1/2-y,1/2+z
1/2+x,1/2-y,-z
1/2-x,1/2+y,1/2-z
1/2-x,1/2-y,-z
1/2+x,1/2+y,1/2-z
1/2-x,1/2+y,z
1/2+x,1/2-y,1/2+z
loop_
_atom_site_type_symbol
_atom_site_label
_atom_site_fract_x
_atom_site_fract_y
_atom_site_fract_z
Si Si1 0.207355 0.306001 0.564115
Si Si2 0.862230 0.550493 0.301011
Si Si3 0.731168 0.090549 0.974200
Si Si4 0.151560 0.001315 0.805256
Si Si5 0.897996 0.836836 0.613273
Si Si6 0.902292 0.592674 0.610811
Si Si7 0.104571 0.232754 0.657575
O O1 0.213399 0.191118 0.540653
O O2 0.170721 0.375569 0.520181
O O3 0.308054 0.345546 0.580035
O O4 0.151390 0.285888 0.611588
O O5 0.893887 0.508529 0.250000
O O6 0.755397 0.532912 0.303544
O O7 0.900139 0.486291 0.345298
O O8 0.884471 0.673652 0.304432
O O9 0.674920 0.065852 0.926978
O O10 0.787436 0.000000 0.000000
O O11 0.117120 0.998020 0.750000
O O12 0.144166 0.120745 0.825420
O O13 0.108668 0.919010 0.842885
O O14 0.890772 0.713421 0.628257
O O15 0.000000 0.848923 0.592327
O O16 0.000000 0.586674 0.586939
O O17 0.000000 0.214118 0.647792
#
# Coordination Sequence:
#
# PCOD9474225 Si02
#       7
#    16  16  16  16  16  16  16
#     4  10  22  40  62  93 125 171 218 273 332 398
#     4  11  24  41  66  95 130 175 221 271 332 399
#     4  10  21  37  62  89 123 169 214 273 329 388
#     4  11  24  41  64  94 132 177 225 275 334 400
#     4  10  21  40  66  92 127 172 222 279 335 395
#     4  10  22  40  63  95 131 168 217 278 333 394
#     4  12  25  42  66  97 137 178 221 276 337 401
#
# _framework density 21.203944
#
# number of rings (size 3 to 8) (size 9 to 14) (size 15 to 20)
#    0.000    1.429    1.429    3.857    2.000    4.286 
#    0.000    3.571    0.000    0.857    0.000    0.000 
#    0.000    0.000    0.000    0.000    0.000    0.000 
#
# Total GULP energy -312103.968780 kJ/mol
# GULP energy per Si atom -5573.285157 kJ/mol
# Density = 2.115568 g / cm^3
# Si number density = 21.203944 Si / 1000 Ang^3
#
#
#
# Elastic Constant Matrix: (Units=GPa)
#
#
# Indices 1 2 3 4 5 6 
#
# 1 77.6179 4.7512 10.0546 0.0000 0.0000 0.0000
# 2 4.7512 88.5535 43.9357 0.0000 0.0000 0.0000
# 3 10.0546 43.9357 118.4679 0.0000 0.0000 0.0000
# 4 0.0000 0.0000 0.0000 40.0498 0.0000 0.0000
# 5 0.0000 0.0000 0.0000 0.0000 -5.4305 0.0000
# 6 0.0000 0.0000 0.0000 0.0000 0.0000 23.1852
#
#
#
# Elastic Compliance Matrix: (Units=1/GPa)
#
#
# Indices 1 2 3 4 5 6 
#
# 1 0.013029 -0.000184 -0.001037 0.000000 0.000000 0.000000
# 2 -0.000184 0.013842 -0.005118 0.000000 0.000000 0.000000
# 3 -0.001037 -0.005118 0.010427 0.000000 0.000000 0.000000
# 4 0.000000 0.000000 0.000000 0.024969 0.000000 0.000000
# 5 0.000000 0.000000 0.000000 0.000000 -0.184147 0.000000
# 6 0.000000 0.000000 0.000000 0.000000 0.000000 0.043131
#
#
# Mechanical properties :
#
#
# Convention : Reuss Voigt Hill
#
# Bulk Modulus (GPa) = 40.61898 44.68025 42.64962
# Shear Modulus (GPa) = -86.41077 26.62077 -29.89500
#
# Velocity S-wave (km/s) = -6.39067 3.54710 -3.75891
# Velocity P-wave (km/s) = 5.93770 6.15575 1.14824
#
# Compressibility (1/GPa) = 0.02461903
#
# Stress axis : x y z
#
# Youngs Moduli (GPa) = 76.75006 72.24562 95.90344
#
# Poissons Ratio (x) = 0.01332 0.09950
# Poissons Ratio (y) = 0.01415 0.49081
# Poissons Ratio (z) = 0.07963 0.36974
#
# Static dielectric constant tensor:
#      x y z
#    x 1.798600 0.000000 0.000000 
#    y 0.000000 1.825180 0.000000 
#    z 0.000000 0.000000 1.806010 
# 
# From -- ./inp_files/73450.got.cif
#   From: 2010.05.17/outbox.cif.g08.bks.cpg/sg63_37_cif.got.tgz:73450.got - 2010.06.03 15:47:04.
