data_PCOD9474533
_publ_section_title
;
Structure prediction by ZEFSAII (Michael W. Deem and Ramdas Pophale) SiO2 
 PCOD9474533
Probable space group: C M C M
;
_chemical_formula_sum "Si O2"
_cell_formula_units_Z 116
_cell_length_a 25.284298
_cell_length_b 12.740040
_cell_length_c 19.155246
_cell_angle_alpha 90.000000
_cell_angle_beta 90.000000
_cell_angle_gamma 90.000000
_cell_volume 6170.344692
_symmetry_space_group_name_H-M "C M C M"
_symmetry_group_IT_number 63
_symmetry_cell_setting 'orthorhombic'
loop_
_space_group_symop_operation_xyz
x,y,z
-x,-y,1/2+z
x,-y,-z
-x,y,1/2-z
-x,-y,-z
x,y,1/2-z
-x,y,z
x,-y,1/2+z
1/2+x,1/2+y,z
1/2-x,1/2-y,1/2+z
1/2+x,1/2-y,-z
1/2-x,1/2+y,1/2-z
1/2-x,1/2-y,-z
1/2+x,1/2+y,1/2-z
1/2-x,1/2+y,z
1/2+x,1/2-y,1/2+z
loop_
_atom_site_type_symbol
_atom_site_label
_atom_site_fract_x
_atom_site_fract_y
_atom_site_fract_z
Si Si1 0.000000 0.500000 0.500000
Si Si2 0.563407 0.318118 0.668922
Si Si3 0.215821 0.851133 0.330207
Si Si4 0.561138 0.246039 0.098303
Si Si5 0.089392 0.339689 0.451515
Si Si6 0.397618 0.548135 0.667465
Si Si7 0.343518 0.130535 0.331116
Si Si8 0.199799 0.448383 0.430513
O O1 0.046640 0.432143 0.459277
O O2 0.577531 0.298992 0.750000
O O3 0.500000 0.327153 0.664383
O O4 0.581972 0.225709 0.618862
O O5 0.588156 0.429988 0.647524
O O6 0.234442 0.866002 0.250000
O O7 0.164259 0.924698 0.340663
O O8 0.194059 0.732824 0.336778
O O9 0.259557 0.878842 0.386658
O O10 0.500000 0.213355 0.103735
O O11 0.570201 0.363343 0.126020
O O12 0.599315 0.169940 0.142309
O O13 0.578044 0.234289 0.018099
O O14 0.148460 0.383989 0.454924
O O15 0.410199 0.560486 0.750000
O O16 0.346149 0.100008 0.250000
O O17 0.321338 0.038904 0.379012
O O18 0.224216 0.500000 0.500000
#
# Coordination Sequence:
#
# PCOD9474533 Si02
#       8
#     4  16  16  16  16  16  16  16
#     4  12  20  44  62  74 116 176 196 244 322 360
#     4  10  21  39  63  94 128 165 206 254 308 374
#     4   9  21  42  65  89 125 166 205 259 316 368
#     4  11  20  37  64  93 126 167 205 254 313 369
#     4  12  24  40  63  87 124 167 207 253 313 368
#     4   9  20  40  64  93 130 164 203 255 315 368
#     4  10  22  42  64  92 124 161 211 259 310 373
#     4  12  24  41  62  92 123 164 210 256 312 363
#
# _framework density 18.799598
#
# number of rings (size 3 to 8) (size 9 to 14) (size 15 to 20)
#    0.000    1.517    3.448    2.069    0.000    4.966 
#    4.966    4.138    0.000    0.000    0.000    0.000 
#    0.000    0.000    0.000    0.000    0.000    0.000 
#
# Total GULP energy -323523.985379 kJ/mol
# GULP energy per Si atom -5577.999748 kJ/mol
# Density = 1.875681 g / cm^3
# Si number density = 18.799598 Si / 1000 Ang^3
#
#
#
# Elastic Constant Matrix: (Units=GPa)
#
#
# Indices 1 2 3 4 5 6 
#
# 1 71.7142 10.0230 37.7955 0.0000 0.0000 0.0000
# 2 10.0230 56.0174 33.4547 0.0000 0.0000 0.0000
# 3 37.7955 33.4547 90.4880 0.0000 0.0000 0.0000
# 4 0.0000 0.0000 0.0000 41.2943 0.0000 0.0000
# 5 0.0000 0.0000 0.0000 0.0000 28.8639 0.0000
# 6 0.0000 0.0000 0.0000 0.0000 0.0000 11.6766
#
#
#
# Elastic Compliance Matrix: (Units=1/GPa)
#
#
# Indices 1 2 3 4 5 6 
#
# 1 0.017995 0.001629 -0.008119 0.000000 0.000000 0.000000
# 2 0.001629 0.023058 -0.009205 0.000000 0.000000 0.000000
# 3 -0.008119 -0.009205 0.017845 0.000000 0.000000 0.000000
# 4 0.000000 0.000000 0.000000 0.024216 0.000000 0.000000
# 5 0.000000 0.000000 0.000000 0.000000 0.034645 0.000000
# 6 0.000000 0.000000 0.000000 0.000000 0.000000 0.085641
#
#
# Mechanical properties :
#
#
# Convention : Reuss Voigt Hill
#
# Bulk Modulus (GPa) = 36.35220 42.30734 39.32977
# Shear Modulus (GPa) = 20.49510 25.49671 22.99591
#
# Velocity S-wave (km/s) = 3.30538 3.68671 3.50124
# Velocity P-wave (km/s) = 5.82633 6.37775 6.10826
#
# Compressibility (1/GPa) = 0.02750865
#
# Stress axis : x y z
#
# Youngs Moduli (GPa) = 55.56999 43.36969 56.03684
#
# Poissons Ratio (x) = -0.07064 0.45494
# Poissons Ratio (y) = -0.09051 0.51582
# Poissons Ratio (z) = 0.45115 0.39922
#
# Static dielectric constant tensor:
#      x y z
#    x 1.635210 0.000000 0.000000 
#    y 0.000000 1.646360 0.000000 
#    z 0.000000 0.000000 1.659330 
# 
# From -- ./inp_files/49100.got.cif
#   From: 2010.05.17/outbox.cif.g08.bks.cpg/sg63_25_cif.got.tgz:49100.got - 2010.06.03 15:47:04.
