data_PCOD9474018
_publ_section_title
;
Structure prediction by ZEFSAII (Michael W. Deem and Ramdas Pophale) SiO2 
 PCOD9474018
Probable space group: C M C M
;
_chemical_formula_sum "Si O2"
_cell_formula_units_Z 104
_cell_length_a 21.871105
_cell_length_b 14.308463
_cell_length_c 13.828242
_cell_angle_alpha 90.000000
_cell_angle_beta 90.000000
_cell_angle_gamma 90.000000
_cell_volume 4327.436279
_symmetry_space_group_name_H-M "C M C M"
_symmetry_group_IT_number 63
_symmetry_cell_setting 'orthorhombic'
loop_
_space_group_symop_operation_xyz
x,y,z
-x,-y,1/2+z
x,-y,-z
-x,y,1/2-z
-x,-y,-z
x,y,1/2-z
-x,y,z
x,-y,1/2+z
1/2+x,1/2+y,z
1/2-x,1/2-y,1/2+z
1/2+x,1/2-y,-z
1/2-x,1/2+y,1/2-z
1/2-x,1/2-y,-z
1/2+x,1/2+y,1/2-z
1/2-x,1/2+y,z
1/2+x,1/2-y,1/2+z
loop_
_atom_site_type_symbol
_atom_site_label
_atom_site_fract_x
_atom_site_fract_y
_atom_site_fract_z
Si Si1 0.357089 0.464039 0.250000
Si Si2 0.741638 0.979994 0.111700
Si Si3 0.390606 0.052196 0.356034
Si Si4 0.845003 0.188558 0.456078
Si Si5 0.929338 0.641824 0.942874
Si Si6 0.235524 0.227735 0.861182
Si Si7 0.928159 0.958296 0.634592
O O1 0.304222 0.487024 0.168438
O O2 0.406688 0.437952 0.339819
O O3 0.682885 0.039943 0.141387
O O4 0.727195 0.869694 0.126655
O O5 0.751961 0.000000 0.000000
O O6 0.409245 0.085490 0.250000
O O7 0.416142 0.948354 0.377208
O O8 0.412660 0.111574 0.447343
O O9 0.888569 0.270222 0.417260
O O10 0.818893 0.216200 0.561576
O O11 0.782684 0.191545 0.392163
O O12 0.887630 0.098570 0.439510
O O13 0.000000 0.666525 0.936365
O O14 0.214953 0.233921 0.750000
O O15 0.907181 0.929338 0.750000
O O16 0.000000 0.946668 0.622017
#
# Coordination Sequence:
#
# PCOD9474018 Si02
#       7
#     8  16  16  16  16  16  16
#     4  10  21  36  62  94 121 156 192 260 320 356
#     4  12  20  37  62  93 123 155 197 252 315 370
#     4  11  21  38  59  86 122 157 203 248 298 358
#     4  11  22  40  62  89 126 166 203 253 315 363
#     4  11  24  40  59  85 121 163 208 248 289 357
#     4  11  23  39  59  94 129 156 202 258 312 380
#     4   9  20  39  62  90 120 156 212 256 299 371
#
# _framework density 24.032706000000001
#
# number of rings (size 3 to 8) (size 9 to 14) (size 15 to 20)
#    0.462    0.769    4.615    2.769    0.000    3.692 
#    0.000    0.000    0.000   11.538    0.000    0.000 
#    0.000    0.000    0.000    0.000    0.000    0.000 
#
# Total GULP energy -289572.687194 kJ/mol
# GULP energy per Si atom -5568.705523 kJ/mol
# Density = 2.397801 g / cm^3
# Si number density = 24.032706 Si / 1000 Ang^3
#
#
#
# Elastic Constant Matrix: (Units=GPa)
#
#
# Indices 1 2 3 4 5 6 
#
# 1 167.5694 6.0618 21.1568 0.0000 0.0000 0.0000
# 2 6.0618 30.1032 -17.9355 0.0000 0.0000 0.0000
# 3 21.1568 -17.9355 129.7180 0.0000 0.0000 0.0000
# 4 0.0000 0.0000 0.0000 28.9092 0.0000 0.0000
# 5 0.0000 0.0000 0.0000 0.0000 158.4727 0.0000
# 6 0.0000 0.0000 0.0000 0.0000 0.0000 23.3108
#
#
#
# Elastic Compliance Matrix: (Units=1/GPa)
#
#
# Indices 1 2 3 4 5 6 
#
# 1 0.006204 -0.002018 -0.001291 0.000000 0.000000 0.000000
# 2 -0.002018 0.036858 0.005425 0.000000 0.000000 0.000000
# 3 -0.001291 0.005425 0.008670 0.000000 0.000000 0.000000
# 4 0.000000 0.000000 0.000000 0.034591 0.000000 0.000000
# 5 0.000000 0.000000 0.000000 0.000000 0.006310 0.000000
# 6 0.000000 0.000000 0.000000 0.000000 0.000000 0.042899
#
#
# Mechanical properties :
#
#
# Convention : Reuss Voigt Hill
#
# Bulk Modulus (GPa) = 17.86877 38.43965 28.15421
# Shear Modulus (GPa) = 33.34371 63.34571 48.34471
#
# Velocity S-wave (km/s) = 3.72886 5.13959 4.48998
# Velocity P-wave (km/s) = 5.09809 7.15890 6.21452
#
# Compressibility (1/GPa) = 0.05596356
#
# Stress axis : x y z
#
# Youngs Moduli (GPa) = 161.19487 27.13125 115.34413
#
# Poissons Ratio (x) = 0.05476 0.14889
# Poissons Ratio (y) = 0.32534 -0.62578
# Poissons Ratio (z) = 0.20808 -0.14720
#
# Static dielectric constant tensor:
#      x y z
#    x 1.941700 0.000000 0.000000 
#    y 0.000000 2.032480 0.000000 
#    z 0.000000 0.000000 1.953480 
# 
# From -- ./inp_files/35809.got.cif
#   From: 2010.05.17/outbox.cif.g08.bks.cpg/sg63_18_cif.got.tgz:35809.got - 2010.06.03 15:47:04.
