data_PCOD9474456
_publ_section_title
;
Structure prediction by ZEFSAII (Michael W. Deem and Ramdas Pophale) SiO2 
 PCOD9474456
Probable space group: C M C M
;
_chemical_formula_sum "Si O2"
_cell_formula_units_Z 100
_cell_length_a 23.071471
_cell_length_b 7.827146
_cell_length_c 29.048991
_cell_angle_alpha 90.000000
_cell_angle_beta 90.000000
_cell_angle_gamma 90.000000
_cell_volume 5245.776366
_symmetry_space_group_name_H-M "C M C M"
_symmetry_group_IT_number 63
_symmetry_cell_setting 'orthorhombic'
loop_
_space_group_symop_operation_xyz
x,y,z
-x,-y,1/2+z
x,-y,-z
-x,y,1/2-z
-x,-y,-z
x,y,1/2-z
-x,y,z
x,-y,1/2+z
1/2+x,1/2+y,z
1/2-x,1/2-y,1/2+z
1/2+x,1/2-y,-z
1/2-x,1/2+y,1/2-z
1/2-x,1/2-y,-z
1/2+x,1/2+y,1/2-z
1/2-x,1/2+y,z
1/2+x,1/2-y,1/2+z
loop_
_atom_site_type_symbol
_atom_site_label
_atom_site_fract_x
_atom_site_fract_y
_atom_site_fract_z
Si Si1 0.237489 0.979471 0.654107
Si Si2 0.066248 0.444084 0.866181
Si Si3 0.500000 0.500000 0.500000
Si Si4 0.162896 0.716797 0.196537
Si Si5 0.315574 0.699995 0.006575
Si Si6 0.423471 0.829346 0.530213
Si Si7 0.670269 0.823589 0.107999
O O1 0.195173 0.125209 0.672348
O O2 0.277953 0.036027 0.611026
O O3 0.287756 0.930167 0.690526
O O4 0.196906 0.823069 0.640169
O O5 0.104281 0.332228 0.830587
O O6 0.061594 0.357200 0.916512
O O7 0.108833 0.605484 0.874609
O O8 0.000000 0.480363 0.851094
O O9 0.450867 0.653643 0.510143
O O10 0.151593 0.747658 0.250000
O O11 0.336572 0.754392 0.057013
O O12 0.321921 0.500000 0.000000
O O13 0.250000 0.750000 0.000000
O O14 0.354846 0.803332 0.971168
O O15 0.437327 0.000000 0.500000
#
# Coordination Sequence:
#
# PCOD9474456 Si02
#       7
#    16  16   4  16  16  16  16
#     4   9  20  37  66  95 129 158 206 260 333 400
#     4  11  25  43  63  88 126 172 218 269 321 379
#     4  12  26  44  68  94 118 180 230 270 308 378
#     4  10  21  39  67  96 125 161 204 265 329 397
#     4  12  25  36  60  93 133 174 215 266 329 388
#     4  12  25  45  64  94 131 173 229 273 321 387
#     4  10  21  39  59  92 129 171 210 265 324 388
#
# _framework density 19.062957000000001
#
# number of rings (size 3 to 8) (size 9 to 14) (size 15 to 20)
#    0.000    1.280    3.200    2.160    8.960    0.320 
#    0.000    1.600    0.000    0.000    0.000    0.000 
#    0.000    0.000    0.000    0.000    0.000    0.000 
#
# Total GULP energy -278413.390600 kJ/mol
# GULP energy per Si atom -5568.267812 kJ/mol
# Density = 1.901957 g / cm^3
# Si number density = 19.062957 Si / 1000 Ang^3
#
#
#
# Elastic Constant Matrix: (Units=GPa)
#
#
# Indices 1 2 3 4 5 6 
#
# 1 194.7107 59.8977 42.5945 0.0000 0.0000 0.0000
# 2 59.8977 106.7872 23.3622 0.0000 0.0000 0.0000
# 3 42.5945 23.3622 72.9591 0.0000 0.0000 0.0000
# 4 0.0000 0.0000 0.0000 13.5830 0.0000 0.0000
# 5 0.0000 0.0000 0.0000 0.0000 664.5438 0.0000
# 6 0.0000 0.0000 0.0000 0.0000 0.0000 5.6194
#
#
#
# Elastic Compliance Matrix: (Units=1/GPa)
#
#
# Indices 1 2 3 4 5 6 
#
# 1 0.006743 -0.003141 -0.002931 0.000000 0.000000 0.000000
# 2 -0.003141 0.011533 -0.001859 0.000000 0.000000 0.000000
# 3 -0.002931 -0.001859 0.016013 0.000000 0.000000 0.000000
# 4 0.000000 0.000000 0.000000 0.073621 0.000000 0.000000
# 5 0.000000 0.000000 0.000000 0.000000 0.001505 0.000000
# 6 0.000000 0.000000 0.000000 0.000000 0.000000 0.177954
#
#
# Mechanical properties :
#
#
# Convention : Reuss Voigt Hill
#
# Bulk Modulus (GPa) = 54.26955 69.57400 61.92177
# Shear Modulus (GPa) = 16.16168 153.32276 84.74222
#
# Velocity S-wave (km/s) = 2.91487 8.97799 6.67461
# Velocity P-wave (km/s) = 6.31340 12.00202 9.58925
#
# Compressibility (1/GPa) = 0.01842654
#
# Stress axis : x y z
#
# Youngs Moduli (GPa) = 148.29543 86.70746 62.45006
#
# Poissons Ratio (x) = 0.27236 0.18304
# Poissons Ratio (y) = 0.46582 0.11610
# Poissons Ratio (z) = 0.43466 0.16120
#
# Static dielectric constant tensor:
#      x y z
#    x 1.696730 0.000000 0.000000 
#    y 0.000000 1.760540 0.000000 
#    z 0.000000 0.000000 1.675850 
# 
# From -- ./inp_files/70394.got.cif
#   From: 2010.05.17/outbox.cif.g08.bks.cpg/sg63_36_cif.got.tgz:70394.got - 2010.06.03 15:47:04.
