data_PCOD9474395
_publ_section_title
;
Structure prediction by ZEFSAII (Michael W. Deem and Ramdas Pophale) SiO2 
 PCOD9474395
Probable space group: C M C M
;
_chemical_formula_sum "Si O2"
_cell_formula_units_Z 64
_cell_length_a 15.185495
_cell_length_b 11.697472
_cell_length_c 14.854046
_cell_angle_alpha 90.000000
_cell_angle_beta 90.000000
_cell_angle_gamma 90.000000
_cell_volume 2638.552452
_symmetry_space_group_name_H-M "C M C M"
_symmetry_group_IT_number 63
_symmetry_cell_setting 'orthorhombic'
loop_
_space_group_symop_operation_xyz
x,y,z
-x,-y,1/2+z
x,-y,-z
-x,y,1/2-z
-x,-y,-z
x,y,1/2-z
-x,y,z
x,-y,1/2+z
1/2+x,1/2+y,z
1/2-x,1/2-y,1/2+z
1/2+x,1/2-y,-z
1/2-x,1/2+y,1/2-z
1/2-x,1/2-y,-z
1/2+x,1/2+y,1/2-z
1/2-x,1/2+y,z
1/2+x,1/2-y,1/2+z
loop_
_atom_site_type_symbol
_atom_site_label
_atom_site_fract_x
_atom_site_fract_y
_atom_site_fract_z
Si Si1 0.786658 0.458944 0.896735
Si Si2 0.400923 0.520513 0.854768
Si Si3 0.648651 0.744162 0.967188
Si Si4 0.903898 0.337731 0.154060
O O1 0.685360 0.441672 0.868666
O O2 0.849075 0.348290 0.895374
O O3 0.828806 0.566526 0.847024
O O4 0.786247 0.500000 0.000000
O O5 0.399889 0.555475 0.750000
O O6 0.500000 0.475496 0.873631
O O7 0.382264 0.628889 0.919684
O O8 0.750000 0.750000 0.000000
O O9 0.599587 0.771587 0.059887
O O10 0.897095 0.272500 0.250000
O O11 0.000000 0.394793 0.154171
#
# Coordination Sequence:
#
# PCOD9474395 Si02
#       4
#    16  16  16  16
#     4  10  21  39  63  89 123 165 210 259 323 375
#     4  11  24  42  65  96 133 172 217 268 318 379
#     4  11  22  40  65  94 124 171 213 262 319 377
#     4  10  21  38  62  92 128 165 205 260 320 380
#
# _framework density 24.255723
#
# number of rings (size 3 to 8) (size 9 to 14) (size 15 to 20)
#    0.000    1.500    5.000    1.500    0.000    8.000 
#    0.000    2.500    0.000    3.000    0.000    0.000 
#    0.000    0.000    0.000    0.000    0.000    0.000 
#
# Total GULP energy -178716.468651 kJ/mol
# GULP energy per Si atom -5584.889645 kJ/mol
# Density = 2.420052 g / cm^3
# Si number density = 24.255723 Si / 1000 Ang^3
#
#
#
# Elastic Constant Matrix: (Units=GPa)
#
#
# Indices 1 2 3 4 5 6 
#
# 1 147.9291 15.8399 39.9381 0.0000 0.0000 0.0000
# 2 15.8399 72.4206 27.4947 0.0000 0.0000 0.0000
# 3 39.9381 27.4947 139.2807 0.0000 0.0000 0.0000
# 4 0.0000 0.0000 0.0000 30.1779 0.0000 0.0000
# 5 0.0000 0.0000 0.0000 0.0000 31.6457 0.0000
# 6 0.0000 0.0000 0.0000 0.0000 0.0000 19.8942
#
#
#
# Elastic Compliance Matrix: (Units=1/GPa)
#
#
# Indices 1 2 3 4 5 6 
#
# 1 0.007378 -0.000876 -0.001943 0.000000 0.000000 0.000000
# 2 -0.000876 0.015031 -0.002716 0.000000 0.000000 0.000000
# 3 -0.001943 -0.002716 0.008273 0.000000 0.000000 0.000000
# 4 0.000000 0.000000 0.000000 0.033137 0.000000 0.000000
# 5 0.000000 0.000000 0.000000 0.000000 0.031600 0.000000
# 6 0.000000 0.000000 0.000000 0.000000 0.000000 0.050266
#
#
# Mechanical properties :
#
#
# Convention : Reuss Voigt Hill
#
# Bulk Modulus (GPa) = 50.98797 58.46399 54.72598
# Shear Modulus (GPa) = 30.61995 34.76741 32.69368
#
# Velocity S-wave (km/s) = 3.55685 3.79009 3.67532
# Velocity P-wave (km/s) = 6.15913 6.58093 6.37352
#
# Compressibility (1/GPa) = 0.01961247
#
# Stress axis : x y z
#
# Youngs Moduli (GPa) = 135.53226 66.52920 120.87585
#
# Poissons Ratio (x) = 0.05830 0.23483
# Poissons Ratio (y) = 0.11876 0.32829
# Poissons Ratio (z) = 0.26330 0.18069
#
# Static dielectric constant tensor:
#      x y z
#    x 1.932060 0.000000 0.000000 
#    y 0.000000 2.058720 0.000000 
#    z 0.000000 0.000000 1.958540 
# 
# From -- ./inp_files/31098.got.cif
#   From: 2010.05.17/outbox.cif.g08.bks.cpg/sg63_16_cif.got.tgz:31098.got - 2010.06.03 15:47:04.
