data_PCOD9474562
_publ_section_title
;
Structure prediction by ZEFSAII (Michael W. Deem and Ramdas Pophale) SiO2 
 PCOD9474562
Probable space group: C M C M
;
_chemical_formula_sum "Si O2"
_cell_formula_units_Z 64
_cell_length_a 18.219174
_cell_length_b 9.583527
_cell_length_c 14.359985
_cell_angle_alpha 90.000000
_cell_angle_beta 90.000000
_cell_angle_gamma 90.000000
_cell_volume 2507.310045
_symmetry_space_group_name_H-M "C M C M"
_symmetry_group_IT_number 63
_symmetry_cell_setting 'orthorhombic'
loop_
_space_group_symop_operation_xyz
x,y,z
-x,-y,1/2+z
x,-y,-z
-x,y,1/2-z
-x,-y,-z
x,y,1/2-z
-x,y,z
x,-y,1/2+z
1/2+x,1/2+y,z
1/2-x,1/2-y,1/2+z
1/2+x,1/2-y,-z
1/2-x,1/2+y,1/2-z
1/2-x,1/2-y,-z
1/2+x,1/2+y,1/2-z
1/2-x,1/2+y,z
1/2+x,1/2-y,1/2+z
loop_
_atom_site_type_symbol
_atom_site_label
_atom_site_fract_x
_atom_site_fract_y
_atom_site_fract_z
Si Si1 0.101690 0.770762 0.851717
Si Si2 0.784098 0.981030 0.856598
Si Si3 0.080323 0.836530 0.430663
Si Si4 0.614970 0.969237 0.602595
O O1 0.077749 0.832038 0.750000
O O2 0.186051 0.821954 0.856848
O O3 0.090074 0.606307 0.844197
O O4 0.077369 0.812953 0.956733
O O5 0.778285 0.028589 0.750000
O O6 0.703296 0.978602 0.897273
O O7 0.848437 0.071809 0.904640
O O8 0.090818 0.688026 0.378462
O O9 0.000000 0.894961 0.403603
O O10 0.587180 0.000000 0.500000
#
# Coordination Sequence:
#
# PCOD9474562 Si02
#       4
#    16  16  16  16
#     4  10  22  39  63  95 130 172 223 274 325 388
#     4  11  23  40  65  97 132 174 224 274 328 393
#     4  11  25  44  66  97 137 176 217 272 336 395
#     4  10  21  39  66  95 127 171 221 271 327 393
#
# _framework density 25.525365000000001
#
# number of rings (size 3 to 8) (size 9 to 14) (size 15 to 20)
#    0.000    1.500    0.000    4.500    0.000   15.500 
#    0.000    2.500    0.000    0.000    0.000    0.000 
#    0.000    0.000    0.000    0.000    0.000    0.000 
#
# Total GULP energy -178462.271097 kJ/mol
# GULP energy per Si atom -5576.945972 kJ/mol
# Density = 2.546727 g / cm^3
# Si number density = 25.525365 Si / 1000 Ang^3
#
#
#
# Elastic Constant Matrix: (Units=GPa)
#
#
# Indices 1 2 3 4 5 6 
#
# 1 159.1753 19.0269 22.1948 0.0000 0.0000 0.0000
# 2 19.0269 116.3805 6.0372 0.0000 0.0000 0.0000
# 3 22.1948 6.0372 150.6982 0.0000 0.0000 0.0000
# 4 0.0000 0.0000 0.0000 33.4553 0.0000 0.0000
# 5 0.0000 0.0000 0.0000 0.0000 -4.0344 0.0000
# 6 0.0000 0.0000 0.0000 0.0000 0.0000 -2.8730
#
#
#
# Elastic Compliance Matrix: (Units=1/GPa)
#
#
# Indices 1 2 3 4 5 6 
#
# 1 0.006533 -0.001020 -0.000921 0.000000 0.000000 0.000000
# 2 -0.001020 0.008770 -0.000201 0.000000 0.000000 0.000000
# 3 -0.000921 -0.000201 0.006780 0.000000 0.000000 0.000000
# 4 0.000000 0.000000 0.000000 0.029891 0.000000 0.000000
# 5 0.000000 0.000000 0.000000 0.000000 -0.247867 0.000000
# 6 0.000000 0.000000 0.000000 0.000000 0.000000 -0.348064
#
#
# Mechanical properties :
#
#
# Convention : Reuss Voigt Hill
#
# Bulk Modulus (GPa) = 56.18967 57.86354 57.02661
# Shear Modulus (GPa) = -9.36784 30.57592 10.60404
#
# Velocity S-wave (km/s) = -1.91781 3.46477 2.04042
# Velocity P-wave (km/s) = 4.14211 6.22290 5.28590
#
# Compressibility (1/GPa) = 0.01779687
#
# Stress axis : x y z
#
# Youngs Moduli (GPa) = 153.07382 114.02854 147.50309
#
# Poissons Ratio (x) = 0.11634 0.13589
# Poissons Ratio (y) = 0.15617 0.02966
# Poissons Ratio (z) = 0.14102 0.02293
#
# Static dielectric constant tensor:
#      x y z
#    x 1.999910 0.000000 0.000000 
#    y 0.000000 2.067530 0.000000 
#    z 0.000000 0.000000 2.052620 
# 
# From -- ./inp_files/33351.got.cif
#   From: 2010.05.17/outbox.cif.g08.bks.cpg/sg63_17_cif.got.tgz:33351.got - 2010.06.03 15:47:04.
