data_PCOD9474313
_publ_section_title
;
Structure prediction by ZEFSAII (Michael W. Deem and Ramdas Pophale) SiO2 
 PCOD9474313
Probable space group: C M C M
;
_chemical_formula_sum "Si O2"
_cell_formula_units_Z 64
_cell_length_a 8.960401
_cell_length_b 20.693221
_cell_length_c 17.876827
_cell_angle_alpha 90.000000
_cell_angle_beta 90.000000
_cell_angle_gamma 90.000000
_cell_volume 3314.713363
_symmetry_space_group_name_H-M "C M C M"
_symmetry_group_IT_number 63
_symmetry_cell_setting 'orthorhombic'
loop_
_space_group_symop_operation_xyz
x,y,z
-x,-y,1/2+z
x,-y,-z
-x,y,1/2-z
-x,-y,-z
x,y,1/2-z
-x,y,z
x,-y,1/2+z
1/2+x,1/2+y,z
1/2-x,1/2-y,1/2+z
1/2+x,1/2-y,-z
1/2-x,1/2+y,1/2-z
1/2-x,1/2-y,-z
1/2+x,1/2+y,1/2-z
1/2-x,1/2+y,z
1/2+x,1/2-y,1/2+z
loop_
_atom_site_type_symbol
_atom_site_label
_atom_site_fract_x
_atom_site_fract_y
_atom_site_fract_z
Si Si1 0.821560 0.373048 0.608299
Si Si2 0.178213 0.003429 0.665064
Si Si3 0.678852 0.240252 0.663175
Si Si4 0.320879 0.114886 0.932630
O O1 0.747354 0.433245 0.650098
O O2 0.759852 0.305604 0.638937
O O3 0.785349 0.379293 0.520125
O O4 0.000000 0.375613 0.616790
O O5 0.215181 0.024145 0.750000
O O6 0.243789 0.054114 0.606234
O O7 0.000000 0.000022 0.658041
O O8 0.710798 0.225631 0.750000
O O9 0.500000 0.249347 0.655746
O O10 0.722677 0.180203 0.610957
O O11 0.500000 0.107341 0.925593
#
# Coordination Sequence:
#
# PCOD9474313 Si02
#       4
#    16  16  16  16
#     4  11  23  38  59  87 117 151 192 236 283 338
#     4  11  24  40  59  85 116 151 192 237 286 340
#     4  10  21  38  60  85 115 152 191 233 285 341
#     4  10  22  40  61  86 116 151 191 235 286 341
#
# _framework density 19.307853000000001
#
# number of rings (size 3 to 8) (size 9 to 14) (size 15 to 20)
#    0.000    1.500    0.000    4.500    0.000   12.500 
#    0.000    0.000    0.000    0.000    0.000    0.000 
#    0.000    0.000    0.000    0.000    0.000    0.000 
#
# Total GULP energy -178996.751011 kJ/mol
# GULP energy per Si atom -5593.648469 kJ/mol
# Density = 1.926391 g / cm^3
# Si number density = 19.307853 Si / 1000 Ang^3
#
#
#
# Elastic Constant Matrix: (Units=GPa)
#
#
# Indices 1 2 3 4 5 6 
#
# 1 12.1527 4.3113 16.5777 0.0000 0.0000 0.0000
# 2 4.3113 58.6461 -14.6782 0.0000 0.0000 0.0000
# 3 16.5777 -14.6782 56.7354 0.0000 0.0000 0.0000
# 4 0.0000 0.0000 0.0000 44.8697 0.0000 0.0000
# 5 0.0000 0.0000 0.0000 0.0000 28.6039 0.0000
# 6 0.0000 0.0000 0.0000 0.0000 0.0000 39.7098
#
#
#
# Elastic Compliance Matrix: (Units=1/GPa)
#
#
# Indices 1 2 3 4 5 6 
#
# 1 0.167776 -0.026307 -0.055829 0.000000 0.000000 0.000000
# 2 -0.026307 0.022357 0.013471 0.000000 0.000000 0.000000
# 3 -0.055829 0.013471 0.037423 0.000000 0.000000 0.000000
# 4 0.000000 0.000000 0.000000 0.022287 0.000000 0.000000
# 5 0.000000 0.000000 0.000000 0.000000 0.034960 0.000000
# 6 0.000000 0.000000 0.000000 0.000000 0.000000 0.025183
#
#
# Mechanical properties :
#
#
# Convention : Reuss Voigt Hill
#
# Bulk Modulus (GPa) = 11.08328 15.55065 13.31696
# Shear Modulus (GPa) = 10.47359 30.72490 20.59924
#
# Velocity S-wave (km/s) = 2.33159 3.99346 3.26986
# Velocity P-wave (km/s) = 3.60571 5.41619 4.60089
#
# Compressibility (1/GPa) = 0.09022602
#
# Stress axis : x y z
#
# Youngs Moduli (GPa) = 5.96034 44.72898 26.72120
#
# Poissons Ratio (x) = 1.17668 1.49181
# Poissons Ratio (y) = 0.15680 -0.35995
# Poissons Ratio (z) = 0.33276 -0.60253
#
# Static dielectric constant tensor:
#      x y z
#    x 1.643690 0.000000 0.000000 
#    y 0.000000 1.621380 0.000000 
#    z 0.000000 0.000000 1.661510 
# 
# From -- ./inp_files/39811.got.cif
#   From: 2010.05.17/outbox.cif.g08.bks.cpg/sg63_20_cif.got.tgz:39811.got - 2010.06.03 15:47:04.
