data_PCOD9474318
_publ_section_title
;
Structure prediction by ZEFSAII (Michael W. Deem and Ramdas Pophale) SiO2 
 PCOD9474318
Probable space group: C M C M
;
_chemical_formula_sum "Si O2"
_cell_formula_units_Z 56
_cell_length_a 11.650740
_cell_length_b 24.501586
_cell_length_c 10.724142
_cell_angle_alpha 90.000000
_cell_angle_beta 90.000000
_cell_angle_gamma 90.000000
_cell_volume 3061.330821
_symmetry_space_group_name_H-M "C M C M"
_symmetry_group_IT_number 63
_symmetry_cell_setting 'orthorhombic'
loop_
_space_group_symop_operation_xyz
x,y,z
-x,-y,1/2+z
x,-y,-z
-x,y,1/2-z
-x,-y,-z
x,y,1/2-z
-x,y,z
x,-y,1/2+z
1/2+x,1/2+y,z
1/2-x,1/2-y,1/2+z
1/2+x,1/2-y,-z
1/2-x,1/2+y,1/2-z
1/2-x,1/2-y,-z
1/2+x,1/2+y,1/2-z
1/2-x,1/2+y,z
1/2+x,1/2-y,1/2+z
loop_
_atom_site_type_symbol
_atom_site_label
_atom_site_fract_x
_atom_site_fract_y
_atom_site_fract_z
Si Si1 0.500000 0.141169 0.111013
Si Si2 0.630995 0.407225 0.600871
Si Si3 0.702145 0.000000 0.000000
Si Si4 0.000000 0.442387 0.382599
Si Si5 0.239993 0.295558 0.894103
O O1 0.500000 0.115349 0.250000
O O2 0.613382 0.177917 0.101829
O O3 0.500000 0.097569 0.000782
O O4 0.634789 0.415470 0.750000
O O5 0.500000 0.415125 0.558169
O O6 0.717897 0.450029 0.540364
O O7 0.673181 0.345480 0.578940
O O8 0.613590 0.979148 0.104822
O O9 0.000000 0.413023 0.250000
O O10 0.259550 0.276704 0.750000
O O11 0.250000 0.250000 0.000000
#
# Coordination Sequence:
#
# PCOD9474318 Si02
#       5
#     8  16   8   8  16
#     4  10  21  41  64  85 118 161 197 241 304 356
#     4  10  21  38  60  85 117 158 199 239 293 358
#     4  11  21  38  58  84 125 157 194 244 304 353
#     4  11  23  35  60  94 120 154 201 248 292 350
#     4  10  22  40  62  87 116 154 197 243 295 350
#
# _framework density 18.292698000000001
#
# number of rings (size 3 to 8) (size 9 to 14) (size 15 to 20)
#    0.000    1.714    2.857    1.286    2.000    3.429 
#    0.000    0.000    0.000    3.429    0.000    0.000 
#    0.000    0.000    0.000    0.000    0.000    0.000 
#
# Total GULP energy -156271.908383 kJ/mol
# GULP energy per Si atom -5581.139585 kJ/mol
# Density = 1.825106 g / cm^3
# Si number density = 18.292698 Si / 1000 Ang^3
#
#
#
# Elastic Constant Matrix: (Units=GPa)
#
#
# Indices 1 2 3 4 5 6 
#
# 1 143.6495 50.3074 45.0535 0.0000 0.0000 0.0000
# 2 50.3074 99.7601 80.3924 0.0000 0.0000 0.0000
# 3 45.0535 80.3924 134.2579 0.0000 0.0000 0.0000
# 4 0.0000 0.0000 0.0000 30.7585 0.0000 0.0000
# 5 0.0000 0.0000 0.0000 0.0000 2.6578 0.0000
# 6 0.0000 0.0000 0.0000 0.0000 0.0000 2.8084
#
#
#
# Elastic Compliance Matrix: (Units=1/GPa)
#
#
# Indices 1 2 3 4 5 6 
#
# 1 0.008476 -0.003830 -0.000551 0.000000 0.000000 0.000000
# 2 -0.003830 0.021103 -0.011351 0.000000 0.000000 0.000000
# 3 -0.000551 -0.011351 0.014430 0.000000 0.000000 0.000000
# 4 0.000000 0.000000 0.000000 0.032511 0.000000 0.000000
# 5 0.000000 0.000000 0.000000 0.000000 0.376251 0.000000
# 6 0.000000 0.000000 0.000000 0.000000 0.000000 0.356079
#
#
# Mechanical properties :
#
#
# Convention : Reuss Voigt Hill
#
# Bulk Modulus (GPa) = 79.71504 81.01931 80.36718
# Shear Modulus (GPa) = 5.92070 20.70587 13.31328
#
# Velocity S-wave (km/s) = 1.80102 3.36805 2.70069
# Velocity P-wave (km/s) = 6.92799 7.71438 7.33174
#
# Compressibility (1/GPa) = 0.01254468
#
# Stress axis : x y z
#
# Youngs Moduli (GPa) = 117.98713 47.38724 69.30091
#
# Poissons Ratio (x) = 0.18151 0.03815
# Poissons Ratio (y) = 0.45194 0.78662
# Poissons Ratio (z) = 0.06496 0.53788
#
# Static dielectric constant tensor:
#      x y z
#    x 1.630440 0.000000 0.000000 
#    y 0.000000 1.609850 0.000000 
#    z 0.000000 0.000000 1.602310 
# 
# From -- ./inp_files/2882.got.cif
#   From: 2010.05.17/outbox.cif.g08.bks.cpg/sg63_2_cif.got.tgz:2882.got - 2010.06.03 15:47:04.
