data_PCOD9474565
_publ_section_title
;
Structure prediction by ZEFSAII (Michael W. Deem and Ramdas Pophale) SiO2 
 PCOD9474565
Probable space group: C M C M
;
_chemical_formula_sum "Si O2"
_cell_formula_units_Z 112
_cell_length_a 29.404746
_cell_length_b 5.213588
_cell_length_c 32.104418
_cell_angle_alpha 90.000000
_cell_angle_beta 90.000000
_cell_angle_gamma 90.000000
_cell_volume 4921.743110
_symmetry_space_group_name_H-M "C M C M"
_symmetry_group_IT_number 63
_symmetry_cell_setting 'orthorhombic'
loop_
_space_group_symop_operation_xyz
x,y,z
-x,-y,1/2+z
x,-y,-z
-x,y,1/2-z
-x,-y,-z
x,y,1/2-z
-x,y,z
x,-y,1/2+z
1/2+x,1/2+y,z
1/2-x,1/2-y,1/2+z
1/2+x,1/2-y,-z
1/2-x,1/2+y,1/2-z
1/2-x,1/2-y,-z
1/2+x,1/2+y,1/2-z
1/2-x,1/2+y,z
1/2+x,1/2-y,1/2+z
loop_
_atom_site_type_symbol
_atom_site_label
_atom_site_fract_x
_atom_site_fract_y
_atom_site_fract_z
Si Si1 0.915407 0.523353 0.045231
Si Si2 0.628588 0.377431 0.342238
Si Si3 0.767302 0.798342 0.452608
Si Si4 0.636245 0.538372 0.066818
Si Si5 0.547977 0.975549 0.629605
Si Si6 0.450287 0.628007 0.204370
Si Si7 0.779213 0.700130 0.299871
O O1 0.899881 0.816927 0.053444
O O2 0.946741 0.426933 0.082842
O O3 0.874356 0.314898 0.047092
O O4 0.936531 0.500000 0.000000
O O5 0.637621 0.557608 0.382570
O O6 0.596873 0.484950 0.305034
O O7 0.674992 0.262547 0.324836
O O8 0.593982 0.172986 0.361515
O O9 0.750000 0.750000 0.500000
O O10 0.764708 0.517014 0.432671
O O11 0.816531 0.921801 0.449174
O O12 0.500000 0.826732 0.630975
O O13 0.546436 0.183982 0.665536
O O14 0.446735 0.753716 0.250000
O O15 0.500000 0.488019 0.205413
O O16 0.788574 0.711116 0.250000
O O17 0.757568 0.423256 0.309048
#
# Coordination Sequence:
#
# PCOD9474565 Si02
#       7
#    16  16  16  16  16  16  16
#     4  11  24  41  67  94 131 182 225 279 335 417
#     4  11  23  41  68  96 139 181 230 282 353 416
#     4  10  22  36  56  86 122 168 214 279 346 398
#     4  11  24  40  63  94 132 172 229 281 344 411
#     4  10  23  44  67 102 143 179 230 295 354 423
#     4  10  21  39  67 102 138 176 221 281 355 428
#     4  10  24  43  66  98 136 181 233 288 338 404
#
# _framework density 22.756163999999998
#
# number of rings (size 3 to 8) (size 9 to 14) (size 15 to 20)
#    0.000    1.571    1.429    2.143    8.000    2.571 
#    0.000    1.429    0.000    2.571    0.000    0.000 
#    0.000    0.000    0.000    0.000    0.000    0.000 
#
# Total GULP energy -312332.902519 kJ/mol
# GULP energy per Si atom -5577.373259 kJ/mol
# Density = 2.270437 g / cm^3
# Si number density = 22.756164 Si / 1000 Ang^3
#
#
#
# Elastic Constant Matrix: (Units=GPa)
#
#
# Indices 1 2 3 4 5 6 
#
# 1 89.5997 -8.1641 31.5553 0.0000 0.0000 0.0000
# 2 -8.1641 72.0614 3.2762 0.0000 0.0000 0.0000
# 3 31.5553 3.2762 141.4292 0.0000 0.0000 0.0000
# 4 0.0000 0.0000 0.0000 20.7152 0.0000 0.0000
# 5 0.0000 0.0000 0.0000 0.0000 19.3875 0.0000
# 6 0.0000 0.0000 0.0000 0.0000 0.0000 29.7731
#
#
#
# Elastic Compliance Matrix: (Units=1/GPa)
#
#
# Indices 1 2 3 4 5 6 
#
# 1 0.012276 0.001517 -0.002774 0.000000 0.000000 0.000000
# 2 0.001517 0.014079 -0.000665 0.000000 0.000000 0.000000
# 3 -0.002774 -0.000665 0.007705 0.000000 0.000000 0.000000
# 4 0.000000 0.000000 0.000000 0.048274 0.000000 0.000000
# 5 0.000000 0.000000 0.000000 0.000000 0.051580 0.000000
# 6 0.000000 0.000000 0.000000 0.000000 0.000000 0.033587
#
#
# Mechanical properties :
#
#
# Convention : Reuss Voigt Hill
#
# Bulk Modulus (GPa) = 33.09448 39.60278 36.34863
# Shear Modulus (GPa) = 27.56087 32.40335 29.98211
#
# Velocity S-wave (km/s) = 3.48392 3.77760 3.63373
# Velocity P-wave (km/s) = 5.54601 6.03887 5.79768
#
# Compressibility (1/GPa) = 0.03021652
#
# Stress axis : x y z
#
# Youngs Moduli (GPa) = 81.46003 71.02715 129.78548
#
# Poissons Ratio (x) = -0.10774 0.36004
# Poissons Ratio (y) = -0.12357 0.08625
# Poissons Ratio (z) = 0.22598 0.04720
#
# Static dielectric constant tensor:
#      x y z
#    x 1.893240 0.000000 0.000000 
#    y 0.000000 1.925240 0.000000 
#    z 0.000000 0.000000 1.936330 
# 
# From -- ./inp_files/74520.got.cif
#   From: 2010.05.17/outbox.cif.g08.bks.cpg/sg63_38_cif.got.tgz:74520.got - 2010.06.03 15:47:04.
