data_PCOD9474138
_publ_section_title
;
Structure prediction by ZEFSAII (Michael W. Deem and Ramdas Pophale) SiO2 
 PCOD9474138
Probable space group: C M C M
;
_chemical_formula_sum "Si O2"
_cell_formula_units_Z 64
_cell_length_a 10.704147
_cell_length_b 19.679053
_cell_length_c 14.678681
_cell_angle_alpha 90.000000
_cell_angle_beta 90.000000
_cell_angle_gamma 90.000000
_cell_volume 3092.027106
_symmetry_space_group_name_H-M "C M C M"
_symmetry_group_IT_number 63
_symmetry_cell_setting 'orthorhombic'
loop_
_space_group_symop_operation_xyz
x,y,z
-x,-y,1/2+z
x,-y,-z
-x,y,1/2-z
-x,-y,-z
x,y,1/2-z
-x,y,z
x,-y,1/2+z
1/2+x,1/2+y,z
1/2-x,1/2-y,1/2+z
1/2+x,1/2-y,-z
1/2-x,1/2+y,1/2-z
1/2-x,1/2-y,-z
1/2+x,1/2+y,1/2-z
1/2-x,1/2+y,z
1/2+x,1/2-y,1/2+z
loop_
_atom_site_type_symbol
_atom_site_label
_atom_site_fract_x
_atom_site_fract_y
_atom_site_fract_z
Si Si1 0.639742 0.480865 0.356232
Si Si2 0.223457 0.383694 0.647495
Si Si3 0.139939 0.600665 0.548028
Si Si4 0.144822 0.740510 0.854547
O O1 0.648743 0.459613 0.250000
O O2 0.500000 0.464743 0.389397
O O3 0.664104 0.561698 0.357402
O O4 0.750623 0.445843 0.411924
O O5 0.169789 0.390051 0.750000
O O6 0.140048 0.401571 0.561091
O O7 0.272172 0.307202 0.634923
O O8 0.170074 0.677427 0.580018
O O9 0.000000 0.583518 0.582129
O O10 0.159381 0.716279 0.750000
O O11 0.000000 0.760368 0.866952
#
# Coordination Sequence:
#
# PCOD9474138 Si02
#       4
#    16  16  16  16
#     4  10  22  40  62  88 116 149 193 244 294 344
#     4  10  21  37  58  84 116 155 199 244 286 334
#     4  11  23  38  59  88 121 157 193 234 291 352
#     4   9  18  35  59  85 113 148 193 243 294 347
#
# _framework density 20.698395000000001
#
# number of rings (size 3 to 8) (size 9 to 14) (size 15 to 20)
#    0.000    2.000    0.000    3.000    0.000   10.000 
#    0.000    3.750    0.000    1.500    0.000    0.000 
#    0.000    0.000    0.000    0.000    0.000    0.000 
#
# Total GULP energy -178625.451646 kJ/mol
# GULP energy per Si atom -5582.045364 kJ/mol
# Density = 2.065128 g / cm^3
# Si number density = 20.698395 Si / 1000 Ang^3
#
#
#
# Elastic Constant Matrix: (Units=GPa)
#
#
# Indices 1 2 3 4 5 6 
#
# 1 113.3749 53.6254 54.4351 0.0000 0.0000 0.0000
# 2 53.6254 81.5842 36.6117 0.0000 0.0000 0.0000
# 3 54.4351 36.6117 108.1535 0.0000 0.0000 0.0000
# 4 0.0000 0.0000 0.0000 32.2891 0.0000 0.0000
# 5 0.0000 0.0000 0.0000 0.0000 24.0254 0.0000
# 6 0.0000 0.0000 0.0000 0.0000 0.0000 13.6242
#
#
#
# Elastic Compliance Matrix: (Units=1/GPa)
#
#
# Indices 1 2 3 4 5 6 
#
# 1 0.014691 -0.007473 -0.004864 0.000000 0.000000 0.000000
# 2 -0.007473 0.018255 -0.002418 0.000000 0.000000 0.000000
# 3 -0.004864 -0.002418 0.012513 0.000000 0.000000 0.000000
# 4 0.000000 0.000000 0.000000 0.030970 0.000000 0.000000
# 5 0.000000 0.000000 0.000000 0.000000 0.041623 0.000000
# 6 0.000000 0.000000 0.000000 0.000000 0.000000 0.073399
#
#
# Mechanical properties :
#
#
# Convention : Reuss Voigt Hill
#
# Bulk Modulus (GPa) = 62.70758 65.82857 64.26807
# Shear Modulus (GPa) = 22.09689 24.55044 23.32366
#
# Velocity S-wave (km/s) = 3.27091 3.44772 3.36048
# Velocity P-wave (km/s) = 6.68032 6.90810 6.79517
#
# Compressibility (1/GPa) = 0.01594704
#
# Stress axis : x y z
#
# Youngs Moduli (GPa) = 68.07108 54.78069 79.91788
#
# Poissons Ratio (x) = 0.40939 0.38873
# Poissons Ratio (y) = 0.50871 0.19325
# Poissons Ratio (z) = 0.33111 0.13246
#
# Static dielectric constant tensor:
#      x y z
#    x 1.712430 0.000000 0.000000 
#    y 0.000000 1.717290 0.000000 
#    z 0.000000 0.000000 1.772980 
# 
# From -- ./inp_files/29111.got.cif
#   From: 2010.05.17/outbox.cif.g08.bks.cpg/sg63_15_cif.got.tgz:29111.got - 2010.06.03 15:47:04.
