data_PCOD9474671
_publ_section_title
;
Structure prediction by ZEFSAII (Michael W. Deem and Ramdas Pophale) SiO2 
 PCOD9474671
Probable space group: C M C M
;
_chemical_formula_sum "Si O2"
_cell_formula_units_Z 72
_cell_length_a 27.496504
_cell_length_b 9.436765
_cell_length_c 14.107340
_cell_angle_alpha 90.000000
_cell_angle_beta 90.000000
_cell_angle_gamma 90.000000
_cell_volume 3660.545025
_symmetry_space_group_name_H-M "C M C M"
_symmetry_group_IT_number 63
_symmetry_cell_setting 'orthorhombic'
loop_
_space_group_symop_operation_xyz
x,y,z
-x,-y,1/2+z
x,-y,-z
-x,y,1/2-z
-x,-y,-z
x,y,1/2-z
-x,y,z
x,-y,1/2+z
1/2+x,1/2+y,z
1/2-x,1/2-y,1/2+z
1/2+x,1/2-y,-z
1/2-x,1/2+y,1/2-z
1/2-x,1/2-y,-z
1/2+x,1/2+y,1/2-z
1/2-x,1/2+y,z
1/2+x,1/2-y,1/2+z
loop_
_atom_site_type_symbol
_atom_site_label
_atom_site_fract_x
_atom_site_fract_y
_atom_site_fract_z
Si Si1 0.086442 0.988764 0.137367
Si Si2 0.128356 0.500000 0.000000
Si Si3 0.555102 0.741464 0.489913
Si Si4 0.197890 0.946498 0.364447
Si Si5 0.707901 0.878755 0.635291
O O1 0.081195 0.978920 0.250000
O O2 0.143783 0.996904 0.111841
O O3 0.061350 0.127089 0.094085
O O4 0.065673 0.850735 0.084499
O O5 0.094021 0.634204 0.980833
O O6 0.163789 0.462611 0.912718
O O7 0.500000 0.795316 0.491643
O O8 0.199869 0.942580 0.250000
O O9 0.205606 0.784862 0.396145
O O10 0.241174 0.049977 0.393670
O O11 0.703962 0.883744 0.750000
#
# Coordination Sequence:
#
# PCOD9474671 Si02
#       5
#    16   8  16  16  16
#     4  10  21  42  68  91 119 157 202 252 306 365
#     4  12  25  40  62  88 126 168 201 246 306 368
#     4  11  25  42  62  90 121 157 208 261 305 353
#     4   9  19  37  61  89 123 157 196 243 295 356
#     4  10  22  39  59  89 125 163 200 243 298 362
#
# _framework density 19.669203
#
# number of rings (size 3 to 8) (size 9 to 14) (size 15 to 20)
#    0.000    1.778    2.222    1.667    3.111    5.333 
#    0.000    0.000    0.000    4.000    0.000    0.000 
#    0.000    0.000    0.000    0.000    0.000    0.000 
#
# Total GULP energy -201230.381988 kJ/mol
# GULP energy per Si atom -5589.732833 kJ/mol
# Density = 1.962443 g / cm^3
# Si number density = 19.669203 Si / 1000 Ang^3
#
#
#
# Elastic Constant Matrix: (Units=GPa)
#
#
# Indices 1 2 3 4 5 6 
#
# 1 125.9942 14.7897 15.1141 0.0000 0.0000 0.0000
# 2 14.7897 53.7072 18.1657 0.0000 0.0000 0.0000
# 3 15.1141 18.1657 94.8474 0.0000 0.0000 0.0000
# 4 0.0000 0.0000 0.0000 12.8273 0.0000 0.0000
# 5 0.0000 0.0000 0.0000 0.0000 19.6947 0.0000
# 6 0.0000 0.0000 0.0000 0.0000 0.0000 -0.2991
#
#
#
# Elastic Compliance Matrix: (Units=1/GPa)
#
#
# Indices 1 2 3 4 5 6 
#
# 1 0.008280 -0.001961 -0.000944 0.000000 0.000000 0.000000
# 2 -0.001961 0.020374 -0.003590 0.000000 0.000000 0.000000
# 3 -0.000944 -0.003590 0.011381 0.000000 0.000000 0.000000
# 4 0.000000 0.000000 0.000000 0.077959 0.000000 0.000000
# 5 0.000000 0.000000 0.000000 0.000000 0.050775 0.000000
# 6 0.000000 0.000000 0.000000 0.000000 0.000000 -3.343816
#
#
# Mechanical properties :
#
#
# Convention : Reuss Voigt Hill
#
# Bulk Modulus (GPa) = 36.97378 41.18753 39.08065
# Shear Modulus (GPa) = -1.58577 21.54321 9.97872
#
# Velocity S-wave (km/s) = -0.89887 3.31309 2.25484
# Velocity P-wave (km/s) = 4.21442 5.96833 5.16635
#
# Compressibility (1/GPa) = 0.02704620
#
# Stress axis : x y z
#
# Youngs Moduli (GPa) = 120.76880 49.08307 87.86445
#
# Poissons Ratio (x) = 0.09625 0.08294
# Poissons Ratio (y) = 0.23682 0.31540
# Poissons Ratio (z) = 0.11399 0.17619
#
# Static dielectric constant tensor:
#      x y z
#    x 1.677610 0.000000 0.000000 
#    y 0.000000 1.655270 0.000000 
#    z 0.000000 0.000000 1.697550 
# 
# From -- ./inp_files/37534.got.cif
#   From: 2010.05.17/outbox.cif.g08.bks.cpg/sg63_19_cif.got.tgz:37534.got - 2010.06.03 15:47:04.
