data_PCOD9474888
_publ_section_title
;
Structure prediction by ZEFSAII (Michael W. Deem and Ramdas Pophale) SiO2 
 PCOD9474888
Probable space group: C M C M
;
_chemical_formula_sum "Si O2"
_cell_formula_units_Z 68
_cell_length_a 16.311542
_cell_length_b 23.444536
_cell_length_c 7.835022
_cell_angle_alpha 90.000000
_cell_angle_beta 90.000000
_cell_angle_gamma 90.000000
_cell_volume 2996.241954
_symmetry_space_group_name_H-M "C M C M"
_symmetry_group_IT_number 63
_symmetry_cell_setting 'orthorhombic'
loop_
_space_group_symop_operation_xyz
x,y,z
-x,-y,1/2+z
x,-y,-z
-x,y,1/2-z
-x,-y,-z
x,y,1/2-z
-x,y,z
x,-y,1/2+z
1/2+x,1/2+y,z
1/2-x,1/2-y,1/2+z
1/2+x,1/2-y,-z
1/2-x,1/2+y,1/2-z
1/2-x,1/2-y,-z
1/2+x,1/2+y,1/2-z
1/2-x,1/2+y,z
1/2+x,1/2-y,1/2+z
loop_
_atom_site_type_symbol
_atom_site_label
_atom_site_fract_x
_atom_site_fract_y
_atom_site_fract_z
Si Si1 0.626958 0.917424 0.946965
Si Si2 0.500000 0.051966 0.750000
Si Si3 0.406092 0.788571 0.546099
Si Si4 0.406092 0.334000 0.951069
Si Si5 0.303330 0.557905 0.945805
O O1 0.594307 0.923142 0.750000
O O2 0.632704 0.849631 0.990636
O O3 0.571080 0.943755 0.096019
O O4 0.719290 0.939220 0.949506
O O5 0.408481 0.783318 0.750000
O O6 0.500000 0.792853 0.480050
O O7 0.370141 0.729463 0.478711
O O8 0.408860 0.344195 0.750000
O O9 0.500000 0.332835 0.017860
O O10 0.355358 0.385144 0.029542
O O11 0.280029 0.553919 0.750000
O O12 0.349155 0.500000 0.000000
#
# Coordination Sequence:
#
# PCOD9474888 Si02
#       5
#    16   4  16  16  16
#     4  11  23  41  68  99 137 173 221 268 325 391
#     4  12  22  40  70 102 128 184 218 264 326 398
#     4   9  18  34  60  93 133 170 208 264 320 381
#     4  10  22  39  65  98 130 170 219 266 324 395
#     4  12  26  46  68  90 128 172 218 279 333 384
#
# _framework density 22.695097000000001
#
# number of rings (size 3 to 8) (size 9 to 14) (size 15 to 20)
#    0.000    1.412    2.353    3.176    1.647    2.824 
#    0.000    0.588    0.000    0.000    0.000    0.000 
#    0.000    0.000    0.000    0.000    0.000    0.000 
#
# Total GULP energy -189569.019975 kJ/mol
# GULP energy per Si atom -5575.559411 kJ/mol
# Density = 2.264344 g / cm^3
# Si number density = 22.695097 Si / 1000 Ang^3
#
#
#
# Elastic Constant Matrix: (Units=GPa)
#
#
# Indices 1 2 3 4 5 6 
#
# 1 46.7592 30.1679 23.1458 0.0000 0.0000 0.0000
# 2 30.1679 155.2715 28.9527 0.0000 0.0000 0.0000
# 3 23.1458 28.9527 130.2732 0.0000 0.0000 0.0000
# 4 0.0000 0.0000 0.0000 33.2183 0.0000 0.0000
# 5 0.0000 0.0000 0.0000 0.0000 28.8187 0.0000
# 6 0.0000 0.0000 0.0000 0.0000 0.0000 50.0491
#
#
#
# Elastic Compliance Matrix: (Units=1/GPa)
#
#
# Indices 1 2 3 4 5 6 
#
# 1 0.026015 -0.004374 -0.003650 0.000000 0.000000 0.000000
# 2 -0.004374 0.007454 -0.000880 0.000000 0.000000 0.000000
# 3 -0.003650 -0.000880 0.008520 0.000000 0.000000 0.000000
# 4 0.000000 0.000000 0.000000 0.030104 0.000000 0.000000
# 5 0.000000 0.000000 0.000000 0.000000 0.034700 0.000000
# 6 0.000000 0.000000 0.000000 0.000000 0.000000 0.019980
#
#
# Mechanical properties :
#
#
# Convention : Reuss Voigt Hill
#
# Bulk Modulus (GPa) = 41.35255 55.20405 48.27830
# Shear Modulus (GPa) = 32.75667 39.08639 35.92153
#
# Velocity S-wave (km/s) = 3.80325 4.15449 3.98274
# Velocity P-wave (km/s) = 6.12754 6.88404 6.51678
#
# Compressibility (1/GPa) = 0.02418230
#
# Stress axis : x y z
#
# Youngs Moduli (GPa) = 38.43962 134.15368 117.36878
#
# Poissons Ratio (x) = 0.58677 0.42840
# Poissons Ratio (y) = 0.16813 0.10323
# Poissons Ratio (z) = 0.14030 0.11799
#
# Static dielectric constant tensor:
#      x y z
#    x 1.821710 0.000000 0.000000 
#    y 0.000000 1.906450 0.000000 
#    z 0.000000 0.000000 1.934230 
# 
# From -- ./inp_files/5860.got.cif
#   From: 2010.05.17/outbox.cif.g08.bks.cpg/sg63_3_cif.got.tgz:5860.got - 2010.06.03 15:47:04.
