data_PCOD9474145
_publ_section_title
;
Structure prediction by ZEFSAII (Michael W. Deem and Ramdas Pophale) SiO2 
 PCOD9474145
Probable space group: C M C M
;
_chemical_formula_sum "Si O2"
_cell_formula_units_Z 64
_cell_length_a 15.376667
_cell_length_b 11.833998
_cell_length_c 13.013947
_cell_angle_alpha 90.000000
_cell_angle_beta 90.000000
_cell_angle_gamma 90.000000
_cell_volume 2368.114705
_symmetry_space_group_name_H-M "C M C M"
_symmetry_group_IT_number 63
_symmetry_cell_setting 'orthorhombic'
loop_
_space_group_symop_operation_xyz
x,y,z
-x,-y,1/2+z
x,-y,-z
-x,y,1/2-z
-x,-y,-z
x,y,1/2-z
-x,y,z
x,-y,1/2+z
1/2+x,1/2+y,z
1/2-x,1/2-y,1/2+z
1/2+x,1/2-y,-z
1/2-x,1/2+y,1/2-z
1/2-x,1/2-y,-z
1/2+x,1/2+y,1/2-z
1/2-x,1/2+y,z
1/2+x,1/2-y,1/2+z
loop_
_atom_site_type_symbol
_atom_site_label
_atom_site_fract_x
_atom_site_fract_y
_atom_site_fract_z
Si Si1 0.403864 0.318206 0.140436
Si Si2 0.336929 0.872365 0.366720
Si Si3 0.095341 0.870191 0.590704
Si Si4 0.789286 0.391471 0.902744
O O1 0.397444 0.380107 0.250000
O O2 0.500000 0.263773 0.138552
O O3 0.331184 0.222549 0.137681
O O4 0.401789 0.384137 0.033304
O O5 0.304944 0.856303 0.250000
O O6 0.400358 0.766208 0.386255
O O7 0.283987 0.873387 0.474085
O O8 0.354222 0.007411 0.371424
O O9 0.189598 0.910510 0.631396
O O10 0.000000 0.910081 0.626782
#
# Coordination Sequence:
#
# PCOD9474145 Si02
#       4
#    16  16  16  16
#     4   9  17  31  55  86 117 151 193 241 292 347
#     4  10  21  37  58  85 117 155 200 246 293 348
#     4  10  22  39  60  89 122 156 197 243 294 353
#     4  10  21  37  59  87 121 159 196 243 299 350
#
# _framework density 27.025717
#
# number of rings (size 3 to 8) (size 9 to 14) (size 15 to 20)
#    0.000    2.250    0.000    3.750    0.000    6.500 
#    0.000    7.500    0.000    3.000    0.000    0.000 
#    0.000    0.000    0.000    0.000    0.000    0.000 
#
# Total GULP energy -178360.023821 kJ/mol
# GULP energy per Si atom -5573.750744 kJ/mol
# Density = 2.696421 g / cm^3
# Si number density = 27.025717 Si / 1000 Ang^3
#
#
#
# Elastic Constant Matrix: (Units=GPa)
#
#
# Indices 1 2 3 4 5 6 
#
# 1 128.7604 16.4464 34.0007 0.0000 0.0000 0.0000
# 2 16.4464 124.8500 41.1270 0.0000 0.0000 0.0000
# 3 34.0007 41.1270 229.1401 0.0000 0.0000 0.0000
# 4 0.0000 0.0000 0.0000 14.7160 0.0000 0.0000
# 5 0.0000 0.0000 0.0000 0.0000 9.4976 0.0000
# 6 0.0000 0.0000 0.0000 0.0000 0.0000 24.7793
#
#
#
# Elastic Compliance Matrix: (Units=1/GPa)
#
#
# Indices 1 2 3 4 5 6 
#
# 1 0.008143 -0.000717 -0.001080 0.000000 0.000000 0.000000
# 2 -0.000717 0.008576 -0.001433 0.000000 0.000000 0.000000
# 3 -0.001080 -0.001433 0.004782 0.000000 0.000000 0.000000
# 4 0.000000 0.000000 0.000000 0.067953 0.000000 0.000000
# 5 0.000000 0.000000 0.000000 0.000000 0.105290 0.000000
# 6 0.000000 0.000000 0.000000 0.000000 0.000000 0.040356
#
#
# Mechanical properties :
#
#
# Convention : Reuss Voigt Hill
#
# Bulk Modulus (GPa) = 66.48233 73.98875 70.23554
# Shear Modulus (GPa) = 20.27802 35.87702 28.07752
#
# Velocity S-wave (km/s) = 2.74217 3.64746 3.22672
# Velocity P-wave (km/s) = 5.88889 6.72125 6.31879
#
# Compressibility (1/GPa) = 0.01504159
#
# Stress axis : x y z
#
# Youngs Moduli (GPa) = 122.80445 116.60350 209.13874
#
# Poissons Ratio (x) = 0.08361 0.22579
# Poissons Ratio (y) = 0.08806 0.29967
# Poissons Ratio (z) = 0.13258 0.16708
#
# Static dielectric constant tensor:
#      x y z
#    x 2.069750 0.000000 0.000000 
#    y 0.000000 2.190630 0.000000 
#    z 0.000000 0.000000 2.121510 
# 
# From -- ./inp_files/31109.got.cif
#   From: 2010.05.17/outbox.cif.g08.bks.cpg/sg63_16_cif.got.tgz:31109.got - 2010.06.03 15:47:04.
