data_PCOD9474161
_publ_section_title
;
Structure prediction by ZEFSAII (Michael W. Deem and Ramdas Pophale) SiO2 
 PCOD9474161
Probable space group: C M C M
;
_chemical_formula_sum "Si O2"
_cell_formula_units_Z 84
_cell_length_a 12.323008
_cell_length_b 34.384674
_cell_length_c 11.266706
_cell_angle_alpha 90.000000
_cell_angle_beta 90.000000
_cell_angle_gamma 90.000000
_cell_volume 4773.958104
_symmetry_space_group_name_H-M "C M C M"
_symmetry_group_IT_number 63
_symmetry_cell_setting 'orthorhombic'
loop_
_space_group_symop_operation_xyz
x,y,z
-x,-y,1/2+z
x,-y,-z
-x,y,1/2-z
-x,-y,-z
x,y,1/2-z
-x,y,z
x,-y,1/2+z
1/2+x,1/2+y,z
1/2-x,1/2-y,1/2+z
1/2+x,1/2-y,-z
1/2-x,1/2+y,1/2-z
1/2-x,1/2-y,-z
1/2+x,1/2+y,1/2-z
1/2-x,1/2+y,z
1/2+x,1/2-y,1/2+z
loop_
_atom_site_type_symbol
_atom_site_label
_atom_site_fract_x
_atom_site_fract_y
_atom_site_fract_z
Si Si1 0.869356 0.888409 0.109498
Si Si2 0.228316 0.816126 0.966117
Si Si3 0.000000 0.050342 0.250000
Si Si4 0.881975 0.740272 0.889238
Si Si5 0.126309 0.441151 0.750000
Si Si6 0.195442 0.957587 0.942775
Si Si7 0.126513 0.347527 0.750000
O O1 0.843613 0.886214 0.250000
O O2 0.000000 0.891862 0.098980
O O3 0.828947 0.850419 0.038629
O O4 0.813955 0.925226 0.045671
O O5 0.144955 0.785568 0.908644
O O6 0.307827 0.832670 0.864890
O O7 0.296615 0.788477 0.052723
O O8 0.904347 0.049751 0.353145
O O9 0.882576 0.732998 0.750000
O O10 0.000000 0.731979 0.941518
O O11 0.194410 0.454418 0.634442
O O12 0.128433 0.394216 0.750000
O O13 0.000000 0.453573 0.750000
O O14 0.185487 0.000000 0.000000
O O15 0.000000 0.334879 0.750000
#
# Coordination Sequence:
#
# PCOD9474161 Si02
#       7
#    16  16   4  16   8  16   8
#     4  11  24  39  59  89 127 161 196 247 309 373
#     4  11  21  39  58  86 120 157 200 248 301 365
#     4  10  22  38  64 100 124 162 200 254 308 370
#     4  10  21  37  59  85 115 155 199 248 298 358
#     4  10  23  43  65  89 121 162 214 261 303 358
#     4  11  23  39  65  94 127 164 204 255 307 367
#     4  11  21  37  62  88 114 156 203 258 307 359
#
# _framework density 17.595462999999999
#
# number of rings (size 3 to 8) (size 9 to 14) (size 15 to 20)
#    0.000    1.333    3.810    2.000    2.667    0.381 
#    0.000    0.000    0.000    1.143    0.000    0.000 
#    0.000    0.000    0.000    0.000    0.000    0.000 
#
# Total GULP energy -233856.080852 kJ/mol
# GULP energy per Si atom -5568.001925 kJ/mol
# Density = 1.755542 g / cm^3
# Si number density = 17.595463 Si / 1000 Ang^3
#
#
#
# Elastic Constant Matrix: (Units=GPa)
#
#
# Indices 1 2 3 4 5 6 
#
# 1 83.4767 -7.8180 29.2415 0.0000 0.0000 0.0000
# 2 -7.8180 63.8076 23.8021 0.0000 0.0000 0.0000
# 3 29.2415 23.8021 111.1857 0.0000 0.0000 0.0000
# 4 0.0000 0.0000 0.0000 0.3062 0.0000 0.0000
# 5 0.0000 0.0000 0.0000 0.0000 42.4561 0.0000
# 6 0.0000 0.0000 0.0000 0.0000 0.0000 13.2848
#
#
#
# Elastic Compliance Matrix: (Units=1/GPa)
#
#
# Indices 1 2 3 4 5 6 
#
# 1 0.013810 0.003311 -0.004341 0.000000 0.000000 0.000000
# 2 0.003311 0.017826 -0.004687 0.000000 0.000000 0.000000
# 3 -0.004341 -0.004687 0.011139 0.000000 0.000000 0.000000
# 4 0.000000 0.000000 0.000000 3.266300 0.000000 0.000000
# 5 0.000000 0.000000 0.000000 0.000000 0.023554 0.000000
# 6 0.000000 0.000000 0.000000 0.000000 0.000000 0.075274
#
#
# Mechanical properties :
#
#
# Convention : Reuss Voigt Hill
#
# Bulk Modulus (GPa) = 31.90586 38.76902 35.33744
# Shear Modulus (GPa) = 1.45782 25.42572 13.44177
#
# Velocity S-wave (km/s) = 0.91122 3.80546 2.76693
# Velocity P-wave (km/s) = 4.39084 6.43351 5.50770
#
# Compressibility (1/GPa) = 0.03134220
#
# Stress axis : x y z
#
# Youngs Moduli (GPa) = 72.41069 56.09708 89.77480
#
# Poissons Ratio (x) = -0.18576 0.38970
# Poissons Ratio (y) = -0.23978 0.42078
# Poissons Ratio (z) = 0.31433 0.26293
#
# Static dielectric constant tensor:
#      x y z
#    x 1.604320 0.000000 0.000000 
#    y 0.000000 1.577640 0.000000 
#    z 0.000000 0.000000 1.583750 
# 
# From -- ./inp_files/18040.got.cif
#   From: 2010.05.17/outbox.cif.g08.bks.cpg/sg63_10_cif.got.tgz:18040.got - 2010.06.03 15:47:04.
