data_PCOD9474011
_publ_section_title
;
Structure prediction by ZEFSAII (Michael W. Deem and Ramdas Pophale) SiO2 
 PCOD9474011
Probable space group: C M C M
;
_chemical_formula_sum "Si O2"
_cell_formula_units_Z 116
_cell_length_a 24.982045
_cell_length_b 29.760815
_cell_length_c 8.040924
_cell_angle_alpha 90.000000
_cell_angle_beta 90.000000
_cell_angle_gamma 90.000000
_cell_volume 5978.314578
_symmetry_space_group_name_H-M "C M C M"
_symmetry_group_IT_number 63
_symmetry_cell_setting 'orthorhombic'
loop_
_space_group_symop_operation_xyz
x,y,z
-x,-y,1/2+z
x,-y,-z
-x,y,1/2-z
-x,-y,-z
x,y,1/2-z
-x,y,z
x,-y,1/2+z
1/2+x,1/2+y,z
1/2-x,1/2-y,1/2+z
1/2+x,1/2-y,-z
1/2-x,1/2+y,1/2-z
1/2-x,1/2-y,-z
1/2+x,1/2+y,1/2-z
1/2-x,1/2+y,z
1/2+x,1/2-y,1/2+z
loop_
_atom_site_type_symbol
_atom_site_label
_atom_site_fract_x
_atom_site_fract_y
_atom_site_fract_z
Si Si1 0.919512 0.813622 0.453072
Si Si2 0.349640 0.950508 0.946250
Si Si3 0.771205 0.049488 0.052378
Si Si4 0.406682 0.209570 0.057324
Si Si5 0.215583 0.706587 0.549506
Si Si6 0.000000 0.161468 0.250000
Si Si7 0.558198 0.884661 0.443004
Si Si8 0.305862 0.357719 0.447530
O O1 0.930015 0.821683 0.250000
O O2 0.925677 0.760004 0.480744
O O3 0.954360 0.836557 0.597611
O O4 0.858398 0.828875 0.486293
O O5 0.343792 0.951659 0.750000
O O6 0.289508 0.943861 0.017937
O O7 0.391622 0.911773 0.986658
O O8 0.368807 0.000000 0.000000
O O9 0.768745 0.050482 0.250000
O O10 0.807961 0.090583 0.997709
O O11 0.789398 0.000000 0.000000
O O12 0.418327 0.200936 0.250000
O O13 0.342949 0.208219 0.028120
O O14 0.432517 0.168642 0.958754
O O15 0.209644 0.704977 0.750000
O O16 0.250000 0.750000 0.500000
O O17 0.251424 0.664911 0.486438
O O18 0.556614 0.896541 0.250000
O O19 0.500000 0.895922 0.518609
O O20 0.301068 0.355882 0.250000
#
# Coordination Sequence:
#
# PCOD9474011 Si02
#       8
#    16  16  16  16  16   4  16  16
#     4  10  24  42  61  90 123 160 209 258 305 361
#     4  10  21  39  61  85 115 153 195 245 306 365
#     4  10  21  36  60  92 124 156 193 236 296 371
#     4  11  23  39  56  81 119 158 202 252 308 359
#     4  11  21  34  56  84 119 160 199 243 297 365
#     4  12  26  40  68  86 118 168 210 256 306 354
#     4  11  25  40  57  81 109 149 207 261 308 360
#     4  10  21  38  58  87 127 161 197 249 302 358
#
# _framework density 19.403462000000001
#
# number of rings (size 3 to 8) (size 9 to 14) (size 15 to 20)
#    0.000    1.517    1.379    3.103    3.862    6.345 
#    0.000    0.000    0.000    0.000    0.000    0.483 
#    0.000    0.000    0.000    0.000    0.000    0.000 
#
# Total GULP energy -323192.258882 kJ/mol
# GULP energy per Si atom -5572.280326 kJ/mol
# Density = 1.935930 g / cm^3
# Si number density = 19.403462 Si / 1000 Ang^3
#
#
#
# Elastic Constant Matrix: (Units=GPa)
#
#
# Indices 1 2 3 4 5 6 
#
# 1 30.8391 1.7912 6.7344 0.0000 0.0000 0.0000
# 2 1.7912 71.7385 -12.1692 0.0000 0.0000 0.0000
# 3 6.7344 -12.1692 27.1460 0.0000 0.0000 0.0000
# 4 0.0000 0.0000 0.0000 30.3422 0.0000 0.0000
# 5 0.0000 0.0000 0.0000 0.0000 38.8997 0.0000
# 6 0.0000 0.0000 0.0000 0.0000 0.0000 -21.8326
#
#
#
# Elastic Compliance Matrix: (Units=1/GPa)
#
#
# Indices 1 2 3 4 5 6 
#
# 1 0.034699 -0.002518 -0.009737 0.000000 0.000000 0.000000
# 2 -0.002518 0.015270 0.007470 0.000000 0.000000 0.000000
# 3 -0.009737 0.007470 0.042602 0.000000 0.000000 0.000000
# 4 0.000000 0.000000 0.000000 0.032957 0.000000 0.000000
# 5 0.000000 0.000000 0.000000 0.000000 0.025707 0.000000
# 6 0.000000 0.000000 0.000000 0.000000 0.000000 -0.045803
#
#
# Mechanical properties :
#
#
# Convention : Reuss Voigt Hill
#
# Bulk Modulus (GPa) = 12.04818 13.60403 12.82610
# Shear Modulus (GPa) = 35.04606 18.37300 26.70953
#
# Velocity S-wave (km/s) = 4.25452 3.08050 3.71419
# Velocity P-wave (km/s) = 5.50975 4.43610 5.00182
#
# Compressibility (1/GPa) = 0.08300011
#
# Stress axis : x y z
#
# Youngs Moduli (GPa) = 28.81932 65.48987 23.47299
#
# Poissons Ratio (x) = 0.16491 0.22856
# Poissons Ratio (y) = 0.07257 -0.17534
# Poissons Ratio (z) = 0.28061 -0.48920
#
# Static dielectric constant tensor:
#      x y z
#    x 1.697200 0.000000 0.000000 
#    y 0.000000 1.669810 0.000000 
#    z 0.000000 0.000000 1.687140 
# 
# From -- ./inp_files/11189.got.cif
#   From: 2010.05.17/outbox.cif.g08.bks.cpg/sg63_6_cif.got.tgz:11189.got - 2010.06.03 15:47:04.
