data_PCOD9474264
_publ_section_title
;
Structure prediction by ZEFSAII (Michael W. Deem and Ramdas Pophale) SiO2 
 PCOD9474264
Probable space group: C M C M
;
_chemical_formula_sum "Si O2"
_cell_formula_units_Z 96
_cell_length_a 24.363036
_cell_length_b 23.553565
_cell_length_c 9.024522
_cell_angle_alpha 90.000000
_cell_angle_beta 90.000000
_cell_angle_gamma 90.000000
_cell_volume 5178.598783
_symmetry_space_group_name_H-M "C M C M"
_symmetry_group_IT_number 63
_symmetry_cell_setting 'orthorhombic'
loop_
_space_group_symop_operation_xyz
x,y,z
-x,-y,1/2+z
x,-y,-z
-x,y,1/2-z
-x,-y,-z
x,y,1/2-z
-x,y,z
x,-y,1/2+z
1/2+x,1/2+y,z
1/2-x,1/2-y,1/2+z
1/2+x,1/2-y,-z
1/2-x,1/2+y,1/2-z
1/2-x,1/2-y,-z
1/2+x,1/2+y,1/2-z
1/2-x,1/2+y,z
1/2+x,1/2-y,1/2+z
loop_
_atom_site_type_symbol
_atom_site_label
_atom_site_fract_x
_atom_site_fract_y
_atom_site_fract_z
Si Si1 0.221006 0.675828 0.078803
Si Si2 0.060612 0.219574 0.573922
Si Si3 0.392444 0.173714 0.926184
Si Si4 0.170686 0.153956 0.926860
Si Si5 0.433496 0.941003 0.922925
Si Si6 0.729126 0.557895 0.420485
O O1 0.219508 0.694663 0.250000
O O2 0.221062 0.810536 0.000272
O O3 0.223956 0.606340 0.078098
O O4 0.166982 0.691053 0.990312
O O5 0.065576 0.232253 0.750000
O O6 0.067043 0.277702 0.484652
O O7 0.111563 0.179174 0.534890
O O8 0.000000 0.194858 0.548743
O O9 0.391418 0.170965 0.750000
O O10 0.409540 0.113431 0.994101
O O11 0.177285 0.153429 0.750000
O O12 0.180663 0.091142 0.993140
O O13 0.417724 0.940452 0.750000
O O14 0.500000 0.937836 0.930576
O O15 0.416715 0.000000 0.000000
O O16 0.744290 0.500000 0.500000
O O17 0.714413 0.547554 0.250000
#
# Coordination Sequence:
#
# PCOD9474264 Si02
#       6
#    16  16  16  16  16  16
#     4   9  20  36  54  79 111 146 181 223 275 331
#     4  10  22  40  61  83 111 150 191 233 282 336
#     4  12  24  36  55  83 114 148 189 235 281 331
#     4   9  18  35  58  84 113 146 186 232 281 334
#     4  10  21  38  58  78 106 145 188 235 284 333
#     4   9  18  32  55  82 112 148 183 222 274 332
#
# _framework density 18.537834
#
# number of rings (size 3 to 8) (size 9 to 14) (size 15 to 20)
#    1.000    1.167    0.000    3.500    0.000    6.000 
#    0.000    1.667    0.000    0.500    0.000    0.000 
#    0.000    0.000    0.000    0.000    0.000    0.000 
#
# Total GULP energy -267725.113442 kJ/mol
# GULP energy per Si atom -5577.606530 kJ/mol
# Density = 1.849564 g / cm^3
# Si number density = 18.537834 Si / 1000 Ang^3
#
#
#
# Elastic Constant Matrix: (Units=GPa)
#
#
# Indices 1 2 3 4 5 6 
#
# 1 77.4361 -1.5947 30.7274 0.0000 0.0000 0.0000
# 2 -1.5947 33.9653 11.0340 0.0000 0.0000 0.0000
# 3 30.7274 11.0340 91.9373 0.0000 0.0000 0.0000
# 4 0.0000 0.0000 0.0000 27.8485 0.0000 0.0000
# 5 0.0000 0.0000 0.0000 0.0000 21.9512 0.0000
# 6 0.0000 0.0000 0.0000 0.0000 0.0000 23.4270
#
#
#
# Elastic Compliance Matrix: (Units=1/GPa)
#
#
# Indices 1 2 3 4 5 6 
#
# 1 0.015080 0.002441 -0.005333 0.000000 0.000000 0.000000
# 2 0.002441 0.031031 -0.004540 0.000000 0.000000 0.000000
# 3 -0.005333 -0.004540 0.013204 0.000000 0.000000 0.000000
# 4 0.000000 0.000000 0.000000 0.035909 0.000000 0.000000
# 5 0.000000 0.000000 0.000000 0.000000 0.045556 0.000000
# 6 0.000000 0.000000 0.000000 0.000000 0.000000 0.042686
#
#
# Mechanical properties :
#
#
# Convention : Reuss Voigt Hill
#
# Bulk Modulus (GPa) = 22.49672 31.51913 27.00793
# Shear Modulus (GPa) = 23.45791 25.52348 24.49069
#
# Velocity S-wave (km/s) = 3.56112 3.71459 3.63866
# Velocity P-wave (km/s) = 5.39172 5.95291 5.67925
#
# Compressibility (1/GPa) = 0.04445092
#
# Stress axis : x y z
#
# Youngs Moduli (GPa) = 66.31149 32.22556 75.73305
#
# Poissons Ratio (x) = -0.07865 0.40389
# Poissons Ratio (y) = -0.16184 0.34382
# Poissons Ratio (z) = 0.35364 0.14630
#
# Static dielectric constant tensor:
#      x y z
#    x 1.651460 0.000000 0.000000 
#    y 0.000000 1.659410 0.000000 
#    z 0.000000 0.000000 1.619740 
# 
# From -- ./inp_files/12401.got.cif
#   From: 2010.05.17/outbox.cif.g08.bks.cpg/sg63_7_cif.got.tgz:12401.got - 2010.06.03 15:47:04.
