data_PCOD9474186
_publ_section_title
;
Structure prediction by ZEFSAII (Michael W. Deem and Ramdas Pophale) SiO2 
 PCOD9474186
Probable space group: C M C M
;
_chemical_formula_sum "Si O2"
_cell_formula_units_Z 64
_cell_length_a 18.212138
_cell_length_b 14.149601
_cell_length_c 12.242037
_cell_angle_alpha 90.000000
_cell_angle_beta 90.000000
_cell_angle_gamma 90.000000
_cell_volume 3154.705433
_symmetry_space_group_name_H-M "C M C M"
_symmetry_group_IT_number 63
_symmetry_cell_setting 'orthorhombic'
loop_
_space_group_symop_operation_xyz
x,y,z
-x,-y,1/2+z
x,-y,-z
-x,y,1/2-z
-x,-y,-z
x,y,1/2-z
-x,y,z
x,-y,1/2+z
1/2+x,1/2+y,z
1/2-x,1/2-y,1/2+z
1/2+x,1/2-y,-z
1/2-x,1/2+y,1/2-z
1/2-x,1/2-y,-z
1/2+x,1/2+y,1/2-z
1/2-x,1/2+y,z
1/2+x,1/2-y,1/2+z
loop_
_atom_site_type_symbol
_atom_site_label
_atom_site_fract_x
_atom_site_fract_y
_atom_site_fract_z
Si Si1 0.804122 0.400117 0.551311
Si Si2 0.826223 0.761903 0.624352
Si Si3 0.585617 0.099145 0.250000
Si Si4 0.912565 0.106114 0.521598
Si Si5 0.914878 0.174870 0.750000
O O1 0.779256 0.500000 0.500000
O O2 0.824913 0.331134 0.450776
O O3 0.743236 0.333411 0.609708
O O4 0.868129 0.423328 0.639846
O O5 0.833622 0.736957 0.750000
O O6 0.890930 0.825509 0.575610
O O7 0.500000 0.065750 0.250000
O O8 0.583003 0.213074 0.250000
O O9 0.879604 0.140622 0.637201
O O10 0.000000 0.107593 0.530783
O O11 0.889038 0.000000 0.500000
O O12 0.000000 0.140916 0.750000
#
# Coordination Sequence:
#
# PCOD9474186 Si02
#       5
#    16  16   8  16   8
#     4  11  25  45  67  94 127 168 215 268 320 385
#     4  11  24  41  64  96 130 169 209 261 324 382
#     4  11  22  44  71  92 125 173 221 267 321 382
#     4  10  21  37  59  91 129 172 214 258 316 380
#     4   9  18  36  59  84 122 169 211 253 306 376
#
# _framework density 20.287156
#
# number of rings (size 3 to 8) (size 9 to 14) (size 15 to 20)
#    0.000    1.500    3.750    0.750    3.500    1.000 
#    0.000    0.000    0.000    0.000    0.000    0.000 
#    0.000    0.000    0.000    0.000    0.000    0.000 
#
# Total GULP energy -178499.332370 kJ/mol
# GULP energy per Si atom -5578.104137 kJ/mol
# Density = 2.024098 g / cm^3
# Si number density = 20.287156 Si / 1000 Ang^3
#
#
#
# Elastic Constant Matrix: (Units=GPa)
#
#
# Indices 1 2 3 4 5 6 
#
# 1 70.0606 18.4348 34.7801 0.0000 0.0000 0.0000
# 2 18.4348 86.5487 27.9576 0.0000 0.0000 0.0000
# 3 34.7801 27.9576 155.7414 0.0000 0.0000 0.0000
# 4 0.0000 0.0000 0.0000 16.6618 0.0000 0.0000
# 5 0.0000 0.0000 0.0000 0.0000 18.9564 0.0000
# 6 0.0000 0.0000 0.0000 0.0000 0.0000 15.7892
#
#
#
# Elastic Compliance Matrix: (Units=1/GPa)
#
#
# Indices 1 2 3 4 5 6 
#
# 1 0.016537 -0.002473 -0.003249 0.000000 0.000000 0.000000
# 2 -0.002473 0.012635 -0.001716 0.000000 0.000000 0.000000
# 3 -0.003249 -0.001716 0.007455 0.000000 0.000000 0.000000
# 4 0.000000 0.000000 0.000000 0.060018 0.000000 0.000000
# 5 0.000000 0.000000 0.000000 0.000000 0.052753 0.000000
# 6 0.000000 0.000000 0.000000 0.000000 0.000000 0.063334
#
#
# Mechanical properties :
#
#
# Convention : Reuss Voigt Hill
#
# Bulk Modulus (GPa) = 45.97506 52.74396 49.35951
# Shear Modulus (GPa) = 21.28951 25.69336 23.49144
#
# Velocity S-wave (km/s) = 3.24297 3.56263 3.40655
# Velocity P-wave (km/s) = 6.06084 6.55578 6.31316
#
# Compressibility (1/GPa) = 0.02175092
#
# Stress axis : x y z
#
# Youngs Moduli (GPa) = 60.47051 79.14403 134.14666
#
# Poissons Ratio (x) = 0.19571 0.43586
# Poissons Ratio (y) = 0.14953 0.23019
# Poissons Ratio (z) = 0.19648 0.13581
#
# Static dielectric constant tensor:
#      x y z
#    x 1.786560 0.000000 0.000000 
#    y 0.000000 1.700330 0.000000 
#    z 0.000000 0.000000 1.748320 
# 
# From -- ./inp_files/20569.got.cif
#   From: 2010.05.17/outbox.cif.g08.bks.cpg/sg63_11_cif.got.tgz:20569.got - 2010.06.03 15:47:04.
