data_PCOD9474081
_publ_section_title
;
Structure prediction by ZEFSAII (Michael W. Deem and Ramdas Pophale) SiO2 
 PCOD9474081
Probable space group: C M C M
;
_chemical_formula_sum "Si O2"
_cell_formula_units_Z 96
_cell_length_a 8.727304
_cell_length_b 26.164820
_cell_length_c 23.876261
_cell_angle_alpha 90.000000
_cell_angle_beta 90.000000
_cell_angle_gamma 90.000000
_cell_volume 5452.104523
_symmetry_space_group_name_H-M "C M C M"
_symmetry_group_IT_number 63
_symmetry_cell_setting 'orthorhombic'
loop_
_space_group_symop_operation_xyz
x,y,z
-x,-y,1/2+z
x,-y,-z
-x,y,1/2-z
-x,-y,-z
x,y,1/2-z
-x,y,z
x,-y,1/2+z
1/2+x,1/2+y,z
1/2-x,1/2-y,1/2+z
1/2+x,1/2-y,-z
1/2-x,1/2+y,1/2-z
1/2-x,1/2-y,-z
1/2+x,1/2+y,1/2-z
1/2-x,1/2+y,z
1/2+x,1/2-y,1/2+z
loop_
_atom_site_type_symbol
_atom_site_label
_atom_site_fract_x
_atom_site_fract_y
_atom_site_fract_z
Si Si1 0.185098 0.345430 0.873295
Si Si2 0.683869 0.655508 0.889110
Si Si3 0.684701 0.440311 0.314485
Si Si4 0.182983 0.746830 0.684885
Si Si5 0.684274 0.949536 0.684881
Si Si6 0.183532 0.307307 0.996823
O O1 0.259600 0.302169 0.834674
O O2 0.232073 0.401678 0.852918
O O3 0.000000 0.341893 0.867976
O O4 0.225286 0.332564 0.937406
O O5 0.500000 0.655700 0.892721
O O6 0.734510 0.604800 0.855789
O O7 0.737449 0.704434 0.853505
O O8 0.753297 0.661126 0.950712
O O9 0.734822 0.430433 0.250000
O O10 0.500000 0.441177 0.314528
O O11 0.745276 0.496006 0.331164
O O12 0.220813 0.738335 0.750000
O O13 0.000000 0.743462 0.677963
O O14 0.726078 0.939578 0.750000
O O15 0.500000 0.953561 0.682210
O O16 0.000000 0.304207 0.000076
O O17 0.250000 0.250000 0.000000
#
# Coordination Sequence:
#
# PCOD9474081 Si02
#       6
#    16  16  16  16  16  16
#     4  10  21  37  57  80 109 147 186 224 276 336
#     4  11  22  37  57  80 109 148 188 228 277 332
#     4   9  19  36  57  81 109 143 183 226 277 334
#     4  11  23  35  52  82 114 142 178 228 281 332
#     4   9  18  34  57  83 109 140 180 225 275 332
#     4  11  22  37  57  81 110 148 190 231 277 330
#
# _framework density 17.607880000000002
#
# number of rings (size 3 to 8) (size 9 to 14) (size 15 to 20)
#    0.000    1.833    1.667    2.500    0.000    5.333 
#    0.000    4.167    0.000    5.000    0.000    0.000 
#    0.000    0.000    0.000    0.000    0.000    0.000 
#
# Total GULP energy -268078.794020 kJ/mol
# GULP energy per Si atom -5584.974875 kJ/mol
# Density = 1.756780 g / cm^3
# Si number density = 17.607880 Si / 1000 Ang^3
#
#
#
# Elastic Constant Matrix: (Units=GPa)
#
#
# Indices 1 2 3 4 5 6 
#
# 1 18.3755 13.1662 20.6260 0.0000 0.0000 0.0000
# 2 13.1662 108.7314 31.2980 0.0000 0.0000 0.0000
# 3 20.6260 31.2980 67.3073 0.0000 0.0000 0.0000
# 4 0.0000 0.0000 0.0000 20.8476 0.0000 0.0000
# 5 0.0000 0.0000 0.0000 0.0000 27.4760 0.0000
# 6 0.0000 0.0000 0.0000 0.0000 0.0000 31.4226
#
#
#
# Elastic Compliance Matrix: (Units=1/GPa)
#
#
# Indices 1 2 3 4 5 6 
#
# 1 0.083899 -0.003185 -0.024230 0.000000 0.000000 0.000000
# 2 -0.003185 0.010739 -0.004018 0.000000 0.000000 0.000000
# 3 -0.024230 -0.004018 0.024151 0.000000 0.000000 0.000000
# 4 0.000000 0.000000 0.000000 0.047967 0.000000 0.000000
# 5 0.000000 0.000000 0.000000 0.000000 0.036395 0.000000
# 6 0.000000 0.000000 0.000000 0.000000 0.000000 0.031824
#
#
# Mechanical properties :
#
#
# Convention : Reuss Voigt Hill
#
# Bulk Modulus (GPa) = 17.88124 36.06607 26.97365
# Shear Modulus (GPa) = 15.79871 24.57084 20.18478
#
# Velocity S-wave (km/s) = 2.99867 3.73962 3.38945
# Velocity P-wave (km/s) = 4.70815 6.25889 5.53807
#
# Compressibility (1/GPa) = 0.05592453
#
# Stress axis : x y z
#
# Youngs Moduli (GPa) = 11.91906 93.11755 41.40701
#
# Poissons Ratio (x) = 0.29657 1.00327
# Poissons Ratio (y) = 0.03796 0.16636
# Poissons Ratio (z) = 0.28879 0.37412
#
# Static dielectric constant tensor:
#      x y z
#    x 1.595090 0.000000 0.000000 
#    y 0.000000 1.570410 0.000000 
#    z 0.000000 0.000000 1.591730 
# 
# From -- ./inp_files/59826.got.cif
#   From: 2010.05.17/outbox.cif.g08.bks.cpg/sg63_30_cif.got.tgz:59826.got - 2010.06.03 15:47:04.
