data_PCOD9474616
_publ_section_title
;
Structure prediction by ZEFSAII (Michael W. Deem and Ramdas Pophale) SiO2 
 PCOD9474616
Probable space group: C M C M
;
_chemical_formula_sum "Si O2"
_cell_formula_units_Z 96
_cell_length_a 14.229706
_cell_length_b 22.255018
_cell_length_c 14.924417
_cell_angle_alpha 90.000000
_cell_angle_beta 90.000000
_cell_angle_gamma 90.000000
_cell_volume 4726.299644
_symmetry_space_group_name_H-M "C M C M"
_symmetry_group_IT_number 63
_symmetry_cell_setting 'orthorhombic'
loop_
_space_group_symop_operation_xyz
x,y,z
-x,-y,1/2+z
x,-y,-z
-x,y,1/2-z
-x,-y,-z
x,y,1/2-z
-x,y,z
x,-y,1/2+z
1/2+x,1/2+y,z
1/2-x,1/2-y,1/2+z
1/2+x,1/2-y,-z
1/2-x,1/2+y,1/2-z
1/2-x,1/2-y,-z
1/2+x,1/2+y,1/2-z
1/2-x,1/2+y,z
1/2+x,1/2-y,1/2+z
loop_
_atom_site_type_symbol
_atom_site_label
_atom_site_fract_x
_atom_site_fract_y
_atom_site_fract_z
Si Si1 0.106072 0.478783 0.358842
Si Si2 0.603407 0.666813 0.594144
Si Si3 0.893747 0.061653 0.446799
Si Si4 0.292404 0.900510 0.856096
Si Si5 0.890952 0.697737 0.024049
Si Si6 0.192577 0.645872 0.649686
O O1 0.105480 0.481280 0.250000
O O2 0.145030 0.542840 0.388107
O O3 0.170113 0.422008 0.382081
O O4 0.000000 0.468328 0.389902
O O5 0.500000 0.663603 0.637975
O O6 0.605310 0.616040 0.517734
O O7 0.613217 0.732892 0.551814
O O8 0.696193 0.655667 0.651019
O O9 0.813923 0.079014 0.376231
O O10 0.000000 0.055219 0.409873
O O11 0.871693 0.000000 0.500000
O O12 0.306102 0.890592 0.750000
O O13 0.325680 0.842810 0.911908
O O14 0.000000 0.678245 0.031909
O O15 0.854961 0.688531 0.923163
O O16 0.153966 0.653725 0.750000
#
# Coordination Sequence:
#
# PCOD9474616 Si02
#       6
#    16  16  16  16  16  16
#     4   9  19  36  57  87 124 157 197 250 302 362
#     4  10  22  42  63  87 124 164 210 262 311 373
#     4  10  21  40  66  91 122 166 214 265 321 378
#     4  11  23  38  63  95 127 166 211 259 315 376
#     4  11  24  41  62  90 128 170 208 254 314 379
#     4  11  22  38  63  91 123 162 207 256 311 371
#
# _framework density 20.311872999999999
#
# number of rings (size 3 to 8) (size 9 to 14) (size 15 to 20)
#    0.000    1.667    1.667    2.500    0.000    3.333 
#    0.000    3.333    0.000    9.000    0.000    0.000 
#    0.000    0.000    0.000    0.000    0.000    0.000 
#
# Total GULP energy -268156.498233 kJ/mol
# GULP energy per Si atom -5586.593713 kJ/mol
# Density = 2.026564 g / cm^3
# Si number density = 20.311873 Si / 1000 Ang^3
#
#
#
# Elastic Constant Matrix: (Units=GPa)
#
#
# Indices 1 2 3 4 5 6 
#
# 1 106.5937 51.2957 32.6420 0.0000 0.0000 0.0000
# 2 51.2957 118.8900 33.0439 0.0000 0.0000 0.0000
# 3 32.6420 33.0439 76.1016 0.0000 0.0000 0.0000
# 4 0.0000 0.0000 0.0000 7.4831 0.0000 0.0000
# 5 0.0000 0.0000 0.0000 0.0000 35.8106 0.0000
# 6 0.0000 0.0000 0.0000 0.0000 0.0000 -60.3706
#
#
#
# Elastic Compliance Matrix: (Units=1/GPa)
#
#
# Indices 1 2 3 4 5 6 
#
# 1 0.012593 -0.004472 -0.003460 0.000000 0.000000 0.000000
# 2 -0.004472 0.011153 -0.002925 0.000000 0.000000 0.000000
# 3 -0.003460 -0.002925 0.015894 0.000000 0.000000 0.000000
# 4 0.000000 0.000000 0.000000 0.133634 0.000000 0.000000
# 5 0.000000 0.000000 0.000000 0.000000 0.027925 0.000000
# 6 0.000000 0.000000 0.000000 0.000000 0.000000 -0.016564
#
#
# Mechanical properties :
#
#
# Convention : Reuss Voigt Hill
#
# Bulk Modulus (GPa) = 55.77890 59.50538 57.64214
# Shear Modulus (GPa) = 23.54903 8.89155 16.22029
#
# Velocity S-wave (km/s) = 3.40865 2.09452 2.82895
# Velocity P-wave (km/s) = 6.55841 5.93370 6.25386
#
# Compressibility (1/GPa) = 0.01792793
#
# Stress axis : x y z
#
# Youngs Moduli (GPa) = 79.41078 89.65900 62.91562
#
# Poissons Ratio (x) = 0.40092 0.21767
# Poissons Ratio (y) = 0.35509 0.18402
# Poissons Ratio (z) = 0.27474 0.26224
#
# Static dielectric constant tensor:
#      x y z
#    x 1.745880 0.000000 0.000000 
#    y 0.000000 1.690570 0.000000 
#    z 0.000000 0.000000 1.713060 
# 
# From -- ./inp_files/31915.got.cif
#   From: 2010.05.17/outbox.cif.g08.bks.cpg/sg63_16_cif.got.tgz:31915.got - 2010.06.03 15:47:04.
