data_PCOD9474343
_publ_section_title
;
Structure prediction by ZEFSAII (Michael W. Deem and Ramdas Pophale) SiO2 
 PCOD9474343
Probable space group: C M C M
;
_chemical_formula_sum "Si O2"
_cell_formula_units_Z 96
_cell_length_a 17.970499
_cell_length_b 9.698262
_cell_length_c 27.851412
_cell_angle_alpha 90.000000
_cell_angle_beta 90.000000
_cell_angle_gamma 90.000000
_cell_volume 4854.016708
_symmetry_space_group_name_H-M "C M C M"
_symmetry_group_IT_number 63
_symmetry_cell_setting 'orthorhombic'
loop_
_space_group_symop_operation_xyz
x,y,z
-x,-y,1/2+z
x,-y,-z
-x,y,1/2-z
-x,-y,-z
x,y,1/2-z
-x,y,z
x,-y,1/2+z
1/2+x,1/2+y,z
1/2-x,1/2-y,1/2+z
1/2+x,1/2-y,-z
1/2-x,1/2+y,1/2-z
1/2-x,1/2-y,-z
1/2+x,1/2+y,1/2-z
1/2-x,1/2+y,z
1/2+x,1/2-y,1/2+z
loop_
_atom_site_type_symbol
_atom_site_label
_atom_site_fract_x
_atom_site_fract_y
_atom_site_fract_z
Si Si1 0.912644 0.981716 0.840665
Si Si2 0.586887 0.954050 0.861532
Si Si3 0.412413 0.803742 0.298873
Si Si4 0.314997 0.987028 0.056801
Si Si5 0.198628 0.807915 0.893934
Si Si6 0.811861 0.760584 0.192036
O O1 0.909389 0.859415 0.801948
O O2 0.877584 0.893582 0.884595
O O3 0.000000 0.023200 0.846682
O O4 0.855636 0.100960 0.824880
O O5 0.500000 0.926909 0.858112
O O6 0.630907 0.857820 0.824687
O O7 0.609235 0.107889 0.844511
O O8 0.613663 0.947735 0.916077
O O9 0.374925 0.853683 0.250000
O O10 0.500000 0.835848 0.296449
O O11 0.305759 0.828162 0.073298
O O12 0.249804 0.079615 0.079406
O O13 0.318190 0.000000 0.000000
O O14 0.240395 0.769030 0.842702
O O15 0.799011 0.760300 0.250000
#
# Coordination Sequence:
#
# PCOD9474343 Si02
#       6
#    16  16  16  16  16  16
#     4  11  22  39  63  90 128 169 212 261 311 372
#     4  10  21  38  60  91 127 157 203 265 318 377
#     4   9  17  30  52  82 117 157 195 238 299 365
#     4  11  23  42  68  90 119 167 217 271 330 390
#     4  11  23  44  62  96 127 164 216 271 324 382
#     4  11  24  40  62  91 131 177 213 250 312 392
#
# _framework density 19.777435000000001
#
# number of rings (size 3 to 8) (size 9 to 14) (size 15 to 20)
#    0.000    1.500    3.333    2.000    0.000    4.333 
#    0.000    0.000    0.000    0.500    0.000    0.000 
#    0.000    0.000    0.000    0.000    0.000    0.000 
#
# Total GULP energy -267238.153579 kJ/mol
# GULP energy per Si atom -5567.461533 kJ/mol
# Density = 1.973242 g / cm^3
# Si number density = 19.777435 Si / 1000 Ang^3
#
#
#
# Elastic Constant Matrix: (Units=GPa)
#
#
# Indices 1 2 3 4 5 6 
#
# 1 96.5826 13.1588 23.9399 0.0000 0.0000 0.0000
# 2 13.1588 78.0274 28.8910 0.0000 0.0000 0.0000
# 3 23.9399 28.8910 116.5025 0.0000 0.0000 0.0000
# 4 0.0000 0.0000 0.0000 30.3574 0.0000 0.0000
# 5 0.0000 0.0000 0.0000 0.0000 3.9750 0.0000
# 6 0.0000 0.0000 0.0000 0.0000 0.0000 25.9225
#
#
#
# Elastic Compliance Matrix: (Units=1/GPa)
#
#
# Indices 1 2 3 4 5 6 
#
# 1 0.010998 -0.001121 -0.001982 0.000000 0.000000 0.000000
# 2 -0.001121 0.014226 -0.003298 0.000000 0.000000 0.000000
# 3 -0.001982 -0.003298 0.009809 0.000000 0.000000 0.000000
# 4 0.000000 0.000000 0.000000 0.032941 0.000000 0.000000
# 5 0.000000 0.000000 0.000000 0.000000 0.251570 0.000000
# 6 0.000000 0.000000 0.000000 0.000000 0.000000 0.038577
#
#
# Mechanical properties :
#
#
# Convention : Reuss Voigt Hill
#
# Bulk Modulus (GPa) = 44.98094 47.01021 45.99557
# Shear Modulus (GPa) = 13.21596 27.05918 20.13757
#
# Velocity S-wave (km/s) = 2.58783 3.70291 3.19440
# Velocity P-wave (km/s) = 5.63223 6.48870 6.07558
#
# Compressibility (1/GPa) = 0.02223164
#
# Stress axis : x y z
#
# Youngs Moduli (GPa) = 90.92716 70.29385 101.95222
#
# Poissons Ratio (x) = 0.07879 0.20207
# Poissons Ratio (y) = 0.10192 0.33619
# Poissons Ratio (z) = 0.18021 0.23180
#
# Static dielectric constant tensor:
#      x y z
#    x 1.739060 0.000000 0.000000 
#    y 0.000000 1.739760 0.000000 
#    z 0.000000 0.000000 1.729680 
# 
# From -- ./inp_files/70257.got.cif
#   From: 2010.05.17/outbox.cif.g08.bks.cpg/sg63_36_cif.got.tgz:70257.got - 2010.06.03 15:47:04.
