data_PCOD9474270
_publ_section_title
;
Structure prediction by ZEFSAII (Michael W. Deem and Ramdas Pophale) SiO2 
 PCOD9474270
Probable space group: C M C M
;
_chemical_formula_sum "Si O2"
_cell_formula_units_Z 96
_cell_length_a 8.451623
_cell_length_b 21.357715
_cell_length_c 25.553097
_cell_angle_alpha 90.000000
_cell_angle_beta 90.000000
_cell_angle_gamma 90.000000
_cell_volume 4612.521960
_symmetry_space_group_name_H-M "C M C M"
_symmetry_group_IT_number 63
_symmetry_cell_setting 'orthorhombic'
loop_
_space_group_symop_operation_xyz
x,y,z
-x,-y,1/2+z
x,-y,-z
-x,y,1/2-z
-x,-y,-z
x,y,1/2-z
-x,y,z
x,-y,1/2+z
1/2+x,1/2+y,z
1/2-x,1/2-y,1/2+z
1/2+x,1/2-y,-z
1/2-x,1/2+y,1/2-z
1/2-x,1/2-y,-z
1/2+x,1/2+y,1/2-z
1/2-x,1/2+y,z
1/2+x,1/2-y,1/2+z
loop_
_atom_site_type_symbol
_atom_site_label
_atom_site_fract_x
_atom_site_fract_y
_atom_site_fract_z
Si Si1 0.809106 0.536969 0.891518
Si Si2 0.811879 0.600946 0.388196
Si Si3 0.806963 0.640901 0.692009
Si Si4 0.180536 0.086236 0.504675
Si Si5 0.318685 0.728081 0.154634
Si Si6 0.680785 0.721547 0.552122
O O1 0.759301 0.468569 0.870560
O O2 0.752918 0.593254 0.853536
O O3 0.756421 0.539845 0.952478
O O4 0.000000 0.540110 0.891864
O O5 0.761507 0.603951 0.449599
O O6 0.752335 0.659019 0.353414
O O7 0.000000 0.602670 0.386766
O O8 0.767743 0.617160 0.750000
O O9 0.748889 0.713127 0.687087
O O10 0.000000 0.643963 0.688043
O O11 0.178053 0.148653 0.540104
O O12 0.000000 0.069340 0.492427
O O13 0.500000 0.719983 0.170457
O O14 0.299131 0.758110 0.097167
O O15 0.500000 0.742588 0.563725
O O16 0.750000 0.750000 0.500000
#
# Coordination Sequence:
#
# PCOD9474270 Si02
#       6
#    16  16  16  16  16  16
#     4  10  21  38  58  82 113 151 192 232 276 331
#     4  11  23  36  54  82 120 157 187 225 278 336
#     4   9  19  38  64  87 105 135 186 240 285 335
#     4  11  22  34  53  82 117 155 192 229 272 328
#     4  11  21  35  58  83 110 144 187 235 281 328
#     4  11  21  32  51  80 115 152 189 225 271 325
#
# _framework density 20.812909999999999
#
# number of rings (size 3 to 8) (size 9 to 14) (size 15 to 20)
#    0.000    1.500    3.333    2.500    0.000    4.667 
#    0.000    0.833    0.000    5.500    0.000    0.000 
#    0.000    0.000    0.000    0.000    0.000    0.000 
#
# Total GULP energy -267520.182994 kJ/mol
# GULP energy per Si atom -5573.337146 kJ/mol
# Density = 2.076554 g / cm^3
# Si number density = 20.812910 Si / 1000 Ang^3
#
#
#
# Elastic Constant Matrix: (Units=GPa)
#
#
# Indices 1 2 3 4 5 6 
#
# 1 26.1735 27.3267 0.5837 0.0000 0.0000 0.0000
# 2 27.3267 144.3570 31.1958 0.0000 0.0000 0.0000
# 3 0.5837 31.1958 86.9683 0.0000 0.0000 0.0000
# 4 0.0000 0.0000 0.0000 24.3896 0.0000 0.0000
# 5 0.0000 0.0000 0.0000 0.0000 10.5199 0.0000
# 6 0.0000 0.0000 0.0000 0.0000 0.0000 26.2474
#
#
#
# Elastic Compliance Matrix: (Units=1/GPa)
#
#
# Indices 1 2 3 4 5 6 
#
# 1 0.048432 -0.009862 0.003213 0.000000 0.000000 0.000000
# 2 -0.009862 0.009518 -0.003348 0.000000 0.000000 0.000000
# 3 0.003213 -0.003348 0.012678 0.000000 0.000000 0.000000
# 4 0.000000 0.000000 0.000000 0.041001 0.000000 0.000000
# 5 0.000000 0.000000 0.000000 0.000000 0.095058 0.000000
# 6 0.000000 0.000000 0.000000 0.000000 0.000000 0.038099
#
#
# Mechanical properties :
#
#
# Convention : Reuss Voigt Hill
#
# Bulk Modulus (GPa) = 19.75034 41.74570 30.74802
# Shear Modulus (GPa) = 17.75203 25.45755 21.60479
#
# Velocity S-wave (km/s) = 2.92367 3.50117 3.22537
# Velocity P-wave (km/s) = 4.57244 6.03700 5.35502
#
# Compressibility (1/GPa) = 0.05063203
#
# Stress axis : x y z
#
# Youngs Moduli (GPa) = 20.64759 105.06753 78.87825
#
# Poissons Ratio (x) = 1.03621 -0.25340
# Poissons Ratio (y) = 0.20363 0.26407
# Poissons Ratio (z) = -0.06633 0.35175
#
# Static dielectric constant tensor:
#      x y z
#    x 1.743720 0.000000 0.000000 
#    y 0.000000 1.837990 0.000000 
#    z 0.000000 0.000000 1.722860 
# 
# From -- ./inp_files/59850.got.cif
#   From: 2010.05.17/outbox.cif.g08.bks.cpg/sg63_30_cif.got.tgz:59850.got - 2010.06.03 15:47:04.
