data_PCOD9474317
_publ_section_title
;
Structure prediction by ZEFSAII (Michael W. Deem and Ramdas Pophale) SiO2 
 PCOD9474317
Probable space group: C M C M
;
_chemical_formula_sum "Si O2"
_cell_formula_units_Z 96
_cell_length_a 19.182786
_cell_length_b 29.268829
_cell_length_c 8.034742
_cell_angle_alpha 90.000000
_cell_angle_beta 90.000000
_cell_angle_gamma 90.000000
_cell_volume 4511.167628
_symmetry_space_group_name_H-M "C M C M"
_symmetry_group_IT_number 63
_symmetry_cell_setting 'orthorhombic'
loop_
_space_group_symop_operation_xyz
x,y,z
-x,-y,1/2+z
x,-y,-z
-x,y,1/2-z
-x,-y,-z
x,y,1/2-z
-x,y,z
x,-y,1/2+z
1/2+x,1/2+y,z
1/2-x,1/2-y,1/2+z
1/2+x,1/2-y,-z
1/2-x,1/2+y,1/2-z
1/2-x,1/2-y,-z
1/2+x,1/2+y,1/2-z
1/2-x,1/2+y,z
1/2+x,1/2-y,1/2+z
loop_
_atom_site_type_symbol
_atom_site_label
_atom_site_fract_x
_atom_site_fract_y
_atom_site_fract_z
Si Si1 0.812143 0.203846 0.562244
Si Si2 0.391329 0.549705 0.940555
Si Si3 0.923660 0.856147 0.939014
Si Si4 0.819062 0.647421 0.950164
Si Si5 0.079516 0.278952 0.549266
Si Si6 0.766979 0.549133 0.446888
O O1 0.794007 0.218548 0.750000
O O2 0.865494 0.161803 0.561839
O O3 0.742722 0.181717 0.484722
O O4 0.861559 0.243116 0.484498
O O5 0.410788 0.557078 0.750000
O O6 0.413003 0.500000 0.000000
O O7 0.422261 0.589635 0.050809
O O8 0.307382 0.552047 0.960405
O O9 0.907520 0.842113 0.750000
O O10 0.000000 0.838831 0.985324
O O11 0.813461 0.646407 0.750000
O O12 0.890688 0.671371 0.003488
O O13 0.807853 0.595872 0.013498
O O14 0.078250 0.273722 0.750000
O O15 0.000000 0.271942 0.489321
O O16 0.799007 0.500000 0.500000
O O17 0.753170 0.547574 0.250000
#
# Coordination Sequence:
#
# PCOD9474317 Si02
#       6
#    16  16  16  16  16  16
#     4  10  21  38  60  85 116 156 202 249 295 350
#     4  11  21  35  54  76 106 146 192 242 298 353
#     4  11  23  36  52  77 110 151 198 246 297 352
#     4  11  22  37  61  93 123 157 202 248 298 355
#     4  10  22  40  61  87 121 162 204 247 301 359
#     4  11  21  36  60  89 122 156 194 244 298 352
#
# _framework density 21.280521
#
# number of rings (size 3 to 8) (size 9 to 14) (size 15 to 20)
#    0.000    1.333    1.667    6.000    0.000    4.000 
#    0.000    0.000    0.000    0.500    0.000    0.000 
#    0.000    0.000    0.000    0.000    0.000    0.000 
#
# Total GULP energy -268063.287005 kJ/mol
# GULP energy per Si atom -5584.651813 kJ/mol
# Density = 2.123209 g / cm^3
# Si number density = 21.280521 Si / 1000 Ang^3
#
#
#
# Elastic Constant Matrix: (Units=GPa)
#
#
# Indices 1 2 3 4 5 6 
#
# 1 64.7556 61.4455 9.3599 0.0000 0.0000 0.0000
# 2 61.4455 136.5452 3.2017 0.0000 0.0000 0.0000
# 3 9.3599 3.2017 62.9639 0.0000 0.0000 0.0000
# 4 0.0000 0.0000 0.0000 24.9762 0.0000 0.0000
# 5 0.0000 0.0000 0.0000 0.0000 769.6756 0.0000
# 6 0.0000 0.0000 0.0000 0.0000 0.0000 -243.5151
#
#
#
# Elastic Compliance Matrix: (Units=1/GPa)
#
#
# Indices 1 2 3 4 5 6 
#
# 1 0.027695 -0.012381 -0.003487 0.000000 0.000000 0.000000
# 2 -0.012381 0.012867 0.001186 0.000000 0.000000 0.000000
# 3 -0.003487 0.001186 0.016340 0.000000 0.000000 0.000000
# 4 0.000000 0.000000 0.000000 0.040038 0.000000 0.000000
# 5 0.000000 0.000000 0.000000 0.000000 0.001299 0.000000
# 6 0.000000 0.000000 0.000000 0.000000 0.000000 -0.004107
#
#
# Mechanical properties :
#
#
# Convention : Reuss Voigt Hill
#
# Bulk Modulus (GPa) = 36.31353 45.80877 41.06115
# Shear Modulus (GPa) = 37.68557 122.91116 80.29837
#
# Velocity S-wave (km/s) = 4.21277 7.60809 6.14941
# Velocity P-wave (km/s) = 6.38470 9.93731 8.35208
#
# Compressibility (1/GPa) = 0.02753795
#
# Stress axis : x y z
#
# Youngs Moduli (GPa) = 36.10783 77.71691 61.19869
#
# Poissons Ratio (x) = 0.96221 0.21342
# Poissons Ratio (y) = 0.44705 -0.07259
# Poissons Ratio (z) = 0.12592 -0.09219
#
# Static dielectric constant tensor:
#      x y z
#    x 1.765580 0.000000 0.000000 
#    y 0.000000 1.815820 0.000000 
#    z 0.000000 0.000000 1.757440 
# 
# From -- ./inp_files/8590.got.cif
#   From: 2010.05.17/outbox.cif.g08.bks.cpg/sg63_5_cif.got.tgz:8590.got - 2010.06.03 15:47:04.
