data_PCOD9474199
_publ_section_title
;
Structure prediction by ZEFSAII (Michael W. Deem and Ramdas Pophale) SiO2 
 PCOD9474199
Probable space group: C M C M
;
_chemical_formula_sum "Si O2"
_cell_formula_units_Z 72
_cell_length_a 9.914446
_cell_length_b 14.925278
_cell_length_c 24.838892
_cell_angle_alpha 90.000000
_cell_angle_beta 90.000000
_cell_angle_gamma 90.000000
_cell_volume 3675.556474
_symmetry_space_group_name_H-M "C M C M"
_symmetry_group_IT_number 63
_symmetry_cell_setting 'orthorhombic'
loop_
_space_group_symop_operation_xyz
x,y,z
-x,-y,1/2+z
x,-y,-z
-x,y,1/2-z
-x,-y,-z
x,y,1/2-z
-x,y,z
x,-y,1/2+z
1/2+x,1/2+y,z
1/2-x,1/2-y,1/2+z
1/2+x,1/2-y,-z
1/2-x,1/2+y,1/2-z
1/2-x,1/2-y,-z
1/2+x,1/2+y,1/2-z
1/2-x,1/2+y,z
1/2+x,1/2-y,1/2+z
loop_
_atom_site_type_symbol
_atom_site_label
_atom_site_fract_x
_atom_site_fract_y
_atom_site_fract_z
Si Si1 0.239021 0.500000 0.000000
Si Si2 0.847786 0.040094 0.117924
Si Si3 0.846330 0.161894 0.635269
Si Si4 0.653401 0.810308 0.036378
Si Si5 0.842255 0.342712 0.689858
O O1 0.322225 0.478857 0.945487
O O2 0.155705 0.589131 0.987190
O O3 0.742534 0.107964 0.143972
O O4 0.000000 0.073075 0.124993
O O5 0.834264 0.943344 0.147196
O O6 0.729444 0.184332 0.593118
O O7 0.834741 0.235473 0.681623
O O8 0.000000 0.173008 0.612128
O O9 0.500000 0.777202 0.039300
O O10 0.750000 0.750000 0.000000
O O11 0.796167 0.366832 0.750000
O O12 0.000000 0.367184 0.684470
#
# Coordination Sequence:
#
# PCOD9474199 Si02
#       5
#     8  16  16  16  16
#     4  10  22  38  58  84 120 158 190 228 288 354
#     4  10  21  37  60  89 117 148 191 242 289 338
#     4   9  20  38  57  78 108 146 186 228 279 335
#     4  11  22  35  54  81 113 149 188 228 274 331
#     4  10  22  40  60  82 112 151 192 235 287 348
#
# _framework density 19.588871000000001
#
# number of rings (size 3 to 8) (size 9 to 14) (size 15 to 20)
#    0.000    2.000    0.000    2.667    0.000   12.889 
#    0.000    2.222    0.000    0.000    0.000    0.000 
#    0.000    0.000    0.000    0.000    0.000    0.000 
#
# Total GULP energy -200844.865003 kJ/mol
# GULP energy per Si atom -5579.024028 kJ/mol
# Density = 1.954429 g / cm^3
# Si number density = 19.588871 Si / 1000 Ang^3
#
#
#
# Elastic Constant Matrix: (Units=GPa)
#
#
# Indices 1 2 3 4 5 6 
#
# 1 108.7062 32.3235 28.8580 0.0000 0.0000 0.0000
# 2 32.3235 74.8655 35.1655 0.0000 0.0000 0.0000
# 3 28.8580 35.1655 66.2162 0.0000 0.0000 0.0000
# 4 0.0000 0.0000 0.0000 23.0984 0.0000 0.0000
# 5 0.0000 0.0000 0.0000 0.0000 7.9995 0.0000
# 6 0.0000 0.0000 0.0000 0.0000 0.0000 19.8677
#
#
#
# Elastic Compliance Matrix: (Units=1/GPa)
#
#
# Indices 1 2 3 4 5 6 
#
# 1 0.010991 -0.003325 -0.003024 0.000000 0.000000 0.000000
# 2 -0.003325 0.018802 -0.008537 0.000000 0.000000 0.000000
# 3 -0.003024 -0.008537 0.020954 0.000000 0.000000 0.000000
# 4 0.000000 0.000000 0.000000 0.043293 0.000000 0.000000
# 5 0.000000 0.000000 0.000000 0.000000 0.125009 0.000000
# 6 0.000000 0.000000 0.000000 0.000000 0.000000 0.050333
#
#
# Mechanical properties :
#
#
# Convention : Reuss Voigt Hill
#
# Bulk Modulus (GPa) = 47.67410 49.16466 48.41938
# Shear Modulus (GPa) = 16.33220 20.42251 18.37735
#
# Velocity S-wave (km/s) = 2.89060 3.23237 3.06625
# Velocity P-wave (km/s) = 5.96079 6.25169 6.10797
#
# Compressibility (1/GPa) = 0.02097575
#
# Stress axis : x y z
#
# Youngs Moduli (GPa) = 90.98758 53.18452 47.72470
#
# Poissons Ratio (x) = 0.17682 0.14433
# Poissons Ratio (y) = 0.30251 0.40740
# Poissons Ratio (z) = 0.27516 0.45401
#
# Static dielectric constant tensor:
#      x y z
#    x 1.667070 0.000000 0.000000 
#    y 0.000000 1.708270 0.000000 
#    z 0.000000 0.000000 1.680810 
# 
# From -- ./inp_files/66342.got.cif
#   From: 2010.05.17/outbox.cif.g08.bks.cpg/sg63_34_cif.got.tgz:66342.got - 2010.06.03 15:47:04.
