data_PCOD9474469
_publ_section_title
;
Structure prediction by ZEFSAII (Michael W. Deem and Ramdas Pophale) SiO2 
 PCOD9474469
Probable space group: C M C M
;
_chemical_formula_sum "Si O2"
_cell_formula_units_Z 88
_cell_length_a 22.262023
_cell_length_b 19.049222
_cell_length_c 10.773045
_cell_angle_alpha 90.000000
_cell_angle_beta 90.000000
_cell_angle_gamma 90.000000
_cell_volume 4568.570637
_symmetry_space_group_name_H-M "C M C M"
_symmetry_group_IT_number 63
_symmetry_cell_setting 'orthorhombic'
loop_
_space_group_symop_operation_xyz
x,y,z
-x,-y,1/2+z
x,-y,-z
-x,y,1/2-z
-x,-y,-z
x,y,1/2-z
-x,y,z
x,-y,1/2+z
1/2+x,1/2+y,z
1/2-x,1/2-y,1/2+z
1/2+x,1/2-y,-z
1/2-x,1/2+y,1/2-z
1/2-x,1/2-y,-z
1/2+x,1/2+y,1/2-z
1/2-x,1/2+y,z
1/2+x,1/2-y,1/2+z
loop_
_atom_site_type_symbol
_atom_site_label
_atom_site_fract_x
_atom_site_fract_y
_atom_site_fract_z
Si Si1 0.370872 0.485997 0.250000
Si Si2 0.363963 0.687621 0.009986
Si Si3 0.670112 0.827652 0.110982
Si Si4 0.569774 0.343974 0.250000
Si Si5 0.929117 0.860314 0.750000
Si Si6 0.929041 0.444014 0.107802
Si Si7 0.222976 0.930281 0.049462
O O1 0.423722 0.428593 0.250000
O O2 0.396723 0.563602 0.250000
O O3 0.327158 0.466526 0.363619
O O4 0.330804 0.762214 0.018824
O O5 0.409979 0.679936 0.124272
O O6 0.396012 0.680008 0.875855
O O7 0.316512 0.624322 0.029665
O O8 0.668400 0.797984 0.250000
O O9 0.611603 0.875564 0.090102
O O10 0.726819 0.879448 0.105007
O O11 0.500000 0.323036 0.250000
O O12 0.000000 0.871058 0.750000
O O13 0.917460 0.469739 0.250000
O O14 0.000000 0.427594 0.099861
O O15 0.915626 0.500000 0.000000
O O16 0.255542 0.000000 0.000000
#
# Coordination Sequence:
#
# PCOD9474469 Si02
#       7
#     8  16  16   8   8  16  16
#     4  10  21  39  60  91 128 164 213 267 310 371
#     4  11  24  42  61  94 130 163 213 265 312 378
#     4  11  22  39  63  93 123 165 210 255 321 381
#     4  10  23  42  62  86 127 173 210 255 322 383
#     4  12  23  39  68  99 128 167 215 264 314 374
#     4   9  19  37  60  87 120 155 200 258 309 367
#     4  11  21  39  64  89 128 169 206 263 319 372
#
# _framework density 19.262041
#
# number of rings (size 3 to 8) (size 9 to 14) (size 15 to 20)
#    0.000    1.455    3.636    1.909    0.000    1.455 
#    1.636    3.636    0.000    0.000    0.000    0.000 
#    0.000    0.000    0.000    0.000    0.000    0.000 
#
# Total GULP energy -245222.128819 kJ/mol
# GULP energy per Si atom -5573.230200 kJ/mol
# Density = 1.921820 g / cm^3
# Si number density = 19.262041 Si / 1000 Ang^3
#
#
#
# Elastic Constant Matrix: (Units=GPa)
#
#
# Indices 1 2 3 4 5 6 
#
# 1 78.2110 42.5619 29.4160 0.0000 0.0000 0.0000
# 2 42.5619 97.1633 43.3163 0.0000 0.0000 0.0000
# 3 29.4160 43.3163 93.0693 0.0000 0.0000 0.0000
# 4 0.0000 0.0000 0.0000 29.0516 0.0000 0.0000
# 5 0.0000 0.0000 0.0000 0.0000 59.9859 0.0000
# 6 0.0000 0.0000 0.0000 0.0000 0.0000 20.0826
#
#
#
# Elastic Compliance Matrix: (Units=1/GPa)
#
#
# Indices 1 2 3 4 5 6 
#
# 1 0.017215 -0.006454 -0.002437 0.000000 0.000000 0.000000
# 2 -0.006454 0.015407 -0.005130 0.000000 0.000000 0.000000
# 3 -0.002437 -0.005130 0.013903 0.000000 0.000000 0.000000
# 4 0.000000 0.000000 0.000000 0.034421 0.000000 0.000000
# 5 0.000000 0.000000 0.000000 0.000000 0.016671 0.000000
# 6 0.000000 0.000000 0.000000 0.000000 0.000000 0.049794
#
#
# Mechanical properties :
#
#
# Convention : Reuss Voigt Hill
#
# Bulk Modulus (GPa) = 54.11157 55.44799 54.77978
# Shear Modulus (GPa) = 27.53083 32.03400 29.78241
#
# Velocity S-wave (km/s) = 3.78468 4.08249 3.93640
# Velocity P-wave (km/s) = 6.87399 7.14639 7.01152
#
# Compressibility (1/GPa) = 0.01848034
#
# Stress axis : x y z
#
# Youngs Moduli (GPa) = 58.08891 64.90762 71.92825
#
# Poissons Ratio (x) = 0.41895 0.17529
# Poissons Ratio (y) = 0.37493 0.36902
# Poissons Ratio (z) = 0.14156 0.33301
#
# Static dielectric constant tensor:
#      x y z
#    x 1.669360 0.000000 0.000000 
#    y 0.000000 1.668340 0.000000 
#    z 0.000000 0.000000 1.732250 
# 
# From -- ./inp_files/22601.got.cif
#   From: 2010.05.17/outbox.cif.g08.bks.cpg/sg63_12_cif.got.tgz:22601.got - 2010.06.03 15:47:04.
