data_PCOD9474353
_publ_section_title
;
Structure prediction by ZEFSAII (Michael W. Deem and Ramdas Pophale) SiO2 
 PCOD9474353
Probable space group: C M C M
;
_chemical_formula_sum "Si O2"
_cell_formula_units_Z 64
_cell_length_a 8.820048
_cell_length_b 25.448736
_cell_length_c 14.900818
_cell_angle_alpha 90.000000
_cell_angle_beta 90.000000
_cell_angle_gamma 90.000000
_cell_volume 3344.623796
_symmetry_space_group_name_H-M "C M C M"
_symmetry_group_IT_number 63
_symmetry_cell_setting 'orthorhombic'
loop_
_space_group_symop_operation_xyz
x,y,z
-x,-y,1/2+z
x,-y,-z
-x,y,1/2-z
-x,-y,-z
x,y,1/2-z
-x,y,z
x,-y,1/2+z
1/2+x,1/2+y,z
1/2-x,1/2-y,1/2+z
1/2+x,1/2-y,-z
1/2-x,1/2+y,1/2-z
1/2-x,1/2-y,-z
1/2+x,1/2+y,1/2-z
1/2-x,1/2+y,z
1/2+x,1/2-y,1/2+z
loop_
_atom_site_type_symbol
_atom_site_label
_atom_site_fract_x
_atom_site_fract_y
_atom_site_fract_z
Si Si1 0.680783 0.560147 0.750000
Si Si2 0.681500 0.861356 0.606861
Si Si3 0.181394 0.364105 0.394711
Si Si4 0.817586 0.247590 0.399645
Si Si5 0.317673 0.438671 0.750000
O O1 0.500000 0.560866 0.750000
O O2 0.740334 0.591592 0.836312
O O3 0.730361 0.499487 0.750000
O O4 0.500000 0.860704 0.616008
O O5 0.718019 0.867228 0.500799
O O6 0.747787 0.805400 0.639813
O O7 0.752865 0.907912 0.664181
O O8 0.220801 0.305064 0.361082
O O9 0.000000 0.369416 0.386163
O O10 0.750000 0.250000 0.500000
O O11 0.000000 0.243379 0.402062
O O12 0.500000 0.435941 0.750000
#
# Coordination Sequence:
#
# PCOD9474353 Si02
#       5
#     8  16  16  16   8
#     4  11  25  40  57  82 111 148 196 239 280 333
#     4  10  21  38  61  88 114 148 190 233 284 341
#     4   9  20  38  60  85 115 149 185 227 281 336
#     4   9  17  32  56  87 119 150 184 227 280 340
#     4  11  25  42  57  80 113 150 192 239 286 337
#
# _framework density 19.135186000000001
#
# number of rings (size 3 to 8) (size 9 to 14) (size 15 to 20)
#    0.000    2.250    0.000    3.750    0.000   10.000 
#    0.000    6.250    0.000    0.000    0.000    0.000 
#    0.000    0.000    0.000    0.000    0.000    0.000 
#
# Total GULP energy -178633.353091 kJ/mol
# GULP energy per Si atom -5582.292284 kJ/mol
# Density = 1.909163 g / cm^3
# Si number density = 19.135186 Si / 1000 Ang^3
#
#
#
# Elastic Constant Matrix: (Units=GPa)
#
#
# Indices 1 2 3 4 5 6 
#
# 1 60.8064 73.7774 44.6955 0.0000 0.0000 0.0000
# 2 73.7774 227.4685 87.5509 0.0000 0.0000 0.0000
# 3 44.6955 87.5509 100.7603 0.0000 0.0000 0.0000
# 4 0.0000 0.0000 0.0000 33.2451 0.0000 0.0000
# 5 0.0000 0.0000 0.0000 0.0000 27.2760 0.0000
# 6 0.0000 0.0000 0.0000 0.0000 0.0000 36.5872
#
#
#
# Elastic Compliance Matrix: (Units=1/GPa)
#
#
# Indices 1 2 3 4 5 6 
#
# 1 0.030380 -0.007012 -0.007384 0.000000 0.000000 0.000000
# 2 -0.007012 0.008223 -0.004035 0.000000 0.000000 0.000000
# 3 -0.007384 -0.004035 0.016706 0.000000 0.000000 0.000000
# 4 0.000000 0.000000 0.000000 0.030080 0.000000 0.000000
# 5 0.000000 0.000000 0.000000 0.000000 0.036662 0.000000
# 6 0.000000 0.000000 0.000000 0.000000 0.000000 0.027332
#
#
# Mechanical properties :
#
#
# Convention : Reuss Voigt Hill
#
# Bulk Modulus (GPa) = 54.20428 89.00920 71.60674
# Shear Modulus (GPa) = 25.98828 31.62243 28.80535
#
# Velocity S-wave (km/s) = 3.68929 4.06960 3.88411
# Velocity P-wave (km/s) = 6.82176 8.28850 7.59064
#
# Compressibility (1/GPa) = 0.01844873
#
# Stress axis : x y z
#
# Youngs Moduli (GPa) = 32.91599 121.60295 59.85865
#
# Poissons Ratio (x) = 0.85264 0.44198
# Poissons Ratio (y) = 0.23080 0.24154
# Poissons Ratio (z) = 0.24304 0.49069
#
# Static dielectric constant tensor:
#      x y z
#    x 1.634340 0.000000 0.000000 
#    y 0.000000 1.684930 0.000000 
#    z 0.000000 0.000000 1.664820 
# 
# From -- ./inp_files/27599.got.cif
#   From: 2010.05.17/outbox.cif.g08.bks.cpg/sg63_14_cif.got.tgz:27599.got - 2010.06.03 15:47:04.
