data_PCOD9474380
_publ_section_title
;
Structure prediction by ZEFSAII (Michael W. Deem and Ramdas Pophale) SiO2 
 PCOD9474380
Probable space group: C M C M
;
_chemical_formula_sum "Si O2"
_cell_formula_units_Z 64
_cell_length_a 13.130533
_cell_length_b 16.843651
_cell_length_c 14.799600
_cell_angle_alpha 90.000000
_cell_angle_beta 90.000000
_cell_angle_gamma 90.000000
_cell_volume 3273.170040
_symmetry_space_group_name_H-M "C M C M"
_symmetry_group_IT_number 63
_symmetry_cell_setting 'orthorhombic'
loop_
_space_group_symop_operation_xyz
x,y,z
-x,-y,1/2+z
x,-y,-z
-x,y,1/2-z
-x,-y,-z
x,y,1/2-z
-x,y,z
x,-y,1/2+z
1/2+x,1/2+y,z
1/2-x,1/2-y,1/2+z
1/2+x,1/2-y,-z
1/2-x,1/2+y,1/2-z
1/2-x,1/2-y,-z
1/2+x,1/2+y,1/2-z
1/2-x,1/2+y,z
1/2+x,1/2-y,1/2+z
loop_
_atom_site_type_symbol
_atom_site_label
_atom_site_fract_x
_atom_site_fract_y
_atom_site_fract_z
Si Si1 0.297011 0.457706 0.146790
Si Si2 0.183080 0.319860 0.037997
Si Si3 0.500000 0.448866 0.639866
Si Si4 0.500000 0.262933 0.641606
Si Si5 0.389878 0.054011 0.409528
O O1 0.314373 0.431260 0.250000
O O2 0.254787 0.385212 0.086923
O O3 0.398788 0.502229 0.113054
O O4 0.205728 0.522104 0.145148
O O5 0.098080 0.284207 0.104509
O O6 0.250000 0.250000 0.000000
O O7 0.129274 0.360363 0.951801
O O8 0.500000 0.446668 0.750000
O O9 0.500000 0.356080 0.610962
O O10 0.500000 0.262237 0.750000
O O11 0.500000 0.047275 0.364273
O O12 0.393376 0.000000 0.500000
#
# Coordination Sequence:
#
# PCOD9474380 Si02
#       5
#    16  16   8   8  16
#     4  10  21  38  62  86 115 163 211 255 305 371
#     4  11  22  37  58  91 126 159 199 255 321 375
#     4   9  20  39  59  84 117 154 206 253 292 356
#     4  11  22  39  64  94 126 166 214 261 307 374
#     4   9  18  35  55  82 118 150 193 246 298 363
#
# _framework density 19.552910000000001
#
# number of rings (size 3 to 8) (size 9 to 14) (size 15 to 20)
#    0.000    2.000    1.250    2.250    1.750    1.500 
#    0.000    8.125    0.000    0.000    0.000    0.000 
#    0.000    0.000    0.000    0.000    0.000    0.000 
#
# Total GULP energy -178530.368660 kJ/mol
# GULP energy per Si atom -5579.074021 kJ/mol
# Density = 1.950841 g / cm^3
# Si number density = 19.552910 Si / 1000 Ang^3
#
#
#
# Elastic Constant Matrix: (Units=GPa)
#
#
# Indices 1 2 3 4 5 6 
#
# 1 161.8503 76.9652 18.6123 0.0000 0.0000 0.0000
# 2 76.9652 130.7462 26.2194 0.0000 0.0000 0.0000
# 3 18.6123 26.2194 47.3766 0.0000 0.0000 0.0000
# 4 0.0000 0.0000 0.0000 26.6389 0.0000 0.0000
# 5 0.0000 0.0000 0.0000 0.0000 7.5668 0.0000
# 6 0.0000 0.0000 0.0000 0.0000 0.0000 20.1757
#
#
#
# Elastic Compliance Matrix: (Units=1/GPa)
#
#
# Indices 1 2 3 4 5 6 
#
# 1 0.008598 -0.004931 -0.000649 0.000000 0.000000 0.000000
# 2 -0.004931 0.011431 -0.004389 0.000000 0.000000 0.000000
# 3 -0.000649 -0.004389 0.023791 0.000000 0.000000 0.000000
# 4 0.000000 0.000000 0.000000 0.037539 0.000000 0.000000
# 5 0.000000 0.000000 0.000000 0.000000 0.132156 0.000000
# 6 0.000000 0.000000 0.000000 0.000000 0.000000 0.049564
#
#
# Mechanical properties :
#
#
# Convention : Reuss Voigt Hill
#
# Bulk Modulus (GPa) = 41.87148 64.84077 53.35612
# Shear Modulus (GPa) = 17.18331 25.42137 21.30234
#
# Velocity S-wave (km/s) = 2.96769 3.60965 3.30430
# Velocity P-wave (km/s) = 5.76228 7.11382 6.47342
#
# Compressibility (1/GPa) = 0.02388260
#
# Stress axis : x y z
#
# Youngs Moduli (GPa) = 116.30418 87.47797 42.03197
#
# Poissons Ratio (x) = 0.43138 0.02727
# Poissons Ratio (y) = 0.57353 0.18449
# Poissons Ratio (z) = 0.07545 0.38396
#
# Static dielectric constant tensor:
#      x y z
#    x 1.697530 0.000000 0.000000 
#    y 0.000000 1.466000 0.000000 
#    z 0.000000 0.000000 1.499730 
# 
# From -- ./inp_files/41548.got.cif
#   From: 2010.05.17/outbox.cif.g08.bks.cpg/sg63_21_cif.got.tgz:41548.got - 2010.06.03 15:47:04.
