data_PCOD9474891
_publ_section_title
;
Structure prediction by ZEFSAII (Michael W. Deem and Ramdas Pophale) SiO2 
 PCOD9474891
Probable space group: C M C M
;
_chemical_formula_sum "Si O2"
_cell_formula_units_Z 96
_cell_length_a 24.328840
_cell_length_b 11.831070
_cell_length_c 17.437213
_cell_angle_alpha 90.000000
_cell_angle_beta 90.000000
_cell_angle_gamma 90.000000
_cell_volume 5019.061286
_symmetry_space_group_name_H-M "C M C M"
_symmetry_group_IT_number 63
_symmetry_cell_setting 'orthorhombic'
loop_
_space_group_symop_operation_xyz
x,y,z
-x,-y,1/2+z
x,-y,-z
-x,y,1/2-z
-x,-y,-z
x,y,1/2-z
-x,y,z
x,-y,1/2+z
1/2+x,1/2+y,z
1/2-x,1/2-y,1/2+z
1/2+x,1/2-y,-z
1/2-x,1/2+y,1/2-z
1/2-x,1/2-y,-z
1/2+x,1/2+y,1/2-z
1/2-x,1/2+y,z
1/2+x,1/2-y,1/2+z
loop_
_atom_site_type_symbol
_atom_site_label
_atom_site_fract_x
_atom_site_fract_y
_atom_site_fract_z
Si Si1 0.000000 0.882535 0.951323
Si Si2 0.121397 0.360092 0.392714
Si Si3 0.307535 0.208342 0.463262
Si Si4 0.291484 0.979047 0.662769
Si Si5 0.000000 0.620648 0.546142
Si Si6 0.603965 0.383721 0.661385
Si Si7 0.313367 0.445046 0.083828
O O1 0.947118 0.887677 0.896402
O O2 0.000000 0.752999 0.987912
O O3 0.000000 0.000000 0.000000
O O4 0.153549 0.350287 0.474028
O O5 0.150829 0.457466 0.345357
O O6 0.129297 0.240562 0.350714
O O7 0.057014 0.380714 0.406765
O O8 0.250000 0.250000 0.500000
O O9 0.293288 0.126562 0.393871
O O10 0.336512 0.321034 0.431922
O O11 0.279414 0.948680 0.750000
O O12 0.244010 0.059926 0.628958
O O13 0.000000 0.500000 0.500000
O O14 0.588712 0.399709 0.750000
O O15 0.646924 0.476591 0.632922
O O16 0.304542 0.500000 0.000000
#
# Coordination Sequence:
#
# PCOD9474891 Si02
#       7
#     8  16  16  16   8  16  16
#     4  10  23  41  66  95 128 170 218 264 322 392
#     4  11  22  42  67  93 125 164 215 265 319 383
#     4  12  22  40  64  86 124 168 213 259 313 386
#     4  12  25  39  59  90 127 165 209 263 324 378
#     4  10  22  39  68  99 120 160 220 274 312 374
#     4  11  23  40  64  95 127 162 209 267 323 380
#     4  12  22  39  61  90 122 164 208 257 313 379
#
# _framework density 19.127084
#
# number of rings (size 3 to 8) (size 9 to 14) (size 15 to 20)
#    0.000    0.667    5.000    3.250    2.333    1.333 
#    0.000    1.250    0.000    0.000    0.000    1.167 
#    0.000    0.000    0.000    0.000    0.000    0.000 
#
# Total GULP energy -268064.714060 kJ/mol
# GULP energy per Si atom -5584.681543 kJ/mol
# Density = 1.908355 g / cm^3
# Si number density = 19.127084 Si / 1000 Ang^3
#
#
#
# Elastic Constant Matrix: (Units=GPa)
#
#
# Indices 1 2 3 4 5 6 
#
# 1 74.5888 11.0250 14.1710 0.0000 0.0000 0.0000
# 2 11.0250 101.7035 39.5414 0.0000 0.0000 0.0000
# 3 14.1710 39.5414 117.9452 0.0000 0.0000 0.0000
# 4 0.0000 0.0000 0.0000 25.0219 0.0000 0.0000
# 5 0.0000 0.0000 0.0000 0.0000 12.3662 0.0000
# 6 0.0000 0.0000 0.0000 0.0000 0.0000 29.6843
#
#
#
# Elastic Compliance Matrix: (Units=1/GPa)
#
#
# Indices 1 2 3 4 5 6 
#
# 1 0.013804 -0.000979 -0.001330 0.000000 0.000000 0.000000
# 2 -0.000979 0.011376 -0.003696 0.000000 0.000000 0.000000
# 3 -0.001330 -0.003696 0.009877 0.000000 0.000000 0.000000
# 4 0.000000 0.000000 0.000000 0.039965 0.000000 0.000000
# 5 0.000000 0.000000 0.000000 0.000000 0.080865 0.000000
# 6 0.000000 0.000000 0.000000 0.000000 0.000000 0.033688
#
#
# Mechanical properties :
#
#
# Convention : Reuss Voigt Hill
#
# Bulk Modulus (GPa) = 43.39098 47.07916 45.23507
# Shear Modulus (GPa) = 23.89271 28.71449 26.30360
#
# Velocity S-wave (km/s) = 3.53817 3.87880 3.71239
# Velocity P-wave (km/s) = 6.27905 6.68785 6.48667
#
# Compressibility (1/GPa) = 0.02304626
#
# Stress axis : x y z
#
# Youngs Moduli (GPa) = 72.44108 87.90707 101.24055
#
# Poissons Ratio (x) = 0.08608 0.13468
# Poissons Ratio (y) = 0.07094 0.37419
# Poissons Ratio (z) = 0.09637 0.32491
#
# Static dielectric constant tensor:
#      x y z
#    x 1.682420 0.000000 0.000000 
#    y 0.000000 1.709620 0.000000 
#    z 0.000000 0.000000 1.644790 
# 
# From -- ./inp_files/49004.got.cif
#   From: 2010.05.17/outbox.cif.g08.bks.cpg/sg63_25_cif.got.tgz:49004.got - 2010.06.03 15:47:04.
