data_PCOD9474755
_publ_section_title
;
Structure prediction by ZEFSAII (Michael W. Deem and Ramdas Pophale) SiO2 
 PCOD9474755
Probable space group: C M C M
;
_chemical_formula_sum "Si O2"
_cell_formula_units_Z 68
_cell_length_a 24.118167
_cell_length_b 16.352906
_cell_length_c 7.410003
_cell_angle_alpha 90.000000
_cell_angle_beta 90.000000
_cell_angle_gamma 90.000000
_cell_volume 2922.520876
_symmetry_space_group_name_H-M "C M C M"
_symmetry_group_IT_number 63
_symmetry_cell_setting 'orthorhombic'
loop_
_space_group_symop_operation_xyz
x,y,z
-x,-y,1/2+z
x,-y,-z
-x,y,1/2-z
-x,-y,-z
x,y,1/2-z
-x,y,z
x,-y,1/2+z
1/2+x,1/2+y,z
1/2-x,1/2-y,1/2+z
1/2+x,1/2-y,-z
1/2-x,1/2+y,1/2-z
1/2-x,1/2-y,-z
1/2+x,1/2+y,1/2-z
1/2-x,1/2+y,z
1/2+x,1/2-y,1/2+z
loop_
_atom_site_type_symbol
_atom_site_label
_atom_site_fract_x
_atom_site_fract_y
_atom_site_fract_z
Si Si1 0.826918 0.596841 0.534173
Si Si2 0.000000 0.000000 0.000000
Si Si3 0.586306 0.644028 0.531442
Si Si4 0.706740 0.597309 0.965418
Si Si5 0.440399 0.170679 0.961893
O O1 0.828991 0.500000 0.500000
O O2 0.826250 0.610489 0.750000
O O3 0.766757 0.626487 0.464489
O O4 0.883159 0.635861 0.460090
O O5 0.951747 0.930195 0.967424
O O6 0.584393 0.638086 0.750000
O O7 0.649831 0.636373 0.467195
O O8 0.563272 0.731764 0.478222
O O9 0.706990 0.609226 0.750000
O O10 0.703343 0.500000 0.000000
O O11 0.440771 0.148815 0.750000
O O12 0.500000 0.143252 0.037930
#
# Coordination Sequence:
#
# PCOD9474755 Si02
#       5
#    16   4  16  16  16
#     4   9  19  37  59  81 107 141 180 223 273 323
#     4  12  22  36  56  82 112 144 178 222 260 316
#     4  11  23  37  56  82 111 145 184 222 265 320
#     4   9  18  34  54  78 107 140 180 224 265 317
#     4  10  22  38  55  79 112 145 179 222 272 323
#
# _framework density 23.267583999999999
#
# number of rings (size 3 to 8) (size 9 to 14) (size 15 to 20)
#    0.000    2.118    2.353    0.353    0.000    5.176 
#    0.000    0.000    0.000    0.000    0.000    0.000 
#    0.000    0.000    0.000    0.000    0.000    0.000 
#
# Total GULP energy -189381.614206 kJ/mol
# GULP energy per Si atom -5570.047477 kJ/mol
# Density = 2.321463 g / cm^3
# Si number density = 23.267584 Si / 1000 Ang^3
#
#
#
# Elastic Constant Matrix: (Units=GPa)
#
#
# Indices 1 2 3 4 5 6 
#
# 1 285.6152 42.5154 13.9207 0.0000 0.0000 0.0000
# 2 42.5154 25.3210 -16.7449 0.0000 0.0000 0.0000
# 3 13.9207 -16.7449 85.2298 0.0000 0.0000 0.0000
# 4 0.0000 0.0000 0.0000 22.5078 0.0000 0.0000
# 5 0.0000 0.0000 0.0000 0.0000 -36.6256 0.0000
# 6 0.0000 0.0000 0.0000 0.0000 0.0000 47.3262
#
#
#
# Elastic Compliance Matrix: (Units=1/GPa)
#
#
# Indices 1 2 3 4 5 6 
#
# 1 0.005252 -0.010787 -0.002977 0.000000 0.000000 0.000000
# 2 -0.010787 0.067547 0.015033 0.000000 0.000000 0.000000
# 3 -0.002977 0.015033 0.015173 0.000000 0.000000 0.000000
# 4 0.000000 0.000000 0.000000 0.044429 0.000000 0.000000
# 5 0.000000 0.000000 0.000000 0.000000 -0.027303 0.000000
# 6 0.000000 0.000000 0.000000 0.000000 0.000000 0.021130
#
#
# Mechanical properties :
#
#
# Convention : Reuss Voigt Hill
#
# Bulk Modulus (GPa) = 11.04880 52.83871 31.94375
# Shear Modulus (GPa) = 32.49704 30.40666 31.45185
#
# Velocity S-wave (km/s) = 3.74125 3.61893 3.68060
# Velocity P-wave (km/s) = 4.83958 6.34197 5.64102
#
# Compressibility (1/GPa) = 0.09050754
#
# Stress axis : x y z
#
# Youngs Moduli (GPa) = 190.40063 14.80459 65.90790
#
# Poissons Ratio (x) = 0.15970 0.19622
# Poissons Ratio (y) = 2.05392 -0.99077
# Poissons Ratio (z) = 0.56686 -0.22255
#
# Static dielectric constant tensor:
#      x y z
#    x 1.929270 0.000000 0.000000 
#    y 0.000000 1.781590 0.000000 
#    z 0.000000 0.000000 1.896750 
# 
# From -- ./inp_files/7600.got.cif
#   From: 2010.05.17/outbox.cif.g08.bks.cpg/sg63_4_cif.got.tgz:7600.got - 2010.06.03 15:47:04.
