data_PCOD9474865
_publ_section_title
;
Structure prediction by ZEFSAII (Michael W. Deem and Ramdas Pophale) SiO2 
 PCOD9474865
Probable space group: C M C M
;
_chemical_formula_sum "Si O2"
_cell_formula_units_Z 80
_cell_length_a 15.578589
_cell_length_b 10.853263
_cell_length_c 25.334638
_cell_angle_alpha 90.000000
_cell_angle_beta 90.000000
_cell_angle_gamma 90.000000
_cell_volume 4283.543189
_symmetry_space_group_name_H-M "C M C M"
_symmetry_group_IT_number 63
_symmetry_cell_setting 'orthorhombic'
loop_
_space_group_symop_operation_xyz
x,y,z
-x,-y,1/2+z
x,-y,-z
-x,y,1/2-z
-x,-y,-z
x,y,1/2-z
-x,y,z
x,-y,1/2+z
1/2+x,1/2+y,z
1/2-x,1/2-y,1/2+z
1/2+x,1/2-y,-z
1/2-x,1/2+y,1/2-z
1/2-x,1/2-y,-z
1/2+x,1/2+y,1/2-z
1/2-x,1/2+y,z
1/2+x,1/2-y,1/2+z
loop_
_atom_site_type_symbol
_atom_site_label
_atom_site_fract_x
_atom_site_fract_y
_atom_site_fract_z
Si Si1 0.266672 0.873864 0.533209
Si Si2 0.602719 0.758700 0.608970
Si Si3 0.000000 0.891353 0.813435
Si Si4 0.835541 0.988198 0.624162
Si Si5 0.000000 0.397226 0.186559
Si Si6 0.836742 0.553598 0.313030
O O1 0.250000 0.750000 0.500000
O O2 0.353650 0.847393 0.565887
O O3 0.273358 0.000000 0.500000
O O4 0.191153 0.898255 0.576149
O O5 0.500000 0.757200 0.607041
O O6 0.640851 0.622458 0.602046
O O7 0.636152 0.812990 0.664703
O O8 0.000000 0.745996 0.824813
O O9 0.000000 0.910583 0.750000
O O10 0.915849 0.946041 0.840958
O O11 0.751675 0.989615 0.661133
O O12 0.913919 0.464662 0.168453
O O13 0.000000 0.410217 0.250000
O O14 0.830506 0.553476 0.250000
#
# Coordination Sequence:
#
# PCOD9474865 Si02
#       6
#    16  16   8  16   8  16
#     4  11  24  46  71  95 127 170 218 282 343 396
#     4  11  23  42  66  97 130 166 222 274 334 405
#     4  11  24  41  62  97 140 179 220 267 324 402
#     4  11  24  41  66  95 132 175 218 273 330 402
#     4   9  20  37  57  85 125 172 221 263 310 379
#     4  10  22  39  61  91 131 178 218 267 326 388
#
# _framework density 18.676129
#
# number of rings (size 3 to 8) (size 9 to 14) (size 15 to 20)
#    0.000    1.400    4.000    0.600    5.600    2.000 
#    1.800    1.500    0.000    0.000    0.000    0.000 
#    0.000    0.000    0.000    0.000    0.000    0.000 
#
# Total GULP energy -223269.984904 kJ/mol
# GULP energy per Si atom -5581.749623 kJ/mol
# Density = 1.863362 g / cm^3
# Si number density = 18.676129 Si / 1000 Ang^3
#
#
#
# Elastic Constant Matrix: (Units=GPa)
#
#
# Indices 1 2 3 4 5 6 
#
# 1 170.1129 53.9323 55.5444 0.0000 0.0000 0.0000
# 2 53.9323 111.0755 52.1395 0.0000 0.0000 0.0000
# 3 55.5444 52.1395 104.5840 0.0000 0.0000 0.0000
# 4 0.0000 0.0000 0.0000 36.9451 0.0000 0.0000
# 5 0.0000 0.0000 0.0000 0.0000 21.5494 0.0000
# 6 0.0000 0.0000 0.0000 0.0000 0.0000 30.2156
#
#
#
# Elastic Compliance Matrix: (Units=1/GPa)
#
#
# Indices 1 2 3 4 5 6 
#
# 1 0.007546 -0.002327 -0.002847 0.000000 0.000000 0.000000
# 2 -0.002327 0.012471 -0.004981 0.000000 0.000000 0.000000
# 3 -0.002847 -0.004981 0.013557 0.000000 0.000000 0.000000
# 4 0.000000 0.000000 0.000000 0.027067 0.000000 0.000000
# 5 0.000000 0.000000 0.000000 0.000000 0.046405 0.000000
# 6 0.000000 0.000000 0.000000 0.000000 0.000000 0.033096
#
#
# Mechanical properties :
#
#
# Convention : Reuss Voigt Hill
#
# Bulk Modulus (GPa) = 75.40138 78.77830 77.08984
# Shear Modulus (GPa) = 30.32594 32.68577 31.50586
#
# Velocity S-wave (km/s) = 4.03399 4.18800 4.11172
# Velocity P-wave (km/s) = 7.88405 8.10300 7.99427
#
# Compressibility (1/GPa) = 0.01326236
#
# Stress axis : x y z
#
# Youngs Moduli (GPa) = 132.52007 80.18477 73.76075
#
# Poissons Ratio (x) = 0.18662 0.21003
# Poissons Ratio (y) = 0.30842 0.36743
# Poissons Ratio (z) = 0.37734 0.39943
#
# Static dielectric constant tensor:
#      x y z
#    x 1.627510 0.000000 0.000000 
#    y 0.000000 1.662370 0.000000 
#    z 0.000000 0.000000 1.659770 
# 
# From -- ./inp_files/62618.got.cif
#   From: 2010.05.17/outbox.cif.g08.bks.cpg/sg63_32_cif.got.tgz:62618.got - 2010.06.03 15:47:04.
