data_PCOD9474837
_publ_section_title
;
Structure prediction by ZEFSAII (Michael W. Deem and Ramdas Pophale) SiO2 
 PCOD9474837
Probable space group: C M C M
;
_chemical_formula_sum "Si O2"
_cell_formula_units_Z 80
_cell_length_a 25.850257
_cell_length_b 11.345814
_cell_length_c 15.196634
_cell_angle_alpha 90.000000
_cell_angle_beta 90.000000
_cell_angle_gamma 90.000000
_cell_volume 4457.054337
_symmetry_space_group_name_H-M "C M C M"
_symmetry_group_IT_number 63
_symmetry_cell_setting 'orthorhombic'
loop_
_space_group_symop_operation_xyz
x,y,z
-x,-y,1/2+z
x,-y,-z
-x,y,1/2-z
-x,-y,-z
x,y,1/2-z
-x,y,z
x,-y,1/2+z
1/2+x,1/2+y,z
1/2-x,1/2-y,1/2+z
1/2+x,1/2-y,-z
1/2-x,1/2+y,1/2-z
1/2-x,1/2-y,-z
1/2+x,1/2+y,1/2-z
1/2-x,1/2+y,z
1/2+x,1/2-y,1/2+z
loop_
_atom_site_type_symbol
_atom_site_label
_atom_site_fract_x
_atom_site_fract_y
_atom_site_fract_z
Si Si1 0.560667 0.780567 0.649237
Si Si2 0.630129 0.364250 0.476437
Si Si3 0.276120 0.240287 0.095520
Si Si4 0.163955 0.733294 0.843948
Si Si5 0.144575 0.470283 0.897170
O O1 0.568650 0.738320 0.750000
O O2 0.500000 0.803604 0.637381
O O3 0.581982 0.689980 0.576336
O O4 0.595423 0.897246 0.636415
O O5 0.625348 0.500000 0.500000
O O6 0.678869 0.338267 0.411012
O O7 0.641283 0.294982 0.568226
O O8 0.226210 0.253891 0.155208
O O9 0.306328 0.117879 0.110792
O O10 0.250000 0.250000 0.000000
O O11 0.143931 0.779651 0.750000
O O12 0.152390 0.594543 0.851032
O O13 0.138485 0.500000 0.000000
#
# Coordination Sequence:
#
# PCOD9474837 Si02
#       5
#    16  16  16  16  16
#     4  10  22  41  65  89 112 146 194 245 299 351
#     4  10  22  39  60  83 118 154 193 241 289 347
#     4   9  19  32  54  78 113 153 193 226 277 333
#     4  11  23  36  56  86 120 158 198 238 284 338
#     4  11  19  38  61  84 115 155 192 242 291 341
#
# _framework density 17.949075000000001
#
# number of rings (size 3 to 8) (size 9 to 14) (size 15 to 20)
#    0.000    1.800    6.000    0.600    5.600    5.600 
#    0.000    0.000    0.000    0.600    0.000    0.000 
#    0.000    0.000    0.000    0.000    0.000    0.000 
#
# Total GULP energy -222884.027080 kJ/mol
# GULP energy per Si atom -5572.100677 kJ/mol
# Density = 1.790822 g / cm^3
# Si number density = 17.949075 Si / 1000 Ang^3
#
#
#
# Elastic Constant Matrix: (Units=GPa)
#
#
# Indices 1 2 3 4 5 6 
#
# 1 102.3556 53.9944 40.8701 0.0000 0.0000 0.0000
# 2 53.9944 137.0220 43.5260 0.0000 0.0000 0.0000
# 3 40.8701 43.5260 118.9974 0.0000 0.0000 0.0000
# 4 0.0000 0.0000 0.0000 -1.4524 0.0000 0.0000
# 5 0.0000 0.0000 0.0000 0.0000 -46.4750 0.0000
# 6 0.0000 0.0000 0.0000 0.0000 0.0000 7.6305
#
#
#
# Elastic Compliance Matrix: (Units=1/GPa)
#
#
# Indices 1 2 3 4 5 6 
#
# 1 0.013205 -0.004257 -0.002978 0.000000 0.000000 0.000000
# 2 -0.004257 0.009630 -0.002060 0.000000 0.000000 0.000000
# 3 -0.002978 -0.002060 0.010180 0.000000 0.000000 0.000000
# 4 0.000000 0.000000 0.000000 -0.688504 0.000000 0.000000
# 5 0.000000 0.000000 0.000000 0.000000 -0.021517 0.000000
# 6 0.000000 0.000000 0.000000 0.000000 0.000000 0.131054
#
#
# Mechanical properties :
#
#
# Convention : Reuss Voigt Hill
#
# Bulk Modulus (GPa) = 69.33075 70.57290 69.95183
# Shear Modulus (GPa) = -9.56841 6.60624 -1.48108
#
# Velocity S-wave (km/s) = -2.31137 1.92056 -0.90937
# Velocity P-wave (km/s) = 5.62023 6.65746 6.16071
#
# Compressibility (1/GPa) = 0.01442361
#
# Stress axis : x y z
#
# Youngs Moduli (GPa) = 75.72970 103.83970 98.23254
#
# Poissons Ratio (x) = 0.44210 0.29254
# Poissons Ratio (y) = 0.32242 0.20238
# Poissons Ratio (z) = 0.22552 0.21393
#
# Static dielectric constant tensor:
#      x y z
#    x 1.636150 0.000000 0.000000 
#    y 0.000000 1.592770 0.000000 
#    z 0.000000 0.000000 1.648460 
# 
# From -- ./inp_files/36471.got.cif
#   From: 2010.05.17/outbox.cif.g08.bks.cpg/sg63_19_cif.got.tgz:36471.got - 2010.06.03 15:47:04.
