data_PCOD9474596
_publ_section_title
;
Structure prediction by ZEFSAII (Michael W. Deem and Ramdas Pophale) SiO2 
 PCOD9474596
Probable space group: C M C M
;
_chemical_formula_sum "Si O2"
_cell_formula_units_Z 64
_cell_length_a 13.787765
_cell_length_b 24.381405
_cell_length_c 9.288546
_cell_angle_alpha 90.000000
_cell_angle_beta 90.000000
_cell_angle_gamma 90.000000
_cell_volume 3122.484832
_symmetry_space_group_name_H-M "C M C M"
_symmetry_group_IT_number 63
_symmetry_cell_setting 'orthorhombic'
loop_
_space_group_symop_operation_xyz
x,y,z
-x,-y,1/2+z
x,-y,-z
-x,y,1/2-z
-x,-y,-z
x,y,1/2-z
-x,y,z
x,-y,1/2+z
1/2+x,1/2+y,z
1/2-x,1/2-y,1/2+z
1/2+x,1/2-y,-z
1/2-x,1/2+y,1/2-z
1/2-x,1/2-y,-z
1/2+x,1/2+y,1/2-z
1/2-x,1/2+y,z
1/2+x,1/2-y,1/2+z
loop_
_atom_site_type_symbol
_atom_site_label
_atom_site_fract_x
_atom_site_fract_y
_atom_site_fract_z
Si Si1 0.000000 0.434655 0.473126
Si Si2 0.607353 0.362666 0.079328
Si Si3 0.779052 0.556021 0.587900
Si Si4 0.500000 0.178246 0.412697
Si Si5 0.852719 0.751522 0.576651
O O1 0.000000 0.500000 0.500000
O O2 0.892206 0.425562 0.407947
O O3 0.000000 0.387479 0.593181
O O4 0.620031 0.347697 0.250000
O O5 0.500000 0.389532 0.068151
O O6 0.700085 0.399500 0.036306
O O7 0.605129 0.309085 0.979774
O O8 0.774546 0.500000 0.500000
O O9 0.749192 0.543318 0.750000
O O10 0.500000 0.200488 0.250000
O O11 0.411310 0.201824 0.504872
O O12 0.850860 0.747932 0.750000
O O13 0.750000 0.750000 0.500000
#
# Coordination Sequence:
#
# PCOD9474596 Si02
#       5
#     8  16  16   8  16
#     4  10  23  41  64  91 126 164 212 265 324 388
#     4  10  21  40  64  90 128 172 217 271 330 390
#     4  10  22  39  62  92 125 169 219 273 333 391
#     4  12  25  43  67  97 130 168 214 265 328 394
#     4  12  25  41  64  95 130 171 218 268 326 389
#
# _framework density 20.496497000000002
#
# number of rings (size 3 to 8) (size 9 to 14) (size 15 to 20)
#    0.000    1.250    1.250    4.500    0.000    9.500 
#    0.000    0.000    0.000    0.000    0.000    0.000 
#    0.000    0.000    0.000    0.000    0.000    0.000 
#
# Total GULP energy -178298.293903 kJ/mol
# GULP energy per Si atom -5571.821684 kJ/mol
# Density = 2.044985 g / cm^3
# Si number density = 20.496497 Si / 1000 Ang^3
#
#
#
# Elastic Constant Matrix: (Units=GPa)
#
#
# Indices 1 2 3 4 5 6 
#
# 1 166.1625 53.4432 37.4066 0.0000 0.0000 0.0000
# 2 53.4432 110.0540 53.7343 0.0000 0.0000 0.0000
# 3 37.4066 53.7343 136.1501 0.0000 0.0000 0.0000
# 4 0.0000 0.0000 0.0000 30.0606 0.0000 0.0000
# 5 0.0000 0.0000 0.0000 0.0000 22.7937 0.0000
# 6 0.0000 0.0000 0.0000 0.0000 0.0000 38.3998
#
#
#
# Elastic Compliance Matrix: (Units=1/GPa)
#
#
# Indices 1 2 3 4 5 6 
#
# 1 0.007192 -0.003131 -0.000740 0.000000 0.000000 0.000000
# 2 -0.003131 0.012618 -0.004120 0.000000 0.000000 0.000000
# 3 -0.000740 -0.004120 0.009174 0.000000 0.000000 0.000000
# 4 0.000000 0.000000 0.000000 0.033266 0.000000 0.000000
# 5 0.000000 0.000000 0.000000 0.000000 0.043872 0.000000
# 6 0.000000 0.000000 0.000000 0.000000 0.000000 0.026042
#
#
# Mechanical properties :
#
#
# Convention : Reuss Voigt Hill
#
# Bulk Modulus (GPa) = 76.90959 77.94831 77.42895
# Shear Modulus (GPa) = 32.79106 36.10300 34.44703
#
# Velocity S-wave (km/s) = 4.00414 4.20148 4.10400
# Velocity P-wave (km/s) = 7.67999 7.85170 7.76632
#
# Compressibility (1/GPa) = 0.01300228
#
# Stress axis : x y z
#
# Youngs Moduli (GPa) = 139.04573 79.24897 109.00131
#
# Poissons Ratio (x) = 0.24813 0.08068
# Poissons Ratio (y) = 0.43536 0.44907
# Poissons Ratio (z) = 0.10292 0.32650
#
# Static dielectric constant tensor:
#      x y z
#    x 1.584390 0.000000 0.000000 
#    y 0.000000 1.744860 0.000000 
#    z 0.000000 0.000000 1.693080 
# 
# From -- ./inp_files/4299.got.cif
#   From: 2010.05.17/outbox.cif.g08.bks.cpg/sg63_3_cif.got.tgz:4299.got - 2010.06.03 15:47:04.
