data_PCOD9474294
_publ_section_title
;
Structure prediction by ZEFSAII (Michael W. Deem and Ramdas Pophale) SiO2 
 PCOD9474294
Probable space group: C M C M
;
_chemical_formula_sum "Si O2"
_cell_formula_units_Z 96
_cell_length_a 8.291304
_cell_length_b 20.619216
_cell_length_c 28.731740
_cell_angle_alpha 90.000000
_cell_angle_beta 90.000000
_cell_angle_gamma 90.000000
_cell_volume 4911.983675
_symmetry_space_group_name_H-M "C M C M"
_symmetry_group_IT_number 63
_symmetry_cell_setting 'orthorhombic'
loop_
_space_group_symop_operation_xyz
x,y,z
-x,-y,1/2+z
x,-y,-z
-x,y,1/2-z
-x,-y,-z
x,y,1/2-z
-x,y,z
x,-y,1/2+z
1/2+x,1/2+y,z
1/2-x,1/2-y,1/2+z
1/2+x,1/2-y,-z
1/2-x,1/2+y,1/2-z
1/2-x,1/2-y,-z
1/2+x,1/2+y,1/2-z
1/2-x,1/2+y,z
1/2+x,1/2-y,1/2+z
loop_
_atom_site_type_symbol
_atom_site_label
_atom_site_fract_x
_atom_site_fract_y
_atom_site_fract_z
Si Si1 0.805224 0.194951 0.697827
Si Si2 0.693925 0.953032 0.301518
Si Si3 0.188434 0.646786 0.947692
Si Si4 0.685915 0.616382 0.452382
Si Si5 0.304724 0.010334 0.901107
Si Si6 0.810615 0.268126 0.606312
O O1 0.761045 0.216710 0.750000
O O2 0.736878 0.122623 0.691439
O O3 0.753179 0.241971 0.656423
O O4 0.000000 0.190261 0.695426
O O5 0.755163 0.972084 0.250000
O O6 0.500000 0.958202 0.300700
O O7 0.749795 0.991417 0.347180
O O8 0.238818 0.580654 0.921788
O O9 0.285942 0.708089 0.928923
O O10 0.000000 0.658461 0.937332
O O11 0.211686 0.635345 0.002351
O O12 0.500000 0.616422 0.466519
O O13 0.733880 0.546859 0.431971
O O14 0.717596 0.670317 0.413261
O O15 0.500000 0.005453 0.902660
O O16 0.000000 0.284414 0.609317
#
# Coordination Sequence:
#
# PCOD9474294 Si02
#       6
#    16  16  16  16  16  16
#     4   9  18  33  56  86 115 144 182 229 278 328
#     4   9  17  32  57  87 115 145 183 226 275 333
#     4  11  22  39  62  86 113 147 189 236 283 336
#     4  12  26  40  56  80 114 153 193 237 284 336
#     4  10  21  38  59  85 116 150 186 229 281 335
#     4  11  22  38  60  85 116 151 189 232 280 336
#
# _framework density 19.544038
#
# number of rings (size 3 to 8) (size 9 to 14) (size 15 to 20)
#    0.000    1.667    1.667    3.500    0.000    4.667 
#    0.000    0.833    0.000    5.000    0.000    0.000 
#    0.000    0.000    0.000    0.000    0.000    0.000 
#
# Total GULP energy -268159.364095 kJ/mol
# GULP energy per Si atom -5586.653419 kJ/mol
# Density = 1.949955 g / cm^3
# Si number density = 19.544038 Si / 1000 Ang^3
#
#
#
# Elastic Constant Matrix: (Units=GPa)
#
#
# Indices 1 2 3 4 5 6 
#
# 1 14.8759 3.3880 -8.0277 0.0000 0.0000 0.0000
# 2 3.3880 20.8057 -24.5136 0.0000 0.0000 0.0000
# 3 -8.0277 -24.5136 71.4018 0.0000 0.0000 0.0000
# 4 0.0000 0.0000 0.0000 -3.7067 0.0000 0.0000
# 5 0.0000 0.0000 0.0000 0.0000 15.5293 0.0000
# 6 0.0000 0.0000 0.0000 0.0000 0.0000 30.5035
#
#
#
# Elastic Compliance Matrix: (Units=1/GPa)
#
#
# Indices 1 2 3 4 5 6 
#
# 1 0.071730 -0.003658 0.006809 0.000000 0.000000 0.000000
# 2 -0.003658 0.080899 0.027363 0.000000 0.000000 0.000000
# 3 0.006809 0.027363 0.024165 0.000000 0.000000 0.000000
# 4 0.000000 0.000000 0.000000 -0.269779 0.000000 0.000000
# 5 0.000000 0.000000 0.000000 0.000000 0.064394 0.000000
# 6 0.000000 0.000000 0.000000 0.000000 0.000000 0.032783
#
#
# Mechanical properties :
#
#
# Convention : Reuss Voigt Hill
#
# Bulk Modulus (GPa) = 4.20486 5.41963 4.81225
# Shear Modulus (GPa) = 222.82361 17.54766 120.18563
#
# Velocity S-wave (km/s) = 10.68918 2.99967 7.85037
# Velocity P-wave (km/s) = 12.42984 3.84401 9.19993
#
# Compressibility (1/GPa) = 0.23781992
#
# Stress axis : x y z
#
# Youngs Moduli (GPa) = 13.94112 12.36116 41.38236
#
# Poissons Ratio (x) = 0.04522 -0.28176
# Poissons Ratio (y) = 0.05100 -1.13233
# Poissons Ratio (z) = -0.09492 -0.33823
#
# Static dielectric constant tensor:
#      x y z
#    x 1.667410 0.000000 0.000000 
#    y 0.000000 1.632370 0.000000 
#    z 0.000000 0.000000 1.714620 
# 
# From -- ./inp_files/66917.got.cif
#   From: 2010.05.17/outbox.cif.g08.bks.cpg/sg63_34_cif.got.tgz:66917.got - 2010.06.03 15:47:04.
