data_PCOD9474271
_publ_section_title
;
Structure prediction by ZEFSAII (Michael W. Deem and Ramdas Pophale) SiO2 
 PCOD9474271
Probable space group: C M C M
;
_chemical_formula_sum "Si O2"
_cell_formula_units_Z 96
_cell_length_a 28.350653
_cell_length_b 16.314278
_cell_length_c 9.634088
_cell_angle_alpha 90.000000
_cell_angle_beta 90.000000
_cell_angle_gamma 90.000000
_cell_volume 4455.962568
_symmetry_space_group_name_H-M "C M C M"
_symmetry_group_IT_number 63
_symmetry_cell_setting 'orthorhombic'
loop_
_space_group_symop_operation_xyz
x,y,z
-x,-y,1/2+z
x,-y,-z
-x,y,1/2-z
-x,-y,-z
x,y,1/2-z
-x,y,z
x,-y,1/2+z
1/2+x,1/2+y,z
1/2-x,1/2-y,1/2+z
1/2+x,1/2-y,-z
1/2-x,1/2+y,1/2-z
1/2-x,1/2-y,-z
1/2+x,1/2+y,1/2-z
1/2-x,1/2+y,z
1/2+x,1/2-y,1/2+z
loop_
_atom_site_type_symbol
_atom_site_label
_atom_site_fract_x
_atom_site_fract_y
_atom_site_fract_z
Si Si1 0.247210 0.579028 0.589090
Si Si2 0.802336 0.201314 0.408995
Si Si3 0.613242 0.422081 0.596570
Si Si4 0.054090 0.815075 0.399466
Si Si5 0.357120 0.866038 0.090209
Si Si6 0.446565 0.882390 0.910166
O O1 0.262225 0.500000 0.500000
O O2 0.263178 0.575065 0.750000
O O3 0.264340 0.663878 0.516271
O O4 0.190221 0.580060 0.589056
O O5 0.785104 0.219889 0.250000
O O6 0.837421 0.124479 0.396762
O O7 0.835614 0.277233 0.456042
O O8 0.615977 0.500000 0.500000
O O9 0.597710 0.445333 0.750000
O O10 0.578612 0.357140 0.527049
O O11 0.076648 0.836583 0.250000
O O12 0.053842 0.716930 0.409561
O O13 0.000000 0.841980 0.396728
O O14 0.372779 0.855490 0.250000
O O15 0.400717 0.900887 0.002456
O O16 0.440698 0.909960 0.750000
O O17 0.500000 0.906485 0.956001
#
# Coordination Sequence:
#
# PCOD9474271 Si02
#       6
#    16  16  16  16  16  16
#     4  11  24  40  60  85 117 153 190 233 285 341
#     4  10  21  38  58  83 113 145 190 236 279 334
#     4  11  22  34  50  72 103 143 185 231 278 329
#     4   9  18  33  51  72 101 137 180 228 277 331
#     4  10  21  38  60  89 118 148 189 236 283 336
#     4   9  18  33  56  87 118 148 184 229 282 338
#
# _framework density 21.544167000000002
#
# number of rings (size 3 to 8) (size 9 to 14) (size 15 to 20)
#    0.000    2.000    1.667    3.000    0.000    5.667 
#    0.000    1.667    0.000    0.500    0.000    0.000 
#    0.000    0.000    0.000    0.000    0.000    0.000 
#
# Total GULP energy -267815.951820 kJ/mol
# GULP energy per Si atom -5579.498996 kJ/mol
# Density = 2.149513 g / cm^3
# Si number density = 21.544167 Si / 1000 Ang^3
#
#
#
# Elastic Constant Matrix: (Units=GPa)
#
#
# Indices 1 2 3 4 5 6 
#
# 1 98.9923 -0.6588 52.9539 0.0000 0.0000 0.0000
# 2 -0.6588 73.8558 31.7938 0.0000 0.0000 0.0000
# 3 52.9539 31.7938 123.1339 0.0000 0.0000 0.0000
# 4 0.0000 0.0000 0.0000 19.4358 0.0000 0.0000
# 5 0.0000 0.0000 0.0000 0.0000 31.1321 0.0000
# 6 0.0000 0.0000 0.0000 0.0000 0.0000 7.3941
#
#
#
# Elastic Compliance Matrix: (Units=1/GPa)
#
#
# Indices 1 2 3 4 5 6 
#
# 1 0.013682 0.002987 -0.006655 0.000000 0.000000 0.000000
# 2 0.002987 0.015885 -0.005386 0.000000 0.000000 0.000000
# 3 -0.006655 -0.005386 0.012374 0.000000 0.000000 0.000000
# 4 0.000000 0.000000 0.000000 0.051452 0.000000 0.000000
# 5 0.000000 0.000000 0.000000 0.000000 0.032121 0.000000
# 6 0.000000 0.000000 0.000000 0.000000 0.000000 0.135243
#
#
# Mechanical properties :
#
#
# Convention : Reuss Voigt Hill
#
# Bulk Modulus (GPa) = 41.95991 51.57330 46.76661
# Shear Modulus (GPa) = 17.43321 25.71861 21.57591
#
# Velocity S-wave (km/s) = 2.84770 3.45883 3.16804
# Velocity P-wave (km/s) = 5.50736 6.31995 5.92760
#
# Compressibility (1/GPa) = 0.02383227
#
# Stress axis : x y z
#
# Youngs Moduli (GPa) = 73.09056 62.95168 80.81461
#
# Poissons Ratio (x) = -0.18803 0.53783
# Poissons Ratio (y) = -0.21832 0.43528
# Poissons Ratio (z) = 0.48642 0.33907
#
# Static dielectric constant tensor:
#      x y z
#    x 1.803370 0.000000 0.000000 
#    y 0.000000 1.809640 0.000000 
#    z 0.000000 0.000000 1.816540 
# 
# From -- ./inp_files/12323.got.cif
#   From: 2010.05.17/outbox.cif.g08.bks.cpg/sg63_7_cif.got.tgz:12323.got - 2010.06.03 15:47:04.
