data_PCOD9474051
_publ_section_title
;
Structure prediction by ZEFSAII (Michael W. Deem and Ramdas Pophale) SiO2 
 PCOD9474051
Probable space group: C M C M
;
_chemical_formula_sum "Si O2"
_cell_formula_units_Z 96
_cell_length_a 14.096531
_cell_length_b 22.512995
_cell_length_c 14.962303
_cell_angle_alpha 90.000000
_cell_angle_beta 90.000000
_cell_angle_gamma 90.000000
_cell_volume 4748.363642
_symmetry_space_group_name_H-M "C M C M"
_symmetry_group_IT_number 63
_symmetry_cell_setting 'orthorhombic'
loop_
_space_group_symop_operation_xyz
x,y,z
-x,-y,1/2+z
x,-y,-z
-x,y,1/2-z
-x,-y,-z
x,y,1/2-z
-x,y,z
x,-y,1/2+z
1/2+x,1/2+y,z
1/2-x,1/2-y,1/2+z
1/2+x,1/2-y,-z
1/2-x,1/2+y,1/2-z
1/2-x,1/2-y,-z
1/2+x,1/2+y,1/2-z
1/2-x,1/2+y,z
1/2+x,1/2-y,1/2+z
loop_
_atom_site_type_symbol
_atom_site_label
_atom_site_fract_x
_atom_site_fract_y
_atom_site_fract_z
Si Si1 0.186491 0.044653 0.750000
Si Si2 0.895551 0.676612 0.391551
Si Si3 0.299630 0.150736 0.750000
Si Si4 0.893396 0.922043 0.750000
Si Si5 0.891174 0.724023 0.908052
Si Si6 0.806989 0.146338 0.408619
Si Si7 0.111358 0.063118 0.949013
Si Si8 0.604334 0.718571 0.750000
O O1 0.285587 0.080128 0.750000
O O2 0.135701 0.059531 0.844374
O O3 0.184228 0.973631 0.750000
O O4 0.891066 0.694144 0.495153
O O5 0.800996 0.639109 0.375095
O O6 0.889460 0.737014 0.334130
O O7 0.000000 0.650448 0.371902
O O8 0.350552 0.178710 0.835526
O O9 0.191445 0.174546 0.750000
O O10 0.877318 0.882830 0.662818
O O11 0.000000 0.947755 0.750000
O O12 0.829719 0.783912 0.912077
O O13 0.000000 0.739920 0.885443
O O14 0.827377 0.113628 0.501793
O O15 0.000000 0.076869 0.959874
O O16 0.128680 0.000000 0.000000
O O17 0.500000 0.689800 0.750000
#
# Coordination Sequence:
#
# PCOD9474051 Si02
#       8
#     8  16   8   8  16  16  16   8
#     4  12  26  41  60  89 132 175 208 257 319 381
#     4  10  22  40  60  88 128 164 205 262 311 374
#     4  12  24  41  61  91 131 173 209 261 318 384
#     4  12  24  41  63  94 130 164 214 267 315 377
#     4  11  23  40  65  97 130 164 212 264 320 386
#     4  12  22  39  67  96 125 171 212 262 322 385
#     4  11  23  40  61  91 132 170 209 259 319 385
#     4  10  21  37  55  84 121 162 206 249 305 366
#
# _framework density 20.217492
#
# number of rings (size 3 to 8) (size 9 to 14) (size 15 to 20)
#    0.000    0.833    3.333    5.000    2.333    1.000 
#    0.000    0.000    0.000    2.500    0.000    0.000 
#    0.000    0.000    0.000    0.000    0.000    0.000 
#
# Total GULP energy -268334.434340 kJ/mol
# GULP energy per Si atom -5590.300715 kJ/mol
# Density = 2.017148 g / cm^3
# Si number density = 20.217492 Si / 1000 Ang^3
#
#
#
# Elastic Constant Matrix: (Units=GPa)
#
#
# Indices 1 2 3 4 5 6 
#
# 1 107.2399 16.4864 15.2758 0.0000 0.0000 0.0000
# 2 16.4864 54.9732 12.8062 0.0000 0.0000 0.0000
# 3 15.2758 12.8062 111.0119 0.0000 0.0000 0.0000
# 4 0.0000 0.0000 0.0000 26.5148 0.0000 0.0000
# 5 0.0000 0.0000 0.0000 0.0000 25.7042 0.0000
# 6 0.0000 0.0000 0.0000 0.0000 0.0000 26.8515
#
#
#
# Elastic Compliance Matrix: (Units=1/GPa)
#
#
# Indices 1 2 3 4 5 6 
#
# 1 0.009893 -0.002723 -0.001047 0.000000 0.000000 0.000000
# 2 -0.002723 0.019442 -0.001868 0.000000 0.000000 0.000000
# 3 -0.001047 -0.001868 0.009368 0.000000 0.000000 0.000000
# 4 0.000000 0.000000 0.000000 0.037715 0.000000 0.000000
# 5 0.000000 0.000000 0.000000 0.000000 0.038904 0.000000
# 6 0.000000 0.000000 0.000000 0.000000 0.000000 0.037242
#
#
# Mechanical properties :
#
#
# Convention : Reuss Voigt Hill
#
# Bulk Modulus (GPa) = 36.46127 40.26240 38.36184
# Shear Modulus (GPa) = 28.90474 31.05789 29.98132
#
# Velocity S-wave (km/s) = 3.78523 3.92368 3.85507
# Velocity P-wave (km/s) = 6.09734 6.36277 6.23147
#
# Compressibility (1/GPa) = 0.02742636
#
# Stress axis : x y z
#
# Youngs Moduli (GPa) = 101.08522 51.43383 106.75035
#
# Poissons Ratio (x) = 0.14005 0.11179
# Poissons Ratio (y) = 0.27524 0.19943
# Poissons Ratio (z) = 0.10585 0.09609
#
# Static dielectric constant tensor:
#      x y z
#    x 1.732340 0.000000 0.000000 
#    y 0.000000 1.716600 0.000000 
#    z 0.000000 0.000000 1.727410 
# 
# From -- ./inp_files/32017.got.cif
#   From: 2010.05.17/outbox.cif.g08.bks.cpg/sg63_17_cif.got.tgz:32017.got - 2010.06.03 15:47:04.
