data_PCOD9474045
_publ_section_title
;
Structure prediction by ZEFSAII (Michael W. Deem and Ramdas Pophale) SiO2 
 PCOD9474045
Probable space group: C M C M
;
_chemical_formula_sum "Si O2"
_cell_formula_units_Z 80
_cell_length_a 9.458079
_cell_length_b 20.252685
_cell_length_c 25.030330
_cell_angle_alpha 90.000000
_cell_angle_beta 90.000000
_cell_angle_gamma 90.000000
_cell_volume 4794.597124
_symmetry_space_group_name_H-M "C M C M"
_symmetry_group_IT_number 63
_symmetry_cell_setting 'orthorhombic'
loop_
_space_group_symop_operation_xyz
x,y,z
-x,-y,1/2+z
x,-y,-z
-x,y,1/2-z
-x,-y,-z
x,y,1/2-z
-x,y,z
x,-y,1/2+z
1/2+x,1/2+y,z
1/2-x,1/2-y,1/2+z
1/2+x,1/2-y,-z
1/2-x,1/2+y,1/2-z
1/2-x,1/2-y,-z
1/2+x,1/2+y,1/2-z
1/2-x,1/2+y,z
1/2+x,1/2-y,1/2+z
loop_
_atom_site_type_symbol
_atom_site_label
_atom_site_fract_x
_atom_site_fract_y
_atom_site_fract_z
Si Si1 0.334159 0.071745 0.473990
Si Si2 0.668802 0.310368 0.027928
Si Si3 0.337019 0.393758 0.750000
Si Si4 0.337849 0.232929 0.750000
Si Si5 0.834421 0.234616 0.646382
Si Si6 0.333150 0.108215 0.354945
O O1 0.500000 0.092639 0.478245
O O2 0.234925 0.123398 0.504082
O O3 0.299962 0.072959 0.410847
O O4 0.320738 0.000000 0.500000
O O5 0.500000 0.306007 0.018588
O O6 0.692870 0.303224 0.091395
O O7 0.750000 0.250000 0.000000
O O8 0.500000 0.414416 0.750000
O O9 0.333246 0.313335 0.750000
O O10 0.256979 0.414214 0.804041
O O11 0.500000 0.212119 0.750000
O O12 0.258612 0.212015 0.803800
O O13 0.808163 0.313023 0.636753
O O14 0.000000 0.228461 0.660076
O O15 0.500000 0.100151 0.343439
#
# Coordination Sequence:
#
# PCOD9474045 Si02
#       6
#    16  16   8   8  16  16
#     4  10  21  37  55  77 108 143 179 219 265 315
#     4  11  21  34  54  79 107 139 177 216 260 312
#     4   9  17  27  43  72 101 128 165 213 261 300
#     4   9  17  27  43  72 103 130 163 211 263 306
#     4   9  17  30  48  71 101 136 170 208 258 315
#     4   9  16  30  49  71 100 135 170 207 258 314
#
# _framework density 16.685448000000001
#
# number of rings (size 3 to 8) (size 9 to 14) (size 15 to 20)
#    0.000    2.400    2.000    1.200    0.000    5.200 
#    0.000    0.000    0.000    1.200    0.000    1.400 
#    0.000    0.000    0.000    0.000    0.000    0.000 
#
# Total GULP energy -223048.313865 kJ/mol
# GULP energy per Si atom -5576.207847 kJ/mol
# Density = 1.664747 g / cm^3
# Si number density = 16.685448 Si / 1000 Ang^3
#
#
#
# Elastic Constant Matrix: (Units=GPa)
#
#
# Indices 1 2 3 4 5 6 
#
# 1 101.9611 42.0238 106.9517 0.0000 0.0000 0.0000
# 2 42.0238 39.7403 45.5977 0.0000 0.0000 0.0000
# 3 106.9517 45.5977 173.1710 0.0000 0.0000 0.0000
# 4 0.0000 0.0000 0.0000 16.2983 0.0000 0.0000
# 5 0.0000 0.0000 0.0000 0.0000 32.2640 0.0000
# 6 0.0000 0.0000 0.0000 0.0000 0.0000 18.1711
#
#
#
# Elastic Compliance Matrix: (Units=1/GPa)
#
#
# Indices 1 2 3 4 5 6 
#
# 1 0.034509 -0.017249 -0.016771 0.000000 0.000000 0.000000
# 2 -0.017249 0.044678 -0.001111 0.000000 0.000000 0.000000
# 3 -0.016771 -0.001111 0.016425 0.000000 0.000000 0.000000
# 4 0.000000 0.000000 0.000000 0.061356 0.000000 0.000000
# 5 0.000000 0.000000 0.000000 0.000000 0.030994 0.000000
# 6 0.000000 0.000000 0.000000 0.000000 0.000000 0.055032
#
#
# Mechanical properties :
#
#
# Convention : Reuss Voigt Hill
#
# Bulk Modulus (GPa) = 39.44761 78.22428 58.83595
# Shear Modulus (GPa) = 15.54207 21.36663 18.45435
#
# Velocity S-wave (km/s) = 3.05532 3.58237 3.32929
# Velocity P-wave (km/s) = 6.01164 8.00591 7.07935
#
# Compressibility (1/GPa) = 0.02535008
#
# Stress axis : x y z
#
# Youngs Moduli (GPa) = 28.97811 22.38224 60.88178
#
# Poissons Ratio (x) = 0.38606 1.02106
# Poissons Ratio (y) = 0.49983 0.06766
# Poissons Ratio (z) = 0.48600 0.02488
#
# Static dielectric constant tensor:
#      x y z
#    x 1.559510 0.000000 0.000000 
#    y 0.000000 1.536540 0.000000 
#    z 0.000000 0.000000 1.557040 
# 
# From -- ./inp_files/59549.got.cif
#   From: 2010.05.17/outbox.cif.g08.bks.cpg/sg63_30_cif.got.tgz:59549.got - 2010.06.03 15:47:04.
