data_PCOD9474935
_publ_section_title
;
Structure prediction by ZEFSAII (Michael W. Deem and Ramdas Pophale) SiO2 
 PCOD9474935
Probable space group: C M C M
;
_chemical_formula_sum "Si O2"
_cell_formula_units_Z 112
_cell_length_a 13.759098
_cell_length_b 13.570826
_cell_length_c 29.700318
_cell_angle_alpha 90.000000
_cell_angle_beta 90.000000
_cell_angle_gamma 90.000000
_cell_volume 5545.712426
_symmetry_space_group_name_H-M "C M C M"
_symmetry_group_IT_number 63
_symmetry_cell_setting 'orthorhombic'
loop_
_space_group_symop_operation_xyz
x,y,z
-x,-y,1/2+z
x,-y,-z
-x,y,1/2-z
-x,-y,-z
x,y,1/2-z
-x,y,z
x,-y,1/2+z
1/2+x,1/2+y,z
1/2-x,1/2-y,1/2+z
1/2+x,1/2-y,-z
1/2-x,1/2+y,1/2-z
1/2-x,1/2-y,-z
1/2+x,1/2+y,1/2-z
1/2-x,1/2+y,z
1/2+x,1/2-y,1/2+z
loop_
_atom_site_type_symbol
_atom_site_label
_atom_site_fract_x
_atom_site_fract_y
_atom_site_fract_z
Si Si1 0.693997 0.676801 0.162011
Si Si2 0.609768 0.937155 0.640558
Si Si3 0.386002 0.765978 0.430391
Si Si4 0.307486 0.887728 0.197991
Si Si5 0.307304 0.021222 0.553317
Si Si6 0.394330 0.558796 0.453864
Si Si7 0.105930 0.975850 0.195678
O O1 0.804841 0.636894 0.156853
O O2 0.654078 0.716179 0.114707
O O3 0.679030 0.771386 0.193535
O O4 0.631566 0.584581 0.178612
O O5 0.500000 0.902946 0.649249
O O6 0.628138 0.041223 0.666614
O O7 0.624091 0.961350 0.587532
O O8 0.500000 0.791751 0.426397
O O9 0.327039 0.863541 0.440832
O O10 0.376814 0.674069 0.464471
O O11 0.320125 0.918357 0.250000
O O12 0.196491 0.907984 0.182861
O O13 0.199345 0.988530 0.569203
O O14 0.318650 0.000000 0.500000
O O15 0.401105 0.500000 0.500000
O O16 0.500000 0.552810 0.430461
O O17 0.104464 0.977817 0.250000
O O18 0.000000 0.943595 0.179577
#
# Coordination Sequence:
#
# PCOD9474935 Si02
#       7
#    16  16  16  16  16  16  16
#     4  11  21  38  60  87 121 157 199 253 303 362
#     4  11  24  42  61  91 129 165 210 260 316 375
#     4  11  22  38  61  88 118 160 202 249 307 366
#     4  10  22  40  63  88 121 161 201 248 308 373
#     4  11  23  40  66  90 126 165 212 261 315 372
#     4   9  20  40  63  88 119 157 203 252 306 369
#     4   9  19  36  59  87 115 147 192 243 296 359
#
# _framework density 20.195782000000001
#
# number of rings (size 3 to 8) (size 9 to 14) (size 15 to 20)
#    0.000    1.714    2.857    1.286    0.000    5.429 
#    0.000    0.714    0.000    0.000    0.000    0.000 
#    0.000    0.000    0.000    0.000    0.000    0.000 
#
# Total GULP energy -312420.112622 kJ/mol
# GULP energy per Si atom -5578.930583 kJ/mol
# Density = 2.014982 g / cm^3
# Si number density = 20.195782 Si / 1000 Ang^3
#
#
#
# Elastic Constant Matrix: (Units=GPa)
#
#
# Indices 1 2 3 4 5 6 
#
# 1 101.4833 12.0093 -2.9660 0.0000 0.0000 0.0000
# 2 12.0093 69.5656 -11.3438 0.0000 0.0000 0.0000
# 3 -2.9660 -11.3438 36.7282 0.0000 0.0000 0.0000
# 4 0.0000 0.0000 0.0000 30.2301 0.0000 0.0000
# 5 0.0000 0.0000 0.0000 0.0000 17.3548 0.0000
# 6 0.0000 0.0000 0.0000 0.0000 0.0000 16.5267
#
#
#
# Elastic Compliance Matrix: (Units=1/GPa)
#
#
# Indices 1 2 3 4 5 6 
#
# 1 0.010062 -0.001690 0.000291 0.000000 0.000000 0.000000
# 2 -0.001690 0.015421 0.004626 0.000000 0.000000 0.000000
# 3 0.000291 0.004626 0.028679 0.000000 0.000000 0.000000
# 4 0.000000 0.000000 0.000000 0.033080 0.000000 0.000000
# 5 0.000000 0.000000 0.000000 0.000000 0.057621 0.000000
# 6 0.000000 0.000000 0.000000 0.000000 0.000000 0.060508
#
#
# Mechanical properties :
#
#
# Convention : Reuss Voigt Hill
#
# Bulk Modulus (GPa) = 16.49680 22.57511 19.53596
# Shear Modulus (GPa) = 22.81828 26.82748 24.82288
#
# Velocity S-wave (km/s) = 3.36498 3.64864 3.50967
# Velocity P-wave (km/s) = 4.82531 5.38075 5.11058
#
# Compressibility (1/GPa) = 0.06061781
#
# Stress axis : x y z
#
# Youngs Moduli (GPa) = 99.38093 64.84641 34.86818
#
# Poissons Ratio (x) = 0.10957 -0.01014
# Poissons Ratio (y) = 0.16792 -0.16132
# Poissons Ratio (z) = -0.02889 -0.30001
#
# Static dielectric constant tensor:
#      x y z
#    x 1.777030 0.000000 0.000000 
#    y 0.000000 1.704220 0.000000 
#    z 0.000000 0.000000 1.756320 
# 
# From -- ./inp_files/73426.got.cif
#   From: 2010.05.17/outbox.cif.g08.bks.cpg/sg63_37_cif.got.tgz:73426.got - 2010.06.03 15:47:04.
