data_PCOD9474093
_publ_section_title
;
Structure prediction by ZEFSAII (Michael W. Deem and Ramdas Pophale) SiO2 
 PCOD9474093
Probable space group: C M C M
;
_chemical_formula_sum "Si O2"
_cell_formula_units_Z 64
_cell_length_a 10.999357
_cell_length_b 19.684073
_cell_length_c 13.539405
_cell_angle_alpha 90.000000
_cell_angle_beta 90.000000
_cell_angle_gamma 90.000000
_cell_volume 2931.445634
_symmetry_space_group_name_H-M "C M C M"
_symmetry_group_IT_number 63
_symmetry_cell_setting 'orthorhombic'
loop_
_space_group_symop_operation_xyz
x,y,z
-x,-y,1/2+z
x,-y,-z
-x,y,1/2-z
-x,-y,-z
x,y,1/2-z
-x,y,z
x,-y,1/2+z
1/2+x,1/2+y,z
1/2-x,1/2-y,1/2+z
1/2+x,1/2-y,-z
1/2-x,1/2+y,1/2-z
1/2-x,1/2-y,-z
1/2+x,1/2+y,1/2-z
1/2-x,1/2+y,z
1/2+x,1/2-y,1/2+z
loop_
_atom_site_type_symbol
_atom_site_label
_atom_site_fract_x
_atom_site_fract_y
_atom_site_fract_z
Si Si1 0.863115 0.014487 0.631208
Si Si2 0.866970 0.425504 0.632962
Si Si3 0.133533 0.829891 0.428518
Si Si4 0.779546 0.205653 0.138100
O O1 0.860879 0.016667 0.750000
O O2 0.847074 0.091051 0.593204
O O3 0.000000 0.989660 0.604667
O O4 0.751020 0.967410 0.598998
O O5 0.874658 0.439766 0.750000
O O6 0.833591 0.346170 0.624379
O O7 0.000000 0.440131 0.589003
O O8 0.137400 0.813904 0.545474
O O9 0.233061 0.781978 0.377881
O O10 0.000000 0.812511 0.389034
O O11 0.826591 0.195413 0.250000
#
# Coordination Sequence:
#
# PCOD9474093 Si02
#       4
#    16  16  16  16
#     4   9  18  34  57  84 114 149 189 233 280 333
#     4   9  18  34  57  83 112 149 189 230 281 338
#     4  10  21  37  58  83 110 146 191 235 284 341
#     4  10  21  37  57  82 112 146 187 236 286 339
#
# _framework density 21.832232000000001
#
# number of rings (size 3 to 8) (size 9 to 14) (size 15 to 20)
#    0.000    2.500    0.000    1.500    0.000    5.000 
#    0.000   12.500    0.000    6.000    0.000    0.000 
#    0.000    0.000    0.000    0.000    0.000    0.000 
#
# Total GULP energy -178593.017807 kJ/mol
# GULP energy per Si atom -5581.031806 kJ/mol
# Density = 2.178254 g / cm^3
# Si number density = 21.832232 Si / 1000 Ang^3
#
#
#
# Elastic Constant Matrix: (Units=GPa)
#
#
# Indices 1 2 3 4 5 6 
#
# 1 134.3430 58.3465 0.3744 0.0000 0.0000 0.0000
# 2 58.3465 70.0150 -4.2378 0.0000 0.0000 0.0000
# 3 0.3744 -4.2378 100.3701 0.0000 0.0000 0.0000
# 4 0.0000 0.0000 0.0000 27.4743 0.0000 0.0000
# 5 0.0000 0.0000 0.0000 0.0000 3.3575 0.0000
# 6 0.0000 0.0000 0.0000 0.0000 0.0000 29.1501
#
#
#
# Elastic Compliance Matrix: (Units=1/GPa)
#
#
# Indices 1 2 3 4 5 6 
#
# 1 0.011687 -0.009767 -0.000456 0.000000 0.000000 0.000000
# 2 -0.009767 0.022481 0.000986 0.000000 0.000000 0.000000
# 3 -0.000456 0.000986 0.010006 0.000000 0.000000 0.000000
# 4 0.000000 0.000000 0.000000 0.036398 0.000000 0.000000
# 5 0.000000 0.000000 0.000000 0.000000 0.297840 0.000000
# 6 0.000000 0.000000 0.000000 0.000000 0.000000 0.034305
#
#
# Mechanical properties :
#
#
# Convention : Reuss Voigt Hill
#
# Bulk Modulus (GPa) = 38.90974 45.96601 42.43788
# Shear Modulus (GPa) = 11.36991 28.67939 20.02465
#
# Velocity S-wave (km/s) = 2.28455 3.62833 3.03183
# Velocity P-wave (km/s) = 4.98194 6.21715 5.63350
#
# Compressibility (1/GPa) = 0.02570050
#
# Stress axis : x y z
#
# Youngs Moduli (GPa) = 85.56799 44.48165 99.93557
#
# Poissons Ratio (x) = 0.43443 0.04557
# Poissons Ratio (y) = 0.83570 -0.09850
# Poissons Ratio (z) = 0.03902 -0.04384
#
# Static dielectric constant tensor:
#      x y z
#    x 1.804400 0.000000 0.000000 
#    y 0.000000 1.765360 0.000000 
#    z 0.000000 0.000000 1.805820 
# 
# From -- ./inp_files/29119.got.cif
#   From: 2010.05.17/outbox.cif.g08.bks.cpg/sg63_15_cif.got.tgz:29119.got - 2010.06.03 15:47:04.
