data_PCOD9474900
_publ_section_title
;
Structure prediction by ZEFSAII (Michael W. Deem and Ramdas Pophale) SiO2 
 PCOD9474900
Probable space group: C M C M
;
_chemical_formula_sum "Si O2"
_cell_formula_units_Z 64
_cell_length_a 22.358929
_cell_length_b 9.252011
_cell_length_c 15.021893
_cell_angle_alpha 90.000000
_cell_angle_beta 90.000000
_cell_angle_gamma 90.000000
_cell_volume 3107.504753
_symmetry_space_group_name_H-M "C M C M"
_symmetry_group_IT_number 63
_symmetry_cell_setting 'orthorhombic'
loop_
_space_group_symop_operation_xyz
x,y,z
-x,-y,1/2+z
x,-y,-z
-x,y,1/2-z
-x,-y,-z
x,y,1/2-z
-x,y,z
x,-y,1/2+z
1/2+x,1/2+y,z
1/2-x,1/2-y,1/2+z
1/2+x,1/2-y,-z
1/2-x,1/2+y,1/2-z
1/2-x,1/2-y,-z
1/2+x,1/2+y,1/2-z
1/2-x,1/2+y,z
1/2+x,1/2-y,1/2+z
loop_
_atom_site_type_symbol
_atom_site_label
_atom_site_fract_x
_atom_site_fract_y
_atom_site_fract_z
Si Si1 0.933681 0.616581 0.143155
Si Si2 0.686514 0.027622 0.855236
Si Si3 0.700672 0.353723 0.589943
Si Si4 0.120675 0.907552 0.426218
O O1 0.936083 0.605033 0.250000
O O2 0.880243 0.511987 0.113125
O O3 0.913927 0.779567 0.119224
O O4 0.000000 0.585002 0.107880
O O5 0.690826 0.994021 0.750000
O O6 0.735158 0.927465 0.902958
O O7 0.699124 0.196164 0.869041
O O8 0.674199 0.344931 0.489483
O O9 0.654045 0.470888 0.632526
O O10 0.083805 0.000000 0.500000
#
# Coordination Sequence:
#
# PCOD9474900 Si02
#       4
#    16  16  16  16
#     4  10  22  40  60  82 114 157 200 239 286 346
#     4  11  21  35  58  86 119 153 193 241 291 347
#     4   9  21  36  56  89 116 150 188 239 297 349
#     4   8  21  39  58  88 113 152 183 243 291 345
#
# _framework density 20.595303999999999
#
# number of rings (size 3 to 8) (size 9 to 14) (size 15 to 20)
#    1.500    0.750    0.000    2.250    0.000   14.500 
#    0.000    3.750    0.000    3.000    0.000    0.000 
#    0.000    0.000    0.000    0.000    0.000    0.000 
#
# Total GULP energy -178270.862371 kJ/mol
# GULP energy per Si atom -5570.964449 kJ/mol
# Density = 2.054843 g / cm^3
# Si number density = 20.595304 Si / 1000 Ang^3
#
#
#
# Elastic Constant Matrix: (Units=GPa)
#
#
# Indices 1 2 3 4 5 6 
#
# 1 137.0946 53.0530 9.3464 0.0000 0.0000 0.0000
# 2 53.0530 102.1254 2.9935 0.0000 0.0000 0.0000
# 3 9.3464 2.9935 27.4203 0.0000 0.0000 0.0000
# 4 0.0000 0.0000 0.0000 28.1872 0.0000 0.0000
# 5 0.0000 0.0000 0.0000 0.0000 18.1953 0.0000
# 6 0.0000 0.0000 0.0000 0.0000 0.0000 38.1558
#
#
#
# Elastic Compliance Matrix: (Units=1/GPa)
#
#
# Indices 1 2 3 4 5 6 
#
# 1 0.009319 -0.004763 -0.002656 0.000000 0.000000 0.000000
# 2 -0.004763 0.012258 0.000285 0.000000 0.000000 0.000000
# 3 -0.002656 0.000285 0.037344 0.000000 0.000000 0.000000
# 4 0.000000 0.000000 0.000000 0.035477 0.000000 0.000000
# 5 0.000000 0.000000 0.000000 0.000000 0.054959 0.000000
# 6 0.000000 0.000000 0.000000 0.000000 0.000000 0.026208
#
#
# Mechanical properties :
#
#
# Convention : Reuss Voigt Hill
#
# Bulk Modulus (GPa) = 22.39545 44.15845 33.27695
# Shear Modulus (GPa) = 24.42401 30.32415 27.37408
#
# Velocity S-wave (km/s) = 3.44743 3.84133 3.64969
# Velocity P-wave (km/s) = 5.17146 6.41576 5.82692
#
# Compressibility (1/GPa) = 0.04465192
#
# Stress axis : x y z
#
# Youngs Moduli (GPa) = 107.31321 81.58035 26.77838
#
# Poissons Ratio (x) = 0.38857 0.07113
# Poissons Ratio (y) = 0.51113 -0.00764
# Poissons Ratio (z) = 0.28505 -0.02327
#
# Static dielectric constant tensor:
#      x y z
#    x 1.763200 0.000000 0.000000 
#    y 0.000000 1.736930 0.000000 
#    z 0.000000 0.000000 1.778680 
# 
# From -- ./inp_files/47721.got.cif
#   From: 2010.05.17/outbox.cif.g08.bks.cpg/sg63_24_cif.got.tgz:47721.got - 2010.06.03 15:47:04.
