data_PCOD9474639
_publ_section_title
;
Structure prediction by ZEFSAII (Michael W. Deem and Ramdas Pophale) SiO2 
 PCOD9474639
Probable space group: C M C M
;
_chemical_formula_sum "Si O2"
_cell_formula_units_Z 68
_cell_length_a 28.254395
_cell_length_b 5.377274
_cell_length_c 19.186213
_cell_angle_alpha 90.000000
_cell_angle_beta 90.000000
_cell_angle_gamma 90.000000
_cell_volume 2914.992492
_symmetry_space_group_name_H-M "C M C M"
_symmetry_group_IT_number 63
_symmetry_cell_setting 'orthorhombic'
loop_
_space_group_symop_operation_xyz
x,y,z
-x,-y,1/2+z
x,-y,-z
-x,y,1/2-z
-x,-y,-z
x,y,1/2-z
-x,y,z
x,-y,1/2+z
1/2+x,1/2+y,z
1/2-x,1/2-y,1/2+z
1/2+x,1/2-y,-z
1/2-x,1/2+y,1/2-z
1/2-x,1/2-y,-z
1/2+x,1/2+y,1/2-z
1/2-x,1/2+y,z
1/2+x,1/2-y,1/2+z
loop_
_atom_site_type_symbol
_atom_site_label
_atom_site_fract_x
_atom_site_fract_y
_atom_site_fract_z
Si Si1 0.949013 0.825266 0.932609
Si Si2 0.000000 0.443054 0.750000
Si Si3 0.146275 0.459949 0.423702
Si Si4 0.220738 0.190674 0.167894
Si Si5 0.913908 0.220275 0.826991
O O1 0.904752 0.651632 0.939260
O O2 0.940205 0.995733 0.865118
O O3 0.000000 0.702135 0.931236
O O4 0.948173 0.000000 0.000000
O O5 0.043350 0.414825 0.690808
O O6 0.169044 0.500000 0.500000
O O7 0.176710 0.266364 0.379415
O O8 0.130093 0.686348 0.373431
O O9 0.209006 0.205688 0.250000
O O10 0.242074 0.917602 0.154135
O O11 0.896335 0.144848 0.750000
#
# Coordination Sequence:
#
# PCOD9474639 Si02
#       5
#    16   4  16  16  16
#     4  11  23  39  63  95 141 190 230 282 350 417
#     4   8  20  40  62  88 136 178 242 284 342 392
#     4  12  26  40  68 103 137 180 232 289 359 432
#     4  10  25  50  76 105 140 183 236 299 369 435
#     4  10  21  41  60  91 134 176 232 288 332 409
#
# _framework density 23.327677000000001
#
# number of rings (size 3 to 8) (size 9 to 14) (size 15 to 20)
#    0.706    0.706    3.529    0.706    4.941    3.294 
#    0.000    1.176    0.000    0.000    0.000    0.000 
#    0.000    0.000    0.000    0.000    0.000    0.000 
#
# Total GULP energy -189363.592964 kJ/mol
# GULP energy per Si atom -5569.517440 kJ/mol
# Density = 2.327458 g / cm^3
# Si number density = 23.327677 Si / 1000 Ang^3
#
#
#
# Elastic Constant Matrix: (Units=GPa)
#
#
# Indices 1 2 3 4 5 6 
#
# 1 78.7217 13.4500 29.1168 0.0000 0.0000 0.0000
# 2 13.4500 36.4623 14.5214 0.0000 0.0000 0.0000
# 3 29.1168 14.5214 114.7471 0.0000 0.0000 0.0000
# 4 0.0000 0.0000 0.0000 14.1262 0.0000 0.0000
# 5 0.0000 0.0000 0.0000 0.0000 -85.7579 0.0000
# 6 0.0000 0.0000 0.0000 0.0000 0.0000 38.2222
#
#
#
# Elastic Compliance Matrix: (Units=1/GPa)
#
#
# Indices 1 2 3 4 5 6 
#
# 1 0.014582 -0.004112 -0.003180 0.000000 0.000000 0.000000
# 2 -0.004112 0.030041 -0.002758 0.000000 0.000000 0.000000
# 3 -0.003180 -0.002758 0.009871 0.000000 0.000000 0.000000
# 4 0.000000 0.000000 0.000000 0.070790 0.000000 0.000000
# 5 0.000000 0.000000 0.000000 0.000000 -0.011661 0.000000
# 6 0.000000 0.000000 0.000000 0.000000 0.000000 0.026163
#
#
# Mechanical properties :
#
#
# Convention : Reuss Voigt Hill
#
# Bulk Modulus (GPa) = 29.07586 38.23417 33.65502
# Shear Modulus (GPa) = 29.17990 4.84094 17.01042
#
# Velocity S-wave (km/s) = 3.54060 1.44212 2.70329
# Velocity P-wave (km/s) = 5.40422 4.38162 4.91956
#
# Compressibility (1/GPa) = 0.03439279
#
# Stress axis : x y z
#
# Youngs Moduli (GPa) = 68.57926 33.28779 101.30991
#
# Poissons Ratio (x) = 0.13689 0.32213
# Poissons Ratio (y) = 0.28203 0.27943
# Poissons Ratio (z) = 0.21806 0.09181
#
# Static dielectric constant tensor:
#      x y z
#    x 1.855240 0.000000 0.000000 
#    y 0.000000 1.915130 0.000000 
#    z 0.000000 0.000000 1.942660 
# 
# From -- ./inp_files/58424.got.cif
#   From: 2010.05.17/outbox.cif.g08.bks.cpg/sg63_30_cif.got.tgz:58424.got - 2010.06.03 15:47:04.
