data_PCOD9474248
_publ_section_title
;
Structure prediction by ZEFSAII (Michael W. Deem and Ramdas Pophale) SiO2 
 PCOD9474248
Probable space group: C M C M
;
_chemical_formula_sum "Si O2"
_cell_formula_units_Z 64
_cell_length_a 36.212921
_cell_length_b 5.088434
_cell_length_c 15.817213
_cell_angle_alpha 90.000000
_cell_angle_beta 90.000000
_cell_angle_gamma 90.000000
_cell_volume 2914.591312
_symmetry_space_group_name_H-M "C M C M"
_symmetry_group_IT_number 63
_symmetry_cell_setting 'orthorhombic'
loop_
_space_group_symop_operation_xyz
x,y,z
-x,-y,1/2+z
x,-y,-z
-x,y,1/2-z
-x,-y,-z
x,y,1/2-z
-x,y,z
x,-y,1/2+z
1/2+x,1/2+y,z
1/2-x,1/2-y,1/2+z
1/2+x,1/2-y,-z
1/2-x,1/2+y,1/2-z
1/2-x,1/2-y,-z
1/2+x,1/2+y,1/2-z
1/2-x,1/2+y,z
1/2+x,1/2-y,1/2+z
loop_
_atom_site_type_symbol
_atom_site_label
_atom_site_fract_x
_atom_site_fract_y
_atom_site_fract_z
Si Si1 0.736611 0.154827 0.406219
Si Si2 0.459326 0.249512 0.440736
Si Si3 0.663104 0.888378 0.151803
Si Si4 0.385749 0.409548 0.346119
O O1 0.750000 0.250000 0.500000
O O2 0.734869 0.445145 0.365470
O O3 0.698667 0.995674 0.398193
O O4 0.463342 0.500000 0.500000
O O5 0.500000 0.198010 0.400633
O O6 0.425380 0.333416 0.382768
O O7 0.450363 0.000000 0.500000
O O8 0.673866 0.833558 0.250000
O O9 0.636562 0.139585 0.152619
O O10 0.640034 0.641011 0.114958
O O11 0.391493 0.501384 0.250000
#
# Coordination Sequence:
#
# PCOD9474248 Si02
#       4
#    16  16  16  16
#     4  10  21  38  56  82 117 155 197 258 310 379
#     4  10  21  39  61  91 129 166 208 257 311 375
#     4  10  21  38  60  86 120 159 205 260 318 379
#     4  10  21  39  62  91 124 162 209 259 314 381
#
# _framework density 21.958483000000001
#
# number of rings (size 3 to 8) (size 9 to 14) (size 15 to 20)
#    0.000    2.000    0.000    3.000    0.000    1.500 
#   18.000    0.000    0.000    9.000    0.000    0.000 
#    0.000    0.000    0.000    0.000    0.000    0.000 
#
# Total GULP energy -178240.837065 kJ/mol
# GULP energy per Si atom -5570.026158 kJ/mol
# Density = 2.190850 g / cm^3
# Si number density = 21.958483 Si / 1000 Ang^3
#
#
#
# Elastic Constant Matrix: (Units=GPa)
#
#
# Indices 1 2 3 4 5 6 
#
# 1 171.1423 46.7476 62.7033 0.0000 0.0000 0.0000
# 2 46.7476 185.4199 21.3804 0.0000 0.0000 0.0000
# 3 62.7033 21.3804 48.7207 0.0000 0.0000 0.0000
# 4 0.0000 0.0000 0.0000 22.2337 0.0000 0.0000
# 5 0.0000 0.0000 0.0000 0.0000 27.9451 0.0000
# 6 0.0000 0.0000 0.0000 0.0000 0.0000 40.8974
#
#
#
# Elastic Compliance Matrix: (Units=1/GPa)
#
#
# Indices 1 2 3 4 5 6 
#
# 1 0.011320 -0.001237 -0.014026 0.000000 0.000000 0.000000
# 2 -0.001237 0.005816 -0.000961 0.000000 0.000000 0.000000
# 3 -0.014026 -0.000961 0.038998 0.000000 0.000000 0.000000
# 4 0.000000 0.000000 0.000000 0.044977 0.000000 0.000000
# 5 0.000000 0.000000 0.000000 0.000000 0.035784 0.000000
# 6 0.000000 0.000000 0.000000 0.000000 0.000000 0.024451
#
#
# Mechanical properties :
#
#
# Convention : Reuss Voigt Hill
#
# Bulk Modulus (GPa) = 42.21682 74.10503 58.16092
# Shear Modulus (GPa) = 24.79090 36.51202 30.65146
#
# Velocity S-wave (km/s) = 3.36369 4.08214 3.74020
# Velocity P-wave (km/s) = 5.86117 7.48595 6.72283
#
# Compressibility (1/GPa) = 0.02368724
#
# Stress axis : x y z
#
# Youngs Moduli (GPa) = 88.34254 171.94824 25.64261
#
# Poissons Ratio (x) = 0.21263 0.35965
# Poissons Ratio (y) = 0.10924 0.02463
# Poissons Ratio (z) = 1.23906 0.16518
#
# Static dielectric constant tensor:
#      x y z
#    x 1.947440 0.000000 0.000000 
#    y 0.000000 1.942270 0.000000 
#    z 0.000000 0.000000 1.985770 
# 
# From -- ./inp_files/49314.got.cif
#   From: 2010.05.17/outbox.cif.g08.bks.cpg/sg63_25_cif.got.tgz:49314.got - 2010.06.03 15:47:04.
