data_PCOD9474472
_publ_section_title
;
Structure prediction by ZEFSAII (Michael W. Deem and Ramdas Pophale) SiO2 
 PCOD9474472
Probable space group: C M C M
;
_chemical_formula_sum "Si O2"
_cell_formula_units_Z 112
_cell_length_a 13.328871
_cell_length_b 27.084170
_cell_length_c 14.310807
_cell_angle_alpha 90.000000
_cell_angle_beta 90.000000
_cell_angle_gamma 90.000000
_cell_volume 5166.221478
_symmetry_space_group_name_H-M "C M C M"
_symmetry_group_IT_number 63
_symmetry_cell_setting 'orthorhombic'
loop_
_space_group_symop_operation_xyz
x,y,z
-x,-y,1/2+z
x,-y,-z
-x,y,1/2-z
-x,-y,-z
x,y,1/2-z
-x,y,z
x,-y,1/2+z
1/2+x,1/2+y,z
1/2-x,1/2-y,1/2+z
1/2+x,1/2-y,-z
1/2-x,1/2+y,1/2-z
1/2-x,1/2-y,-z
1/2+x,1/2+y,1/2-z
1/2-x,1/2+y,z
1/2+x,1/2-y,1/2+z
loop_
_atom_site_type_symbol
_atom_site_label
_atom_site_fract_x
_atom_site_fract_y
_atom_site_fract_z
Si Si1 0.766220 0.214761 0.862141
Si Si2 0.390147 0.082386 0.354350
Si Si3 0.173737 0.110390 0.363489
Si Si4 0.891588 0.632457 0.861723
Si Si5 0.670061 0.022374 0.902340
Si Si6 0.890365 0.998435 0.361966
Si Si7 0.613251 0.289616 0.953977
O O1 0.788673 0.215061 0.750000
O O2 0.701767 0.166097 0.889178
O O3 0.692228 0.259510 0.890419
O O4 0.856453 0.216218 0.936921
O O5 0.395672 0.103704 0.250000
O O6 0.500000 0.088646 0.398452
O O7 0.289965 0.105551 0.397321
O O8 0.364603 0.024355 0.342274
O O9 0.171413 0.118451 0.250000
O O10 0.124097 0.056884 0.379101
O O11 0.122228 0.154075 0.419107
O O12 0.895342 0.637978 0.750000
O O13 0.875992 0.574785 0.881258
O O14 0.000000 0.648474 0.900108
O O15 0.790760 0.027255 0.900227
O O16 0.637751 0.000000 0.000000
O O17 0.887190 0.991632 0.250000
O O18 0.000000 0.981849 0.395332
O O19 0.500000 0.272206 0.938565
#
# Coordination Sequence:
#
# PCOD9474472 Si02
#       7
#    16  16  16  16  16  16  16
#     4  10  24  44  65  94 128 160 204 258 308 369
#     4   9  18  34  54  78 114 156 195 242 302 362
#     4   9  18  33  57  91 123 153 198 253 306 365
#     4  10  21  39  61  82 113 161 207 247 297 359
#     4  11  22  32  49  82 117 151 198 250 297 354
#     4   9  18  34  54  76 107 150 198 249 304 358
#     4  11  23  41  68  96 123 161 205 252 307 368
#
# _framework density 21.679286999999999
#
# number of rings (size 3 to 8) (size 9 to 14) (size 15 to 20)
#    0.000    2.143    0.000    3.857    4.000    5.143 
#    0.000    3.571    0.000    4.286    0.000    0.000 
#    0.000    0.000    0.000    0.000    0.000    0.000 
#
# Total GULP energy -312482.638699 kJ/mol
# GULP energy per Si atom -5580.047120 kJ/mol
# Density = 2.162994 g / cm^3
# Si number density = 21.679287 Si / 1000 Ang^3
#
#
#
# Elastic Constant Matrix: (Units=GPa)
#
#
# Indices 1 2 3 4 5 6 
#
# 1 100.4355 -6.4371 -0.9663 0.0000 0.0000 0.0000
# 2 -6.4371 43.0161 -4.4123 0.0000 0.0000 0.0000
# 3 -0.9663 -4.4123 81.4991 0.0000 0.0000 0.0000
# 4 0.0000 0.0000 0.0000 8.7829 0.0000 0.0000
# 5 0.0000 0.0000 0.0000 0.0000 15.9290 0.0000
# 6 0.0000 0.0000 0.0000 0.0000 0.0000 7.6905
#
#
#
# Elastic Compliance Matrix: (Units=1/GPa)
#
#
# Indices 1 2 3 4 5 6 
#
# 1 0.010056 0.001526 0.000202 0.000000 0.000000 0.000000
# 2 0.001526 0.023608 0.001296 0.000000 0.000000 0.000000
# 3 0.000202 0.001296 0.012343 0.000000 0.000000 0.000000
# 4 0.000000 0.000000 0.000000 0.113857 0.000000 0.000000
# 5 0.000000 0.000000 0.000000 0.000000 0.062779 0.000000
# 6 0.000000 0.000000 0.000000 0.000000 0.000000 0.130030
#
#
# Mechanical properties :
#
#
# Convention : Reuss Voigt Hill
#
# Bulk Modulus (GPa) = 19.21061 22.36883 20.78972
# Shear Modulus (GPa) = 13.73710 22.26491 18.00101
#
# Velocity S-wave (km/s) = 2.51997 3.20818 2.88467
# Velocity P-wave (km/s) = 4.16504 4.90548 4.55034
#
# Compressibility (1/GPa) = 0.05205456
#
# Stress axis : x y z
#
# Youngs Moduli (GPa) = 99.43959 42.35790 81.01990
#
# Poissons Ratio (x) = -0.06462 -0.01635
# Poissons Ratio (y) = -0.15170 -0.10502
# Poissons Ratio (z) = -0.02007 -0.05490
#
# Static dielectric constant tensor:
#      x y z
#    x 1.866010 0.000000 0.000000 
#    y 0.000000 1.832120 0.000000 
#    z 0.000000 0.000000 1.787970 
# 
# From -- ./inp_files/32758.got.cif
#   From: 2010.05.17/outbox.cif.g08.bks.cpg/sg63_17_cif.got.tgz:32758.got - 2010.06.03 15:47:04.
