data_PCOD9474847
_publ_section_title
;
Structure prediction by ZEFSAII (Michael W. Deem and Ramdas Pophale) SiO2 
 PCOD9474847
Probable space group: C M C M
;
_chemical_formula_sum "Si O2"
_cell_formula_units_Z 120
_cell_length_a 27.619115
_cell_length_b 24.773184
_cell_length_c 9.186047
_cell_angle_alpha 90.000000
_cell_angle_beta 90.000000
_cell_angle_gamma 90.000000
_cell_volume 6285.216614
_symmetry_space_group_name_H-M "C M C M"
_symmetry_group_IT_number 63
_symmetry_cell_setting 'orthorhombic'
loop_
_space_group_symop_operation_xyz
x,y,z
-x,-y,1/2+z
x,-y,-z
-x,y,1/2-z
-x,-y,-z
x,y,1/2-z
-x,y,z
x,-y,1/2+z
1/2+x,1/2+y,z
1/2-x,1/2-y,1/2+z
1/2+x,1/2-y,-z
1/2-x,1/2+y,1/2-z
1/2-x,1/2-y,-z
1/2+x,1/2+y,1/2-z
1/2-x,1/2+y,z
1/2+x,1/2-y,1/2+z
loop_
_atom_site_type_symbol
_atom_site_label
_atom_site_fract_x
_atom_site_fract_y
_atom_site_fract_z
Si Si1 0.119653 0.942931 0.922987
Si Si2 0.300743 0.738286 0.578748
Si Si3 0.441605 0.245606 0.912889
Si Si4 0.941552 0.851728 0.081321
Si Si5 0.586438 0.121092 0.921698
Si Si6 0.500000 0.941845 0.924830
Si Si7 0.180702 0.360109 0.578122
Si Si8 0.293393 0.632224 0.077132
O O1 0.112948 0.947914 0.750000
O O2 0.173853 0.919878 0.950127
O O3 0.083616 0.897818 0.986522
O O4 0.112325 0.000000 0.000000
O O5 0.294057 0.729513 0.750000
O O6 0.250000 0.750000 0.500000
O O7 0.327444 0.795331 0.561118
O O8 0.317252 0.683014 0.505052
O O9 0.425202 0.261806 0.750000
O O10 0.500000 0.243737 0.912524
O O11 0.424644 0.184865 0.939287
O O12 0.427636 0.291940 0.025727
O O13 0.928099 0.858074 0.250000
O O14 0.000000 0.856061 0.068858
O O15 0.581841 0.108372 0.750000
O O16 0.547092 0.089439 0.015809
O O17 0.640369 0.111224 0.981549
O O18 0.500000 0.945002 0.750000
O O19 0.500000 0.000000 0.000000
O O20 0.175102 0.372483 0.750000
O O21 0.236590 0.372355 0.536401
O O22 0.294027 0.643889 0.250000
#
# Coordination Sequence:
#
# PCOD9474847 Si02
#       8
#    16  16  16  16  16   8  16  16
#     4  11  24  42  63  86 113 154 204 255 308 362
#     4   9  17  30  51  80 116 154 192 237 291 353
#     4   9  18  35  57  84 122 162 195 238 296 356
#     4  10  22  39  60  89 122 156 197 245 299 362
#     4  11  22  38  61  92 126 162 204 248 298 358
#     4  12  26  46  70  92 122 162 205 252 301 356
#     4   9  19  35  54  84 121 157 196 243 300 358
#     4   9  20  38  57  79 114 156 201 249 301 358
#
# _framework density 19.092421000000002
#
# number of rings (size 3 to 8) (size 9 to 14) (size 15 to 20)
#    0.000    2.133    0.667    3.000    1.867    5.867 
#    0.000    0.667    0.000    1.600    0.000    0.000 
#    0.000    0.000    0.000    0.000    0.000    0.000 
#
# Total GULP energy -334903.380939 kJ/mol
# GULP energy per Si atom -5581.723016 kJ/mol
# Density = 1.904897 g / cm^3
# Si number density = 19.092421 Si / 1000 Ang^3
#
#
#
# Elastic Constant Matrix: (Units=GPa)
#
#
# Indices 1 2 3 4 5 6 
#
# 1 81.9602 21.6616 55.8516 0.0000 0.0000 0.0000
# 2 21.6616 60.6373 57.0881 0.0000 0.0000 0.0000
# 3 55.8516 57.0881 105.4277 0.0000 0.0000 0.0000
# 4 0.0000 0.0000 0.0000 32.4011 0.0000 0.0000
# 5 0.0000 0.0000 0.0000 0.0000 24.9900 0.0000
# 6 0.0000 0.0000 0.0000 0.0000 0.0000 15.3312
#
#
#
# Elastic Compliance Matrix: (Units=1/GPa)
#
#
# Indices 1 2 3 4 5 6 
#
# 1 0.020042 0.005786 -0.013751 0.000000 0.000000 0.000000
# 2 0.005786 0.035312 -0.022187 0.000000 0.000000 0.000000
# 3 -0.013751 -0.022187 0.028784 0.000000 0.000000 0.000000
# 4 0.000000 0.000000 0.000000 0.030863 0.000000 0.000000
# 5 0.000000 0.000000 0.000000 0.000000 0.040016 0.000000
# 6 0.000000 0.000000 0.000000 0.000000 0.000000 0.065226
#
#
# Mechanical properties :
#
#
# Convention : Reuss Voigt Hill
#
# Bulk Modulus (GPa) = 41.95359 57.46974 49.71167
# Shear Modulus (GPa) = 17.33154 22.10608 19.71881
#
# Velocity S-wave (km/s) = 3.01619 3.40640 3.21722
# Velocity P-wave (km/s) = 5.84393 6.75556 6.31622
#
# Compressibility (1/GPa) = 0.02383586
#
# Stress axis : x y z
#
# Youngs Moduli (GPa) = 49.89471 28.31859 34.74198
#
# Poissons Ratio (x) = -0.16386 0.47773
# Poissons Ratio (y) = -0.28870 0.77081
# Poissons Ratio (z) = 0.68609 0.62829
#
# Static dielectric constant tensor:
#      x y z
#    x 1.693380 0.000000 0.000000 
#    y 0.000000 1.647770 0.000000 
#    z 0.000000 0.000000 1.639400 
# 
# From -- ./inp_files/13135.got.cif
#   From: 2010.05.17/outbox.cif.g08.bks.cpg/sg63_7_cif.got.tgz:13135.got - 2010.06.03 15:47:04.
