data_PCOD9474231
_publ_section_title
;
Structure prediction by ZEFSAII (Michael W. Deem and Ramdas Pophale) SiO2 
 PCOD9474231
Probable space group: C M C M
;
_chemical_formula_sum "Si O2"
_cell_formula_units_Z 56
_cell_length_a 10.789907
_cell_length_b 24.396425
_cell_length_c 11.183033
_cell_angle_alpha 90.000000
_cell_angle_beta 90.000000
_cell_angle_gamma 90.000000
_cell_volume 2943.767446
_symmetry_space_group_name_H-M "C M C M"
_symmetry_group_IT_number 63
_symmetry_cell_setting 'orthorhombic'
loop_
_space_group_symop_operation_xyz
x,y,z
-x,-y,1/2+z
x,-y,-z
-x,y,1/2-z
-x,-y,-z
x,y,1/2-z
-x,y,z
x,-y,1/2+z
1/2+x,1/2+y,z
1/2-x,1/2-y,1/2+z
1/2+x,1/2-y,-z
1/2-x,1/2+y,1/2-z
1/2-x,1/2-y,-z
1/2+x,1/2+y,1/2-z
1/2-x,1/2+y,z
1/2+x,1/2-y,1/2+z
loop_
_atom_site_type_symbol
_atom_site_label
_atom_site_fract_x
_atom_site_fract_y
_atom_site_fract_z
Si Si1 0.145923 0.906671 0.885881
Si Si2 0.298807 0.000000 0.000000
Si Si3 0.632810 0.951940 0.250000
Si Si4 0.359421 0.633246 0.750000
Si Si5 0.356429 0.704698 0.508824
O O1 0.178773 0.920394 0.750000
O O2 0.217975 0.946188 0.973926
O O3 0.000000 0.915943 0.902606
O O4 0.167506 0.842826 0.911581
O O5 0.363770 0.013129 0.873279
O O6 0.500000 0.921417 0.250000
O O7 0.751712 0.911967 0.250000
O O8 0.500000 0.609015 0.750000
O O9 0.349200 0.672069 0.634202
O O10 0.500000 0.724573 0.495770
O O11 0.250000 0.750000 0.500000
#
# Coordination Sequence:
#
# PCOD9474231 Si02
#       5
#    16   8   8   8  16
#     4  10  21  37  62  95 126 161 208 255 306 371
#     4  12  22  42  64  90 129 168 207 254 321 370
#     4  12  26  42  63  92 131 169 210 258 318 383
#     4  10  22  42  65  88 119 161 216 260 302 367
#     4  10  22  40  62  90 122 159 204 256 307 367
#
# _framework density 19.023240999999999
#
# number of rings (size 3 to 8) (size 9 to 14) (size 15 to 20)
#    0.000    1.429    4.286    0.857    2.000    2.286 
#    0.000    0.000    0.000    0.000    0.000    0.000 
#    0.000    0.000    0.000    0.000    0.000    0.000 
#
# Total GULP energy -156158.062829 kJ/mol
# GULP energy per Si atom -5577.073672 kJ/mol
# Density = 1.897994 g / cm^3
# Si number density = 19.023241 Si / 1000 Ang^3
#
#
#
# Elastic Constant Matrix: (Units=GPa)
#
#
# Indices 1 2 3 4 5 6 
#
# 1 143.3199 81.5355 46.0941 0.0000 0.0000 0.0000
# 2 81.5355 68.7307 23.9781 0.0000 0.0000 0.0000
# 3 46.0941 23.9781 104.2693 0.0000 0.0000 0.0000
# 4 0.0000 0.0000 0.0000 18.2423 0.0000 0.0000
# 5 0.0000 0.0000 0.0000 0.0000 -1.5246 0.0000
# 6 0.0000 0.0000 0.0000 0.0000 0.0000 21.7032
#
#
#
# Elastic Compliance Matrix: (Units=1/GPa)
#
#
# Indices 1 2 3 4 5 6 
#
# 1 0.023070 -0.025887 -0.004245 0.000000 0.000000 0.000000
# 2 -0.025887 0.044867 0.001126 0.000000 0.000000 0.000000
# 3 -0.004245 0.001126 0.011208 0.000000 0.000000 0.000000
# 4 0.000000 0.000000 0.000000 0.054818 0.000000 0.000000
# 5 0.000000 0.000000 0.000000 0.000000 -0.655914 0.000000
# 6 0.000000 0.000000 0.000000 0.000000 0.000000 0.046076
#
#
# Mechanical properties :
#
#
# Convention : Reuss Voigt Hill
#
# Bulk Modulus (GPa) = 47.32086 68.83726 58.07906
# Shear Modulus (GPa) = -12.17085 18.66499 3.24707
#
# Velocity S-wave (km/s) = -2.53215 3.13576 1.30790
# Velocity P-wave (km/s) = 4.04725 7.02674 5.73390
#
# Compressibility (1/GPa) = 0.02113233
#
# Stress axis : x y z
#
# Youngs Moduli (GPa) = 43.34605 22.28827 89.21902
#
# Poissons Ratio (x) = 0.57698 0.37878
# Poissons Ratio (y) = 1.12210 -0.10048
# Poissons Ratio (z) = 0.18403 -0.02510
#
# Static dielectric constant tensor:
#      x y z
#    x 1.660110 0.000000 0.000000 
#    y 0.000000 1.633910 0.000000 
#    z 0.000000 0.000000 1.706050 
# 
# From -- ./inp_files/15959.got.cif
#   From: 2010.05.17/outbox.cif.g08.bks.cpg/sg63_8_cif.got.tgz:15959.got - 2010.06.03 15:47:04.
