data_PCOD9474397
_publ_section_title
;
Structure prediction by ZEFSAII (Michael W. Deem and Ramdas Pophale) SiO2 
 PCOD9474397
Probable space group: C M C M
;
_chemical_formula_sum "Si O2"
_cell_formula_units_Z 88
_cell_length_a 23.253164
_cell_length_b 5.922579
_cell_length_c 24.462037
_cell_angle_alpha 90.000000
_cell_angle_beta 90.000000
_cell_angle_gamma 90.000000
_cell_volume 3368.879954
_symmetry_space_group_name_H-M "C M C M"
_symmetry_group_IT_number 63
_symmetry_cell_setting 'orthorhombic'
loop_
_space_group_symop_operation_xyz
x,y,z
-x,-y,1/2+z
x,-y,-z
-x,y,1/2-z
-x,-y,-z
x,y,1/2-z
-x,y,z
x,-y,1/2+z
1/2+x,1/2+y,z
1/2-x,1/2-y,1/2+z
1/2+x,1/2-y,-z
1/2-x,1/2+y,1/2-z
1/2-x,1/2-y,-z
1/2+x,1/2+y,1/2-z
1/2-x,1/2+y,z
1/2+x,1/2-y,1/2+z
loop_
_atom_site_type_symbol
_atom_site_label
_atom_site_fract_x
_atom_site_fract_y
_atom_site_fract_z
Si Si1 0.761952 0.947802 0.412454
Si Si2 0.117879 0.072229 0.378718
Si Si3 0.325683 0.939280 0.312021
Si Si4 0.439333 0.239133 0.312414
Si Si5 0.000000 0.749729 0.024841
Si Si6 0.375369 0.247932 0.506192
O O1 0.757128 0.204443 0.437204
O O2 0.828342 0.918271 0.396623
O O3 0.723131 0.972272 0.357526
O O4 0.145500 0.202211 0.327412
O O5 0.104915 0.236311 0.429845
O O6 0.064395 0.939254 0.355567
O O7 0.303653 0.951443 0.250000
O O8 0.380757 0.101733 0.317521
O O9 0.440267 0.322168 0.250000
O O10 0.500000 0.111881 0.321799
O O11 0.000000 0.500000 0.000000
O O12 0.070324 0.748360 0.035850
O O13 0.000000 0.000000 0.000000
O O14 0.348046 0.500000 0.500000
O O15 0.346932 0.000000 0.500000
#
# Coordination Sequence:
#
# PCOD9474397 Si02
#       6
#    16  16  16  16   8  16
#     4  10  21  38  62  94 127 165 218 275 314 378
#     4  11  23  39  66  95 131 173 228 268 341 396
#     4  10  22  40  63  94 132 175 221 274 328 389
#     4  10  22  40  61  95 138 176 218 267 332 410
#     4   8  16  36  56  86 117 156 209 268 324 374
#     4  10  23  40  64  92 129 167 217 280 331 391
#
# _framework density 26.121441000000001
#
# number of rings (size 3 to 8) (size 9 to 14) (size 15 to 20)
#    0.000    2.000    1.818    0.545    3.818    4.364 
#    0.000    1.818    0.000   13.091    0.000    0.000 
#    0.000    0.000    0.000    0.000    0.000    0.000 
#
# Total GULP energy -244961.897450 kJ/mol
# GULP energy per Si atom -5567.315851 kJ/mol
# Density = 2.606199 g / cm^3
# Si number density = 26.121441 Si / 1000 Ang^3
#
#
#
# Elastic Constant Matrix: (Units=GPa)
#
#
# Indices 1 2 3 4 5 6 
#
# 1 138.1865 31.2857 59.8023 0.0000 0.0000 0.0000
# 2 31.2857 189.5193 38.4439 0.0000 0.0000 0.0000
# 3 59.8023 38.4439 91.1806 0.0000 0.0000 0.0000
# 4 0.0000 0.0000 0.0000 32.7914 0.0000 0.0000
# 5 0.0000 0.0000 0.0000 0.0000 18.8166 0.0000
# 6 0.0000 0.0000 0.0000 0.0000 0.0000 22.0662
#
#
#
# Elastic Compliance Matrix: (Units=1/GPa)
#
#
# Indices 1 2 3 4 5 6 
#
# 1 0.010126 -0.000355 -0.006492 0.000000 0.000000 0.000000
# 2 -0.000355 0.005782 -0.002205 0.000000 0.000000 0.000000
# 3 -0.006492 -0.002205 0.016155 0.000000 0.000000 0.000000
# 4 0.000000 0.000000 0.000000 0.030496 0.000000 0.000000
# 5 0.000000 0.000000 0.000000 0.000000 0.053144 0.000000
# 6 0.000000 0.000000 0.000000 0.000000 0.000000 0.045318
#
#
# Mechanical properties :
#
#
# Convention : Reuss Voigt Hill
#
# Bulk Modulus (GPa) = 71.63526 75.32780 73.48153
# Shear Modulus (GPa) = 27.20648 34.02515 30.61581
#
# Velocity S-wave (km/s) = 3.23079 3.61304 3.42725
# Velocity P-wave (km/s) = 6.43434 6.80482 6.62217
#
# Compressibility (1/GPa) = 0.01395961
#
# Stress axis : x y z
#
# Youngs Moduli (GPa) = 98.75148 172.93793 61.90048
#
# Poissons Ratio (x) = 0.06135 0.40186
# Poissons Ratio (y) = 0.03503 0.13651
# Poissons Ratio (z) = 0.64110 0.38139
#
# Static dielectric constant tensor:
#      x y z
#    x 2.116560 0.000000 0.000000 
#    y 0.000000 2.119630 0.000000 
#    z 0.000000 0.000000 4.109390 
# 
# From -- ./inp_files/74248.got.cif
#   From: 2010.05.17/outbox.cif.g08.bks.cpg/sg63_38_cif.got.tgz:74248.got - 2010.06.03 15:47:04.
