data_PCOD9474918
_publ_section_title
;
Structure prediction by ZEFSAII (Michael W. Deem and Ramdas Pophale) SiO2 
 PCOD9474918
Probable space group: C M C M
;
_chemical_formula_sum "Si O2"
_cell_formula_units_Z 96
_cell_length_a 8.586632
_cell_length_b 21.154269
_cell_length_c 25.298220
_cell_angle_alpha 90.000000
_cell_angle_beta 90.000000
_cell_angle_gamma 90.000000
_cell_volume 4595.267929
_symmetry_space_group_name_H-M "C M C M"
_symmetry_group_IT_number 63
_symmetry_cell_setting 'orthorhombic'
loop_
_space_group_symop_operation_xyz
x,y,z
-x,-y,1/2+z
x,-y,-z
-x,y,1/2-z
-x,-y,-z
x,y,1/2-z
-x,y,z
x,-y,1/2+z
1/2+x,1/2+y,z
1/2-x,1/2-y,1/2+z
1/2+x,1/2-y,-z
1/2-x,1/2+y,1/2-z
1/2-x,1/2-y,-z
1/2+x,1/2+y,1/2-z
1/2-x,1/2+y,z
1/2+x,1/2-y,1/2+z
loop_
_atom_site_type_symbol
_atom_site_label
_atom_site_fract_x
_atom_site_fract_y
_atom_site_fract_z
Si Si1 0.815124 0.101029 0.613639
Si Si2 0.311872 0.032201 0.110927
Si Si3 0.822422 0.202764 0.041534
Si Si4 0.176334 0.269791 0.345492
Si Si5 0.818384 0.417066 0.503202
Si Si6 0.312889 0.140264 0.308637
O O1 0.754837 0.162072 0.645695
O O2 0.763200 0.102181 0.551627
O O3 0.000000 0.099745 0.615776
O O4 0.745227 0.034564 0.633580
O O5 0.500000 0.033863 0.110412
O O6 0.263431 0.032830 0.048243
O O7 0.253860 0.090935 0.146693
O O8 0.828571 0.239201 0.096219
O O9 0.705239 0.144566 0.040067
O O10 0.000000 0.182664 0.028408
O O11 0.750000 0.250000 0.000000
O O12 0.258995 0.212911 0.314379
O O13 0.000000 0.278456 0.326047
O O14 0.000000 0.427446 0.491185
O O15 0.267970 0.117671 0.250000
O O16 0.500000 0.140055 0.312495
#
# Coordination Sequence:
#
# PCOD9474918 Si02
#       6
#    16  16  16  16  16  16
#     4  12  25  38  58  88 126 166 205 249 300 357
#     4  10  22  40  61  87 123 164 203 245 301 364
#     4  11  21  32  53  84 120 162 203 245 291 348
#     4  11  23  39  61  88 122 159 201 249 300 357
#     4  11  21  35  57  85 122 166 206 245 293 358
#     4  10  22  43  70  95 118 150 197 252 308 365
#
# _framework density 20.891055000000001
#
# number of rings (size 3 to 8) (size 9 to 14) (size 15 to 20)
#    0.000    1.167    3.333    3.500    0.000    5.667 
#    0.000    0.833    0.000    3.000    0.000    0.000 
#    0.000    0.000    0.000    0.000    0.000    0.000 
#
# Total GULP energy -267751.943795 kJ/mol
# GULP energy per Si atom -5578.165496 kJ/mol
# Density = 2.084351 g / cm^3
# Si number density = 20.891055 Si / 1000 Ang^3
#
#
#
# Elastic Constant Matrix: (Units=GPa)
#
#
# Indices 1 2 3 4 5 6 
#
# 1 40.3248 13.2365 18.4844 0.0000 0.0000 0.0000
# 2 13.2365 125.8959 28.4871 0.0000 0.0000 0.0000
# 3 18.4844 28.4871 88.5259 0.0000 0.0000 0.0000
# 4 0.0000 0.0000 0.0000 24.7133 0.0000 0.0000
# 5 0.0000 0.0000 0.0000 0.0000 13.9482 0.0000
# 6 0.0000 0.0000 0.0000 0.0000 0.0000 32.9581
#
#
#
# Elastic Compliance Matrix: (Units=1/GPa)
#
#
# Indices 1 2 3 4 5 6 
#
# 1 0.027770 -0.001734 -0.005240 0.000000 0.000000 0.000000
# 2 -0.001734 0.008675 -0.002430 0.000000 0.000000 0.000000
# 3 -0.005240 -0.002430 0.013172 0.000000 0.000000 0.000000
# 4 0.000000 0.000000 0.000000 0.040464 0.000000 0.000000
# 5 0.000000 0.000000 0.000000 0.000000 0.071694 0.000000
# 6 0.000000 0.000000 0.000000 0.000000 0.000000 0.030342
#
#
# Mechanical properties :
#
#
# Convention : Reuss Voigt Hill
#
# Bulk Modulus (GPa) = 32.45766 41.68474 37.07120
# Shear Modulus (GPa) = 22.60458 27.29316 24.94887
#
# Velocity S-wave (km/s) = 3.29298 3.61841 3.45952
# Velocity P-wave (km/s) = 5.47984 6.11996 5.80872
#
# Compressibility (1/GPa) = 0.03080937
#
# Stress axis : x y z
#
# Youngs Moduli (GPa) = 36.01016 115.27212 75.91762
#
# Poissons Ratio (x) = 0.19987 0.39784
# Poissons Ratio (y) = 0.06244 0.18445
# Poissons Ratio (z) = 0.18871 0.28006
#
# Static dielectric constant tensor:
#      x y z
#    x 1.752290 0.000000 0.000000 
#    y 0.000000 1.838660 0.000000 
#    z 0.000000 0.000000 1.768430 
# 
# From -- ./inp_files/66863.got.cif
#   From: 2010.05.17/outbox.cif.g08.bks.cpg/sg63_34_cif.got.tgz:66863.got - 2010.06.03 15:47:04.
