data_PCOD9474309
_publ_section_title
;
Structure prediction by ZEFSAII (Michael W. Deem and Ramdas Pophale) SiO2 
 PCOD9474309
Probable space group: C M C M
;
_chemical_formula_sum "Si O2"
_cell_formula_units_Z 80
_cell_length_a 16.254363
_cell_length_b 30.149849
_cell_length_c 7.905880
_cell_angle_alpha 90.000000
_cell_angle_beta 90.000000
_cell_angle_gamma 90.000000
_cell_volume 3874.407653
_symmetry_space_group_name_H-M "C M C M"
_symmetry_group_IT_number 63
_symmetry_cell_setting 'orthorhombic'
loop_
_space_group_symop_operation_xyz
x,y,z
-x,-y,1/2+z
x,-y,-z
-x,y,1/2-z
-x,-y,-z
x,y,1/2-z
-x,y,z
x,-y,1/2+z
1/2+x,1/2+y,z
1/2-x,1/2-y,1/2+z
1/2+x,1/2-y,-z
1/2-x,1/2+y,1/2-z
1/2-x,1/2-y,-z
1/2+x,1/2+y,1/2-z
1/2-x,1/2+y,z
1/2+x,1/2-y,1/2+z
loop_
_atom_site_type_symbol
_atom_site_label
_atom_site_fract_x
_atom_site_fract_y
_atom_site_fract_z
Si Si1 0.673179 0.048700 0.546209
Si Si2 0.408226 0.861382 0.046506
Si Si3 0.500000 0.616282 0.957139
Si Si4 0.500000 0.718644 0.957613
Si Si5 0.662710 0.229551 0.049358
Si Si6 0.861383 0.951017 0.453523
O O1 0.675297 0.050903 0.750000
O O2 0.621936 0.090763 0.484059
O O3 0.767535 0.052284 0.483300
O O4 0.641012 0.000000 0.500000
O O5 0.411972 0.863787 0.250000
O O6 0.500000 0.850966 0.982160
O O7 0.347540 0.821457 0.003387
O O8 0.500000 0.616357 0.750000
O O9 0.500000 0.667259 0.010575
O O10 0.579498 0.588191 0.013151
O O11 0.500000 0.719272 0.750000
O O12 0.582894 0.743475 0.016959
O O13 0.657452 0.231563 0.250000
O O14 0.750000 0.250000 0.000000
O O15 0.858982 0.948547 0.250000
O O16 0.892899 0.000000 0.500000
#
# Coordination Sequence:
#
# PCOD9474309 Si02
#       6
#    16  16   8   8  16  16
#     4   9  19  34  53  79 110 146 185 231 282 338
#     4  10  21  38  60  84 114 150 190 237 291 349
#     4   9  17  29  50  76 100 137 179 218 263 323
#     4   9  20  37  58  84 115 145 190 238 282 347
#     4  11  23  40  62  88 116 153 196 242 295 351
#     4   9  17  30  50  73 102 138 178 218 265 320
#
# _framework density 20.648319000000001
#
# number of rings (size 3 to 8) (size 9 to 14) (size 15 to 20)
#    0.000    2.400    1.000    0.900    2.800    1.200 
#    0.000    0.000    0.000    2.400    0.000    0.000 
#    0.000    0.000    0.000    0.000    0.000    0.000 
#
# Total GULP energy -223305.505457 kJ/mol
# GULP energy per Si atom -5582.637636 kJ/mol
# Density = 2.060132 g / cm^3
# Si number density = 20.648319 Si / 1000 Ang^3
#
#
#
# Elastic Constant Matrix: (Units=GPa)
#
#
# Indices 1 2 3 4 5 6 
#
# 1 110.6022 78.7874 9.9918 0.0000 0.0000 0.0000
# 2 78.7874 182.0787 7.1201 0.0000 0.0000 0.0000
# 3 9.9918 7.1201 19.4615 0.0000 0.0000 0.0000
# 4 0.0000 0.0000 0.0000 24.7910 0.0000 0.0000
# 5 0.0000 0.0000 0.0000 0.0000 14.5692 0.0000
# 6 0.0000 0.0000 0.0000 0.0000 0.0000 36.4442
#
#
#
# Elastic Compliance Matrix: (Units=1/GPa)
#
#
# Indices 1 2 3 4 5 6 
#
# 1 0.013510 -0.005656 -0.004867 0.000000 0.000000 0.000000
# 2 -0.005656 0.007939 -0.000001 0.000000 0.000000 0.000000
# 3 -0.004867 -0.000001 0.053883 0.000000 0.000000 0.000000
# 4 0.000000 0.000000 0.000000 0.040337 0.000000 0.000000
# 5 0.000000 0.000000 0.000000 0.000000 0.068638 0.000000
# 6 0.000000 0.000000 0.000000 0.000000 0.000000 0.027439
#
#
# Mechanical properties :
#
#
# Convention : Reuss Voigt Hill
#
# Bulk Modulus (GPa) = 18.42143 55.99344 37.20743
# Shear Modulus (GPa) = 19.92920 29.57709 24.75314
#
# Velocity S-wave (km/s) = 3.11009 3.78884 3.46612
# Velocity P-wave (km/s) = 4.67309 6.80566 5.83758
#
# Compressibility (1/GPa) = 0.05428460
#
# Stress axis : x y z
#
# Youngs Moduli (GPa) = 74.02042 125.95458 18.55889
#
# Poissons Ratio (x) = 0.71234 0.09033
# Poissons Ratio (y) = 0.41862 0.00002
# Poissons Ratio (z) = 0.36026 0.00013
#
# Static dielectric constant tensor:
#      x y z
#    x 1.732020 0.000000 0.000000 
#    y 0.000000 1.765650 0.000000 
#    z 0.000000 0.000000 1.743710 
# 
# From -- ./inp_files/6544.got.cif
#   From: 2010.05.17/outbox.cif.g08.bks.cpg/sg63_4_cif.got.tgz:6544.got - 2010.06.03 15:47:04.
