data_PCOD9474989
_publ_section_title
;
Structure prediction by ZEFSAII (Michael W. Deem and Ramdas Pophale) SiO2 
 PCOD9474989
Probable space group: C M C M
;
_chemical_formula_sum "Si O2"
_cell_formula_units_Z 96
_cell_length_a 13.671552
_cell_length_b 12.231791
_cell_length_c 21.329120
_cell_angle_alpha 90.000000
_cell_angle_beta 90.000000
_cell_angle_gamma 90.000000
_cell_volume 3566.816838
_symmetry_space_group_name_H-M "C M C M"
_symmetry_group_IT_number 63
_symmetry_cell_setting 'orthorhombic'
loop_
_space_group_symop_operation_xyz
x,y,z
-x,-y,1/2+z
x,-y,-z
-x,y,1/2-z
-x,-y,-z
x,y,1/2-z
-x,y,z
x,-y,1/2+z
1/2+x,1/2+y,z
1/2-x,1/2-y,1/2+z
1/2+x,1/2-y,-z
1/2-x,1/2+y,1/2-z
1/2-x,1/2-y,-z
1/2+x,1/2+y,1/2-z
1/2-x,1/2+y,z
1/2+x,1/2-y,1/2+z
loop_
_atom_site_type_symbol
_atom_site_label
_atom_site_fract_x
_atom_site_fract_y
_atom_site_fract_z
Si Si1 0.882663 0.225109 0.350062
Si Si2 0.117651 0.517934 0.677397
Si Si3 0.882857 0.805065 0.115214
Si Si4 0.383623 0.212576 0.518930
Si Si5 0.618391 0.296258 0.250000
Si Si6 0.249309 0.519015 0.933017
Si Si7 0.380874 0.449380 0.750000
O O1 0.860738 0.349891 0.328390
O O2 0.855625 0.209052 0.422896
O O3 0.849032 0.126467 0.307568
O O4 0.000000 0.221884 0.346746
O O5 0.137508 0.485564 0.750000
O O6 0.178664 0.465007 0.620159
O O7 0.000000 0.502708 0.667382
O O8 0.855130 0.749016 0.049915
O O9 0.851381 0.753662 0.181707
O O10 0.831643 0.921756 0.108561
O O11 0.000000 0.814938 0.116105
O O12 0.500000 0.199436 0.520250
O O13 0.331440 0.101721 0.536804
O O14 0.500000 0.287487 0.250000
O O15 0.647958 0.424471 0.250000
O O16 0.303454 0.500000 0.000000
O O17 0.500000 0.454372 0.750000
#
# Coordination Sequence:
#
# PCOD9474989 Si02
#       7
#    16  16  16  16   8  16   8
#     4   8  13  24  47  80 111 139 178 233 288 335
#     4   9  17  32  56  85 117 154 197 243 300 359
#     4  10  22  41  61  80 113 162 210 243 285 355
#     4   9  19  37  62  88 116 153 198 242 293 360
#     4   9  20  36  55  80 108 152 201 245 292 344
#     4  11  23  36  59  90 126 156 193 252 307 353
#     4   9  14  24  45  76 113 142 183 241 289 330
#
# _framework density 26.914753999999999
#
# number of rings (size 3 to 8) (size 9 to 14) (size 15 to 20)
#    0.000    2.667    0.833    2.000    1.167    3.000 
#    0.000    3.333    1.833    0.000    0.000    0.000 
#    0.000    0.000    0.000    0.000    0.000    0.000 
#
# Total GULP energy -268193.742628 kJ/mol
# GULP energy per Si atom -5587.369638 kJ/mol
# Density = 2.685349 g / cm^3
# Si number density = 26.914754 Si / 1000 Ang^3
#
#
#
# Elastic Constant Matrix: (Units=GPa)
#
#
# Indices 1 2 3 4 5 6 
#
# 1 114.9790 4.6510 25.0173 0.0000 0.0000 0.0000
# 2 4.6510 69.0232 63.0916 0.0000 0.0000 0.0000
# 3 25.0173 63.0916 262.2271 0.0000 0.0000 0.0000
# 4 0.0000 0.0000 0.0000 51.6352 0.0000 0.0000
# 5 0.0000 0.0000 0.0000 0.0000 35.8222 0.0000
# 6 0.0000 0.0000 0.0000 0.0000 0.0000 18.1102
#
#
#
# Elastic Compliance Matrix: (Units=1/GPa)
#
#
# Indices 1 2 3 4 5 6 
#
# 1 0.008884 0.000226 -0.000902 0.000000 0.000000 0.000000
# 2 0.000226 0.018578 -0.004491 0.000000 0.000000 0.000000
# 3 -0.000902 -0.004491 0.004980 0.000000 0.000000 0.000000
# 4 0.000000 0.000000 0.000000 0.019367 0.000000 0.000000
# 5 0.000000 0.000000 0.000000 0.000000 0.027916 0.000000
# 6 0.000000 0.000000 0.000000 0.000000 0.000000 0.055218
#
#
# Mechanical properties :
#
#
# Convention : Reuss Voigt Hill
#
# Bulk Modulus (GPa) = 45.23358 70.19434 57.71396
# Shear Modulus (GPa) = 32.75538 44.67815 38.71677
#
# Velocity S-wave (km/s) = 3.49234 4.07871 3.79687
# Velocity P-wave (km/s) = 5.75367 6.95112 6.38055
#
# Compressibility (1/GPa) = 0.02210747
#
# Stress axis : x y z
#
# Youngs Moduli (GPa) = 112.55750 53.82683 200.79664
#
# Poissons Ratio (x) = -0.01215 0.18110
# Poissons Ratio (y) = -0.02541 0.90186
# Poissons Ratio (z) = 0.10152 0.24176
#
# Static dielectric constant tensor:
#      x y z
#    x 2.043970 0.000000 0.000000 
#    y 0.000000 2.189030 0.000000 
#    z 0.000000 0.000000 2.324160 
# 
# From -- ./inp_files/54239.got.cif
#   From: 2010.05.17/outbox.cif.g08.bks.cpg/sg63_28_cif.got.tgz:54239.got - 2010.06.03 15:47:04.
