data_PCOD9474099
_publ_section_title
;
Structure prediction by ZEFSAII (Michael W. Deem and Ramdas Pophale) SiO2 
 PCOD9474099
Probable space group: C M C M
;
_chemical_formula_sum "Si O2"
_cell_formula_units_Z 104
_cell_length_a 21.133044
_cell_length_b 15.053971
_cell_length_c 16.876576
_cell_angle_alpha 90.000000
_cell_angle_beta 90.000000
_cell_angle_gamma 90.000000
_cell_volume 5369.050290
_symmetry_space_group_name_H-M "C M C M"
_symmetry_group_IT_number 63
_symmetry_cell_setting 'orthorhombic'
loop_
_space_group_symop_operation_xyz
x,y,z
-x,-y,1/2+z
x,-y,-z
-x,y,1/2-z
-x,-y,-z
x,y,1/2-z
-x,y,z
x,-y,1/2+z
1/2+x,1/2+y,z
1/2-x,1/2-y,1/2+z
1/2+x,1/2-y,-z
1/2-x,1/2+y,1/2-z
1/2-x,1/2-y,-z
1/2+x,1/2+y,1/2-z
1/2-x,1/2+y,z
1/2+x,1/2-y,1/2+z
loop_
_atom_site_type_symbol
_atom_site_label
_atom_site_fract_x
_atom_site_fract_y
_atom_site_fract_z
Si Si1 0.927044 0.689177 0.655319
Si Si2 0.263910 0.107899 0.159329
Si Si3 0.681595 0.719467 0.888261
Si Si4 0.096865 0.000000 0.000000
Si Si5 0.297666 0.090073 0.845679
Si Si6 0.150867 0.818638 0.556401
Si Si7 0.569462 0.589112 0.661140
O O1 0.923169 0.706977 0.750000
O O2 0.869632 0.620627 0.636325
O O3 0.906502 0.774597 0.604110
O O4 0.000000 0.662829 0.638546
O O5 0.245412 0.094019 0.250000
O O6 0.315948 0.185290 0.154074
O O7 0.206519 0.154905 0.114805
O O8 0.282790 0.010725 0.127313
O O9 0.745124 0.659577 0.876968
O O10 0.624732 0.659688 0.854194
O O11 0.671840 0.739441 0.981386
O O12 0.067859 0.020978 0.912973
O O13 0.134092 0.910989 0.984187
O O14 0.292242 0.092504 0.750000
O O15 0.578675 0.549616 0.750000
O O16 0.500000 0.632616 0.660593
#
# Coordination Sequence:
#
# PCOD9474099 Si02
#       7
#    16  16  16   8  16  16  16
#     4  10  22  41  63  87 120 162 205 253 309 369
#     4  11  21  35  60  89 116 154 201 251 306 363
#     4  11  22  38  58  88 122 156 197 253 308 363
#     4  10  23  38  58  88 122 156 201 256 301 362
#     4  10  21  38  61  89 119 155 201 252 303 360
#     4  11  22  37  58  89 120 157 197 248 313 365
#     4  10  21  37  57  82 119 164 201 245 308 371
#
# _framework density 19.370277999999999
#
# number of rings (size 3 to 8) (size 9 to 14) (size 15 to 20)
#    0.000    1.538    1.538    4.385    0.000    5.538 
#    0.000    2.308    0.000    3.692    0.000    0.000 
#    0.000    0.000    0.000    0.000    0.000    0.000 
#
# Total GULP energy -289649.983546 kJ/mol
# GULP energy per Si atom -5570.191991 kJ/mol
# Density = 1.932619 g / cm^3
# Si number density = 19.370278 Si / 1000 Ang^3
#
#
#
# Elastic Constant Matrix: (Units=GPa)
#
#
# Indices 1 2 3 4 5 6 
#
# 1 112.3654 26.1330 34.4499 0.0000 0.0000 0.0000
# 2 26.1330 88.3118 20.9895 0.0000 0.0000 0.0000
# 3 34.4499 20.9895 95.4039 0.0000 0.0000 0.0000
# 4 0.0000 0.0000 0.0000 27.7869 0.0000 0.0000
# 5 0.0000 0.0000 0.0000 0.0000 32.0379 0.0000
# 6 0.0000 0.0000 0.0000 0.0000 0.0000 17.5725
#
#
#
# Elastic Compliance Matrix: (Units=1/GPa)
#
#
# Indices 1 2 3 4 5 6 
#
# 1 0.010437 -0.002314 -0.003260 0.000000 0.000000 0.000000
# 2 -0.002314 0.012461 -0.001906 0.000000 0.000000 0.000000
# 3 -0.003260 -0.001906 0.012078 0.000000 0.000000 0.000000
# 4 0.000000 0.000000 0.000000 0.035988 0.000000 0.000000
# 5 0.000000 0.000000 0.000000 0.000000 0.031213 0.000000
# 6 0.000000 0.000000 0.000000 0.000000 0.000000 0.056907
#
#
# Mechanical properties :
#
#
# Convention : Reuss Voigt Hill
#
# Bulk Modulus (GPa) = 49.95668 51.02510 50.49089
# Shear Modulus (GPa) = 27.66767 29.78004 28.72386
#
# Velocity S-wave (km/s) = 3.78346 3.92523 3.85500
# Velocity P-wave (km/s) = 6.70317 6.85145 6.77772
#
# Compressibility (1/GPa) = 0.02001734
#
# Stress axis : x y z
#
# Youngs Moduli (GPa) = 95.81262 80.24892 82.79404
#
# Poissons Ratio (x) = 0.18568 0.26989
# Poissons Ratio (y) = 0.22169 0.15781
# Poissons Ratio (z) = 0.31232 0.15296
#
# Static dielectric constant tensor:
#      x y z
#    x 1.716490 0.000000 0.000000 
#    y 0.000000 1.673210 0.000000 
#    z 0.000000 0.000000 1.727440 
# 
# From -- ./inp_files/47135.got.cif
#   From: 2010.05.17/outbox.cif.g08.bks.cpg/sg63_24_cif.got.tgz:47135.got - 2010.06.03 15:47:04.
