data_PCOD9474737
_publ_section_title
;
Structure prediction by ZEFSAII (Michael W. Deem and Ramdas Pophale) SiO2 
 PCOD9474737
Probable space group: C M C M
;
_chemical_formula_sum "Si O2"
_cell_formula_units_Z 64
_cell_length_a 25.636742
_cell_length_b 8.776347
_cell_length_c 13.671906
_cell_angle_alpha 90.000000
_cell_angle_beta 90.000000
_cell_angle_gamma 90.000000
_cell_volume 3076.137065
_symmetry_space_group_name_H-M "C M C M"
_symmetry_group_IT_number 63
_symmetry_cell_setting 'orthorhombic'
loop_
_space_group_symop_operation_xyz
x,y,z
-x,-y,1/2+z
x,-y,-z
-x,y,1/2-z
-x,-y,-z
x,y,1/2-z
-x,y,z
x,-y,1/2+z
1/2+x,1/2+y,z
1/2-x,1/2-y,1/2+z
1/2+x,1/2-y,-z
1/2-x,1/2+y,1/2-z
1/2-x,1/2-y,-z
1/2+x,1/2+y,1/2-z
1/2-x,1/2+y,z
1/2+x,1/2-y,1/2+z
loop_
_atom_site_type_symbol
_atom_site_label
_atom_site_fract_x
_atom_site_fract_y
_atom_site_fract_z
Si Si1 0.119113 0.702743 0.510136
Si Si2 0.792686 0.271769 0.636058
Si Si3 0.180743 0.084441 0.362576
Si Si4 0.560892 0.049531 0.363773
O O1 0.169905 0.656260 0.445370
O O2 0.136070 0.853160 0.567081
O O3 0.075340 0.700227 0.425668
O O4 0.096220 0.584089 0.589363
O O5 0.804383 0.315244 0.750000
O O6 0.732959 0.316794 0.619181
O O7 0.802895 0.091121 0.626701
O O8 0.165167 0.107990 0.250000
O O9 0.571725 0.069023 0.250000
O O10 0.500000 0.012371 0.376311
#
# Coordination Sequence:
#
# PCOD9474737 Si02
#       4
#    16  16  16  16
#     4  11  20  34  61  86 116 155 199 245 306 363
#     4  10  22  37  56  87 128 168 206 246 290 352
#     4  10  22  37  56  87 128 168 206 246 290 352
#     4  10  23  41  62  91 119 148 201 267 320 367
#
# _framework density 20.805313999999999
#
# number of rings (size 3 to 8) (size 9 to 14) (size 15 to 20)
#    0.000    1.750    0.000    4.500    7.000    0.000 
#    0.000    0.000    0.000   12.000    0.000   28.000 
#    0.000    0.000    0.000    0.000    0.000    0.000 
#
# Total GULP energy -178546.898864 kJ/mol
# GULP energy per Si atom -5579.590589 kJ/mol
# Density = 2.075796 g / cm^3
# Si number density = 20.805314 Si / 1000 Ang^3
#
#
#
# Elastic Constant Matrix: (Units=GPa)
#
#
# Indices 1 2 3 4 5 6 
#
# 1 76.9169 57.2363 67.1538 0.0000 0.0000 0.0000
# 2 57.2363 74.3297 56.4328 0.0000 0.0000 0.0000
# 3 67.1538 56.4328 163.6655 0.0000 0.0000 0.0000
# 4 0.0000 0.0000 0.0000 30.1185 0.0000 0.0000
# 5 0.0000 0.0000 0.0000 0.0000 43.6599 0.0000
# 6 0.0000 0.0000 0.0000 0.0000 0.0000 24.9162
#
#
#
# Elastic Compliance Matrix: (Units=1/GPa)
#
#
# Indices 1 2 3 4 5 6 
#
# 1 0.035468 -0.022029 -0.006957 0.000000 0.000000 0.000000
# 2 -0.022029 0.031907 -0.001963 0.000000 0.000000 0.000000
# 3 -0.006957 -0.001963 0.009641 0.000000 0.000000 0.000000
# 4 0.000000 0.000000 0.000000 0.033202 0.000000 0.000000
# 5 0.000000 0.000000 0.000000 0.000000 0.022904 0.000000
# 6 0.000000 0.000000 0.000000 0.000000 0.000000 0.040135
#
#
# Mechanical properties :
#
#
# Convention : Reuss Voigt Hill
#
# Bulk Modulus (GPa) = 66.14717 75.17309 70.66013
# Shear Modulus (GPa) = 20.81640 28.67820 24.74730
#
# Velocity S-wave (km/s) = 3.16655 3.71672 3.45261
# Velocity P-wave (km/s) = 6.72546 7.39113 7.06614
#
# Compressibility (1/GPa) = 0.01511781
#
# Stress axis : x y z
#
# Youngs Moduli (GPa) = 28.19459 31.34086 103.72007
#
# Poissons Ratio (x) = 0.69042 0.72157
# Poissons Ratio (y) = 0.62111 0.20359
# Poissons Ratio (z) = 0.19615 0.06152
#
# Static dielectric constant tensor:
#      x y z
#    x 1.742920 0.000000 0.000000 
#    y 0.000000 1.791250 0.000000 
#    z 0.000000 0.000000 1.800010 
# 
# From -- ./inp_files/36166.got.cif
#   From: 2010.05.17/outbox.cif.g08.bks.cpg/sg63_19_cif.got.tgz:36166.got - 2010.06.03 15:47:04.
