data_PCOD9474575
_publ_section_title
;
Structure prediction by ZEFSAII (Michael W. Deem and Ramdas Pophale) SiO2 
 PCOD9474575
Probable space group: C M C M
;
_chemical_formula_sum "Si O2"
_cell_formula_units_Z 56
_cell_length_a 21.299003
_cell_length_b 11.700374
_cell_length_c 9.932173
_cell_angle_alpha 90.000000
_cell_angle_beta 90.000000
_cell_angle_gamma 90.000000
_cell_volume 2475.160093
_symmetry_space_group_name_H-M "C M C M"
_symmetry_group_IT_number 63
_symmetry_cell_setting 'orthorhombic'
loop_
_space_group_symop_operation_xyz
x,y,z
-x,-y,1/2+z
x,-y,-z
-x,y,1/2-z
-x,-y,-z
x,y,1/2-z
-x,y,z
x,-y,1/2+z
1/2+x,1/2+y,z
1/2-x,1/2-y,1/2+z
1/2+x,1/2-y,-z
1/2-x,1/2+y,1/2-z
1/2-x,1/2-y,-z
1/2+x,1/2+y,1/2-z
1/2-x,1/2+y,z
1/2+x,1/2-y,1/2+z
loop_
_atom_site_type_symbol
_atom_site_label
_atom_site_fract_x
_atom_site_fract_y
_atom_site_fract_z
Si Si1 0.886198 0.763692 0.537216
Si Si2 0.205680 0.050021 0.750000
Si Si3 0.072285 0.417680 0.250000
Si Si4 0.277218 0.293229 0.750000
Si Si5 0.422489 0.826231 0.750000
Si Si6 0.383794 0.500000 0.500000
O O1 0.913541 0.659133 0.621407
O O2 0.819972 0.783608 0.614189
O O3 0.893557 0.729052 0.383237
O O4 0.919353 0.887442 0.550130
O O5 0.244598 0.927650 0.750000
O O6 0.239171 0.173616 0.750000
O O7 0.161172 0.041799 0.620018
O O8 0.100753 0.542648 0.250000
O O9 0.000000 0.442977 0.250000
O O10 0.500000 0.814520 0.750000
#
# Coordination Sequence:
#
# PCOD9474575 Si02
#       6
#    16   8   8   8   8   8
#     4  10  21  40  61  89 119 161 201 246 300 367
#     4  10  21  42  61  88 121 171 197 260 302 359
#     4  10  21  40  60  86 126 158 194 253 311 352
#     4   9  22  43  61  88 127 161 207 249 311 353
#     4  11  22  39  63  92 122 156 201 250 302 358
#     4  10  22  42  63  82 130 160 195 252 314 344
#
# _framework density 22.6248
#
# number of rings (size 3 to 8) (size 9 to 14) (size 15 to 20)
#    0.000    2.000    0.000    3.429    0.000    6.857 
#   25.714    4.286    0.000    0.000    0.000    0.000 
#    0.000    0.000    0.000    0.000    0.000    0.000 
#
# Total GULP energy -156046.229281 kJ/mol
# GULP energy per Si atom -5573.079617 kJ/mol
# Density = 2.257331 g / cm^3
# Si number density = 22.624800 Si / 1000 Ang^3
#
#
#
# Elastic Constant Matrix: (Units=GPa)
#
#
# Indices 1 2 3 4 5 6 
#
# 1 48.7995 42.1553 32.3466 0.0000 0.0000 0.0000
# 2 42.1553 240.4982 52.7192 0.0000 0.0000 0.0000
# 3 32.3466 52.7192 192.0294 0.0000 0.0000 0.0000
# 4 0.0000 0.0000 0.0000 52.7091 0.0000 0.0000
# 5 0.0000 0.0000 0.0000 0.0000 -16.0648 0.0000
# 6 0.0000 0.0000 0.0000 0.0000 0.0000 -148.1946
#
#
#
# Elastic Compliance Matrix: (Units=1/GPa)
#
#
# Indices 1 2 3 4 5 6 
#
# 1 0.026006 -0.003829 -0.003330 0.000000 0.000000 0.000000
# 2 -0.003829 0.004988 -0.000724 0.000000 0.000000 0.000000
# 3 -0.003330 -0.000724 0.005967 0.000000 0.000000 0.000000
# 4 0.000000 0.000000 0.000000 0.018972 0.000000 0.000000
# 5 0.000000 0.000000 0.000000 0.000000 -0.062248 0.000000
# 6 0.000000 0.000000 0.000000 0.000000 0.000000 -0.006748
#
#
# Mechanical properties :
#
#
# Convention : Reuss Voigt Hill
#
# Bulk Modulus (GPa) = 47.17809 81.75214 64.46511
# Shear Modulus (GPa) = 511.85576 1.29702 256.57639
#
# Velocity S-wave (km/s) = 15.05748 0.75797 10.66073
# Velocity P-wave (km/s) = 17.97780 6.08098 13.41975
#
# Compressibility (1/GPa) = 0.02119628
#
# Stress axis : x y z
#
# Youngs Moduli (GPa) = 38.45218 200.48385 167.58058
#
# Poissons Ratio (x) = 0.76757 0.55797
# Poissons Ratio (y) = 0.14722 0.12141
# Poissons Ratio (z) = 0.12803 0.14524
#
# Static dielectric constant tensor:
#      x y z
#    x 1.886580 0.000000 0.000000 
#    y 0.000000 1.902070 0.000000 
#    z 0.000000 0.000000 1.818830 
# 
# From -- ./inp_files/11502.got.cif
#   From: 2010.05.17/outbox.cif.g08.bks.cpg/sg63_6_cif.got.tgz:11502.got - 2010.06.03 15:47:04.
