data_PCOD9474085
_publ_section_title
;
Structure prediction by ZEFSAII (Michael W. Deem and Ramdas Pophale) SiO2 
 PCOD9474085
Probable space group: C M C M
;
_chemical_formula_sum "Si O2"
_cell_formula_units_Z 100
_cell_length_a 22.972124
_cell_length_b 14.727955
_cell_length_c 13.983128
_cell_angle_alpha 90.000000
_cell_angle_beta 90.000000
_cell_angle_gamma 90.000000
_cell_volume 4730.945375
_symmetry_space_group_name_H-M "C M C M"
_symmetry_group_IT_number 63
_symmetry_cell_setting 'orthorhombic'
loop_
_space_group_symop_operation_xyz
x,y,z
-x,-y,1/2+z
x,-y,-z
-x,y,1/2-z
-x,-y,-z
x,y,1/2-z
-x,y,z
x,-y,1/2+z
1/2+x,1/2+y,z
1/2-x,1/2-y,1/2+z
1/2+x,1/2-y,-z
1/2-x,1/2+y,1/2-z
1/2-x,1/2-y,-z
1/2+x,1/2+y,1/2-z
1/2-x,1/2+y,z
1/2+x,1/2-y,1/2+z
loop_
_atom_site_type_symbol
_atom_site_label
_atom_site_fract_x
_atom_site_fract_y
_atom_site_fract_z
Si Si1 0.932830 0.624979 0.867089
Si Si2 0.272360 0.185914 0.133788
Si Si3 0.716411 0.610217 0.865874
Si Si4 0.000000 0.000000 0.000000
Si Si5 0.329939 0.999556 0.866132
Si Si6 0.138519 0.800933 0.635965
Si Si7 0.397927 0.503255 0.863074
O O1 0.934473 0.628020 0.750000
O O2 0.892213 0.539869 0.894357
O O3 0.897996 0.715180 0.900743
O O4 0.000000 0.622155 0.899239
O O5 0.272186 0.181337 0.250000
O O6 0.293405 0.285820 0.106010
O O7 0.204698 0.181746 0.103106
O O8 0.311160 0.100979 0.102160
O O9 0.718182 0.609446 0.750000
O O10 0.778185 0.568400 0.895483
O O11 0.663342 0.546127 0.893462
O O12 0.949416 0.962029 0.072611
O O13 0.329846 0.998818 0.750000
O O14 0.144864 0.783823 0.750000
O O15 0.103924 0.894366 0.625291
O O16 0.405772 0.521584 0.750000
#
# Coordination Sequence:
#
# PCOD9474085 Si02
#       7
#    16  16  16   4  16  16  16
#     4   9  16  23  35  62 103 141 174 224 286 338
#     4   9  14  22  42  73 104 138 181 229 276 326
#     4   9  15  26  47  75 105 139 182 229 279 332
#     4  12  26  40  56  78 112 150 188 232 284 346
#     4   9  14  22  38  67 105 141 182 229 275 327
#     4   9  15  25  45  75 103 131 175 226 278 330
#     4  10  21  37  57  81 111 148 186 230 284 340
#
# _framework density 21.137425
#
# number of rings (size 3 to 8) (size 9 to 14) (size 15 to 20)
#    0.000    2.720    3.200    0.240    1.120    0.000 
#    0.000    0.000    1.760    0.960    0.000    0.000 
#    0.000    1.280    0.000    0.160    0.000    0.000 
#
# Total GULP energy -278626.595009 kJ/mol
# GULP energy per Si atom -5572.531900 kJ/mol
# Density = 2.108932 g / cm^3
# Si number density = 21.137425 Si / 1000 Ang^3
#
#
#
# Elastic Constant Matrix: (Units=GPa)
#
#
# Indices 1 2 3 4 5 6 
#
# 1 151.8709 66.8475 8.4414 0.0000 0.0000 0.0000
# 2 66.8475 136.7063 3.0956 0.0000 0.0000 0.0000
# 3 8.4414 3.0956 89.0443 0.0000 0.0000 0.0000
# 4 0.0000 0.0000 0.0000 -5.3971 0.0000 0.0000
# 5 0.0000 0.0000 0.0000 0.0000 47.5540 0.0000
# 6 0.0000 0.0000 0.0000 0.0000 0.0000 24.2957
#
#
#
# Elastic Compliance Matrix: (Units=1/GPa)
#
#
# Indices 1 2 3 4 5 6 
#
# 1 0.008429 -0.004107 -0.000656 0.000000 0.000000 0.000000
# 2 -0.004107 0.009322 0.000065 0.000000 0.000000 0.000000
# 3 -0.000656 0.000065 0.011290 0.000000 0.000000 0.000000
# 4 0.000000 0.000000 0.000000 -0.185285 0.000000 0.000000
# 5 0.000000 0.000000 0.000000 0.000000 0.021029 0.000000
# 6 0.000000 0.000000 0.000000 0.000000 0.000000 0.041159
#
#
# Mechanical properties :
#
#
# Convention : Reuss Voigt Hill
#
# Bulk Modulus (GPa) = 50.90303 59.37673 55.13988
# Shear Modulus (GPa) = -64.00986 33.23966 -15.38510
#
# Velocity S-wave (km/s) = -5.50894 3.96984 -2.70082
# Velocity P-wave (km/s) = 4.04109 7.01175 4.05181
#
# Compressibility (1/GPa) = 0.01964519
#
# Stress axis : x y z
#
# Youngs Moduli (GPa) = 118.64398 107.27841 88.57150
#
# Poissons Ratio (x) = 0.44055 0.05813
# Poissons Ratio (y) = 0.48722 -0.00578
# Poissons Ratio (z) = 0.07786 -0.00700
#
# Static dielectric constant tensor:
#      x y z
#    x 1.719510 0.000000 0.000000 
#    y 0.000000 1.772620 0.000000 
#    z 0.000000 0.000000 1.807330 
# 
# From -- ./inp_files/47136.got.cif
#   From: 2010.05.17/outbox.cif.g08.bks.cpg/sg63_24_cif.got.tgz:47136.got - 2010.06.03 15:47:04.
