data_PCOD9474468
_publ_section_title
;
Structure prediction by ZEFSAII (Michael W. Deem and Ramdas Pophale) SiO2 
 PCOD9474468
Probable space group: C M C M
;
_chemical_formula_sum "Si O2"
_cell_formula_units_Z 88
_cell_length_a 21.082314
_cell_length_b 9.334713
_cell_length_c 22.932186
_cell_angle_alpha 90.000000
_cell_angle_beta 90.000000
_cell_angle_gamma 90.000000
_cell_volume 4512.993447
_symmetry_space_group_name_H-M "C M C M"
_symmetry_group_IT_number 63
_symmetry_cell_setting 'orthorhombic'
loop_
_space_group_symop_operation_xyz
x,y,z
-x,-y,1/2+z
x,-y,-z
-x,y,1/2-z
-x,-y,-z
x,y,1/2-z
-x,y,z
x,-y,1/2+z
1/2+x,1/2+y,z
1/2-x,1/2-y,1/2+z
1/2+x,1/2-y,-z
1/2-x,1/2+y,1/2-z
1/2-x,1/2-y,-z
1/2+x,1/2+y,1/2-z
1/2-x,1/2+y,z
1/2+x,1/2-y,1/2+z
loop_
_atom_site_type_symbol
_atom_site_label
_atom_site_fract_x
_atom_site_fract_y
_atom_site_fract_z
Si Si1 0.104175 0.189222 0.750000
Si Si2 0.677849 0.127368 0.964517
Si Si3 0.319877 0.608112 0.951668
Si Si4 0.864851 0.241055 0.342914
Si Si5 0.358255 0.017779 0.750000
Si Si6 0.431590 0.455957 0.365166
Si Si7 0.709811 0.556247 0.250000
O O1 0.113917 0.358737 0.750000
O O2 0.068677 0.138113 0.807349
O O3 0.168239 0.089847 0.750000
O O4 0.746170 0.068699 0.940816
O O5 0.650109 0.207358 0.908342
O O6 0.684838 0.240892 0.016568
O O7 0.643766 0.000000 0.000000
O O8 0.369432 0.596238 0.900006
O O9 0.345213 0.500000 0.000000
O O10 0.876826 0.383138 0.305059
O O11 0.919415 0.121386 0.347375
O O12 0.810256 0.153138 0.306430
O O13 0.282483 0.989748 0.750000
O O14 0.500000 0.442222 0.395495
#
# Coordination Sequence:
#
# PCOD9474468 Si02
#       7
#     8  16  16  16   8  16   8
#     4  10  23  39  61  93 122 159 213 262 315 363
#     4  10  22  36  61  93 132 155 190 256 324 375
#     4  10  21  39  60  91 118 162 204 242 302 365
#     4  10  22  39  59  91 126 166 198 249 322 370
#     4  11  23  35  61  96 125 156 196 263 328 373
#     4  11  24  44  66  86 119 170 221 254 294 375
#     4   9  21  36  58  93 127 161 202 255 319 384
#
# _framework density 19.499253
#
# number of rings (size 3 to 8) (size 9 to 14) (size 15 to 20)
#    0.000    1.818    1.818    1.909   10.182    0.364 
#    0.000    1.818    0.000    1.091    0.000    0.000 
#    0.000    0.000    0.000    0.000    0.000    0.000 
#
# Total GULP energy -245070.731081 kJ/mol
# GULP energy per Si atom -5569.789343 kJ/mol
# Density = 1.945487 g / cm^3
# Si number density = 19.499253 Si / 1000 Ang^3
#
#
#
# Elastic Constant Matrix: (Units=GPa)
#
#
# Indices 1 2 3 4 5 6 
#
# 1 73.3575 26.3694 23.6954 0.0000 0.0000 0.0000
# 2 26.3694 142.1718 41.4048 0.0000 0.0000 0.0000
# 3 23.6954 41.4048 65.9051 0.0000 0.0000 0.0000
# 4 0.0000 0.0000 0.0000 39.0662 0.0000 0.0000
# 5 0.0000 0.0000 0.0000 0.0000 6.8742 0.0000
# 6 0.0000 0.0000 0.0000 0.0000 0.0000 -347.8226
#
#
#
# Elastic Compliance Matrix: (Units=1/GPa)
#
#
# Indices 1 2 3 4 5 6 
#
# 1 0.015698 -0.001552 -0.004669 0.000000 0.000000 0.000000
# 2 -0.001552 0.008762 -0.004947 0.000000 0.000000 0.000000
# 3 -0.004669 -0.004947 0.019960 0.000000 0.000000 0.000000
# 4 0.000000 0.000000 0.000000 0.025598 0.000000 0.000000
# 5 0.000000 0.000000 0.000000 0.000000 0.145472 0.000000
# 6 0.000000 0.000000 0.000000 0.000000 0.000000 -0.002875
#
#
# Mechanical properties :
#
#
# Convention : Reuss Voigt Hill
#
# Bulk Modulus (GPa) = 45.28072 51.59706 48.43889
# Shear Modulus (GPa) = 20.63458 -47.71211 -13.53876
#
# Velocity S-wave (km/s) = 3.25656 -4.95195 -2.63786
# Velocity P-wave (km/s) = 6.11657 2.48541 3.95191
#
# Compressibility (1/GPa) = 0.02208445
#
# Stress axis : x y z
#
# Youngs Moduli (GPa) = 63.70301 114.12571 50.10034
#
# Poissons Ratio (x) = 0.17710 0.23392
# Poissons Ratio (y) = 0.09885 0.24784
# Poissons Ratio (z) = 0.29743 0.56457
#
# Static dielectric constant tensor:
#      x y z
#    x 1.697760 0.000000 0.000000 
#    y 0.000000 1.718810 0.000000 
#    z 0.000000 0.000000 1.756770 
# 
# From -- ./inp_files/64464.got.cif
#   From: 2010.05.17/outbox.cif.g08.bks.cpg/sg63_33_cif.got.tgz:64464.got - 2010.06.03 15:47:04.
