data_PCOD9474498
_publ_section_title
;
Structure prediction by ZEFSAII (Michael W. Deem and Ramdas Pophale) SiO2 
 PCOD9474498
Probable space group: C M C M
;
_chemical_formula_sum "Si O2"
_cell_formula_units_Z 72
_cell_length_a 20.008552
_cell_length_b 19.893179
_cell_length_c 8.891508
_cell_angle_alpha 90.000000
_cell_angle_beta 90.000000
_cell_angle_gamma 90.000000
_cell_volume 3539.119885
_symmetry_space_group_name_H-M "C M C M"
_symmetry_group_IT_number 63
_symmetry_cell_setting 'orthorhombic'
loop_
_space_group_symop_operation_xyz
x,y,z
-x,-y,1/2+z
x,-y,-z
-x,y,1/2-z
-x,-y,-z
x,y,1/2-z
-x,y,z
x,-y,1/2+z
1/2+x,1/2+y,z
1/2-x,1/2-y,1/2+z
1/2+x,1/2-y,-z
1/2-x,1/2+y,1/2-z
1/2-x,1/2-y,-z
1/2+x,1/2+y,1/2-z
1/2-x,1/2+y,z
1/2+x,1/2-y,1/2+z
loop_
_atom_site_type_symbol
_atom_site_label
_atom_site_fract_x
_atom_site_fract_y
_atom_site_fract_z
Si Si1 0.922002 0.709356 0.077616
Si Si2 0.389767 0.070236 0.575361
Si Si3 0.500000 0.575037 0.931120
Si Si4 0.622844 0.658731 0.071757
Si Si5 0.728671 0.429671 0.424787
O O1 0.898198 0.711271 0.250000
O O2 0.000000 0.728638 0.076349
O O3 0.915983 0.634851 0.012075
O O4 0.884411 0.764161 0.977977
O O5 0.409670 0.071856 0.750000
O O6 0.308856 0.073950 0.568090
O O7 0.410361 0.000000 0.500000
O O8 0.500000 0.572382 0.750000
O O9 0.500000 0.500000 0.000000
O O10 0.564958 0.615395 0.989905
O O11 0.615390 0.651989 0.250000
O O12 0.692828 0.629046 0.015329
O O13 0.707806 0.500000 0.500000
O O14 0.708572 0.428020 0.250000
#
# Coordination Sequence:
#
# PCOD9474498 Si02
#       5
#    16  16   8  16  16
#     4  11  24  42  64  89 122 162 203 254 309 363
#     4  10  22  41  66  93 122 158 202 253 307 366
#     4  12  24  40  60  86 121 162 207 252 298 354
#     4  12  24  39  61  89 122 162 204 250 303 362
#     4  10  21  39  62  90 124 161 203 252 304 361
#
# _framework density 20.34404
#
# number of rings (size 3 to 8) (size 9 to 14) (size 15 to 20)
#    0.000    1.111    1.111    5.667    0.000    5.333 
#    0.000    0.000    0.000    0.000    0.000    0.000 
#    0.000    0.000    0.000    0.000    0.000    0.000 
#
# Total GULP energy -201463.649044 kJ/mol
# GULP energy per Si atom -5596.212473 kJ/mol
# Density = 2.029774 g / cm^3
# Si number density = 20.344040 Si / 1000 Ang^3
#
#
#
# Elastic Constant Matrix: (Units=GPa)
#
#
# Indices 1 2 3 4 5 6 
#
# 1 23.0777 12.1613 23.3507 0.0000 0.0000 0.0000
# 2 12.1613 120.9855 47.2387 0.0000 0.0000 0.0000
# 3 23.3507 47.2387 182.0057 0.0000 0.0000 0.0000
# 4 0.0000 0.0000 0.0000 41.1375 0.0000 0.0000
# 5 0.0000 0.0000 0.0000 0.0000 24.5865 0.0000
# 6 0.0000 0.0000 0.0000 0.0000 0.0000 27.1554
#
#
#
# Elastic Compliance Matrix: (Units=1/GPa)
#
#
# Indices 1 2 3 4 5 6 
#
# 1 0.050660 -0.002843 -0.005762 0.000000 0.000000 0.000000
# 2 -0.002843 0.009357 -0.002064 0.000000 0.000000 0.000000
# 3 -0.005762 -0.002064 0.006769 0.000000 0.000000 0.000000
# 4 0.000000 0.000000 0.000000 0.024309 0.000000 0.000000
# 5 0.000000 0.000000 0.000000 0.000000 0.040673 0.000000
# 6 0.000000 0.000000 0.000000 0.000000 0.000000 0.036825
#
#
# Mechanical properties :
#
#
# Convention : Reuss Voigt Hill
#
# Bulk Modulus (GPa) = 22.00235 54.61892 38.31064
# Shear Modulus (GPa) = 24.38088 34.79709 29.58899
#
# Velocity S-wave (km/s) = 3.46559 4.14022 3.81784
# Velocity P-wave (km/s) = 5.18193 7.05416 6.18925
#
# Compressibility (1/GPa) = 0.04544968
#
# Stress axis : x y z
#
# Youngs Moduli (GPa) = 19.73952 106.87157 147.72777
#
# Poissons Ratio (x) = 0.30379 0.85116
# Poissons Ratio (y) = 0.05611 0.30489
# Poissons Ratio (z) = 0.11373 0.22057
#
# Static dielectric constant tensor:
#      x y z
#    x 1.732630 0.000000 0.000000 
#    y 0.000000 1.689770 0.000000 
#    z 0.000000 0.000000 1.685480 
# 
# From -- ./inp_files/9865.got.cif
#   From: 2010.05.17/outbox.cif.g08.bks.cpg/sg63_5_cif.got.tgz:9865.got - 2010.06.03 15:47:04.
