data_PCOD9474803
_publ_section_title
;
Structure prediction by ZEFSAII (Michael W. Deem and Ramdas Pophale) SiO2 
 PCOD9474803
Probable space group: C M C M
;
_chemical_formula_sum "Si O2"
_cell_formula_units_Z 68
_cell_length_a 17.174479
_cell_length_b 20.127146
_cell_length_c 9.884095
_cell_angle_alpha 90.000000
_cell_angle_beta 90.000000
_cell_angle_gamma 90.000000
_cell_volume 3416.667205
_symmetry_space_group_name_H-M "C M C M"
_symmetry_group_IT_number 63
_symmetry_cell_setting 'orthorhombic'
loop_
_space_group_symop_operation_xyz
x,y,z
-x,-y,1/2+z
x,-y,-z
-x,y,1/2-z
-x,-y,-z
x,y,1/2-z
-x,y,z
x,-y,1/2+z
1/2+x,1/2+y,z
1/2-x,1/2-y,1/2+z
1/2+x,1/2-y,-z
1/2-x,1/2+y,1/2-z
1/2-x,1/2-y,-z
1/2+x,1/2+y,1/2-z
1/2-x,1/2+y,z
1/2+x,1/2-y,1/2+z
loop_
_atom_site_type_symbol
_atom_site_label
_atom_site_fract_x
_atom_site_fract_y
_atom_site_fract_z
Si Si1 0.412630 0.254316 0.029442
Si Si2 0.629158 0.099266 0.465760
Si Si3 0.640554 0.691437 0.250000
Si Si4 0.500000 0.942051 0.750000
Si Si5 0.196140 0.569797 0.750000
Si Si6 0.787224 0.208776 0.750000
Si Si7 0.757452 0.073809 0.250000
O O1 0.500000 0.264592 0.083799
O O2 0.398339 0.175328 0.019673
O O3 0.344106 0.282543 0.122623
O O4 0.404537 0.286672 0.883166
O O5 0.567404 0.064038 0.368820
O O6 0.644090 0.070240 0.614360
O O7 0.709806 0.096991 0.382755
O O8 0.721423 0.734054 0.250000
O O9 0.662610 0.613923 0.250000
O O10 0.243984 0.638428 0.750000
O O11 0.252258 0.505846 0.750000
#
# Coordination Sequence:
#
# PCOD9474803 Si02
#       7
#    16  16   8   4   8   8   8
#     4  12  23  38  65  96 130 161 208 269 324 379
#     4  11  21  39  63  88 128 166 207 255 323 377
#     4  12  22  40  66  95 123 166 215 265 316 371
#     4  10  22  38  62  86 130 182 198 246 318 396
#     4  12  25  40  62  97 124 160 221 273 304 370
#     4  12  22  39  67  93 122 168 216 264 316 373
#     4  11  24  41  63  88 129 166 205 267 326 367
#
# _framework density 19.902436000000002
#
# number of rings (size 3 to 8) (size 9 to 14) (size 15 to 20)
#    0.000    0.471    5.882    4.235    0.000    0.471 
#    0.000    9.412    0.000    4.235    0.000    0.000 
#    0.000    0.000    0.000    0.000    0.000    0.000 
#
# Total GULP energy -189689.009011 kJ/mol
# GULP energy per Si atom -5579.088500 kJ/mol
# Density = 1.985714 g / cm^3
# Si number density = 19.902436 Si / 1000 Ang^3
#
#
#
# Elastic Constant Matrix: (Units=GPa)
#
#
# Indices 1 2 3 4 5 6 
#
# 1 72.6654 45.2888 32.0138 0.0000 0.0000 0.0000
# 2 45.2888 123.0672 36.3585 0.0000 0.0000 0.0000
# 3 32.0138 36.3585 159.0669 0.0000 0.0000 0.0000
# 4 0.0000 0.0000 0.0000 -17.3248 0.0000 0.0000
# 5 0.0000 0.0000 0.0000 0.0000 34.0609 0.0000
# 6 0.0000 0.0000 0.0000 0.0000 0.0000 -1.0346
#
#
#
# Elastic Compliance Matrix: (Units=1/GPa)
#
#
# Indices 1 2 3 4 5 6 
#
# 1 0.018636 -0.006167 -0.002341 0.000000 0.000000 0.000000
# 2 -0.006167 0.010755 -0.001217 0.000000 0.000000 0.000000
# 3 -0.002341 -0.001217 0.007036 0.000000 0.000000 0.000000
# 4 0.000000 0.000000 0.000000 -0.057721 0.000000 0.000000
# 5 0.000000 0.000000 0.000000 0.000000 0.029359 0.000000
# 6 0.000000 0.000000 0.000000 0.000000 0.000000 -0.966537
#
#
# Mechanical properties :
#
#
# Convention : Reuss Voigt Hill
#
# Bulk Modulus (GPa) = 58.90247 64.68016 61.79132
# Shear Modulus (GPa) = -5.35698 19.21619 6.92961
#
# Velocity S-wave (km/s) = -1.64240 3.11065 1.86798
# Velocity P-wave (km/s) = 5.10522 6.74320 5.98055
#
# Compressibility (1/GPa) = 0.01697722
#
# Stress axis : x y z
#
# Youngs Moduli (GPa) = 53.65815 92.98420 142.12482
#
# Poissons Ratio (x) = 0.57339 0.33275
# Poissons Ratio (y) = 0.33089 0.17298
# Poissons Ratio (z) = 0.12563 0.11317
#
# Static dielectric constant tensor:
#      x y z
#    x 1.670280 0.000000 0.000000 
#    y 0.000000 1.712470 0.000000 
#    z 0.000000 0.000000 1.701360 
# 
# From -- ./inp_files/5948.got.cif
#   From: 2010.05.17/outbox.cif.g08.bks.cpg/sg63_3_cif.got.tgz:5948.got - 2010.06.03 15:47:04.
